data_functionalizedCrystal
_audit_creation_method	'MofGen! by Chris Wilmer'
_symmetry_space_group_name_H-M	'P1'
_symmetry_Int_Tables_number	1
_symmetry_cell_setting	triclinic
loop_
_symmetry_equiv_pos_as_xyz
  x,y,z
_cell_length_a	19.188933
_cell_length_b	17.666332
_cell_length_c	10.723024
_cell_angle_alpha	90.003996
_cell_angle_beta	83.806719
_cell_angle_gamma	90.007838
loop_
_atom_site_label
_atom_site_type_symbol
_atom_site_fract_x
_atom_site_fract_y
_atom_site_fract_z
O1	O	0.927161	0.062921	0.155793
O2	O	0.723986	0.062928	0.176761
O3	O	0.830260	0.062922	-0.015397
O4	O	0.820887	0.062928	0.347950
O5	O	0.830241	-0.062975	-0.015402
O6	O	0.723967	-0.062969	0.176755
O7	O	0.927142	-0.062976	0.155787
Cu8	Cu	0.825553	-0.074467	0.166271
Cu9	Cu	0.825575	0.074420	0.166277
O10	O	0.820868	-0.062969	0.347945
C11	C	0.697961	-0.000019	0.176079
C12	C	0.620444	-0.000017	0.174039
C13	C	0.067104	0.068601	0.159485
C14	C	0.139941	0.068604	0.161394
C15	C	0.176354	-0.000022	0.162352
C16	C	0.139926	-0.068656	0.161368
C17	C	0.067092	-0.068657	0.159446
N18	N	0.285847	-0.051102	0.236370
N19	N	0.355036	-0.051097	0.238198
C20	C	0.395800	-0.000023	0.168138
N21	N	0.364759	0.051056	0.096197
N22	N	0.295563	0.051053	0.094374
C23	C	0.255330	-0.000029	0.164434
C24	C	0.511197	0.068610	0.171183
C25	C	0.584036	0.068610	0.173084
C26	C	0.584019	-0.068652	0.173070
C27	C	0.511182	-0.068650	0.171156
C28	C	0.474776	-0.000017	0.170219
N29	N	0.825542	-0.179187	0.166265
C30	C	0.868242	-0.218791	0.241765
C31	C	0.868253	-0.298038	0.241761
C32	C	0.825552	-0.337679	0.166272
C33	C	0.782850	-0.298066	0.090758
C34	C	0.782845	-0.218820	0.090754
N35	N	0.764384	-0.462117	0.163198
N36	N	0.764390	-0.537397	0.163208
C37	C	0.825565	-0.576443	0.166277
N38	N	0.886733	-0.537365	0.169359
N39	N	0.886726	-0.462077	0.169355
C40	C	0.825552	-0.423608	0.166267
C41	C	0.868280	-0.701976	0.241776
C42	C	0.868292	-0.781225	0.241763
C43	C	0.782882	-0.781251	0.090768
C44	C	0.782876	-0.702004	0.090773
C45	C	0.825574	-0.662371	0.166284
C46	C	0.953167	-0.000026	0.156469
C47	C	1.030685	-0.000024	0.158509
C48	C	0.829569	-0.000026	-0.061885
C49	C	0.827528	-0.000023	-0.200397
N50	N	0.825592	0.179139	0.166273
C51	C	0.886993	-0.000024	-0.276613
C52	C	0.884885	-0.000021	-0.419773
C53	C	0.821560	-0.000020	0.394433
C54	C	0.823601	-0.000018	0.532945
H55	H	0.481553	0.124495	0.170415
H56	H	0.169578	-0.124532	0.162145
Cl57	Cl	0.629822	0.154890	0.174299
Cl58	Cl	0.746513	-0.000013	-0.263275
H59	H	0.903025	-0.330290	0.303245
Cl60	Cl	0.021305	-0.154936	0.158224
Cl61	Cl	0.629790	-0.154926	0.174253
H62	H	0.037466	0.124488	0.158717
H63	H	0.772691	-0.000022	-0.401574
H64	H	0.481529	-0.124532	0.170365
Cl65	Cl	0.968009	-0.000022	-0.213735
H66	H	0.169599	0.124489	0.162197
H67	H	0.748083	-0.330347	0.029293
H68	H	0.903012	-0.186526	0.303247
Cl69	Cl	0.963486	-0.000028	-0.520876
H70	H	0.748072	-0.186575	0.029272
Cl71	Cl	0.729180	-0.652214	-0.004121
Cl72	Cl	0.921971	-0.652148	0.336674
Cl73	Cl	0.921981	-0.831013	0.336680
Cl74	Cl	0.729208	-0.831078	-0.004148
