data_functionalizedCrystal
_audit_creation_method	'MofGen! by Chris Wilmer'
_symmetry_space_group_name_H-M	'P1'
_symmetry_Int_Tables_number	1
_symmetry_cell_setting	triclinic
loop_
_symmetry_equiv_pos_as_xyz
  x,y,z
_cell_length_a	18.215407
_cell_length_b	18.215405
_cell_length_c	12.759393
_cell_angle_alpha	89.962431
_cell_angle_beta	89.980633
_cell_angle_gamma	90.022329
loop_
_atom_site_label
_atom_site_type_symbol
_atom_site_fract_x
_atom_site_fract_y
_atom_site_fract_z
Zn1	Zn	1.125086	-0.292991	-0.593962
Zn2	Zn	1.625086	0.207009	-0.093962
Zn3	Zn	1.124991	-0.416077	-0.418264
Zn4	Zn	1.624991	0.083923	0.081736
Zn5	Zn	1.002015	-0.293024	-0.418299
Zn6	Zn	1.502015	0.206976	0.081701
Zn7	Zn	1.001985	-0.416015	-0.593902
Zn8	Zn	1.501985	0.083985	-0.093902
O9	O	1.063519	-0.354527	-0.506107
O10	O	1.563519	0.145473	-0.006107
O11	O	1.228058	-0.309331	-0.570665
O12	O	1.728058	0.190669	-0.070665
O13	O	1.108650	-0.399794	-0.271247
O14	O	1.608650	0.100206	0.228753
O15	O	1.018393	-0.190035	-0.441640
O16	O	1.518393	0.309965	0.058360
O17	O	1.227988	-0.399762	-0.441581
O18	O	1.727988	0.100238	0.058419
O19	O	1.108813	-0.190011	-0.570699
O20	O	1.608813	0.309989	-0.070699
O21	O	1.018300	-0.309387	-0.271273
O22	O	1.518300	0.190613	0.228727
O23	O	0.899027	-0.309326	-0.441583
O24	O	1.399027	0.190674	0.058417
O25	O	1.018342	-0.399656	-0.740931
O26	O	1.518342	0.100344	-0.240931
O27	O	0.899005	-0.399687	-0.570598
O28	O	1.399005	0.100313	-0.070598
O29	O	1.108784	-0.309271	-0.740975
O30	O	1.608784	0.190729	-0.240975
O31	O	1.108621	-0.519053	-0.441523
O32	O	1.608621	-0.019053	0.058477
O33	O	1.018249	-0.519008	-0.570564
O34	O	1.518249	-0.019008	-0.070564
C35	C	0.872313	-0.354504	-0.506088
C36	C	1.372313	0.145496	-0.006088
C37	C	0.790514	-0.354512	-0.506105
C38	C	1.290514	0.145488	-0.006105
C39	C	1.063441	-0.545733	-0.506056
C40	C	1.563441	-0.045733	-0.006056
C41	C	1.063476	-0.627532	-0.506070
C42	C	1.563476	-0.127532	-0.006070
C43	C	0.602356	-0.307522	-0.573426
C44	C	1.102356	0.192478	-0.073426
C45	C	0.525497	-0.307528	-0.573429
C46	C	1.025497	0.192472	-0.073429
C47	C	0.525435	-0.401553	-0.438806
C48	C	1.025435	0.098447	0.061194
C49	C	0.602292	-0.401542	-0.438798
C50	C	1.102292	0.098458	0.061202
C51	C	0.640751	-0.354528	-0.506114
C52	C	1.140751	0.145472	-0.006114
C53	C	0.487034	-0.354545	-0.506125
C54	C	0.987034	0.145455	-0.006125
C55	C	0.403701	-0.354552	-0.506129
C56	C	0.903701	0.145448	-0.006129
C57	C	0.724089	-0.354519	-0.506109
C58	C	1.224089	0.145481	-0.006109
C59	C	1.110643	-0.815725	-0.439002
C60	C	1.610643	-0.315725	0.060998
C61	C	1.110675	-0.892584	-0.439027
C62	C	1.610675	-0.392584	0.060973
C63	C	1.016490	-0.892576	-0.573287
C64	C	1.516490	-0.392576	-0.073287
C65	C	1.016461	-0.815719	-0.573266
C66	C	1.516461	-0.315719	-0.073266
C67	C	1.063536	-0.777295	-0.506117
C68	C	1.563536	-0.277295	-0.006117
C69	C	1.063598	-0.931011	-0.506164
C70	C	1.563598	-0.431011	-0.006164
C71	C	1.063633	-1.014345	-0.506192
C72	C	1.563633	-0.514345	-0.006192
C73	C	1.063502	-0.693957	-0.506091
C74	C	1.563502	-0.193957	-0.006091
C75	C	1.255472	-0.354550	-0.506126
C76	C	1.755472	0.145450	-0.006126
C77	C	1.337271	-0.354560	-0.506134
C78	C	1.837271	0.145440	-0.006134
C79	C	1.063571	-0.354453	-0.780140
C80	C	1.563571	0.145547	-0.280140
C81	C	1.063593	-0.354421	-0.896917
C82	C	1.563593	0.145579	-0.396917
C83	C	1.063617	-0.162574	-0.506180
C84	C	1.563617	0.337426	-0.006180
C85	C	1.063659	-0.080775	-0.506212
C86	C	1.563659	0.419225	-0.006212
C87	C	1.110692	-0.307353	-0.951803
C88	C	1.610692	0.192647	-0.451803
C89	C	1.110710	-0.307326	-1.061527
C90	C	1.610710	0.192674	-0.561527
C91	C	1.016526	-0.401442	-1.061469
C92	C	1.516526	0.098558	-0.561469
C93	C	1.016505	-0.401464	-0.951747
C94	C	1.516505	0.098536	-0.451747
C95	C	1.165071	-0.253018	-0.951838
C96	C	1.665071	0.246982	-0.451838
C97	C	1.165089	-0.252991	-1.061562
C98	C	1.665089	0.247009	-0.561562
C99	C	1.063510	-0.354548	-0.233139
C100	C	1.563510	0.145452	0.266861
C101	C	1.063631	-0.354372	-0.116363
C102	C	1.563631	0.145628	0.383637
H103	H	0.633666	-0.269237	-0.628236
H104	H	1.133666	0.230763	-0.128236
C105	C	0.964653	-0.773443	-0.647124
C106	C	1.464653	-0.273443	-0.147124
N107	N	0.925640	-0.741602	-0.702761
N108	N	1.425640	-0.241602	-0.202761
H109	H	0.494239	-0.269250	-0.628240
H110	H	0.994239	0.230750	-0.128240
H111	H	0.978149	-0.439789	-0.907062
H112	H	1.478149	0.060211	-0.407062
H113	H	1.219194	-0.273452	-0.917800
H114	H	1.719194	0.226548	-0.417800
C115	C	0.644529	-0.453255	-0.364745
C116	C	1.144529	0.046745	0.135255
N117	N	0.676341	-0.492202	-0.308969
N118	N	1.176341	0.007798	0.191031
H119	H	1.148975	-0.784443	-0.384326
H120	H	1.648975	-0.284443	0.115674
C121	C	1.162493	-0.934853	-0.365190
C122	C	1.662493	-0.434853	0.134810
N123	N	1.201524	-0.966690	-0.309571
N124	N	1.701524	-0.466690	0.190429
C125	C	0.483123	-0.453270	-0.364769
C126	C	0.983123	0.046730	0.135231
N127	N	0.451255	-0.492227	-0.309006
N128	N	0.951255	0.007773	0.190994
C129	C	0.964702	-0.934849	-0.647135
C130	C	1.464702	-0.434849	-0.147135
N131	N	0.925690	-0.966688	-0.702754
N132	N	1.425690	-0.466688	-0.202754
H133	H	0.978187	-0.439742	-1.106125
H134	H	1.478187	0.060258	-0.606125
H135	H	1.149833	-0.196024	-0.922090
H136	H	1.649833	0.303976	-0.422090
H137	H	1.144705	-0.198838	-1.095618
H138	H	1.644705	0.301162	-0.595618
C139	C	1.242083	-0.273625	-1.101795
C140	C	1.742083	0.226375	-0.601795
N141	N	1.300072	-0.289167	-1.132098
N142	N	1.800072	0.210833	-0.632098
