data_functionalizedCrystal
_audit_creation_method	'MofGen! by Chris Wilmer'
_symmetry_space_group_name_H-M	'P1'
_symmetry_Int_Tables_number	1
_symmetry_cell_setting	triclinic
loop_
_symmetry_equiv_pos_as_xyz
  x,y,z
_cell_length_a	10.489741
_cell_length_b	14.971486
_cell_length_c	14.048226
_cell_angle_alpha	90.001501
_cell_angle_beta	89.993872
_cell_angle_gamma	95.923349
loop_
_atom_site_label
_atom_site_type_symbol
_atom_site_fract_x
_atom_site_fract_y
_atom_site_fract_z
O1	O	0.166222	-1.187893	-0.079050
O2	O	0.186127	-0.927606	-0.079076
O3	O	-0.009492	-1.063672	-0.079057
O4	O	0.361841	-1.051827	-0.079070
O5	O	-0.009503	-1.063656	0.079264
O6	O	0.186116	-0.927590	0.079245
O7	O	0.166211	-1.187876	0.079271
Zn8	Zn	0.176161	-1.057730	0.104395
Zn9	Zn	0.176177	-1.057752	-0.104200
O10	O	0.361830	-1.051810	0.079252
C11	C	0.185232	-0.894268	0.000081
C12	C	0.182564	-0.794956	0.000071
C13	C	-0.057019	-1.062769	0.000103
C14	C	-0.198617	-1.060093	0.000101
C15	C	0.167106	-1.221215	0.000111
C16	C	0.169774	-1.320527	0.000115
C17	C	-0.265755	-0.973518	0.000085
C18	C	-0.358357	-1.014407	0.078150
C19	C	-0.358320	-1.014444	-0.077942
C20	C	-0.289354	-1.101017	0.078230
C21	C	-0.289308	-1.101042	-0.077933
C22	C	-0.381882	-1.141994	0.000151
C23	C	0.409357	-1.052713	0.000090
C24	C	0.550955	-1.055390	0.000085
N25	N	0.176150	-1.057722	0.246755
C26	C	0.297485	-0.738385	0.000069
C27	C	0.294971	-0.645071	0.000083
C28	C	0.177534	-0.608330	0.000093
C29	C	0.062604	-0.664909	0.000098
C30	C	0.065120	-0.758221	0.000091
C31	C	0.057369	-0.470416	0.000112
C32	C	0.054853	-0.377098	0.000117
C33	C	0.287220	-0.357267	0.000104
C34	C	0.289736	-0.450579	0.000096
C35	C	0.174805	-0.507151	0.000100
N36	N	0.176178	-1.057768	-0.246561
C37	C	0.089566	-1.117991	0.296582
C38	C	0.089565	-1.117997	0.396240
C39	C	0.176156	-1.057738	0.446069
C40	C	0.262744	-0.997462	0.396235
C41	C	0.262738	-0.997452	0.296580
C42	C	0.262754	-0.997488	0.603950
C43	C	0.262762	-0.997498	0.703612
C44	C	0.089581	-1.118033	0.703610
C45	C	0.089574	-1.118023	0.603954
C46	C	0.176165	-1.057748	0.554127
H47	H	-0.388949	-0.977768	0.144141
H48	H	-0.040774	-0.347187	0.000127
N49	N	0.424157	-0.777999	0.000059
H50	H	0.430378	-0.816276	0.058744
H51	H	0.430313	-0.816222	-0.058674
H52	H	-0.028461	-0.804281	0.000092
H53	H	0.333244	-0.948393	0.436812
N54	N	-0.066588	-0.531436	0.000122
H55	H	-0.141366	-0.494004	0.000126
H56	H	-0.070600	-0.570581	-0.058573
N57	N	-0.003813	-1.183048	0.757344
H58	H	0.009323	-1.173910	0.828036
H59	H	-0.094326	-1.172140	0.739934
N60	N	-0.064053	-0.625275	0.000108
H61	H	-0.114407	-0.645848	-0.058579
H62	H	-0.114311	-0.645859	0.058839
N63	N	-0.003809	-1.183024	0.449966
H64	H	-0.060389	-1.148509	0.491327
H65	H	-0.058554	-1.221179	0.403204
N66	N	-0.398802	-0.965916	-0.165360
H67	H	-0.356125	-0.902279	-0.165292
H68	H	-0.372462	-0.998049	-0.224269
H69	H	0.019059	-1.167065	0.256018
H70	H	0.333242	-0.948374	0.256012
H71	H	-0.258950	-1.137610	0.144302
N72	N	-0.198894	-0.879233	0.000168
H73	H	-0.223815	-0.846642	0.059187
H74	H	-0.103060	-0.881780	-0.000471
H75	H	0.385363	-0.480489	0.000079
H76	H	0.380801	-0.311201	0.000105
H77	H	0.333261	-0.948402	0.563384
H78	H	0.333272	-0.948428	0.744178
H79	H	-0.258682	-1.137650	-0.143927
N80	N	-0.003811	-1.183016	0.550202
H81	H	0.011030	-1.246593	0.567531
H82	H	-0.094324	-1.172062	0.567574
H83	H	-0.432131	-1.213239	0.000202
N84	N	0.418920	-0.584054	0.000188
H85	H	0.493696	-0.621488	0.000210
H86	H	0.423037	-0.544852	-0.058464
