data_functionalizedCrystal
_audit_creation_method	'MofGen! by Chris Wilmer'
_symmetry_space_group_name_H-M	'P1'
_symmetry_Int_Tables_number	1
_symmetry_cell_setting	triclinic
loop_
_symmetry_equiv_pos_as_xyz
  x,y,z
_cell_length_a	10.489711
_cell_length_b	10.489741
_cell_length_c	16.176319
_cell_angle_alpha	89.993511
_cell_angle_beta	89.991071
_cell_angle_gamma	84.533091
loop_
_atom_site_label
_atom_site_type_symbol
_atom_site_fract_x
_atom_site_fract_y
_atom_site_fract_z
O1	O	1.694081	0.179791	-0.068776
O2	O	2.194081	0.679791	0.431224
O3	O	1.322880	0.196723	-0.068771
O4	O	1.822880	0.696723	0.431229
O5	O	1.516927	0.002658	-0.068769
O6	O	2.016927	0.502658	0.431231
O7	O	1.500034	0.373856	-0.068778
O8	O	2.000034	0.873856	0.431222
O9	O	1.516900	0.002645	0.068724
O10	O	2.016900	0.502645	0.568724
O11	O	1.322853	0.196710	0.068722
O12	O	1.822853	0.696710	0.568722
O13	O	1.694054	0.179778	0.068717
O14	O	2.194054	0.679778	0.568717
Cu15	Cu	1.508451	0.188243	0.081274
Cu16	Cu	2.008451	0.688243	0.581274
Cu17	Cu	1.508483	0.188258	-0.081328
Cu18	Cu	2.008483	0.688258	0.418672
O19	O	1.500007	0.373843	0.068715
O20	O	2.000007	0.873843	0.568715
C21	C	1.275334	0.195446	-0.000024
C22	C	1.775334	0.695446	0.499976
C23	C	1.133703	0.191644	-0.000022
C24	C	1.633703	0.691644	0.499978
C25	C	0.951317	0.308348	-0.000034
C26	C	1.451317	0.808348	0.499966
C27	C	1.043476	0.250059	-0.067823
C28	C	1.543476	0.750059	0.432177
C29	C	1.043422	0.250015	0.067735
C30	C	1.543422	0.750015	0.567735
C31	C	0.973524	0.126516	-0.067884
C32	C	1.473524	0.626516	0.432116
C33	C	0.973461	0.126490	0.067735
C34	C	1.473461	0.626490	0.567735
C35	C	1.065593	0.068111	-0.000071
C36	C	1.565593	0.568111	0.499929
C37	C	1.515638	-0.044880	-0.000023
C38	C	2.015638	0.455120	0.499977
C39	C	1.511820	-0.186509	-0.000024
C40	C	2.011820	0.313491	0.499976
C41	C	1.388354	-0.254636	-0.000028
C42	C	1.888354	0.245364	0.499972
C43	C	1.446665	-0.346771	0.067762
C44	C	1.946665	0.153229	0.567762
C45	C	1.446721	-0.346733	-0.067795
C46	C	1.946721	0.153267	0.432205
C47	C	1.570182	-0.276779	0.067822
C48	C	2.070182	0.223221	0.567822
C49	C	1.570221	-0.276731	-0.067796
C50	C	2.070221	0.223269	0.432204
C51	C	1.628622	-0.368839	0.000011
C52	C	2.128622	0.131161	0.500011
C53	C	1.741600	0.181055	-0.000032
C54	C	2.241600	0.681055	0.499968
C55	C	1.883231	0.184857	-0.000039
C56	C	2.383231	0.684857	0.499961
C57	C	1.501296	0.421381	-0.000033
C58	C	2.001296	0.921381	0.499967
C59	C	1.505114	0.563010	-0.000037
C60	C	2.005114	1.063010	0.499963
N61	N	1.508438	0.188232	0.195639
N62	N	2.008438	0.688232	0.695639
N63	N	1.508506	0.188259	-0.195693
N64	N	2.008506	0.688259	0.304307
C65	C	1.594388	0.102335	0.238904
C66	C	2.094388	0.602335	0.738904
C67	C	1.594395	0.102334	0.325451
C68	C	2.094395	0.602334	0.825451
C69	C	1.508456	0.188236	0.368732
C70	C	2.008456	0.688236	0.868732
C71	C	1.422496	0.274136	0.325460
C72	C	1.922496	0.774136	0.825460
C73	C	1.422485	0.274131	0.238915
C74	C	1.922485	0.774131	0.738915
C75	C	1.422540	0.274161	0.674489
C76	C	1.922540	0.774161	1.174489
C77	C	1.422561	0.274163	0.761040
C78	C	1.922561	0.774163	1.261040
C79	C	1.594450	0.102364	0.761025
C80	C	2.094450	0.602364	1.261025
C81	C	1.594439	0.102358	0.674480
C82	C	2.094439	0.602358	1.174480
C83	C	1.508475	0.188253	0.631216
C84	C	2.008475	0.688253	1.131216
C85	C	1.508467	0.188252	0.537372
C86	C	2.008467	0.688252	1.037372
C87	C	1.508469	0.188245	0.462574
C88	C	2.008469	0.688245	0.962574
H89	H	0.942727	0.074318	-0.125261
H90	H	1.442727	0.574318	0.374739
H91	H	1.622429	-0.245687	-0.125112
H92	H	2.122429	0.254313	0.374888
H93	H	1.664443	0.032419	0.796260
H94	H	2.164443	0.532419	1.296260
N95	N	1.639282	-0.235943	0.143829
N96	N	2.139282	0.264057	0.643829
H97	H	1.592975	-0.262009	0.194965
H98	H	2.092975	0.237991	0.694965
H99	H	1.729764	-0.278582	0.143999
H100	H	2.229764	0.221418	0.643999
H101	H	1.664422	0.032413	0.639244
H102	H	2.164422	0.532413	1.139244
N103	N	1.329813	0.366796	0.372140
N104	N	1.829813	0.866796	0.872140
H105	H	1.275361	0.421210	0.331596
H106	H	1.775361	0.921210	0.831596
H107	H	1.272982	0.317421	0.408065
H108	H	1.772982	0.817421	0.908065
H109	H	1.664381	0.032390	0.360678
H110	H	2.164381	0.532390	0.860678
H111	H	0.901626	0.409850	-0.000104
H112	H	1.401626	0.909850	0.499896
H113	H	1.115050	-0.033484	-0.000102
H114	H	1.615050	0.466516	0.499898
N115	N	0.932350	0.057316	0.143652
N116	N	1.432350	0.557316	0.643652
H117	H	0.957500	0.104035	0.194835
H118	H	1.457500	0.604035	0.694835
H119	H	0.836388	0.054505	0.142717
H120	H	1.336388	0.554505	0.642717
H121	H	1.074366	0.302283	0.125045
H122	H	1.574366	0.802283	0.625045
N123	N	1.253892	-0.188851	0.000053
N124	N	1.753892	0.311149	0.500053
H125	H	1.207413	-0.214145	0.051311
H126	H	1.707413	0.285855	0.551311
H127	H	1.257525	-0.092988	-0.000502
H128	H	1.757525	0.407012	0.499498
N129	N	1.377469	-0.387841	0.143688
N130	N	1.877469	0.112159	0.643688
H131	H	1.286713	-0.345894	0.143643
H132	H	1.786713	0.154106	0.643643
H133	H	1.376221	-0.483993	0.143361
H134	H	1.876221	0.016007	0.643361
N135	N	1.329789	0.366779	0.192243
N136	N	1.829789	0.866779	0.692243
H137	H	1.272864	0.317479	0.156352
H138	H	1.772864	0.817479	0.656352
H139	H	1.275435	0.421181	0.232842
H140	H	1.775435	0.921181	0.732842
N141	N	1.329858	0.366811	0.807724
N142	N	1.829858	0.866811	1.307724
H143	H	1.275393	0.421220	0.767185
H144	H	1.775393	0.921220	1.267185
H145	H	1.273041	0.317416	0.843647
H146	H	1.773041	0.817416	1.343647
H147	H	1.074482	0.302320	-0.125134
H148	H	1.574482	0.802320	0.374866
N149	N	1.763203	-0.434328	0.000051
N150	N	2.263203	0.065672	0.500051
H151	H	1.809646	-0.408900	0.051277
H152	H	2.309646	0.091100	0.551277
H153	H	1.759789	-0.530220	-0.000468
H154	H	2.259789	-0.030220	0.499532
N155	N	1.377517	-0.387768	-0.143708
N156	N	1.877517	0.112232	0.356292
H157	H	1.286763	-0.345818	-0.143642
H158	H	1.786763	0.154182	0.356358
H159	H	1.423344	-0.361061	-0.194870
H160	H	1.923344	0.138939	0.305130
H161	H	1.664375	0.032389	0.203671
H162	H	2.164375	0.532389	0.703671
N163	N	1.329820	0.366794	0.627832
N164	N	1.829820	0.866794	1.127832
H165	H	1.275385	0.421211	0.668385
H166	H	1.775385	0.921211	1.168385
H167	H	1.379150	0.423662	0.591904
H168	H	1.879150	0.923662	1.091904
