data_functionalizedCrystal
_audit_creation_method	'MofGen! by Chris Wilmer'
_symmetry_space_group_name_H-M	'P1'
_symmetry_Int_Tables_number	1
_symmetry_cell_setting	triclinic
loop_
_symmetry_equiv_pos_as_xyz
  x,y,z
_cell_length_a	13.033286
_cell_length_b	18.050590
_cell_length_c	13.032268
_cell_angle_alpha	97.145544
_cell_angle_beta	105.163409
_cell_angle_gamma	82.849014
loop_
_atom_site_label
_atom_site_type_symbol
_atom_site_fract_x
_atom_site_fract_y
_atom_site_fract_z
Zn1	Zn	1.547460	-0.470708	-0.393869
Zn2	Zn	1.880793	-0.137375	-0.060535
Zn3	Zn	2.214126	0.195958	0.272798
Zn4	Zn	1.569912	-0.580909	-0.216264
Zn5	Zn	1.903245	-0.247575	0.117069
Zn6	Zn	2.236579	0.085758	0.450402
Zn7	Zn	1.392410	-0.442774	-0.238880
Zn8	Zn	1.725744	-0.109440	0.094453
Zn9	Zn	2.059077	0.223893	0.427786
Zn10	Zn	1.369827	-0.580880	-0.416418
Zn11	Zn	1.703160	-0.247546	-0.083085
Zn12	Zn	2.036493	0.085787	0.250248
O13	O	1.469902	-0.518818	-0.316358
O14	O	1.803236	-0.185484	0.016975
O15	O	2.136569	0.147849	0.350309
O16	O	1.699063	-0.497029	-0.351407
O17	O	2.032397	-0.163696	-0.018074
O18	O	2.365730	0.169637	0.315259
O19	O	1.565214	-0.550906	-0.070636
O20	O	1.898547	-0.217573	0.262697
O21	O	2.231880	0.115760	0.596030
O22	O	1.413033	-0.342562	-0.259468
O23	O	1.746366	-0.009229	0.073866
O24	O	2.079700	0.324105	0.407199
O25	O	1.715559	-0.577993	-0.220922
O26	O	2.048892	-0.244660	0.112411
O27	O	2.382226	0.088673	0.445745
O28	O	1.526947	-0.363085	-0.373337
O29	O	1.860280	-0.029752	-0.040004
O30	O	2.193614	0.303581	0.293330
O31	O	1.434804	-0.449419	-0.087252
O32	O	1.768137	-0.116086	0.246081
O33	O	2.101471	0.217248	0.579415
O34	O	1.240789	-0.449391	-0.281333
O35	O	1.574123	-0.116057	0.052000
O36	O	1.907456	0.217276	0.385334
O37	O	1.374542	-0.577944	-0.562055
O38	O	1.707876	-0.244610	-0.228722
O39	O	2.041209	0.088723	0.104611
O40	O	1.224197	-0.550857	-0.411770
O41	O	1.557531	-0.217523	-0.078436
O42	O	1.890864	0.115810	0.254897
O43	O	1.505049	-0.497001	-0.545488
O44	O	1.838382	-0.163668	-0.212155
O45	O	2.171715	0.169665	0.121178
O46	O	1.543315	-0.684822	-0.242788
O47	O	1.876649	-0.351489	0.090546
O48	O	2.209982	-0.018155	0.423879
O49	O	1.396313	-0.684801	-0.389840
O50	O	1.729647	-0.351467	-0.056507
O51	O	2.062980	-0.018134	0.276827
C52	C	1.193956	-0.497090	-0.351453
C53	C	1.527290	-0.163756	-0.018120
C54	C	1.860623	0.169577	0.315214
C55	C	1.075902	-0.487814	-0.366492
C56	C	1.409236	-0.154481	-0.033159
C57	C	1.742569	0.178852	0.300175
C58	C	1.031445	-0.523661	-0.308535
C59	C	1.364778	-0.190327	0.024798
C60	C	1.698112	0.143006	0.358131
C61	C	0.909430	-0.514075	-0.324078
C62	C	1.242763	-0.180742	0.009256
C63	C	1.576097	0.152592	0.342589
C64	C	1.469826	-0.711760	-0.316326
C65	C	1.803159	-0.378427	0.017007
C66	C	2.136493	-0.045093	0.350341
C67	C	1.469886	-0.794312	-0.316336
C68	C	1.803219	-0.460979	0.016998
C69	C	2.136553	-0.127645	0.350331
C70	C	1.549961	-0.993767	-0.236449
C71	C	1.883294	-0.660433	0.096885
C72	C	2.216627	-0.327100	0.430218
C73	C	1.563590	-1.052773	-0.330085
C74	C	1.896923	-0.719440	0.003248
C75	C	2.230256	-0.386106	0.336581
C76	C	1.469941	-0.945450	-0.316370
C77	C	1.803274	-0.612117	0.016963
C78	C	2.136608	-0.278784	0.350296
C79	C	1.456414	-1.033537	-0.222763
C80	C	1.789748	-0.700204	0.110570
C81	C	2.123081	-0.366871	0.443903
C82	C	1.469997	-1.091443	-0.316395
C83	C	1.803330	-0.758109	0.016938
C84	C	2.136664	-0.424776	0.350272
C85	C	1.483613	-1.003377	-0.410051
C86	C	1.816947	-0.670044	-0.076718
C87	C	2.150280	-0.336711	0.256615
C88	C	1.376401	-0.984129	-0.302670
C89	C	1.709734	-0.650796	0.030663
C90	C	2.043068	-0.317462	0.363997
C91	C	1.389985	-1.043115	-0.396378
C92	C	1.723318	-0.709782	-0.063045
C93	C	2.056652	-0.376449	0.270289
C94	C	1.469911	-0.861348	-0.316354
C95	C	1.803245	-0.528015	0.016979
C96	C	2.136578	-0.194681	0.350312
C97	C	1.470025	-1.175544	-0.316422
C98	C	1.803358	-0.842211	0.016911
C99	C	2.136692	-0.508878	0.350245
C100	C	1.746925	-0.540631	-0.281127
C101	C	2.080259	-0.207297	0.052207
C102	C	2.413592	0.126036	0.385540
C103	C	1.864976	-0.549926	-0.266113
C104	C	2.198310	-0.216593	0.067220
C105	C	2.531643	0.116741	0.400554
C106	C	1.434772	-0.540585	-0.593387
C107	C	1.768105	-0.207252	-0.260054
C108	C	2.101438	0.126081	0.073280
C109	C	1.419801	-0.549861	-0.711440
C110	C	1.753135	-0.216528	-0.378107
C111	C	2.086468	0.116805	-0.044774
C112	C	1.470005	-0.325126	-0.316410
C113	C	1.803338	0.008208	0.016924
C114	C	2.136671	0.341541	0.350257
C115	C	1.470048	-0.242586	-0.316432
C116	C	1.803382	0.090747	0.016902
C117	C	2.136715	0.424081	0.350235
C118	C	1.477699	-0.513948	-0.755875
C119	C	1.811032	-0.180615	-0.422542
C120	C	2.144366	0.152718	-0.089208
C121	C	1.462228	-0.523535	-0.877889
C122	C	1.795561	-0.190201	-0.544556
C123	C	2.128894	0.143132	-0.211222
C124	C	1.504957	-0.497086	-0.040399
C125	C	1.838290	-0.163752	0.292934
C126	C	2.171624	0.169581	0.626268
C127	C	1.520133	-0.487617	0.077680
C128	C	1.853467	-0.154283	0.411013
C129	C	2.186800	0.179050	0.744347
H130	H	1.617643	-0.972110	-0.168921
H131	H	1.950976	-0.638777	0.164412
H132	H	2.284310	-0.305443	0.497746
H133	H	1.642717	-1.082609	-0.341692
H134	H	1.976051	-0.749276	-0.008359
H135	H	2.309384	-0.415942	0.324974
Br136	Br	1.277221	-1.079011	-0.509155
Br137	Br	1.610554	-0.745678	-0.175821
Br138	Br	1.943887	-0.412344	0.157512
Br139	Br	0.822324	-0.451098	-0.425974
Br140	Br	1.155657	-0.117764	-0.092641
Br141	Br	1.488991	0.215569	0.240692
Br142	Br	1.502892	-0.980936	-0.542025
Br143	Br	1.836226	-0.647603	-0.208692
Br144	Br	2.169559	-0.314269	0.124641
H145	H	1.401194	-0.561376	-0.930175
H146	H	1.734528	-0.228042	-0.596841
H147	H	2.067861	0.105291	-0.263508
Br148	Br	1.244553	-0.934377	-0.283279
Br149	Br	1.577887	-0.601044	0.050055
Br150	Br	1.911220	-0.267710	0.383388
H151	H	1.444949	-1.047107	-0.143592
H152	H	1.778282	-0.713774	0.189742
H153	H	2.111616	-0.380441	0.523075
H154	H	1.538717	-0.476102	-0.703587
H155	H	1.872050	-0.142768	-0.370254
H156	H	2.205384	0.190565	-0.036921
Br157	Br	1.318080	-0.612932	-0.798581
Br158	Br	1.651414	-0.279599	-0.465248
Br159	Br	1.984747	0.053734	-0.131915
Br160	Br	1.621864	-0.424546	-0.835185
Br161	Br	1.955198	-0.091213	-0.501851
Br162	Br	2.288531	0.242121	-0.168518
H163	H	0.917240	-0.587721	-0.204992
H164	H	1.250573	-0.254388	0.128342
H165	H	1.583906	0.078945	0.461675
Br166	Br	1.118552	-0.586649	-0.206660
Br167	Br	1.451886	-0.253315	0.126673
Br168	Br	1.785219	0.080018	0.460006
Br169	Br	0.988793	-0.424840	-0.468385
Br170	Br	1.322126	-0.091507	-0.135051
Br171	Br	1.655460	0.241827	0.198282
