data_functionalizedCrystal
_audit_creation_method	'MofGen! by Chris Wilmer'
_symmetry_space_group_name_H-M	'P1'
_symmetry_Int_Tables_number	1
_symmetry_cell_setting	triclinic
loop_
_symmetry_equiv_pos_as_xyz
  x,y,z
_cell_length_a	14.908571
_cell_length_b	12.759400
_cell_length_c	14.908308
_cell_angle_alpha	86.729656
_cell_angle_beta	89.824947
_cell_angle_gamma	86.709538
loop_
_atom_site_label
_atom_site_type_symbol
_atom_site_fract_x
_atom_site_fract_y
_atom_site_fract_z
Zn1	Zn	1.345354	-0.548283	0.587608
Zn2	Zn	1.353952	-0.714464	0.437256
Zn3	Zn	1.203667	-0.528103	0.428605
Zn4	Zn	1.194979	-0.713216	0.578908
O5	O	1.274488	-0.626017	0.508094
O6	O	1.472321	-0.579295	0.574925
O7	O	1.341250	-0.681820	0.310284
O8	O	1.222499	-0.383763	0.449718
O9	O	1.478638	-0.701387	0.464463
O10	O	1.326596	-0.398589	0.566536
O11	O	1.230836	-0.544902	0.303928
O12	O	1.076687	-0.543691	0.441281
O13	O	1.207693	-0.699260	0.705887
O14	O	1.070305	-0.679692	0.551708
O15	O	1.318172	-0.578085	0.712279
O16	O	1.332826	-0.861315	0.456026
O17	O	1.216030	-0.860398	0.560097
C18	C	1.040870	-0.609367	0.494612
C19	C	0.940927	-0.602271	0.488866
C20	C	0.746533	-0.730754	0.592901
C21	C	0.652627	-0.724090	0.587505
C22	C	0.659206	-0.582276	0.472683
C23	C	0.753112	-0.588939	0.478079
C24	C	0.796772	-0.663182	0.538189
C25	C	0.890681	-0.669850	0.543580
C26	C	0.897258	-0.528031	0.428763
C27	C	0.803352	-0.521368	0.423367
C28	C	1.274441	-0.898980	0.508077
C29	C	1.274502	-1.015762	0.508105
C30	C	1.328674	-1.078265	0.568978
C31	C	1.328714	-1.187994	0.569002
C32	C	1.220410	-1.172705	0.447273
C33	C	1.220365	-1.062979	0.447253
C34	C	1.382811	-1.031048	0.629830
C35	C	1.436988	-1.093552	0.690707
C36	C	1.437029	-1.203281	0.690731
C37	C	1.382892	-1.250505	0.629878
C38	C	1.509017	-0.642732	0.521629
C39	C	1.608960	-0.649855	0.527397
C40	C	1.261004	-0.640784	0.742620
C41	C	1.255258	-0.647077	0.842561
C42	C	1.274558	-0.351990	0.508132
C43	C	1.274587	-0.235217	0.508149
C44	C	1.287971	-0.611234	0.274484
C45	C	1.293891	-0.604658	0.174553
C46	C	1.359501	-0.532699	1.037019
C47	C	1.354105	-0.538608	1.130922
C48	C	1.239067	-0.664800	1.124274
C49	C	1.244462	-0.658890	1.030370
C50	C	1.304683	-0.592839	0.986746
C51	C	1.310083	-0.586935	0.892841
C52	C	1.195040	-0.713121	0.886194
C53	C	1.189644	-0.719030	0.980097
H54	H	0.767791	-0.460919	0.374430
H55	H	1.408539	-0.478922	1.001500
O56	O	0.946027	-0.462484	0.375482
C57	C	0.983462	-0.403583	0.224253
C58	C	0.928199	-0.477881	0.284489
H59	H	0.969054	-0.415989	0.150673
H60	H	1.058095	-0.421094	0.238351
H61	H	0.964100	-0.318597	0.239149
H62	H	0.947483	-0.562892	0.269628
H63	H	0.853579	-0.460278	0.270380
H64	H	1.176335	-1.211165	0.397729
H65	H	1.382786	-0.941703	0.629815
O66	O	0.616876	-0.510208	0.414193
C67	C	0.596788	-0.447283	0.259675
C68	C	0.644814	-0.528948	0.325809
H69	H	0.619343	-0.462418	0.188200
H70	H	0.614362	-0.364886	0.276577
H71	H	0.521046	-0.454129	0.265289
H72	H	0.720565	-0.522197	0.320230
H73	H	0.627166	-0.611311	0.308887
H74	H	0.782082	-0.791211	0.641840
O75	O	1.180495	-0.728973	1.166515
C76	C	1.066999	-0.853562	1.150025
C77	C	1.133276	-0.780911	1.102072
H78	H	1.028818	-0.895590	1.097946
H79	H	1.017408	-0.804785	1.191249
H80	H	1.105756	-0.914154	1.196394
H81	H	1.094594	-0.720306	1.055659
H82	H	1.182866	-0.829757	1.060905
O83	O	1.489701	-1.264109	0.749744
C84	C	1.610475	-1.397249	0.768964
C85	C	1.550866	-1.328446	0.702035
H86	H	1.659954	-1.449268	0.730417
H87	H	1.566527	-1.448725	0.813564
H88	H	1.649114	-1.344628	0.812468
H89	H	1.512217	-1.380987	0.658472
H90	H	1.594862	-1.276962	0.657497
O91	O	1.407319	-0.480035	1.179655
C92	C	1.449313	-0.306237	1.210958
C93	C	1.389009	-0.372451	1.155696
H94	H	1.434518	-0.219242	1.191621
H95	H	1.522889	-0.328599	1.196657
H96	H	1.435131	-0.321858	1.285565
H97	H	1.403112	-0.356865	1.081073
H98	H	1.315451	-0.350077	1.170073
O99	O	1.489546	-1.047514	0.749732
C100	C	1.537442	-0.885250	0.803685
C101	C	1.477893	-0.937249	0.736774
H102	H	1.528027	-0.796094	0.793244
H103	H	1.610891	-0.910868	0.792142
H104	H	1.517445	-0.910306	0.875255
H105	H	1.497811	-0.912218	0.665178
H106	H	1.404459	-0.911632	0.748395
O107	O	1.167616	-1.002363	0.388162
C108	C	1.017195	-0.955233	0.335617
C109	C	1.076836	-1.023963	0.402568
H110	H	0.943786	-0.972656	0.347253
H111	H	1.037138	-0.973388	0.264021
H112	H	1.026510	-0.868708	0.346052
H113	H	1.067551	-1.110509	0.392214
H114	H	1.056878	-1.005718	0.474139
H115	H	1.382919	-1.339854	0.629913
O116	O	1.368477	-0.522618	0.850498
C117	C	1.413836	-0.345211	0.824355
C118	C	1.347633	-0.417934	0.872339
H119	H	1.397019	-0.260562	0.842010
H120	H	1.408279	-0.351222	0.748592
H121	H	1.485270	-0.370033	0.846990
H122	H	1.276171	-0.393161	0.849778
H123	H	1.353269	-0.411914	0.948094
O124	O	1.141742	-0.771643	0.837495
C125	C	1.027020	-0.897369	0.840811
C126	C	1.087341	-0.831172	0.896072
H127	H	0.983008	-0.945499	0.888146
H128	H	1.070767	-0.952549	0.799244
H129	H	0.982584	-0.842999	0.794120
H130	H	1.131787	-0.885462	0.942812
H131	H	1.043541	-0.775982	0.937579
O132	O	0.933238	-0.741934	0.601894
C133	C	1.074985	-0.815006	0.661141
C134	C	1.026908	-0.733342	0.595042
H135	H	1.150724	-0.808073	0.655638
H136	H	1.057495	-0.897412	0.644179
H137	H	1.052316	-0.799941	0.732595
H138	H	1.049551	-0.748310	0.523566
H139	H	1.044399	-0.650964	0.612082
H140	H	0.611725	-0.779112	0.632059
H141	H	1.140613	-0.772805	1.015629
