data_functionalizedCrystal
_audit_creation_method	'MofGen! by Chris Wilmer'
_symmetry_space_group_name_H-M	'P1'
_symmetry_Int_Tables_number	1
_symmetry_cell_setting	triclinic
loop_
_symmetry_equiv_pos_as_xyz
  x,y,z
_cell_length_a	16.625547
_cell_length_b	12.645330
_cell_length_c	16.625539
_cell_angle_alpha	89.975749
_cell_angle_beta	89.975178
_cell_angle_gamma	90.017629
loop_
_atom_site_label
_atom_site_type_symbol
_atom_site_fract_x
_atom_site_fract_y
_atom_site_fract_z
Zn1	Zn	1.232707	-0.422039	-0.456024
Zn2	Zn	1.232622	-0.599325	-0.321200
Zn3	Zn	1.097869	-0.422076	-0.321194
Zn4	Zn	1.097851	-0.599261	-0.455980
O5	O	1.165262	-0.510675	-0.388600
O6	O	1.345528	-0.445568	-0.438160
O7	O	1.214718	-0.575855	-0.208367
O8	O	1.115799	-0.273724	-0.339095
O9	O	1.345465	-0.575819	-0.339106
O10	O	1.214864	-0.273697	-0.438154
O11	O	1.115716	-0.445631	-0.208362
O12	O	0.985034	-0.445569	-0.339053
O13	O	1.115768	-0.575710	-0.568818
O14	O	0.985021	-0.575745	-0.438080
O15	O	1.214846	-0.445506	-0.568850
O16	O	1.214701	-0.747664	-0.339064
O17	O	1.115685	-0.747617	-0.438086
C18	C	0.955771	-0.510655	-0.388561
C19	C	0.866150	-0.510671	-0.388564
C20	C	0.793368	-0.510674	-0.388574
C21	C	0.702059	-0.510679	-0.388594
C22	C	0.629283	-0.510689	-0.388615
C23	C	0.537969	-0.510696	-0.388634
C24	C	1.165203	-0.786105	-0.388588
C25	C	1.165252	-0.903935	-0.388610
C26	C	1.103218	-1.071513	-0.451097
C27	C	1.102901	-0.948954	-0.450896
C28	C	1.142250	-0.948528	-0.303633
C29	C	1.141872	-1.071126	-0.304013
C30	C	1.250667	-1.071025	-0.410411
C31	C	1.250144	-0.948418	-0.412269
C32	C	1.375571	-0.510697	-0.388638
C33	C	1.465192	-0.510706	-0.388655
C34	C	1.165343	-0.234170	-0.388629
C35	C	1.165378	-0.116340	-0.388641
C36	C	1.165315	-0.510596	-0.598909
C37	C	1.165337	-0.510563	-0.688530
C38	C	1.165374	-0.510444	-1.016706
C39	C	1.165362	-0.510480	-0.925397
C40	C	1.165356	-0.510504	-0.852621
C41	C	1.165343	-0.510539	-0.761306
C42	C	1.165256	-0.510677	-0.179109
C43	C	1.165390	-0.510413	-0.089488
H44	H	1.117292	-0.918801	-0.513906
H45	H	1.039671	-0.919719	-0.436473
H46	H	1.117477	-1.100926	-0.514314
O47	O	1.019980	-1.112421	-0.432237
H48	H	1.022688	-1.164540	-0.378571
H49	H	1.271650	-1.101870	-0.471323
H50	H	1.186089	-0.919369	-0.255827
O51	O	1.060524	-0.907987	-0.278762
H52	H	1.044931	-0.940057	-0.218586
O53	O	1.059288	-1.109135	-0.279582
H54	H	1.058200	-1.196899	-0.279604
H55	H	1.267490	-0.919268	-0.474808
O56	O	1.311976	-1.109667	-0.350212
H57	H	1.294764	-1.082583	-0.289089
O58	O	1.199224	-1.110424	-0.240262
H59	H	1.227102	-1.041859	-0.209293
O60	O	1.314722	-0.907867	-0.356382
H61	H	1.287197	-0.855141	-0.310665
