data_functionalizedCrystal
_audit_creation_method	'MofGen! by Chris Wilmer'
_symmetry_space_group_name_H-M	'P1'
_symmetry_Int_Tables_number	1
_symmetry_cell_setting	triclinic
loop_
_symmetry_equiv_pos_as_xyz
  x,y,z
_cell_length_a	18.050590
_cell_length_b	21.295417
_cell_length_c	18.050582
_cell_angle_alpha	89.974292
_cell_angle_beta	90.000767
_cell_angle_gamma	90.018869
loop_
_atom_site_label
_atom_site_type_symbol
_atom_site_fract_x
_atom_site_fract_y
_atom_site_fract_z
Zn1	Zn	1.135285	-0.250831	-0.419585
Zn2	Zn	1.135192	-0.356092	-0.295389
Zn3	Zn	1.011104	-0.250821	-0.295444
Zn4	Zn	1.011049	-0.356047	-0.419571
O5	O	1.073157	-0.303448	-0.357497
O6	O	1.239197	-0.264818	-0.403093
O7	O	1.118716	-0.342143	-0.191471
O8	O	1.027639	-0.162733	-0.311940
O9	O	1.239129	-0.342153	-0.311847
O10	O	1.118874	-0.162741	-0.403147
O11	O	1.027549	-0.264801	-0.191512
O12	O	0.907172	-0.264756	-0.311926
O13	O	1.027545	-0.342075	-0.523498
O14	O	0.907132	-0.342065	-0.403122
O15	O	1.118820	-0.264773	-0.523508
O16	O	1.118663	-0.444176	-0.311833
O17	O	1.027455	-0.444142	-0.403069
C18	C	0.880205	-0.303405	-0.357529
C19	C	0.797660	-0.303402	-0.357560
C20	C	0.598208	-0.345562	-0.407035
C21	C	0.548817	-0.288165	-0.425314
C22	C	0.646529	-0.303437	-0.357524
C23	C	0.548839	-0.360867	-0.339245
C24	C	0.500544	-0.303476	-0.357491
C25	C	0.598225	-0.246009	-0.375838
C26	C	0.598251	-0.318749	-0.289738
C27	C	0.548882	-0.261313	-0.307991
C28	C	0.730627	-0.303415	-0.357545
C29	C	0.416448	-0.303491	-0.357469
C30	C	1.073063	-0.467000	-0.357460
C31	C	1.073090	-0.536968	-0.357468
C32	C	1.120569	-0.569781	-0.404994
C33	C	1.120595	-0.635523	-0.405012
C34	C	1.073150	-0.668450	-0.357492
C35	C	1.025662	-0.635629	-0.309963
C36	C	1.025632	-0.569888	-0.309952
N37	N	1.067546	-0.771706	-0.292499
N38	N	1.067579	-0.834158	-0.292512
C39	C	1.073237	-0.866525	-0.357525
N40	N	1.078875	-0.834081	-0.422526
N41	N	1.078846	-0.771624	-0.422512
C42	C	1.073178	-0.739735	-0.357499
C43	C	1.120747	-0.970624	-0.405074
C44	C	1.120768	-1.036367	-0.405094
C45	C	1.025839	-1.036472	-0.310039
C46	C	1.025814	-0.970729	-0.310026
C47	C	1.073272	-0.937809	-0.357542
C48	C	1.266863	-0.303492	-0.357465
C49	C	1.349409	-0.303510	-0.357452
C50	C	1.073187	-0.303420	-0.551203
C51	C	1.073199	-0.303408	-0.633749
C52	C	1.073273	-0.139258	-0.357551
C53	C	1.073322	-0.069290	-0.357574
C54	C	1.023601	-0.345387	-0.833194
C55	C	1.091356	-0.360785	-0.882566
C56	C	1.073236	-0.303360	-0.784879
C57	C	1.005518	-0.287944	-0.882589
C58	C	1.073265	-0.303315	-0.930864
C59	C	1.141026	-0.318788	-0.833164
C60	C	1.055142	-0.245921	-0.833183
C61	C	1.122944	-0.261297	-0.882532
C62	C	1.073218	-0.303388	-0.700781
C63	C	1.073291	-0.303287	-1.014961
C64	C	1.073171	-0.303430	-0.164545
C65	C	1.073303	-0.303265	-0.082000
H66	H	0.527142	-0.409418	-0.323800
O67	O	1.166781	-0.667310	-0.451211
C68	C	1.208641	-0.624157	-0.493167
H69	H	1.211222	-0.577309	-0.462741
H70	H	1.181398	-0.617149	-0.549547
C71	C	1.284511	-0.707308	-0.541308
C72	C	1.287686	-0.649770	-0.503935
H73	H	1.333269	-0.723108	-0.547954
H74	H	1.256308	-0.736382	-0.513044
H75	H	1.261805	-0.701460	-0.588288
H76	H	1.310383	-0.655620	-0.456953
H77	H	1.315895	-0.620697	-0.532192
H78	H	1.106677	-0.409341	-0.904257
O79	O	0.979615	-0.537940	-0.263744
C80	C	1.021913	-0.499926	-0.215784
H81	H	1.078173	-0.490033	-0.242010
H82	H	1.030118	-0.525287	-0.160759
C83	C	0.911937	-0.449661	-0.170088
C84	C	0.981035	-0.437504	-0.202302
H85	H	0.886721	-0.411157	-0.161768
H86	H	0.883439	-0.475273	-0.202397
H87	H	0.918784	-0.470796	-0.124237
H88	H	0.974186	-0.416377	-0.248156
H89	H	1.009531	-0.411887	-0.170000
O90	O	0.624219	-0.334093	-0.221367
C91	C	0.668330	-0.284626	-0.193983
H92	H	0.652243	-0.238974	-0.222792
H93	H	0.729198	-0.295229	-0.205249
C94	C	0.675781	-0.334004	-0.074554
C95	C	0.656018	-0.277933	-0.109933
H96	H	0.668190	-0.329877	-0.022708
H97	H	0.646065	-0.367333	-0.093003
H98	H	0.726504	-0.342834	-0.083950
H99	H	0.605295	-0.269108	-0.100544
H100	H	0.685726	-0.244603	-0.091480
H101	H	0.619869	-0.381124	-0.448952
H102	H	1.039801	-0.197379	-0.811475
O103	O	0.623865	-0.188027	-0.394331
C104	C	0.563483	-0.147493	-0.407261
H105	H	0.512470	-0.166066	-0.377137
H106	H	0.551736	-0.145095	-0.469254
C107	C	0.644958	-0.058555	-0.415331
C108	C	0.582305	-0.081364	-0.378328
H109	H	0.656568	-0.017762	-0.397488
H110	H	0.685639	-0.085863	-0.406623
H111	H	0.635161	-0.056562	-0.466990
H112	H	0.592106	-0.083363	-0.326672
H113	H	0.541626	-0.054054	-0.387027
H114	H	0.527103	-0.275226	-0.482625
H115	H	0.527360	-0.225664	-0.266107
H116	H	1.159210	-0.542979	-0.443686
H117	H	1.159388	-0.943819	-0.443768
O118	O	0.979538	-0.667680	-0.263904
C119	C	0.931551	-0.705705	-0.306163
H120	H	0.957713	-0.715510	-0.362461
H121	H	0.876498	-0.680399	-0.314285
C122	C	0.886028	-0.756138	-0.196157
C123	C	0.918164	-0.768185	-0.265301
H124	H	0.877767	-0.794678	-0.170950
H125	H	0.918356	-0.730519	-0.167685
H126	H	0.840155	-0.735048	-0.202934
H127	H	0.964041	-0.789267	-0.258522
H128	H	0.885843	-0.793810	-0.293770
O129	O	1.166964	-1.068147	-0.451284
C130	C	1.208831	-1.024990	-0.493229
H131	H	1.211397	-0.978142	-0.462802
H132	H	1.181604	-1.017985	-0.549617
C133	C	1.284726	-1.108135	-0.541346
C134	C	1.287882	-1.050596	-0.503973
H135	H	1.333487	-1.123930	-0.547977
H136	H	1.256518	-1.137211	-0.513090
H137	H	1.262033	-1.102290	-0.588332
H138	H	1.310566	-1.056443	-0.456984
H139	H	1.316096	-1.021521	-0.532221
O140	O	0.979709	-1.068516	-0.263983
C141	C	0.931719	-1.106534	-0.306246
H142	H	0.957882	-1.116340	-0.362543
H143	H	0.876670	-1.081222	-0.314369
C144	C	0.886182	-1.156966	-0.196244
C145	C	0.918319	-1.169014	-0.265387
H146	H	0.877913	-1.195506	-0.171040
H147	H	0.918512	-1.131351	-0.167770
H148	H	0.840312	-1.135871	-0.203024
H149	H	0.964193	-1.190101	-0.258606
H150	H	0.885997	-1.194635	-0.293859
H151	H	0.948238	-0.274925	-0.904300
O152	O	1.209328	-0.334410	-0.807255
C153	C	1.208484	-0.334256	-0.729149
H154	H	1.149294	-0.341249	-0.708717
H155	H	1.230571	-0.287416	-0.708003
C156	C	1.330380	-0.379327	-0.725093
C157	C	1.257682	-0.387921	-0.699997
H158	H	1.360730	-0.412428	-0.707109
H159	H	1.330950	-0.379429	-0.777714
H160	H	1.348776	-0.340292	-0.707469
H161	H	1.239284	-0.426952	-0.717629
H162	H	1.257110	-0.387827	-0.647378
H163	H	1.164979	-0.225737	-0.904059
H164	H	0.987155	-0.944011	-0.271323
O165	O	0.973657	-0.387924	-0.807378
C166	C	0.993021	-0.448396	-0.832558
H167	H	1.054624	-0.449594	-0.846397
H168	H	0.959500	-0.460175	-0.884248
C169	C	0.900578	-0.495451	-0.754546
C170	C	0.976241	-0.496924	-0.771537
H171	H	0.890224	-0.525386	-0.716907
H172	H	0.887529	-0.454710	-0.737583
H173	H	0.872652	-0.505265	-0.797626
H174	H	1.004164	-0.487102	-0.728459
H175	H	0.989294	-0.537664	-0.788491
