data_functionalizedCrystal
_audit_creation_method	'MofGen! by Chris Wilmer'
_symmetry_space_group_name_H-M	'P1'
_symmetry_Int_Tables_number	1
_symmetry_cell_setting	triclinic
loop_
_symmetry_equiv_pos_as_xyz
  x,y,z
_cell_length_a	15.995350
_cell_length_b	12.837942
_cell_length_c	11.295483
_cell_angle_alpha	85.469583
_cell_angle_beta	94.101747
_cell_angle_gamma	89.160658
loop_
_atom_site_label
_atom_site_type_symbol
_atom_site_fract_x
_atom_site_fract_y
_atom_site_fract_z
O1	O	-1.126724	-0.126645	-0.098922
O2	O	-0.626724	0.373355	0.401078
O3	O	-0.884267	-0.143143	-0.098946
O4	O	-0.384267	0.356857	0.401054
O5	O	-1.000119	0.016009	-0.098927
O6	O	-0.500119	0.516009	0.401073
O7	O	-1.010872	-0.285796	-0.098941
O8	O	-0.510872	0.214204	0.401059
O9	O	-0.989941	0.002051	0.099122
O10	O	-0.489941	0.502051	0.599122
O11	O	-0.874089	-0.157100	0.099103
O12	O	-0.374089	0.342900	0.599103
O13	O	-1.116547	-0.140602	0.099127
O14	O	-0.616547	0.359398	0.599127
Cu15	Cu	-0.994389	-0.150125	0.117198
Cu16	Cu	-0.494389	0.349875	0.617198
Cu17	Cu	-1.006425	-0.133619	-0.117018
Cu18	Cu	-0.506425	0.366381	0.382982
O19	O	-1.000695	-0.299753	0.099108
O20	O	-0.500695	0.200247	0.599108
C21	C	-0.847929	-0.149439	0.000075
C22	C	-0.347929	0.350561	0.500075
C23	C	-0.754816	-0.147393	0.000066
C24	C	-0.254816	0.352607	0.500066
C25	C	-0.991398	0.047651	0.000096
C26	C	-0.491398	0.547651	0.500096
C27	C	-0.980565	0.162728	0.000093
C28	C	-0.480565	0.662728	0.500093
C29	C	-1.152885	-0.134305	0.000103
C30	C	-0.652885	0.365695	0.500103
C31	C	-1.245998	-0.136350	0.000104
C32	C	-0.745998	0.363650	0.500104
C33	C	-0.416481	-0.140051	0.000091
C34	C	0.083519	0.359949	0.500091
C35	C	-0.454849	-0.026737	0.000538
C36	C	0.045151	0.473263	0.500538
C37	C	-0.551725	-0.028750	0.000083
C38	C	-0.051725	0.471250	0.500083
C39	C	-0.584333	-0.143693	0.000079
C40	C	-0.084333	0.356307	0.500079
C41	C	-0.553518	-0.191629	-0.113014
C42	C	-0.053518	0.308371	0.386986
C43	C	-0.456659	-0.188775	-0.113101
C44	C	0.043341	0.311225	0.386899
C45	C	-0.444934	-0.206989	0.112118
C46	C	0.055066	0.293011	0.612118
C47	C	-0.541801	-0.207067	0.113605
C48	C	-0.041801	0.292933	0.613605
C49	C	-0.679196	-0.145757	0.000069
C50	C	-0.179196	0.354243	0.500069
C51	C	-0.321619	-0.137990	0.000094
C52	C	0.178381	0.362010	0.500094
C53	C	-1.009416	-0.331395	0.000082
C54	C	-0.509416	0.168605	0.500082
C55	C	-1.020249	-0.446472	0.000077
C56	C	-0.520249	0.053528	0.500077
N57	N	-0.985930	-0.161734	0.281933
N58	N	-0.485930	0.338266	0.781933
C59	C	-1.110803	0.403687	0.000081
C60	C	-0.610803	0.903687	0.500081
C61	C	-1.100628	0.511813	0.000078
C62	C	-0.600628	1.011813	0.500078
C63	C	-0.950041	0.487109	0.000075
C64	C	-0.450041	0.987109	0.500075
C65	C	-0.960216	0.378983	0.000078
C66	C	-0.460216	0.878983	0.500078
C67	C	-1.040599	0.337276	0.000083
C68	C	-0.540599	0.837276	0.500083
C69	C	-1.050773	0.229147	0.000095
C70	C	-0.550773	0.729147	0.500095
C71	C	-0.900187	0.204446	0.000083
C72	C	-0.400187	0.704446	0.500083
C73	C	-0.890012	0.312572	0.000080
C74	C	-0.390012	0.812572	0.500080
N75	N	-1.014890	-0.122002	-0.281753
N76	N	-0.514890	0.377998	0.218247
C77	C	-1.075780	-0.038379	0.531237
C78	C	-0.575780	0.461621	1.031237
C79	C	-1.069394	-0.047159	0.655900
C80	C	-0.569394	0.452841	1.155900
C81	C	-0.966767	-0.188069	0.655923
C82	C	-0.466767	0.311931	1.155923
C83	C	-0.973153	-0.179289	0.531261
C84	C	-0.473153	0.320711	1.031261
C85	C	-1.027662	-0.104442	0.468922
C86	C	-0.527662	0.395558	0.968922
C87	C	-1.034052	-0.095668	0.344257
C88	C	-0.534052	0.404332	0.844257
C89	C	-0.931422	-0.236572	0.344283
C90	C	-0.431422	0.263428	0.844283
C91	C	-0.925036	-0.245352	0.468945
C92	C	-0.425036	0.254648	0.968945
H93	H	-0.572482	0.009482	0.081154
H94	H	-0.072482	0.509482	0.581154
H95	H	-1.176253	0.369728	0.000097
H96	H	-0.676253	0.869728	0.500097
Cl97	Cl	-0.788965	0.365015	0.000064
Cl98	Cl	-0.288965	0.865015	0.500064
H99	H	-0.843022	0.150361	0.000094
H100	H	-0.343022	0.650361	0.500094
Cl101	Cl	-1.151824	0.176716	0.000108
Cl102	Cl	-0.651824	0.676716	0.500108
Cl103	Cl	-1.129885	0.035899	0.734236
Cl104	Cl	-0.629885	0.535899	1.234236
Cl105	Cl	-0.599215	-0.122522	-0.242961
Cl106	Cl	-0.099215	0.377478	0.257039
Cl107	Cl	-0.401869	-0.159101	0.244468
Cl108	Cl	0.098131	0.340899	0.744468
H109	H	-0.574597	-0.275778	-0.117222
H110	H	-0.074597	0.224222	0.382778
Cl111	Cl	-0.595738	0.048108	-0.125511
Cl112	Cl	-0.095738	0.548108	0.374489
H113	H	-1.157795	0.565882	0.000073
H114	H	-0.657795	1.065882	0.500073
Cl115	Cl	-0.848998	0.539562	0.000034
Cl116	Cl	-0.348998	1.039562	0.500034
H117	H	-1.078439	-0.034727	0.293502
H118	H	-0.578439	0.465273	0.793502
H119	H	-1.120169	0.022558	0.480480
H120	H	-0.620169	0.522558	0.980480
H121	H	-0.561562	-0.172152	0.197271
H122	H	-0.061562	0.327848	0.697271
H123	H	-0.563503	-0.291368	0.120433
H124	H	-0.063503	0.208632	0.620433
H125	H	-0.428544	0.012855	0.081642
H126	H	0.071456	0.512855	0.581642
H127	H	-0.922381	-0.249000	0.706696
H128	H	-0.422381	0.251000	1.206696
Cl129	Cl	-0.406132	-0.336095	0.113297
Cl130	Cl	0.093868	0.163905	0.613297
H131	H	-0.431314	-0.271630	-0.118236
H132	H	0.068686	0.228370	0.381764
H133	H	-0.880653	-0.306288	0.519716
H134	H	-0.380653	0.193712	1.019716
Cl135	Cl	-0.430074	-0.116632	-0.243618
Cl136	Cl	0.069926	0.383368	0.256382
Cl137	Cl	-0.870935	-0.319633	0.265932
Cl138	Cl	-0.370935	0.180367	0.765932
H139	H	-0.435801	0.024046	-0.080115
H140	H	0.064199	0.524046	0.419885
