data_functionalizedCrystal
_audit_creation_method	'MofGen! by Chris Wilmer'
_symmetry_space_group_name_H-M	'P1'
_symmetry_Int_Tables_number	1
_symmetry_cell_setting	triclinic
loop_
_symmetry_equiv_pos_as_xyz
  x,y,z
_cell_length_a	12.837943
_cell_length_b	14.044220
_cell_length_c	11.892095
_cell_angle_alpha	94.243827
_cell_angle_beta	85.689438
_cell_angle_gamma	94.008909
loop_
_atom_site_label
_atom_site_type_symbol
_atom_site_fract_x
_atom_site_fract_y
_atom_site_fract_z
O1	O	1.404549	0.242985	-0.093990
O2	O	1.101609	0.230709	-0.093996
O3	O	1.248531	0.098452	-0.093982
O4	O	1.257627	0.375241	-0.094004
O5	O	1.236280	0.109461	0.094025
O6	O	1.089357	0.241718	0.094010
O7	O	1.392297	0.253993	0.094017
Zn8	Zn	1.238882	0.249603	0.123864
Zn9	Zn	1.255024	0.235099	-0.123843
O10	O	1.245375	0.386250	0.094002
C11	C	1.056479	0.232067	0.000007
C12	C	0.940259	0.219699	0.000005
C13	C	0.713048	0.368378	0.000009
C14	C	0.603848	0.356763	0.000008
C15	C	0.612657	0.184853	0.000009
C16	C	0.721856	0.196469	0.000011
C17	C	0.772048	0.288234	0.000008
C18	C	0.881251	0.299849	0.000001
C19	C	0.890056	0.127940	0.000011
C20	C	0.780857	0.116324	0.000010
C21	C	1.238425	0.068282	0.000022
C22	C	1.226550	-0.038016	0.000023
C23	C	1.204843	-0.232639	0.000006
C24	C	1.289060	-0.282665	0.000005
C25	C	1.276982	-0.390960	-0.000005
C26	C	1.216919	-0.124334	0.000016
C27	C	1.437428	0.252635	0.000012
C28	C	1.553649	0.265002	0.000006
C29	C	1.255482	0.416420	-0.000004
C30	C	1.267357	0.522717	-0.000012
N31	N	1.227873	0.259502	0.292917
N32	N	1.266041	0.225193	-0.292896
C33	C	1.342643	0.156258	0.529576
C34	C	1.334956	0.163185	0.647917
C35	C	1.204807	0.280277	0.647942
C36	C	1.212494	0.273350	0.529601
C37	C	1.281415	0.211340	0.470422
C38	C	1.289107	0.204418	0.352079
C39	C	1.158954	0.321505	0.352106
C40	C	1.151267	0.328432	0.470447
H41	H	0.922115	0.374569	0.000002
C42	C	0.954959	0.039778	0.000009
H43	H	1.027183	0.059836	0.000014
H44	H	0.943139	-0.001277	-0.065552
H45	H	0.934603	0.006394	0.065580
C46	C	1.398715	-0.230657	0.000032
H47	H	1.392555	-0.163637	0.000051
H48	H	1.439904	-0.251943	-0.065522
H49	H	1.431326	-0.244290	0.065610
H50	H	1.095149	0.378917	0.518645
H51	H	0.739974	0.041612	0.000025
C52	C	0.768263	0.469313	-0.000003
H53	H	0.717484	0.515382	-0.000002
H54	H	0.814952	0.473575	-0.065565
H55	H	0.806405	0.481257	0.065567
H56	H	1.398769	0.105774	0.481391
C57	C	0.538952	0.444920	-0.000002
H58	H	0.584489	0.501232	-0.000012
H59	H	0.491894	0.447801	0.065557
H60	H	0.500448	0.440123	-0.065575
C61	C	1.095191	-0.284642	0.000002
H62	H	1.043935	-0.239016	-0.000002
H63	H	1.082722	-0.319666	0.065560
H64	H	1.091266	-0.327325	-0.065572
H65	H	1.345229	0.153929	0.303896
C66	C	1.402308	0.102598	0.712982
H67	H	1.444459	0.064682	0.660785
H68	H	1.358027	0.062097	0.759160
H69	H	1.446011	0.143643	0.759132
C70	C	1.129000	0.348478	0.713052
H71	H	1.133196	0.344714	0.792003
H72	H	1.059532	0.330631	0.693673
H73	H	1.147518	0.412174	0.693660
C74	C	1.091614	0.382109	0.287035
H75	H	1.106061	0.369105	0.208079
H76	H	1.107617	0.448065	0.306435
H77	H	1.019618	0.366533	0.306435
H78	H	0.571765	0.110147	0.000104
