data_functionalizedCrystal
_audit_creation_method	'MofGen! by Chris Wilmer'
_symmetry_space_group_name_H-M	'P1'
_symmetry_Int_Tables_number	1
_symmetry_cell_setting	triclinic
loop_
_symmetry_equiv_pos_as_xyz
  x,y,z
_cell_length_a	25.639243
_cell_length_b	25.639240
_cell_length_c	25.639234
_cell_angle_alpha	89.971713
_cell_angle_beta	89.986440
_cell_angle_gamma	90.035481
loop_
_atom_site_label
_atom_site_type_symbol
_atom_site_fract_x
_atom_site_fract_y
_atom_site_fract_z
Zn1	Zn	0.799234	-0.208164	-0.295630
Zn2	Zn	1.132568	0.125169	0.037704
Zn3	Zn	1.465901	0.458502	0.371037
Zn4	Zn	0.799170	-0.295587	-0.208183
Zn5	Zn	1.132504	0.037747	0.125150
Zn6	Zn	1.465837	0.371080	0.458484
Zn7	Zn	0.711814	-0.208171	-0.208203
Zn8	Zn	1.045148	0.125162	0.125130
Zn9	Zn	1.378481	0.458495	0.458463
Zn10	Zn	0.711765	-0.295575	-0.295582
Zn11	Zn	1.045098	0.037759	0.037751
Zn12	Zn	1.378431	0.371092	0.371084
O13	O	0.755496	-0.251874	-0.251900
O14	O	1.088829	0.081459	0.081434
O15	O	1.422163	0.414792	0.414767
O16	O	0.872391	-0.219763	-0.284041
O17	O	1.205724	0.113570	0.049292
O18	O	1.539058	0.446904	0.382626
O19	O	0.787576	-0.283999	-0.135020
O20	O	1.120910	0.049335	0.198313
O21	O	1.454243	0.382668	0.531646
O22	O	0.723458	-0.135005	-0.219829
O23	O	1.056791	0.198328	0.113505
O24	O	1.390125	0.531662	0.446838
O25	O	0.872344	-0.283992	-0.219794
O26	O	1.205677	0.049341	0.113539
O27	O	1.539011	0.382675	0.446872
O28	O	0.787685	-0.135000	-0.284061
O29	O	1.121019	0.198333	0.049273
O30	O	1.454352	0.531667	0.382606
O31	O	0.723396	-0.219775	-0.135035
O32	O	1.056730	0.113558	0.198298
O33	O	1.390063	0.446892	0.531631
O34	O	0.638642	-0.219763	-0.219783
O35	O	0.971976	0.113570	0.113550
O36	O	1.305309	0.446903	0.446884
O37	O	0.723374	-0.283972	-0.368754
O38	O	1.056707	0.049362	-0.035421
O39	O	1.390040	0.382695	0.297913
O40	O	0.638606	-0.283978	-0.283980
O41	O	0.971939	0.049355	0.049353
O42	O	1.305273	0.382688	0.382687
O43	O	0.787637	-0.219751	-0.368789
O44	O	1.120971	0.113582	-0.035455
O45	O	1.454304	0.446915	0.297878
O46	O	0.787528	-0.368750	-0.219749
O47	O	1.120862	-0.035417	0.113585
O48	O	1.454195	0.297916	0.446918
O49	O	0.723312	-0.368741	-0.283960
O50	O	1.056645	-0.035408	0.049373
O51	O	1.389978	0.297925	0.382706
C52	C	0.619653	-0.251871	-0.251879
C53	C	0.952987	0.081463	0.081455
C54	C	1.286320	0.414796	0.414788
C55	C	0.561539	-0.251882	-0.251882
C56	C	0.894873	0.081452	0.081451
C57	C	1.228206	0.414785	0.414784
C58	C	0.201195	-0.218483	-0.285409
C59	C	0.534528	0.114851	0.047925
C60	C	0.867862	0.448184	0.381258
C61	C	0.146591	-0.218482	-0.285412
C62	C	0.479924	0.114851	0.047922
C63	C	0.813257	0.448184	0.381255
O64	O	0.118370	-0.190076	-0.313891
O65	O	0.451703	0.143258	0.019442
O66	O	0.785037	0.476591	0.352776
N67	N	0.119257	-0.251873	-0.251914
N68	N	0.452590	0.081461	0.081419
N69	N	0.785923	0.414794	0.414753
C70	C	0.146530	-0.285262	-0.218407
C71	C	0.479863	0.048071	0.114926
C72	C	0.813197	0.381405	0.448260
O73	O	0.118266	-0.313663	-0.189914
O74	O	0.451600	0.019671	0.143419
O75	O	0.784933	0.353004	0.476752
C76	C	0.201133	-0.285259	-0.218401
C77	C	0.534467	0.048074	0.114932
C78	C	0.867800	0.381407	0.448265
C79	C	0.228464	-0.251870	-0.251905
C80	C	0.561798	0.081463	0.081428
C81	C	0.895131	0.414796	0.414761
C82	C	0.228526	-0.185096	-0.318909
C83	C	0.561860	0.148237	0.014424
C84	C	0.895193	0.481570	0.347757
C85	C	0.283127	-0.185098	-0.318907
C86	C	0.616460	0.148236	0.014427
C87	C	0.949793	0.481569	0.347760
C88	C	0.310396	-0.218485	-0.285403
C89	C	0.643729	0.114848	0.047930
C90	C	0.977063	0.448181	0.381263
C91	C	0.283065	-0.251872	-0.251903
C92	C	0.616398	0.081462	0.081431
C93	C	0.949732	0.414795	0.414764
C94	C	0.228406	-0.318645	-0.184892
C95	C	0.561739	0.014688	0.148441
C96	C	0.895072	0.348021	0.481775
C97	C	0.283013	-0.318640	-0.184889
C98	C	0.616346	0.014694	0.148444
C99	C	0.949679	0.348027	0.481777
C100	C	0.310344	-0.285251	-0.218393
C101	C	0.643677	0.048082	0.114940
C102	C	0.977010	0.381416	0.448274
C103	C	0.364935	-0.285261	-0.218396
C104	C	0.698268	0.048073	0.114937
C105	C	1.031602	0.381406	0.448270
N106	N	0.392269	-0.251870	-0.251894
N107	N	0.725602	0.081463	0.081439
N108	N	1.058936	0.414796	0.414772
C109	C	0.364999	-0.218483	-0.285398
C110	C	0.698333	0.114851	0.047936
C111	C	1.031666	0.448184	0.381269
C112	C	0.031859	-0.285264	-0.218420
C113	C	0.365193	0.048069	0.114913
C114	C	0.698526	0.381403	0.448246
C115	C	-0.022743	-0.285270	-0.218428
C116	C	0.310590	0.048064	0.114905
C117	C	0.643924	0.381397	0.448239
C118	C	-0.022678	-0.218489	-0.285432
C119	C	0.310655	0.114844	0.047901
C120	C	0.643988	0.448177	0.381234
C121	C	0.031925	-0.218487	-0.285427
C122	C	0.365258	0.114847	0.047906
C123	C	0.698592	0.448180	0.381240
C124	C	0.059193	-0.251874	-0.251918
C125	C	0.392527	0.081460	0.081415
C126	C	0.725860	0.414793	0.414748
C127	C	0.479665	-0.218488	-0.285390
C128	C	0.812998	0.114845	0.047943
C129	C	1.146331	0.448178	0.381277
C130	C	0.534270	-0.218494	-0.285386
C131	C	0.867603	0.114839	0.047948
C132	C	1.200937	0.448173	0.381281
C133	C	0.534201	-0.285272	-0.218380
C134	C	0.867534	0.048061	0.114954
C135	C	1.200867	0.381395	0.448287
C136	C	0.479600	-0.285269	-0.218385
C137	C	0.812933	0.048065	0.114948
C138	C	1.146267	0.381398	0.448281
C139	C	0.452333	-0.251872	-0.251892
C140	C	0.785667	0.081461	0.081441
C141	C	1.119000	0.414794	0.414774
O142	O	0.393190	-0.313652	-0.189930
O143	O	0.726524	0.019682	0.143403
O144	O	1.059857	0.353015	0.476736
O145	O	0.393270	-0.190082	-0.313881
O146	O	0.726603	0.143251	0.019453
O147	O	1.059936	0.476585	0.352786
C148	C	0.755422	-0.387717	-0.251859
C149	C	1.088755	-0.054383	0.081475
C150	C	1.422089	0.278950	0.414808
C151	C	0.755438	-0.445831	-0.251859
C152	C	1.088772	-0.112497	0.081475
C153	C	1.422105	0.220836	0.414808
C154	C	0.788956	-0.806153	-0.285405
C155	C	1.122289	-0.472819	0.047928
C156	C	1.455622	-0.139486	0.381261
C157	C	0.788971	-0.860757	-0.285416
C158	C	1.122304	-0.527424	0.047917
C159	C	1.455638	-0.194090	0.381251
O160	O	0.817381	-0.888959	-0.313897
O161	O	1.150714	-0.555625	0.019437
O162	O	1.484047	-0.222292	0.352770
N163	N	0.755568	-0.888113	-0.251950
N164	N	1.088902	-0.554780	0.081383
N165	N	1.422235	-0.221447	0.414717
C166	C	0.722145	-0.860862	-0.218475
C167	C	1.055478	-0.527529	0.114858
C168	C	1.388811	-0.194196	0.448192
O169	O	0.693734	-0.889145	-0.190011
O170	O	1.027067	-0.555812	0.143322
O171	O	1.360401	-0.222478	0.476656
C172	C	0.722127	-0.806259	-0.218467
C173	C	1.055460	-0.472926	0.114866
C174	C	1.388794	-0.139592	0.448199
C175	C	0.755535	-0.778906	-0.251932
C176	C	1.088869	-0.445572	0.081401
C177	C	1.422202	-0.112239	0.414735
C178	C	0.822361	-0.778799	-0.318867
C179	C	1.155694	-0.445466	0.014466
C180	C	1.489028	-0.112133	0.347799
C181	C	0.822346	-0.724199	-0.318856
C182	C	1.155679	-0.390865	0.014477
C183	C	1.489013	-0.057532	0.347811
C184	C	0.788926	-0.696952	-0.285383
C185	C	1.122259	-0.363618	0.047951
C186	C	1.455592	-0.030285	0.381284
C187	C	0.755520	-0.724305	-0.251920
C188	C	1.088854	-0.390972	0.081413
C189	C	1.422187	-0.057638	0.414746
C190	C	0.688701	-0.779009	-0.184996
C191	C	1.022034	-0.445676	0.148338
C192	C	1.355367	-0.112342	0.481671
C193	C	0.688686	-0.724402	-0.184991
C194	C	1.022019	-0.391069	0.148342
C195	C	1.355352	-0.057735	0.481676
C196	C	0.722094	-0.697049	-0.218455
C197	C	1.055427	-0.363715	0.114878
C198	C	1.388761	-0.030382	0.448211
C199	C	0.722085	-0.642457	-0.218435
C200	C	1.055419	-0.309124	0.114898
C201	C	1.388752	0.024209	0.448231
N202	N	0.755488	-0.615101	-0.251901
N203	N	1.088821	-0.281768	0.081432
N204	N	1.422155	0.051565	0.414765
C205	C	0.788908	-0.642348	-0.285375
C206	C	1.122241	-0.309015	0.047958
C207	C	1.455575	0.024318	0.381292
C208	C	0.722184	-0.975533	-0.218494
C209	C	1.055517	-0.642200	0.114839
C210	C	1.388850	-0.308866	0.448172
C211	C	0.722203	-1.030135	-0.218499
C212	C	1.055537	-0.696802	0.114835
C213	C	1.388870	-0.363469	0.448168
C214	C	0.789029	-1.030026	-0.285441
C215	C	1.122363	-0.696693	0.047893
C216	C	1.455696	-0.363359	0.381226
C217	C	0.789012	-0.975423	-0.285433
C218	C	1.122345	-0.642089	0.047900
C219	C	1.455678	-0.308756	0.381234
C220	C	0.755586	-0.948177	-0.251960
C221	C	1.088919	-0.614843	0.081373
C222	C	1.422253	-0.281510	0.414706
C223	C	0.788875	-0.527683	-0.285348
C224	C	1.122208	-0.194350	0.047985
C225	C	1.455541	0.138983	0.381319
C226	C	0.788858	-0.473078	-0.285332
C227	C	1.122192	-0.139745	0.048001
C228	C	1.455525	0.193589	0.381335
C229	C	0.722031	-0.473192	-0.218392
C230	C	1.055364	-0.139858	0.114941
C231	C	1.388698	0.193475	0.448274
C232	C	0.722049	-0.527792	-0.218406
C233	C	1.055382	-0.194459	0.114927
C234	C	1.388716	0.138874	0.448260
C235	C	0.755473	-0.555037	-0.251888
C236	C	1.088806	-0.221703	0.081445
C237	C	1.422139	0.111630	0.414778
O238	O	0.693689	-0.614221	-0.189971
O239	O	1.027022	-0.280888	0.143362
O240	O	1.360355	0.052446	0.476696
O241	O	0.817309	-0.614059	-0.313839
O242	O	1.150642	-0.280726	0.019494
O243	O	1.483976	0.052608	0.352828
C244	C	0.891869	-0.251878	-0.251921
C245	C	1.225202	0.081455	0.081413
C246	C	1.558536	0.414789	0.414746
C247	C	0.949983	-0.251880	-0.251930
C248	C	1.283316	0.081454	0.081404
C249	C	1.616650	0.414787	0.414737
C250	C	0.755507	-0.251859	-0.388273
C251	C	1.088840	0.081474	-0.054939
C252	C	1.422174	0.414807	0.278394
C253	C	0.755512	-0.251853	-0.446387
C254	C	1.088845	0.081480	-0.113053
C255	C	1.422178	0.414814	0.220280
C256	C	0.755584	-0.115501	-0.251952
C257	C	1.088918	0.217832	0.081381
C258	C	1.422251	0.551166	0.414715
C259	C	0.755622	-0.057387	-0.251975
C260	C	1.088955	0.275946	0.081359
C261	C	1.422289	0.609280	0.414692
C262	C	0.722085	-0.285227	-0.697556
C263	C	1.055418	0.048107	-0.364223
C264	C	1.388751	0.381440	-0.030890
C265	C	0.722076	-0.285238	-0.642952
C266	C	1.055409	0.048095	-0.309619
C267	C	1.388742	0.381428	0.023715
O268	O	0.693605	-0.313666	-0.614695
O269	O	1.026938	0.019667	-0.281362
O270	O	1.360271	0.353001	0.051971
N271	N	0.755532	-0.251811	-0.615661
N272	N	1.088865	0.081522	-0.282327
N273	N	1.422198	0.414856	0.051006
C274	C	0.788996	-0.218366	-0.642976
C275	C	1.122329	0.114968	-0.309643
C276	C	1.455662	0.448301	0.023690
O277	O	0.817451	-0.189933	-0.614749
O278	O	1.150785	0.143400	-0.281416
O279	O	1.484118	0.476733	0.051918
C280	C	0.789002	-0.218352	-0.697580
C281	C	1.122335	0.114982	-0.364246
C282	C	1.455668	0.448315	-0.030913
C283	C	0.755547	-0.251785	-0.724868
C284	C	1.088880	0.081548	-0.391535
C285	C	1.422214	0.414882	-0.058202
C286	C	0.688632	-0.318657	-0.724845
C287	C	1.021966	0.014676	-0.391512
C288	C	1.355299	0.348010	-0.058178
C289	C	0.688642	-0.318646	-0.779446
C290	C	1.021976	0.014687	-0.446112
C291	C	1.355309	0.348021	-0.112779
C292	C	0.722105	-0.285204	-0.806758
C293	C	1.055438	0.048129	-0.473424
C294	C	1.388771	0.381462	-0.140091
C295	C	0.755557	-0.251774	-0.779469
C296	C	1.088890	0.081559	-0.446136
C297	C	1.422224	0.414893	-0.112802
C298	C	0.822462	-0.184904	-0.724894
C299	C	1.155796	0.148429	-0.391561
C300	C	1.489129	0.481763	-0.058228
C301	C	0.822465	-0.184893	-0.779501
C302	C	1.155799	0.148441	-0.446168
C303	C	1.489132	0.481774	-0.112835
C304	C	0.789011	-0.218326	-0.806790
C305	C	1.122344	0.115007	-0.473457
C306	C	1.455677	0.448341	-0.140123
C307	C	0.789029	-0.218321	-0.861381
C308	C	1.122363	0.115012	-0.528048
C309	C	1.455696	0.448346	-0.194715
N310	N	0.755573	-0.251749	-0.888673
N311	N	1.088906	0.081585	-0.555339
N312	N	1.422240	0.414918	-0.222006
C313	C	0.722111	-0.285190	-0.861361
C314	C	1.055444	0.048143	-0.528028
C315	C	1.388777	0.381476	-0.194694
C316	C	0.788979	-0.218397	-0.528306
C317	C	1.122313	0.114936	-0.194972
C318	C	1.455646	0.448270	0.138361
C319	C	0.788976	-0.218413	-0.473703
C320	C	1.122310	0.114920	-0.140370
C321	C	1.455643	0.448254	0.192963
C322	C	0.722055	-0.285286	-0.473683
C323	C	1.055389	0.048048	-0.140350
C324	C	1.388722	0.381381	0.192984
C325	C	0.722062	-0.285272	-0.528286
C326	C	1.055395	0.048062	-0.194953
C327	C	1.388728	0.381395	0.138380
C328	C	0.755523	-0.251825	-0.555597
C329	C	1.088857	0.081509	-0.222264
C330	C	1.422190	0.414842	0.111070
C331	C	0.722135	-0.285164	-0.976026
C332	C	1.055468	0.048169	-0.642693
C333	C	1.388801	0.381502	-0.309359
C334	C	0.722149	-0.285152	-1.030631
C335	C	1.055482	0.048182	-0.697298
C336	C	1.388816	0.381515	-0.363965
C337	C	0.789068	-0.218278	-1.030647
C338	C	1.122401	0.115056	-0.697314
C339	C	1.455734	0.448389	-0.363981
C340	C	0.789055	-0.218292	-0.976047
C341	C	1.122389	0.115041	-0.642713
C342	C	1.455722	0.448375	-0.309380
C343	C	0.755585	-0.251737	-0.948737
C344	C	1.088918	0.081596	-0.615404
C345	C	1.422251	0.414929	-0.282071
O346	O	0.817484	-0.189906	-0.889673
O347	O	1.150818	0.143427	-0.556340
O348	O	1.484151	0.476760	-0.223006
O349	O	0.693655	-0.313613	-0.889595
O350	O	1.026988	0.019721	-0.556262
O351	O	1.360321	0.353054	-0.222928
C352	C	0.755515	-0.251851	-0.116057
C353	C	1.088848	0.081482	0.217276
C354	C	1.422182	0.414815	0.550610
C355	C	0.755611	-0.251710	-0.057943
C356	C	1.088945	0.081623	0.275390
C357	C	1.422278	0.414956	0.608723
H358	H	-0.044991	-0.312464	-0.191152
H359	H	0.288342	0.020869	0.142182
H360	H	0.621675	0.354203	0.475515
C361	C	0.449679	-0.181758	-0.322251
C362	C	0.783012	0.151575	0.011082
C363	C	1.116345	0.484908	0.344415
H364	H	0.473783	-0.161881	-0.342204
H365	H	0.807116	0.171452	-0.008871
H366	H	1.140449	0.504785	0.324463
H367	H	0.428384	-0.158944	-0.302304
H368	H	0.761717	0.174389	0.031029
H369	H	1.095051	0.507723	0.364363
H370	H	0.428376	-0.201797	-0.344998
H371	H	0.761709	0.131537	-0.011664
H372	H	1.095042	0.464870	0.321669
H373	H	0.849712	-0.157653	-0.801735
H374	H	1.183046	0.175680	-0.468402
H375	H	1.516379	0.509014	-0.135069
H376	H	0.816215	-0.953155	-0.312683
H377	H	1.149549	-0.619822	0.020651
H378	H	1.482882	-0.286488	0.353984
C379	C	0.685243	-0.322067	-0.443633
C380	C	1.018576	0.011266	-0.110299
C381	C	1.351909	0.344600	0.223034
H382	H	0.690029	-0.317280	-0.407206
H383	H	1.023362	0.016053	-0.073872
H384	H	1.356696	0.349387	0.259461
H385	H	0.692868	-0.357196	-0.452569
H386	H	1.026201	-0.023863	-0.119236
H387	H	1.359534	0.309470	0.214098
H388	H	0.650118	-0.314406	-0.452579
H389	H	0.983451	0.018928	-0.119246
H390	H	1.316785	0.352261	0.214088
C391	C	0.651835	-0.355416	-0.809456
C392	C	0.985169	-0.022083	-0.476123
C393	C	1.318502	0.311250	-0.142790
H394	H	0.631904	-0.375328	-0.785364
H395	H	0.965237	-0.041994	-0.452030
H396	H	1.298570	0.291339	-0.118697
H397	H	0.671816	-0.378197	-0.830756
H398	H	1.005149	-0.044864	-0.497422
H399	H	1.338483	0.288470	-0.164089
H400	H	0.629067	-0.335405	-0.830756
H401	H	0.962401	-0.002072	-0.497423
H402	H	1.295734	0.331262	-0.164090
H403	H	0.206162	-0.345834	-0.157609
H404	H	0.539495	-0.012500	0.175724
H405	H	0.872829	0.320833	0.509058
C406	C	0.859090	-0.694114	-0.355671
C407	C	1.192423	-0.360781	-0.022338
C408	C	1.525756	-0.027448	0.310995
H409	H	0.854301	-0.657691	-0.350874
H410	H	1.187634	-0.324358	-0.017541
H411	H	1.520967	0.008976	0.315792
H412	H	0.851412	-0.703052	-0.390793
H413	H	1.184745	-0.369718	-0.057459
H414	H	1.518079	-0.036385	0.275874
H415	H	0.894229	-0.703038	-0.348053
H416	H	1.227562	-0.369705	-0.014719
H417	H	1.560896	-0.036371	0.318614
C418	C	0.825780	-0.181642	-0.443689
C419	C	1.159113	0.151692	-0.110356
C420	C	1.492446	0.485025	0.222977
H421	H	0.820988	-0.186437	-0.407257
H422	H	1.154321	0.146896	-0.073923
H423	H	1.487655	0.480230	0.259410
H424	H	0.818153	-0.146511	-0.452650
H425	H	1.151486	0.186823	-0.119317
H426	H	1.484820	0.520156	0.214017
H427	H	0.860907	-0.189298	-0.452640
H428	H	1.194240	0.144035	-0.119307
H429	H	1.527573	0.477369	0.214026
C430	C	0.685350	-0.321931	-1.060648
C431	C	1.018683	0.011403	-0.727315
C432	C	1.352017	0.344736	-0.393982
H433	H	0.690150	-0.317141	-1.097081
H434	H	1.023483	0.016193	-0.763747
H435	H	1.356817	0.349526	-0.430414
H436	H	0.650224	-0.314282	-1.051700
H437	H	0.983557	0.019051	-0.718367
H438	H	1.316890	0.352385	-0.385034
H439	H	0.692984	-0.357063	-1.051687
H440	H	1.026317	-0.023729	-0.718354
H441	H	1.359650	0.309604	-0.385020
C442	C	0.651825	-0.355450	-0.694810
C443	C	0.985158	-0.022117	-0.361477
C444	C	1.318491	0.311216	-0.028144
H445	H	0.631909	-0.375358	-0.718890
H446	H	0.965242	-0.042025	-0.385557
H447	H	1.298576	0.291309	-0.052224
H448	H	0.629049	-0.335464	-0.673509
H449	H	0.962383	-0.002131	-0.340175
H450	H	1.295716	0.331203	-0.006842
H451	H	0.671813	-0.378241	-0.673511
H452	H	1.005146	-0.044908	-0.340178
H453	H	1.338479	0.288425	-0.006844
H454	H	0.849576	-0.800978	-0.346129
H455	H	1.182909	-0.467645	-0.012795
H456	H	1.516242	-0.134311	0.320538
C457	C	0.685420	-0.945567	-0.181665
C458	C	1.018753	-0.612233	0.151668
C459	C	1.352087	-0.278900	0.485002
H460	H	0.665535	-0.969683	-0.161734
H461	H	0.998868	-0.636350	0.171599
H462	H	1.332202	-0.303016	0.504933
H463	H	0.662614	-0.924273	-0.201635
H464	H	0.995948	-0.590940	0.131699
H465	H	1.329281	-0.257606	0.465032
H466	H	0.705434	-0.924264	-0.158897
H467	H	1.038767	-0.590931	0.174436
H468	H	1.372100	-0.257598	0.507770
H469	H	0.206329	-0.157905	-0.346192
H470	H	0.539663	0.175428	-0.012858
H471	H	0.872996	0.508762	0.320475
H472	H	0.054058	-0.312457	-0.191135
H473	H	0.387391	0.020877	0.142198
H474	H	0.720725	0.354210	0.475532
H475	H	0.816301	-0.191071	-0.953827
H476	H	1.149634	0.142262	-0.620494
H477	H	1.482967	0.475595	-0.287160
C478	C	0.651947	-0.809086	-0.148188
C479	C	0.985280	-0.475753	0.185145
C480	C	1.318614	-0.142419	0.518479
H481	H	0.632039	-0.785031	-0.128260
H482	H	0.965372	-0.451698	0.205074
H483	H	1.298705	-0.118364	0.538407
H484	H	0.671961	-0.830386	-0.125425
H485	H	1.005295	-0.497052	0.207909
H486	H	1.338628	-0.163719	0.541242
H487	H	0.629155	-0.830391	-0.168175
H488	H	0.962488	-0.497058	0.165158
H489	H	1.295821	-0.163724	0.498492
H490	H	0.054174	-0.191298	-0.312708
H491	H	0.387508	0.142036	0.020626
H492	H	0.720841	0.475369	0.353959
C493	C	0.825788	-1.060005	-0.322264
C494	C	1.159122	-0.726672	0.011069
C495	C	1.492455	-0.393338	0.344402
H496	H	0.821008	-1.096441	-0.317477
H497	H	1.154341	-0.763108	0.015856
H498	H	1.487674	-0.429775	0.349190
H499	H	0.860922	-1.051032	-0.314649
H500	H	1.194256	-0.717699	0.018685
H501	H	1.527589	-0.384366	0.352018
H502	H	0.818104	-1.051042	-0.357387
H503	H	1.151437	-0.717709	-0.024054
H504	H	1.484770	-0.384375	0.309280
H505	H	0.305212	-0.345827	-0.157601
H506	H	0.638545	-0.012494	0.175732
H507	H	0.971878	0.320839	0.509066
C508	C	0.564201	-0.321999	-0.181531
C509	C	0.897535	0.011334	0.151803
C510	C	1.230868	0.344667	0.485136
H511	H	0.540107	-0.341890	-0.161580
H512	H	0.873440	-0.008556	0.171753
H513	H	1.206773	0.324777	0.505087
H514	H	0.585510	-0.301966	-0.158790
H515	H	0.918843	0.031368	0.174543
H516	H	1.252176	0.364701	0.507877
H517	H	0.585492	-0.344810	-0.201492
H518	H	0.918826	-0.011476	0.131841
H519	H	1.252159	0.321857	0.465175
H520	H	0.694849	-0.550065	-0.191153
H521	H	1.028182	-0.216731	0.142181
H522	H	1.361516	0.116602	0.475514
C523	C	0.685457	-1.060218	-0.181685
C524	C	1.018791	-0.726885	0.151648
C525	C	1.352124	-0.393551	0.484982
H526	H	0.665551	-1.036166	-0.161752
H527	H	0.998884	-0.702832	0.171581
H528	H	1.332217	-0.369499	0.504914
H529	H	0.705477	-1.081518	-0.158926
H530	H	1.038810	-0.748184	0.174407
H531	H	1.372144	-0.414851	0.507741
H532	H	0.662664	-1.081523	-0.201670
H533	H	0.995997	-0.748190	0.131663
H534	H	1.329331	-0.414857	0.464997
H535	H	0.661465	-0.702221	-0.157734
H536	H	0.994798	-0.368888	0.175599
H537	H	1.328131	-0.035554	0.508933
C538	C	0.825605	-0.442992	-0.322149
C539	C	1.158938	-0.109659	0.011184
C540	C	1.492271	0.223675	0.344518
H541	H	0.845505	-0.467043	-0.342090
H542	H	1.178838	-0.133710	-0.008757
H543	H	1.512172	0.199624	0.324577
H544	H	0.848396	-0.421683	-0.302171
H545	H	1.181730	-0.088349	0.031162
H546	H	1.515063	0.244984	0.364495
H547	H	0.805576	-0.421696	-0.344908
H548	H	1.138909	-0.088363	-0.011575
H549	H	1.472243	0.244971	0.321759
C550	C	0.825797	-0.181610	-0.558343
C551	C	1.159130	0.151723	-0.225010
C552	C	1.492464	0.485056	0.108324
H553	H	0.845723	-0.161710	-0.534265
H554	H	1.179056	0.171623	-0.200932
H555	H	1.512389	0.504957	0.132401
H556	H	0.805820	-0.158820	-0.579649
H557	H	1.139154	0.174513	-0.246316
H558	H	1.472487	0.507847	0.087018
H559	H	0.848571	-0.201610	-0.579639
H560	H	1.181904	0.131723	-0.246306
H561	H	1.515237	0.465056	0.087028
H562	H	0.694819	-0.312496	-0.550501
H563	H	1.028153	0.020838	-0.217168
H564	H	1.361486	0.354171	0.116166
H565	H	0.849705	-0.157679	-0.702685
H566	H	1.183039	0.175654	-0.369352
H567	H	1.516372	0.508988	-0.036019
C568	C	0.449535	-0.321999	-0.181536
C569	C	0.782868	0.011335	0.151797
C570	C	1.116201	0.344668	0.485130
H571	H	0.473598	-0.341882	-0.161582
H572	H	0.806931	-0.008549	0.171751
H573	H	1.140265	0.324785	0.505085
H574	H	0.428222	-0.344807	-0.201491
H575	H	0.761555	-0.011474	0.131842
H576	H	1.094889	0.321860	0.465175
H577	H	0.428244	-0.301961	-0.158791
H578	H	0.761577	0.031372	0.174542
H579	H	1.094910	0.364706	0.507875
H580	H	-0.044891	-0.191302	-0.312711
H581	H	0.288442	0.142031	0.020622
H582	H	0.621776	0.475365	0.353955
C583	C	0.685268	-0.443215	-0.181576
C584	C	1.018601	-0.109882	0.151757
C585	C	1.351934	0.223451	0.485090
H586	H	0.665374	-0.467324	-0.161644
H587	H	0.998707	-0.133990	0.171689
H588	H	1.332041	0.199343	0.505022
H589	H	0.662471	-0.421923	-0.201557
H590	H	0.995804	-0.088590	0.131777
H591	H	1.329137	0.244744	0.465110
H592	H	0.705280	-0.421911	-0.158809
H593	H	1.038613	-0.088577	0.174525
H594	H	1.371946	0.244756	0.507858
H595	H	0.694875	-0.312394	-0.953797
H596	H	1.028208	0.020939	-0.620464
H597	H	1.361542	0.354273	-0.287131
C598	C	0.313187	-0.148368	-0.355758
C599	C	0.646520	0.184965	-0.022424
C600	C	0.979853	0.518298	0.310909
H601	H	0.349613	-0.153148	-0.350965
H602	H	0.682947	0.180186	-0.017632
H603	H	1.016280	0.513519	0.315702
H604	H	0.304253	-0.113229	-0.348175
H605	H	0.637587	0.220104	-0.014841
H606	H	0.970920	0.553437	0.318492
H607	H	0.304241	-0.156076	-0.390874
H608	H	0.637574	0.177257	-0.057541
H609	H	0.970907	0.510591	0.275793
C610	C	0.825644	-0.557645	-0.322173
C611	C	1.158978	-0.224311	0.011161
C612	C	1.492311	0.109022	0.344494
H613	H	0.845539	-0.533527	-0.342093
H614	H	1.178872	-0.200194	-0.008760
H615	H	1.512205	0.133139	0.324573
H616	H	0.805641	-0.578950	-0.344943
H617	H	1.138974	-0.245616	-0.011609
H618	H	1.472307	0.087717	0.321724
H619	H	0.848449	-0.578935	-0.302194
H620	H	1.181782	-0.245602	0.031140
H621	H	1.515116	0.087731	0.364473
C622	C	0.825869	-0.181491	-1.060697
C623	C	1.159203	0.151843	-0.727364
C624	C	1.492536	0.485176	-0.394031
H625	H	0.821076	-0.186270	-1.097124
H626	H	1.154409	0.147063	-0.763791
H627	H	1.487742	0.480397	-0.430458
H628	H	0.860995	-0.189138	-1.051755
H629	H	1.194329	0.144196	-0.718421
H630	H	1.527662	0.477529	-0.385088
H631	H	0.818230	-0.146362	-1.051758
H632	H	1.151563	0.186971	-0.718424
H633	H	1.484897	0.520304	-0.385091
H634	H	0.556520	-0.191304	-0.312670
H635	H	0.889854	0.142029	0.020663
H636	H	1.223187	0.475362	0.353996
