data_functionalizedCrystal
_audit_creation_method	'MofGen! by Chris Wilmer'
_symmetry_space_group_name_H-M	'P1'
_symmetry_Int_Tables_number	1
_symmetry_cell_setting	triclinic
loop_
_symmetry_equiv_pos_as_xyz
  x,y,z
_cell_length_a	9.065218
_cell_length_b	12.503584
_cell_length_c	9.065218
_cell_angle_alpha	86.422094
_cell_angle_beta	85.015919
_cell_angle_gamma	93.572944
loop_
_atom_site_label
_atom_site_type_symbol
_atom_site_fract_x
_atom_site_fract_y
_atom_site_fract_z
O1	O	-1.968801	-0.089371	-0.207929
O2	O	-1.539516	-0.089361	-0.225677
O3	O	-1.763032	-0.089364	-0.002161
O4	O	-1.745286	-0.089368	-0.431445
O5	O	-1.746221	0.089278	-0.019001
O6	O	-1.522705	0.089281	-0.242517
O7	O	-1.951991	0.089271	-0.224770
Cu8	Cu	-1.735813	0.105588	-0.235181
Cu9	Cu	-1.755693	-0.105678	-0.215265
O10	O	-1.728475	0.089274	-0.448286
C11	C	-1.476124	-0.000039	-0.232391
C12	C	-1.312281	-0.000035	-0.227292
N13	N	-1.721842	0.254180	-0.249188
C14	C	-1.701288	0.473296	-0.269806
C15	C	-1.790220	0.526621	-0.180649
C16	C	-1.778784	0.648545	-0.192121
C17	C	-1.712723	0.351361	-0.258336
C18	C	-1.015383	-0.000047	-0.218055
C19	C	-1.179225	-0.000038	-0.223156
C20	C	-1.752921	-0.000045	0.044406
C21	C	-1.747822	-0.000050	0.208249
N22	N	-1.769672	0.745730	-0.201262
C23	C	-1.738586	-0.000048	-0.494852
C24	C	-1.743686	-0.000050	-0.658695
H25	H	-1.874946	0.480707	-0.095705
C26	C	-1.586852	0.535313	-0.384564
H27	H	-1.594097	0.610310	-0.377325
H28	H	-1.489808	0.516965	-0.365657
H29	H	-1.606079	0.516945	-0.481522
