data_functionalizedCrystal
_audit_creation_method	'MofGen! by Chris Wilmer'
_symmetry_space_group_name_H-M	'P1'
_symmetry_Int_Tables_number	1
_symmetry_cell_setting	triclinic
loop_
_symmetry_equiv_pos_as_xyz
  x,y,z
_cell_length_a	6.817900
_cell_length_b	13.212919
_cell_length_c	19.910530
_cell_angle_alpha	92.234844
_cell_angle_beta	75.051071
_cell_angle_gamma	106.298290
loop_
_atom_site_label
_atom_site_type_symbol
_atom_site_fract_x
_atom_site_fract_y
_atom_site_fract_z
V1	V	-4.046992	-0.323075	0.075643
O2	O	-4.028521	-0.320129	-0.024669
O3	O	-4.003756	-0.317783	0.170218
O4	O	-4.004958	-0.465385	0.065250
O5	O	-4.027311	-0.171506	0.081025
V6	V	-4.529126	-0.305320	0.064735
O7	O	-4.311297	-0.362021	0.099571
O8	O	-4.715018	-0.266374	0.040808
O9	O	-4.349155	-0.310612	-0.029839
O10	O	-4.664994	-0.308266	0.165048
O11	O	-4.666204	-0.456889	0.059354
O12	O	-4.347954	-0.163010	0.075128
C13	C	-3.849807	-0.311892	0.193562
C14	C	-3.895786	-0.308514	0.270818
C15	C	-3.851339	-0.500171	0.059664
C16	C	-3.898289	-0.616490	0.051793
C17	C	-4.166461	-0.316502	-0.053179
C18	C	-4.098476	-0.319965	-0.131887
C19	C	-4.075522	-0.860833	0.162337
C20	C	-4.119638	-0.970126	0.154944
C21	C	-4.030652	-0.944371	0.029615
C22	C	-3.986536	-0.835078	0.037008
C23	C	-4.008971	-0.793313	0.103371
C24	C	-3.964840	-0.684018	0.110763
C25	C	-3.875870	-0.658265	-0.014565
C26	C	-3.919986	-0.767558	-0.021958
V27	V	-4.246984	-0.316027	-0.259324
O28	O	-4.197112	-0.310553	-0.361238
O29	O	-4.235721	-0.316386	-0.161188
O30	O	-4.236280	-0.464029	-0.266130
O31	O	-4.196548	-0.161888	-0.255569
V32	V	-4.688539	-0.269832	-0.288106
O33	O	-4.509452	-0.341677	-0.243745
O34	O	-4.845328	-0.218408	-0.319881
O35	O	-4.491936	-0.282253	-0.378211
O36	O	-4.847740	-0.268586	-0.190415
O37	O	-4.848303	-0.417251	-0.296083
O38	O	-4.491377	-0.134610	-0.273269
C39	C	-4.164915	-0.128219	0.080717
C40	C	-4.097203	-0.011899	0.088585
C41	C	-4.099200	-0.508306	-0.265750
C42	C	-4.166369	-0.624643	-0.273601
C43	C	-4.315650	-0.297937	-0.395399
C44	C	-4.229597	-0.302525	-0.471908
C45	C	-4.347333	-0.312399	0.422412
C46	C	-4.390544	-0.309226	0.495002
C47	C	-4.025424	-0.299001	0.488588
C48	C	-3.982214	-0.302174	0.415999
C49	C	-4.143176	-0.308872	0.382913
C50	C	-4.099959	-0.312038	0.310322
C51	C	-3.734846	-0.301821	0.303910
C52	C	-3.778056	-0.298647	0.376500
C53	C	-4.314937	-0.109602	-0.261535
C54	C	-4.228432	0.005548	-0.252941
C55	C	-4.262227	-0.692141	-0.214628
C56	C	-4.325377	-0.801454	-0.221996
C57	C	-4.292654	-0.843267	-0.288336
C58	C	-4.196792	-0.775761	-0.347313
C59	C	-4.133657	-0.666450	-0.339945
C60	C	-4.270211	0.047885	-0.186942
C61	C	-4.188924	0.156076	-0.178854
C62	C	-4.065870	0.221930	-0.236766
C63	C	-4.024084	0.179586	-0.302770
C64	C	-4.105358	0.071395	-0.310856
H65	H	-3.983099	-0.650015	0.164798
H66	H	-4.556786	-0.312100	0.527160
C67	C	-3.895298	-0.813512	-0.094954
N68	N	-3.876689	-0.848122	-0.149936
C69	C	-4.362090	-0.963517	-0.296429
N70	N	-4.414382	-1.054090	-0.302519
C71	C	-3.848390	-0.291626	0.524995
N72	N	-3.715043	-0.286065	0.552417
H73	H	-4.170160	-0.809823	-0.401327
C74	C	-3.510258	-0.297947	0.260456
N75	N	-3.341102	-0.295030	0.227725
H76	H	-4.370400	-0.005722	-0.139780
H77	H	-4.055594	-0.611500	-0.387970
C78	C	-4.192824	-1.044395	0.219811
N79	N	-4.247945	-1.100334	0.268672
H80	H	-4.222973	0.190536	-0.125107
H81	H	-4.403421	-0.856404	-0.173966
H82	H	-3.647016	-0.293198	0.403448
C83	C	-4.298259	-0.646168	-0.141645
N84	N	-4.325420	-0.611548	-0.086671
H85	H	-4.012415	-0.978396	-0.024414
H86	H	-3.999702	0.310024	-0.230172
C87	C	-3.888728	0.252042	-0.366468
N88	N	-3.786787	0.306621	-0.414446
H89	H	-4.071334	0.036936	-0.364601
H90	H	-3.821654	-0.603277	-0.062580
H91	H	-4.093765	-0.826828	0.216371
H92	H	-4.231022	-0.317484	0.283385
H93	H	-4.478389	-0.317837	0.395473
