data_functionalizedCrystal
_audit_creation_method	'MofGen! by Chris Wilmer'
_symmetry_space_group_name_H-M	'P1'
_symmetry_Int_Tables_number	1
_symmetry_cell_setting	triclinic
loop_
_symmetry_equiv_pos_as_xyz
  x,y,z
_cell_length_a	14.971486
_cell_length_b	14.048226
_cell_length_c	10.654555
_cell_angle_alpha	89.996310
_cell_angle_beta	84.050586
_cell_angle_gamma	89.995336
loop_
_atom_site_label
_atom_site_type_symbol
_atom_site_fract_x
_atom_site_fract_y
_atom_site_fract_z
O1	O	1.187840	-0.079115	0.163659
O2	O	0.927547	-0.079125	0.183257
O3	O	1.063675	-0.079120	-0.009345
O4	O	1.051711	-0.079120	0.356261
O5	O	1.063659	0.079201	-0.009357
O6	O	0.927530	0.079196	0.183246
O7	O	1.187823	0.079206	0.163647
Zn8	Zn	1.057674	0.104338	0.173445
Zn9	Zn	1.057696	-0.104257	0.173460
O10	O	1.051694	0.079201	0.356249
C11	C	0.894209	0.000034	0.182375
C12	C	0.794897	0.000030	0.179748
C13	C	1.062788	0.000038	-0.056139
C14	C	1.060156	0.000032	-0.195554
N15	N	1.057666	0.246699	0.173434
C16	C	1.221161	0.000045	0.164529
C17	C	1.320472	0.000043	0.167156
C18	C	1.377080	0.000039	0.054007
C19	C	1.470393	0.000043	0.056483
C20	C	1.507096	0.000042	0.172108
C21	C	1.450481	0.000048	0.285265
C22	C	1.357170	0.000052	0.282789
C23	C	1.644972	0.000039	0.290419
C24	C	1.738289	0.000034	0.292897
C25	C	1.758195	0.000029	0.064114
C26	C	1.664884	0.000033	0.061637
C27	C	1.608275	0.000037	0.174795
N28	N	1.057711	-0.246618	0.173461
C29	C	1.117963	0.296519	0.088185
C30	C	1.117969	0.396177	0.088184
C31	C	1.057681	0.446012	0.173439
C32	C	0.997378	0.396185	0.258692
C33	C	0.997368	0.296529	0.258686
C34	C	0.997403	0.603899	0.258701
C35	C	0.997414	0.703562	0.258710
C36	C	1.118004	0.703547	0.088199
C37	C	1.117995	0.603891	0.088193
C38	C	1.057692	0.554071	0.173448
C39	C	1.052582	0.000041	0.403044
C40	C	1.055213	0.000041	0.542458
C41	C	1.058911	0.086336	0.738953
C42	C	1.056443	0.086341	0.607957
C43	C	1.056461	-0.086270	0.607960
C44	C	1.058936	-0.086274	0.738952
C45	C	1.105363	0.190032	0.419392
C46	C	1.104102	0.276340	0.353897
C47	C	1.052577	0.352536	0.405955
C48	C	1.002291	0.342426	0.523511
C49	C	1.003543	0.256116	0.589000
C50	C	1.055089	0.179924	0.536940
C51	C	1.010009	-0.189958	0.927521
C52	C	1.011255	-0.276269	0.993014
C53	C	1.062774	-0.352473	0.940959
C54	C	1.113047	-0.342373	0.823402
C55	C	1.111801	-0.256062	0.757909
C56	C	1.060283	-0.179858	0.809973
H57	H	1.516481	0.000044	-0.035654
H58	H	1.768170	0.000052	0.387049
H59	H	1.051551	0.422809	0.352620
H60	H	0.948286	0.436767	0.328105
C61	C	1.162067	0.106227	0.362149
H62	H	1.155629	0.053381	0.417998
H63	H	1.142147	0.089032	0.283444
H64	H	1.223422	0.124565	0.349712
C65	C	1.184279	0.241709	-0.005599
H66	H	1.220184	0.285657	-0.056378
H67	H	1.221788	0.202819	0.039656
H68	H	1.151770	0.202847	-0.057959
C69	C	0.931097	0.758384	0.352479
H70	H	0.939749	0.824870	0.340279
H71	H	0.871318	0.742071	0.338694
H72	H	0.941325	0.742043	0.436324
C73	C	1.582704	0.000034	0.414891
H74	H	1.617925	0.000021	0.484108
H75	H	1.545882	0.055242	0.418686
H76	H	1.545897	-0.055186	0.418673
C77	C	1.060264	0.181268	0.810990
H78	H	1.059177	0.232667	0.753216
H79	H	1.009162	0.184857	0.871591
H80	H	1.113304	0.184853	0.852586
C81	C	1.184304	0.450975	-0.005578
H82	H	1.220217	0.407022	-0.056340
H83	H	1.151820	0.489865	-0.057937
H84	H	1.221817	0.489836	0.039706
C85	C	0.956011	-0.287362	1.122370
H86	H	0.964142	-0.349674	1.153925
H87	H	0.975590	-0.241884	1.179551
H88	H	0.894229	-0.277379	1.113440
C89	C	0.953339	-0.106130	0.984783
H90	H	0.959806	-0.053277	0.928949
H91	H	0.891981	-0.124435	0.997238
H92	H	0.973284	-0.088953	1.063486
H93	H	1.167089	0.563315	0.018778
H94	H	1.347205	0.000034	-0.040148
H95	H	0.962622	0.247894	0.684728
C96	C	1.184329	0.758345	-0.005589
H97	H	1.175694	0.824833	0.006610
H98	H	1.244106	0.742003	0.008187
H99	H	1.174090	0.742017	-0.089431
C100	C	1.159415	0.287466	0.224597
H101	H	1.151276	0.349777	0.193043
H102	H	1.221183	0.277500	0.233609
H103	H	1.139890	0.241992	0.167359
C104	C	1.294901	0.000047	0.407252
H105	H	1.330123	0.000037	0.476469
H106	H	1.258082	0.055257	0.411040
H107	H	1.258091	-0.055170	0.411040
C108	C	1.167100	-0.244950	0.628598
H109	H	1.197968	-0.302693	0.606974
H110	H	1.128079	-0.230396	0.566408
H111	H	1.209384	-0.194911	0.632647
H112	H	1.635004	0.000026	-0.032515
H113	H	1.804291	0.000024	-0.028024
H114	H	0.948296	0.563339	0.328121
C115	C	0.931045	0.241727	0.352465
H116	H	0.895147	0.285678	0.403249
H117	H	0.893530	0.202862	0.307200
H118	H	0.963545	0.202841	0.404819
H119	H	1.480372	0.000054	0.379410
H120	H	0.960329	0.404472	0.565883
H121	H	1.055466	-0.156537	0.554620
H122	H	1.154987	-0.404429	0.781007
H123	H	1.063745	-0.422768	0.994265
