data_functionalizedCrystal
_audit_creation_method	'MofGen! by Chris Wilmer'
_symmetry_space_group_name_H-M	'P1'
_symmetry_Int_Tables_number	1
_symmetry_cell_setting	triclinic
loop_
_symmetry_equiv_pos_as_xyz
  x,y,z
_cell_length_a	10.489741
_cell_length_b	23.532407
_cell_length_c	9.565339
_cell_angle_alpha	89.995586
_cell_angle_beta	89.999100
_cell_angle_gamma	83.693926
loop_
_atom_site_label
_atom_site_type_symbol
_atom_site_fract_x
_atom_site_fract_y
_atom_site_fract_z
O1	O	1.691382	0.080340	-0.116190
O2	O	1.319936	0.087882	-0.116213
O3	O	1.516860	0.001253	-0.116175
O4	O	1.494458	0.166968	-0.116228
O5	O	1.516844	0.001259	0.116345
O6	O	1.319920	0.087887	0.116307
O7	O	1.691366	0.080345	0.116330
Zn8	Zn	1.505641	0.084117	0.153236
Zn9	Zn	1.505661	0.084110	-0.153119
O10	O	1.494442	0.166974	0.116293
C11	C	1.272415	0.087315	0.000045
C12	C	1.130842	0.085611	0.000037
C13	C	1.064535	0.030491	0.000067
C14	C	0.971550	0.056527	-0.114582
C15	C	0.971568	0.056545	0.114664
C16	C	1.039722	0.111668	-0.114708
C17	C	1.039750	0.111679	0.114642
C18	C	0.946792	0.137754	-0.000036
C19	C	1.516282	-0.019964	0.000089
C20	C	1.514566	-0.083192	0.000099
C21	C	1.620344	-0.481594	0.000029
C22	C	1.618751	-0.541005	0.000019
O23	O	1.716808	-0.577100	-0.000027
N24	N	1.501680	-0.564407	0.000012
C25	C	1.386194	-0.528395	0.000002
O26	O	1.286470	-0.553755	-0.000005
C27	C	1.387789	-0.468985	0.000003
C28	C	1.504868	-0.445587	0.000024
C29	C	1.737414	-0.458195	0.000048
C30	C	1.739007	-0.398788	0.000062
C31	C	1.623530	-0.362781	0.000056
C32	C	1.506460	-0.386180	0.000037
C33	C	1.272305	-0.432974	-0.000017
C34	C	1.273909	-0.373561	-0.000017
C35	C	1.390988	-0.350162	0.000003
C36	C	1.392576	-0.290766	0.000045
N37	N	1.509648	-0.267364	0.000051
C38	C	1.625125	-0.303371	0.000057
C39	C	1.382854	-0.653160	-0.000002
C40	C	1.381258	-0.712568	0.000008
C41	C	1.613816	-0.725174	0.000021
C42	C	1.615410	-0.665765	0.000022
C43	C	1.499926	-0.629758	0.000005
C44	C	1.628461	-0.178612	0.000086
C45	C	1.630043	-0.119200	0.000105
C46	C	1.397486	-0.106599	0.000084
C47	C	1.395903	-0.166006	0.000072
C48	C	1.511401	-0.202012	0.000068
O49	O	1.294571	-0.254636	0.000084
O50	O	1.724833	-0.278003	0.000046
C51	C	1.738887	0.080912	0.000070
C52	C	1.880460	0.082616	0.000069
C53	C	1.495021	0.188191	0.000026
C54	C	1.496736	0.251419	0.000006
N55	N	1.505636	0.084122	0.362316
N56	N	1.505676	0.084101	-0.362198
C57	C	1.414538	0.124171	0.453501
C58	C	1.529652	0.135693	0.546683
C59	C	1.390572	0.072603	0.546689
C60	C	1.620808	0.095670	0.453446
C61	C	1.481652	0.032557	0.453444
C62	C	1.596850	0.044059	0.546584
H63	H	1.115731	-0.014820	-0.000062
H64	H	1.293248	0.062870	0.587651
N65	N	0.931494	0.025630	-0.242950
H66	H	0.835367	0.025032	-0.242451
H67	H	0.957590	0.046063	-0.329478
H68	H	1.707843	-0.754503	0.000020
H69	H	1.285921	-0.731613	0.000015
H70	H	1.288807	-0.623845	-0.000004
N71	N	1.079866	0.142545	0.243019
H72	H	1.122272	0.177185	0.213799
H73	H	1.001802	0.155048	0.301771
N74	N	0.931545	0.025647	0.243058
H75	H	0.974834	-0.014868	0.242961
H76	H	0.957572	0.046104	0.329570
N77	N	1.756325	-0.093963	0.000135
H78	H	1.829234	-0.125792	0.000133
H79	H	1.762063	-0.069582	-0.086056
N80	N	1.272944	-0.067755	0.000059
H81	H	1.198528	-0.091589	0.000043
H82	H	1.268529	-0.042832	0.086255
H83	H	1.834344	-0.379743	0.000072
N84	N	1.699023	-0.000814	0.600406
H85	H	1.657818	-0.029624	0.658549
H86	H	1.745665	-0.020826	0.518792
H87	H	1.718153	0.105455	0.412660
H88	H	1.069782	0.134970	-0.211745
H89	H	0.895860	0.183113	-0.000113
N90	N	1.146025	-0.458201	-0.000021
H91	H	1.073126	-0.426368	-0.000027
H92	H	1.140292	-0.482573	-0.086219
H93	H	1.461303	-0.011026	0.412456
N94	N	1.753029	-0.217442	0.000082
H95	H	1.827425	-0.193596	0.000099
H96	H	1.757431	-0.242370	0.086278
N97	N	1.861974	-0.497027	0.000056
H98	H	1.936367	-0.473180	0.000069
H99	H	1.866375	-0.521951	0.086259
N100	N	1.741686	-0.640529	0.000045
H101	H	1.814591	-0.672360	0.000053
H102	H	1.747428	-0.616154	-0.086154
N103	N	1.149356	-0.334719	-0.000028
H104	H	1.098250	-0.342296	-0.086230
H105	H	1.098339	-0.342324	0.086218
N106	N	1.269630	-0.191248	0.000070
H107	H	1.196719	-0.159420	0.000073
H108	H	1.263910	-0.215614	-0.086140
H109	H	1.337568	0.158071	0.412632
H110	H	1.549965	0.179291	0.587638
