data_functionalizedCrystal
_audit_creation_method	'MofGen! by Chris Wilmer'
_symmetry_space_group_name_H-M	'P1'
_symmetry_Int_Tables_number	1
_symmetry_cell_setting	triclinic
loop_
_symmetry_equiv_pos_as_xyz
  x,y,z
_cell_length_a	14.044191
_cell_length_b	13.101018
_cell_length_c	9.065218
_cell_angle_alpha	93.410526
_cell_angle_beta	90.896169
_cell_angle_gamma	93.666878
loop_
_atom_site_label
_atom_site_type_symbol
_atom_site_fract_x
_atom_site_fract_y
_atom_site_fract_z
O1	O	1.265919	0.085157	-0.348674
O2	O	1.515919	0.335157	-0.098674
O3	O	1.765919	0.585157	0.151326
O4	O	2.015919	0.835157	0.401326
O5	O	0.989840	0.085170	-0.335813
O6	O	1.239840	0.335170	-0.085813
O7	O	1.489840	0.585170	0.164187
O8	O	1.739840	0.835170	0.414187
O9	O	1.133586	0.085161	-0.128234
O10	O	1.383586	0.335161	0.121766
O11	O	1.633586	0.585161	0.371766
O12	O	1.883586	0.835161	0.621766
O13	O	1.122173	0.085166	-0.556253
O14	O	1.372173	0.335166	-0.306253
O15	O	1.622173	0.585166	-0.056253
O16	O	1.872173	0.835166	0.193747
O17	O	1.123260	-0.085268	-0.143140
O18	O	1.373260	0.164732	0.106860
O19	O	1.623260	0.414732	0.356860
O20	O	1.873260	0.664732	0.606860
O21	O	0.979514	-0.085259	-0.350719
O22	O	1.229514	0.164741	-0.100719
O23	O	1.479514	0.414741	0.149281
O24	O	1.729514	0.664741	0.399281
O25	O	1.255593	-0.085273	-0.363580
O26	O	1.505593	0.164727	-0.113580
O27	O	1.755593	0.414727	0.136420
O28	O	2.005593	0.664727	0.386420
Zn29	Zn	1.115914	-0.112325	-0.359516
Zn30	Zn	1.365914	0.137675	-0.109516
Zn31	Zn	1.615914	0.387675	0.140484
Zn32	Zn	1.865914	0.637675	0.390484
Zn33	Zn	1.129519	0.112223	-0.339877
Zn34	Zn	1.379519	0.362223	-0.089877
Zn35	Zn	1.629519	0.612223	0.160123
Zn36	Zn	1.879519	0.862223	0.410123
O37	O	1.111847	-0.085264	-0.571159
O38	O	1.361847	0.164736	-0.321159
O39	O	1.611847	0.414736	-0.071159
O40	O	1.861847	0.664736	0.178841
C41	C	0.949314	-0.000043	-0.337640
C42	C	1.199314	0.249957	-0.087640
C43	C	1.449314	0.499957	0.162360
C44	C	1.699314	0.749957	0.412360
C45	C	0.843944	-0.000037	-0.320858
C46	C	1.093944	0.249963	-0.070858
C47	C	1.343944	0.499963	0.179142
C48	C	1.593944	0.749963	0.429142
C49	C	0.594416	-0.000047	-0.409195
C50	C	0.844416	0.249953	-0.159195
C51	C	1.094416	0.499953	0.090805
C52	C	1.344416	0.749953	0.340805
C53	C	0.651023	-0.000046	-0.290203
C54	C	0.901023	0.249954	-0.040203
C55	C	1.151023	0.499954	0.209797
C56	C	1.401023	0.749954	0.459797
C57	C	0.758374	-0.000041	-0.307264
C58	C	1.008374	0.249959	-0.057264
C59	C	1.258374	0.499959	0.192736
C60	C	1.508374	0.749959	0.442736
C61	C	0.487055	-0.000052	-0.392137
C62	C	0.737055	0.249948	-0.142137
C63	C	0.987055	0.499948	0.107863
C64	C	1.237055	0.749948	0.357863
N65	N	1.106637	-0.265574	-0.372920
N66	N	1.356637	-0.015574	-0.122920
N67	N	1.606637	0.234426	0.127080
N68	N	1.856637	0.484426	0.377080
C69	C	1.151421	-0.525486	-0.308220
C70	C	1.401421	-0.275486	-0.058220
C71	C	1.651421	-0.025486	0.191780
C72	C	1.901421	0.224514	0.441780
C73	C	1.094022	-0.474610	-0.391158
C74	C	1.344022	-0.224610	-0.141158
C75	C	1.594022	0.025390	0.108842
C76	C	1.844022	0.275390	0.358842
C77	C	1.101043	-0.358291	-0.381007
C78	C	1.351043	-0.108291	-0.131007
C79	C	1.601043	0.141709	0.118993
C80	C	1.851043	0.391709	0.368993
C81	C	1.144402	-0.641815	-0.318369
C82	C	1.394402	-0.391815	-0.068369
C83	C	1.644402	-0.141815	0.181631
C84	C	1.894402	0.108185	0.431631
C85	C	1.296119	-0.000057	-0.361753
C86	C	1.546119	0.249943	-0.111753
C87	C	1.796119	0.499943	0.138247
C88	C	2.046119	0.749943	0.388247
C89	C	1.401489	-0.000056	-0.378534
C90	C	1.651489	0.249944	-0.128534
C91	C	1.901489	0.499944	0.121466
C92	C	2.151489	0.749944	0.371466
C93	C	1.127326	-0.000052	-0.080578
C94	C	1.377326	0.249948	0.169422
C95	C	1.627326	0.499948	0.419422
C96	C	1.877326	0.749948	0.669422
C97	C	1.124047	-0.000047	0.083628
C98	C	1.374047	0.249953	0.333628
C99	C	1.624047	0.499953	0.583628
C100	C	1.874047	0.749953	0.833628
N101	N	1.138804	0.265472	-0.326462
N102	N	1.388804	0.515472	-0.076462
N103	N	1.638804	0.765472	0.173538
N104	N	1.888804	1.015472	0.423538
C105	C	1.118107	-0.000048	-0.618814
C106	C	1.368107	0.249952	-0.368814
C107	C	1.618107	0.499952	-0.118814
C108	C	1.868107	0.749952	0.131186
C109	C	1.121387	-0.000046	-0.783020
C110	C	1.371387	0.249954	-0.533020
C111	C	1.621387	0.499954	-0.283020
C112	C	1.871387	0.749954	-0.033020
H113	H	0.618868	0.000025	-0.175512
H114	H	0.868868	0.250025	0.074488
H115	H	1.118868	0.500025	0.324488
H116	H	1.368868	0.750025	0.574488
Cl117	Cl	1.010015	-0.542234	-0.512559
Cl118	Cl	1.260015	-0.292234	-0.262559
Cl119	Cl	1.510015	-0.042234	-0.012559
Cl120	Cl	1.760015	0.207766	0.237441
H121	H	0.626574	-0.000042	-0.523871
H122	H	0.876574	0.249958	-0.273871
H123	H	1.126574	0.499958	-0.023871
H124	H	1.376574	0.749958	0.226129
H125	H	1.205832	-0.481690	-0.229598
H126	H	1.455832	-0.231690	0.020402
H127	H	1.705832	0.018310	0.270402
H128	H	1.955832	0.268310	0.520402
