data_functionalizedCrystal
_audit_creation_method	'MofGen! by Chris Wilmer'
_symmetry_space_group_name_H-M	'P1'
_symmetry_Int_Tables_number	1
_symmetry_cell_setting	triclinic
loop_
_symmetry_equiv_pos_as_xyz
  x,y,z
_cell_length_a	13.897449
_cell_length_b	19.121063
_cell_length_c	13.897449
_cell_angle_alpha	87.574651
_cell_angle_beta	90.005980
_cell_angle_gamma	92.470221
loop_
_atom_site_label
_atom_site_type_symbol
_atom_site_fract_x
_atom_site_fract_y
_atom_site_fract_z
Zn1	Zn	1.458104	-0.279712	0.561734
Zn2	Zn	1.451130	-0.397136	0.407300
Zn3	Zn	1.296835	-0.279704	0.400452
Zn4	Zn	1.289866	-0.397131	0.568552
O5	O	1.373984	-0.338421	0.484510
O6	O	1.592160	-0.295294	0.541260
O7	O	1.430661	-0.381557	0.271410
O8	O	1.324063	-0.181419	0.416126
O9	O	1.587037	-0.381565	0.427799
O10	O	1.442546	-0.181425	0.534620
O11	O	1.317301	-0.295280	0.266379
O12	O	1.160929	-0.295276	0.422738
O13	O	1.312185	-0.381557	0.702630
O14	O	1.155809	-0.381549	0.546241
O15	O	1.435789	-0.295290	0.697620
O16	O	1.423903	-0.495421	0.434410
O17	O	1.305423	-0.495418	0.552882
C18	C	1.123370	-0.338411	0.484487
C19	C	1.016155	-0.338424	0.484501
C20	C	0.819860	-0.338427	0.484527
C21	C	0.929093	-0.338423	0.484510
C22	C	1.363176	-0.520904	0.495150
C23	C	1.358641	-0.598971	0.499735
C24	C	1.418245	-0.635625	0.440258
C25	C	1.413985	-0.708978	0.444575
C26	C	1.350116	-0.745674	0.508365
C27	C	1.290510	-0.709015	0.567848
C28	C	1.294775	-0.635664	0.563535
C29	C	1.334154	-0.967148	0.524476
C30	C	1.329891	-1.040504	0.528782
C31	C	1.453368	-1.040462	0.405510
C32	C	1.457623	-0.967109	0.401198
C33	C	1.398021	-0.930456	0.460685
C34	C	1.345758	-0.820652	0.512777
C35	C	1.402384	-0.855480	0.456277
C36	C	1.625576	-0.338431	0.484533
C37	C	1.732790	-0.338435	0.484543
C38	C	1.373987	-0.338424	0.736103
C39	C	1.373989	-0.338425	0.843317
C40	C	1.384860	-0.155225	0.473848
C41	C	1.389495	-0.077158	0.469305
C42	C	1.373964	-0.338428	1.039612
C43	C	1.373975	-0.338428	0.930379
C44	C	1.373970	-0.338432	1.233896
C45	C	1.373963	-0.338427	1.126682
H46	H	1.462520	-0.738819	0.396142
H47	H	1.509630	-0.937233	0.349255
H48	H	1.501894	-1.070313	0.357080
O49	O	1.269839	-0.927629	0.588614
H50	H	1.285482	-0.941681	0.665162
H51	H	1.238511	-0.738899	0.619792
H52	H	1.277893	-1.070380	0.580744
O53	O	1.230479	-0.596123	0.627673
H54	H	1.185340	-0.633962	0.672746
O55	O	1.471274	-0.815906	0.387478
H56	H	1.546149	-0.829931	0.404919
O57	O	1.276857	-0.860238	0.581558
H58	H	1.318043	-0.893624	0.632630
H59	H	1.470249	-0.605752	0.388309
