data_functionalizedCrystal
_audit_creation_method	'MofGen! by Chris Wilmer'
_symmetry_space_group_name_H-M	'P1'
_symmetry_Int_Tables_number	1
_symmetry_cell_setting	triclinic
loop_
_symmetry_equiv_pos_as_xyz
  x,y,z
_cell_length_a	19.188925
_cell_length_b	18.266242
_cell_length_c	12.837942
_cell_angle_alpha	89.999157
_cell_angle_beta	91.014256
_cell_angle_gamma	90.007294
loop_
_atom_site_label
_atom_site_type_symbol
_atom_site_fract_x
_atom_site_fract_y
_atom_site_fract_z
O1	O	0.935021	0.060897	-0.129346
O2	O	0.732904	0.060895	-0.146769
O3	O	0.829481	0.060891	0.012825
O4	O	0.838444	0.060900	-0.288940
O5	O	0.829468	-0.060871	0.012820
O6	O	0.732891	-0.060867	-0.146774
O7	O	0.935008	-0.060865	-0.129351
Zn8	Zn	0.833947	-0.080199	-0.138064
Zn9	Zn	0.833965	0.080228	-0.138057
O10	O	0.838431	-0.060862	-0.288945
C11	C	0.706848	0.000013	-0.146208
C12	C	0.629227	0.000012	-0.144517
N13	N	0.833940	-0.189686	-0.138068
C14	C	0.073103	0.000017	-0.226840
C15	C	0.146036	0.000021	-0.228437
C16	C	0.184548	0.000016	-0.134793
C17	C	0.150121	0.000027	-0.039544
C18	C	0.077189	0.000030	-0.037949
N19	N	0.300570	-0.041434	-0.067000
N20	N	0.369852	-0.041439	-0.068522
C21	C	0.404286	0.000008	-0.139593
N22	N	0.366821	0.041451	-0.209101
N23	N	0.297533	0.041452	-0.207583
C24	C	0.263630	0.000013	-0.136512
C25	C	0.517787	0.000007	-0.236569
C26	C	0.590721	0.000015	-0.238163
C27	C	0.594804	0.000014	-0.049266
C28	C	0.521871	0.000013	-0.047675
C29	C	0.483367	0.000006	-0.141329
C30	C	0.880491	-0.771960	-0.200731
C31	C	0.880484	-0.695315	-0.200742
C32	C	0.833971	-0.656998	-0.138046
C33	C	0.787448	-0.695333	-0.075355
C34	C	0.787451	-0.771976	-0.075355
N35	N	0.826053	-0.536663	-0.047269
N36	N	0.826054	-0.463855	-0.047272
C37	C	0.833957	-0.426076	-0.138046
N38	N	0.841873	-0.463855	-0.228818
N39	N	0.841875	-0.536670	-0.228813
C40	C	0.833962	-0.573891	-0.138040
C41	C	0.880466	-0.304643	-0.200750
C42	C	0.880455	-0.227997	-0.200763
C43	C	0.787422	-0.228017	-0.075366
C44	C	0.787430	-0.304661	-0.075363
C45	C	0.833956	-0.342970	-0.138053
C46	C	0.961064	0.000017	-0.129912
C47	C	1.038685	0.000023	-0.131603
C48	C	0.826446	0.000010	0.051429
C49	C	0.817415	0.000011	0.166465
N50	N	0.833977	0.189715	-0.138045
C51	C	0.841466	0.000020	-0.327549
C52	C	0.850497	0.000024	-0.442585
C53	C	0.925983	0.000028	0.407919
C54	C	0.917501	0.000029	0.516006
C55	C	0.791970	0.000020	0.490728
C56	C	0.800452	0.000019	0.382641
C57	C	0.867461	0.000022	0.341241
C58	C	0.875942	0.000015	0.233151
C59	C	0.750411	0.000012	0.207876
C60	C	0.741929	0.000013	0.315963
H61	H	0.041758	0.000014	-0.303100
F62	F	0.947258	0.000014	0.189091
H63	H	0.980544	0.000023	0.374210
H64	H	0.918348	-0.335836	-0.251801
F65	F	0.635786	0.000019	0.050398
F66	F	0.979789	0.000038	0.586967
F67	F	0.720660	0.000035	0.534808
H68	H	0.174065	0.000008	-0.305993
H69	H	0.687373	0.000013	0.349687
H70	H	0.702758	0.000001	0.153574
H71	H	0.618743	0.000016	-0.315719
F72	F	0.040557	0.000039	0.063420
F73	F	0.476805	0.000001	-0.336242
F74	F	0.191108	0.000025	0.060119
H75	H	0.918331	-0.196794	-0.251816
F76	F	0.485239	0.000022	0.053690
H77	H	0.918375	-0.803146	-0.251781
F78	F	0.930000	-0.654518	-0.267452
H79	H	0.749546	-0.196820	-0.024324
H80	H	0.749575	-0.664131	-0.024310
H81	H	0.749556	-0.335866	-0.024312
F82	F	0.737942	-0.812766	-0.008632
