data_functionalizedCrystal
_audit_creation_method	'MofGen! by Chris Wilmer'
_symmetry_space_group_name_H-M	'P1'
_symmetry_Int_Tables_number	1
_symmetry_cell_setting	triclinic
loop_
_symmetry_equiv_pos_as_xyz
  x,y,z
_cell_length_a	13.897449
_cell_length_b	25.639240
_cell_length_c	25.639234
_cell_angle_alpha	89.973027
_cell_angle_beta	90.022090
_cell_angle_gamma	89.956011
loop_
_atom_site_label
_atom_site_type_symbol
_atom_site_fract_x
_atom_site_fract_y
_atom_site_fract_z
Zn1	Zn	1.474519	0.208171	0.295633
Zn2	Zn	1.474345	0.295599	0.208195
Zn3	Zn	1.313212	0.208181	0.208209
Zn4	Zn	1.313119	0.295579	0.295596
O5	O	1.393799	0.251882	0.251908
O6	O	1.609478	0.219773	0.284044
O7	O	1.452937	0.284016	0.135031
O8	O	1.334722	0.135014	0.219827
O9	O	1.609350	0.284006	0.219804
O10	O	1.453234	0.135007	0.284058
O11	O	1.334553	0.219790	0.135042
O12	O	1.178218	0.219770	0.219791
O13	O	1.334562	0.283971	0.368766
O14	O	1.178149	0.283981	0.283994
O15	O	1.453143	0.219753	0.368794
O16	O	1.452846	0.368762	0.219767
O17	O	1.334394	0.368747	0.283980
C18	C	1.143185	0.251874	0.251890
C19	C	1.035971	0.251884	0.251894
C20	C	0.948901	0.251885	0.251903
C21	C	0.839668	0.251889	0.251919
C22	C	1.393617	0.387725	0.251879
C23	C	1.393628	0.445839	0.251884
C24	C	1.455558	0.806197	0.218509
C25	C	1.455588	0.860802	0.218514
O26	O	1.508115	0.889035	0.190121
N27	N	1.393877	0.888122	0.251920
C28	C	1.332139	0.860834	0.285326
O29	O	1.279652	0.889086	0.313741
C30	C	1.332115	0.806231	0.285323
C31	C	1.393823	0.778914	0.251912
C32	C	1.517262	0.778881	0.185101
C33	C	1.517231	0.724280	0.185095
C34	C	1.455496	0.696996	0.218498
C35	C	1.393792	0.724313	0.251906
C36	C	1.270383	0.778944	0.318732
C37	C	1.270365	0.724337	0.318727
C38	C	1.332073	0.697020	0.285315
C39	C	1.332026	0.642429	0.285303
N40	N	1.393737	0.615110	0.251898
C41	C	1.455472	0.642393	0.218495
C42	C	1.332195	0.975505	0.285330
C43	C	1.332214	1.030107	0.285331
C44	C	1.455664	1.030071	0.218519
C45	C	1.455640	0.975468	0.218517
C46	C	1.393906	0.948185	0.251925
C47	C	1.455402	0.527728	0.218486
C48	C	1.455363	0.473123	0.218482
C49	C	1.331916	0.473164	0.285295
C50	C	1.331952	0.527764	0.285297
C51	C	1.393702	0.555045	0.251891
O52	O	1.279528	0.614162	0.313683
O53	O	1.507959	0.614135	0.190090
C54	C	1.645392	0.251891	0.251927
C55	C	1.752606	0.251895	0.251935
C56	C	1.393862	0.251859	0.388281
C57	C	1.393888	0.251848	0.446395
C58	C	1.393972	1.115509	0.251939
C59	C	1.393953	1.057395	0.251930
C60	C	1.393792	0.251869	0.116066
C61	C	1.393952	0.251731	0.057952
C62	C	1.332273	0.218344	0.806769
C63	C	1.332278	0.218334	0.861374
O64	O	1.279842	0.189905	0.889620
N65	N	1.393920	0.251766	0.888678
C66	C	1.455555	0.285214	0.861375
O67	O	1.507986	0.313650	0.889613
C68	C	1.455544	0.285226	0.806772
C69	C	1.393904	0.251788	0.779470
C70	C	1.270638	0.184909	0.779468
C71	C	1.270634	0.184918	0.724867
C72	C	1.332266	0.218362	0.697568
C73	C	1.393901	0.251797	0.724870
C74	C	1.517172	0.318676	0.779470
C75	C	1.517156	0.318685	0.724863
C76	C	1.455516	0.285247	0.697561
C77	C	1.455528	0.285249	0.642970
N78	N	1.393886	0.251817	0.615666
C79	C	1.332255	0.218373	0.642965
C80	C	1.455571	0.285188	0.976046
C81	C	1.455588	0.285174	1.030648
C82	C	1.332310	0.218294	1.030643
C83	C	1.332299	0.218306	0.976040
C84	C	1.393929	0.251755	0.948741
C85	C	1.332252	0.218394	0.528300
C86	C	1.332257	0.218405	0.473694
C87	C	1.455531	0.285285	0.473704
C88	C	1.455530	0.285273	0.528305
C89	C	1.393883	0.251826	0.555601
O90	O	1.507935	0.313666	0.614689
O91	O	1.279823	0.189947	0.614720
H92	H	1.505687	0.549934	0.191285
O93	O	1.272366	1.056616	0.317858
C94	C	1.225418	1.073263	0.406772
C95	C	1.293267	1.043222	0.369991
H96	H	1.242278	1.062438	0.448929
H97	H	1.236038	1.116984	0.401089
H98	H	1.147650	1.062581	0.397521
H99	H	1.371060	1.053861	0.379219
H100	H	1.282563	0.999509	0.375681
O101	O	1.577075	0.351210	0.805901
C102	C	1.699366	0.417535	0.800119
C103	C	1.631558	0.380721	0.770123
H104	H	1.743448	0.441396	0.771206
H105	H	1.655086	0.444903	0.825651
H106	H	1.749814	0.393528	0.825714
H107	H	1.581097	0.404685	0.744499
H108	H	1.675899	0.353351	0.744624
O109	O	1.515274	0.317780	0.554884
C110	C	1.528127	0.388394	0.616476
C111	C	1.460370	0.351598	0.586424
H112	H	1.483763	0.415752	0.641975
H113	H	1.578591	0.364423	0.642097
H114	H	1.572195	0.412272	0.587570
H115	H	1.416239	0.327712	0.615292
H116	H	1.409969	0.375598	0.560795
H117	H	1.505712	0.312513	0.451467
H118	H	1.505613	0.450883	0.191272
H119	H	1.220437	0.157691	0.702643
O120	O	1.577276	0.697829	0.152628
C121	C	1.699696	0.703577	0.086347
C122	C	1.631751	0.733592	0.123098
H123	H	1.743743	0.732478	0.062454
H124	H	1.750163	0.677989	0.110353
H125	H	1.655426	0.678036	0.059001
H126	H	1.675944	0.759161	0.150451
H127	H	1.581282	0.759147	0.099060
H128	H	1.567539	0.801089	0.157900
O129	O	1.272402	0.185760	1.057086
C130	C	1.150077	0.119452	1.051333
C131	C	1.217883	0.156259	1.021321
H132	H	1.105966	0.095599	1.022430
H133	H	1.194361	0.092076	1.076900
H134	H	1.099655	0.143464	1.076896
H135	H	1.268318	0.132289	0.995730
H136	H	1.173539	0.183636	0.995787
O137	O	1.515677	0.949015	0.186046
C138	C	1.638076	0.954757	0.119754
C139	C	1.570146	0.984776	0.156509
H140	H	1.682117	0.983657	0.095856
H141	H	1.688548	0.929169	0.143755
H142	H	1.593795	0.929217	0.092413
H143	H	1.614349	1.010344	0.183858
H144	H	1.519671	1.010331	0.132476
O145	O	1.577075	0.351106	0.698290
C146	C	1.707336	0.358163	0.636693
C147	C	1.639523	0.321389	0.666742
H148	H	1.757855	0.334151	0.611188
H149	H	1.663059	0.385496	0.611078
H150	H	1.751341	0.382068	0.665600
H151	H	1.595503	0.297450	0.637872
H152	H	1.683855	0.294090	0.692365
H153	H	1.220445	0.157674	0.801689
H154	H	1.505935	1.052295	0.191323
O155	O	1.272370	0.185901	0.949463
C156	C	1.142086	0.178876	0.887829
C157	C	1.209915	0.215634	0.917881
H158	H	1.091561	0.202901	0.862296
H159	H	1.186349	0.151551	0.862242
H160	H	1.098088	0.154960	0.916735
H161	H	1.253928	0.239584	0.889013
H162	H	1.165597	0.242924	0.943476
O163	O	1.272351	0.948981	0.317835
C164	C	1.259249	0.887285	0.388399
C165	C	1.327129	0.917296	0.351628
H166	H	1.303508	0.861652	0.415722
H167	H	1.215167	0.916171	0.412310
H168	H	1.208803	0.861786	0.364356
H169	H	1.377632	0.942796	0.375630
H170	H	1.371143	0.888382	0.327715
H171	H	1.282054	0.191158	0.550518
H172	H	1.282063	0.191173	0.451468
H173	H	1.505791	0.312396	1.052872
H174	H	1.220095	0.702126	0.345933
O175	O	1.210412	0.805391	0.351240
C176	C	1.087941	0.799640	0.417493
C177	C	1.155828	0.769626	0.380710
H178	H	1.043779	0.770737	0.441321
H179	H	1.132165	0.825148	0.444893
H180	H	1.037572	0.825260	0.393464
H181	H	1.206211	0.743977	0.404697
H182	H	1.111545	0.744151	0.353309
O183	O	1.271976	0.554222	0.317800
C184	C	1.149497	0.548488	0.384049
C185	C	1.217375	0.518465	0.347270
H186	H	1.105320	0.519592	0.407878
H187	H	1.193728	0.573992	0.411450
H188	H	1.099140	0.574114	0.360018
H189	H	1.267745	0.492811	0.371259
H190	H	1.173084	0.492995	0.319868
O191	O	1.515405	0.317750	0.949588
C192	C	1.562063	0.406693	0.932851
C193	C	1.494259	0.369875	0.962853
H194	H	1.544977	0.448845	0.943557
H195	H	1.639870	0.397552	0.943616
H196	H	1.551493	0.400936	0.889136
H197	H	1.504743	0.375611	1.006574
H198	H	1.416477	0.379026	0.952044
O199	O	1.272042	0.446574	0.317725
C200	C	1.217272	0.362464	0.347303
C201	C	1.285137	0.392512	0.310555
H202	H	1.227821	0.318750	0.341511
H203	H	1.234180	0.373126	0.389483
H204	H	1.139514	0.373276	0.338094
H205	H	1.362917	0.381717	0.319717
H206	H	1.268146	0.381848	0.268386
