data_functionalizedCrystal
_audit_creation_method	'MofGen! by Chris Wilmer'
_symmetry_space_group_name_H-M	'P1'
_symmetry_Int_Tables_number	1
_symmetry_cell_setting	triclinic
loop_
_symmetry_equiv_pos_as_xyz
  x,y,z
_cell_length_a	16.793024
_cell_length_b	16.793047
_cell_length_c	33.586455
_cell_angle_alpha	113.253857
_cell_angle_beta	66.219990
_cell_angle_gamma	112.758327
loop_
_atom_site_label
_atom_site_type_symbol
_atom_site_fract_x
_atom_site_fract_y
_atom_site_fract_z
O1	O	0.005016	-0.570216	-0.583573
O2	O	-0.034529	-0.474528	-0.453458
O3	O	0.114723	-0.474535	-0.528082
O4	O	-0.144235	-0.570209	-0.508949
O5	O	0.108729	-0.346329	-0.530229
O6	O	-0.040523	-0.346322	-0.455605
O7	O	-0.000977	-0.442010	-0.585721
Cu8	Cu	-0.021297	-0.382459	-0.520859
Cu9	Cu	-0.014209	-0.534079	-0.518320
O10	O	-0.150229	-0.442003	-0.511097
C11	C	0.005100	-0.790970	-0.238461
C12	C	-0.040584	-0.395375	-0.435637
C13	C	-0.044693	-0.353446	-0.386631
C14	C	-0.039275	-0.401741	-0.363054
C15	C	-0.040566	-0.125547	-0.300731
C16	C	-0.044689	-0.223451	-0.321635
C17	C	-0.039266	-0.270752	-0.297563
C18	C	0.005118	-0.521142	-0.103554
C19	C	-0.046224	-0.263935	-0.366370
C20	C	-0.036476	-0.360146	-0.318399
C21	C	-0.030850	-0.408530	-0.294565
C22	C	-0.028014	-0.367522	-0.249895
C23	C	-0.030804	-0.278128	-0.229058
C24	C	-0.036430	-0.229743	-0.252892
C25	C	-0.027971	-0.237122	-0.184383
C26	C	-0.022345	-0.285507	-0.160550
C27	C	-0.019555	-0.374900	-0.181386
C28	C	-0.022391	-0.415909	-0.226057
C29	C	-0.019601	-0.505302	-0.246894
C30	C	-0.013975	-0.553687	-0.223060
C31	C	-0.011142	-0.512684	-0.178391
C32	C	-0.013932	-0.423291	-0.157554
C33	C	-0.005516	-0.561069	-0.154557
C34	C	-0.002726	-0.650463	-0.175394
C35	C	-0.005562	-0.691471	-0.220064
C36	C	-0.011185	-0.643081	-0.243897
C37	C	-0.022434	-0.546309	-0.291568
C38	C	-0.019644	-0.635702	-0.312405
C39	C	-0.014021	-0.684089	-0.288567
C40	C	-0.022480	-0.676711	-0.357076
C41	C	-0.028106	-0.628326	-0.380910
C42	C	-0.030896	-0.538933	-0.360073
C43	C	-0.028060	-0.497924	-0.315402
C44	C	-0.036522	-0.490548	-0.383907
C45	C	0.815184	-0.521162	-0.508596
C46	C	0.415541	-0.125553	-0.528781
C47	C	0.375032	-0.223457	-0.531493
C48	C	0.423813	-0.270761	-0.529101
C49	C	0.149318	-0.395376	-0.530584
C50	C	0.246774	-0.353455	-0.532364
C51	C	0.294574	-0.401748	-0.529976
C52	C	0.548961	-0.790984	-0.510398
C53	C	0.286104	-0.263940	-0.532530
C54	C	0.383336	-0.360149	-0.528302
C55	C	0.432207	-0.407971	-0.525810
C56	C	0.392316	-0.497392	-0.524993
C57	C	0.303554	-0.538991	-0.526667
C58	C	0.254683	-0.491169	-0.529159
C59	C	0.263666	-0.628421	-0.525851
C60	C	0.312537	-0.676243	-0.523359
C61	C	0.401299	-0.634644	-0.521685
C62	C	0.441190	-0.545223	-0.522502
C63	C	0.529952	-0.503624	-0.520828
C64	C	0.578823	-0.551446	-0.518336
C65	C	0.538939	-0.640864	-0.517520
C66	C	0.450177	-0.682463	-0.519194
C67	C	0.587810	-0.688687	-0.515028
C68	C	0.676572	-0.647088	-0.513354
C69	C	0.716463	-0.557666	-0.514172
C70	C	0.667586	-0.509847	-0.516662
C71	C	0.569840	-0.414195	-0.521644
C72	C	0.658602	-0.372596	-0.519970
C73	C	0.707476	-0.420426	-0.517480
C74	C	0.698493	-0.283174	-0.520788
C75	C	0.649622	-0.235352	-0.523280
C76	C	0.560860	-0.276951	-0.524954
C77	C	0.520969	-0.366372	-0.524136
C78	C	0.511989	-0.229129	-0.527446
C79	C	-0.040530	-0.395407	-0.935652
C80	C	0.005063	-0.791004	-0.738448
C81	C	0.009186	-0.693099	-0.717543
C82	C	0.003779	-0.645796	-0.741620
C83	C	0.005077	-0.521171	-0.603544
C84	C	0.009198	-0.563096	-0.652550
C85	C	0.003786	-0.514804	-0.676131
C86	C	-0.040516	-0.125574	-0.800747
C87	C	0.010719	-0.652613	-0.672809
C88	C	0.000994	-0.556406	-0.720789
C89	C	-0.004621	-0.508585	-0.744908
C90	C	-0.007444	-0.419162	-0.724369
C91	C	-0.004651	-0.377560	-0.679711
C92	C	0.000964	-0.425381	-0.655592
C93	C	-0.007471	-0.288129	-0.659174
C94	C	-0.013086	-0.240308	-0.683293
C95	C	-0.015878	-0.281910	-0.727951
C96	C	-0.013056	-0.371333	-0.748490
C97	C	-0.015848	-0.412935	-0.793148
C98	C	-0.021463	-0.365114	-0.817267
C99	C	-0.024282	-0.275694	-0.796731
C100	C	-0.021490	-0.234092	-0.752073
C101	C	-0.029897	-0.227873	-0.820850
C102	C	-0.032690	-0.269476	-0.865508
C103	C	-0.029867	-0.358899	-0.886047
C104	C	-0.024255	-0.406717	-0.861925
C105	C	-0.013028	-0.502367	-0.813685
C106	C	-0.015821	-0.543969	-0.858343
C107	C	-0.021433	-0.496140	-0.882464
C108	C	-0.012998	-0.633392	-0.878882
C109	C	-0.007383	-0.681213	-0.854763
C110	C	-0.004591	-0.639611	-0.810105
C111	C	-0.007414	-0.550188	-0.789566
C112	C	0.001024	-0.687432	-0.785986
O113	O	-0.000965	0.173549	-0.277957
O114	O	-0.040516	-0.085616	-0.325254
O115	O	0.108737	0.059592	-0.327284
O116	O	-0.150219	0.028341	-0.275927
O117	O	0.114753	0.055151	-0.263265
O118	O	-0.034500	-0.090057	-0.261234
O119	O	0.005051	0.169108	-0.213937
Cu120	Cu	-0.014175	0.039120	-0.231740
Cu121	Cu	-0.021290	0.044372	-0.307451
O122	O	-0.144202	0.023900	-0.211907
O123	O	-0.034458	-0.474571	0.046517
O124	O	0.005076	-0.570190	-0.083599
O125	O	-0.144170	-0.570237	-0.008972
O126	O	0.114787	-0.474523	-0.028110
O127	O	-0.150200	-0.442024	-0.011093
O128	O	-0.000954	-0.441976	-0.085720
O129	O	-0.040488	-0.346357	0.044396
Cu130	Cu	-0.021272	-0.382460	-0.020856
Cu131	Cu	-0.014141	-0.534087	-0.018347
O132	O	0.108757	-0.346309	-0.030231
C133	C	-0.850734	0.086244	-0.289716
C134	C	-0.450996	0.035117	-0.097351
C135	C	-0.410501	0.028587	-0.146852
C136	C	-0.459292	0.034683	-0.169840
C137	C	-0.184802	0.024283	-0.235878
C138	C	-0.282257	0.023363	-0.213592
C139	C	-0.330068	0.029423	-0.237088
C140	C	-0.584541	0.075410	-0.428242
C141	C	-0.321573	0.024104	-0.168302
C142	C	-0.418828	0.035176	-0.215083
C143	C	-0.467711	0.041476	-0.238329
C144	C	-0.427833	0.042022	-0.283580
C145	C	-0.339073	0.036269	-0.305586
C146	C	-0.290190	0.029970	-0.282340
C147	C	-0.299198	0.036812	-0.350842
C148	C	-0.348081	0.043111	-0.374088
C149	C	-0.436841	0.048864	-0.352082
C150	C	-0.476719	0.048318	-0.306830
C151	C	-0.565480	0.054071	-0.284825
C152	C	-0.614362	0.060370	-0.308071
C153	C	-0.574491	0.060913	-0.353321
C154	C	-0.485730	0.055160	-0.375326
C155	C	-0.623374	0.067212	-0.376567
C156	C	-0.712134	0.072965	-0.354561
C157	C	-0.752012	0.072419	-0.309309
C158	C	-0.703123	0.066123	-0.286065
C159	C	-0.605355	0.053528	-0.239569
C160	C	-0.694115	0.059281	-0.217564
C161	C	-0.743001	0.065577	-0.240813
C162	C	-0.733993	0.058735	-0.172312
C163	C	-0.685110	0.052436	-0.149066
C164	C	-0.596350	0.046683	-0.171072
C165	C	-0.556472	0.047229	-0.216323
C166	C	-0.547467	0.040383	-0.147826
O167	O	0.585213	0.169090	-0.504004
O168	O	0.494056	-0.090076	-0.525516
O169	O	0.488081	0.055124	-0.449918
O170	O	0.591189	0.023889	-0.579602
O171	O	0.359978	0.059584	-0.452885
O172	O	0.365953	-0.085616	-0.528483
O173	O	0.457110	0.173550	-0.506971
Cu174	Cu	0.399835	0.044374	-0.517998
Cu175	Cu	0.551332	0.039099	-0.514489
O176	O	0.463086	0.028349	-0.582569
C177	C	0.815354	-0.521094	-0.008709
C178	C	0.415547	-0.125494	-0.028771
C179	C	0.375059	-0.223405	-0.031498
C180	C	0.423859	-0.270708	-0.029121
C181	C	0.149365	-0.395355	-0.030599
C182	C	0.246820	-0.353421	-0.032381
C183	C	0.294640	-0.401713	-0.030008
C184	C	0.549171	-0.790955	-0.010537
C185	C	0.286131	-0.263897	-0.032533
C186	C	0.383402	-0.360104	-0.028335
C187	C	0.432293	-0.407926	-0.025859
C188	C	0.392422	-0.497356	-0.025055
C189	C	0.303660	-0.538965	-0.026727
C190	C	0.254769	-0.491143	-0.029204
C191	C	0.263791	-0.628403	-0.025925
C192	C	0.312683	-0.676224	-0.023448
C193	C	0.401445	-0.634615	-0.021775
C194	C	0.441316	-0.545185	-0.022579
C195	C	0.530078	-0.503576	-0.020906
C196	C	0.578969	-0.551398	-0.018429
C197	C	0.539104	-0.640825	-0.017627
C198	C	0.450342	-0.682434	-0.019300
C199	C	0.587995	-0.688646	-0.015150
C200	C	0.676757	-0.647037	-0.013477
C201	C	0.716628	-0.557607	-0.014281
C202	C	0.667731	-0.509789	-0.016757
C203	C	0.569946	-0.414138	-0.021709
C204	C	0.658708	-0.372530	-0.020036
C205	C	0.707602	-0.420359	-0.017561
C206	C	0.698579	-0.283100	-0.020840
C207	C	0.649688	-0.235278	-0.023317
C208	C	0.560926	-0.276887	-0.024990
C209	C	0.521055	-0.366317	-0.024186
C210	C	0.512035	-0.229066	-0.027467
O211	O	-0.620614	0.089309	0.052274
O212	O	-0.529507	0.043784	-0.078544
O213	O	-0.523494	0.194833	-0.006033
O214	O	-0.626628	-0.061740	-0.020236
O215	O	-0.395386	0.185419	-0.005549
O216	O	-0.401400	0.034370	-0.078059
O217	O	-0.492507	0.079895	0.052758
Cu218	Cu	-0.435256	0.056273	-0.012607
Cu219	Cu	-0.586758	0.067406	-0.013179
O220	O	-0.498521	-0.071154	-0.019752
C221	C	-0.437537	0.048335	0.402491
C222	C	-0.837226	0.099430	0.210091
C223	C	-0.739773	0.100339	0.187806
C224	C	-0.691967	0.094287	0.211308
C225	C	-0.571027	0.088563	0.071568
C226	C	-0.611521	0.095108	0.121070
C227	C	-0.562739	0.089011	0.144061
C228	C	-0.171338	0.037467	0.263967
C229	C	-0.700452	0.099593	0.142516
C230	C	-0.603213	0.088528	0.189308
C231	C	-0.554892	0.082255	0.212848
C232	C	-0.466098	0.076466	0.191141
C233	C	-0.425624	0.076949	0.145894
C234	C	-0.473945	0.083222	0.122354
C235	C	-0.336822	0.071163	0.124188
C236	C	-0.288502	0.064890	0.147728
C237	C	-0.328975	0.064407	0.192975
C238	C	-0.417770	0.070196	0.214682
C239	C	-0.458244	0.069713	0.259929
C240	C	-0.409923	0.063441	0.283469
C241	C	-0.321132	0.057655	0.261765
C242	C	-0.280658	0.058138	0.216518
C243	C	-0.272811	0.051382	0.285305
C244	C	-0.313285	0.050899	0.330552
C245	C	-0.402079	0.056688	0.352259
C246	C	-0.450397	0.062957	0.328716
C247	C	-0.547046	0.075500	0.281635
C248	C	-0.587520	0.075016	0.326882
C249	C	-0.539191	0.068747	0.350423
C250	C	-0.676314	0.080806	0.348589
C251	C	-0.724634	0.087078	0.325049
C252	C	-0.684160	0.087561	0.279802
C253	C	-0.595366	0.081772	0.258095
C254	C	-0.732481	0.093834	0.256262
O255	O	-0.040608	-1.085661	-0.825229
O256	O	-0.001018	-0.826491	-0.777938
O257	O	-0.150287	-0.971682	-0.775894
O258	O	0.108661	-0.940470	-0.827272
O259	O	-0.144253	-0.976123	-0.711878
O260	O	0.005016	-0.830932	-0.713922
O261	O	-0.034575	-1.090102	-0.761213
Cu262	Cu	-0.014228	-0.960923	-0.731722
Cu263	Cu	-0.021364	-0.955670	-0.807428
O264	O	0.114695	-0.944911	-0.763256
C265	C	0.026348	-0.135723	-0.395666
C266	C	-0.049775	-0.210057	-0.393259
H267	H	0.024160	-0.102464	-0.412269
H268	H	0.027009	-0.098361	-0.365887
H269	H	0.079502	-0.155933	-0.410481
H270	H	-0.102929	-0.189846	-0.378441
H271	H	-0.050444	-0.247425	-0.423043
C272	C	0.854359	-0.283983	-0.056265
C273	C	0.796551	-0.237177	-0.018994
H274	H	0.914840	-0.255627	-0.055123
H275	H	0.837539	-0.344326	-0.055425
H276	H	0.849911	-0.283725	-0.083526
H277	H	0.800994	-0.237440	0.008267
H278	H	0.813376	-0.176818	-0.019830
H279	H	-0.805083	0.098565	0.274011
H280	H	-0.023809	-0.160979	-0.735279
H281	H	0.182115	-0.525189	-0.530531
C282	C	0.140908	-0.763284	-0.526448
C283	C	0.165698	-0.674332	-0.527697
H284	H	0.080423	-0.791628	-0.527585
H285	H	0.180123	-0.795037	-0.551726
H286	H	0.145350	-0.763509	-0.499180
H287	H	0.161262	-0.674107	-0.554967
H288	H	0.126471	-0.642571	-0.502416
C289	C	0.267141	-0.783333	-0.482316
C290	C	0.268507	-0.774941	-0.522458
H291	H	0.239953	-0.844265	-0.481759
H292	H	0.327239	-0.765335	-0.480961
H293	H	0.233289	-0.746099	-0.457005
H294	H	0.302365	-0.812170	-0.547770
H295	H	0.208398	-0.792950	-0.523818
C296	C	0.404768	-0.789560	-0.478151
C297	C	0.406138	-0.781165	-0.518293
H298	H	0.377578	-0.850493	-0.477595
H299	H	0.464866	-0.771565	-0.476796
H300	H	0.370916	-0.752326	-0.452839
H301	H	0.439995	-0.818395	-0.543605
H302	H	0.346030	-0.799171	-0.519653
H303	H	-0.038841	-0.524079	-0.420431
H304	H	-0.020027	-0.251971	-0.124027
C305	C	0.673686	-0.713460	-0.461064
C306	C	0.722755	-0.697503	-0.503436
H307	H	0.702200	-0.744569	-0.454933
H308	H	0.671672	-0.657696	-0.438253
H309	H	0.613911	-0.748951	-0.461274
H310	H	0.782529	-0.662007	-0.503225
H311	H	0.724780	-0.753276	-0.526254
C312	C	-0.084839	-0.837927	-0.287146
C313	C	-0.010937	-0.782759	-0.311565
H314	H	-0.082935	-0.898839	-0.301344
H315	H	-0.082329	-0.820350	-0.257011
H316	H	-0.139374	-0.832015	-0.286529
H317	H	0.043598	-0.788666	-0.312179
H318	H	-0.013440	-0.800341	-0.341707
H319	H	-0.217624	0.025258	-0.300336
C320	C	0.019430	-0.204410	-0.926690
C321	C	-0.053118	-0.218999	-0.888263
H322	H	0.006815	-0.173254	-0.940739
H323	H	0.072756	-0.169439	-0.917944
H324	H	0.027909	-0.260649	-0.947451
H325	H	-0.061592	-0.162760	-0.867501
H326	H	-0.106459	-0.253970	-0.897009
C327	C	0.830246	-0.285556	-0.516878
C328	C	0.805449	-0.374509	-0.515630
H329	H	0.890726	-0.257213	-0.515733
H330	H	0.825815	-0.285325	-0.544143
H331	H	0.791021	-0.253801	-0.491598
H332	H	0.844670	-0.406267	-0.540912
H333	H	0.809888	-0.374746	-0.488361
C334	C	-0.880168	0.020502	0.326230
C335	C	-0.822638	0.093477	0.349019
H336	H	-0.940668	0.024456	0.341035
H337	H	-0.862930	0.021699	0.295796
H338	H	-0.875931	-0.034140	0.326412
H339	H	-0.826871	0.148120	0.348835
H340	H	-0.839882	0.092289	0.379461
C341	C	-0.889779	-0.007881	-0.170639
C342	C	-0.831963	0.065085	-0.148018
H343	H	-0.950258	-0.003956	-0.155637
H344	H	-0.872967	-0.006641	-0.201035
H345	H	-0.885333	-0.062530	-0.170579
H346	H	-0.836404	0.119735	-0.148081
H347	H	-0.848780	0.063854	-0.117614
C348	C	-0.239968	-0.059848	-0.163255
C349	C	-0.267056	0.019805	-0.142107
H350	H	-0.206306	-0.062495	-0.147085
H351	H	-0.291825	-0.110095	-0.163479
H352	H	-0.203389	-0.060965	-0.193543
H353	H	-0.303641	0.020919	-0.111821
H354	H	-0.215192	0.070065	-0.141878
H355	H	-0.011621	-0.389765	-0.121028
H356	H	-0.453130	0.055597	-0.412328
H357	H	0.245727	-0.224039	-0.533582
C358	C	0.062456	-0.707504	-0.954803
C359	C	-0.016069	-0.679304	-0.928176
H360	H	0.060554	-0.735852	-0.985233
H361	H	0.113849	-0.656845	-0.953909
H362	H	0.066210	-0.748955	-0.943328
H363	H	-0.019820	-0.637848	-0.939648
H364	H	-0.067476	-0.729970	-0.929072
H365	H	-0.740818	0.102779	0.123104
H366	H	-0.038719	-0.156659	-0.235851
C367	C	0.092527	-0.736416	-0.667803
C368	C	0.014260	-0.706486	-0.645915
H369	H	0.094711	-0.769671	-0.651196
H370	H	0.091725	-0.773823	-0.697558
H371	H	0.144226	-0.686049	-0.669491
H372	H	-0.037439	-0.756854	-0.644230
H373	H	0.015054	-0.669078	-0.616151
H374	H	-0.315470	0.043557	-0.411085
H375	H	0.003251	-0.391359	-0.619081
C376	C	-0.048515	-0.696546	-0.108448
C377	C	0.017712	-0.696519	-0.150432
H378	H	-0.035900	-0.724985	-0.093040
H379	H	-0.048426	-0.636290	-0.090727
H380	H	-0.106135	-0.728397	-0.113106
H381	H	0.075331	-0.664662	-0.145774
H382	H	0.017631	-0.756786	-0.168157
H383	H	-0.226632	0.032105	-0.368836
H384	H	-0.815575	0.070280	-0.222817
H385	H	0.245737	-0.223998	-0.033572
C386	C	-0.245170	0.102800	0.390098
C387	C	-0.262742	0.029720	0.352898
H388	H	-0.213973	0.089721	0.403894
H389	H	-0.209005	0.154887	0.380134
H390	H	-0.300622	0.113344	0.411498
H391	H	-0.207290	0.019180	0.331496
H392	H	-0.298908	-0.022382	0.362861
C393	C	0.557424	-0.121985	-0.568471
C394	C	0.556034	-0.130422	-0.528335
H395	H	0.584619	-0.061046	-0.569015
H396	H	0.591270	-0.159209	-0.593785
H397	H	0.497322	-0.139966	-0.569829
H398	H	0.616137	-0.112447	-0.526979
H399	H	0.522189	-0.093186	-0.503015
H400	H	0.771070	-0.249160	-0.519423
H401	H	-0.020209	-0.749804	-0.374113
C402	C	-0.082775	-0.831375	-0.890440
C403	C	-0.004271	-0.779917	-0.877430
H404	H	-0.080849	-0.892307	-0.904437
H405	H	-0.134182	-0.827973	-0.864432
H406	H	-0.086526	-0.808749	-0.911282
H407	H	-0.000524	-0.802539	-0.856586
H408	H	0.047150	-0.783323	-0.903441
H409	H	0.710969	-0.684436	-0.006165
C410	C	-0.027549	-0.762622	-0.443532
C411	C	-0.031211	-0.673579	-0.430220
H412	H	-0.029465	-0.790558	-0.473974
H413	H	0.026982	-0.763079	-0.441413
H414	H	-0.077691	-0.794619	-0.424242
H415	H	0.018935	-0.641580	-0.449508
H416	H	-0.085749	-0.673117	-0.432343
H417	H	-0.440845	0.083623	0.085362
H418	H	0.003321	-0.760550	-0.802778
H419	H	-0.215904	0.060157	0.129977
H420	H	0.682238	-0.162236	-0.523943
C421	C	-0.008070	-0.153261	-0.596899
C422	C	-0.004392	-0.242213	-0.609884
H423	H	-0.006174	-0.124914	-0.566468
H424	H	0.042066	-0.121511	-0.616295
H425	H	-0.062608	-0.153032	-0.599120
H426	H	0.050149	-0.242441	-0.607666
H427	H	-0.054533	-0.273970	-0.590482
H428	H	-0.303725	0.071562	0.087197
C429	C	-0.027363	-0.112581	-0.116961
C430	C	-0.031053	-0.138459	-0.161385
H431	H	-0.029263	-0.051668	-0.102763
H432	H	-0.077493	-0.150017	-0.100406
H433	H	0.027180	-0.118493	-0.117588
H434	H	-0.085599	-0.132553	-0.160758
H435	H	0.019082	-0.101011	-0.177945
C436	C	0.330589	-0.808255	-0.020023
C437	C	0.268677	-0.774932	-0.022562
H438	H	0.303419	-0.869192	-0.019472
H439	H	0.382548	-0.804843	-0.045709
H440	H	0.347777	-0.773337	0.006838
H441	H	0.251495	-0.809846	-0.049425
H442	H	0.216702	-0.778351	0.003126
C443	C	-0.817718	0.058232	-0.084654
C444	C	-0.729124	0.051828	-0.099119
H445	H	-0.844892	0.057849	-0.053821
H446	H	-0.816785	0.112665	-0.087517
H447	H	-0.851565	0.008513	-0.102811
H448	H	-0.695275	0.101551	-0.080964
H449	H	-0.730052	-0.002611	-0.096253
C450	C	-0.709273	0.177371	-0.387843
C451	C	-0.758320	0.093978	-0.379170
H452	H	-0.737786	0.190340	-0.403037
H453	H	-0.707285	0.222978	-0.359998
H454	H	-0.649489	0.175344	-0.406384
H455	H	-0.818103	0.096007	-0.360627
H456	H	-0.760319	0.048359	-0.407020
H457	H	-0.580066	0.039960	-0.110823
C458	C	0.782263	-0.110012	-0.022165
C459	C	0.693675	-0.136551	-0.024177
H460	H	0.809414	-0.049061	-0.022691
H461	H	0.781324	-0.115771	0.005051
H462	H	0.816135	-0.147200	-0.047497
H463	H	0.659801	-0.099368	0.001156
H464	H	0.694609	-0.130784	-0.051396
C465	C	-0.021739	-0.108282	-0.691352
C466	C	-0.016197	-0.141607	-0.660625
H467	H	-0.023667	-0.047350	-0.677356
H468	H	0.029678	-0.111682	-0.717355
H469	H	-0.074995	-0.143209	-0.700178
H470	H	0.037063	-0.106685	-0.651801
H471	H	-0.067619	-0.138201	-0.634613
C472	C	0.132029	-0.626029	-0.029818
C473	C	0.156800	-0.537069	-0.031051
H474	H	0.071544	-0.654377	-0.030953
H475	H	0.171248	-0.657767	-0.055103
H476	H	0.136482	-0.626270	-0.002555
H477	H	0.152354	-0.536827	-0.058315
H478	H	0.117570	-0.505323	-0.005764
H479	H	-0.023718	-0.530163	-0.918978
H480	H	0.191224	-0.662427	-0.027294
C481	C	0.812158	-0.374849	0.024446
C482	C	0.805590	-0.374466	-0.015733
H483	H	0.872655	-0.346533	0.025566
H484	H	0.772973	-0.343073	0.049732
H485	H	0.795312	-0.435206	0.025283
H486	H	0.822429	-0.314108	-0.016569
H487	H	0.844787	-0.406241	-0.041026
H488	H	-0.572284	0.068372	0.387422
C489	C	0.506041	-0.075549	0.008991
C490	C	0.555997	-0.130346	-0.028342
H491	H	0.533175	-0.014602	0.008453
H492	H	0.445942	-0.093594	0.007628
H493	H	0.505140	-0.081277	0.036210
H494	H	0.556893	-0.124623	-0.055562
H495	H	0.616112	-0.112295	-0.026984
H496	H	0.417746	-0.755558	-0.018645
C497	C	-0.157220	0.053512	0.147688
C498	C	-0.182647	0.051753	0.192557
H499	H	-0.096712	0.049576	0.132899
H500	H	-0.196235	0.004005	0.132226
H501	H	-0.161457	0.108158	0.147510
H502	H	-0.178417	-0.002896	0.192734
H503	H	-0.143622	0.101264	0.208022
H504	H	-0.709407	0.080425	0.385586
