data_functionalizedCrystal
_audit_creation_method	'MofGen! by Chris Wilmer'
_symmetry_space_group_name_H-M	'P1'
_symmetry_Int_Tables_number	1
_symmetry_cell_setting	triclinic
loop_
_symmetry_equiv_pos_as_xyz
  x,y,z
_cell_length_a	12.837943
_cell_length_b	9.198806
_cell_length_c	10.723024
_cell_angle_alpha	89.997736
_cell_angle_beta	90.351595
_cell_angle_gamma	90.002625
loop_
_atom_site_label
_atom_site_type_symbol
_atom_site_fract_x
_atom_site_fract_y
_atom_site_fract_z
O1	O	1.377762	0.120859	-0.324662
O2	O	1.711095	0.454193	0.008671
O3	O	2.044428	0.787526	0.342004
O4	O	1.075842	0.120868	-0.308624
O5	O	1.409175	0.454202	0.024709
O6	O	1.742509	0.787535	0.358042
O7	O	1.233766	0.120858	-0.135824
O8	O	1.567099	0.454192	0.197510
O9	O	1.900433	0.787525	0.530843
O10	O	1.219838	0.120870	-0.497463
O11	O	1.553171	0.454203	-0.164130
O12	O	1.886504	0.787536	0.169204
O13	O	1.233754	-0.120927	-0.135821
O14	O	1.567088	0.212407	0.197513
O15	O	1.900421	0.545740	0.530846
O16	O	1.075830	-0.120917	-0.308622
O17	O	1.409164	0.212417	0.024712
O18	O	1.742497	0.545750	0.358045
O19	O	1.377750	-0.120926	-0.324659
O20	O	1.711083	0.212408	0.008674
O21	O	2.044416	0.545741	0.342007
Cu22	Cu	1.226789	-0.142998	-0.316640
Cu23	Cu	1.560122	0.190335	0.016693
Cu24	Cu	1.893456	0.523669	0.350026
Cu25	Cu	1.226803	0.142941	-0.316644
Cu26	Cu	1.560136	0.476274	0.016690
Cu27	Cu	1.893470	0.809607	0.350023
O28	O	1.219826	-0.120916	-0.497460
O29	O	1.553159	0.212418	-0.164127
O30	O	1.886492	0.545751	0.169206
C31	C	1.037177	-0.000023	-0.303205
C32	C	1.370510	0.333310	0.030128
C33	C	1.703844	0.666644	0.363462
C34	C	0.921985	-0.000020	-0.287047
C35	C	1.255318	0.333314	0.046287
C36	C	1.588652	0.666647	0.379620
N37	N	1.226787	-0.344112	-0.316638
N38	N	1.560120	-0.010779	0.016695
N39	N	1.893453	0.322555	0.350029
C40	C	1.232747	-0.000032	-0.089212
C41	C	1.566080	0.333301	0.244121
C42	C	1.899413	0.666634	0.577454
C43	C	1.229714	-0.000027	0.049671
C44	C	1.563047	0.333306	0.383005
C45	C	1.896381	0.666639	0.716338
C46	C	0.682408	-0.000034	-0.481303
C47	C	1.015741	0.333299	-0.147969
C48	C	1.349075	0.666632	0.185364
C49	C	0.574174	-0.000032	-0.466126
C50	C	0.907508	0.333301	-0.132793
C51	C	1.240841	0.666634	0.200541
C52	C	0.597282	-0.000024	-0.241518
C53	C	0.930615	0.333310	0.091816
C54	C	1.263948	0.666643	0.425149
C55	C	0.705515	-0.000026	-0.256694
C56	C	1.038849	0.333307	0.076639
C57	C	1.372182	0.666641	0.409972
C58	C	0.748074	-0.000029	-0.376591
C59	C	1.081408	0.333304	-0.043257
C60	C	1.414741	0.666638	0.290076
C61	C	0.856310	-0.000021	-0.391766
C62	C	1.189644	0.333313	-0.058433
C63	C	1.522977	0.666646	0.274901
C64	C	0.879415	-0.000023	-0.167159
C65	C	1.212749	0.333311	0.166174
C66	C	1.546082	0.666644	0.499508
C67	C	0.771182	-0.000020	-0.151982
C68	C	1.104515	0.333313	0.181351
C69	C	1.437848	0.666646	0.514684
C70	C	1.416415	-0.000031	-0.330079
C71	C	1.749748	0.333302	0.003255
C72	C	2.083081	0.666636	0.336588
C73	C	1.531607	-0.000025	-0.346237
C74	C	1.864940	0.333308	-0.012904
C75	C	2.198273	0.666642	0.320429
C76	C	1.293258	-0.583717	-0.243929
C77	C	1.626592	-0.250384	0.089405
C78	C	1.959925	0.082950	0.422738
C79	C	1.293245	-0.416305	-0.243929
C80	C	1.626578	-0.082971	0.089405
C81	C	1.959911	0.250362	0.422738
N82	N	1.226813	0.344055	-0.316637
N83	N	1.560147	0.677388	0.016696
N84	N	1.893480	1.010721	0.350030
C85	C	1.220845	-0.000022	-0.544071
C86	C	1.554179	0.333312	-0.210738
C87	C	1.887512	0.666645	0.122595
C88	C	1.223878	-0.000017	-0.682955
C89	C	1.557211	0.333316	-0.349622
C90	C	1.890545	0.666649	-0.016288
C91	C	1.318080	-0.000028	0.115056
C92	C	1.651413	0.333306	0.448390
C93	C	1.984747	0.666639	0.781723
C94	C	1.314948	-0.000022	0.258600
C95	C	1.648281	0.333311	0.591933
C96	C	1.981614	0.666644	0.925267
H97	H	0.890959	-0.000026	-0.489392
H98	H	1.224293	0.333308	-0.156058
H99	H	1.557626	0.666641	0.177275
Cl100	Cl	1.107072	-0.000028	0.230266
Cl101	Cl	1.440405	0.333305	0.563599
Cl102	Cl	1.773739	0.666639	0.896933
H103	H	1.396052	-0.000039	0.064766
H104	H	1.729385	0.333294	0.398099
H105	H	2.062719	0.666628	0.731432
H106	H	1.169894	-0.406216	-0.378885
H107	H	1.503227	-0.072882	-0.045552
H108	H	1.836560	0.260451	0.287782
H109	H	1.151742	-0.000015	0.099962
H110	H	1.485075	0.333318	0.433295
H111	H	1.818408	0.666651	0.766629
H112	H	1.350127	-0.354192	-0.181675
H113	H	1.683461	-0.020858	0.151658
H114	H	2.016794	0.312475	0.484992
H115	H	1.390596	-0.000029	0.314817
H116	H	1.723929	0.333304	0.648150
H117	H	2.057262	0.666637	0.981483
H118	H	0.717060	-0.000035	-0.578927
H119	H	1.050393	0.333299	-0.245593
H120	H	1.383727	0.666632	0.087740
H121	H	0.520712	-0.000041	-0.551394
H122	H	0.854045	0.333293	-0.218061
H123	H	1.187378	0.666626	0.115273
H124	H	0.562611	-0.000141	-0.143903
H125	H	0.895944	0.333192	0.189430
H126	H	1.229277	0.666526	0.522763
H127	H	0.736515	-0.000035	-0.054366
H128	H	1.069848	0.333299	0.278968
H129	H	1.403182	0.666632	0.612301
H130	H	0.932893	-0.000008	-0.081895
H131	H	1.266227	0.333325	0.251439
H132	H	1.599560	0.666658	0.584772
Cl133	Cl	1.381113	-0.679583	-0.147823
Cl134	Cl	1.714446	-0.346250	0.185511
Cl135	Cl	2.047779	-0.012916	0.518844
H136	H	1.169921	-0.593844	-0.378890
H137	H	1.503254	-0.260510	-0.045557
H138	H	1.836587	0.072823	0.287776
