data_functionalizedCrystal
_audit_creation_method	'MofGen! by Chris Wilmer'
_symmetry_space_group_name_H-M	'P1'
_symmetry_Int_Tables_number	1
_symmetry_cell_setting	triclinic
loop_
_symmetry_equiv_pos_as_xyz
  x,y,z
_cell_length_a	26.809956
_cell_length_b	15.995350
_cell_length_c	15.995350
_cell_angle_alpha	83.492375
_cell_angle_beta	90.006575
_cell_angle_gamma	89.994818
loop_
_atom_site_label
_atom_site_type_symbol
_atom_site_fract_x
_atom_site_fract_y
_atom_site_fract_z
O1	O	0.041435	-1.110992	-0.107915
O2	O	0.041445	-0.867217	-0.121242
O3	O	0.041439	-0.995768	0.007309
O4	O	0.041441	-0.982441	-0.236466
O5	O	-0.041520	-0.995744	0.007289
O6	O	-0.041514	-0.867193	-0.121262
O7	O	-0.041524	-1.110968	-0.107934
Zn8	Zn	-0.054691	-0.989076	-0.114601
Zn9	Zn	0.054611	-0.989108	-0.114575
O10	O	-0.041519	-0.982416	-0.236486
C11	C	-0.000034	-0.836010	-0.120701
C12	C	-0.000030	-0.743060	-0.119049
N13	N	-0.129287	-0.989061	-0.114618
C14	C	-0.000040	-0.995205	0.038494
C15	C	-0.000037	-0.993553	0.131444
C16	C	-0.473916	-1.046024	-0.057667
C17	C	-0.682793	-1.046043	-0.057654
O18	O	-0.709799	-1.094441	-0.009237
N19	N	-0.708914	-0.989113	-0.114557
C20	C	-0.682812	-0.932170	-0.171463
O21	O	-0.709822	-0.883741	-0.219857
C22	C	-0.473936	-0.932146	-0.171471
C23	C	-0.447817	-0.989086	-0.114571
C24	C	-0.447797	-1.102958	-0.000770
C25	C	-0.395581	-1.102956	-0.000777
C26	C	-0.369483	-1.046019	-0.057681
C27	C	-0.395601	-0.989084	-0.114577
C28	C	-0.447835	-0.875200	-0.228373
C29	C	-0.395612	-0.875198	-0.228369
C30	C	-0.369494	-0.932138	-0.171468
C31	C	-0.317287	-0.932144	-0.171488
N32	N	-0.291166	-0.989075	-0.114585
C33	C	-0.317264	-1.046012	-0.057681
C34	C	-0.792476	-0.932187	-0.171456
C35	C	-0.844695	-0.932194	-0.171455
C36	C	-0.844672	-1.046067	-0.057645
C37	C	-0.792452	-1.046063	-0.057650
C38	C	-0.766355	-0.989117	-0.114553
C39	C	-0.207606	-1.046003	-0.057701
C40	C	-0.155385	-1.045998	-0.057715
C41	C	-0.155412	-0.932122	-0.171522
C42	C	-0.207629	-0.932130	-0.171511
C43	C	-0.233724	-0.989074	-0.114593
O44	O	-0.290249	-0.883765	-0.219873
O45	O	-0.290245	-1.094421	-0.009283
C46	C	-0.526132	-1.046026	-0.057660
C47	C	-0.552250	-0.989091	-0.114557
C48	C	-0.526152	-0.932154	-0.171461
C49	C	-0.604469	-0.989098	-0.114556
C50	C	-0.630567	-1.046035	-0.057652
C51	C	-0.604446	-1.102966	-0.000750
C52	C	-0.552230	-1.102963	-0.000757
C53	C	-0.552273	-0.875224	-0.228363
C54	C	-0.604489	-0.875231	-0.228353
C55	C	-0.630587	-0.932169	-0.171449
N56	N	0.129207	-0.989131	-0.114552
C57	C	-0.000045	-1.142175	-0.108476
C58	C	-0.000046	-1.235125	-0.110127
C59	C	-0.000040	-0.405312	-0.113117
C60	C	-0.000226	-0.452746	-0.021565
C61	C	-0.000035	-0.549436	-0.023217
C62	C	-0.000035	-0.572873	-0.116060
C63	C	0.047337	-0.531799	-0.161205
C64	C	0.047373	-0.435164	-0.158905
C65	C	-0.046967	-0.434797	-0.160819
C66	C	-0.047590	-0.531742	-0.160797
C67	C	-0.000031	-0.667570	-0.117727
C68	C	-0.000041	-0.310614	-0.111452
C69	C	-0.000039	-0.982980	-0.267671
C70	C	-0.000039	-0.984631	-0.360621
C71	C	-0.000038	-0.987621	0.469192
C72	C	0.000152	-0.896069	0.421758
C73	C	-0.000035	-0.897721	0.325068
C74	C	-0.000037	-0.990564	0.301631
C75	C	-0.047412	-1.035706	0.342698
C76	C	-0.047451	-1.033407	0.439333
C77	C	0.046889	-1.035325	0.439714
C78	C	0.047515	-1.035304	0.342769
C79	C	-0.000038	-0.992231	0.206934
C80	C	-0.000040	-0.985956	0.563890
H81	H	-0.134121	-1.092368	-0.011379
H82	H	-0.047287	-0.403036	-0.228320
N83	N	-0.049623	-1.121267	0.324958
N84	N	-0.051712	-1.137672	0.250470
H85	H	-0.053272	-1.198099	0.237938
H86	H	-0.228847	-1.092371	-0.011352
H87	H	-0.082665	-1.004333	0.314308
H88	H	-0.469042	-1.149323	0.045571
H89	H	0.033982	-0.577304	0.012526
N90	N	0.049558	-0.549505	-0.246775
N91	N	0.049401	-0.490505	-0.305139
H92	H	0.050970	-0.503009	-0.365574
H93	H	0.082561	-1.002299	0.315528
H94	H	-0.082874	-0.414251	-0.130897
N95	N	-0.042636	-0.585091	0.021299
N96	N	-0.085541	-0.563213	-0.002711
H97	H	-0.115628	-0.588390	0.028734
N98	N	0.042559	-0.853197	0.289401
N99	N	0.049706	-0.846798	0.211716
H100	H	0.079789	-0.815348	0.186528
H101	H	0.033559	-0.433162	0.014870
H102	H	-0.374319	-1.149319	0.045559
H103	H	0.082785	-0.416866	-0.125967
H104	H	0.034125	-0.859487	0.440298
H105	H	-0.050451	-0.547107	-0.228501
H106	H	-0.033630	-0.859629	0.441344
H107	H	-0.082864	-1.000468	0.457626
H108	H	-0.049602	-1.100622	0.471581
N109	N	-0.631117	-1.161111	0.057383
N110	N	-0.660251	-1.134533	0.109368
H111	H	-0.679089	-1.175591	0.150427
H112	H	-0.034051	-0.861977	0.297195
N113	N	0.091931	-0.997789	0.465503
N114	N	0.089991	-0.935415	0.505928
H115	H	0.121800	-0.908897	0.524145
H116	H	-0.034198	-0.434214	0.015022
H117	H	0.050374	-1.103009	0.327407
N118	N	0.050090	-0.394707	-0.243222
N119	N	0.085860	-0.347089	-0.265145
H120	H	0.087784	-0.318521	-0.324693
H121	H	-0.082635	-0.559049	-0.127842
N122	N	-0.234305	-0.873959	-0.229629
N123	N	-0.228472	-0.796573	-0.228427
H124	H	-0.247310	-0.755481	-0.269467
N125	N	0.091562	-0.567435	-0.121866
N126	N	0.088314	-0.623068	-0.060590
H127	H	0.119547	-0.648245	-0.032809
H128	H	-0.771190	-1.092428	-0.011317
N129	N	0.047286	-1.120012	0.479536
N130	N	0.011829	-1.168267	0.468394
H131	H	0.012107	-1.228076	0.496517
N132	N	-0.871343	-1.104209	0.000489
N133	N	-0.917967	-1.104188	0.000485
H134	H	-0.936807	-1.145240	0.041548
N135	N	-0.871362	-0.874025	-0.229585
N136	N	-0.865531	-0.796638	-0.228388
H137	H	-0.884363	-0.755550	-0.269441
N138	N	-0.765831	-0.874018	-0.229603
N139	N	-0.771678	-0.875169	-0.306994
H140	H	-0.752863	-0.834089	-0.348065
N141	N	-0.474497	-0.817036	-0.286508
N142	N	-0.451179	-0.766208	-0.337304
H143	H	-0.470008	-0.725126	-0.378367
H144	H	-0.531028	-0.828857	-0.274700
N145	N	-0.368963	-0.817030	-0.286510
N146	N	-0.374808	-0.818172	-0.363903
H147	H	-0.355988	-0.777092	-0.404968
N148	N	-0.128740	-0.873974	-0.229643
N149	N	-0.082117	-0.873985	-0.229631
H150	H	-0.063278	-0.832914	-0.270676
H151	H	-0.530968	-1.149329	0.045578
H152	H	-0.625751	-0.828866	-0.274695
