data_functionalizedCrystal
_audit_creation_method	'MofGen! by Chris Wilmer'
_symmetry_space_group_name_H-M	'P1'
_symmetry_Int_Tables_number	1
_symmetry_cell_setting	triclinic
loop_
_symmetry_equiv_pos_as_xyz
  x,y,z
_cell_length_a	14.971482
_cell_length_b	8.597304
_cell_length_c	13.448316
_cell_angle_alpha	82.293562
_cell_angle_beta	89.993798
_cell_angle_gamma	84.477641
loop_
_atom_site_label
_atom_site_type_symbol
_atom_site_fract_x
_atom_site_fract_y
_atom_site_fract_z
O1	O	1.188614	0.204505	-0.100196
O2	O	0.928413	0.229004	-0.102299
O3	O	1.063633	-0.011704	-0.081672
O4	O	1.053394	0.445214	-0.120823
O5	O	1.063616	-0.011719	0.083713
O6	O	0.928396	0.228990	0.063086
O7	O	1.188597	0.204490	0.065189
Cu8	Cu	1.058495	0.216739	0.079239
Cu9	Cu	1.058515	0.216756	-0.116348
O10	O	1.053377	0.445199	0.044562
C11	C	0.895071	0.227903	-0.019513
C12	C	0.795747	0.224622	-0.019234
C13	C	0.749080	0.223069	0.071051
C14	C	0.655756	0.219962	0.071318
C15	C	0.609100	0.218419	-0.018701
C16	C	0.655774	0.219968	-0.108993
C17	C	0.749097	0.223064	-0.109258
C18	C	0.461259	0.213519	-0.108434
C19	C	0.367930	0.210426	-0.108169
C20	C	0.367919	0.210417	0.072142
C21	C	0.461242	0.213513	0.071877
C22	C	0.507909	0.215064	-0.018415
C23	C	1.062524	-0.070185	0.006028
C24	C	1.059235	-0.244419	0.020951
C25	C	1.221939	0.205592	-0.017599
C26	C	1.321263	0.208873	-0.017884
C27	C	1.054486	0.503680	-0.043140
C28	C	1.057775	0.677914	-0.058069
N29	N	1.058487	0.216725	0.216804
N30	N	1.058530	0.216757	-0.253913
C31	C	1.118382	0.110184	0.277974
C32	C	1.118387	0.110182	0.382078
C33	C	1.058502	0.216732	0.425008
C34	C	0.998601	0.323278	0.363830
C35	C	0.998591	0.323271	0.259730
C36	C	0.998625	0.323289	0.580809
C37	C	0.998636	0.323299	0.684917
C38	C	1.118421	0.110200	0.703157
C39	C	1.118412	0.110193	0.599057
C40	C	1.058512	0.216742	0.537886
H41	H	0.329945	0.209171	-0.181471
H42	H	0.499253	0.214782	-0.181959
Cl43	Cl	1.193724	-0.023742	0.780061
H44	H	1.059039	-0.255285	-0.137145
H45	H	1.057958	-0.311225	0.100031
H46	H	0.617766	0.218671	0.144839
H47	H	0.949870	0.410061	0.719865
Cl48	Cl	1.193675	-0.023766	0.224016
Cl49	Cl	1.193684	-0.023760	0.458979
H50	H	0.787091	0.224331	-0.182778
H51	H	0.617780	0.218700	-0.182287
H52	H	1.167179	0.023440	0.564103
Cl53	Cl	0.923318	0.457237	0.503913
H54	H	0.949836	0.410028	0.398791
H55	H	0.329919	0.209154	0.145661
Cl56	Cl	0.807724	0.225019	0.184224
Cl57	Cl	0.519893	0.215470	0.185045
Cl58	Cl	0.923288	0.457210	0.182831
