data_functionalizedCrystal
_audit_creation_method	'MofGen! by Chris Wilmer'
_symmetry_space_group_name_H-M	'P1'
_symmetry_Int_Tables_number	1
_symmetry_cell_setting	triclinic
loop_
_symmetry_equiv_pos_as_xyz
  x,y,z
_cell_length_a	19.288864
_cell_length_b	19.188930
_cell_length_c	17.766277
_cell_angle_alpha	89.988508
_cell_angle_beta	89.976791
_cell_angle_gamma	83.140512
loop_
_atom_site_label
_atom_site_type_symbol
_atom_site_fract_x
_atom_site_fract_y
_atom_site_fract_z
O1	O	0.921360	0.087099	-0.062844
O2	O	0.719100	0.098849	-0.062794
O3	O	0.826066	-0.008682	-0.062806
O4	O	0.814393	0.194630	-0.062832
O5	O	0.826048	-0.008688	0.062383
O6	O	0.719081	0.098843	0.062395
O7	O	0.921341	0.087094	0.062345
Cu8	Cu	0.820209	0.092968	0.073800
Cu9	Cu	0.820231	0.092974	-0.074250
O10	O	0.814374	0.194625	0.062356
C11	C	0.693214	0.098468	-0.000193
C12	C	0.616110	0.097333	-0.000173
C13	C	0.825679	-0.034696	-0.000209
C14	C	0.824544	-0.112200	-0.000202
C15	C	0.571419	0.160427	-0.000193
C16	C	0.498972	0.159361	-0.000201
C17	C	0.471219	0.095197	-0.000204
C18	C	0.515921	0.032095	-0.000180
C19	C	0.588366	0.033163	-0.000164
C20	C	0.362960	0.044759	-0.044082
C21	C	0.290515	0.043694	-0.044103
C22	C	0.247773	0.091900	-0.000249
C23	C	0.277483	0.141184	0.043614
C24	C	0.349929	0.142252	0.043630
C25	C	0.392665	0.094032	-0.000221
C26	C	0.124526	0.153843	-0.000277
C27	C	0.052078	0.152774	-0.000281
C28	C	0.069028	0.025506	-0.000267
C29	C	0.141475	0.026576	-0.000256
C30	C	0.169219	0.090747	-0.000265
C31	C	0.887309	-0.157129	-0.000214
C32	C	0.886243	-0.229953	-0.000226
C33	C	0.822408	-0.257844	-0.000211
C34	C	0.759636	-0.212906	-0.000203
C35	C	0.760704	-0.140084	-0.000199
N36	N	0.773608	-0.365848	0.042405
N37	N	0.772598	-0.435026	0.042403
C38	C	0.819187	-0.477253	-0.000225
N39	N	0.866835	-0.447689	-0.042841
N40	N	0.867847	-0.378504	-0.042836
C41	C	0.821243	-0.336807	-0.000216
C42	C	0.880800	-0.601146	-0.000251
C43	C	0.879731	-0.673971	-0.000268
C44	C	0.753122	-0.656922	-0.000237
C45	C	0.754193	-0.584099	-0.000228
C46	C	0.818034	-0.556216	-0.000231
C47	C	0.947227	0.087475	-0.000258
C48	C	1.024330	0.088609	-0.000283
C49	C	0.814762	0.220638	-0.000242
C50	C	0.815896	0.298143	-0.000253
N51	N	0.820199	0.092963	0.177931
N52	N	0.820247	0.092974	-0.178380
C53	C	0.867579	0.045372	0.217312
C54	C	0.867583	0.045368	0.296114
C55	C	0.820213	0.092969	0.335531
C56	C	0.772824	0.140564	0.296140
C57	C	0.772817	0.140561	0.217340
C58	C	0.810919	0.156585	0.460362
C59	C	0.810931	0.156589	0.539161
C60	C	0.820232	0.092977	0.578578
C61	C	0.829535	0.029359	0.539185
C62	C	0.829528	0.029356	0.460385
C63	C	0.820216	0.092977	0.420977
C64	C	0.867619	0.045378	0.703405
C65	C	0.867618	0.045374	0.782208
C66	C	0.772863	0.140575	0.782233
C67	C	0.772861	0.140573	0.703431
C68	C	0.820242	0.092976	0.664022
H69	H	0.462577	0.210742	-0.000215
N70	N	0.694423	-0.241380	-0.000190
N71	N	0.652165	-0.227528	-0.052950
H72	H	0.606105	-0.247635	-0.052944
N73	N	0.724437	0.189195	0.336388
N74	N	0.682135	0.231687	0.301212
H75	H	0.647957	0.266032	0.329636
H76	H	0.701147	-0.679631	-0.000228
H77	H	0.709591	-0.103502	-0.000189
N78	N	0.946014	-0.572669	-0.000253
N79	N	1.002052	-0.612797	-0.000268
H80	H	1.048110	-0.592688	-0.000268
N81	N	0.690073	-0.538211	-0.000213
N82	N	0.633082	-0.563120	-0.000202
H83	H	0.587793	-0.530712	-0.000194
H84	H	0.046433	-0.026738	-0.000317
H85	H	0.906198	0.006619	0.671317
H86	H	0.177864	-0.024802	-0.000244
N87	N	0.916018	-0.003253	0.822427
N88	N	0.958314	-0.045745	0.787227
H89	H	0.992497	-0.080090	0.815631
N90	N	0.950351	-0.275867	-0.000225
N91	N	0.949386	-0.340884	-0.000224
H92	H	0.994662	-0.373311	-0.000222
H93	H	0.906158	0.006613	0.185228
N94	N	0.915985	-0.003254	0.336341
N95	N	0.958282	-0.045749	0.301145
H96	H	0.992467	-0.080089	0.329553
N97	N	0.943854	-0.719857	-0.000290
N98	N	1.000845	-0.694948	-0.000296
H99	H	1.046134	-0.727355	-0.000313
H100	H	0.397756	0.005502	-0.079797
H101	H	0.939293	-0.134431	-0.000220
N102	N	0.839007	-0.035624	0.420147
N103	N	0.792648	-0.051175	0.376209
H104	H	0.799338	-0.097068	0.347790
N105	N	0.260181	-0.006644	-0.088919
N106	N	0.298349	-0.049687	-0.128064
H107	H	0.276928	-0.085239	-0.159718
N108	N	0.839025	-0.035620	0.579449
N109	N	0.839018	-0.035611	0.649805
H110	H	0.845717	-0.081500	0.678245
N111	N	0.724411	0.189180	0.177120
N112	N	0.682114	0.231673	0.212318
H113	H	0.647926	0.266012	0.183913
H114	H	0.734291	0.179330	0.814326
H115	H	0.734282	0.179330	0.671365
H116	H	0.803361	0.208391	0.571228
N117	N	0.801426	0.221575	0.420116
N118	N	0.793136	0.278369	0.455292
H119	H	0.786435	0.324268	0.426870
H120	H	0.594003	0.212680	-0.000201
H121	H	0.374116	0.182379	0.079348
H122	H	0.147116	0.206094	-0.000273
N123	N	0.233821	0.190443	0.088387
N124	N	0.169138	0.189492	0.088360
H125	H	0.138297	0.224286	0.119971
H126	H	0.493320	-0.020148	-0.000193
N127	N	0.634012	-0.031296	-0.000140
N128	N	0.609229	-0.088583	-0.000136
H129	H	0.641466	-0.134109	-0.000119
N130	N	0.006427	0.217229	-0.000282
N131	N	0.008822	0.259952	0.052485
H132	H	-0.023418	0.305476	0.052487
