data_functionalizedCrystal
_audit_creation_method	'MofGen! by Chris Wilmer'
_symmetry_space_group_name_H-M	'P1'
_symmetry_Int_Tables_number	1
_symmetry_cell_setting	triclinic
loop_
_symmetry_equiv_pos_as_xyz
  x,y,z
_cell_length_a	14.560438
_cell_length_b	20.875492
_cell_length_c	20.875625
_cell_angle_alpha	60.168684
_cell_angle_beta	92.972716
_cell_angle_gamma	58.317775
loop_
_atom_site_label
_atom_site_type_symbol
_atom_site_fract_x
_atom_site_fract_y
_atom_site_fract_z
Zr1	Zr	0.820586	0.740629	-0.122733
O2	O	0.655283	0.881796	-0.232512
O3	O	0.878917	0.599465	-0.083982
O4	O	0.857928	0.740630	-0.225155
O5	O	0.684118	0.740628	0.014222
O6	O	1.009070	0.740628	-0.225152
O7	O	0.676271	0.740630	-0.091338
O8	O	1.046614	0.488110	0.027382
O9	O	0.646573	0.993147	-0.238312
O10	O	1.007339	0.657525	-0.073612
O11	O	0.900400	0.657525	0.005165
O12	O	0.875689	0.823729	-0.161049
O13	O	0.768750	0.823729	-0.082273
Zr14	Zr	1.074154	0.740622	0.045630
Zr15	Zr	1.061639	0.740626	-0.122727
Zr16	Zr	0.833101	0.740626	0.045624
Zr17	Zr	0.806696	0.918222	-0.131983
Zr18	Zr	1.088044	0.563030	0.054880
O19	O	1.015823	0.881786	0.006878
O20	O	0.998029	0.881791	-0.232504
O21	O	0.673077	0.881791	0.006870
O22	O	1.239457	0.599456	0.155409
O23	O	1.221663	0.599461	-0.083973
O24	O	0.896711	0.599461	0.155401
O25	O	1.210622	0.740623	-0.091326
O26	O	1.036812	0.740621	0.148052
O27	O	0.885670	0.740623	0.148048
O28	O	1.218469	0.740621	0.014235
O29	O	0.838178	0.993144	-0.238307
O30	O	1.056562	0.488107	0.161204
O31	O	1.248167	0.488104	0.161208
O32	O	1.238219	0.488107	0.027387
O33	O	0.656521	0.993144	-0.104490
O34	O	0.848126	0.993142	-0.104486
O35	O	1.019051	0.657522	0.083946
O36	O	1.125990	0.657522	0.005170
O37	O	0.994340	0.823726	-0.082268
O38	O	0.887401	0.823726	-0.003492
C39	C	0.964744	0.518484	-0.026982
C40	C	0.970641	0.443092	-0.023055
C41	C	0.881019	0.469040	-0.082575
C42	C	0.886560	0.398214	-0.078914
C43	C	0.981719	0.301440	-0.015728
C44	C	1.071349	0.275491	0.043795
C45	C	1.065812	0.346317	0.040130
C46	C	1.008192	0.083037	0.001809
C47	C	1.013721	0.012211	0.005472
C48	C	0.828932	0.134939	-0.117238
C49	C	0.823399	0.205760	-0.120895
C50	C	0.913032	0.179806	-0.061374
N51	N	0.987383	0.229043	-0.011983
N52	N	0.907372	0.252203	-0.065124
C53	C	0.645849	0.740630	-0.038559
C54	C	0.543516	0.740631	-0.038561
C55	C	0.491110	0.740634	-0.096714
C56	C	0.394966	0.740625	-0.096703
C57	C	0.403640	0.740614	0.019617
C58	C	0.499787	0.740617	0.019609
C59	C	0.534838	0.740649	-0.154884
C60	C	0.482431	0.740652	-0.213043
C61	C	0.386287	0.740643	-0.213032
C62	C	0.342550	0.740631	-0.154862
C63	C	1.248891	0.740621	-0.038545
C64	C	1.351224	0.740620	-0.038542
C65	C	0.931716	0.740630	-0.249141
C66	C	0.926403	0.740631	-0.320613
C67	C	0.929996	0.962767	-0.050122
C68	C	0.924099	1.038160	-0.054048
C69	C	1.007171	0.740632	-0.354189
C70	C	1.002183	0.740625	-0.421340
C71	C	0.916420	0.740624	-0.454918
C72	C	0.835648	0.740621	-0.421336
C73	C	0.840643	0.740621	-0.354182
C74	C	0.892559	0.740617	-0.655755
C75	C	0.887569	0.740620	-0.722915
C76	C	1.054106	0.740622	-0.722913
C77	C	1.059088	0.740628	-0.655762
C78	C	0.978320	0.740619	-0.622183
N79	N	0.911317	0.740620	-0.523558
N80	N	0.983430	0.740617	-0.553540
C81	C	0.963024	0.740621	0.172038
C82	C	0.968337	0.740620	0.243510
C83	C	1.266265	0.518480	-0.026975
C84	C	1.374495	0.443086	-0.023045
C85	C	0.980398	0.518480	0.183608
C86	C	0.991608	0.443086	0.259006
C87	C	1.281919	0.518476	0.183615
C88	C	1.395462	0.443080	0.259016
C89	C	0.612821	0.962775	-0.260718
C90	C	0.499278	1.038171	-0.336119
C91	C	0.628475	0.962771	-0.050129
C92	C	0.520245	1.038165	-0.054058
C93	C	0.914342	0.962771	-0.260711
C94	C	0.903132	1.038165	-0.336110
C95	C	1.363386	0.407682	-0.062330
C96	C	1.465068	0.336851	-0.058655
C97	C	1.577859	0.301420	-0.015689
C98	C	1.588966	0.336832	0.023597
C99	C	1.487284	0.407666	0.019916
C100	C	1.058807	0.407678	0.335545
C101	C	1.069335	0.336848	0.406396
C102	C	1.012670	0.301421	0.400707
C103	C	0.945462	0.336835	0.324160
C104	C	0.934928	0.407670	0.253311
C105	C	1.504614	0.407674	0.253305
C106	C	1.611308	0.336842	0.324145
C107	C	1.608847	0.301412	0.400696
C108	C	1.499683	0.336826	0.406405
C109	C	1.392991	0.407662	0.335566
C110	C	0.390125	1.073586	-0.330408
C111	C	0.283430	1.144440	-0.401250
C112	C	0.285891	1.179873	-0.477801
C113	C	0.395055	1.144455	-0.483510
C114	C	0.501747	1.073607	-0.412670
C115	C	0.531353	1.073577	-0.014780
C116	C	0.429668	1.144428	-0.018476
C117	C	0.316876	1.179860	-0.061444
C118	C	0.305770	1.144446	-0.100726
C119	C	0.407454	1.073601	-0.097036
C120	C	0.959812	1.073570	-0.330395
C121	C	0.949303	1.144401	-0.401233
C122	C	0.882106	1.179832	-0.477786
C123	C	0.825424	1.144420	-0.483499
C124	C	0.835941	1.073585	-0.412661
H125	H	0.803520	0.547836	-0.134019
N126	N	1.089288	0.740649	-0.457556
H127	H	1.137686	0.681653	-0.454381
H128	H	1.144276	0.740698	-0.426070
N129	N	0.884359	0.298614	0.318029
H130	H	0.826084	0.310936	0.343419
H131	H	0.945951	0.227514	0.347762
H132	H	0.770712	1.173279	-0.545837
H133	H	1.271553	0.436528	-0.097328
N134	N	0.789897	0.426191	-0.143101
H135	H	0.826034	0.399555	-0.172283
H136	H	0.728796	0.498246	-0.183631
H137	H	0.873552	1.237510	-0.535460
N138	N	1.723936	0.224998	0.477093
H139	H	1.730989	0.166211	0.512474
H140	H	1.724411	0.249716	0.508077
N141	N	1.687526	0.225022	-0.011724
H142	H	1.663362	0.207973	-0.043132
H143	H	1.742501	0.166283	0.047050
N144	N	0.207203	1.256266	-0.065420
H145	H	0.200831	1.315044	-0.091881
H146	H	0.213311	1.231520	-0.008416
H147	H	0.789779	1.044767	-0.417326
H148	H	1.021257	0.243743	0.458404
H149	H	1.496346	0.436483	0.051912
N150	N	0.753526	0.740627	-0.317966
H151	H	0.798624	0.681625	-0.259065
H152	H	0.698455	0.740664	-0.349485
N153	N	0.170810	1.256287	-0.554205
H154	H	0.101294	1.273339	-0.538963
H155	H	0.170388	1.231584	-0.585212
N156	N	0.720804	0.310137	-0.189074
H157	H	0.664882	0.315829	-0.226236
H158	H	0.752507	0.342156	-0.221210
H159	H	1.014530	1.044733	-0.268068
N160	N	1.453071	0.298656	-0.101017
H161	H	1.534594	0.248408	-0.092174
H162	H	1.402028	0.352764	-0.161342
N163	N	0.387442	1.035382	-0.247852
H164	H	0.341215	1.089431	-0.244378
H165	H	0.471621	0.985109	-0.203879
H166	H	0.194555	1.173266	-0.396586
N167	N	1.119919	0.445887	0.341695
H168	H	1.103059	0.496135	0.285203
H169	H	1.208697	0.391785	0.374217
H170	H	0.880212	0.436489	0.190993
N171	N	0.441675	1.182616	0.023891
H172	H	0.396065	1.253722	-0.017533
H173	H	0.528589	1.149339	0.051669
N174	N	1.507286	0.445870	0.170745
H175	H	1.592631	0.412684	0.177889
H176	H	1.462186	0.516983	0.137381
N177	N	0.732264	0.162930	-0.181434
H178	H	0.750207	0.103381	-0.169528
H179	H	0.728916	0.202115	-0.236832
N180	N	0.652999	1.035377	0.031556
H181	H	0.704162	0.964267	0.076648
H182	H	0.644488	1.068641	0.055816
N183	N	0.397700	1.182676	-0.566078
H184	H	0.313543	1.232927	-0.610082
H185	H	0.443973	1.128579	-0.569487
H186	H	1.128923	0.740628	-0.628424
N187	N	1.141216	0.740630	-0.759129
H188	H	1.125043	0.740629	-0.806765
H189	H	1.225186	0.681628	-0.716349
H190	H	0.765822	0.740614	-0.448675
H191	H	1.497697	0.307969	0.468743
H192	H	0.590621	1.044773	-0.417329
N193	N	1.710622	0.298614	0.069936
H194	H	1.773342	0.248367	0.066304
H195	H	1.726109	0.269264	0.128975
H196	H	1.124066	0.308021	0.468716
N197	N	1.729037	0.298653	0.317977
H198	H	1.714398	0.331842	0.258732
H199	H	1.779003	0.227540	0.347755
H200	H	0.368022	0.740605	0.066975
H201	H	1.091213	-0.066591	0.056929
N202	N	1.275265	0.445842	0.341732
H203	H	1.289908	0.412642	0.400978
H204	H	1.231839	0.433505	0.316310
H205	H	0.995460	1.173226	-0.396565
H206	H	0.542458	0.740613	0.066963
N207	N	0.184116	1.182651	-0.147053
H208	H	0.121396	1.232894	-0.143417
H209	H	0.181058	1.128542	-0.122627
H210	H	0.398393	1.044771	-0.129018
H211	H	1.081178	0.061893	0.050275
H212	H	1.148834	0.196691	0.095238
H213	H	0.613121	0.740659	-0.154900
N214	N	1.162478	0.318334	0.104322
H215	H	1.223602	0.246281	0.144907
H216	H	1.126249	0.345036	0.133442
H217	H	0.343625	0.740637	-0.260381
N218	N	0.529602	0.740660	-0.275777
H219	H	0.598458	0.740669	-0.266963
H220	H	0.464159	0.799664	-0.332209
H221	H	0.264270	0.740614	-0.154853
N222	N	0.805455	0.740600	-0.619539
H223	H	0.750369	0.740601	-0.651003
H224	H	0.757160	0.799598	-0.622711
N225	N	1.099669	0.740631	-0.317966
H226	H	1.088478	0.799627	-0.360688
H227	H	1.181895	0.681589	-0.298603
N228	N	0.795052	0.740633	-0.759141
H229	H	0.744641	0.740629	-0.727680
H230	H	0.836082	0.681637	-0.755972
