data_functionalizedCrystal
_audit_creation_method	'MofGen! by Chris Wilmer'
_symmetry_space_group_name_H-M	'P1'
_symmetry_Int_Tables_number	1
_symmetry_cell_setting	triclinic
loop_
_symmetry_equiv_pos_as_xyz
  x,y,z
_cell_length_a	10.654550
_cell_length_b	10.540510
_cell_length_c	9.130313
_cell_angle_alpha	90.001199
_cell_angle_beta	89.996220
_cell_angle_gamma	84.499107
loop_
_atom_site_label
_atom_site_type_symbol
_atom_site_fract_x
_atom_site_fract_y
_atom_site_fract_z
O1	O	1.667878	0.178297	-0.121911
O2	O	1.302404	0.195285	-0.121887
O3	O	1.493498	0.002079	-0.121899
O4	O	1.476783	0.371503	-0.121899
O5	O	1.493496	0.002084	0.121700
O6	O	1.302401	0.195290	0.121712
O7	O	1.667876	0.178302	0.121688
Cu8	Cu	1.485138	0.186797	0.143942
Cu9	Cu	1.485141	0.186790	-0.144141
O10	O	1.476781	0.371508	0.121700
C11	C	1.255604	0.194040	-0.000084
C12	C	1.116160	0.190308	-0.000075
C13	C	1.036702	0.304065	-0.000097
C14	C	0.905681	0.300551	-0.000122
C15	C	0.933587	0.069514	-0.000111
C16	C	1.064606	0.073029	-0.000075
C17	C	1.088256	0.421344	-0.000097
C18	C	1.008797	0.535110	-0.000120
C19	C	0.877775	0.531596	-0.000145
C20	C	0.826213	0.414316	-0.000148
C21	C	1.492252	-0.045222	-0.000102
C22	C	1.488525	-0.186170	-0.000111
C23	C	1.621278	-0.403673	0.000438
C24	C	1.625253	-0.257079	-0.000119
C25	C	1.418535	-0.230906	-0.139210
C26	C	1.415528	-0.377666	-0.139319
C27	C	1.412678	-0.377468	0.137699
C28	C	1.419163	-0.231129	0.139529
C29	C	1.714675	0.179547	-0.000118
C30	C	1.854119	0.183279	-0.000137
C31	C	1.478028	0.418809	-0.000100
C32	C	1.481754	0.559757	-0.000101
N33	N	1.485145	0.186800	0.346565
N34	N	1.485144	0.186777	-0.346764
C35	C	1.569784	0.101278	0.423212
C36	C	1.569781	0.101263	0.576548
C37	C	1.400496	0.272303	0.576579
C38	C	1.400494	0.272311	0.423245
C39	C	1.654435	0.015767	0.346532
C40	C	1.739082	-0.069761	0.423179
C41	C	1.739078	-0.069776	0.576516
C42	C	1.654428	0.015737	0.653206
H43	H	1.680016	-0.227753	0.099591
H44	H	1.463361	-0.417901	-0.243305
Br45	Br	0.863609	-0.089641	-0.000118
H46	H	1.654448	0.015774	0.221678
H47	H	1.194939	0.424218	-0.000083
Br48	Br	1.504034	-0.183458	0.311051
H49	H	1.050789	0.630595	-0.000106
Br50	Br	1.245087	-0.415941	-0.149839
H51	H	0.813083	0.624229	-0.000149
Br52	Br	0.648395	0.409549	-0.000154
H53	H	1.654424	0.015708	0.778063
Br54	Br	1.172451	-0.081357	-0.000037
Br55	Br	1.710069	-0.473624	0.166708
H56	H	1.674239	-0.447200	-0.098760
Br57	Br	1.250767	-0.151861	-0.147836
Br58	Br	1.717059	-0.209759	-0.166613
H59	H	1.467143	-0.200070	-0.242734
H60	H	1.319341	-0.182026	0.147936
H61	H	1.807994	-0.139390	0.360730
Br62	Br	1.484604	-0.448337	0.313427
H63	H	1.310022	-0.399581	0.138643
H64	H	1.807992	-0.139425	0.638920
Br65	Br	1.285617	0.388373	0.319220
H66	H	1.331578	0.341926	0.639030
