data_functionalizedCrystal
_audit_creation_method	'MofGen! by Chris Wilmer'
_symmetry_space_group_name_H-M	'P1'
_symmetry_Int_Tables_number	1
_symmetry_cell_setting	triclinic
loop_
_symmetry_equiv_pos_as_xyz
  x,y,z
_cell_length_a	33.428889
_cell_length_b	33.428139
_cell_length_c	33.424847
_cell_angle_alpha	60.004234
_cell_angle_beta	60.008465
_cell_angle_gamma	59.994972
loop_
_atom_site_label
_atom_site_type_symbol
_atom_site_fract_x
_atom_site_fract_y
_atom_site_fract_z
O1	O	0.055565	-0.584504	0.488714
O2	O	0.555565	-0.084504	0.988714
O3	O	0.020982	-0.455083	0.393778
O4	O	0.520982	0.044917	0.893778
O5	O	0.102943	-0.536959	0.393689
O6	O	0.602943	-0.036959	0.893689
O7	O	-0.026396	-0.502628	0.488803
O8	O	0.473604	-0.002628	0.988803
O9	O	0.130140	-0.509767	0.420792
O10	O	0.630140	-0.009767	0.920792
O11	O	0.048179	-0.427891	0.420881
O12	O	0.548179	0.072109	0.920881
O13	O	0.082762	-0.557312	0.515817
O14	O	0.582762	-0.057312	1.015817
Cu15	Cu	0.067954	-0.490119	0.470823
Cu16	Cu	0.567954	0.009881	0.970823
Cu17	Cu	0.035790	-0.522276	0.438771
Cu18	Cu	0.535790	-0.022276	0.938771
O19	O	0.000801	-0.475436	0.515906
O20	O	0.500801	0.024564	1.015906
N21	N	0.090577	-0.467504	0.493370
N22	N	0.590577	0.032496	0.993370
N23	N	0.013171	-0.544895	0.416225
N24	N	0.513171	-0.044895	0.916225
C25	C	0.143377	-0.280390	0.546067
C26	C	0.643377	0.219610	1.046067
C27	C	0.143515	-0.414755	0.680369
C28	C	0.643515	0.085245	1.180369
C29	C	0.143392	-0.414735	0.546069
C30	C	0.643392	0.085265	1.046069
C31	C	0.277766	-0.414702	0.545966
C32	C	0.777766	0.085298	1.045966
C33	C	0.158177	-0.324719	0.560828
C34	C	0.658177	0.175281	1.060828
C35	C	0.158255	-0.399967	0.636038
C36	C	0.658255	0.100033	1.136038
C37	C	0.233434	-0.399936	0.560773
C38	C	0.733434	0.100064	1.060773
C39	C	0.158186	-0.399955	0.560829
C40	C	0.658186	0.100045	1.060829
C41	C	0.124540	-0.223964	0.527278
C42	C	0.624540	0.276036	1.027278
C43	C	0.124565	-0.433545	0.527281
C44	C	0.624565	0.066455	1.027281
C45	C	0.177014	-0.381145	0.579617
C46	C	0.677014	0.118855	1.079617
C47	C	0.359814	-0.400540	0.502735
C48	C	0.859814	0.099460	1.002735
C49	C	0.411105	-0.417624	0.485606
C50	C	0.911105	0.082376	0.985606
C51	C	0.411136	-0.500620	0.517255
C52	C	0.911136	-0.000620	1.017255
C53	C	0.359845	-0.483534	0.534385
C54	C	0.859845	0.016466	1.034385
C55	C	0.136887	-0.198305	0.476855
C56	C	0.636887	0.301695	0.976855
C57	C	0.119761	-0.147011	0.459777
C58	C	0.619761	0.352989	0.959777
C59	C	0.077945	-0.147038	0.543547
C60	C	0.577945	0.352962	1.043547
C61	C	0.095072	-0.198332	0.560625
C62	C	0.595072	0.301668	1.060625
C63	C	0.074134	-0.421169	0.539710
C64	C	0.574134	0.078831	1.039710
C65	C	0.057023	-0.438269	0.522625
C66	C	0.557023	0.061731	1.022625
C67	C	0.140770	-0.480120	0.480694
C68	C	0.640770	0.019880	0.980694
C69	C	0.157883	-0.463020	0.497773
C70	C	0.657883	0.036980	0.997773
C71	C	0.074339	-0.421208	0.762475
C72	C	0.574339	0.078792	1.262475
C73	C	0.057288	-0.438323	0.813768
C74	C	0.557288	0.061677	1.313768
C75	C	0.141075	-0.480183	0.813699
C76	C	0.641075	0.019817	1.313699
C77	C	0.158125	-0.463069	0.762404
C78	C	0.658125	0.036931	1.262404
C79	C	0.124756	-0.433580	0.736794
C80	C	0.624756	0.066420	1.236794
C81	C	0.334186	-0.433494	0.527123
C82	C	0.834186	0.066506	1.027123
C83	C	-0.173769	-0.597444	0.363037
C84	C	0.326231	-0.097444	0.863037
C85	C	-0.039302	-0.597595	0.228856
C86	C	0.460698	-0.097595	0.728856
C87	C	-0.039496	-0.597587	0.363300
C88	C	0.460504	-0.097587	0.863300
C89	C	-0.039512	-0.731889	0.363237
C90	C	0.460488	-0.231889	0.863237
C91	C	-0.129442	-0.612265	0.348329
C92	C	0.370558	-0.112265	0.848329
C93	C	-0.054138	-0.612351	0.273187
C94	C	0.445862	-0.112351	0.773187
C95	C	-0.054257	-0.687554	0.348440
C96	C	0.445743	-0.187554	0.848440
C97	C	-0.054247	-0.612346	0.348477
C98	C	0.445753	-0.112346	0.848477
C99	C	-0.230191	-0.578579	0.381758
C100	C	0.269809	-0.078579	0.881758
C101	C	-0.020722	-0.578803	0.382168
C102	C	0.479278	-0.078803	0.882168
C103	C	-0.073020	-0.631130	0.329609
C104	C	0.426980	-0.131130	0.829609
C105	C	-0.053713	-0.813916	0.406386
C106	C	0.446287	-0.313916	0.906386
C107	C	-0.036654	-0.865210	0.423504
C108	C	0.463346	-0.365210	0.923504
C109	C	0.046338	-0.865293	0.391984
C110	C	0.546338	-0.365293	0.891984
C111	C	0.029278	-0.813999	0.374865
C112	C	0.529278	-0.313999	0.874865
C113	C	-0.255900	-0.590938	0.432169
C114	C	0.244100	-0.090938	0.932169
C115	C	-0.307191	-0.573786	0.449185
C116	C	0.192809	-0.073786	0.949185
C117	C	-0.307060	-0.531922	0.365377
C118	C	0.192940	-0.031922	0.865377
C119	C	-0.255769	-0.549074	0.348360
C120	C	0.244231	-0.049074	0.848360
C121	C	-0.033081	-0.528377	0.369764
C122	C	0.466919	-0.028377	0.869764
C123	C	-0.016014	-0.511306	0.386922
C124	C	0.483986	-0.011306	0.886922
C125	C	0.025770	-0.595083	0.428877
C126	C	0.525770	-0.095083	0.928877
C127	C	0.008703	-0.612156	0.411725
C128	C	0.508703	-0.112156	0.911725
C129	C	-0.032755	-0.528393	0.146761
C130	C	0.467245	-0.028393	0.646761
C131	C	-0.015585	-0.511324	0.095468
C132	C	0.484415	-0.011324	0.595468
C133	C	0.026262	-0.595106	0.095516
C134	C	0.526262	-0.095106	0.595516
C135	C	0.009094	-0.612174	0.146811
C136	C	0.509094	-0.112174	0.646811
C137	C	-0.020417	-0.578816	0.172432
C138	C	0.479583	-0.078816	0.672432
C139	C	-0.020748	-0.788312	0.382068
C140	C	0.479252	-0.288312	0.882068
N141	N	0.436037	-0.467415	0.493101
N142	N	0.936037	0.032585	0.993101
O143	O	0.592642	-0.471896	0.376066
O144	O	1.092642	0.028104	0.876066
O145	O	0.592838	-0.567146	0.505347
O146	O	1.092838	-0.067146	1.005347
O147	O	0.592754	-0.566928	0.423360
O148	O	1.092754	-0.066928	0.923360
O149	O	0.592727	-0.472113	0.458053
O150	O	1.092727	0.027887	0.958053
O151	O	0.511269	-0.539835	0.450606
O152	O	1.011269	-0.039835	0.950606
O153	O	0.511353	-0.540052	0.532594
O154	O	1.011353	-0.040052	1.032594
O155	O	0.511157	-0.444802	0.403312
O156	O	1.011157	0.055198	0.903312
Cu157	Cu	0.503815	-0.489954	0.470441
Cu158	Cu	1.003815	0.010046	0.970441
Cu159	Cu	0.600180	-0.521995	0.438219
Cu160	Cu	1.100180	-0.021995	0.938219
O161	O	0.511242	-0.445020	0.485300
O162	O	1.011242	0.054980	0.985300
N163	N	0.667959	-0.544533	0.415554
N164	N	1.167959	-0.044533	0.915554
N165	N	0.090544	-0.122107	0.493359
N166	N	0.590544	0.377893	0.993359
O167	O	-0.026406	0.034587	0.488773
O168	O	0.473594	0.534587	0.988773
O169	O	0.102877	0.034627	0.393499
O170	O	0.602877	0.534627	0.893499
O171	O	0.020848	0.034591	0.393771
O172	O	0.520848	0.534591	0.893771
O173	O	0.055623	0.034623	0.488500
O174	O	0.555623	0.534623	0.988500
O175	O	0.048051	-0.046899	0.420925
O176	O	0.548051	0.453101	0.920925
O177	O	0.130080	-0.046864	0.420653
O178	O	0.630080	0.453136	0.920653
O179	O	0.000796	-0.046903	0.515927
O180	O	0.500796	0.453097	1.015927
Cu181	Cu	0.067922	-0.054324	0.470769
Cu182	Cu	0.567922	0.445676	0.970769
Cu183	Cu	0.035752	0.042048	0.438656
Cu184	Cu	0.535752	0.542048	0.938656
O185	O	0.082825	-0.046867	0.515655
O186	O	0.582825	0.453133	1.015655
N187	N	0.013123	0.109830	0.416068
N188	N	0.513123	0.609830	0.916068
N189	N	0.090892	-0.467554	0.838649
N190	N	0.590892	0.032446	1.338649
O191	O	0.086330	-0.584488	0.995334
O192	O	0.586330	-0.084488	1.495334
O193	O	-0.008902	-0.455160	0.995379
O194	O	0.491098	0.044840	1.495379
O195	O	-0.008679	-0.537172	0.995355
O196	O	0.491321	-0.037172	1.495355
O197	O	0.086107	-0.502475	0.995358
O198	O	0.586107	-0.002475	1.495358
O199	O	0.018452	-0.509990	0.913868
O200	O	0.518452	-0.009990	1.413868
O201	O	0.018230	-0.427978	0.913891
O202	O	0.518230	0.072022	1.413891
O203	O	0.113461	-0.557306	0.913847
O204	O	0.613461	-0.057306	1.413847
Cu205	Cu	0.068323	-0.490160	0.906429
Cu206	Cu	0.568323	0.009840	1.406429
Cu207	Cu	0.036237	-0.522306	1.002797
Cu208	Cu	0.536237	-0.022306	1.502797
O209	O	0.113239	-0.475293	0.913870
O210	O	0.613239	0.024707	1.413870
N211	N	0.013667	-0.544916	1.070577
N212	N	0.513667	-0.044916	1.570577
C213	C	0.031339	-0.425179	0.394250
C214	C	0.531339	0.074821	0.894250
C215	C	0.132837	-0.526572	0.394139
C216	C	0.632837	-0.026572	0.894139
C217	C	0.072405	-0.587216	0.515344
C218	C	0.572405	-0.087216	1.015344
C219	C	-0.029093	-0.485823	0.515455
C220	C	0.470907	0.014177	1.015455
C221	C	0.552119	-0.566716	0.535258
C222	C	1.052119	-0.066716	1.035258
C223	C	0.552016	-0.566447	0.433726
C224	C	1.052016	-0.066447	0.933726
C225	C	0.551873	-0.445232	0.373402
C226	C	1.051873	0.054768	0.873402
C227	C	0.551980	-0.445502	0.474933
C228	C	1.051980	0.054498	0.974933
C229	C	0.132731	-0.006013	0.393923
C230	C	0.632731	0.493987	0.893923
C231	C	0.031182	-0.006158	0.394293
C232	C	0.531182	0.493842	0.894293
C233	C	-0.029092	-0.006163	0.515469
C234	C	0.470908	0.493837	1.015469
C235	C	0.072491	-0.006119	0.515133
C236	C	0.572491	0.493881	1.015133
C237	C	-0.008451	-0.425276	0.954641
C238	C	0.491549	0.074724	1.454641
C239	C	-0.008170	-0.526833	0.954596
C240	C	0.491830	-0.026833	1.454596
C241	C	0.113010	-0.587190	0.954585
C242	C	0.613010	-0.087190	1.454585
C243	C	0.112735	-0.485627	0.954611
C244	C	0.612735	0.014373	1.454611
H245	H	0.047163	-0.397193	0.741627
H246	H	0.547163	0.102807	1.241627
H247	H	-0.038348	-0.388133	0.954654
H248	H	0.461652	0.111867	1.454654
N249	N	-0.078300	-0.476141	0.555018
N250	N	0.421700	0.023859	1.055018
H251	H	-0.100179	-0.441668	0.542411
H252	H	0.399821	0.058332	1.042411
H253	H	-0.073722	-0.480080	0.584610
H254	H	0.426278	0.019920	1.084610
H255	H	0.023733	-0.006162	0.364531
H256	H	0.523733	0.493838	0.864531
H257	H	-0.037935	-0.534246	0.954563
H258	H	0.462065	-0.034246	1.454563
N259	N	-0.334918	-0.587122	0.503560
N260	N	0.165082	-0.087122	1.003560
H261	H	-0.356206	-0.605596	0.512475
H262	H	0.143794	-0.105596	1.012475
H263	H	-0.356169	-0.556266	0.512469
H264	H	0.143831	-0.056266	1.012469
H265	H	0.551811	-0.415327	0.336274
H266	H	1.051811	0.084673	0.836274
H267	H	0.142910	-0.624330	0.954565
H268	H	0.642910	-0.124330	1.454565
N269	N	0.152182	-0.475798	0.954610
N270	N	0.652182	0.024202	1.454610
H271	H	0.139470	-0.441307	0.954620
H272	H	0.639470	0.058693	1.454620
H273	H	0.181795	-0.479701	0.924395
H274	H	0.681795	0.020299	1.424395
H275	H	0.169783	-0.005775	0.363939
H276	H	0.669783	0.494225	0.863939
H277	H	0.016234	-0.428240	0.834672
H278	H	0.516234	0.071760	1.334672
H279	H	0.168250	-0.504186	0.834549
H280	H	0.668250	-0.004186	1.334549
N281	N	0.082361	-0.006110	0.554552
N282	N	0.582361	0.493890	1.054552
H283	H	0.078506	-0.036321	0.584191
H284	H	0.578506	0.463679	1.084191
H285	H	0.058334	0.024116	0.564018
H286	H	0.558334	0.524116	1.064018
H287	H	0.199181	-0.473148	0.741498
H288	H	0.699181	0.026852	1.241498
N289	N	-0.064586	-0.492415	0.174396
N290	N	0.435414	0.007585	0.674396
H291	H	-0.095398	-0.471105	0.165410
H292	H	0.404602	0.028895	0.665410
H293	H	-0.046055	-0.471189	0.165496
H294	H	0.453945	0.028811	0.665496
N295	N	0.552187	-0.606327	0.584441
N296	N	1.052187	-0.106327	1.084441
H297	H	0.552199	-0.593763	0.606340
H298	H	1.052199	-0.093763	1.106340
H299	H	0.582412	-0.635911	0.579828
H300	H	1.082412	-0.135911	1.079828
N301	N	-0.029335	-0.456920	0.373548
N302	N	0.470665	0.043080	0.873548
H303	H	-0.047875	-0.447943	0.404367
H304	H	0.452125	0.052057	0.904367
H305	H	-0.050544	-0.438411	0.352205
H306	H	0.449456	0.061589	0.852205
H307	H	0.552029	-0.596233	0.426301
H308	H	1.052029	-0.096233	0.926301
H309	H	-0.066220	-0.006175	0.545378
H310	H	0.433780	0.493825	1.045378
H311	H	0.551974	-0.415718	0.482355
H312	H	1.051974	0.084282	0.982355
H313	H	0.047002	-0.397168	0.563734
H314	H	0.547002	0.102832	1.063734
H315	H	0.015959	-0.428182	0.532734
H316	H	0.515959	0.071818	1.032734
H317	H	0.167905	-0.504126	0.456671
H318	H	0.667905	-0.004126	0.956671
H319	H	0.079796	-0.624394	0.545162
H320	H	0.579796	-0.124394	1.045162
N321	N	0.212275	-0.476363	0.484372
N322	N	0.712275	0.023637	0.984372
H323	H	0.227579	-0.463817	0.447576
H324	H	0.727579	0.036183	0.947576
H325	H	0.227590	-0.513160	0.496922
H326	H	0.727590	-0.013160	0.996922
N327	N	0.332204	-0.519078	0.560691
N328	N	0.832204	-0.019078	1.060691
H329	H	0.341163	-0.544061	0.590988
H330	H	0.841163	-0.044061	1.090988
H331	H	0.341125	-0.536290	0.538232
H332	H	0.841125	-0.036290	1.038232
N333	N	0.438814	-0.554591	0.525087
N334	N	0.938814	-0.054591	1.025087
H335	H	0.429872	-0.565896	0.508627
H336	H	0.929872	-0.065896	1.008627
H337	H	0.429906	-0.573587	0.561355
H338	H	0.929906	-0.073587	1.061355
N339	N	0.438752	-0.382083	0.459304
N340	N	0.938752	0.117917	0.959304
H341	H	0.414715	-0.347789	0.457302
H342	H	0.914715	0.152211	0.957302
H343	H	0.460009	-0.383499	0.425146
H344	H	0.960009	0.116501	0.925146
H345	H	0.160882	-0.219171	0.449698
H346	H	0.660882	0.280829	0.949698
N347	N	0.332127	-0.346569	0.494913
N348	N	0.832127	0.153431	0.994913
H349	H	0.341019	-0.327527	0.458654
H350	H	0.841019	0.172473	0.958654
H351	H	0.341076	-0.335311	0.511407
H352	H	0.841076	0.164689	1.011407
N353	N	0.133071	-0.119330	0.405390
N354	N	0.633071	0.380670	0.905390
H355	H	0.154339	-0.143352	0.386857
H356	H	0.654339	0.356648	0.886857
H357	H	0.151545	-0.098038	0.396459
H358	H	0.651545	0.401962	0.896459
N359	N	0.046172	-0.119389	0.579512
N360	N	0.546172	0.380611	1.079512
H361	H	0.040956	-0.143429	0.614048
H362	H	0.540956	0.356571	1.114048
H363	H	0.013483	-0.098114	0.574276
H364	H	0.513483	0.401886	1.074276
H365	H	-0.025639	-0.470264	0.074572
H366	H	0.474361	0.029736	0.574572
N367	N	0.081756	-0.226007	0.615010
N368	N	0.581756	0.273993	1.115010
H369	H	0.060489	-0.201984	0.633542
H370	H	0.560489	0.298016	1.133542
H371	H	0.112621	-0.247282	0.623902
H372	H	0.612621	0.252718	1.123902
H373	H	0.019144	-0.653235	0.167709
H374	H	0.519144	-0.153235	0.667709
N375	N	0.058082	-0.631080	0.067877
N376	N	0.558082	-0.131080	0.567877
H377	H	0.039587	-0.652336	0.076764
H378	H	0.539587	-0.152336	0.576764
H379	H	0.088889	-0.652360	0.076872
H380	H	0.588889	-0.152360	0.576872
N381	N	-0.064818	-0.492400	0.337888
N382	N	0.435182	0.007600	0.837888
H383	H	-0.095671	-0.471090	0.356340
H384	H	0.404329	0.028910	0.856340
H385	H	-0.073718	-0.510899	0.328905
H386	H	0.426282	-0.010899	0.828905
N387	N	0.057507	-0.631059	0.460758
N388	N	0.557507	-0.131059	0.960758
H389	H	0.062744	-0.665594	0.466012
H390	H	0.562744	-0.165594	0.966012
H391	H	0.040802	-0.625769	0.493424
H392	H	0.540802	-0.125769	0.993424
N393	N	0.022028	-0.666545	0.425104
N394	N	0.522028	-0.166545	0.925104
H395	H	0.043259	-0.685082	0.446431
H396	H	0.543259	-0.185082	0.946431
H397	H	0.040547	-0.675481	0.394264
H398	H	0.540547	-0.175481	0.894264
H399	H	0.056124	-0.793157	0.355062
H400	H	0.556124	-0.293157	0.855062
H401	H	0.087072	-0.886205	0.386121
H402	H	0.587072	-0.386205	0.886121
N403	N	0.182039	-0.536254	0.354571
N404	N	0.682039	-0.036254	0.854571
H405	H	0.188390	-0.564651	0.346410
H406	H	0.688390	-0.064651	0.846410
H407	H	0.208526	-0.544469	0.366530
H408	H	0.708526	-0.044469	0.866530
H409	H	-0.063498	-0.886058	0.443304
H410	H	0.436502	-0.386058	0.943304
N411	N	-0.107671	-0.786208	0.414154
N412	N	0.392329	-0.286208	0.914154
H413	H	-0.125964	-0.810214	0.432156
H414	H	0.374036	-0.310214	0.932156
H415	H	-0.112659	-0.764928	0.381356
H416	H	0.387341	-0.264928	0.881356
H417	H	0.023949	-0.388000	0.364433
H418	H	0.523949	0.112000	0.864433
N419	N	-0.228309	-0.622760	0.468187
N420	N	0.271691	-0.122760	0.968187
H421	H	-0.237269	-0.653582	0.489460
H422	H	0.262731	-0.153582	0.989460
H423	H	-0.237268	-0.604229	0.489443
H424	H	0.262732	-0.104229	0.989443
N425	N	-0.334656	-0.500103	0.329361
N426	N	0.165344	-0.000103	0.829361
H427	H	-0.325708	-0.518596	0.308072
H428	H	0.174292	-0.018596	0.808072
H429	H	-0.325686	-0.469286	0.308120
H430	H	0.174314	0.030714	0.808120
N431	N	-0.228041	-0.535735	0.293988
N432	N	0.271959	-0.035735	0.793988
H433	H	-0.252029	-0.514437	0.275416
H434	H	0.247971	-0.014437	0.775416
H435	H	-0.206757	-0.566590	0.285080
H436	H	0.293243	-0.066590	0.785080
