data_functionalizedCrystal
_audit_creation_method	'MofGen! by Chris Wilmer'
_symmetry_space_group_name_H-M	'P1'
_symmetry_Int_Tables_number	1
_symmetry_cell_setting	triclinic
loop_
_symmetry_equiv_pos_as_xyz
  x,y,z
_cell_length_a	10.489741
_cell_length_b	10.489741
_cell_length_c	9.130313
_cell_angle_alpha	89.999004
_cell_angle_beta	90.002436
_cell_angle_gamma	84.539174
loop_
_atom_site_label
_atom_site_type_symbol
_atom_site_fract_x
_atom_site_fract_y
_atom_site_fract_z
O1	O	1.694046	0.179962	-0.121708
O2	O	1.322851	0.196855	-0.121731
O3	O	1.516895	0.002811	-0.121710
O4	O	1.500002	0.374006	-0.121728
O5	O	1.516893	0.002816	0.121889
O6	O	1.322848	0.196860	0.121868
O7	O	1.694044	0.179967	0.121891
Cu8	Cu	1.508446	0.188414	0.144122
Cu9	Cu	1.508449	0.188408	-0.143962
O10	O	1.500000	0.374012	0.121870
C11	C	1.275318	0.195582	0.000066
C12	C	1.133688	0.191765	0.000057
C13	C	1.065548	0.068300	0.000077
C14	C	0.973423	0.126621	-0.120029
C15	C	0.973454	0.126655	0.120140
C16	C	1.043428	0.250136	-0.120149
C17	C	1.043469	0.250154	0.120129
C18	C	0.951371	0.308564	-0.000007
C19	C	1.515618	-0.044718	0.000088
C20	C	1.511801	-0.186348	0.000086
C21	C	1.388336	-0.254488	0.000067
C22	C	1.446658	-0.346608	0.120178
C23	C	1.446690	-0.346588	-0.119992
C24	C	1.570174	-0.276602	0.120295
C25	C	1.570188	-0.276573	-0.119982
C26	C	1.628600	-0.368665	0.000158
C27	C	1.741577	0.181241	0.000091
C28	C	1.883206	0.185058	0.000090
C29	C	1.501277	0.421541	0.000069
C30	C	1.505094	0.563170	0.000062
N31	N	1.508453	0.188418	0.346745
N32	N	1.508451	0.188395	-0.346584
C33	C	1.594398	0.102525	0.423406
C34	C	1.594395	0.102509	0.576743
C35	C	1.422497	0.274292	0.576744
C36	C	1.422496	0.274300	0.423410
C37	C	1.693646	0.003351	0.423406
C38	C	1.693643	0.003336	0.576743
H39	H	0.942475	0.074395	0.221681
H40	H	1.662607	-0.089331	0.624293
H41	H	1.286824	-0.204837	0.000182
H42	H	1.394417	-0.377617	0.221716
C43	C	1.327948	0.368773	0.339076
C44	C	1.233465	0.463305	0.423401
C45	C	1.138912	0.557780	0.339065
C46	C	1.138843	0.557723	0.170403
C47	C	1.233329	0.463187	0.086069
C48	C	1.327881	0.368712	0.170405
H49	H	1.233513	0.463350	0.548263
H50	H	1.068967	0.627761	0.401496
H51	H	1.068849	0.627659	0.107973
H52	H	1.233281	0.463142	-0.038793
H53	H	1.397827	0.298731	0.107974
C54	C	1.640684	-0.234962	0.257635
C55	C	1.589472	-0.263430	0.411090
C56	C	1.659977	-0.221787	0.548429
C57	C	1.781692	-0.151676	0.532313
C58	C	1.832910	-0.123204	0.378852
C59	C	1.762406	-0.164847	0.241513
H60	H	1.499366	-0.315334	0.423025
H61	H	1.622061	-0.242864	0.662031
H62	H	1.833884	-0.120849	0.633980
H63	H	1.923017	-0.071300	0.366917
H64	H	1.800321	-0.143770	0.127911
H65	H	1.394435	-0.377554	-0.221545
C66	C	1.765856	-0.435442	0.000250
C67	C	1.810719	-0.526574	0.126170
C68	C	1.947973	-0.593351	0.126271
C69	C	2.040362	-0.568996	0.000452
C70	C	1.995500	-0.477860	-0.125478
C71	C	1.858247	-0.411083	-0.125579
H72	H	1.742325	-0.544607	0.219318
H73	H	1.981182	-0.660816	0.219493
H74	H	2.141965	-0.618429	0.000526
H75	H	2.063894	-0.459827	-0.218626
H76	H	1.825038	-0.343618	-0.218801
H77	H	1.622386	-0.245530	-0.221526
C78	C	1.818778	0.045375	0.359154
C79	C	1.902963	-0.046323	0.259498
C80	C	2.028094	-0.004294	0.195246
C81	C	2.069039	0.129433	0.230650
C82	C	1.984853	0.221139	0.330311
C83	C	1.859722	0.179110	0.394563
H84	H	1.872654	-0.145323	0.233285
H85	H	2.090414	-0.072182	0.121470
H86	H	2.161669	0.160545	0.183088
H87	H	2.015162	0.320139	0.356524
H88	H	1.797402	0.246998	0.468339
H89	H	1.352512	0.344214	0.639181
H90	H	1.791676	0.025238	0.618365
H91	H	1.115238	-0.033196	-0.000068
C92	C	0.884588	0.445817	-0.000106
C93	C	0.908938	0.538219	0.125706
C94	C	0.842152	0.675469	0.125595
C95	C	0.751016	0.720316	-0.000329
C96	C	0.726662	0.627912	-0.126150
C97	C	0.793448	0.490663	-0.126039
H98	H	0.976407	0.505022	0.218931
H99	H	0.860181	0.743872	0.218737
H100	H	0.701577	0.821917	-0.000411
H101	H	0.659193	0.661110	-0.219375
H102	H	0.775418	0.422260	-0.219181
H103	H	0.942409	0.074378	-0.221568
H104	H	1.671821	-0.094704	0.381790
H105	H	1.074257	0.302334	-0.221804
H106	H	1.074514	0.302354	0.221672
