data_functionalizedCrystal
_audit_creation_method	'MofGen! by Chris Wilmer'
_symmetry_space_group_name_H-M	'P1'
_symmetry_Int_Tables_number	1
_symmetry_cell_setting	triclinic
loop_
_symmetry_equiv_pos_as_xyz
  x,y,z
_cell_length_a	20.919309
_cell_length_b	20.919319
_cell_length_c	20.919309
_cell_angle_alpha	60.112213
_cell_angle_beta	90.173912
_cell_angle_gamma	60.108551
loop_
_atom_site_label
_atom_site_type_symbol
_atom_site_fract_x
_atom_site_fract_y
_atom_site_fract_z
Zr1	Zr	0.671230	0.642047	-0.079587
O2	O	0.574617	0.774764	-0.186538
O3	O	0.696953	0.509331	-0.043522
O4	O	0.707333	0.631703	-0.176239
O5	O	0.560479	0.660552	0.047139
O6	O	0.816451	0.623543	-0.171845
O7	O	0.564237	0.652392	-0.053821
O8	O	0.797883	0.404642	0.065562
O9	O	0.579047	0.879452	-0.190267
O10	O	0.794062	0.557829	-0.028822
O11	O	0.709823	0.570009	0.043244
O12	O	0.722045	0.714086	-0.113013
O13	O	0.637806	0.726265	-0.040948
Zr14	Zr	0.839267	0.642047	0.088443
Zr15	Zr	0.845261	0.629033	-0.072578
Zr16	Zr	0.665236	0.655061	0.081434
Zr17	Zr	0.678295	0.809014	-0.085534
Zr18	Zr	0.832202	0.475080	0.094390
O19	O	0.813544	0.774763	0.052378
O20	O	0.822067	0.756259	-0.176572
O21	O	0.566095	0.793268	0.042412
O22	O	0.935880	0.509330	0.195394
O23	O	0.944402	0.490826	-0.033556
O24	O	0.688430	0.527835	0.185428
O25	O	0.950018	0.623542	-0.038283
O26	O	0.803164	0.652391	0.185096
O27	O	0.694046	0.660551	0.180701
O28	O	0.946260	0.631702	0.062677
O29	O	0.717378	0.869107	-0.184696
O30	O	0.793119	0.414987	0.193552
O31	O	0.931450	0.404642	0.199124
O32	O	0.936214	0.394297	0.071134
O33	O	0.574283	0.889797	-0.062278
O34	O	0.712614	0.879452	-0.056706
O35	O	0.788452	0.570008	0.121870
O36	O	0.872691	0.557829	0.049804
O37	O	0.800673	0.714085	-0.034388
O38	O	0.716435	0.726265	0.037678
C39	C	0.746411	0.433198	0.011868
C40	C	0.743412	0.362316	0.014392
C41	C	0.724503	-0.038541	0.030871
C42	C	0.727282	0.028104	0.028450
C43	C	0.772640	0.055070	-0.010384
C44	C	0.815227	0.015381	-0.046793
C45	C	0.812451	-0.051266	-0.044366
C46	C	0.783224	0.255980	-0.019589
C47	C	0.785994	0.322635	-0.022015
C48	C	0.698051	0.335351	0.053229
C49	C	0.695275	0.268706	0.055648
C50	C	0.737865	0.229020	0.019243
C51	C	0.775480	0.123193	-0.012863
C52	C	0.735029	0.160893	0.021727
C53	C	0.537563	0.658326	-0.004339
C54	C	0.463682	0.663851	-0.007315
C55	C	0.466563	0.584885	0.035230
C56	C	0.397142	0.590081	0.032432
C57	C	0.324841	0.674245	-0.012916
C58	C	0.321962	0.753218	-0.055462
C59	C	0.391382	0.748021	-0.052659
C60	C	0.113356	0.694018	-0.023573
C61	C	0.043934	0.699209	-0.026374
C62	C	0.119119	0.536072	0.061522
C63	C	0.188537	0.530882	0.064317
C64	C	0.185652	0.609855	0.021774
C65	C	0.253880	0.679559	-0.015779
C66	C	0.256612	0.604541	0.024641
C67	C	0.972934	0.625768	0.013196
C68	C	1.046815	0.620243	0.016171
C69	C	0.762746	0.625769	-0.196984
C70	C	0.765290	0.620244	-0.265341
C71	C	0.764086	0.850896	-0.003011
C72	C	0.767085	0.921778	-0.005536
C73	C	0.728895	0.699210	-0.341403
C74	C	0.731296	0.694013	-0.405629
C75	C	0.770088	0.609849	-0.393792
C76	C	0.806489	0.530877	-0.317722
C77	C	0.804092	0.536074	-0.253498
C78	C	0.779210	0.590075	-0.585509
C79	C	0.781602	0.584884	-0.649741
C80	C	0.706410	0.748021	-0.737643
C81	C	0.704013	0.753211	-0.673414
C82	C	0.740417	0.674239	-0.597350
C83	C	0.772541	0.604535	-0.459440
C84	C	0.737968	0.679553	-0.531703
C85	C	0.747751	0.658325	0.205840
C86	C	0.745206	0.663850	0.274198
C87	C	0.964097	0.416919	0.020635
C88	C	1.034978	0.340512	0.026136
C89	C	0.738914	0.449476	0.213280
C90	C	0.733370	0.384119	0.284162
C91	C	0.956600	0.433197	0.222047
C92	C	1.024936	0.362315	0.295905
C93	C	0.553897	0.850897	-0.213191
C94	C	0.485560	0.921779	-0.287049
C95	C	0.546400	0.867176	-0.011779
C96	C	0.475518	0.943582	-0.017279
C97	C	0.771583	0.834618	-0.204423
C98	C	0.777127	0.899975	-0.275306
C99	C	1.027222	0.304630	-0.012330
C100	C	1.093817	0.232847	-0.007177
C101	C	1.168167	0.196942	0.036446
C102	C	1.175922	0.232830	0.074912
C103	C	1.109329	0.304617	0.069754
C104	C	0.771810	0.353427	0.358497
C105	C	0.766598	0.292028	0.425104
C106	C	0.722950	0.261316	0.417375
C107	C	0.684506	0.292014	0.343031
C108	C	0.689714	0.353418	0.276425
C109	C	1.101007	0.322670	0.292972
C110	C	1.165224	0.256078	0.362363
C111	C	1.153368	0.229126	0.434687
C112	C	1.077290	0.268778	0.437617
C113	C	1.013075	0.335374	0.368227
C114	C	0.409490	0.961432	-0.284116
C115	C	0.345274	1.028045	-0.353508
C116	C	0.357130	1.055000	-0.425832
C117	C	0.433208	1.015344	-0.428762
C118	C	0.497422	0.948736	-0.359371
C119	C	0.483276	0.979470	0.021179
C120	C	0.416682	1.051271	0.016008
C121	C	0.342332	1.087178	-0.027617
C122	C	0.334577	1.051286	-0.066081
C123	C	0.401170	0.979491	-0.060914
C124	C	0.820781	0.930667	-0.267551
C125	C	0.826005	0.992067	-0.334145
C126	C	0.787570	1.022779	-0.408494
C127	C	0.743915	0.992081	-0.416247
C128	C	0.738696	0.930677	-0.349653
H129	H	0.822931	0.344587	-0.053641
C130	C	0.844128	0.449205	-0.169827
N131	N	0.874286	0.383772	-0.106806
C132	C	0.865105	0.045062	-0.089527
N133	N	0.902667	0.067425	-0.121724
C134	C	1.257715	0.193319	0.122902
N135	N	1.319323	0.163551	0.159052
H136	H	0.703145	0.905695	-0.355979
C137	C	0.695301	0.772131	-0.544721
N138	N	0.663162	0.841860	-0.554520
H139	H	0.648968	0.267000	0.336749
H140	H	1.227165	0.223799	0.359963
C141	C	0.859292	-0.094913	-0.084420
N142	N	0.894575	-0.127788	-0.114589
H143	H	0.852080	0.905671	-0.207018
H144	H	0.658413	0.378398	0.215901
H145	H	0.283334	1.060323	-0.351107
H146	H	0.797908	0.267040	0.485632
H147	H	1.110675	0.344603	0.234090
H148	H	1.205663	0.174899	0.491183
C149	C	0.874026	1.025828	-0.325599
N150	N	0.910194	1.051256	-0.319160
H151	H	0.718716	0.211318	0.471616
H152	H	0.966689	0.333862	-0.047861
C153	C	0.392623	0.940013	-0.103214
N154	N	0.386179	0.910280	-0.135076
H155	H	0.812409	0.145156	-0.044484
C156	C	0.446236	1.044996	-0.508326
N157	N	0.456046	1.067326	-0.568255
H158	H	1.067649	0.246825	0.496513
C159	C	0.819248	0.503203	-0.501846
N160	N	0.849404	0.437766	-0.438827
C161	C	0.929398	0.378975	0.371466
N162	N	0.866373	0.411814	0.373912
H163	H	0.399822	0.939490	-0.225233
C164	C	0.651212	0.379003	0.093279
N165	N	0.615935	0.411879	0.123450
C166	C	0.425230	1.090731	0.058330
N167	N	0.431671	1.120449	0.090210
H168	H	0.304835	1.109237	-0.482328
C169	C	1.117873	0.344071	0.112082
N170	N	1.124315	0.373783	0.143967
H171	H	0.559361	0.916450	-0.361768
C172	C	0.685136	0.131230	0.064442
N173	N	0.647553	0.108885	0.096611
H174	H	1.222386	0.138488	0.040640
C175	C	0.565055	0.939990	0.069168
N176	N	0.626650	0.910262	0.105311
H177	H	0.804126	0.536009	-0.449809
C178	C	0.269084	1.166151	-0.033289
N179	N	0.213917	1.225631	-0.037556
C180	C	0.661345	0.845798	-0.686443
N181	N	0.629206	0.915535	-0.696257
C182	C	0.252783	1.090783	-0.114054
N183	N	0.191173	1.120527	-0.150179
H184	H	0.791826	1.072778	-0.462713
C185	C	0.701672	1.025839	-0.498036
N186	N	0.669864	1.051258	-0.559641
C187	C	0.336144	0.511963	0.074519
N188	N	0.396054	0.442233	0.112083
H189	H	0.658342	0.246754	0.087272
H190	H	0.807352	0.378426	0.364806
C191	C	0.849159	0.438295	-0.304703
N192	N	0.881295	0.368561	-0.294896
H193	H	0.692613	0.060405	0.058102
C194	C	0.830049	0.212360	-0.059663
N195	N	0.865312	0.179512	-0.089858
H196	H	0.687564	-0.060486	0.062489
C197	C	1.085268	0.193375	-0.049488
N198	N	1.078826	0.163645	-0.081354
H199	H	0.525430	0.516349	0.072161
H200	H	0.399494	0.525778	0.067078
H201	H	0.121459	0.471777	0.096159
C202	C	0.110173	0.780891	-0.070385
N203	N	0.107775	0.846327	-0.105651
C204	C	0.242427	0.845799	-0.105348
N205	N	0.182522	0.915533	-0.142927
C206	C	0.686221	0.791798	-0.354434
N207	N	0.654080	0.861538	-0.364252
C208	C	0.268067	0.438296	0.114204
N209	N	0.327969	0.368558	0.151777
H210	H	0.389031	0.812324	-0.087295
H211	H	-0.014938	0.767749	-0.063305
H212	H	0.195005	0.748085	-0.052701
H213	H	0.676773	0.812316	-0.799579
H214	H	0.701661	0.758316	-0.467559
H215	H	0.813190	0.516344	-0.640094
