data_functionalizedCrystal
_audit_creation_method	'MofGen! by Chris Wilmer'
_symmetry_space_group_name_H-M	'P1'
_symmetry_Int_Tables_number	1
_symmetry_cell_setting	triclinic
loop_
_symmetry_equiv_pos_as_xyz
  x,y,z
_cell_length_a	13.897449
_cell_length_b	13.897448
_cell_length_c	13.032268
_cell_angle_alpha	97.150371
_cell_angle_beta	82.839289
_cell_angle_gamma	89.979604
loop_
_atom_site_label
_atom_site_type_symbol
_atom_site_fract_x
_atom_site_fract_y
_atom_site_fract_z
Zn1	Zn	1.405368	0.453230	0.590923
Zn2	Zn	1.738701	0.786563	0.924257
Zn3	Zn	2.072035	1.119896	1.257590
Zn4	Zn	1.425755	0.594069	0.416191
Zn5	Zn	1.759088	0.927403	0.749524
Zn6	Zn	2.092422	1.260736	1.082857
Zn7	Zn	1.264555	0.432793	0.416193
Zn8	Zn	1.597888	0.766126	0.749526
Zn9	Zn	1.931222	1.099459	1.082860
Zn10	Zn	1.244040	0.614481	0.590873
Zn11	Zn	1.577373	0.947814	0.924206
Zn12	Zn	1.910706	1.281147	1.257540
O13	O	1.334929	0.523643	0.503545
O14	O	1.668263	0.856976	0.836878
O15	O	2.001596	1.190310	1.170212
O16	O	1.543052	0.471923	0.567765
O17	O	1.876385	0.805256	0.901098
O18	O	2.209718	1.138590	1.234431
O19	O	1.421489	0.555581	0.269961
O20	O	1.754822	0.888914	0.603294
O21	O	2.088156	1.222247	0.936627
O22	O	1.283288	0.300525	0.439393
O23	O	1.616621	0.633858	0.772727
O24	O	1.949955	0.967191	1.106060
O25	O	1.558030	0.575397	0.439389
O26	O	1.891363	0.908731	0.772723
O27	O	2.224696	1.242064	1.106056
O28	O	1.386743	0.315539	0.567767
O29	O	1.720076	0.648873	0.901100
O30	O	2.053409	0.982206	1.234434
O31	O	1.303056	0.437091	0.269962
O32	O	1.636390	0.770425	0.603296
O33	O	1.969723	1.103758	0.936629
O34	O	1.126854	0.456883	0.439345
O35	O	1.460188	0.790217	0.772678
O36	O	1.793521	1.123550	1.106012
O37	O	1.248322	0.610185	0.737110
O38	O	1.581656	0.943519	1.070443
O39	O	1.914989	1.276852	1.403777
O40	O	1.111782	0.590369	0.567681
O41	O	1.445115	0.923702	0.901015
O42	O	1.778448	1.257035	1.234348
O43	O	1.366850	0.491715	0.737147
O44	O	1.700183	0.825048	1.070480
O45	O	2.033516	1.158382	1.403814
O46	O	1.401596	0.731756	0.439341
O47	O	1.734929	1.065089	0.772674
O48	O	2.068263	1.398423	1.106007
O49	O	1.268091	0.746752	0.567679
O50	O	1.601424	1.080086	0.901012
O51	O	1.934757	1.413419	1.234346
C52	C	1.084319	0.523624	0.503509
C53	C	1.417653	0.856957	0.836842
C54	C	1.750986	1.190291	1.170175
C55	C	0.977104	0.523642	0.503518
C56	C	1.310438	0.856975	0.836851
C57	C	1.643771	1.190309	1.170184
C58	C	1.334853	0.774255	0.503527
C59	C	1.668186	1.107589	0.836860
C60	C	2.001520	1.440922	1.170194
C61	C	1.334904	0.881472	0.503554
C62	C	1.668238	1.214806	0.836888
C63	C	2.001571	1.548139	1.170221
C64	C	0.890033	0.523647	0.503535
C65	C	1.223366	0.856981	0.836869
C66	C	1.556699	1.190314	1.170202
C67	C	0.780796	0.523658	0.503567
C68	C	1.114130	0.856991	0.836900
C69	C	1.447463	1.190324	1.170234
C70	C	1.334990	1.077776	0.503629
C71	C	1.668324	1.411110	0.836963
C72	C	2.001657	1.744443	1.170296
C73	C	1.334939	0.968539	0.503591
C74	C	1.668273	1.301873	0.836924
C75	C	2.001606	1.635206	1.170257
C76	C	1.586518	0.523663	0.503582
C77	C	1.919851	0.856996	0.836916
C78	C	2.253185	1.190330	1.170249
C79	C	1.693730	0.523672	0.503598
C80	C	2.027063	0.857005	0.836931
C81	C	2.360397	1.190338	1.170265
C82	C	1.303024	0.555507	0.776105
C83	C	1.636357	0.888840	1.109438
C84	C	1.969690	1.222173	1.442771
C85	C	1.289427	0.569085	0.892253
C86	C	1.622760	0.902418	1.225586
C87	C	1.956094	1.235752	1.558920
C88	C	1.335020	1.272056	0.503598
C89	C	1.668353	1.605390	0.836932
C90	C	2.001687	1.938723	1.170265
C91	C	1.335034	1.164849	0.503652
C92	C	1.668367	1.498182	0.836986
C93	C	2.001701	1.831515	1.170319
C94	C	1.366767	0.491834	0.232046
C95	C	1.700100	0.825167	0.565379
C96	C	2.033433	1.158501	0.898713
C97	C	1.380550	0.477984	0.115898
C98	C	1.713883	0.811317	0.449231
C99	C	2.047217	1.144651	0.782565
C100	C	1.342010	0.516522	0.944054
C101	C	1.675344	0.849855	1.277387
C102	C	2.008677	1.183188	1.610721
C103	C	1.327959	0.530554	1.064100
C104	C	1.661293	0.863888	1.397433
C105	C	1.994626	1.197221	1.730766
H106	H	1.397428	0.461128	0.899529
H107	H	1.730761	0.794462	1.232863
H108	H	2.064095	1.127795	1.566196
C109	C	1.454588	0.404189	1.056669
C110	C	1.787922	0.737522	1.390002
C111	C	2.121255	1.070856	1.723336
C112	C	1.546942	0.428248	1.083158
C113	C	1.880276	0.761581	1.416492
C114	C	2.213609	1.094915	1.749825
C115	C	1.615163	0.360284	1.028623
C116	C	1.948497	0.693617	1.361957
C117	C	2.281830	1.026951	1.695290
H118	H	1.454335	0.404515	0.983860
H119	H	1.787668	0.737848	1.317193
H120	H	2.121002	1.071182	1.650526
H121	H	1.438477	0.341435	1.074534
H122	H	1.771811	0.674769	1.407867
H123	H	2.105144	1.008102	1.741200
H124	H	1.563049	0.490985	1.065287
H125	H	1.896383	0.824318	1.398620
H126	H	2.229716	1.157652	1.731953
H127	H	1.547227	0.427915	1.155958
H128	H	1.880561	0.761248	1.489292
H129	H	2.213894	1.094582	1.822625
H130	H	1.599052	0.297530	1.046488
H131	H	1.932386	0.630864	1.379821
H132	H	2.265719	0.964197	1.713155
H133	H	1.614901	0.360615	0.955817
H134	H	1.948234	0.693948	1.289150
H135	H	2.281568	1.027282	1.622483
H136	H	1.677832	0.376593	1.046596
H137	H	2.011165	0.709927	1.379929
H138	H	2.344498	1.043260	1.713262
H139	H	1.272528	0.585942	1.108620
H140	H	1.605861	0.919275	1.441954
H141	H	1.939195	1.252609	1.775287
H142	H	1.234000	0.624469	0.936778
H143	H	1.567333	0.957802	1.270111
H144	H	1.900667	1.291135	1.603444
