data_functionalizedCrystal
_audit_creation_method	'MofGen! by Chris Wilmer'
_symmetry_space_group_name_H-M	'P1'
_symmetry_Int_Tables_number	1
_symmetry_cell_setting	triclinic
loop_
_symmetry_equiv_pos_as_xyz
  x,y,z
_cell_length_a	16.959455
_cell_length_b	16.959454
_cell_length_c	16.959447
_cell_angle_alpha	89.973264
_cell_angle_beta	89.979626
_cell_angle_gamma	90.017095
loop_
_atom_site_label
_atom_site_type_symbol
_atom_site_fract_x
_atom_site_fract_y
_atom_site_fract_z
Zn1	Zn	1.208384	-0.314729	-0.447056
Zn2	Zn	1.208306	-0.446921	-0.314886
Zn3	Zn	1.076212	-0.314754	-0.314880
Zn4	Zn	1.076177	-0.446862	-0.447010
O5	O	1.142270	-0.380816	-0.380958
O6	O	1.318984	-0.332279	-0.429545
O7	O	1.190766	-0.429424	-0.204274
O8	O	1.093792	-0.204140	-0.332430
O9	O	1.318927	-0.429400	-0.332440
O10	O	1.190898	-0.204121	-0.429539
O11	O	1.093717	-0.332321	-0.204269
O12	O	0.965597	-0.332264	-0.332385
O13	O	1.093732	-0.429299	-0.557627
O14	O	0.965571	-0.429324	-0.429461
O15	O	1.190864	-0.332221	-0.557661
O16	O	1.190732	-0.557524	-0.332396
O17	O	1.093657	-0.557481	-0.429467
C18	C	0.936904	-0.380791	-0.380918
C19	C	0.849047	-0.380799	-0.380920
C20	C	0.477531	-0.431337	-0.330370
C21	C	0.477612	-0.330361	-0.431642
C22	C	0.560158	-0.330348	-0.431623
C23	C	0.601394	-0.380831	-0.380977
C24	C	0.560085	-0.431328	-0.330350
C25	C	0.601473	-0.279859	-0.482255
C26	C	0.684024	-0.279844	-0.482238
C27	C	0.725262	-0.330324	-0.431588
C28	C	0.683948	-0.380822	-0.380958
C29	C	0.725184	-0.431305	-0.330312
C30	C	0.683871	-0.481799	-0.279678
C31	C	0.601323	-0.481807	-0.279700
C32	C	0.807811	-0.330315	-0.431566
C33	C	0.807738	-0.431295	-0.330293
C34	C	1.142204	-0.586183	-0.380944
C35	C	1.142248	-0.674039	-0.380965
C36	C	1.091796	-1.045522	-0.431498
C37	C	1.192964	-1.045507	-0.330499
C38	C	1.192936	-0.962962	-0.330491
C39	C	1.142337	-0.921692	-0.380987
C40	C	1.091765	-0.962969	-0.431490
C41	C	1.243501	-0.921679	-0.279984
C42	C	1.243475	-0.839128	-0.279974
C43	C	1.192879	-0.797857	-0.330474
C44	C	1.142306	-0.839139	-0.380980
C45	C	1.091707	-0.797869	-0.431476
C46	C	1.041138	-0.839150	-0.481986
C47	C	1.041170	-0.921698	-0.481991
C48	C	1.192847	-0.715309	-0.330469
C49	C	1.091676	-0.715316	-0.431468
C50	C	1.348438	-0.380843	-0.380998
C51	C	1.436295	-0.380854	-0.381016
C52	C	1.142303	-0.380751	-0.587126
C53	C	1.142317	-0.380723	-0.674983
C54	C	1.142358	-0.174648	-0.380989
C55	C	1.142395	-0.086792	-0.381002
C56	C	1.091839	-0.431184	-1.046444
C57	C	1.192983	-0.330096	-1.046474
C58	C	1.192962	-0.330113	-0.963928
C59	C	1.142380	-0.380667	-0.922636
C60	C	1.091818	-0.431204	-0.963890
C61	C	1.243529	-0.279582	-0.922667
C62	C	1.243510	-0.279597	-0.840116
C63	C	1.192923	-0.330148	-0.798823
C64	C	1.142359	-0.380686	-0.840082
C65	C	1.091776	-0.431240	-0.798791
C66	C	1.041207	-0.481776	-0.840048
C67	C	1.041231	-0.481754	-0.922597
C68	C	1.192899	-0.330169	-0.716275
C69	C	1.091755	-0.431260	-0.716237
C70	C	1.142283	-0.380825	-0.175592
C71	C	1.142422	-0.380630	-0.087736
H72	H	0.567678	-0.522917	-0.238476
O73	O	1.241921	-0.675295	-0.281299
C74	C	1.224683	-0.695504	-0.202504
H75	H	1.194322	-0.755462	-0.200841
H76	H	1.184042	-0.649086	-0.175842
C77	C	1.339058	-0.625649	-0.156735
C78	C	1.301774	-0.699294	-0.154693
H79	H	1.386610	-0.627983	-0.127241
H80	H	1.350671	-0.612031	-0.209820
H81	H	1.305182	-0.586975	-0.134518
H82	H	1.335646	-0.737964	-0.176918
H83	H	1.290169	-0.712919	-0.101610
O84	O	0.437469	-0.281436	-0.480876
C85	C	0.389759	-0.326510	-0.531877
H86	H	0.377371	-0.386381	-0.503902
H87	H	0.421606	-0.335258	-0.590432
C88	C	0.326574	-0.209519	-0.580637
C89	C	0.311353	-0.283051	-0.546274
H90	H	0.278210	-0.182711	-0.589522
H91	H	0.358719	-0.179151	-0.546279
H92	H	0.353114	-0.216820	-0.629429
H93	H	0.284822	-0.275749	-0.497479
H94	H	0.279201	-0.313417	-0.580625
O95	O	0.847757	-0.480450	-0.281179
C96	C	0.827561	-0.559251	-0.298309
H97	H	0.804902	-0.563323	-0.361452
H98	H	0.779617	-0.579863	-0.255905
C99	C	0.928705	-0.606987	-0.211452
C100	C	0.900881	-0.611989	-0.289009
H101	H	0.973930	-0.639519	-0.205712
H102	H	0.942310	-0.553897	-0.199909
H103	H	0.888745	-0.624162	-0.176124
H104	H	0.940837	-0.594805	-0.324334
H105	H	0.887285	-0.665077	-0.300558
O106	O	1.042785	-1.085704	-0.480599
C107	C	1.087773	-1.133376	-0.531717
H108	H	1.147697	-1.145719	-0.503901
H109	H	1.096407	-1.101520	-0.590297
C110	C	0.970704	-1.196651	-0.580161
C111	C	1.044302	-1.211816	-0.545994
H112	H	0.943888	-1.245035	-0.588971
H113	H	0.940394	-1.164531	-0.545724
H114	H	0.977909	-1.170102	-0.628974
H115	H	1.037095	-1.238355	-0.497178
H116	H	1.074610	-1.243942	-0.580423
O117	O	1.242005	-0.280910	-1.086618
C118	C	1.197039	-0.229858	-1.134396
H119	H	1.134781	-0.224969	-1.109514
H120	H	1.194322	-0.254288	-1.196950
C121	C	1.312160	-0.153697	-1.166255
C122	C	1.235695	-0.147688	-1.135691
H123	H	1.336005	-0.103011	-1.167058
H124	H	1.342455	-0.188093	-1.134069
H125	H	1.309885	-0.174059	-1.218380
H126	H	1.237971	-0.127336	-1.083563
H127	H	1.205400	-0.113286	-1.167868
O128	O	1.292552	-0.230400	-0.962816
C129	C	1.247587	-0.179343	-1.010588
H130	H	1.185332	-0.174446	-0.985700
H131	H	1.244859	-0.203773	-1.073142
C132	C	1.362713	-0.103196	-1.042460
C133	C	1.286252	-0.097177	-1.011888
H134	H	1.386565	-0.052513	-1.043266
H135	H	1.393008	-0.137596	-1.010278
H136	H	1.360430	-0.123558	-1.094586
H137	H	1.288537	-0.076825	-0.959761
H138	H	1.255959	-0.062772	-1.044063
O139	O	0.992101	-0.799020	-0.531120
C140	C	1.037056	-0.751191	-0.582190
H141	H	1.099315	-0.776026	-0.587139
H142	H	1.039774	-0.688644	-0.557737
C143	C	0.921921	-0.719382	-0.658244
C144	C	0.998387	-0.749889	-0.664328
H145	H	0.898068	-0.718575	-0.708910
H146	H	0.891633	-0.751603	-0.623836
H147	H	0.924197	-0.667263	-0.637863
H148	H	0.996109	-0.802010	-0.684699
H149	H	1.028674	-0.717677	-0.698742
H150	H	1.050557	-0.472421	-0.682623
H151	H	1.234074	-0.289026	-0.682686
H152	H	1.284686	-0.238448	-0.806531
H153	H	1.234154	-1.079114	-0.289383
O154	O	0.723809	-0.530914	-0.230459
C155	C	0.669652	-0.575470	-0.185756
H156	H	0.610821	-0.578254	-0.218131
H157	H	0.660852	-0.546452	-0.125774
C158	C	0.774107	-0.656157	-0.134456
C159	C	0.701852	-0.659582	-0.174223
H160	H	0.793971	-0.708041	-0.127338
H161	H	0.810595	-0.626137	-0.164571
H162	H	0.766765	-0.631972	-0.084475
H163	H	0.709197	-0.683758	-0.224206
H164	H	0.665366	-0.689608	-0.144116
O165	O	1.042484	-0.675144	-0.480412
C166	C	0.991425	-0.627472	-0.435356
H167	H	1.019333	-0.615118	-0.375480
H168	H	0.932868	-0.659333	-0.426619
C169	C	0.942776	-0.564217	-0.552366
C170	C	0.977057	-0.549039	-0.478827
H171	H	0.933909	-0.515837	-0.579181
H172	H	0.977173	-0.596337	-0.582722
H173	H	0.893982	-0.590770	-0.545074
H174	H	1.025854	-0.522495	-0.486120
H175	H	0.942667	-0.516913	-0.448473
O176	O	0.561328	-0.230934	-0.531486
C177	C	0.513610	-0.276009	-0.582479
H178	H	0.501223	-0.335877	-0.554499
H179	H	0.545448	-0.284761	-0.641037
C180	C	0.450422	-0.159018	-0.631237
C181	C	0.435203	-0.232547	-0.596869
H182	H	0.402059	-0.132208	-0.640117
H183	H	0.482573	-0.128650	-0.596885
H184	H	0.476956	-0.166322	-0.680032
H185	H	0.408678	-0.225242	-0.548070
H186	H	0.403046	-0.262914	-0.631213
O187	O	0.724029	-0.230717	-0.531441
C188	C	0.669930	-0.186177	-0.576160
H189	H	0.611066	-0.183414	-0.543806
H190	H	0.661186	-0.215196	-0.636147
C191	C	0.774462	-0.105453	-0.627421
C192	C	0.702165	-0.102053	-0.587679
H193	H	0.794346	-0.053562	-0.634530
H194	H	0.810910	-0.135462	-0.597295
H195	H	0.767165	-0.129638	-0.677405
H196	H	0.709464	-0.077878	-0.537692
H197	H	0.665719	-0.072039	-0.617797
H198	H	0.999998	-0.955316	-0.523112
O199	O	0.991968	-0.530853	-0.800025
C200	C	0.913195	-0.513559	-0.820164
H201	H	0.911572	-0.483152	-0.880104
H202	H	0.886579	-0.472937	-0.773703
C203	C	0.867286	-0.627960	-0.750339
C204	C	0.865292	-0.590621	-0.823960
H205	H	0.837736	-0.675495	-0.752677
H206	H	0.920357	-0.639611	-0.736768
H207	H	0.845108	-0.594101	-0.711628
H208	H	0.887479	-0.624476	-0.862667
H209	H	0.812224	-0.578978	-0.837538
H210	H	1.050665	-0.472326	-1.080039
O211	O	1.292666	-0.961838	-0.231011
C212	C	1.343699	-1.009591	-0.276011
H213	H	1.348638	-0.984672	-0.338258
H214	H	1.319216	-1.072141	-0.278756
C215	C	1.419778	-1.041529	-0.160921
C216	C	1.425850	-1.010918	-0.237371
H217	H	1.470452	-1.042352	-0.137085
H218	H	1.385395	-1.009359	-0.130602
H219	H	1.399373	-1.093652	-0.163219
H220	H	1.446245	-0.958794	-0.235072
H221	H	1.460238	-1.043080	-0.267689
O222	O	1.292675	-0.799155	-0.230891
C223	C	1.337325	-0.853283	-0.186310
H224	H	1.340057	-0.912109	-0.218691
H225	H	1.308425	-0.862109	-0.126248
C226	C	1.418095	-0.748770	-0.135235
C227	C	1.421455	-0.821019	-0.175009
H228	H	1.469989	-0.728868	-0.128260
H229	H	1.388011	-0.712302	-0.165267
H230	H	1.394007	-0.756136	-0.085187
H231	H	1.445533	-0.813651	-0.225059
H232	H	1.451545	-0.857485	-0.144985
H233	H	1.000063	-0.522900	-0.956196
H234	H	0.443890	-0.472446	-0.289142
H235	H	0.841444	-0.289205	-0.472793
