data_functionalizedCrystal
_audit_creation_method	'MofGen! by Chris Wilmer'
_symmetry_space_group_name_H-M	'P1'
_symmetry_Int_Tables_number	1
_symmetry_cell_setting	triclinic
loop_
_symmetry_equiv_pos_as_xyz
  x,y,z
_cell_length_a	15.995300
_cell_length_b	16.109301
_cell_length_c	14.586319
_cell_angle_alpha	90.000787
_cell_angle_beta	90.000755
_cell_angle_gamma	96.533356
loop_
_atom_site_label
_atom_site_type_symbol
_atom_site_fract_x
_atom_site_fract_y
_atom_site_fract_z
O1	O	0.107627	-1.103140	-0.076173
O2	O	0.121021	-0.861080	-0.076186
O3	O	-0.007569	-0.988749	-0.076184
O4	O	0.236216	-0.975471	-0.076176
O5	O	-0.007571	-0.988740	0.076297
O6	O	0.121019	-0.861071	0.076294
O7	O	0.107625	-1.103132	0.076308
Cu8	Cu	0.114322	-0.982100	0.090224
Cu9	Cu	0.114324	-0.982111	-0.090102
O10	O	0.236214	-0.975463	0.076305
C11	C	0.120477	-0.830100	0.000052
C12	C	0.118850	-0.737805	0.000047
C13	C	-0.038765	-0.988203	0.000053
C14	C	-0.131717	-0.986579	0.000044
C15	C	0.108168	-1.134111	0.000067
C16	C	0.109795	-1.226406	0.000067
C17	C	-0.301899	-0.983581	0.000053
C18	C	-0.349390	-1.074484	0.000056
C19	C	-0.446077	-1.072826	0.000406
C20	C	-0.469455	-0.980630	0.000061
C21	C	-0.428310	-0.935525	0.086960
C22	C	-0.331677	-0.937825	0.087029
C23	C	-0.331399	-0.936489	-0.086376
C24	C	-0.428343	-0.936498	-0.087514
C25	C	-0.564150	-0.978958	0.000068
C26	C	-0.207204	-0.985251	0.000052
C27	C	0.267410	-0.976008	0.000066
C28	C	0.360362	-0.977632	0.000069
N29	N	0.114319	-0.982099	0.217056
C30	C	0.191371	-0.515539	0.000060
C31	C	0.189836	-0.428819	0.000065
C32	C	0.037269	-0.448679	0.000056
C33	C	0.038805	-0.535398	0.000057
C34	C	0.115858	-0.568825	0.000054
C35	C	0.112787	-0.395386	0.000059
C36	C	0.111123	-0.301360	0.000066
C37	C	0.117523	-0.662857	0.000050
N38	N	0.114319	-0.982119	-0.216934
C39	C	0.057399	-1.038650	0.452063
C40	C	0.057397	-1.038652	0.548044
C41	C	0.171242	-0.925562	0.548052
C42	C	0.171240	-0.925557	0.452072
C43	C	0.114319	-0.982105	0.404080
C44	C	0.114320	-0.982113	0.596041
C45	C	0.114318	-0.982115	0.700108
C46	C	0.114320	-0.982102	0.300007
H47	H	-0.330921	-1.111014	-0.062259
H48	H	-0.313366	-0.970324	0.152239
H49	H	0.217591	-0.879507	0.413002
H50	H	-0.442391	-0.867782	0.089944
H51	H	-0.022691	-0.578786	0.000055
O52	O	-0.037598	-0.416247	0.000211
C53	C	-0.083646	-0.443492	0.079166
H54	H	-0.038595	-0.461516	0.134370
H55	H	-0.119262	-0.390966	0.105665
H56	H	-0.130315	-0.500022	0.061309
H57	H	-0.299385	-0.871074	0.090735
H58	H	0.011050	-1.084694	0.412990
H59	H	0.254112	-0.542752	0.000064
O60	O	0.002075	-1.093662	0.594512
C61	C	-0.048176	-1.143552	0.531568
H62	H	-0.013844	-1.144480	0.463152
H63	H	-0.060930	-1.209950	0.559294
H64	H	-0.110387	-1.116572	0.521360
H65	H	-0.474551	-1.108268	-0.061873
O66	O	0.226451	-0.870523	0.594634
C67	C	0.212827	-0.788227	0.571173
H68	H	0.145787	-0.787834	0.544789
H69	H	0.222445	-0.746507	0.634298
H70	H	0.259231	-0.763793	0.515464
H71	H	-0.473934	-1.108107	0.063066
O72	O	-0.326100	-1.117331	0.074394
C73	C	-0.346352	-1.075748	0.155074
H74	H	-0.398695	-1.035260	0.139910
H75	H	-0.368412	-1.123741	0.209894
H76	H	-0.288327	-1.034619	0.180656
O77	O	-0.462225	-0.972309	0.164438
C78	C	-0.500303	-0.913082	0.216398
H79	H	-0.516739	-0.860642	0.169585
H80	H	-0.560113	-0.944606	0.249775
H81	H	-0.454849	-0.886107	0.271848
O82	O	-0.306925	-0.972318	-0.164894
C83	C	-0.262681	-1.040521	-0.142894
H84	H	-0.281412	-1.064216	-0.071315
H85	H	-0.278708	-1.092769	-0.194862
H86	H	-0.192149	-1.019731	-0.144717
H87	H	-0.455692	-0.969436	-0.151804
O88	O	-0.446664	-0.856313	-0.093932
C89	C	-0.497338	-0.838289	-0.019048
H90	H	-0.487661	-0.882640	0.039926
H91	H	-0.479034	-0.771082	0.004089
H92	H	-0.566293	-0.846569	-0.040605
O93	O	0.263166	-0.377021	0.000227
C94	C	0.266836	-0.326251	0.079187
H95	H	0.224012	-0.358019	0.134384
H96	H	0.334287	-0.316485	0.105694
H97	H	0.245178	-0.263196	0.061334
O98	O	-0.293358	-0.856572	-0.087272
C99	C	-0.240367	-0.843209	-0.010173
H100	H	-0.222153	-0.905643	0.015150
H101	H	-0.181196	-0.800748	-0.029953
H102	H	-0.274901	-0.812432	0.046627
