data_functionalizedCrystal
_audit_creation_method	'MofGen! by Chris Wilmer'
_symmetry_space_group_name_H-M	'P1'
_symmetry_Int_Tables_number	1
_symmetry_cell_setting	triclinic
loop_
_symmetry_equiv_pos_as_xyz
  x,y,z
_cell_length_a	15.995350
_cell_length_b	17.038272
_cell_length_c	14.472310
_cell_angle_alpha	89.999298
_cell_angle_beta	89.990621
_cell_angle_gamma	87.301966
loop_
_atom_site_label
_atom_site_type_symbol
_atom_site_fract_x
_atom_site_fract_y
_atom_site_fract_z
O1	O	1.118175	0.100774	-0.076763
O2	O	0.875286	0.113219	-0.076782
O3	O	0.995287	-0.006819	-0.076766
O4	O	0.998174	0.220812	-0.076780
O5	O	0.995254	-0.006812	0.076916
O6	O	0.875253	0.113226	0.076900
O7	O	1.118142	0.100781	0.076919
Cu8	Cu	0.996695	0.107004	0.090942
Cu9	Cu	0.996733	0.106996	-0.090805
O10	O	0.998141	0.220819	0.076902
C11	C	0.844038	0.112708	0.000056
C12	C	0.750978	0.111165	0.000049
C13	C	0.992645	-0.035945	0.000075
C14	C	0.984810	-0.122740	0.000074
C15	C	0.412836	0.105626	0.000069
C16	C	0.454180	0.020137	0.000417
C17	C	0.550981	0.021680	0.000064
C18	C	0.580592	0.108374	0.000060
C19	C	0.542527	0.150536	-0.087699
C20	C	0.445739	0.148388	-0.087766
C21	C	0.445488	0.150162	0.086999
C22	C	0.542432	0.150142	0.088152
C23	C	0.675401	0.109931	0.000051
C24	C	0.318027	0.104071	0.000071
C25	C	1.056739	-0.172836	0.000081
C26	C	1.049373	-0.254389	0.000072
C27	C	0.970077	-0.285843	0.000062
C28	C	0.898143	-0.235740	0.000053
C29	C	0.905510	-0.154189	0.000056
C30	C	0.944051	-0.531607	0.000047
C31	C	0.936689	-0.613164	0.000048
C32	C	1.087920	-0.631807	0.000065
C33	C	1.095280	-0.550254	0.000073
C34	C	1.023346	-0.500158	0.000059
C35	C	0.962546	-0.369202	0.000056
C36	C	1.030878	-0.416801	0.000059
C37	C	1.149390	0.101292	0.000078
C38	C	1.242450	0.102834	0.000079
C39	C	1.000784	0.249944	0.000059
C40	C	1.008618	0.336739	0.000054
N41	N	0.996674	0.107009	0.218773
N42	N	0.996761	0.106984	-0.218636
C43	C	0.996732	0.106993	0.592864
C44	C	0.932276	0.171007	0.553689
C45	C	0.932452	0.171241	0.446601
C46	C	0.996702	0.107001	0.407273
C47	C	1.085336	0.124819	0.446115
C48	C	1.084981	0.125274	0.553237
C49	C	0.973320	0.024970	0.553397
C50	C	0.971356	0.025517	0.446269
C51	C	0.996691	0.107004	0.302385
C52	C	0.996749	0.106991	0.697752
H53	H	0.577035	-0.011462	0.062974
H54	H	1.134751	0.080487	0.579149
H55	H	0.909777	0.007837	0.580460
C56	C	1.030060	-0.041854	0.410117
C57	C	1.081568	-0.093684	0.478554
C58	C	1.140284	-0.161051	0.442405
C59	C	1.147492	-0.176588	0.337820
C60	C	1.095981	-0.124756	0.269377
C61	C	1.037265	-0.057389	0.305526
H62	H	1.076235	-0.082184	0.555980
H63	H	1.178416	-0.199420	0.493072
H64	H	1.190957	-0.226457	0.311061
H65	H	1.101315	-0.136255	0.191951
H66	H	0.999134	-0.019019	0.254859
H67	H	1.020257	-0.022668	0.578729
H68	H	0.422948	0.122217	0.153518
H69	H	1.159850	-0.524651	0.000081
C70	C	0.810918	-0.270340	0.000036
C71	C	0.785036	-0.323841	0.079835
C72	C	0.697809	-0.358440	0.079819
C73	C	0.636464	-0.339538	0.000005
C74	C	0.662345	-0.286034	-0.079799
C75	C	0.749571	-0.251435	-0.079783
H76	H	0.830448	-0.337835	0.138923
H77	H	0.678651	-0.398047	0.138895
H78	H	0.571894	-0.365150	-0.000007
H79	H	0.616932	-0.272039	-0.138888
H80	H	0.768729	-0.211828	-0.138860
C81	C	1.128498	-0.309492	0.000082
C82	C	1.191868	-0.305972	0.079896
C83	C	1.270999	-0.361074	0.079904
C84	C	1.286759	-0.419695	0.000098
C85	C	1.223388	-0.423218	-0.079722
C86	C	1.144257	-0.368116	-0.079730
H87	H	1.180203	-0.262574	0.138978
H88	H	1.317911	-0.358466	0.138993
H89	H	1.345337	-0.460485	0.000104
H90	H	1.235053	-0.466615	-0.138805
H91	H	1.097345	-0.370724	-0.138819
H92	H	1.146484	-0.672604	0.000074
H93	H	0.872114	-0.638770	0.000055
H94	H	0.418217	0.213193	0.087589
C95	C	0.826388	-0.099079	0.000050
C96	C	0.763014	-0.102600	-0.079760
C97	C	0.683890	-0.047490	-0.079772
C98	C	0.668140	0.011141	0.000027
C99	C	0.731516	0.014665	0.079843
C100	C	0.810640	-0.040445	0.079854
H101	H	0.774672	-0.146005	-0.138837
H102	H	0.636975	-0.050099	-0.138857
H103	H	0.609567	0.051937	0.000019
H104	H	0.719858	0.058070	0.138920
H105	H	0.857555	-0.037836	0.138940
C106	C	0.424279	-0.025724	-0.084122
C107	C	0.330401	-0.038730	-0.097229
C108	C	0.300414	-0.084539	-0.181768
C109	C	0.364306	-0.117342	-0.253199
C110	C	0.458190	-0.104337	-0.240094
C111	C	0.488177	-0.058528	-0.155555
H112	H	0.283099	-0.014446	-0.044350
H113	H	0.230914	-0.094166	-0.191470
H114	H	0.342108	-0.151252	-0.315780
H115	H	0.505492	-0.128620	-0.292973
H116	H	0.557677	-0.048901	-0.145854
H117	H	0.885477	-0.490828	0.000036
H118	H	0.567542	0.119364	0.153076
C119	C	0.585426	-0.023394	-0.085071
C120	C	0.567771	-0.110811	-0.097737
C121	C	0.602215	-0.155886	-0.182878
C122	C	0.654313	-0.113543	-0.255353
C123	C	0.671971	-0.026122	-0.242689
C124	C	0.637528	0.018953	-0.157548
H125	H	0.529202	-0.142160	-0.044084
H126	H	0.589143	-0.220602	-0.192252
H127	H	0.679811	-0.146910	-0.318380
H128	H	0.710541	0.005227	-0.296342
H129	H	0.650600	0.083668	-0.148174
C130	C	0.569260	0.235553	0.095305
C131	C	0.662719	0.252723	0.102160
C132	C	0.689545	0.338139	0.109301
C133	C	0.622912	0.406384	0.109586
C134	C	0.529447	0.389217	0.102731
C135	C	0.502621	0.303801	0.095590
H136	H	0.712050	0.202202	0.101949
H137	H	0.758734	0.350847	0.114376
H138	H	0.642770	0.469614	0.114872
H139	H	0.480116	0.439738	0.102942
H140	H	0.433432	0.291093	0.090515
C141	C	0.418058	0.106840	-0.176381
C142	C	0.484006	0.075843	-0.246592
C143	C	0.456330	0.034292	-0.335208
C144	C	0.362706	0.023739	-0.353611
C145	C	0.296752	0.054737	-0.283398
C146	C	0.324428	0.096287	-0.194782
H147	H	0.553317	0.083654	-0.232971
H148	H	0.505154	0.011346	-0.387184
H149	H	0.342219	-0.007019	-0.419210
H150	H	0.227441	0.046925	-0.297019
H151	H	0.275604	0.119234	-0.142805
H152	H	1.104724	0.185092	0.578210
H153	H	1.095440	-0.391187	0.000046
H154	H	0.897983	-0.394821	0.000050
C155	C	0.567739	0.236579	-0.092121
C156	C	0.660844	0.255472	-0.096900
C157	C	0.686057	0.341515	-0.101319
C158	C	0.618164	0.408665	-0.100959
C159	C	0.525052	0.389773	-0.096180
C160	C	0.499840	0.303730	-0.091761
H161	H	0.711108	0.205762	-0.097167
H162	H	0.754984	0.355499	-0.104857
H163	H	0.636828	0.472359	-0.104230
H164	H	0.474788	0.439483	-0.095913
H165	H	0.430912	0.289746	-0.088223
H166	H	0.568829	0.121246	-0.153008
H167	H	0.866756	0.160625	0.420341
C168	C	0.953467	0.253468	0.411961
C169	C	1.037403	0.288136	0.438283
C170	C	1.058421	0.370366	0.403645
C171	C	0.995504	0.417930	0.342685
C172	C	0.911562	0.383262	0.316359
C173	C	0.890544	0.301031	0.350997
H174	H	1.083983	0.252926	0.483412
H175	H	1.120561	0.396029	0.423133
H176	H	1.011063	0.478802	0.317043
H177	H	0.864982	0.418472	0.271230
H178	H	0.828404	0.275369	0.331509
H179	H	1.105401	0.183955	0.419276
C180	C	0.425839	-0.026032	0.085429
C181	C	0.364805	0.013324	0.155576
C182	C	0.336452	-0.032848	0.240588
C183	C	0.369133	-0.118375	0.255452
C184	C	0.430170	-0.157736	0.185302
C185	C	0.458523	-0.111564	0.100291
H186	H	0.340610	0.076640	0.144575
H187	H	0.291269	-0.003710	0.292517
H188	H	0.348144	-0.152554	0.318382
H189	H	0.454365	-0.221052	0.196304
H190	H	0.503706	-0.140702	0.048362
H191	H	1.121310	-0.147233	0.000094
C192	C	0.883236	0.007242	0.411976
C193	C	0.834497	0.066008	0.348860
C194	C	0.746377	0.047735	0.314560
C195	C	0.706996	-0.029304	0.343375
C196	C	0.755736	-0.088075	0.406494
C197	C	0.843855	-0.069802	0.440795
H198	H	0.863648	0.123041	0.327526
H199	H	0.710297	0.091241	0.267835
H200	H	0.641765	-0.042831	0.317984
H201	H	0.726584	-0.145109	0.427829
H202	H	0.879935	-0.113309	0.487520
C203	C	0.843258	0.156842	0.588485
C204	C	0.824546	0.157587	0.692869
C205	C	0.735527	0.143386	0.727654
C206	C	0.665222	0.128441	0.658055
C207	C	0.683932	0.127696	0.553665
C208	C	0.772951	0.141896	0.518880
H209	H	0.876592	0.168650	0.744396
H210	H	0.721677	0.143938	0.804931
H211	H	0.599325	0.117930	0.683805
H212	H	0.631886	0.116632	0.502138
H213	H	0.786801	0.141345	0.441603
C214	C	0.953080	0.252783	0.589976
C215	C	1.028272	0.261636	0.654966
C216	C	1.049096	0.343415	0.691228
C217	C	0.994728	0.416341	0.662501
C218	C	0.919531	0.407491	0.597507
C219	C	0.898707	0.325712	0.561245
H220	H	1.068523	0.207649	0.676235
H221	H	1.104762	0.349965	0.739340
H222	H	1.010143	0.476878	0.689344
H223	H	0.879280	0.461477	0.576239
H224	H	0.843041	0.319161	0.513133
H225	H	0.417962	0.211153	-0.091752
H226	H	1.134688	0.079434	0.420639
