data_functionalizedCrystal
_audit_creation_method	'MofGen! by Chris Wilmer'
_symmetry_space_group_name_H-M	'P1'
_symmetry_Int_Tables_number	1
_symmetry_cell_setting	triclinic
loop_
_symmetry_equiv_pos_as_xyz
  x,y,z
_cell_length_a	10.654553
_cell_length_b	10.654559
_cell_length_c	13.448316
_cell_angle_alpha	89.996020
_cell_angle_beta	89.992798
_cell_angle_gamma	84.487431
loop_
_atom_site_label
_atom_site_type_symbol
_atom_site_fract_x
_atom_site_fract_y
_atom_site_fract_z
O1	O	1.667849	0.176420	-0.082697
O2	O	1.302371	0.193222	-0.082696
O3	O	1.493507	0.002082	-0.082696
O4	O	1.476713	0.367559	-0.082696
O5	O	1.493483	0.002070	0.082688
O6	O	1.302347	0.193209	0.082688
O7	O	1.667824	0.176407	0.082687
Cu8	Cu	1.485083	0.184807	0.097788
Cu9	Cu	1.485112	0.184822	-0.097797
O10	O	1.476689	0.367547	0.082687
C11	C	1.255561	0.191981	-0.000004
C12	C	1.116118	0.188288	-0.000004
C13	C	0.919564	0.183067	0.090140
C14	C	1.050585	0.186545	0.090146
C15	C	1.050621	0.186565	-0.090165
C16	C	0.919602	0.183097	-0.090169
C17	C	0.919545	0.183050	0.194241
C18	C	1.050566	0.186528	0.194247
C19	C	1.492259	-0.044722	-0.000006
C20	C	1.488563	-0.184164	-0.000013
C21	C	1.372551	-0.235705	-0.000015
C22	C	1.369085	-0.366728	-0.000007
C23	C	1.597654	-0.394657	0.000000
C24	C	1.601118	-0.263637	0.000000
C25	C	1.240588	-0.219582	-0.000024
C26	C	1.237122	-0.350604	-0.000016
C27	C	1.714634	0.177648	-0.000007
C28	C	1.854078	0.181341	-0.000014
C29	C	1.477936	0.414351	-0.000005
C30	C	1.481633	0.553793	-0.000005
N31	N	1.485072	0.184797	0.235353
N32	N	1.485133	0.184823	-0.235361
C33	C	1.569734	0.100195	0.287393
C34	C	1.569742	0.100194	0.391496
C35	C	1.485093	0.184802	0.443557
C36	C	1.400422	0.269407	0.391510
C37	C	1.400409	0.269401	0.287408
C38	C	1.400457	0.269416	0.608490
C39	C	1.400471	0.269424	0.712598
C40	C	1.569790	0.100209	0.712577
C41	C	1.569777	0.100203	0.608476
C42	C	1.485107	0.184810	0.556436
H43	H	1.103987	0.187996	-0.163566
H44	H	1.190848	-0.177839	0.069185
H45	H	1.638679	0.031305	0.433867
H46	H	0.873258	0.269837	0.234213
O47	O	0.884456	0.073731	0.232844
C48	C	0.952747	-0.128220	0.305252
C49	C	0.992659	-0.004463	0.261582
H50	H	1.040207	-0.191485	0.328479
H51	H	0.889858	-0.106326	0.372852
H52	H	0.898616	-0.178506	0.246682
H53	H	1.046838	0.045884	0.320079
H54	H	1.055485	-0.026441	0.193961
H55	H	1.195060	-0.386236	0.071386
O56	O	1.175620	-0.385441	-0.082668
C57	C	1.066908	-0.317265	-0.233206
C58	C	1.136538	-0.277639	-0.139655
H59	H	1.035267	-0.230126	-0.279296
H60	H	1.132880	-0.384733	-0.279404
H61	H	0.980944	-0.366276	-0.210134
H62	H	1.222500	-0.228576	-0.162638
H63	H	1.070480	-0.210228	-0.093480
O64	O	1.652051	0.017898	0.558056
C65	C	1.820042	-0.149890	0.569015
C66	C	1.726918	-0.056764	0.626239
H67	H	1.880614	-0.210261	0.624115
H68	H	1.765332	-0.213223	0.520320
H69	H	1.883183	-0.095056	0.520233
H70	H	1.663754	-0.111496	0.675075
H71	H	1.781706	0.006569	0.674870
O72	O	1.707019	-0.471807	0.000182
C73	C	1.901337	-0.535713	0.085834
C74	C	1.777513	-0.448294	0.085767
H75	H	1.958379	-0.516716	0.155012
H76	H	1.879010	-0.638235	0.085900
H77	H	1.958332	-0.516845	0.016589
H78	H	1.720458	-0.467050	0.155000
H79	H	1.799928	-0.345801	0.085649
O80	O	1.085634	0.295843	0.232859
C81	C	1.017308	0.497777	0.305274
C82	C	0.977418	0.374027	0.261596
H83	H	0.929837	0.561033	0.328500
H84	H	1.080173	0.475871	0.372875
H85	H	1.071458	0.548078	0.246708
H86	H	0.923220	0.323664	0.320089
H87	H	0.914615	0.396016	0.193974
O88	O	1.193265	-0.165092	-0.085272
C89	C	1.233367	-0.040325	-0.229234
C90	C	1.287114	-0.101988	-0.132723
H91	H	1.309210	0.010732	-0.267615
H92	H	1.201778	-0.116124	-0.280850
H93	H	1.149278	0.030145	-0.210646
H94	H	1.371240	-0.172448	-0.151218
H95	H	1.318617	-0.026119	-0.081135
O96	O	1.105941	0.082948	0.241784
C97	C	1.250606	-0.104686	0.229743
C98	C	1.188006	0.012576	0.175801
H99	H	1.316949	-0.161628	0.176413
H100	H	1.306373	-0.073946	0.296327
H101	H	1.174757	-0.165344	0.256413
H102	H	1.263773	0.073285	0.149066
H103	H	1.132211	-0.018252	0.109263
O104	O	1.318166	0.351726	0.558091
C105	C	1.150190	0.519526	0.569091
C106	C	1.243325	0.426395	0.626292
H107	H	1.089639	0.579902	0.624207
H108	H	1.204891	0.582854	0.520367
H109	H	1.087029	0.464696	0.520341
H110	H	1.306508	0.481122	0.675096
H111	H	1.188546	0.363068	0.674954
O112	O	1.713844	-0.213633	-0.000163
C113	C	1.910326	-0.197481	-0.085786
C114	C	1.782689	-0.254167	-0.085740
H115	H	1.966034	-0.230252	-0.154957
H116	H	1.893551	-0.090180	-0.085850
H117	H	1.965922	-0.230115	-0.016535
H118	H	1.727027	-0.221630	-0.154980
H119	H	1.799553	-0.361462	-0.085625
H120	H	0.866286	0.181707	-0.163581
H121	H	1.638670	0.031304	0.245011
H122	H	1.638730	0.031319	0.754955
H123	H	1.331493	0.338292	0.433904
H124	H	1.331540	0.338319	0.754981
H125	H	1.331468	0.338290	0.245038
