data_functionalizedCrystal
_audit_creation_method	'MofGen! by Chris Wilmer'
_symmetry_space_group_name_H-M	'P1'
_symmetry_Int_Tables_number	1
_symmetry_cell_setting	triclinic
loop_
_symmetry_equiv_pos_as_xyz
  x,y,z
_cell_length_a	16.109301
_cell_length_b	14.853567
_cell_length_c	15.186229
_cell_angle_alpha	90.000050
_cell_angle_beta	89.999362
_cell_angle_gamma	83.548205
loop_
_atom_site_label
_atom_site_type_symbol
_atom_site_fract_x
_atom_site_fract_y
_atom_site_fract_z
O1	O	1.103293	0.115881	-0.073165
O2	O	1.603293	0.615881	0.426835
O3	O	0.861252	0.130302	-0.073178
O4	O	1.361252	0.630302	0.426822
O5	O	0.988738	-0.008149	-0.073174
O6	O	1.488738	0.491851	0.426826
O7	O	0.975807	0.254332	-0.073170
O8	O	1.475807	0.754332	0.426830
O9	O	0.988729	-0.008151	0.073283
O10	O	1.488729	0.491849	0.573283
O11	O	0.861243	0.130300	0.073279
O12	O	1.361243	0.630300	0.573279
O13	O	1.103285	0.115879	0.073292
O14	O	1.603285	0.615879	0.573292
Zn15	Zn	0.982263	0.123089	0.096539
Zn16	Zn	1.482263	0.623089	0.596539
Zn17	Zn	0.982274	0.123092	-0.096425
Zn18	Zn	1.482274	0.623092	0.403575
O19	O	0.975799	0.254330	0.073288
O20	O	1.475799	0.754330	0.573288
C21	C	0.830272	0.129717	0.000048
C22	C	1.330272	0.629717	0.500048
C23	C	0.737974	0.127965	0.000043
C24	C	1.237974	0.627965	0.500043
C25	C	0.515811	0.206047	0.000055
C26	C	1.015811	0.706047	0.500055
C27	C	0.429089	0.204395	0.000060
C28	C	0.929089	0.704395	0.500060
C29	C	0.448732	0.040127	0.000054
C30	C	0.948732	0.540127	0.500054
C31	C	0.535453	0.041781	0.000054
C32	C	1.035453	0.541781	0.500054
C33	C	0.568990	0.124743	0.000050
C34	C	1.068990	0.624743	0.500050
C35	C	0.395546	0.121437	0.000055
C36	C	0.895546	0.621437	0.500055
C37	C	0.301518	0.119645	0.000061
C38	C	0.801518	0.619645	0.500061
C39	C	0.663025	0.126536	0.000046
C40	C	1.163025	0.626536	0.500046
C41	C	0.988148	-0.041738	0.000052
C42	C	1.488148	0.458262	0.500052
C43	C	0.986392	-0.141819	0.000044
C44	C	1.486392	0.358181	0.500044
C45	C	0.903241	-0.554215	0.000056
C46	C	1.403241	-0.054215	0.500056
C47	C	1.054697	-0.575746	0.000064
C48	C	1.554697	-0.075746	0.500064
C49	C	1.056348	-0.481715	0.000059
C50	C	1.556348	0.018285	0.500059
C51	C	0.981444	-0.423930	0.000054
C52	C	1.481444	0.076070	0.500054
C53	C	0.904889	-0.460175	0.000054
C54	C	1.404889	0.039825	0.500054
C55	C	1.132901	-0.445463	0.000068
C56	C	1.632901	0.054537	0.500068
C57	C	1.134555	-0.351426	0.000064
C58	C	1.634555	0.148574	0.500064
C59	C	1.059650	-0.293639	0.000053
C60	C	1.559650	0.206361	0.500053
C61	C	0.983093	-0.329890	0.000052
C62	C	1.483093	0.170110	0.500052
C63	C	0.908189	-0.272104	0.000046
C64	C	1.408189	0.227896	0.500046
C65	C	0.831630	-0.308353	0.000039
C66	C	1.331630	0.191647	0.500039
C67	C	0.829984	-0.402388	0.000042
C68	C	1.329984	0.097612	0.500042
C69	C	1.061296	-0.199604	0.000049
C70	C	1.561296	0.300396	0.500049
C71	C	0.909837	-0.178064	0.000044
C72	C	1.409837	0.321936	0.500044
C73	C	1.134265	0.116464	0.000063
C74	C	1.634265	0.616464	0.500063
C75	C	1.226563	0.118215	0.000063
C76	C	1.726563	0.618215	0.500063
C77	C	0.976389	0.287918	0.000060
C78	C	1.476389	0.787918	0.500060
C79	C	0.978145	0.387999	0.000062
C80	C	1.478145	0.887999	0.500062
N81	N	0.982261	0.123087	0.228231
N82	N	1.482261	0.623087	0.728231
N83	N	0.982282	0.123087	-0.228118
N84	N	1.482282	0.623087	0.271882
C85	C	1.038731	0.061801	0.453956
C86	C	1.538731	0.561801	0.953956
C87	C	1.038734	0.061799	0.546146
C88	C	1.538734	0.561799	1.046146
C89	C	0.925806	0.184375	0.546151
C90	C	1.425806	0.684375	1.046151
C91	C	0.925800	0.184372	0.453963
C92	C	1.425800	0.684372	0.953963
C93	C	0.982267	0.123086	0.407868
C94	C	1.482267	0.623086	0.907868
C95	C	0.982276	0.123087	0.592246
C96	C	1.482276	0.623087	1.092246
C97	C	0.982278	0.123085	0.692202
C98	C	1.482278	0.623085	1.192202
C99	C	0.982264	0.123087	0.307905
C100	C	1.482264	0.623087	0.807905
H101	H	0.421415	-0.027418	0.000062
H102	H	0.921415	0.472582	0.500062
O103	O	0.592814	-0.045919	0.000055
O104	O	1.092814	0.454081	0.500055
H105	H	0.658750	-0.030829	0.000067
H106	H	1.158750	0.469171	0.500067
H107	H	1.196894	-0.321921	0.000069
H108	H	1.696894	0.178079	0.500069
H109	H	0.848840	-0.131020	0.000036
H110	H	1.348840	0.368980	0.500036
H111	H	0.767654	-0.431911	0.000037
H112	H	1.267654	0.068089	0.500037
H113	H	1.084711	0.011894	0.583668
H114	H	1.584711	0.511894	1.083668
H115	H	0.840908	-0.583733	0.000047
H116	H	1.340908	-0.083733	0.500047
O117	O	0.371735	0.292090	0.000063
O118	O	0.871735	0.792090	0.500063
H119	H	0.331763	0.295269	0.059763
H120	H	0.831763	0.795269	0.559763
O121	O	0.864889	0.250477	0.404255
O122	O	1.364889	0.750477	0.904255
H123	H	0.824434	0.212505	0.362271
H124	H	1.324434	0.712505	0.862271
H125	H	1.123629	-0.170094	0.000061
H126	H	1.623629	0.329906	0.500061
O127	O	1.213683	-0.507791	0.000085
O128	O	1.713683	-0.007791	0.500085
H129	H	1.250327	-0.494908	-0.059599
H130	H	1.750327	0.005092	0.440401
H131	H	0.770643	-0.261292	0.000041
H132	H	1.270643	0.238708	0.500041
H133	H	0.543114	0.273601	0.000058
H134	H	1.043114	0.773601	0.500058
O135	O	1.099611	-0.004325	0.404242
O136	O	1.599611	0.495675	0.904242
H137	H	1.090122	0.005965	0.332394
H138	H	1.590122	0.505965	0.832394
H139	H	1.115680	-0.622800	0.000076
H140	H	1.615680	-0.122800	0.500076
O141	O	0.864912	0.250485	0.595866
O142	O	1.364912	0.750485	1.095866
H143	H	0.874408	0.240201	0.667714
H144	H	1.374408	0.740201	1.167714
