data_functionalizedCrystal
_audit_creation_method	'MofGen! by Chris Wilmer'
_symmetry_space_group_name_H-M	'P1'
_symmetry_Int_Tables_number	1
_symmetry_cell_setting	triclinic
loop_
_symmetry_equiv_pos_as_xyz
  x,y,z
_cell_length_a	12.996460
_cell_length_b	12.837943
_cell_length_c	12.837942
_cell_angle_alpha	94.828940
_cell_angle_beta	89.994579
_cell_angle_gamma	89.995743
loop_
_atom_site_label
_atom_site_type_symbol
_atom_site_fract_x
_atom_site_fract_y
_atom_site_fract_z
O1	O	0.085548	-1.402337	-0.272142
O2	O	0.585548	-0.902337	0.227858
O3	O	0.085554	-1.099204	-0.258699
O4	O	0.585554	-0.599204	0.241301
O5	O	0.085544	-1.244049	-0.113854
O6	O	0.585544	-0.744049	0.386146
O7	O	0.085557	-1.257492	-0.416988
O8	O	0.585557	-0.757492	0.083012
O9	O	-0.085589	-1.244031	-0.113844
O10	O	0.414411	-0.744031	0.386156
O11	O	-0.085580	-1.099186	-0.258689
O12	O	0.414420	-0.599186	0.241311
O13	O	-0.085586	-1.402320	-0.272132
O14	O	0.414414	-0.902320	0.227868
Cu15	Cu	-0.101209	-1.250751	-0.265409
Cu16	Cu	0.398791	-0.750751	0.234591
Cu17	Cu	0.101176	-1.250772	-0.265422
Cu18	Cu	0.601176	-0.750772	0.234578
O19	O	-0.085577	-1.257475	-0.416977
O20	O	0.414423	-0.757475	0.083023
C21	C	-0.000013	-1.060126	-0.254153
C22	C	0.499987	-0.560126	0.245847
C23	C	-0.000010	-0.943711	-0.240608
C24	C	0.499990	-0.443711	0.259392
N25	N	-0.243556	-1.250744	-0.265401
N26	N	0.256444	-0.750744	0.234599
C27	C	-0.000022	-1.239499	-0.074780
C28	C	0.499978	-0.739499	0.425220
C29	C	-0.000020	-1.225954	0.041635
C30	C	0.499980	-0.725954	0.541635
C31	C	-0.663370	-1.250771	-0.265423
C32	C	-0.163370	-0.750771	0.234577
C33	C	-0.546565	-1.250761	-0.265420
C34	C	-0.046565	-0.750761	0.234580
C35	C	-0.453467	-1.250758	-0.265413
C36	C	0.046533	-0.750758	0.234587
C37	C	-0.336654	-1.250747	-0.265408
C38	C	0.163346	-0.750747	0.234592
N39	N	0.243524	-1.250787	-0.265423
N40	N	0.743524	-0.750787	0.234577
C41	C	-0.000018	-1.441398	-0.276679
C42	C	0.499982	-0.941398	0.223321
C43	C	-0.000013	-1.557813	-0.290223
C44	C	0.499987	-1.057813	0.209777
C45	C	-0.000018	-0.718837	-0.403437
C46	C	0.499982	-0.218837	0.096563
C47	C	-0.000017	-0.609454	-0.390716
C48	C	0.499983	-0.109454	0.109284
C49	C	-0.000014	-0.615562	-0.202445
C50	C	0.499986	-0.115562	0.297555
C51	C	-0.000015	-0.724944	-0.215166
C52	C	0.499985	-0.224944	0.284834
C53	C	-0.000016	-0.776578	-0.315666
C54	C	0.499984	-0.276578	0.184334
C55	C	-0.000010	-0.885962	-0.328386
C56	C	0.499990	-0.385962	0.171614
C57	C	-0.000014	-0.892067	-0.140116
C58	C	0.499986	-0.392067	0.359884
C59	C	-0.000013	-0.782685	-0.127395
C60	C	0.499987	-0.282685	0.372605
C61	C	-0.000008	-1.262025	-0.456051
C62	C	0.499992	-0.762025	0.043949
C63	C	-0.000004	-1.275569	-0.572467
C64	C	0.499996	-0.775569	-0.072467
C65	C	-0.000002	-1.388784	0.266510
C66	C	0.499998	-0.888784	0.766510
C67	C	0.000000	-1.376062	0.375892
C68	C	0.500000	-0.876062	0.875892
C69	C	-0.000007	-1.187791	0.369785
C70	C	0.499993	-0.687791	0.869785
C71	C	-0.000009	-1.200513	0.260402
C72	C	0.499991	-0.700513	0.760402
C73	C	-0.000008	-1.301012	0.208769
C74	C	0.499992	-0.801012	0.708769
C75	C	-0.000017	-1.313732	0.099384
C76	C	0.499983	-0.813732	0.599384
C77	C	-0.000017	-1.125462	0.093279
C78	C	0.499983	-0.625462	0.593279
C79	C	-0.000015	-1.112741	0.202661
C80	C	0.499985	-0.612741	0.702661
H81	H	-0.000012	-0.928000	-0.410218
H82	H	0.499988	-0.428000	0.089782
H83	H	-0.000022	-0.562446	-0.462189
H84	H	0.499978	-0.062446	0.037811
H85	H	-0.000011	-1.470614	0.224469
H86	H	0.499989	-0.970614	0.724469
C87	C	-0.000024	-0.558745	-0.091904
C88	C	0.499976	-0.058745	0.408096
N89	N	-0.000033	-0.515950	-0.008643
N90	N	0.499967	-0.015950	0.491357
H91	H	0.000008	-1.447536	0.422901
H92	H	0.500008	-0.947536	0.922901
H93	H	-0.000024	-0.740630	-0.045571
H94	H	0.499976	-0.240630	0.454429
H95	H	-0.000030	-1.053992	0.046254
H96	H	0.499970	-0.553992	0.546254
H97	H	-0.000005	-0.939092	-0.068646
H98	H	0.499995	-0.439092	0.431354
C99	C	-0.000018	-1.077250	0.426601
C100	C	0.499982	-0.577250	0.926601
N101	N	-0.000033	-0.993990	0.469396
N102	N	0.499967	-0.493990	0.969396
H103	H	-0.000020	-1.395564	0.057346
H104	H	0.499980	-0.895564	0.557346
H105	H	-0.000017	-0.760878	-0.485268
H106	H	0.499983	-0.260878	0.014732
C107	C	-0.000027	-1.002197	0.259471
C108	C	0.499973	-0.502197	0.759471
N109	N	-0.000045	-0.918933	0.302259
N110	N	0.499955	-0.418933	0.802259
