data_functionalizedCrystal
_audit_creation_method	'MofGen! by Chris Wilmer'
_symmetry_space_group_name_H-M	'P1'
_symmetry_Int_Tables_number	1
_symmetry_cell_setting	triclinic
loop_
_symmetry_equiv_pos_as_xyz
  x,y,z
_cell_length_a	16.956993
_cell_length_b	16.956984
_cell_length_c	16.053802
_cell_angle_alpha	87.627659
_cell_angle_beta	92.393434
_cell_angle_gamma	76.054060
loop_
_atom_site_label
_atom_site_type_symbol
_atom_site_fract_x
_atom_site_fract_y
_atom_site_fract_z
O1	O	-1.059454	-0.029596	-0.069514
O2	O	-0.825443	-0.057712	-0.069497
O3	O	-0.956507	0.073351	-0.069500
O4	O	-0.928389	-0.160659	-0.069510
O5	O	-0.949295	0.066165	0.069359
O6	O	-0.818230	-0.064898	0.069362
O7	O	-1.052242	-0.036782	0.069346
Zn8	Zn	-0.934091	-0.051981	0.091401
Zn9	Zn	-0.943593	-0.042513	-0.091552
O10	O	-0.921177	-0.167845	0.069349
C11	C	-0.792033	-0.062745	-0.000065
C12	C	-0.703231	-0.067025	-0.000058
C13	C	-0.201821	-0.099041	-0.000078
C14	C	-0.285262	-0.095013	-0.000080
C15	C	-0.341333	-0.019412	-0.000071
C16	C	-0.313961	0.052166	-0.000070
C17	C	-0.230521	0.048138	-0.000075
C18	C	-0.592419	0.000525	-0.000062
C19	C	-0.675863	0.004548	-0.000055
C20	C	-0.647158	-0.142631	-0.000066
C21	C	-0.563718	-0.146653	-0.000065
C22	C	-0.536354	-0.075075	-0.000069
N23	N	-0.426623	-0.015294	-0.000070
N24	N	-0.451065	-0.079194	-0.000076
C25	C	-0.085651	-0.031749	-0.000082
C26	C	-0.174453	-0.027468	-0.000075
N27	N	-0.927611	-0.058442	0.216261
C28	C	-0.954341	0.099561	-0.000071
C29	C	-0.958621	0.188364	-0.000072
C30	C	-0.923344	-0.194055	-0.000082
C31	C	-0.919063	-0.282858	-0.000086
C32	C	-0.887048	0.215731	-0.000071
C33	C	-0.891075	0.299172	-0.000069
C34	C	-0.966676	0.355244	-0.000074
C35	C	-1.038255	0.327872	-0.000073
C36	C	-1.034227	0.244433	-0.000069
C37	C	-0.986614	0.606331	-0.000081
C38	C	-0.990636	0.689775	-0.000088
C39	C	-0.843456	0.661069	-0.000082
C40	C	-0.839435	0.577629	-0.000083
C41	C	-0.911013	0.550264	-0.000077
N42	N	-0.970794	0.440534	-0.000075
N43	N	-0.906894	0.464975	-0.000071
N44	N	-0.950079	-0.036045	-0.216413
C45	C	-0.983397	-0.002692	0.259954
C46	C	-0.978872	-0.007218	0.347361
C47	C	-0.918564	-0.067499	0.391073
C48	C	-0.862772	-0.123252	0.347375
C49	C	-0.867294	-0.118721	0.259970
C50	C	-0.898810	-0.087267	0.652484
C51	C	-0.894293	-0.091796	0.739895
C52	C	-1.010393	0.024240	0.739875
C53	C	-1.014913	0.028762	0.652468
C54	C	-0.959119	-0.026988	0.608777
N55	N	-0.913938	-0.072129	0.480417
N56	N	-0.963742	-0.022354	0.519435
H57	H	-0.307540	-0.153295	-0.000090
Cl58	Cl	-0.746353	0.099596	-0.000046
H59	H	-1.044897	0.584062	-0.000079
H60	H	-0.518069	-0.208215	-0.000075
H61	H	-1.064021	0.077848	0.616878
Cl62	Cl	-0.753478	0.695476	-0.000086
Cl63	Cl	-0.196117	0.138119	-0.000070
Cl64	Cl	-0.384451	0.147207	-0.000062
Cl65	Cl	-0.681566	-0.232609	-0.000069
H66	H	-0.570149	0.058809	-0.000063
H67	H	-0.825486	0.170081	-0.000070
H68	H	-1.032510	0.046392	0.224368
H69	H	-1.052203	0.735430	-0.000098
H70	H	-0.853382	-0.132663	0.616917
H71	H	-0.832793	0.321449	-0.000074
H72	H	-1.099810	0.373533	-0.000072
H73	H	-0.777873	0.531979	-0.000081
H74	H	-1.092509	0.222153	-0.000069
Cl75	Cl	-1.049003	0.062870	0.402290
Cl76	Cl	-0.818471	-0.167586	0.794843
H77	H	-1.055817	0.069630	0.775456
H78	H	-0.813664	-0.172332	0.382971
H79	H	-0.821867	-0.164118	0.224396
H80	H	-0.156171	-0.160604	-0.000079
