data_functionalizedCrystal
_audit_creation_method	'MofGen! by Chris Wilmer'
_symmetry_space_group_name_H-M	'P1'
_symmetry_Int_Tables_number	1
_symmetry_cell_setting	triclinic
loop_
_symmetry_equiv_pos_as_xyz
  x,y,z
_cell_length_a	13.032721
_cell_length_b	13.033652
_cell_length_c	19.805399
_cell_angle_alpha	82.845302
_cell_angle_beta	97.155902
_cell_angle_gamma	76.639675
loop_
_atom_site_label
_atom_site_type_symbol
_atom_site_fract_x
_atom_site_fract_y
_atom_site_fract_z
Zn1	Zn	-0.216404	-1.570071	-0.271546
Zn2	Zn	0.283596	-1.070071	0.228454
Zn3	Zn	-0.394048	-1.547395	-0.174833
Zn4	Zn	0.105952	-1.047395	0.325167
Zn5	Zn	-0.239020	-1.392453	-0.174821
Zn6	Zn	0.260980	-0.892453	0.325179
Zn7	Zn	-0.416568	-1.369864	-0.304415
Zn8	Zn	0.083432	-0.869864	0.195585
O9	O	-0.316510	-1.469946	-0.231404
O10	O	0.183490	-0.969946	0.268596
O11	O	-0.221079	-1.715693	-0.244966
O12	O	0.278921	-1.215693	0.255034
O13	O	-0.373523	-1.526805	-0.080121
O14	O	0.126477	-1.026805	0.419879
O15	O	-0.087372	-1.434958	-0.173892
O16	O	0.412628	-0.934958	0.326108
O17	O	-0.351593	-1.699033	-0.173911
O18	O	0.148407	-1.199033	0.326089
O19	O	-0.070755	-1.565453	-0.244955
O20	O	0.429245	-1.065453	0.255045
O21	O	-0.259625	-1.412970	-0.080113
O22	O	0.240375	-0.912970	0.419887
O23	O	-0.281463	-1.240826	-0.205763
O24	O	0.218537	-0.740826	0.294237
O25	O	-0.389976	-1.396458	-0.394765
O26	O	0.110024	-0.896458	0.105235
O27	O	-0.411906	-1.224230	-0.300975
O28	O	0.088094	-0.724230	0.199025
O29	O	-0.242916	-1.543549	-0.370616
O30	O	0.257084	-1.043549	0.129384
O31	O	-0.545684	-1.504901	-0.205783
O32	O	-0.045684	-1.004901	0.294217
O33	O	-0.562230	-1.374470	-0.300986
O34	O	-0.062230	-0.874470	0.199014
C35	C	-0.351583	-1.193989	-0.256935
C36	C	0.148417	-0.693989	0.243065
C37	C	-0.366613	-1.075931	-0.267876
C38	C	0.133387	-0.575931	0.232124
C39	C	-0.308676	-1.031493	-0.225702
C40	C	0.191324	-0.531493	0.274298
C41	C	-0.324209	-0.909473	-0.237009
C42	C	0.175791	-0.409473	0.262991
C43	C	-0.592496	-1.434803	-0.256964
C44	C	-0.092496	-0.934803	0.243036
C45	C	-0.710552	-1.419865	-0.267913
C46	C	-0.210552	-0.919865	0.232087
C47	C	-0.754956	-1.477798	-0.225715
C48	C	-0.254956	-0.977798	0.274285
C49	C	-0.876973	-1.462361	-0.237030
C50	C	-0.376973	-0.962361	0.262970
C51	C	-0.039443	-1.505255	-0.205755
C52	C	0.460557	-1.005255	0.294245
C53	C	0.078627	-1.520301	-0.194826
C54	C	0.578627	-1.020301	0.305174
C55	C	-0.316436	-1.470014	-0.407935
C56	C	0.183564	-0.970014	0.092065
C57	C	-0.316404	-1.470043	-0.483162
C58	C	0.183596	-0.970043	0.016838
C59	C	-0.281293	-0.746980	-0.205768
C60	C	0.218707	-0.246980	0.294232
C61	C	-0.266265	-0.865039	-0.194829
C62	C	0.233735	-0.365039	0.305171
C63	C	-0.239826	-1.546635	-0.505932
C64	C	0.260174	-1.046635	-0.005932
C65	C	-0.239794	-1.546650	-0.576617
C66	C	0.260206	-1.046650	-0.076617
C67	C	-0.316345	-1.470076	-0.624530
C68	C	0.183655	-0.970076	-0.124530
C69	C	-0.392927	-1.393476	-0.601755
C70	C	0.107073	-0.893476	-0.101755
C71	C	-0.392953	-1.393457	-0.531072
C72	C	0.107047	-0.893457	-0.031072
C73	C	-0.392820	-1.393548	-0.886814
C74	C	0.107180	-0.893548	-0.386814
C75	C	-0.392789	-1.393575	-0.957502
C76	C	0.107211	-0.893575	-0.457502
C77	C	-0.239661	-1.546741	-0.932359
C78	C	0.260339	-1.046741	-0.432359
C79	C	-0.239687	-1.546722	-0.861676
C80	C	0.260313	-1.046722	-0.361676
C81	C	-0.316265	-1.470119	-0.838907
C82	C	0.183735	-0.970119	-0.338907
C83	C	-0.316298	-1.470103	-0.762263
C84	C	0.183702	-0.970103	-0.262263
C85	C	-0.316318	-1.470096	-0.701173
C86	C	0.183682	-0.970096	-0.201173
C87	C	-0.316500	-1.469949	-0.055547
C88	C	0.183500	-0.969949	0.444453
C89	C	-0.316206	-1.470163	0.019727
C90	C	0.183794	-0.970163	0.519727
H91	H	-0.702642	-1.538829	-0.181212
H92	H	-0.202642	-1.038829	0.318788
C93	C	-0.947633	-1.379914	-0.297156
C94	C	-0.447633	-0.879914	0.202844
H95	H	-1.020373	-1.380350	-0.296871
H96	H	-0.520373	-0.880350	0.203129
H97	H	-0.927478	-1.397697	-0.339532
H98	H	-0.427478	-0.897697	0.160468
H99	H	-0.938655	-1.310823	-0.292148
H100	H	-0.438655	-0.810823	0.207852
H101	H	-0.455252	-1.331125	-0.640772
H102	H	0.044748	-0.831125	-0.140772
C103	C	-0.850717	-1.602726	-0.134687
C104	C	-0.350717	-1.102726	0.365313
H105	H	-0.777979	-1.602276	-0.134962
H106	H	-0.277979	-1.102276	0.365038
H107	H	-0.859687	-1.671822	-0.139673
H108	H	-0.359687	-1.171822	0.360327
H109	H	-0.870888	-1.584908	-0.092317
H110	H	-0.370888	-1.084908	0.407683
H111	H	-0.455129	-1.331215	-0.996513
H112	H	0.044871	-0.831215	-0.496513
C113	C	-0.781216	-1.337423	-0.328036
C114	C	-0.281216	-0.837423	0.171964
H115	H	-0.853955	-1.337859	-0.327751
H116	H	-0.353955	-0.837859	0.172249
H117	H	-0.761061	-1.355206	-0.370412
H118	H	-0.261061	-0.855206	0.129588
H119	H	-0.772237	-1.268332	-0.323028
H120	H	-0.272237	-0.768332	0.176972
H121	H	-0.205162	-0.917323	-0.150347
H122	H	0.294838	-0.417323	0.349653
H123	H	-0.385317	-0.857187	-0.281488
H124	H	0.114683	-0.357187	0.218512
C125	C	-0.226125	-1.102117	-0.165618
C126	C	0.273875	-0.602117	0.334382
H127	H	-0.191793	-1.058414	-0.140623
H128	H	0.308207	-0.558414	0.359377
H129	H	-0.174428	-1.151287	-0.183297
H130	H	0.325572	-0.651287	0.316703
H131	H	-0.261232	-1.140208	-0.135857
H132	H	0.238768	-0.640208	0.364143
H133	H	-0.177355	-1.609079	-0.822667
H134	H	0.322645	-1.109079	-0.322667
H135	H	-0.177439	-1.609021	-0.595152
H136	H	0.322561	-1.109021	-0.095152
C137	C	-0.155615	-1.630863	-0.453234
C138	C	0.344385	-1.130863	0.046766
H139	H	-0.109997	-1.676472	-0.476922
H140	H	0.390003	-1.176472	0.023078
H141	H	-0.190370	-1.671959	-0.425139
H142	H	0.309630	-1.171959	0.074861
H143	H	-0.114504	-1.596113	-0.425137
H144	H	0.385496	-1.096113	0.074863
H145	H	-0.455301	-1.331079	-0.512534
H146	H	0.044699	-0.831079	-0.012534
H147	H	-0.177304	-1.609112	-0.950905
H148	H	0.322696	-1.109112	-0.450905
C149	C	-0.477032	-1.309270	-0.861777
C150	C	0.022968	-0.809270	-0.361777
H151	H	-0.522617	-1.263671	-0.900437
H152	H	-0.022617	-0.763671	-0.400437
H153	H	-0.442265	-1.268173	-0.834729
H154	H	0.057735	-0.768173	-0.334729
H155	H	-0.518181	-1.343969	-0.834725
H156	H	-0.018181	-0.843969	-0.334725
H157	H	-0.427717	-1.023641	-0.312352
H158	H	0.072283	-0.523641	0.187648
