data_functionalizedCrystal
_audit_creation_method	'MofGen! by Chris Wilmer'
_symmetry_space_group_name_H-M	'P1'
_symmetry_Int_Tables_number	1
_symmetry_cell_setting	triclinic
loop_
_symmetry_equiv_pos_as_xyz
  x,y,z
_cell_length_a	10.489741
_cell_length_b	14.971486
_cell_length_c	14.048226
_cell_angle_alpha	90.006640
_cell_angle_beta	89.991576
_cell_angle_gamma	95.923349
loop_
_atom_site_label
_atom_site_type_symbol
_atom_site_fract_x
_atom_site_fract_y
_atom_site_fract_z
O1	O	1.692596	-0.126198	-0.079205
O2	O	1.321264	-0.138043	-0.079198
O3	O	1.516883	-0.001977	-0.079195
O4	O	1.496977	-0.262264	-0.079208
O5	O	1.516859	-0.001969	0.079126
O6	O	1.321240	-0.138035	0.079124
O7	O	1.692573	-0.126189	0.079116
Zn8	Zn	1.506903	-0.132111	0.104257
Zn9	Zn	1.506934	-0.132122	-0.104339
O10	O	1.496954	-0.262256	0.079113
C11	C	1.273731	-0.137144	-0.000036
C12	C	1.132132	-0.134468	-0.000033
C13	C	1.515981	0.031357	-0.000035
C14	C	1.513313	0.130669	-0.000035
C15	C	1.740106	-0.127088	-0.000048
C16	C	1.881704	-0.129765	-0.000057
C17	C	1.948843	-0.216340	-0.000052
C18	C	2.041454	-0.175447	-0.078107
C19	C	2.041397	-0.175418	0.077985
C20	C	1.972451	-0.088836	-0.078177
C21	C	1.972385	-0.088819	0.077985
C22	C	2.064970	-0.047863	-0.000089
C23	C	1.497856	-0.295589	-0.000049
C24	C	1.500523	-0.394902	-0.000055
N25	N	1.506891	-0.132103	0.246617
C26	C	1.628234	0.187241	-0.000037
C27	C	1.625720	0.280554	-0.000047
C28	C	1.508283	0.317295	-0.000048
C29	C	1.393354	0.260716	-0.000049
C30	C	1.395869	0.167404	-0.000046
C31	C	1.388119	0.455209	-0.000052
C32	C	1.385603	0.548527	-0.000053
C33	C	1.617969	0.568359	-0.000053
C34	C	1.620485	0.475047	-0.000050
C35	C	1.505554	0.418474	-0.000049
N36	N	1.506956	-0.132123	-0.246699
C37	C	1.593538	-0.071878	0.296437
C38	C	1.593547	-0.071878	0.396094
C39	C	1.506913	-0.132107	0.445931
C40	C	1.420257	-0.192335	0.396105
C41	C	1.420243	-0.192330	0.296449
C42	C	1.420293	-0.192341	0.603819
C43	C	1.420308	-0.192347	0.703482
C44	C	1.593597	-0.071889	0.703464
C45	C	1.593584	-0.071884	0.603808
C46	C	1.506928	-0.132113	0.553989
H47	H	1.898370	-0.287522	-0.000134
H48	H	2.072061	-0.212083	-0.144099
O49	O	1.264162	0.394186	-0.000042
H50	H	1.182077	0.435409	-0.000030
O51	O	1.686974	-0.006913	0.242685
H52	H	1.747217	0.034972	0.294074
H53	H	2.071940	-0.212061	0.143978
O54	O	1.747144	0.435412	-0.000044
H55	H	1.753844	0.393359	-0.064568
O56	O	1.741936	0.629368	-0.000063
H57	H	1.720463	0.700426	-0.000078
O58	O	1.266689	0.300343	-0.000039
H59	H	1.259995	0.342384	-0.064561
O60	O	1.754906	0.147623	-0.000042
H61	H	1.761615	0.105599	0.064492
H62	H	1.289976	0.578438	-0.000039
H63	H	1.942056	-0.052242	-0.144246
O64	O	1.271917	0.106385	-0.000032
H65	H	1.215725	0.119535	-0.064555
O66	O	1.749669	0.341574	-0.000033
H67	H	1.831751	0.300349	-0.000014
H68	H	1.349684	-0.241370	0.255887
O69	O	1.687024	-0.006938	0.449832
H70	H	1.747282	0.034931	0.398435
H71	H	1.349761	-0.241391	0.744054
H72	H	2.115210	0.023384	-0.000123
H73	H	1.664133	-0.022846	0.563232
O74	O	1.687057	-0.006918	0.757189
H75	H	1.672504	-0.017029	0.834858
H76	H	1.941750	-0.052215	0.143984
O77	O	1.326838	-0.257305	0.550079
H78	H	1.266609	-0.299196	0.601474
H79	H	1.349711	-0.241372	0.436687
