data_functionalizedCrystal
_audit_creation_method	'MofGen! by Chris Wilmer'
_symmetry_space_group_name_H-M	'P1'
_symmetry_Int_Tables_number	1
_symmetry_cell_setting	triclinic
loop_
_symmetry_equiv_pos_as_xyz
  x,y,z
_cell_length_a	17.038278
_cell_length_b	17.038272
_cell_length_c	12.996460
_cell_angle_alpha	89.993697
_cell_angle_beta	89.994454
_cell_angle_gamma	91.111028
loop_
_atom_site_label
_atom_site_type_symbol
_atom_site_fract_x
_atom_site_fract_y
_atom_site_fract_z
O1	O	1.048755	0.170529	-0.085577
O2	O	1.298755	0.420529	0.164423
O3	O	1.548755	0.670529	0.414423
O4	O	1.798755	0.920529	0.664423
O5	O	0.820944	0.167823	-0.085577
O6	O	1.070944	0.417823	0.164423
O7	O	1.320944	0.667823	0.414423
O8	O	1.570944	0.917823	0.664423
O9	O	0.933495	0.055270	-0.085569
O10	O	1.183495	0.305270	0.164431
O11	O	1.433495	0.555270	0.414431
O12	O	1.683495	0.805270	0.664431
O13	O	0.936203	0.283082	-0.085585
O14	O	1.186203	0.533082	0.164415
O15	O	1.436203	0.783082	0.414415
O16	O	1.686203	1.033082	0.664415
O17	O	0.933482	0.055262	0.085565
O18	O	1.183482	0.305262	0.335565
O19	O	1.433482	0.555262	0.585565
O20	O	1.683482	0.805262	0.835565
O21	O	0.820931	0.167815	0.085557
O22	O	1.070931	0.417815	0.335557
O23	O	1.320931	0.667815	0.585557
O24	O	1.570931	0.917815	0.835557
O25	O	1.048742	0.170521	0.085557
O26	O	1.298742	0.420521	0.335557
O27	O	1.548742	0.670521	0.585557
O28	O	1.798742	0.920521	0.835557
Cu29	Cu	0.934835	0.169168	0.101183
Cu30	Cu	1.184835	0.419168	0.351183
Cu31	Cu	1.434835	0.669168	0.601183
Cu32	Cu	1.684835	0.919168	0.851183
Cu33	Cu	0.934851	0.169176	-0.101203
Cu34	Cu	1.184851	0.419176	0.148797
Cu35	Cu	1.434851	0.669176	0.398797
Cu36	Cu	1.684851	0.919176	0.648797
O37	O	0.936190	0.283074	0.085549
O38	O	1.186190	0.533074	0.335549
O39	O	1.436190	0.783074	0.585549
O40	O	1.686190	1.033074	0.835549
C41	C	0.791645	0.165356	-0.000010
C42	C	1.041645	0.415356	0.249990
C43	C	1.291645	0.665356	0.499990
C44	C	1.541645	0.915356	0.749990
C45	C	0.704361	0.158009	-0.000010
C46	C	0.954361	0.408009	0.249990
C47	C	1.204361	0.658009	0.499990
C48	C	1.454361	0.908009	0.749990
C49	C	0.210935	0.112872	-0.000011
C50	C	0.460935	0.362872	0.249989
C51	C	0.710935	0.612872	0.499989
C52	C	0.960935	0.862872	0.749989
C53	C	0.292947	0.119781	-0.000005
C54	C	0.542947	0.369781	0.249995
C55	C	0.792947	0.619781	0.499995
C56	C	1.042947	0.869781	0.749995
C57	C	0.329347	0.194155	-0.000015
C58	C	0.579347	0.444155	0.249985
C59	C	0.829347	0.694155	0.499985
C60	C	1.079347	0.944155	0.749985
C61	C	0.283730	0.261623	-0.000020
C62	C	0.533730	0.511623	0.249980
C63	C	0.783730	0.761623	0.499980
C64	C	1.033730	1.011623	0.749980
C65	C	0.201720	0.254713	-0.000019
C66	C	0.451720	0.504713	0.249981
C67	C	0.701720	0.754713	0.499981
C68	C	0.951720	1.004713	0.749981
C69	C	0.576734	0.218567	-0.000014
C70	C	0.826734	0.468567	0.249986
C71	C	1.076734	0.718567	0.499986
C72	C	1.326734	0.968567	0.749986
C73	C	0.658751	0.225473	-0.000018
C74	C	0.908751	0.475473	0.249982
C75	C	1.158751	0.725473	0.499982
C76	C	1.408751	0.975473	0.749982
C77	C	0.667962	0.083630	-0.000001
C78	C	0.917962	0.333630	0.249999
C79	C	1.167962	0.583630	0.499999
C80	C	1.417962	0.833630	0.749999
C81	C	0.585949	0.076726	-0.000006
C82	C	0.835949	0.326726	0.249994
C83	C	1.085949	0.576726	0.499994
C84	C	1.335949	0.826726	0.749994
C85	C	0.540340	0.144194	-0.000006
C86	C	0.790340	0.394194	0.249994
C87	C	1.040340	0.644194	0.499994
C88	C	1.290340	0.894194	0.749994
C89	C	0.413176	0.201219	-0.000012
C90	C	0.663176	0.451219	0.249988
C91	C	0.913176	0.701219	0.499988
C92	C	1.163176	0.951219	0.749988
C93	C	0.456513	0.137129	-0.000001
C94	C	0.706513	0.387129	0.249999
C95	C	0.956513	0.637129	0.499999
C96	C	1.206513	0.887129	0.749999
C97	C	0.931026	0.025974	-0.000002
C98	C	1.181026	0.275974	0.249998
C99	C	1.431026	0.525974	0.499998
C100	C	1.681026	0.775974	0.749998
C101	C	0.923678	-0.061310	-0.000002
C102	C	1.173678	0.188690	0.249998
C103	C	1.423678	0.438690	0.499998
C104	C	1.673678	0.688690	0.749998
C105	C	0.991142	-0.106920	-0.000001
C106	C	1.241142	0.143080	0.249999
C107	C	1.491142	0.393080	0.499999
C108	C	1.741142	0.643080	0.749999
C109	C	0.984233	-0.188932	-0.000011
C110	C	1.234233	0.061068	0.249989
C111	C	1.484233	0.311068	0.499989
C112	C	1.734233	0.561068	0.749989
C113	C	0.909859	-0.225332	-0.000015
C114	C	1.159859	0.024668	0.249985
C115	C	1.409859	0.274668	0.499985
C116	C	1.659859	0.524668	0.749985
C117	C	0.842391	-0.179716	-0.000019
C118	C	1.092391	0.070284	0.249981
C119	C	1.342391	0.320284	0.499981
C120	C	1.592391	0.570284	0.749981
C121	C	0.849300	-0.097706	-0.000016
C122	C	1.099300	0.152294	0.249984
C123	C	1.349300	0.402294	0.499984
C124	C	1.599300	0.652294	0.749984
C125	C	0.885449	-0.472720	-0.000029
C126	C	1.135449	-0.222720	0.249971
C127	C	1.385449	0.027280	0.499971
C128	C	1.635449	0.277280	0.749971
C129	C	0.878544	-0.554736	-0.000028
C130	C	1.128544	-0.304736	0.249972
C131	C	1.378544	-0.054736	0.499972
C132	C	1.628544	0.195264	0.749972
C133	C	1.020387	-0.563946	-0.000022
C134	C	1.270387	-0.313946	0.249978
C135	C	1.520387	-0.063946	0.499978
C136	C	1.770387	0.186054	0.749978
C137	C	1.027290	-0.481934	-0.000014
C138	C	1.277290	-0.231934	0.249986
C139	C	1.527290	0.018066	0.499986
C140	C	1.777290	0.268066	0.749986
C141	C	0.959821	-0.436325	-0.000023
C142	C	1.209821	-0.186325	0.249977
C143	C	1.459821	0.063675	0.499977
C144	C	1.709821	0.313675	0.749977
C145	C	0.902796	-0.309161	-0.000021
C146	C	1.152796	-0.059161	0.249979
C147	C	1.402796	0.190839	0.499979
C148	C	1.652796	0.440839	0.749979
C149	C	0.966886	-0.352497	-0.000024
C150	C	1.216886	-0.102497	0.249976
C151	C	1.466886	0.147503	0.499976
C152	C	1.716886	0.397503	0.749976
C153	C	1.078041	0.172988	-0.000012
C154	C	1.328041	0.422988	0.249988
C155	C	1.578041	0.672988	0.499988
C156	C	1.828041	0.922988	0.749988
C157	C	1.165325	0.180335	-0.000019
C158	C	1.415325	0.430335	0.249981
C159	C	1.665325	0.680335	0.499981
C160	C	1.915325	0.930335	0.749981
C161	C	0.938660	0.312370	-0.000020
C162	C	1.188660	0.562370	0.249980
C163	C	1.438660	0.812370	0.499980
C164	C	1.688660	1.062370	0.749980
C165	C	0.946008	0.399654	-0.000027
C166	C	1.196008	0.649654	0.249973
C167	C	1.446008	0.899654	0.499973
C168	C	1.696008	1.149654	0.749973
N169	N	0.934830	0.169161	0.243530
N170	N	1.184830	0.419161	0.493530
N171	N	1.434830	0.669161	0.743530
N172	N	1.684830	0.919161	0.993530
N173	N	0.934862	0.169177	-0.243550
N174	N	1.184862	0.419177	0.006450
N175	N	1.434862	0.669177	0.256450
N176	N	1.684862	0.919177	0.506450
C177	C	0.934850	0.169177	0.663344
C178	C	1.184850	0.419177	0.913344
C179	C	1.434850	0.669177	1.163344
C180	C	1.684850	0.919177	1.413344
C181	C	0.934842	0.169175	0.546539
C182	C	1.184842	0.419175	0.796539
C183	C	1.434842	0.669175	1.046539
C184	C	1.684842	0.919175	1.296539
C185	C	0.934840	0.169170	0.453441
C186	C	1.184840	0.419170	0.703441
C187	C	1.434840	0.669170	0.953441
C188	C	1.684840	0.919170	1.203441
C189	C	0.934832	0.169167	0.336628
C190	C	1.184832	0.419167	0.586628
C191	C	1.434832	0.669167	0.836628
C192	C	1.684832	0.919167	1.086628
H193	H	0.688384	0.286039	-0.000012
H194	H	0.938384	0.536039	0.249988
H195	H	1.188384	0.786039	0.499988
H196	H	1.438384	1.036039	0.749988
H197	H	0.181305	0.052309	-0.000009
H198	H	0.431305	0.302309	0.249991
H199	H	0.681305	0.552309	0.499991
H200	H	0.931305	0.802309	0.749991
H201	H	0.330080	0.064845	0.000006
H202	H	0.580080	0.314845	0.250006
H203	H	0.830080	0.564845	0.500006
H204	H	1.080080	0.814845	0.750006
H205	H	0.830511	-0.435595	-0.000036
H206	H	1.080511	-0.185595	0.249964
H207	H	1.330511	0.064405	0.499964
H208	H	1.580511	0.314405	0.749964
H209	H	0.313374	0.322180	-0.000022
H210	H	0.563374	0.572180	0.249978
H211	H	0.813374	0.822180	0.499978
H212	H	1.063374	1.072180	0.749978
Cl213	Cl	1.069049	-0.246267	-0.000006
Cl214	Cl	1.319049	0.003733	0.249994
Cl215	Cl	1.569049	0.253733	0.499994
Cl216	Cl	1.819049	0.503733	0.749994
H217	H	0.442822	0.261775	-0.000024
H218	H	0.692822	0.511775	0.249976
H219	H	0.942822	0.761775	0.499976
H220	H	1.192822	1.011775	0.749976
H221	H	0.539609	0.273505	-0.000019
H222	H	0.789609	0.523505	0.249981
H223	H	1.039609	0.773505	0.499981
H224	H	1.289609	1.023505	0.749981
H225	H	0.781834	-0.209360	-0.000028
H226	H	1.031834	0.040640	0.249972
H227	H	1.281834	0.290640	0.499972
H228	H	1.531834	0.540640	0.749972
H229	H	0.164585	0.309649	-0.000022
H230	H	0.414585	0.559649	0.249978
H231	H	0.664585	0.809649	0.499978
H232	H	0.914585	1.059649	0.749978
Cl233	Cl	0.809300	-0.354929	-0.000031
Cl234	Cl	1.059300	-0.104929	0.249969
Cl235	Cl	1.309300	0.145071	0.499969
Cl236	Cl	1.559300	0.395071	0.749969
H237	H	0.794364	-0.060571	-0.000018
H238	H	1.044364	0.189429	0.249982
H239	H	1.294364	0.439429	0.499982
H240	H	1.544364	0.689429	0.749982
Cl241	Cl	0.410751	0.043634	0.000016
Cl242	Cl	0.660751	0.293634	0.250016
Cl243	Cl	0.910751	0.543634	0.500016
Cl244	Cl	1.160751	0.793634	0.750016
Cl245	Cl	1.105199	-0.621287	-0.000013
Cl246	Cl	1.355199	-0.371287	0.249987
Cl247	Cl	1.605199	-0.121287	0.499987
Cl248	Cl	1.855199	0.128713	0.749987
H249	H	1.051704	-0.077289	0.000008
H250	H	1.301704	0.172711	0.250008
H251	H	1.551704	0.422711	0.500008
H252	H	1.801704	0.672711	0.750008
H253	H	1.087852	-0.452303	-0.000010
H254	H	1.337852	-0.202303	0.249990
H255	H	1.587852	0.047697	0.499990
H256	H	1.837852	0.297697	0.749990
H257	H	0.556319	0.016163	0.000002
H258	H	0.806319	0.266163	0.250002
H259	H	1.056319	0.516163	0.500002
H260	H	1.306319	0.766163	0.750002
Cl261	Cl	1.060380	-0.306735	-0.000025
Cl262	Cl	1.310380	-0.056735	0.249975
Cl263	Cl	1.560380	0.193265	0.499975
Cl264	Cl	1.810380	0.443265	0.749975
H265	H	0.817978	-0.584370	-0.000014
H266	H	1.067978	-0.334370	0.249986
H267	H	1.317978	-0.084370	0.499986
H268	H	1.567978	0.165630	0.749986
H269	H	0.705105	0.028701	-0.000000
H270	H	0.955105	0.278701	0.250000
H271	H	1.205105	0.528701	0.500000
H272	H	1.455105	0.778701	0.750000
