data_functionalizedCrystal
_audit_creation_method	'MofGen! by Chris Wilmer'
_symmetry_space_group_name_H-M	'P1'
_symmetry_Int_Tables_number	1
_symmetry_cell_setting	triclinic
loop_
_symmetry_equiv_pos_as_xyz
  x,y,z
_cell_length_a	17.699077
_cell_length_b	10.723022
_cell_length_c	16.176319
_cell_angle_alpha	89.994397
_cell_angle_beta	89.993140
_cell_angle_gamma	83.873901
loop_
_atom_site_label
_atom_site_type_symbol
_atom_site_fract_x
_atom_site_fract_y
_atom_site_fract_z
O1	O	1.005076	0.157762	-0.068733
O2	O	1.505076	0.657762	0.431267
O3	O	0.784827	0.178299	-0.068737
O4	O	1.284827	0.678299	0.431263
O5	O	0.900032	-0.013633	-0.068732
O6	O	1.400032	0.486367	0.431268
O7	O	0.889870	0.349694	-0.068739
O8	O	1.389870	0.849694	0.431261
O9	O	0.900016	-0.013645	0.068761
O10	O	1.400016	0.486355	0.568761
O11	O	0.784811	0.178287	0.068756
O12	O	1.284811	0.678287	0.568756
O13	O	1.005060	0.157750	0.068760
O14	O	1.505060	0.657750	0.568760
Cu15	Cu	0.894934	0.168017	0.081312
Cu16	Cu	1.394934	0.668017	0.581312
Cu17	Cu	0.894953	0.168032	-0.081290
Cu18	Cu	1.394953	0.668032	0.418710
O19	O	0.889854	0.349682	0.068755
O20	O	1.389854	0.849682	0.568755
C21	C	0.756617	0.177559	0.000009
C22	C	1.256617	0.677559	0.500009
C23	C	0.672585	0.175355	0.000007
C24	C	1.172585	0.675355	0.500007
C25	C	0.633102	0.174310	0.074956
C26	C	1.133102	0.674310	0.574956
C27	C	0.554146	0.172219	0.074957
C28	C	1.054146	0.672219	0.574957
C29	C	0.514674	0.171182	0.000008
C30	C	1.014674	0.671182	0.500008
C31	C	0.554163	0.172224	-0.074946
C32	C	1.054163	0.672224	0.425054
C33	C	0.633117	0.174306	-0.074946
C34	C	1.133117	0.674306	0.425054
C35	C	0.235746	0.163827	-0.074947
C36	C	0.735746	0.663827	0.425053
C37	C	0.156786	0.161749	-0.074942
C38	C	0.656786	0.661749	0.425058
C39	C	0.156775	0.161740	0.074955
C40	C	0.656775	0.661740	0.574955
C41	C	0.235730	0.163822	0.074955
C42	C	0.735730	0.663822	0.574955
C43	C	0.275212	0.164856	0.000002
C44	C	0.775212	0.664856	0.500002
C45	C	0.360825	0.167121	0.000002
C46	C	0.860825	0.667121	0.500002
C47	C	0.429062	0.168927	0.000008
C48	C	0.929062	0.668927	0.500008
C49	C	0.899285	-0.060126	0.000013
C50	C	1.399285	0.439874	0.500013
C51	C	0.897073	-0.198642	0.000010
C52	C	1.397073	0.301358	0.500010
C53	C	0.830638	-0.246062	0.000008
C54	C	1.330638	0.253938	0.500008
C55	C	0.828351	-0.389225	0.000005
C56	C	1.328351	0.110775	0.500005
C57	C	1.033270	0.158490	0.000012
C58	C	1.533270	0.658490	0.500012
C59	C	1.117302	0.160694	0.000008
C60	C	1.617302	0.660694	0.500008
C61	C	0.890602	0.396175	0.000007
C62	C	1.390602	0.896175	0.500007
C63	C	0.892813	0.534692	0.000005
C64	C	1.392813	1.034692	0.500005
N65	N	0.894926	0.168006	0.195677
N66	N	1.394926	0.668006	0.695677
N67	N	0.894967	0.168033	-0.195655
N68	N	1.394967	0.668033	0.304345
C69	C	0.945955	0.083053	0.238944
C70	C	1.445955	0.583053	0.738944
C71	C	0.945959	0.083052	0.325491
C72	C	1.445959	0.583052	0.825491
C73	C	0.894937	0.168011	0.368770
C74	C	1.394937	0.668011	0.868770
C75	C	0.843903	0.252968	0.325497
C76	C	1.343903	0.752968	0.825497
C77	C	0.843896	0.252962	0.238952
C78	C	1.343896	0.752962	0.738952
C79	C	0.843929	0.252991	0.674526
C80	C	1.343929	0.752991	1.174526
C81	C	0.843941	0.252993	0.761077
C82	C	1.343941	0.752993	1.261077
C83	C	0.945992	0.083081	0.761065
C84	C	1.445992	0.583081	1.261065
C85	C	0.945985	0.083076	0.674519
C86	C	1.445985	0.583076	1.174519
C87	C	0.894948	0.168028	0.631254
C88	C	1.394948	0.668028	1.131254
C89	C	0.894944	0.168026	0.537410
C90	C	1.394944	0.668026	1.037410
C91	C	0.894944	0.168019	0.462612
C92	C	1.394944	0.668019	0.962612
H93	H	0.124620	0.160892	0.135986
H94	H	0.624620	0.660892	0.635986
Br95	Br	0.774693	0.368303	0.819813
Br96	Br	1.274693	0.868303	1.319813
H97	H	0.987534	0.013899	0.639284
H98	H	1.487534	0.513899	1.139284
H99	H	0.987510	0.013876	0.360718
H100	H	1.487510	0.513876	0.860718
Br101	Br	1.015256	-0.032216	0.819785
Br102	Br	1.515256	0.467784	1.319785
Br103	Br	0.103216	0.160343	-0.176664
Br104	Br	0.603216	0.660343	0.323336
Br105	Br	0.774668	0.368282	0.615814
Br106	Br	1.274668	0.868282	1.115814
H107	H	0.802356	0.322139	0.360740
H108	H	1.302356	0.822139	0.860740
Br109	Br	0.774634	0.368253	0.180233
Br110	Br	1.274634	0.868253	0.680233
Br111	Br	0.500564	0.170821	0.176677
Br112	Br	1.000564	0.670821	0.676677
Br113	Br	0.500598	0.170762	-0.176663
Br114	Br	1.000598	0.670762	0.323337
Br115	Br	0.289295	0.165240	0.176674
Br116	Br	0.789295	0.665240	0.676674
Br117	Br	0.686703	0.175713	-0.176666
Br118	Br	1.186703	0.675713	0.323334
Br119	Br	0.686663	0.175729	0.176677
Br120	Br	1.186663	0.675729	0.676677
H121	H	0.775454	-0.180671	0.000012
H122	H	1.275454	0.319329	0.500012
H123	H	0.267883	0.164665	-0.135979
H124	H	0.767883	0.664665	0.364021
H125	H	0.771469	-0.430060	-0.000002
H126	H	1.271469	0.069940	0.499998
H127	H	0.949698	-0.424482	-0.000024
H128	H	1.449698	0.075518	0.499976
H129	H	0.952257	-0.264033	0.000014
H130	H	1.452257	0.235967	0.500014
H131	H	0.987506	0.013876	0.203712
H132	H	1.487506	0.513876	0.703712
