data_functionalizedCrystal
_audit_creation_method	'MofGen! by Chris Wilmer'
_symmetry_space_group_name_H-M	'P1'
_symmetry_Int_Tables_number	1
_symmetry_cell_setting	triclinic
loop_
_symmetry_equiv_pos_as_xyz
  x,y,z
_cell_length_a	16.120490
_cell_length_b	12.594515
_cell_length_c	16.120297
_cell_angle_alpha	92.876747
_cell_angle_beta	89.870317
_cell_angle_gamma	92.879353
loop_
_atom_site_label
_atom_site_type_symbol
_atom_site_fract_x
_atom_site_fract_y
_atom_site_fract_z
Zn1	Zn	1.247412	0.539329	0.534565
Zn2	Zn	1.497412	0.789329	0.784565
Zn3	Zn	1.747412	1.039329	1.034565
Zn4	Zn	1.997412	1.289329	1.284565
Zn5	Zn	1.254352	0.708771	0.395517
Zn6	Zn	1.504352	0.958771	0.645517
Zn7	Zn	1.754352	1.208771	0.895517
Zn8	Zn	2.004352	1.458771	1.145517
Zn9	Zn	1.115403	0.521334	0.388485
Zn10	Zn	1.365403	0.771334	0.638485
Zn11	Zn	1.615403	1.021334	0.888485
Zn12	Zn	1.865403	1.271334	1.138485
Zn13	Zn	1.108307	0.707781	0.527490
Zn14	Zn	1.358307	0.957781	0.777490
Zn15	Zn	1.608307	1.207781	1.027490
Zn16	Zn	1.858307	1.457781	1.277490
O17	O	1.181368	0.619304	0.461514
O18	O	1.431368	0.869304	0.711514
O19	O	1.681368	1.119304	0.961514
O20	O	1.931368	1.369304	1.211514
O21	O	1.364699	0.569752	0.522024
O22	O	1.614699	0.819752	0.772024
O23	O	1.864699	1.069752	1.022024
O24	O	2.114699	1.319752	1.272024
O25	O	1.241793	0.676790	0.278218
O26	O	1.491793	0.926790	0.528218
O27	O	1.741793	1.176790	0.778218
O28	O	1.991793	1.426790	1.028218
O29	O	1.132979	0.374781	0.407881
O30	O	1.382979	0.624781	0.657881
O31	O	1.632979	0.874781	0.907881
O32	O	1.882979	1.124781	1.157881
O33	O	1.369797	0.694240	0.419866
O34	O	1.619797	0.944240	0.669866
O35	O	1.869797	1.194240	0.919866
O36	O	2.119797	1.444240	1.169866
O37	O	1.229966	0.388002	0.515206
O38	O	1.479966	0.638002	0.765206
O39	O	1.729966	0.888002	1.015206
O40	O	1.979966	1.138002	1.265206
O41	O	1.139708	0.539081	0.273052
O42	O	1.389708	0.789081	0.523052
O43	O	1.639708	1.039081	0.773052
O44	O	1.889708	1.289081	1.023052
O45	O	0.998095	0.538121	0.401021
O46	O	1.248095	0.788121	0.651021
O47	O	1.498095	1.038121	0.901021
O48	O	1.748095	1.288121	1.151021
O49	O	1.120886	0.692552	0.644794
O50	O	1.370886	0.942552	0.894794
O51	O	1.620886	1.192552	1.144794
O52	O	1.870886	1.442552	1.394794
O53	O	0.992882	0.675103	0.503146
O54	O	1.242882	0.925103	0.753146
O55	O	1.492882	1.175103	1.003146
O56	O	1.742882	1.425103	1.253146
O57	O	1.223086	0.568791	0.649992
O58	O	1.473086	0.818791	0.899992
O59	O	1.723086	1.068791	1.149992
O60	O	1.973086	1.318791	1.399992
O61	O	1.234913	0.857580	0.413005
O62	O	1.484913	1.107580	0.663005
O63	O	1.734913	1.357580	0.913005
O64	O	1.984913	1.607580	1.163005
O65	O	1.127615	0.856852	0.509965
O66	O	1.377615	1.106852	0.759965
O67	O	1.627615	1.356852	1.009965
O68	O	1.877615	1.606852	1.259965
C69	C	0.965316	0.604553	0.450553
C70	C	1.215316	0.854553	0.700553
C71	C	1.465316	1.104553	0.950553
C72	C	1.715316	1.354553	1.200553
C73	C	0.872887	0.598269	0.445884
C74	C	1.122887	0.848269	0.695884
C75	C	1.372887	1.098269	0.945884
C76	C	1.622887	1.348269	1.195884
C77	C	0.659922	0.651891	0.485736
C78	C	0.909922	0.901891	0.735736
C79	C	1.159922	1.151891	0.985736
C80	C	1.409922	1.401891	1.235736
C81	C	0.703663	0.586806	0.437357
C82	C	0.953663	0.836806	0.687357
C83	C	1.203663	1.086806	0.937357
C84	C	1.453663	1.336806	1.187357
C85	C	0.797828	0.593186	0.442103
C86	C	1.047828	0.843186	0.692103
C87	C	1.297828	1.093186	0.942103
C88	C	1.547828	1.343186	1.192103
C89	C	0.565748	0.645512	0.480992
C90	C	0.815748	0.895512	0.730992
C91	C	1.065748	1.145512	0.980992
C92	C	1.315748	1.395512	1.230992
C93	C	1.181269	0.895837	0.461499
C94	C	1.431269	1.145837	0.711499
C95	C	1.681269	1.395837	0.961499
C96	C	1.931269	1.645837	1.211499
C97	C	1.181301	1.014147	0.461525
C98	C	1.431301	1.264147	0.711525
C99	C	1.681301	1.514147	0.961525
C100	C	1.931301	1.764147	1.211525
C101	C	1.122970	1.153806	0.514235
C102	C	1.372970	1.403806	0.764235
C103	C	1.622970	1.653806	1.014235
C104	C	1.872970	1.903806	1.264235
C105	C	1.197755	1.089320	0.538475
C106	C	1.447755	1.339320	0.788475
C107	C	1.697755	1.589320	1.038475
C108	C	1.947755	1.839320	1.288475
C109	C	1.106522	1.077064	0.437323
C110	C	1.356522	1.327064	0.687323
C111	C	1.606522	1.577064	0.937323
C112	C	1.856522	1.827064	1.187323
C113	C	1.256230	1.160460	0.485843
C114	C	1.506230	1.410460	0.735843
C115	C	1.756230	1.660460	0.985843
C116	C	2.006230	1.910460	1.235843
C117	C	1.164948	1.148205	0.384653
C118	C	1.414948	1.398205	0.634653
C119	C	1.664948	1.648205	0.884653
C120	C	1.914948	1.898205	1.134653
C121	C	1.239787	1.083752	0.408867
C122	C	1.489787	1.333752	0.658867
C123	C	1.739787	1.583752	0.908867
C124	C	1.989787	1.833752	1.158867
C125	C	1.398264	0.634113	0.472518
C126	C	1.648264	0.884113	0.722518
C127	C	1.898264	1.134113	0.972518
C128	C	2.148264	1.384113	1.222518
C129	C	1.490692	0.640424	0.477208
C130	C	1.740692	0.890424	0.727208
C131	C	1.990692	1.140424	0.977208
C132	C	2.240692	1.390424	1.227208
C133	C	1.170420	0.632568	0.678409
C134	C	1.420420	0.882568	0.928409
C135	C	1.670420	1.132568	1.178409
C136	C	1.920420	1.382568	1.428409
C137	C	1.165755	0.638221	0.770837
C138	C	1.415755	0.888221	1.020837
C139	C	1.665755	1.138221	1.270837
C140	C	1.915755	1.388221	1.520837
C141	C	1.181456	1.341691	0.461548
C142	C	1.431456	1.591691	0.711548
C143	C	1.681456	1.841691	0.961548
C144	C	1.931456	2.091691	1.211548
C145	C	1.181406	1.223383	0.461562
C146	C	1.431406	1.473383	0.711562
C147	C	1.681406	1.723383	0.961562
C148	C	1.931406	1.973383	1.211562
C149	C	1.192322	0.606017	0.245465
C150	C	1.442322	0.856017	0.495465
C151	C	1.692322	1.106017	0.745465
C152	C	1.942322	1.356017	0.995465
C153	C	1.197148	0.600076	0.153046
C154	C	1.447148	0.850076	0.403046
C155	C	1.697148	1.100076	0.653046
C156	C	1.947148	1.350076	0.903046
C157	C	1.157206	0.648515	0.940062
C158	C	1.407206	0.898515	1.190062
C159	C	1.657206	1.148515	1.440062
C160	C	1.907206	1.398515	1.690062
C161	C	1.205694	0.589784	0.983826
C162	C	1.455694	0.839784	1.233826
C163	C	1.705694	1.089784	1.483826
C164	C	1.955694	1.339784	1.733826
C165	C	1.200938	0.595512	1.077989
C166	C	1.450938	0.845512	1.327989
C167	C	1.700938	1.095512	1.577989
C168	C	1.950938	1.345512	1.827989
C169	C	1.161962	0.642789	0.845891
C170	C	1.411962	0.892789	1.095891
C171	C	1.661962	1.142789	1.345891
C172	C	1.911962	1.392789	1.595891
H173	H	1.073652	1.184582	0.558834
H174	H	1.323652	1.434582	0.808834
H175	H	1.573652	1.684582	1.058834
H176	H	1.823652	1.934582	1.308834
O177	O	1.097494	0.720816	0.984104
O178	O	1.347494	0.970816	1.234104
O179	O	1.597494	1.220816	1.484104
O180	O	1.847494	1.470816	1.734104
H181	H	1.062701	0.762957	0.937522
H182	H	1.312701	1.012957	1.187522
H183	H	1.562701	1.262957	1.437522
H184	H	1.812701	1.512957	1.687522
H185	H	1.043238	1.040639	0.416838
H186	H	1.293238	1.290639	0.666838
H187	H	1.543238	1.540639	0.916838
H188	H	1.793238	1.790639	1.166838
O189	O	1.305259	1.043253	0.349847
O190	O	1.555259	1.293253	0.599847
O191	O	1.805259	1.543253	0.849847
O192	O	2.055259	1.793253	1.099847
H193	H	1.292122	1.067985	0.286268
H194	H	1.542122	1.317985	0.536268
H195	H	1.792122	1.567985	0.786268
H196	H	2.042122	1.817985	1.036268
O197	O	0.659602	0.506663	0.377756
O198	O	0.909602	0.756663	0.627756
O199	O	1.159602	1.006663	0.877756
O200	O	1.409602	1.256663	1.127756
H201	H	0.591484	0.514177	0.383323
H202	H	0.841484	0.764177	0.633323
H203	H	1.091484	1.014177	0.883323
H204	H	1.341484	1.264177	1.133323
O205	O	1.216150	1.054789	0.624602
O206	O	1.466150	1.304789	0.874602
O207	O	1.716150	1.554789	1.124602
O208	O	1.966150	1.804789	1.374602
H209	H	1.216532	0.966634	0.623663
H210	H	1.466532	1.216634	0.873663
H211	H	1.716532	1.466634	1.123663
H212	H	1.966532	1.716634	1.373663
O213	O	0.703983	0.732029	0.545333
O214	O	0.953983	0.982029	0.795333
O215	O	1.203983	1.232029	1.045333
O216	O	1.453983	1.482029	1.295333
H217	H	0.772100	0.724518	0.539754
H218	H	1.022100	0.974518	0.789754
H219	H	1.272100	1.224518	1.039754
H220	H	1.522100	1.474518	1.289754
H221	H	1.319530	1.196758	0.506404
H222	H	1.569530	1.446758	0.756404
H223	H	1.819530	1.696758	1.006404
H224	H	2.069530	1.946758	1.256404
H225	H	1.151044	1.174289	0.319646
H226	H	1.401044	1.424289	0.569646
H227	H	1.651044	1.674289	0.819646
H228	H	1.901044	1.924289	1.069646
H229	H	1.250777	0.535200	0.950574
H230	H	1.500777	0.785200	1.200574
H231	H	1.750777	1.035200	1.450574
H232	H	2.000777	1.285200	1.700574
