data_functionalizedCrystal
_audit_creation_method	'MofGen! by Chris Wilmer'
_symmetry_space_group_name_H-M	'P1'
_symmetry_Int_Tables_number	1
_symmetry_cell_setting	triclinic
loop_
_symmetry_equiv_pos_as_xyz
  x,y,z
_cell_length_a	11.169417
_cell_length_b	16.120484
_cell_length_c	11.169409
_cell_angle_alpha	87.139270
_cell_angle_beta	90.019824
_cell_angle_gamma	92.926269
loop_
_atom_site_label
_atom_site_type_symbol
_atom_site_fract_x
_atom_site_fract_y
_atom_site_fract_z
Zn1	Zn	1.810616	-0.331818	0.702705
Zn2	Zn	1.800274	-0.471261	0.512176
Zn3	Zn	1.609898	-0.331869	0.502043
Zn4	Zn	1.599683	-0.471193	0.712816
O5	O	1.705118	-0.401535	0.607435
O6	O	1.977193	-0.350323	0.677440
O7	O	1.774967	-0.452820	0.342886
O8	O	1.645127	-0.215197	0.520189
O9	O	1.969595	-0.452771	0.537459
O10	O	1.792593	-0.215160	0.667615
O11	O	1.635099	-0.350409	0.335441
O12	O	1.440594	-0.350344	0.529994
O13	O	1.627717	-0.452655	0.879421
O14	O	1.433089	-0.452705	0.684847
O15	O	1.782688	-0.350257	0.871993
O16	O	1.765062	-0.587917	0.547264
O17	O	1.617688	-0.587867	0.694673
C18	C	1.393294	-0.401523	0.607419
C19	C	1.259893	-0.401537	0.607442
C20	C	1.689177	-0.618142	0.623191
C21	C	1.682467	-0.710808	0.629972
C22	C	1.670224	-0.880468	0.642376
C23	C	1.740226	-0.921762	0.572514
C24	C	1.733414	-1.016167	0.579416
C25	C	1.677035	-0.786055	0.635476
C26	C	2.018159	-0.401549	0.607452
C27	C	2.151558	-0.401554	0.607460
C28	C	1.705217	-0.401443	0.920471
C29	C	1.705259	-0.401403	1.053868
C30	C	1.721153	-0.184083	0.591644
C31	C	1.727987	-0.091417	0.584915
C32	C	1.705093	-0.401568	0.295613
C33	C	1.705300	-0.401372	0.162199
H34	H	1.805272	-0.886215	0.507520
H35	H	1.605182	-0.916013	0.707363
