data_functionalizedCrystal
_audit_creation_method	'MofGen! by Chris Wilmer'
_symmetry_space_group_name_H-M	'P1'
_symmetry_Int_Tables_number	1
_symmetry_cell_setting	triclinic
loop_
_symmetry_equiv_pos_as_xyz
  x,y,z
_cell_length_a	19.288899
_cell_length_b	19.288865
_cell_length_c	17.766277
_cell_angle_alpha	90.011603
_cell_angle_beta	89.997577
_cell_angle_gamma	96.856754
loop_
_atom_site_label
_atom_site_type_symbol
_atom_site_fract_x
_atom_site_fract_y
_atom_site_fract_z
O1	O	0.921338	-0.086762	-0.062481
O2	O	0.719081	-0.098426	-0.062511
O3	O	0.826053	0.008536	-0.062480
O4	O	0.814365	-0.193724	-0.062512
O5	O	0.826035	0.008541	0.062708
O6	O	0.719062	-0.098421	0.062678
O7	O	0.921319	-0.086757	0.062707
Cu8	Cu	0.820189	-0.092588	0.074123
Cu9	Cu	0.820211	-0.092594	-0.073927
O10	O	0.814346	-0.193718	0.062677
C11	C	0.693195	-0.098044	0.000080
C12	C	0.616093	-0.096905	0.000070
C13	C	0.947204	-0.087139	0.000115
C14	C	1.024307	-0.088277	0.000120
C15	C	0.825668	0.034415	0.000116
C16	C	0.824539	0.111519	0.000123
C17	C	0.814732	-0.219597	0.000079
C18	C	0.815861	-0.296701	0.000067
C19	C	1.060522	-0.088814	-0.068121
C20	C	1.132970	-0.089865	-0.068129
C21	C	1.169199	-0.090394	0.000108
C22	C	1.132975	-0.089853	0.068359
C23	C	1.060529	-0.088795	0.068365
C24	C	1.278535	-0.132752	0.052372
C25	C	1.350979	-0.133814	0.052363
C26	C	1.392647	-0.093655	0.000092
C27	C	1.361860	-0.052442	-0.052183
C28	C	1.289414	-0.051384	-0.052177
C29	C	1.247754	-0.091541	0.000109
C30	C	1.507419	-0.095331	-0.068163
C31	C	1.579869	-0.096378	-0.068169
C32	C	1.579872	-0.096373	0.068321
C33	C	1.507424	-0.095319	0.068325
C34	C	1.471201	-0.094801	0.000080
C35	C	0.887306	0.156207	0.000135
C36	C	0.886245	0.228654	0.000123
C37	C	0.822414	0.256410	0.000114
C38	C	0.759639	0.211711	0.000097
C39	C	0.760701	0.139266	0.000101
C40	C	0.772229	0.364705	0.043957
C41	C	0.771169	0.437150	0.043957
C42	C	0.819134	0.479856	0.000096
C43	C	0.868172	0.450110	-0.043755
C44	C	0.869234	0.377664	-0.043751
C45	C	0.821255	0.334964	0.000108
C46	C	0.880756	0.603100	0.000095
C47	C	0.879692	0.675549	0.000078
C48	C	0.753084	0.658604	0.000059
C49	C	0.754149	0.586157	0.000068
C50	C	0.817987	0.558410	0.000090
N51	N	0.820178	-0.092583	0.178254
N52	N	0.820227	-0.092594	-0.178057
C53	C	0.867561	-0.045244	0.217654
C54	C	0.867565	-0.045241	0.296456
C55	C	0.820193	-0.092589	0.335854
C56	C	0.772801	-0.139932	0.296444
C57	C	0.772794	-0.139929	0.217644
C58	C	0.810894	-0.155875	0.460681
C59	C	0.810906	-0.155879	0.539480
C60	C	0.820211	-0.092597	0.578901
C61	C	0.829519	-0.029309	0.539512
C62	C	0.829512	-0.029306	0.460712
C63	C	0.820195	-0.092597	0.421300
C64	C	0.867601	-0.045250	0.703747
C65	C	0.867600	-0.045246	0.782550
C66	C	0.772840	-0.139943	0.782537
C67	C	0.772837	-0.139941	0.703735
C68	C	0.820222	-0.092596	0.664345
H69	H	1.031034	-0.088389	-0.123691
Br70	Br	1.629033	-0.097075	0.160931
H71	H	1.477937	-0.094884	0.123895
Br72	Br	1.182131	-0.090593	-0.160749
H73	H	0.906183	-0.006696	0.671674
H74	H	0.803332	-0.207412	0.571544
H75	H	0.803305	-0.207410	0.428592
Br76	Br	0.931864	0.019012	0.164195
Br77	Br	0.708541	-0.204195	0.836000
H78	H	1.609355	-0.096810	-0.123741
Br79	Br	0.708504	-0.204186	0.349910
H80	H	1.395785	-0.019743	-0.094749
H81	H	0.701112	0.681201	0.000047
Br82	Br	0.708531	-0.204193	0.650257
H83	H	0.734208	-0.178479	0.185563
H84	H	1.477925	-0.094907	-0.123732
Br85	Br	1.247634	0.004547	-0.123115
H86	H	0.907230	0.484880	-0.079471
H87	H	1.162477	-0.090282	0.123918
Br88	Br	0.673010	0.249377	0.000074
Br89	Br	1.392752	-0.189754	0.123298
H90	H	0.906183	-0.006693	0.814630
H91	H	0.906151	-0.006690	0.328541
Br92	Br	1.221994	-0.187247	0.123328
H93	H	1.031043	-0.088360	0.123937
Br94	Br	0.935777	0.337295	-0.103264
Br95	Br	0.973942	0.118553	0.000144
H96	H	0.733168	0.329939	0.079678
Br97	Br	0.967390	0.565439	0.000132
Br98	Br	0.842136	0.056580	0.407258
H99	H	0.703038	0.549771	0.000062
H100	H	0.937359	0.265047	0.000131
Br101	Br	0.964884	0.736200	0.000088
H102	H	0.709587	0.102879	0.000091
Br103	Br	0.704624	0.477513	0.103474
H104	H	0.837096	0.022221	0.571606
