data_functionalizedCrystal
_audit_creation_method	'MofGen! by Chris Wilmer'
_symmetry_space_group_name_H-M	'P1'
_symmetry_Int_Tables_number	1
_symmetry_cell_setting	triclinic
loop_
_symmetry_equiv_pos_as_xyz
  x,y,z
_cell_length_a	17.077404
_cell_length_b	12.594516
_cell_length_c	17.077396
_cell_angle_alpha	89.976855
_cell_angle_beta	89.980499
_cell_angle_gamma	90.016278
loop_
_atom_site_label
_atom_site_type_symbol
_atom_site_fract_x
_atom_site_fract_y
_atom_site_fract_z
Zn1	Zn	1.200092	-0.423736	-0.443872
Zn2	Zn	1.700092	0.076264	0.056128
Zn3	Zn	1.200015	-0.601736	-0.312618
Zn4	Zn	1.700015	-0.101736	0.187382
Zn5	Zn	1.068824	-0.423773	-0.312620
Zn6	Zn	1.568824	0.076227	0.187380
Zn7	Zn	1.068807	-0.601673	-0.443842
Zn8	Zn	1.568807	-0.101673	0.056158
O9	O	1.134434	-0.512730	-0.378238
O10	O	1.634434	-0.012730	0.121762
O11	O	1.309929	-0.447359	-0.426473
O12	O	1.809929	0.052641	0.073527
O13	O	1.182586	-0.578171	-0.202771
O14	O	1.682586	-0.078171	0.297229
O15	O	1.086276	-0.274822	-0.330044
O16	O	1.586276	0.225178	0.169956
O17	O	1.309872	-0.578135	-0.330041
O18	O	1.809872	-0.078135	0.169959
O19	O	1.182718	-0.274795	-0.426474
O20	O	1.682718	0.225205	0.073526
O21	O	1.086201	-0.447422	-0.202773
O22	O	1.586201	0.052578	0.297227
O23	O	0.958975	-0.447361	-0.330015
O24	O	1.458975	0.052639	0.169985
O25	O	1.086248	-0.578027	-0.553693
O26	O	1.586248	-0.078027	-0.053693
O27	O	0.958963	-0.578064	-0.426423
O28	O	1.458963	-0.078064	0.073577
O29	O	1.182702	-0.447297	-0.553715
O30	O	1.682702	0.052703	-0.053715
O31	O	1.182571	-0.750674	-0.330012
O32	O	1.682571	-0.250674	0.169988
O33	O	1.086173	-0.750627	-0.426421
O34	O	1.586173	-0.250627	0.073579
C35	C	0.930487	-0.512710	-0.378216
C36	C	1.430487	-0.012710	0.121784
C37	C	0.843237	-0.512728	-0.378226
C38	C	1.343237	-0.012728	0.121774
C39	C	1.134383	-0.789271	-0.378230
C40	C	1.634383	-0.289271	0.121770
C41	C	1.134433	-0.907576	-0.378253
C42	C	1.634433	-0.407576	0.121747
C43	C	0.802261	-0.580887	-0.428345
C44	C	1.302261	-0.080887	0.071655
C45	C	0.720280	-0.580890	-0.428357
C46	C	1.220280	-0.080890	0.071643
C47	C	0.679277	-0.512737	-0.378246
C48	C	1.179277	-0.012737	0.121754
C49	C	0.720259	-0.444570	-0.328125
C50	C	1.220259	0.055430	0.171875
C51	C	0.802238	-0.444563	-0.328117
C52	C	1.302238	0.055437	0.171883
C53	C	0.549389	-0.444591	-0.328144
C54	C	1.049389	0.055409	0.171856
C55	C	0.467404	-0.444599	-0.328150
C56	C	0.967404	0.055401	0.171850
C57	C	0.467431	-0.580917	-0.428384
C58	C	0.967431	-0.080917	0.071616
C59	C	0.549410	-0.580910	-0.428376
C60	C	1.049410	-0.080910	0.071624
C61	C	0.590386	-0.512745	-0.378253
C62	C	1.090386	-0.012745	0.121747
C63	C	1.081997	-0.976843	-0.430653
C64	C	1.581997	-0.476843	0.069347
C65	C	1.062873	-1.047703	-0.359026
C66	C	1.562873	-0.547703	0.140974
C67	C	1.153628	-1.047515	-0.449893
C68	C	1.653628	-0.547515	0.050107
C69	C	1.115271	-0.976878	-0.306587
C70	C	1.615271	-0.476878	0.193413
C71	C	1.206059	-0.976684	-0.397503
C72	C	1.706059	-0.476684	0.102497
C73	C	1.186963	-1.047512	-0.325826
C74	C	1.686963	-0.547512	0.174174
C75	C	1.339179	-0.512750	-0.378260
C76	C	1.839179	-0.012750	0.121740
C77	C	1.426428	-0.512758	-0.378269
C78	C	1.926428	-0.012758	0.121731
C79	C	1.134482	-0.512651	-0.582982
C80	C	1.634482	-0.012651	-0.082982
C81	C	1.134502	-0.512618	-0.670232
C82	C	1.634502	-0.012618	-0.170232
C83	C	1.134507	-0.235109	-0.378263
C84	C	1.634507	0.264891	0.121737
C85	C	1.134539	-0.116803	-0.378273
C86	C	1.634539	0.383197	0.121727
C87	C	1.184728	-0.444541	-0.711235
C88	C	1.684728	0.055459	-0.211235
C89	C	1.184737	-0.444506	-0.793216
C90	C	1.684737	0.055494	-0.293216
C91	C	1.134524	-0.512553	-0.834192
C92	C	1.634524	-0.012553	-0.334192
C93	C	1.084293	-0.580633	-0.793183
C94	C	1.584293	-0.080633	-0.293183
C95	C	1.084281	-0.580662	-0.711204
C96	C	1.584281	-0.080662	-0.211204
C97	C	1.084325	-0.580569	-0.964053
C98	C	1.584325	-0.080569	-0.464053
C99	C	1.084339	-0.580541	-1.046038
C100	C	1.584339	-0.080541	-0.546038
C101	C	1.184782	-0.444412	-1.046065
C102	C	1.684782	0.055588	-0.546065
C103	C	1.184769	-0.444442	-0.964086
C104	C	1.684769	0.055558	-0.464086
C105	C	1.134538	-0.512523	-0.923083
C106	C	1.634538	-0.012523	-0.423083
C107	C	1.134432	-0.512731	-0.174290
C108	C	1.634432	-0.012731	0.325710
C109	C	1.134564	-0.512465	-0.087041
C110	C	1.634564	-0.012465	0.412959
H111	H	0.835640	-0.636389	-0.469149
H112	H	1.335640	-0.136389	0.030851
C113	C	0.675210	-0.655930	-0.483440
C114	C	1.175210	-0.155930	0.016560
H115	H	0.711371	-0.696546	-0.513262
H116	H	1.211371	-0.196546	-0.013262
H117	H	0.643229	-0.615339	-0.517715
H118	H	1.143229	-0.115339	-0.017715
H119	H	0.643233	-0.702237	-0.453309
H120	H	1.143233	-0.202237	0.046691
H121	H	0.582793	-0.636412	-0.469177
H122	H	1.082793	-0.136412	0.030823
H123	H	1.225638	-0.389073	-0.826597
H124	H	1.725638	0.110927	-0.326597
H125	H	1.099008	-0.945978	-0.245994
H126	H	1.599008	-0.445978	0.254006
H127	H	1.225661	-0.389037	-0.930725
H128	H	1.725661	0.110963	-0.430725
H129	H	1.043406	-0.636034	-0.826552
H130	H	1.543406	-0.136034	-0.326552
H131	H	0.434065	-0.636417	-0.469198
H132	H	0.934065	-0.136417	0.030802
H133	H	0.434022	-0.389090	-0.287355
H134	H	0.934022	0.110910	0.212645
C135	C	0.981111	-1.089852	-0.337031
C136	C	1.481111	-0.589852	0.162969
H137	H	0.984723	-1.131372	-0.290716
H138	H	1.484723	-0.631372	0.209284
H139	H	0.961438	-1.132412	-0.378512
H140	H	1.461438	-0.632412	0.121488
H141	H	0.946733	-1.031763	-0.328286
H142	H	1.446733	-0.531763	0.171714
H143	H	0.582749	-0.389073	-0.287335
H144	H	1.082749	0.110927	0.212665
C145	C	1.239959	-0.369683	-0.666168
C146	C	1.739959	0.130317	-0.166168
H147	H	1.269866	-0.329126	-0.702333
H148	H	1.769866	0.170874	-0.202333
H149	H	1.274147	-0.410405	-0.634188
H150	H	1.774147	0.089595	-0.134188
H151	H	1.209930	-0.323312	-0.634191
H152	H	1.709930	0.176688	-0.134191
H153	H	0.686868	-0.389074	-0.287327
H154	H	1.186868	0.110926	0.212673
C155	C	1.240043	-0.369536	-1.091164
C156	C	1.740043	0.130464	-0.591164
H157	H	1.232858	-0.379258	-1.145856
H158	H	1.732858	0.120742	-0.645856
H159	H	1.292774	-0.385142	-1.077732
H160	H	1.792774	0.114858	-0.577732
H161	H	1.228580	-0.298016	-1.077738
H162	H	1.728580	0.201984	-0.577738
H163	H	1.266570	-0.945468	-0.413803
H164	H	1.766570	-0.445468	0.086197
C165	C	1.021995	-0.934914	-0.490432
C166	C	1.521995	-0.434914	0.009568
H167	H	1.048150	-0.893350	-0.528814
H168	H	1.548150	-0.393350	-0.028814
H169	H	0.984211	-0.892441	-0.464266
H170	H	1.484211	-0.392441	0.035734
H171	H	0.996615	-0.993094	-0.515104
H172	H	1.496615	-0.493094	-0.015104
C173	C	1.029102	-0.655385	-1.091110
C174	C	1.529102	-0.155385	-0.591110
H175	H	0.999177	-0.695926	-1.054951
H176	H	1.499177	-0.195926	-0.554951
H177	H	1.059120	-0.701756	-1.123091
H178	H	1.559120	-0.201756	-0.623091
H179	H	0.994918	-0.614640	-1.123088
H180	H	1.494918	-0.114640	-0.623088
C181	C	0.847311	-0.369586	-0.272987
C182	C	1.347311	0.130414	0.227013
H183	H	0.811152	-0.329003	-0.243139
H184	H	1.311152	0.170997	0.256861
H185	H	0.879310	-0.323261	-0.303072
H186	H	1.379310	0.176739	0.196928
H187	H	0.879271	-0.410241	-0.238727
H188	H	1.379271	0.089759	0.261273
H189	H	1.231351	-1.078346	-0.281470
H190	H	1.731351	-0.578346	0.218530
H191	H	1.043410	-0.635991	-0.930671
H192	H	1.543410	-0.135991	-0.430671
H193	H	1.043374	-0.636087	-0.677820
H194	H	1.543374	-0.136087	-0.177820
H195	H	1.169821	-1.078543	-0.510470
H196	H	1.669821	-0.578543	-0.010470
