data_functionalizedCrystal
_audit_creation_method	'MofGen! by Chris Wilmer'
_symmetry_space_group_name_H-M	'P1'
_symmetry_Int_Tables_number	1
_symmetry_cell_setting	triclinic
loop_
_symmetry_equiv_pos_as_xyz
  x,y,z
_cell_length_a	10.723023
_cell_length_b	10.723024
_cell_length_c	7.681481
_cell_angle_alpha	84.204337
_cell_angle_beta	95.778717
_cell_angle_gamma	84.467709
loop_
_atom_site_label
_atom_site_type_symbol
_atom_site_fract_x
_atom_site_fract_y
_atom_site_fract_z
O1	O	1.645493	0.186734	-0.146407
O2	O	1.282340	0.203489	-0.146414
O3	O	1.472293	0.013535	-0.146403
O4	O	1.455539	0.376689	-0.146417
O5	O	1.495673	-0.009898	0.146456
O6	O	1.305719	0.180056	0.146445
O7	O	1.668872	0.163301	0.146452
Zn8	Zn	1.491008	0.167958	0.192947
Zn9	Zn	1.460204	0.198833	-0.192908
O10	O	1.478919	0.353255	0.146442
C11	C	1.247530	0.190554	0.000015
C12	C	1.108975	0.186907	0.000012
C13	C	0.891896	0.193650	-0.151697
C14	C	1.035099	0.197420	-0.151698
C15	C	1.482764	-0.044681	0.000024
C16	C	1.479116	-0.183235	0.000018
C17	C	1.585403	-0.258218	0.000017
C18	C	1.581635	-0.401421	0.000011
C19	C	1.703682	0.176237	0.000020
C20	C	1.842236	0.179885	0.000011
C21	C	1.468448	0.411472	0.000011
C22	C	1.472095	0.550026	0.000006
N23	N	1.512040	0.146886	0.456282
N24	N	1.439182	0.219895	-0.456243
H25	H	1.077852	0.209219	-0.281581
H26	H	1.364809	0.294414	0.468556
F27	F	1.353155	-0.365768	0.000019
H28	H	1.672626	-0.465854	0.000018
F29	F	0.925231	0.168119	0.169784
H30	H	1.679190	-0.216397	0.000030
F31	F	1.609270	0.049488	0.554581
H32	H	1.385329	-0.225056	0.000004
F33	F	0.808907	0.205367	-0.321470
H34	H	1.066229	0.175122	0.129902
