data_functionalizedCrystal
_audit_creation_method	'MofGen! by Chris Wilmer'
_symmetry_space_group_name_H-M	'P1'
_symmetry_Int_Tables_number	1
_symmetry_cell_setting	triclinic
loop_
_symmetry_equiv_pos_as_xyz
  x,y,z
_cell_length_a	16.109318
_cell_length_b	16.974813
_cell_length_c	14.586319
_cell_angle_alpha	86.341649
_cell_angle_beta	90.000075
_cell_angle_gamma	83.432062
loop_
_atom_site_label
_atom_site_type_symbol
_atom_site_fract_x
_atom_site_fract_y
_atom_site_fract_z
O1	O	1.103035	0.101699	-0.083708
O2	O	1.436368	0.435032	0.249625
O3	O	1.769701	0.768366	0.582959
O4	O	0.860964	0.114333	-0.084664
O5	O	1.194297	0.447666	0.248670
O6	O	1.527630	0.781000	0.582003
O7	O	0.988747	-0.007089	-0.075641
O8	O	1.322081	0.326245	0.257692
O9	O	1.655414	0.659578	0.591026
O10	O	0.975251	0.223121	-0.092731
O11	O	1.308584	0.556454	0.240603
O12	O	1.641917	0.889787	0.573936
O13	O	0.988739	-0.007091	0.076840
O14	O	1.322072	0.326243	0.410173
O15	O	1.655405	0.659576	0.743507
O16	O	0.860955	0.114331	0.067817
O17	O	1.194288	0.447664	0.401151
O18	O	1.527622	0.780998	0.734484
O19	O	1.103026	0.101697	0.068773
O20	O	1.436359	0.435031	0.402106
O21	O	1.769692	0.768364	0.735440
Cu22	Cu	0.981989	0.108014	0.082218
Cu23	Cu	1.315323	0.441347	0.415551
Cu24	Cu	1.648656	0.774681	0.748885
Cu25	Cu	0.982000	0.108016	-0.098109
Cu26	Cu	1.315333	0.441349	0.235225
Cu27	Cu	1.648667	0.774683	0.568558
O28	O	0.975242	0.223119	0.059750
O29	O	1.308575	0.556452	0.393084
O30	O	1.641909	0.889786	0.726417
C31	C	0.829985	0.113818	-0.008387
C32	C	1.163318	0.447151	0.324946
C33	C	1.496652	0.780484	0.658279
C34	C	0.737692	0.112276	-0.008280
C35	C	1.071025	0.445610	0.325053
C36	C	1.404359	0.778943	0.658387
C37	C	0.988230	-0.036548	0.002784
C38	C	1.321563	0.296785	0.336118
C39	C	1.654896	0.630119	0.669451
C40	C	0.986690	-0.124324	0.009294
C41	C	1.320023	0.209009	0.342627
C42	C	1.653356	0.542342	0.675961
C43	C	0.438627	0.107299	-0.091012
C44	C	0.771961	0.440632	0.242322
C45	C	1.105294	0.773965	0.575655
C46	C	0.525347	0.108742	-0.091124
C47	C	0.858681	0.442075	0.242209
C48	C	1.192014	0.775408	0.575542
C49	C	0.525356	0.108729	0.075120
C50	C	0.858690	0.442062	0.408453
C51	C	1.192023	0.775396	0.741786
C52	C	0.438639	0.107280	0.075232
C53	C	0.771972	0.440614	0.408565
C54	C	1.105305	0.773947	0.741898
C55	C	0.395276	0.106569	-0.007837
C56	C	0.728609	0.439902	0.325496
C57	C	1.061943	0.773236	0.658830
C58	C	0.568714	0.109461	-0.008062
C59	C	0.902047	0.442794	0.325272
C60	C	1.235380	0.776128	0.658605
C61	C	0.662739	0.111026	-0.008183
C62	C	0.996073	0.444359	0.325150
C63	C	1.329406	0.777692	0.658483
C64	C	0.301244	0.105003	-0.007715
C65	C	0.634578	0.438336	0.325618
C66	C	0.967911	0.771669	0.658951
C67	C	0.985973	-0.165557	-0.070764
C68	C	1.319306	0.167777	0.262569
C69	C	1.652640	0.501110	0.595902
C70	C	0.984521	-0.248031	-0.064645
C71	C	1.317854	0.085302	0.268688
C72	C	1.651188	0.418635	0.602022
C73	C	0.983791	-0.289273	0.021534
C74	C	1.317125	0.044060	0.354867
C75	C	1.650458	0.377394	0.688201
C76	C	0.984506	-0.248035	0.101598
C77	C	1.317839	0.085298	0.434932
C78	C	1.651172	0.418632	0.768265
C79	C	0.985952	-0.165561	0.095478
C80	C	1.319285	0.167772	0.428811
C81	C	1.652619	0.501106	0.762145
C82	C	0.979460	-0.535933	0.048751
C83	C	1.312793	-0.202600	0.382085
C84	C	1.646127	0.130733	0.715418
C85	C	0.978016	-0.618413	0.054866
C86	C	1.311350	-0.285080	0.388199
C87	C	1.644683	0.048253	0.721532
C88	C	0.978030	-0.618404	-0.111378
C89	C	1.311363	-0.285071	0.221955
C90	C	1.644697	0.048263	0.555288
C91	C	0.979481	-0.535929	-0.117491
C92	C	1.312815	-0.202596	0.215842
C93	C	1.646148	0.130738	0.549176
C94	C	0.980191	-0.494697	-0.037427
C95	C	1.313524	-0.161364	0.295907
C96	C	1.646858	0.171969	0.629240
N97	N	0.982310	-0.373576	0.027791
N98	N	1.315643	-0.040242	0.361124
N99	N	1.648976	0.293091	0.694458
N100	N	0.981667	-0.410395	-0.043685
N101	N	1.315000	-0.077062	0.289649
N102	N	1.648333	0.256271	0.622982
C103	C	1.134004	0.102212	-0.007505
C104	C	1.467338	0.435546	0.325828
C105	C	1.800671	0.768879	0.659161
C106	C	1.226298	0.103754	-0.007619
C107	C	1.559631	0.437087	0.325715
C108	C	1.892964	0.770420	0.659048
C109	C	0.975760	0.252578	-0.018677
C110	C	1.309093	0.585911	0.314656
C111	C	1.642426	0.919245	0.647990
C112	C	0.977300	0.340355	-0.025193
C113	C	1.310633	0.673688	0.308141
C114	C	1.643966	1.007021	0.641474
N115	N	0.981988	0.108012	0.209050
N116	N	1.315321	0.441345	0.542383
N117	N	1.648655	0.774679	0.875716
N118	N	0.982008	0.108012	-0.224940
N119	N	1.315341	0.441345	0.108393
N120	N	1.648675	0.774678	0.441727
C121	C	1.038589	0.054265	0.448050
C122	C	1.371923	0.387598	0.781383
C123	C	1.705256	0.720931	1.114717
C124	C	1.038592	0.054263	0.544032
C125	C	1.371925	0.387596	0.877365
C126	C	1.705259	0.720929	1.210698
C127	C	0.925400	0.161762	0.536053
C128	C	1.258734	0.495095	0.869386
C129	C	1.592067	0.828429	1.202719
C130	C	0.925395	0.161759	0.440073
C131	C	1.258728	0.495093	0.773407
C132	C	1.592061	0.828426	1.106740
C133	C	0.981994	0.108012	0.396075
C134	C	1.315327	0.441345	0.729408
C135	C	1.648661	0.774678	1.062741
C136	C	0.982002	0.108012	0.588035
C137	C	1.315335	0.441346	0.921369
C138	C	1.648669	0.774679	1.254702
C139	C	0.982004	0.108011	0.692103
C140	C	1.315338	0.441344	1.025436
C141	C	1.648671	0.774677	1.358769
C142	C	0.981991	0.108012	0.292001
C143	C	1.315324	0.441345	0.625334
C144	C	1.648658	0.774679	0.958667
H145	H	0.403324	0.106719	-0.158651
H146	H	0.736657	0.440052	0.174682
H147	H	1.069991	0.773385	0.508015
H148	H	0.977418	-0.651990	0.125046
H149	H	1.310751	-0.318656	0.458380
H150	H	1.644085	0.014677	0.791713
H151	H	1.084676	0.010496	0.586348
H152	H	1.418009	0.343829	0.919681
H153	H	1.751343	0.677163	1.253014
H154	H	0.983941	-0.281599	-0.129837
H155	H	1.317274	0.051734	0.203496
H156	H	1.650608	0.385067	0.536830
Br157	Br	0.848575	0.234701	0.369528
Br158	Br	1.181908	0.568034	0.702861
Br159	Br	1.515242	0.901367	1.036194
Br160	Br	0.584179	0.109725	-0.204009
Br161	Br	0.917513	0.443059	0.129324
Br162	Br	1.250846	0.776392	0.462658
H163	H	0.986572	-0.131984	-0.140941
H164	H	1.319905	0.201349	0.192393
H165	H	1.653238	0.534683	0.525726
Br166	Br	1.115401	-0.018680	0.388341
Br167	Br	1.448734	0.314653	0.721674
Br168	Br	1.782067	0.647986	1.055007
H169	H	0.879320	0.205523	0.571886
H170	H	1.212653	0.538857	0.905220
H171	H	1.545986	0.872190	1.238553
Br172	Br	0.977068	-0.674365	-0.220031
Br173	Br	1.310401	-0.341032	0.113303
Br174	Br	1.643734	-0.007698	0.446636
Br175	Br	0.980406	-0.479984	0.157411
Br176	Br	1.313739	-0.146651	0.490744
Br177	Br	1.647073	0.186682	0.824077
Br178	Br	0.584210	0.109701	0.187849
Br179	Br	0.917544	0.443034	0.521183
Br180	Br	1.250877	0.776368	0.854516
Br181	Br	0.983502	-0.304003	0.218557
Br182	Br	1.316835	0.029330	0.551890
Br183	Br	1.650169	0.362664	0.885224
H184	H	0.980076	-0.502356	-0.187667
H185	H	1.313410	-0.169022	0.145666
H186	H	1.646743	0.164311	0.479000
Br187	Br	0.379800	0.106285	0.188121
Br188	Br	0.713133	0.439618	0.521454
Br189	Br	1.046466	0.772951	0.854787
H190	H	0.986524	-0.131989	0.160670
H191	H	1.319857	0.201344	0.494003
H192	H	1.653190	0.534677	0.827337
