data_functionalizedCrystal
_audit_creation_method	'MofGen! by Chris Wilmer'
_symmetry_space_group_name_H-M	'P1'
_symmetry_Int_Tables_number	1
_symmetry_cell_setting	triclinic
loop_
_symmetry_equiv_pos_as_xyz
  x,y,z
_cell_length_a	16.120484
_cell_length_b	16.120542
_cell_length_c	13.897441
_cell_angle_alpha	92.918134
_cell_angle_beta	92.866498
_cell_angle_gamma	89.836765
loop_
_atom_site_label
_atom_site_type_symbol
_atom_site_fract_x
_atom_site_fract_y
_atom_site_fract_z
Zn1	Zn	-0.395673	-1.254475	-0.642134
Zn2	Zn	-0.534738	-1.247318	-0.488563
Zn3	Zn	-0.388637	-1.115414	-0.472284
Zn4	Zn	-0.527616	-1.108327	-0.641247
O5	O	-0.461666	-1.181384	-0.561057
O6	O	-0.420046	-1.369891	-0.628946
O7	O	-0.515394	-1.229791	-0.351422
O8	O	-0.273208	-1.139822	-0.488374
O9	O	-0.522217	-1.364633	-0.516118
O10	O	-0.278377	-1.241989	-0.613161
O11	O	-0.408053	-1.132882	-0.339462
O12	O	-0.401147	-0.998109	-0.487514
O13	O	-0.510077	-1.127743	-0.776346
O14	O	-0.503254	-0.992902	-0.611650
O15	O	-0.413140	-1.235117	-0.776997
O16	O	-0.650156	-1.222919	-0.515258
O17	O	-0.644923	-1.120803	-0.627434
C18	C	-0.450665	-0.965333	-0.547720
C19	C	-0.445978	-0.872904	-0.542038
C20	C	-0.485951	-0.659935	-0.590475
C21	C	-0.437430	-0.703681	-0.531664
C22	C	-0.442188	-0.797846	-0.537438
C23	C	-0.481194	-0.565762	-0.584703
C24	C	-0.677712	-1.170338	-0.573039
C25	C	-0.770141	-1.165689	-0.578202
C26	C	-0.939371	-1.157206	-0.587648
C27	C	-0.983128	-1.205710	-0.534491
C28	C	-1.077293	-1.200990	-0.539747
C29	C	-0.845197	-1.161925	-0.582393
C30	C	-0.244777	-1.192495	-0.549051
C31	C	-0.152352	-1.197230	-0.543934
C32	C	-0.461599	-1.181438	-0.812649
C33	C	-0.461570	-1.181461	-0.919863
C34	C	-0.472706	-0.398278	-0.574433
C35	C	-0.477400	-0.490706	-0.580098
C36	C	-0.461547	-1.181479	-1.006932
C37	C	-0.461511	-1.181505	-1.116164
C38	C	-0.461675	-1.181380	-0.310443
C39	C	-0.461478	-1.181530	-0.203227
H40	H	-0.531061	-0.693200	-0.645157
C41	C	-0.938203	-1.266591	-0.467665
C42	C	-0.842670	-1.271280	-0.462425
C43	C	-0.797741	-1.332154	-0.395596
C44	C	-0.848344	-1.388338	-0.334007
C45	C	-0.943882	-1.383651	-0.339244
C46	C	-0.988811	-1.322778	-0.406073
H47	H	-0.805206	-1.229687	-0.508019
H48	H	-0.727017	-1.335623	-0.391720
H49	H	-0.815085	-1.433400	-0.284536
H50	H	-0.981347	-1.425244	-0.293650
H51	H	-1.059535	-1.319308	-0.409950
H52	H	-0.972629	-1.112137	-0.637099
H53	H	-0.392316	-0.670413	-0.476977
