data_functionalizedCrystal
_audit_creation_method	'MofGen! by Chris Wilmer'
_symmetry_space_group_name_H-M	'P1'
_symmetry_Int_Tables_number	1
_symmetry_cell_setting	triclinic
loop_
_symmetry_equiv_pos_as_xyz
  x,y,z
_cell_length_a	13.635800
_cell_length_b	11.102228
_cell_length_c	11.102291
_cell_angle_alpha	88.049742
_cell_angle_beta	108.605752
_cell_angle_gamma	71.395255
loop_
_atom_site_label
_atom_site_type_symbol
_atom_site_fract_x
_atom_site_fract_y
_atom_site_fract_z
V1	V	2.055768	-0.175855	0.396261
O2	O	2.035286	0.008434	0.388716
O3	O	2.044154	-0.348676	0.393554
O4	O	2.044160	-0.173158	0.569084
O5	O	2.035280	-0.168299	0.211971
V6	V	2.294319	-0.153811	0.374218
O7	O	2.193439	-0.224211	0.444614
O8	O	2.381747	-0.105456	0.325865
O9	O	2.194329	0.019009	0.376926
O10	O	2.373499	-0.338101	0.381764
O11	O	2.373505	-0.161368	0.558509
O12	O	2.194323	-0.156509	0.201396
V13	V	2.555768	-0.175855	0.396261
O14	O	2.535286	0.008434	0.388716
O15	O	2.544154	-0.348676	0.393554
O16	O	2.544160	-0.173158	0.569084
O17	O	2.535280	-0.168299	0.211971
V18	V	2.794319	-0.153811	0.374218
O19	O	2.693439	-0.224211	0.444614
O20	O	2.881747	-0.105456	0.325865
O21	O	2.694329	0.019009	0.376926
O22	O	2.873499	-0.338101	0.381764
O23	O	2.873505	-0.161368	0.558509
O24	O	2.694323	-0.156509	0.201396
C25	C	1.969309	-0.390806	0.387303
C26	C	2.000541	-0.532089	0.386241
C27	C	2.243246	-0.810525	0.396913
C28	C	2.320583	-0.750622	0.403755
C29	C	2.291243	-0.617876	0.404761
C30	C	2.184555	-0.545029	0.398920
C31	C	2.107218	-0.604932	0.392078
C32	C	2.136569	-0.737682	0.391077
C33	C	1.923205	-0.591991	0.379399
C34	C	1.952545	-0.724739	0.378402
C35	C	1.816517	-0.519144	0.373558
C36	C	1.739180	-0.579048	0.366725
C37	C	1.768526	-0.711803	0.365721
C38	C	1.875208	-0.784642	0.371560
C39	C	1.969316	-0.166913	0.611207
C40	C	2.000550	-0.165851	0.752490
C41	C	2.100845	0.061132	0.383173
C42	C	2.059233	0.202414	0.384243
C43	C	2.100838	-0.162758	0.159266
C44	C	2.059222	-0.163814	0.017982
C45	C	2.469309	-0.390806	0.387303
C46	C	2.500541	-0.532089	0.386241
C47	C	2.469316	-0.166913	0.611207
C48	C	2.500550	-0.165851	0.752490
C49	C	2.107228	-0.171690	0.825338
C50	C	2.136563	-0.170667	0.958084
C51	C	1.952535	-0.157970	0.945123
C52	C	1.923199	-0.158984	0.812378
C53	C	2.213477	-0.179026	0.832823
C54	C	2.242812	-0.178003	0.965570
C55	C	2.600845	0.061132	0.383173
C56	C	2.559233	0.202414	0.384243
C57	C	2.600838	-0.162758	0.159266
C58	C	2.559222	-0.163814	0.017982
C59	C	2.607228	-0.171690	0.825338
C60	C	2.636563	-0.170667	0.958084
C61	C	2.452535	-0.157970	0.945123
C62	C	2.423199	-0.158984	0.812378
C63	C	2.713477	-0.179026	0.832823
C64	C	2.742812	-0.178003	0.965570
C65	C	2.485127	-0.580319	0.269361
C66	C	2.514481	-0.713072	0.268378
C67	C	2.574658	-0.749354	0.501165
C68	C	2.545312	-0.616603	0.502147
C69	C	2.450380	-0.559373	0.134964
C70	C	2.479733	-0.692126	0.133981
H71	H	2.267149	-0.918617	0.396111
H72	H	2.557874	-0.577342	0.597322
H73	H	1.889562	-0.152377	0.993900
Br74	Br	2.598410	-0.758477	0.072338
H75	H	2.761174	-0.273805	0.808361
Br76	Br	2.773204	-0.027609	1.014088
Br77	Br	2.362568	-0.331154	1.053665
H78	H	2.354215	-0.569102	0.410320
Br79	Br	2.635422	-0.864059	0.658458
Br80	Br	1.776689	-0.338983	0.374896
H81	H	2.261174	-0.273805	0.808361
Br82	Br	2.862568	-0.331154	1.053665
Br83	Br	2.532592	-0.494195	0.057510
Br84	Br	2.295774	-0.471351	0.057606
Br85	Br	2.229697	-0.035253	0.754312
H86	H	2.261044	-0.087766	0.994670
H87	H	1.652318	-0.519725	0.361961
H88	H	2.407449	-0.809949	0.408510
H89	H	2.403722	-0.715142	0.077253
Br90	Br	1.663555	-0.793086	0.356421
Br91	Br	2.278415	-0.151044	0.713513
Br92	Br	1.915043	-0.964801	0.370211
Br93	Br	2.347566	-0.148650	1.026407
Br94	Br	1.778415	-0.151044	0.713513
H95	H	2.160669	-0.436938	0.399723
Br96	Br	2.729697	-0.035253	0.754312
