data_functionalizedCrystal
_audit_creation_method	'MofGen! by Chris Wilmer'
_symmetry_space_group_name_H-M	'P1'
_symmetry_Int_Tables_number	1
_symmetry_cell_setting	triclinic
loop_
_symmetry_equiv_pos_as_xyz
  x,y,z
_cell_length_a	10.686220
_cell_length_b	13.897448
_cell_length_c	10.685986
_cell_angle_alpha	85.588833
_cell_angle_beta	99.031303
_cell_angle_gamma	94.399460
loop_
_atom_site_label
_atom_site_type_symbol
_atom_site_fract_x
_atom_site_fract_y
_atom_site_fract_z
Zn1	Zn	1.885508	-0.239863	-0.569019
Zn2	Zn	1.901630	-0.412700	-0.356776
Zn3	Zn	1.689507	-0.262920	-0.373048
Zn4	Zn	1.673228	-0.412631	-0.585220
O5	O	1.787468	-0.332028	-0.471016
O6	O	2.065262	-0.253169	-0.527274
O7	O	1.887052	-0.402509	-0.181315
O8	O	1.715573	-0.124874	-0.399073
O9	O	2.077106	-0.380152	-0.371340
O10	O	1.859574	-0.107934	-0.543052
O11	O	1.731206	-0.292467	-0.193270
O12	O	1.509733	-0.292400	-0.414783
O13	O	1.687827	-0.380035	-0.760690
O14	O	1.497772	-0.402392	-0.570665
O15	O	1.843789	-0.253103	-0.748787
O16	O	1.871266	-0.547678	-0.387050
O17	O	1.703460	-0.547627	-0.554887
C18	C	1.457699	-0.349892	-0.496249
C19	C	1.316620	-0.357555	-0.507073
C20	C	1.787378	-0.582650	-0.470986
C21	C	1.787453	-0.689858	-0.471007
C22	C	1.787580	-0.886142	-0.471076
C23	C	1.787505	-0.776916	-0.471042
C24	C	2.118525	-0.314096	-0.445685
C25	C	2.259602	-0.306454	-0.434890
C26	C	1.762194	-0.313989	-0.802081
C27	C	1.751423	-0.306302	-0.943161
C28	C	1.787591	-0.080425	-0.471070
C29	C	1.787643	0.026793	-0.471094
C30	C	1.812718	-0.349924	-0.141233
C31	C	1.823734	-0.357326	-0.000134
H32	H	1.318717	-0.256843	-0.364809
H33	H	1.257499	-0.407177	-0.577152
N34	N	1.916664	-0.422970	-0.921788
H35	H	1.911410	-0.419362	-0.828733
H36	H	1.895164	-0.491686	-0.946414
H37	H	1.681276	-0.256734	-1.002321
