data_functionalizedCrystal
_audit_creation_method	'MofGen! by Chris Wilmer'
_symmetry_space_group_name_H-M	'P1'
_symmetry_Int_Tables_number	1
_symmetry_cell_setting	triclinic
loop_
_symmetry_equiv_pos_as_xyz
  x,y,z
_cell_length_a	12.837939
_cell_length_b	13.330367
_cell_length_c	12.811415
_cell_angle_alpha	95.435486
_cell_angle_beta	90.588266
_cell_angle_gamma	89.993256
loop_
_atom_site_label
_atom_site_type_symbol
_atom_site_fract_x
_atom_site_fract_y
_atom_site_fract_z
O1	O	-1.376639	0.108244	0.272974
O2	O	-1.074775	0.107022	0.259490
O3	O	-1.233300	0.093797	0.114199
O4	O	-1.218114	0.121468	0.418265
O5	O	-1.233277	-0.073051	0.114193
O6	O	-1.074752	-0.059826	0.259484
O7	O	-1.376616	-0.058604	0.272968
Cu8	Cu	-1.225681	-0.074449	0.266226
Cu9	Cu	-1.225709	0.122867	0.266233
O10	O	-1.218091	-0.045379	0.418259
C11	C	-1.036123	0.023184	0.254932
C12	C	-0.920987	0.021949	0.241346
N13	N	-1.225670	-0.213231	0.266221
C14	C	-0.680734	0.036798	0.404677
C15	C	-0.572553	0.035637	0.391917
C16	C	-0.596442	0.018462	0.203066
C17	C	-0.704623	0.019622	0.215827
C18	C	-0.746765	0.028792	0.316635
C19	C	-0.854948	0.029959	0.329394
C20	C	-0.878834	0.012776	0.140545
C21	C	-0.770653	0.011616	0.127785
C22	C	-1.155511	-0.680000	0.330539
C23	C	-1.295935	-0.691675	0.201920
C24	C	-1.295923	-0.586657	0.201916
C25	C	-1.225705	-0.528305	0.266225
C26	C	-1.155499	-0.574972	0.330539
C27	C	-1.366135	-0.539982	0.137611
C28	C	-1.366127	-0.434958	0.137605
C29	C	-1.295903	-0.376605	0.201910
C30	C	-1.225693	-0.423277	0.266225
C31	C	-1.155475	-0.364926	0.330535
C32	C	-1.085260	-0.411597	0.394845
C33	C	-1.085275	-0.516619	0.394844
C34	C	-1.295888	-0.271583	0.201911
C35	C	-1.155464	-0.259898	0.330534
C36	C	-0.415267	0.025235	0.277527
C37	C	-0.530403	0.026471	0.291115
C38	C	-1.232437	0.006809	0.075006
C39	C	-1.229887	-0.003811	-0.041767
N40	N	-1.225729	0.261649	0.266230
C41	C	-1.225102	0.158150	-0.261180
C42	C	-1.222707	0.148176	-0.370899
C43	C	-1.222693	-0.033732	-0.370925
C44	C	-1.225088	-0.023758	-0.261206
C45	C	-1.226295	0.072186	-0.206338
C46	C	-1.228698	0.082159	-0.096617
C47	C	-1.228676	-0.099748	-0.096645
C48	C	-1.226280	-0.109722	-0.206364
C49	C	-1.218954	0.041611	0.457452
C50	C	-1.221503	0.052238	0.574225
H51	H	-0.889258	0.037424	0.411478
H52	H	-0.518794	0.042154	0.463610
H53	H	-1.221732	0.218177	-0.415547
C54	C	-1.008024	-0.347397	0.465584
N55	N	-0.949850	-0.299038	0.518862
C56	C	-1.008040	-0.567966	0.465573
N57	N	-0.949866	-0.606645	0.518845
C58	C	-1.221343	-0.139263	-0.431299
N59	N	-1.220321	-0.218749	-0.476773
C60	C	-1.226435	0.263688	-0.200822
N61	N	-1.227438	0.343181	-0.155362
C62	C	-0.951478	0.003972	0.043692
N63	N	-1.006193	-0.002656	-0.029255
H64	H	-0.562110	0.010914	0.120992
C65	C	-0.724284	0.001532	0.016900
N66	N	-0.689360	-0.006060	-0.066620
H67	H	-1.098280	-0.212394	0.382899
C68	C	-1.224949	-0.215256	-0.266732
N69	N	-1.223949	-0.294746	-0.312200
H70	H	-0.715047	0.044265	0.486759
H71	H	-1.098339	-0.718003	0.382897
C72	C	-1.373170	-0.755865	0.131185
N73	N	-1.431345	-0.804217	0.077901
H74	H	-1.423309	-0.587494	0.085258
C75	C	-1.443357	-0.383630	0.066854
N76	N	-1.501523	-0.344969	0.013559
H77	H	-1.229651	-0.169747	-0.051981
H78	H	-1.353061	-0.233587	0.149556
H79	H	-1.229683	0.160282	-0.051945
