data_functionalizedCrystal
_audit_creation_method	'MofGen! by Chris Wilmer'
_symmetry_space_group_name_H-M	'P1'
_symmetry_Int_Tables_number	1
_symmetry_cell_setting	triclinic
loop_
_symmetry_equiv_pos_as_xyz
  x,y,z
_cell_length_a	12.827893
_cell_length_b	12.827892
_cell_length_c	12.827885
_cell_angle_alpha	89.970214
_cell_angle_beta	89.980728
_cell_angle_gamma	90.015362
loop_
_atom_site_label
_atom_site_type_symbol
_atom_site_fract_x
_atom_site_fract_y
_atom_site_fract_z
Zn1	Zn	1.597670	-0.415983	-0.590849
Zn2	Zn	2.097670	0.084017	-0.090849
Zn3	Zn	1.597564	-0.590761	-0.416109
Zn4	Zn	2.097564	-0.090761	0.083891
Zn5	Zn	1.422911	-0.416034	-0.416122
Zn6	Zn	1.922911	0.083966	0.083878
Zn7	Zn	1.422896	-0.590683	-0.590809
Zn8	Zn	1.922896	-0.090683	-0.090809
O9	O	1.510260	-0.503365	-0.503472
O10	O	2.010260	-0.003365	-0.003472
O11	O	1.743892	-0.439179	-0.567680
O12	O	2.243892	0.060821	-0.067680
O13	O	1.574357	-0.567637	-0.269875
O14	O	2.074357	-0.067637	0.230125
O15	O	1.446144	-0.269791	-0.439322
O16	O	1.946144	0.230209	0.060678
O17	O	1.743814	-0.567587	-0.439300
O18	O	2.243814	-0.067587	0.060700
O19	O	1.574538	-0.269754	-0.567693
O20	O	2.074538	0.230246	-0.067693
O21	O	1.446041	-0.439266	-0.269884
O22	O	1.946041	0.060734	0.230116
O23	O	1.276673	-0.439190	-0.439284
O24	O	1.776673	0.060810	0.060716
O25	O	1.446118	-0.567455	-0.737050
O26	O	1.946118	-0.067455	-0.237050
O27	O	1.276662	-0.567504	-0.567625
O28	O	1.776662	-0.067504	-0.067625
O29	O	1.574524	-0.439104	-0.737080
O30	O	2.074524	0.060896	-0.237080
O31	O	1.574343	-0.736986	-0.439261
O32	O	2.074343	-0.236986	0.060739
O33	O	1.446016	-0.736929	-0.567612
O34	O	1.946016	-0.236929	-0.067612
C35	C	1.238750	-0.503345	-0.503452
C36	C	1.738750	-0.003345	-0.003452
C37	C	1.122597	-0.503362	-0.503469
C38	C	1.622597	-0.003362	-0.003469
C39	C	1.070835	-0.566954	-0.566878
C40	C	1.570835	-0.066954	-0.066878
C41	C	0.950784	-0.566973	-0.566896
C42	C	1.450784	-0.066973	-0.066896
C43	C	1.510195	-0.774875	-0.503454
C44	C	2.010195	-0.274875	-0.003454
C45	C	1.510262	-0.891028	-0.503481
C46	C	2.010262	-0.391028	-0.003481
C47	C	1.573838	-0.942807	-0.440039
C48	C	2.073838	-0.442807	0.059961
C49	C	1.573910	-1.062857	-0.440066
C50	C	2.073910	-0.562857	0.059934
C51	C	1.782830	-0.503386	-0.503493
C52	C	2.282830	-0.003386	-0.003493
C53	C	1.898983	-0.503395	-0.503502
C54	C	2.398983	-0.003395	-0.003502
C55	C	1.510331	-0.503265	-0.776043
C56	C	2.010331	-0.003265	-0.276043
C57	C	1.510362	-0.503222	-0.892196
C58	C	2.010362	-0.003222	-0.392196
C59	C	1.510354	-0.230795	-0.503514
C60	C	2.010354	0.269205	-0.003514
C61	C	1.510394	-0.114642	-0.503531
C62	C	2.010394	0.385358	-0.003531
C63	C	1.573907	-0.439697	-0.943995
C64	C	2.073907	0.060303	-0.443995
C65	C	1.573940	-0.439652	-1.064045
C66	C	2.073940	0.060348	-0.564045
C67	C	1.510249	-0.503390	-0.231962
C68	C	2.010249	-0.003390	0.268038
C69	C	1.510422	-0.503138	-0.115810
C70	C	2.010422	-0.003138	0.384190
H71	H	0.943491	-0.448952	-0.449208
H72	H	1.443491	0.051048	0.050792
H73	H	1.455975	-0.557567	-0.936725
H74	H	1.955975	-0.057567	-0.436725
H75	H	1.455957	-1.070121	-0.557845
H76	H	1.955957	-0.570121	-0.057845
C77	C	1.193782	-0.581507	-0.707285
C78	C	1.693782	-0.081507	-0.207285
C79	C	1.130983	-0.640437	-0.640149
C80	C	1.630983	-0.140437	-0.140149
H81	H	1.230918	-0.626876	-0.752515
H82	H	1.730918	-0.126876	-0.252515
H83	H	1.151225	-0.536082	-0.747380
H84	H	1.651225	-0.036082	-0.247380
H85	H	1.241807	-0.541609	-0.667488
H86	H	1.741807	-0.041609	-0.167488
H87	H	1.082953	-0.680330	-0.679945
H88	H	1.582953	-0.180330	-0.179945
H89	H	1.173544	-0.685881	-0.600050
H90	H	1.673544	-0.185881	-0.100050
H91	H	1.628283	-0.385342	-0.899465
H92	H	2.128283	0.114658	-0.399465
H93	H	0.906270	-0.621420	-0.621181
H94	H	1.406270	-0.121420	-0.121181
C95	C	0.999674	-0.488825	-0.363041
C96	C	1.499674	0.011175	0.136959
C97	C	1.062462	-0.429885	-0.430181
C98	C	1.562462	0.070115	0.069819
H99	H	0.962559	-0.443462	-0.317788
H100	H	1.462559	0.056538	0.182212
H101	H	0.951641	-0.528706	-0.402827
H102	H	1.451641	-0.028706	0.097173
H103	H	1.042245	-0.534267	-0.322963
H104	H	1.542245	-0.034267	0.177037
H105	H	1.019890	-0.384448	-0.470265
H106	H	1.519890	0.115552	0.029735
H107	H	1.110500	-0.389987	-0.390391
H108	H	1.610500	0.110013	0.109609
H109	H	1.628348	-0.385270	-1.108591
H110	H	2.128348	0.114730	-0.608591
H111	H	1.628336	-1.107385	-0.385748
H112	H	2.128336	-0.607385	0.114252
C113	C	1.750767	-0.908880	-0.389310
C114	C	2.250767	-0.408880	0.110690
C115	C	1.647249	-0.882682	-0.366682
C116	C	2.147249	-0.382682	0.133318
H117	H	1.796087	-0.871758	-0.344023
H118	H	2.296087	-0.371758	0.155977
H119	H	1.760438	-0.981659	-0.379701
H120	H	2.260438	-0.481659	0.120299
H121	H	1.765986	-0.890971	-0.459551
H122	H	2.265986	-0.390971	0.040449
H123	H	1.632028	-0.900598	-0.296443
H124	H	2.132028	-0.400598	0.203557
H125	H	1.637574	-0.809886	-0.376282
H126	H	2.137574	-0.309886	0.123718
C127	C	1.495853	-1.013814	-0.643948
C128	C	1.995853	-0.513814	-0.143948
C129	C	1.436852	-0.951156	-0.576835
C130	C	1.936852	-0.451156	-0.076835
H131	H	1.450529	-1.050937	-0.689230
H132	H	1.950529	-0.550937	-0.189230
H133	H	1.541286	-0.971163	-0.683988
H134	H	2.041286	-0.471163	-0.183988
H135	H	1.535746	-1.061850	-0.604137
H136	H	2.035746	-0.561850	-0.104137
H137	H	1.396965	-0.903115	-0.616646
H138	H	1.896965	-0.403115	-0.116646
H139	H	1.391402	-0.993812	-0.536791
H140	H	1.891402	-0.493812	-0.036791
C141	C	1.378260	-0.635272	-1.126517
C142	C	1.878260	-0.135272	-0.626517
C143	C	1.436980	-0.576575	-1.055691
C144	C	1.936980	-0.076575	-0.555691
H145	H	1.332928	-0.680615	-1.089395
H146	H	1.832928	-0.180615	-0.589395
H147	H	1.338269	-0.589763	-1.169085
H148	H	1.838269	-0.089763	-0.669085
H149	H	1.423763	-0.675260	-1.169095
H150	H	1.923763	-0.175260	-0.669095
H151	H	1.391476	-0.536581	-1.013119
H152	H	1.891476	-0.036581	-0.513119
H153	H	1.476974	-0.622090	-1.013106
H154	H	1.976974	-0.122090	-0.513106
