data_functionalizedCrystal
_audit_creation_method	'MofGen! by Chris Wilmer'
_symmetry_space_group_name_H-M	'P1'
_symmetry_Int_Tables_number	1
_symmetry_cell_setting	triclinic
loop_
_symmetry_equiv_pos_as_xyz
  x,y,z
_cell_length_a	14.044220
_cell_length_b	19.288865
_cell_length_c	17.766277
_cell_angle_alpha	90.011603
_cell_angle_beta	89.995720
_cell_angle_gamma	91.837437
loop_
_atom_site_label
_atom_site_type_symbol
_atom_site_fract_x
_atom_site_fract_y
_atom_site_fract_z
O1	O	1.256998	-0.167413	-0.062531
O2	O	1.756998	0.332587	0.437469
O3	O	0.981055	-0.161372	-0.062549
O4	O	1.481055	0.338628	0.437451
O5	O	1.127000	-0.063774	-0.062525
O6	O	1.627000	0.436226	0.437475
O7	O	1.111053	-0.265010	-0.062556
O8	O	1.611053	0.234990	0.437444
O9	O	1.126975	-0.063767	0.062664
O10	O	1.626975	0.436233	0.562664
O11	O	0.981029	-0.161365	0.062639
O12	O	1.481029	0.338635	0.562639
O13	O	1.256973	-0.167406	0.062658
O14	O	1.756973	0.332594	0.562658
Cu15	Cu	1.118999	-0.164385	0.074079
Cu16	Cu	1.618999	0.335615	0.574079
Cu17	Cu	1.119029	-0.164393	-0.073971
Cu18	Cu	1.619029	0.335607	0.426029
O19	O	1.111028	-0.265003	0.062633
O20	O	1.611028	0.234997	0.562633
C21	C	0.945739	-0.158724	0.000043
C22	C	1.445739	0.341276	0.500043
C23	C	0.840547	-0.150836	0.000036
C24	C	1.340547	0.349164	0.500036
C25	C	0.647947	-0.136416	0.000053
C26	C	1.147947	0.363584	0.500053
C27	C	0.590075	-0.192359	0.000048
C28	C	1.090075	0.307641	0.500048
C29	C	0.482906	-0.184335	0.000058
C30	C	0.982906	0.315665	0.500058
C31	C	0.755126	-0.144438	0.000044
C32	C	1.255126	0.355562	0.500044
C33	C	1.126474	-0.037862	0.000072
C34	C	1.626474	0.462138	0.500072
C35	C	1.124934	0.039341	0.000078
C36	C	1.624934	0.539341	0.500078
C37	C	1.292289	-0.170054	0.000064
C38	C	1.792289	0.329946	0.500064
C39	C	1.397481	-0.177942	0.000065
C40	C	1.897481	0.322058	0.500065
C41	C	1.111554	-0.290916	0.000035
C42	C	1.611554	0.209084	0.500035
C43	C	1.113094	-0.368119	0.000023
C44	C	1.613094	0.131881	0.500023
N45	N	1.118984	-0.164379	0.178209
N46	N	1.618984	0.335621	0.678209
C47	C	1.210568	0.078535	0.000088
C48	C	1.710568	0.578535	0.500088
C49	C	1.209121	0.151075	0.000076
C50	C	1.709121	0.651075	0.500076
C51	C	1.122035	0.184418	0.000069
C52	C	1.622035	0.684418	0.500069
C53	C	1.036390	0.145215	0.000056
C54	C	1.536390	0.645215	0.500056
C55	C	1.037839	0.072676	0.000060
C56	C	1.537839	0.572676	0.500060
C57	C	1.053566	0.297107	0.043916
C58	C	1.553566	0.797107	0.543916
C59	C	1.052120	0.369644	0.043916
C60	C	1.552120	0.869644	0.543916
C61	C	1.117560	0.408151	0.000052
C62	C	1.617560	0.908151	0.500052
C63	C	1.184463	0.374113	-0.043802
C64	C	1.684463	0.874113	0.456198
C65	C	1.185912	0.301574	-0.043797
C66	C	1.685912	0.801574	0.456203
C67	C	1.120453	0.263074	0.000064
C68	C	1.620453	0.763074	0.500064
C69	C	1.201631	0.526002	0.000048
C70	C	1.701631	1.026002	0.500048
C71	C	1.200181	0.598543	0.000031
C72	C	1.700181	1.098543	0.500031
C73	C	1.027447	0.592681	0.000019
C74	C	1.527447	1.092681	0.500019
C75	C	1.028900	0.520142	0.000028
C76	C	1.528900	1.020142	0.500028
C77	C	1.115995	0.486806	0.000046
C78	C	1.615995	0.986806	0.500046
N79	N	1.119051	-0.164394	-0.178101
N80	N	1.619051	0.335606	0.321899
C81	C	1.183630	-0.121187	0.217607
C82	C	1.683630	0.378813	0.717607
C83	C	1.183635	-0.121184	0.296409
C84	C	1.683635	0.378816	0.796409
C85	C	1.119004	-0.164386	0.335810
C86	C	1.619004	0.335614	0.835810
C87	C	1.054347	-0.207580	0.296403
C88	C	1.554347	0.292420	0.796403
C89	C	1.054337	-0.207577	0.217602
C90	C	1.554337	0.292423	0.717602
C91	C	1.106318	-0.226858	0.460638
C92	C	1.606318	0.273142	0.960638
C93	C	1.106335	-0.226863	0.539437
C94	C	1.606335	0.273137	1.039437
C95	C	1.119030	-0.164396	0.578856
C96	C	1.619030	0.335604	1.078856
C97	C	1.131728	-0.101922	0.539467
C98	C	1.631728	0.398078	1.039467
C99	C	1.131718	-0.101919	0.460667
C100	C	1.631718	0.398081	0.960667
C101	C	1.119008	-0.164394	0.421256
C102	C	1.619008	0.335606	0.921256
C103	C	1.183684	-0.121197	0.703700
C104	C	1.683684	0.378803	1.203700
C105	C	1.183683	-0.121193	0.782503
C106	C	1.683683	0.378807	1.282503
C107	C	1.054400	-0.207595	0.782495
C108	C	1.554400	0.292405	1.282495
C109	C	1.054396	-0.207593	0.703694
C110	C	1.554396	0.292407	1.203694
C111	C	1.119044	-0.164395	0.664301
C112	C	1.619044	0.335605	1.164301
H113	H	0.621016	-0.246280	0.000036
H114	H	1.121016	0.253720	0.500036
N115	N	1.295564	0.490042	0.000067
N116	N	1.795564	0.990042	0.500067
H117	H	1.300028	0.460058	-0.046333
H118	H	1.800028	0.960058	0.453667
H119	H	1.299938	0.460132	0.046513
H120	H	1.799938	0.960132	0.546513
N121	N	1.292547	0.640821	0.000038
N122	N	1.792547	1.140821	0.500038
H123	H	1.347937	0.608693	0.000053
H124	H	1.847937	1.108693	0.500053
H125	H	1.295690	0.671057	0.046444
H126	H	1.795690	1.171057	0.546444
N127	N	1.301488	0.193359	0.000102
N128	N	1.801488	0.693359	0.500102
H129	H	1.287352	0.244370	0.000100
H130	H	1.787352	0.744370	0.500100
H131	H	1.339479	0.181954	-0.046298
H132	H	1.839479	0.681954	0.453702
N133	N	1.253361	-0.074601	0.338921
N134	N	1.753361	0.425399	0.838921
H135	H	1.242671	-0.024633	0.325227
H136	H	1.742671	0.475367	0.825227
H137	H	1.320546	-0.086857	0.325180
H138	H	1.820546	0.413143	0.825180
H139	H	1.142065	-0.051055	0.571561
H140	H	1.642065	0.448945	1.071561
N141	N	0.606973	-0.064994	0.000073
N142	N	1.106973	0.435006	0.500073
H143	H	0.535112	-0.069315	0.000078
H144	H	1.035112	0.430685	0.500078
H145	H	0.629239	-0.038948	-0.046334
H146	H	1.129239	0.461052	0.453666
H147	H	1.096001	-0.277733	0.571501
H148	H	1.596001	0.222267	1.071501
N149	N	1.304501	0.042581	0.000106
N150	N	1.804501	0.542581	0.500106
H151	H	1.358531	0.078422	0.000109
H152	H	1.858531	0.578422	0.500109
H153	H	1.308879	0.012601	-0.046301
H154	H	1.808879	0.512601	0.453699
N155	N	1.258062	0.264859	-0.091094
N156	N	1.758062	0.764859	0.408906
H157	H	1.299302	0.300255	-0.118884
H158	H	1.799302	0.800255	0.381116
H159	H	1.223798	0.233571	-0.128555
H160	H	1.723798	0.733571	0.371445
N161	N	1.145412	-0.034542	0.418185
N162	N	1.645412	0.465458	0.918185
H163	H	1.143482	-0.044022	0.362285
H164	H	1.643482	0.455978	0.862285
H165	H	1.209060	-0.012194	0.431957
H166	H	1.709060	0.487806	0.931957
N167	N	1.255055	0.415634	-0.091114
N168	N	1.755055	0.915634	0.408886
H169	H	1.243985	0.466751	-0.084467
H170	H	1.743985	0.966751	0.415533
H171	H	1.246461	0.402637	-0.145820
H172	H	1.746461	0.902637	0.354180
N173	N	0.933516	0.628633	0.000003
N174	N	1.433516	1.128633	0.500003
H175	H	0.945590	0.680534	-0.000001
H176	H	1.445590	1.180534	0.499999
H177	H	0.896043	0.614687	0.046409
H178	H	1.396043	1.114687	0.546409
N179	N	0.979966	0.406360	0.091207
N180	N	1.479966	0.906360	0.591207
H181	H	1.014154	0.437644	0.128717
H182	H	1.514154	0.937644	0.628717
H183	H	0.938737	0.370921	0.118940
H184	H	1.438737	0.870921	0.618940
N185	N	0.984676	-0.254190	0.661203
N186	N	1.484676	0.245810	1.161203
H187	H	1.020748	-0.287194	0.628495
H188	H	1.520748	0.212806	1.128495
H189	H	0.942845	-0.224988	0.628566
H190	H	1.442845	0.275012	1.128566
N191	N	0.936537	0.477862	0.000022
N192	N	1.436537	0.977862	0.500022
H193	H	0.881147	0.509990	0.000016
H194	H	1.381147	1.009990	0.500016
H195	H	0.933367	0.447649	0.046433
H196	H	1.433367	0.947649	0.546433
H197	H	1.095964	-0.277729	0.428549
H198	H	1.595964	0.222271	0.928549
N199	N	0.982975	0.255577	0.091224
N200	N	1.482975	0.755577	0.591224
H201	H	0.940380	0.288145	0.119008
H202	H	1.440380	0.788145	0.619008
H203	H	1.018438	0.226671	0.128690
H204	H	1.518438	0.726671	0.628690
N205	N	1.253404	-0.074606	0.661205
N206	N	1.753404	0.425394	1.161205
H207	H	1.294354	-0.047239	0.698124
H208	H	1.794354	0.452761	1.198124
H209	H	1.217258	-0.041645	0.628521
H210	H	1.717258	0.458355	1.128521
H211	H	0.965484	0.172367	0.000049
H212	H	1.465484	0.672367	0.500049
N213	N	0.945473	0.030397	0.000050
N214	N	1.445473	0.530397	0.500050
H215	H	0.890082	0.062524	0.000041
H216	H	1.390082	0.562524	0.500041
H217	H	0.942303	0.000186	0.046462
H218	H	1.442303	0.500186	0.546462
N219	N	1.253350	-0.074595	0.175119
N220	N	1.753350	0.425405	0.675119
H221	H	1.294303	-0.047232	0.212040
H222	H	1.794303	0.452768	0.712040
H223	H	1.217203	-0.041629	0.142440
H224	H	1.717203	0.458371	0.642440
N225	N	1.253427	-0.074618	0.825001
N226	N	1.753427	0.425382	1.325001
H227	H	1.294384	-0.047261	0.788085
H228	H	1.794384	0.452739	1.288085
H229	H	1.295191	-0.103836	0.857675
H230	H	1.795191	0.396164	1.357675
H231	H	1.001772	-0.242768	0.814575
H232	H	1.501772	0.257232	1.314575
N233	N	0.984632	-0.254173	0.338894
N234	N	1.484632	0.245827	0.838894
H235	H	0.994448	-0.247622	0.394792
H236	H	1.494448	0.252378	0.894792
H237	H	0.995358	-0.304117	0.325104
H238	H	1.495358	0.195883	0.825104
H239	H	1.001694	-0.242749	0.185524
H240	H	1.501694	0.257251	0.685524
