data_functionalizedCrystal
_audit_creation_method	'MofGen! by Chris Wilmer'
_symmetry_space_group_name_H-M	'P1'
_symmetry_Int_Tables_number	1
_symmetry_cell_setting	triclinic
loop_
_symmetry_equiv_pos_as_xyz
  x,y,z
_cell_length_a	15.298068
_cell_length_b	15.299816
_cell_length_c	15.298259
_cell_angle_alpha	91.589838
_cell_angle_beta	91.587309
_cell_angle_gamma	91.634773
loop_
_atom_site_label
_atom_site_type_symbol
_atom_site_fract_x
_atom_site_fract_y
_atom_site_fract_z
Zn1	Zn	1.255657	-0.015644	-0.730523
Zn2	Zn	1.303453	-0.178023	-0.616083
Zn3	Zn	1.141169	-0.063566	-0.568130
Zn4	Zn	1.132839	-0.186220	-0.738736
O5	O	1.208279	-0.110863	-0.663368
O6	O	1.381313	-0.013697	-0.731974
O7	O	1.305415	-0.179466	-0.490429
O8	O	1.139839	0.062078	-0.566166
O9	O	1.416429	-0.132997	-0.647895
O10	O	1.223953	0.097287	-0.685476
O11	O	1.186185	-0.095375	-0.455198
O12	O	1.020747	-0.103323	-0.574129
O13	O	1.125642	-0.146968	-0.856939
O14	O	1.014627	-0.193437	-0.699473
O15	O	1.215875	-0.021646	-0.850906
O16	O	1.297338	-0.298398	-0.655859
O17	O	1.171988	-0.304421	-0.745971
C18	C	0.986750	-0.154470	-0.632490
C19	C	0.891977	-0.173143	-0.619304
C20	C	0.551679	0.022381	-0.757651
C21	C	0.640722	0.039923	-0.770045
C22	C	0.703540	-0.013342	-0.732361
C23	C	0.677307	-0.084152	-0.682281
C24	C	0.588255	-0.101700	-0.669891
C25	C	0.740116	-0.137423	-0.644601
C26	C	0.713882	-0.208233	-0.594521
C27	C	0.624839	-0.225778	-0.582133
C28	C	0.562021	-0.172513	-0.619817
C29	C	0.829167	-0.119875	-0.656990
C30	C	0.865743	-0.243956	-0.569230
C31	C	0.776700	-0.261498	-0.556836
C32	C	1.238965	-0.332332	-0.707032
C33	C	1.252165	-0.427059	-0.725750
C34	C	1.114440	-0.767674	-0.529949
C35	C	1.102033	-0.678675	-0.512363
C36	C	1.139565	-0.615766	-0.565708
C37	C	1.189506	-0.641866	-0.636642
C38	C	1.201908	-0.730874	-0.654234
C39	C	1.227033	-0.578967	-0.689993
C40	C	1.276974	-0.605066	-0.760928
C41	C	1.289374	-0.694066	-0.778516
C42	C	1.251842	-0.756974	-0.725171
C43	C	1.214631	-0.489958	-0.672402
C44	C	1.302099	-0.453159	-0.796687
C45	C	1.314506	-0.542158	-0.814273
C46	C	1.430674	-0.067087	-0.694367
C47	C	1.525445	-0.048432	-0.707578
C48	C	1.164498	-0.079875	-0.885719
C49	C	1.145841	-0.066670	-0.980471
C50	C	1.177493	0.111478	-0.619556
C51	C	1.164374	0.206226	-0.600885
C52	C	1.341561	-0.204581	-1.320930
C53	C	1.359086	-0.216995	-1.231905
C54	C	1.305777	-0.179414	-1.169043
C55	C	1.234938	-0.129419	-1.195213
C56	C	1.217407	-0.117010	-1.284246
C57	C	1.181622	-0.091843	-1.132359
C58	C	1.110784	-0.041848	-1.158529
C59	C	1.093256	-0.029441	-1.247554
C60	C	1.146566	-0.067021	-1.310417
C61	C	1.199154	-0.104252	-1.043326
C62	C	1.075000	-0.016681	-1.006642
C63	C	1.057474	-0.004268	-1.095667
C64	C	1.251931	-0.141660	-0.441877
C65	C	1.270720	-0.154592	-0.347100
H66	H	0.755328	-0.319153	-0.516061
O67	O	1.129696	-0.054935	-1.396920
C68	C	1.202519	-0.012794	-1.433734
H69	H	1.263748	-0.024837	-1.392140
H70	H	1.211275	-0.039964	-1.502982
H71	H	1.191421	0.060492	-1.435851
H72	H	1.384953	-0.235181	-1.372119
H73	H	1.035567	0.011259	-1.268858
H74	H	0.999796	0.036439	-1.116987
O75	O	0.926832	-0.295709	-0.532758
C76	C	0.976444	-0.333951	-0.599242
H77	H	0.972911	-0.292347	-0.659844
H78	H	1.047473	-0.337823	-0.575453
H79	H	0.949069	-0.402605	-0.616189
O80	O	1.322675	-0.191569	-1.082560
C81	C	1.249835	-0.233663	-1.045728
H82	H	1.209624	-0.270613	-1.099440
H83	H	1.273325	-0.281636	-0.995072
H84	H	1.207657	-0.182780	-1.012891
H85	H	1.061371	-0.657428	-0.454609
H86	H	1.173969	-0.468717	-0.614646
O87	O	0.475505	-0.189609	-0.607931
C88	C	0.432738	-0.206076	-0.689802
H89	H	0.482292	-0.228282	-0.739463
H90	H	0.380040	-0.259532	-0.683399
H91	H	0.401300	-0.143734	-0.712746
O92	O	1.338423	-0.391982	-0.848518
C93	C	1.271829	-0.342431	-0.886611
H94	H	1.211319	-0.346083	-0.844868
H95	H	1.295568	-0.271376	-0.890524
H96	H	1.254749	-0.369764	-0.955241
H97	H	0.850517	-0.062219	-0.697765
H98	H	1.416756	-0.257711	-1.210605
O99	O	1.023202	0.019690	-0.945510
C100	C	0.984976	-0.046862	-0.895914
H101	H	1.026619	-0.107402	-0.899499
H102	H	0.981071	-0.023115	-0.824873
H103	H	0.916330	-0.063883	-0.923261
O104	O	0.790002	0.003845	-0.744448
C105	C	0.799686	0.077753	-0.796747
H106	H	0.739099	0.119097	-0.791819
H107	H	0.859813	0.118302	-0.772978
H108	H	0.807976	0.055624	-0.867733
H109	H	0.662074	0.097575	-0.810824
H110	H	0.603484	-0.283442	-0.541362
O111	O	0.490574	0.073981	-0.794307
C112	C	0.435013	0.022876	-0.851721
H113	H	0.436570	-0.048508	-0.832417
H114	H	0.365320	0.046830	-0.847649
H115	H	0.458219	0.028979	-0.921523
H116	H	1.129462	-0.543300	-0.551384
H117	H	1.261945	-0.829446	-0.739483
O118	O	1.077934	-0.828867	-0.478269
C119	C	1.020440	-0.884454	-0.529261
H120	H	1.039587	-0.882808	-0.600697
H121	H	1.024607	-0.954153	-0.505322
H122	H	0.950639	-0.861351	-0.522998
H123	H	1.330035	-0.715312	-0.836279
H124	H	1.355168	-0.563421	-0.872029
O125	O	1.268008	-0.152697	-1.017799
C126	C	1.326516	-0.100500	-0.964434
H127	H	1.290130	-0.043677	-0.934170
H128	H	1.355079	-0.141701	-0.910267
H129	H	1.381647	-0.073915	-1.005710
