data_functionalizedCrystal
_audit_creation_method	'MofGen! by Chris Wilmer'
_symmetry_space_group_name_H-M	'P1'
_symmetry_Int_Tables_number	1
_symmetry_cell_setting	triclinic
loop_
_symmetry_equiv_pos_as_xyz
  x,y,z
_cell_length_a	15.944493
_cell_length_b	15.944499
_cell_length_c	13.448316
_cell_angle_alpha	89.990649
_cell_angle_beta	90.012083
_cell_angle_gamma	96.523674
loop_
_atom_site_label
_atom_site_type_symbol
_atom_site_fract_x
_atom_site_fract_y
_atom_site_fract_z
O1	O	-0.108130	1.114531	-0.082764
O2	O	-0.121532	0.869973	-0.082754
O3	O	0.007448	0.998956	-0.082739
O4	O	-0.237111	0.985548	-0.082779
O5	O	0.007456	0.998940	0.082645
O6	O	-0.121524	0.869957	0.082630
O7	O	-0.108122	1.114515	0.082620
Cu8	Cu	-0.114822	0.992234	0.097726
Cu9	Cu	-0.114832	0.992254	-0.097860
O10	O	-0.237103	0.985532	0.082605
C11	C	-0.120979	0.838670	-0.000061
C12	C	-0.119334	0.745422	-0.000056
C13	C	-0.194269	0.453871	-0.000083
C14	C	-0.155320	0.514916	-0.081622
C15	C	-0.113358	0.409787	-0.000078
C16	C	-0.155290	0.514886	0.081434
C17	C	-0.116299	0.574695	-0.000066
C18	C	-0.074387	0.469604	-0.081684
C19	C	-0.074369	0.469568	0.081445
C20	C	-0.035361	0.530595	-0.000113
C21	C	-0.111666	0.314787	-0.000086
C22	C	-0.117984	0.669694	-0.000065
C23	C	-0.268401	0.986088	-0.000092
C24	C	-0.361650	0.987731	-0.000108
C25	C	-0.597424	0.911809	-0.000073
C26	C	-0.647997	0.952759	-0.081613
C27	C	-0.532370	0.990775	-0.000085
C28	C	-0.647947	0.952761	0.081443
C29	C	-0.697279	0.993710	-0.000059
C30	C	-0.581716	1.031704	-0.081693
C31	C	-0.581662	1.031695	0.081436
C32	C	-0.632203	1.072703	-0.000124
C33	C	-0.437370	0.989082	-0.000101
C34	C	-0.792276	0.995409	-0.000050
C35	C	0.038747	0.998400	-0.000044
C36	C	0.131995	0.996757	-0.000034
C37	C	-0.108675	1.145818	-0.000076
C38	C	-0.110320	1.239066	-0.000087
N39	N	-0.114815	0.992227	0.235290
N40	N	-0.114832	0.992268	-0.235424
C41	C	-0.057726	1.049358	0.287337
C42	C	-0.057726	1.049364	0.391440
C43	C	-0.114819	0.992241	0.443495
C44	C	-0.171910	0.935103	0.391440
C45	C	-0.171906	0.935095	0.287339
C46	C	-0.171916	0.935127	0.608420
C47	C	-0.171921	0.935136	0.712529
C48	C	-0.057735	1.049396	0.712522
C49	C	-0.057731	1.049387	0.608420
C50	C	-0.114824	0.992250	0.556373
H51	H	-0.040200	0.449639	-0.150695
H52	H	0.031847	0.563787	-0.000145
O53	O	-0.547327	1.071329	-0.164107
C54	C	-0.505618	1.014143	-0.220545
H55	H	-0.533036	0.946787	-0.202061
H56	H	-0.514718	1.026572	-0.303110
H57	H	-0.435376	1.022828	-0.202104
H58	H	-0.218412	0.888620	0.754906
H59	H	-0.647656	1.140775	-0.000169
H60	H	-0.581809	0.843789	-0.000153
H61	H	-0.676869	0.919390	0.150381
O62	O	-0.274356	0.414045	-0.000010
C63	C	-0.287094	0.363695	0.086048
H64	H	-0.240273	0.388881	0.145963
H65	H	-0.354225	0.365696	0.114362
H66	H	-0.277088	0.295796	0.067408
H67	H	-0.189523	0.534947	0.150365
H68	H	-0.189548	0.535014	-0.150563
O69	O	-0.033693	0.445584	0.163797
C70	C	-0.076554	0.468407	0.249600
H71	H	-0.145042	0.475135	0.230053
H72	H	-0.074488	0.417479	0.308773
H73	H	-0.044791	0.531062	0.279355
O74	O	-0.002157	1.104865	0.762962
C75	C	0.081005	1.091222	0.737569
H76	H	0.080919	1.058836	0.661996
H77	H	0.122336	1.154371	0.733994
H78	H	0.107007	1.049430	0.796180
H79	H	-0.676960	0.919418	-0.150550
H80	H	-0.552684	1.065007	0.150376
O81	O	-0.227400	0.879715	0.236667
C82	C	-0.279255	0.924679	0.176437
H83	H	-0.245830	0.990411	0.160831
H84	H	-0.292522	0.889611	0.103239
H85	H	-0.341342	0.930375	0.216534
O86	O	-0.002184	1.104880	0.236930
C87	C	0.048190	1.155320	0.305197
H88	H	0.049151	1.120888	0.379415
H89	H	0.115269	1.168145	0.275138
H90	H	0.020887	1.217711	0.316241
H91	H	-0.011239	1.095884	0.433817
H92	H	-0.011246	1.095904	0.566038
H93	H	-0.218405	0.888597	0.566047
H94	H	-0.218394	0.888589	0.433829
