data_functionalizedCrystal
_audit_creation_method	'MofGen! by Chris Wilmer'
_symmetry_space_group_name_H-M	'P1'
_symmetry_Int_Tables_number	1
_symmetry_cell_setting	triclinic
loop_
_symmetry_equiv_pos_as_xyz
  x,y,z
_cell_length_a	17.699077
_cell_length_b	10.908878
_cell_length_c	16.176319
_cell_angle_alpha	89.992977
_cell_angle_beta	89.993140
_cell_angle_gamma	71.682684
loop_
_atom_site_label
_atom_site_type_symbol
_atom_site_fract_x
_atom_site_fract_y
_atom_site_fract_z
O1	O	0.983815	0.162418	-0.068734
O2	O	0.760797	0.183562	-0.068738
O3	O	0.901870	-0.014035	-0.068732
O4	O	0.842742	0.360015	-0.068739
O5	O	0.901855	-0.014048	0.068761
O6	O	0.760783	0.183549	0.068755
O7	O	0.983800	0.162406	0.068759
Cu8	Cu	0.872290	0.172976	0.081312
Cu9	Cu	0.872307	0.172991	-0.081290
O10	O	0.842728	0.360003	0.068754
C11	C	0.732687	0.182799	0.000008
C12	C	0.648952	0.180530	0.000007
C13	C	0.609610	0.179454	0.074955
C14	C	0.530936	0.177302	0.074956
C15	C	0.491604	0.176235	0.000008
C16	C	0.530952	0.177307	-0.074946
C17	C	0.609626	0.179450	-0.074946
C18	C	0.213667	0.168662	-0.074948
C19	C	0.134987	0.166522	-0.074942
C20	C	0.134978	0.166514	0.074955
C21	C	0.213652	0.168657	0.074955
C22	C	0.252995	0.169722	0.000001
C23	C	0.338302	0.172054	0.000001
C24	C	0.406296	0.173912	0.000007
C25	C	0.907388	-0.061901	0.000014
C26	C	0.923844	-0.204505	0.000011
C27	C	0.863800	-0.253324	0.000008
C28	C	0.880806	-0.400713	0.000006
C29	C	1.011910	0.163168	0.000011
C30	C	1.095645	0.165437	0.000007
C31	C	0.837209	0.407868	0.000006
C32	C	0.820753	0.550473	0.000003
N33	N	0.872284	0.172965	0.195677
N34	N	0.872321	0.172992	-0.195655
C35	C	0.934762	0.085505	0.238943
C36	C	0.934766	0.085503	0.325491
C37	C	0.872294	0.172970	0.368769
C38	C	0.809810	0.260434	0.325497
C39	C	0.809804	0.260428	0.238951
C40	C	0.809833	0.260458	0.674525
C41	C	0.809845	0.260460	0.761077
C42	C	0.934795	0.085533	0.761064
C43	C	0.934789	0.085527	0.674519
C44	C	0.872303	0.172987	0.631254
C45	C	0.872299	0.172986	0.537409
C46	C	0.872301	0.172978	0.462612
H47	H	0.245692	0.169525	-0.135980
Cl48	Cl	1.013306	-0.024454	0.184545
Cl49	Cl	0.481515	0.175918	-0.169168
Cl50	Cl	0.659086	0.180797	-0.169171
Cl51	Cl	0.731285	0.370409	0.620140
H52	H	0.985672	0.014315	0.796300
H53	H	0.498912	0.176404	0.135987
H54	H	0.799803	-0.186004	0.000012
H55	H	0.944807	-0.468030	0.000010
H56	H	0.758970	0.331688	0.796313
Cl57	Cl	0.721939	-0.345607	0.000012
Cl58	Cl	0.731270	0.370388	0.379903
H59	H	0.758928	0.331646	0.203724
H60	H	0.641627	0.180334	0.135987
Cl61	Cl	1.022654	-0.308433	0.000018
H62	H	0.245671	0.169532	0.135986
Cl63	Cl	1.013310	-0.024450	0.379884
H64	H	0.102936	0.165640	0.135986
H65	H	0.102965	0.165652	-0.135978
Cl66	Cl	1.013329	-0.024429	0.620114
