data_functionalizedCrystal
_audit_creation_method	'MofGen! by Chris Wilmer'
_symmetry_space_group_name_H-M	'P1'
_symmetry_Int_Tables_number	1
_symmetry_cell_setting	triclinic
loop_
_symmetry_equiv_pos_as_xyz
  x,y,z
_cell_length_a	11.792254
_cell_length_b	11.792241
_cell_length_c	9.798715
_cell_angle_alpha	89.996704
_cell_angle_beta	89.996361
_cell_angle_gamma	84.196007
loop_
_atom_site_label
_atom_site_type_symbol
_atom_site_fract_x
_atom_site_fract_y
_atom_site_fract_z
O1	O	1.506899	0.155634	-0.113490
O2	O	2.006899	0.655634	0.386510
O3	O	1.176560	0.171652	-0.113493
O4	O	1.676560	0.671652	0.386507
O5	O	1.349746	-0.001527	-0.113482
O6	O	1.849746	0.498473	0.386518
O7	O	1.333713	0.328813	-0.113502
O8	O	1.833713	0.828813	0.386498
O9	O	1.349733	-0.001528	0.113500
O10	O	1.849733	0.498472	0.613500
O11	O	1.176547	0.171651	0.113489
O12	O	1.676547	0.671651	0.613489
O13	O	1.506886	0.155633	0.113492
O14	O	2.006886	0.655633	0.613492
Zn15	Zn	1.341715	0.163642	0.149529
Zn16	Zn	1.841715	0.663642	0.649529
Zn17	Zn	1.341732	0.163643	-0.149530
Zn18	Zn	1.841732	0.663643	0.350470
O19	O	1.333700	0.328812	0.113481
O20	O	1.833700	0.828812	0.613481
C21	C	1.134263	0.170642	-0.000003
C22	C	1.634263	0.670642	0.499997
C23	C	1.008250	0.167622	-0.000004
C24	C	1.508250	0.667622	0.499996
C25	C	1.348732	-0.043819	0.000008
C26	C	1.848732	0.456181	0.500008
C27	C	1.345718	-0.169832	0.000007
C28	C	1.845718	0.330168	0.500007
C29	C	0.905913	0.165168	-0.000009
C30	C	1.405913	0.665168	0.499991
C31	C	0.777527	0.162100	-0.000010
C32	C	1.277527	0.662100	0.499990
C33	C	1.340175	-0.400545	-0.000016
C34	C	1.840175	0.099455	0.499984
C35	C	1.343255	-0.272160	-0.000003
C36	C	1.843255	0.227840	0.499997
C37	C	1.549183	0.156643	-0.000002
C38	C	2.049183	0.656643	0.499998
C39	C	1.675196	0.159663	-0.000010
C40	C	2.175196	0.659663	0.499990
C41	C	1.334714	0.371104	-0.000013
C42	C	1.834714	0.871104	0.499987
C43	C	1.337728	0.497118	-0.000021
C44	C	1.837728	0.997118	0.499979
N45	N	1.341711	0.163641	0.353628
N46	N	1.841711	0.663641	0.853628
N47	N	1.341744	0.163635	-0.353630
N48	N	1.841744	0.663635	0.146370
C49	C	1.414428	0.090608	0.421410
C50	C	1.914428	0.590608	0.921410
C51	C	1.414446	0.090604	0.578573
C52	C	1.914446	0.590604	1.078573
H53	H	1.476667	0.028080	0.363091
H54	H	1.976667	0.528080	0.863091
C55	C	1.479329	-0.105529	0.622818
C56	C	1.979329	0.394471	1.122818
C57	C	1.498492	0.006187	0.657249
C58	C	1.998492	0.506187	1.157249
H59	H	1.531223	-0.157645	0.671388
H60	H	2.031223	0.342355	1.171388
H61	H	1.403443	-0.118123	0.646194
H62	H	1.903443	0.381877	1.146194
H63	H	1.490346	-0.116587	0.527522
H64	H	1.990346	0.383413	1.027522
H65	H	1.487467	0.017248	0.752545
H66	H	1.987467	0.517248	1.252545
H67	H	1.574397	0.018787	0.633884
H68	H	2.074397	0.518787	1.133884
H69	H	1.279489	0.226169	0.588090
H70	H	1.779489	0.726169	1.088090
H71	H	1.279465	0.226161	0.411949
H72	H	1.779465	0.726161	0.911949
