data_functionalizedCrystal
_audit_creation_method	'MofGen! by Chris Wilmer'
_symmetry_space_group_name_H-M	'P1'
_symmetry_Int_Tables_number	1
_symmetry_cell_setting	triclinic
loop_
_symmetry_equiv_pos_as_xyz
  x,y,z
_cell_length_a	19.077236
_cell_length_b	15.297327
_cell_length_c	19.076919
_cell_angle_alpha	101.510342
_cell_angle_beta	89.887323
_cell_angle_gamma	102.353600
loop_
_atom_site_label
_atom_site_type_symbol
_atom_site_fract_x
_atom_site_fract_y
_atom_site_fract_z
Zn1	Zn	1.011717	-0.332096	-0.483479
Zn2	Zn	0.995795	-0.478709	-0.384927
Zn3	Zn	0.899000	-0.331616	-0.361197
Zn4	Zn	0.871903	-0.490914	-0.499244
O5	O	0.944604	-0.408334	-0.432212
O6	O	1.108627	-0.346637	-0.473739
O7	O	0.987632	-0.453888	-0.282762
O8	O	0.931955	-0.203656	-0.360888
O9	O	1.096929	-0.454353	-0.401334
O10	O	1.014768	-0.204008	-0.450728
O11	O	0.916517	-0.345820	-0.265327
O12	O	0.796383	-0.357655	-0.376175
O13	O	0.885772	-0.475155	-0.596170
O14	O	0.776475	-0.474690	-0.477598
O15	O	0.988493	-0.358472	-0.584587
O16	O	0.961357	-0.608352	-0.416621
O17	O	0.870334	-0.617319	-0.500609
C18	C	0.760754	-0.417445	-0.426023
C19	C	0.682098	-0.421366	-0.423394
C20	C	0.651220	-0.367223	-0.459938
C21	C	0.577316	-0.370903	-0.457462
C22	C	0.534290	-0.428730	-0.418446
C23	C	0.565173	-0.482876	-0.381898
C24	C	0.639077	-0.479191	-0.384370
C25	C	0.312610	-0.445750	-0.406997
C26	C	0.238701	-0.449433	-0.404529
C27	C	0.250849	-0.337458	-0.480093
C28	C	0.324753	-0.333782	-0.482565
C29	C	0.355630	-0.387924	-0.446014
N30	N	0.458747	-0.432495	-0.415916
N31	N	0.431173	-0.384154	-0.448540
C32	C	0.911196	-0.646031	-0.462917
C33	C	0.896968	-0.747717	-0.476078
C34	C	1.046575	-1.015551	-0.338395
C35	C	1.059943	-0.920012	-0.326025
C36	C	1.019201	-0.876933	-0.363537
C37	C	0.965088	-0.929403	-0.413421
C38	C	0.951715	-1.024952	-0.425788
C39	C	0.924340	-0.886334	-0.450931
C40	C	0.870227	-0.938804	-0.500815
C41	C	0.856857	-1.034343	-0.513179
C42	C	0.897599	-1.077421	-0.475667
C43	C	0.937713	-0.790786	-0.438564
C44	C	0.842852	-0.800186	-0.525957
C45	C	0.829484	-0.895725	-0.538327
C46	C	1.129171	-0.399187	-0.438425
C47	C	1.207823	-0.395289	-0.441073
C48	C	0.935886	-0.418229	-0.616770
C49	C	0.932171	-0.422445	-0.695418
C50	C	0.978160	-0.169708	-0.401403
C51	C	0.992460	-0.068021	-0.388274
C52	C	0.983905	-0.363678	-0.726338
C53	C	0.980406	-0.367637	-0.800235
C54	C	0.925177	-0.430368	-0.843212
C55	C	0.873438	-0.489137	-0.812287
C56	C	0.876935	-0.485173	-0.738390
C57	C	0.908983	-0.448733	-1.064866
C58	C	0.905492	-0.452695	-1.138768
C59	C	1.012459	-0.331193	-1.126711
C60	C	1.015953	-0.327239	-1.052814
C61	C	0.964213	-0.386004	-1.021894
N62	N	0.921601	-0.434418	-0.918747
N63	N	0.967786	-0.381949	-0.946360
C64	C	0.953337	-0.398409	-0.248364
C65	C	0.957225	-0.393928	-0.169688
H66	H	0.359780	-0.286696	-0.514339
F67	F	0.345465	-0.503356	-0.368081
H68	H	0.866860	-0.496598	-1.039703
H69	H	0.828467	-0.540211	-0.847284
H70	H	0.981772	-0.748073	-0.397948
H71	H	1.028880	-0.312599	-0.691351
F72	F	0.519380	-0.544416	-0.340369
F73	F	1.117537	-0.864176	-0.272942
F74	F	0.671939	-0.536818	-0.345476
F75	F	0.799484	-0.754344	-0.565880
H76	H	1.030088	-0.799141	-0.353462
H77	H	0.225701	-0.293378	-0.509850
H78	H	0.860515	-0.503780	-1.173758
H79	H	0.886719	-1.155217	-0.485738
H80	H	0.834802	-0.533019	-0.713216
F81	F	1.089928	-1.061403	-0.298476
F82	F	0.697005	-0.305679	-0.501469
F83	F	0.799261	-1.090183	-0.566267
H84	H	0.552179	-0.326815	-0.487222
H85	H	0.785424	-0.938460	-0.578943
F86	F	1.035488	-0.305120	-0.833144
F87	F	1.074736	-0.260472	-1.007079
F88	F	0.192907	-0.511001	-0.363016
H89	H	1.054583	-0.283348	-1.151893
