data_functionalizedCrystal
_audit_creation_method	'MofGen! by Chris Wilmer'
_symmetry_space_group_name_H-M	'P1'
_symmetry_Int_Tables_number	1
_symmetry_cell_setting	triclinic
loop_
_symmetry_equiv_pos_as_xyz
  x,y,z
_cell_length_a	10.686220
_cell_length_b	13.897447
_cell_length_c	10.686551
_cell_angle_alpha	94.405975
_cell_angle_beta	89.691918
_cell_angle_gamma	94.401196
loop_
_atom_site_label
_atom_site_type_symbol
_atom_site_fract_x
_atom_site_fract_y
_atom_site_fract_z
Zn1	Zn	1.972263	-0.235165	0.562384
Zn2	Zn	2.305596	0.098169	0.895718
Zn3	Zn	2.638930	0.431502	1.229051
Zn4	Zn	1.956015	-0.409754	0.352625
Zn5	Zn	2.289349	-0.076421	0.685958
Zn6	Zn	2.622682	0.256913	1.019291
Zn7	Zn	1.746379	-0.259840	0.368702
Zn8	Zn	2.079712	0.073493	0.702035
Zn9	Zn	2.413045	0.406827	1.035368
Zn10	Zn	1.762446	-0.407799	0.578402
Zn11	Zn	2.095779	-0.074466	0.911736
Zn12	Zn	2.429112	0.258868	1.245069
O13	O	1.859276	-0.328140	0.465528
O14	O	2.192609	0.005194	0.798862
O15	O	2.525942	0.338527	1.132195
O16	O	2.145651	-0.248816	0.521128
O17	O	2.478984	0.084517	0.854461
O18	O	2.812317	0.417851	1.187794
O19	O	1.914683	-0.401012	0.179212
O20	O	2.248016	-0.067679	0.512545
O21	O	2.581350	0.265654	0.845878
O22	O	1.776418	-0.121579	0.394419
O23	O	2.109752	0.211754	0.727752
O24	O	2.443085	0.545087	1.061086
O25	O	2.133714	-0.377086	0.367018
O26	O	2.467047	-0.043752	0.700351
O27	O	2.800380	0.289581	1.033685
O28	O	1.942375	-0.103451	0.536717
O29	O	2.275708	0.229883	0.870050
O30	O	2.609041	0.563216	1.203383
O31	O	1.760664	-0.290871	0.191024
O32	O	2.093997	0.042462	0.524357
O33	O	2.427331	0.375795	0.857690
O34	O	1.572967	-0.288976	0.409951
O35	O	1.906301	0.044358	0.743284
O36	O	2.239634	0.377691	1.076618
O37	O	1.803802	-0.373754	0.751823
O38	O	2.137135	-0.040421	1.085156
O39	O	2.470469	0.292913	1.418490
O40	O	1.584772	-0.397681	0.564017
O41	O	1.918105	-0.064347	0.897350
O42	O	2.251438	0.268986	1.230684
O43	O	1.957954	-0.246920	0.740055
O44	O	2.291287	0.086413	1.073388
O45	O	2.624621	0.419746	1.406722
O46	O	1.930262	-0.544482	0.382550
O47	O	2.263596	-0.211149	0.715883
O48	O	2.596929	0.122185	1.049216
O49	O	1.788048	-0.543046	0.548428
O50	O	2.121381	-0.209713	0.881761
O51	O	2.454714	0.123621	1.215094
C52	C	1.533353	-0.345794	0.490467
C53	C	1.866686	-0.012461	0.823801
C54	C	2.200020	0.320872	1.157134
C55	C	1.393924	-0.353369	0.501166
C56	C	1.727258	-0.020035	0.834500
C57	C	2.060591	0.313298	1.167833
C58	C	1.859171	-0.578761	0.465507
C59	C	2.192505	-0.245428	0.798840
C60	C	2.525838	0.087905	1.132174
C61	C	1.859245	-0.685969	0.465531
C62	C	2.192578	-0.352636	0.798864
C63	C	2.525912	-0.019303	1.132198
C64	C	1.859308	-0.773034	0.465555
C65	C	2.192641	-0.439701	0.798888
C66	C	2.525974	-0.106367	1.132222
C67	C	1.859398	-0.882260	0.465581
C68	C	2.192731	-0.548926	0.798914
C69	C	2.526065	-0.215593	1.132247
C70	C	2.186471	-0.310416	0.440493
C71	C	2.519804	0.022917	0.773826
C72	C	2.853138	0.356250	1.107159
C73	C	2.325902	-0.302864	0.429824
C74	C	2.659235	0.030470	0.763157
C75	C	2.992569	0.363803	1.096491
C76	C	1.884483	-0.307367	0.792729
C77	C	2.217816	0.025967	1.126062
C78	C	2.551149	0.359300	1.459395
C79	C	1.895224	-0.298515	0.932162
C80	C	2.228558	0.034819	1.265495
C81	C	2.561891	0.368152	1.598829
C82	C	1.859417	-0.076536	0.465574
C83	C	2.192750	0.256798	0.798908
C84	C	2.526083	0.590131	1.132241
C85	C	1.859477	0.030683	0.465594
C86	C	2.192810	0.364016	0.798928
C87	C	2.526143	0.697350	1.132261
C88	C	1.834239	-0.348758	0.139595
C89	C	2.167572	-0.015425	0.472929
C90	C	2.500906	0.317909	0.806262
C91	C	1.823740	-0.357325	0.000144
C92	C	2.157074	-0.023992	0.333477
C93	C	2.490407	0.309342	0.666811
H94	H	1.754326	-0.414450	0.951676
H95	H	2.087659	-0.081117	1.285009
H96	H	2.420992	0.252217	1.618342
N97	N	1.386667	-0.241358	0.342930
N98	N	1.720000	0.091975	0.676263
N99	N	2.053334	0.425309	1.009596
N100	N	1.503644	-0.235085	0.334068
N101	N	1.836977	0.098248	0.667402
N102	N	2.170311	0.431581	1.000735
H103	H	1.546568	-0.191646	0.272697
H104	H	1.879901	0.141687	0.606031
H105	H	2.213235	0.475020	0.939364
N106	N	1.333152	-0.414896	0.588043
N107	N	1.666486	-0.081563	0.921376
N108	N	1.999819	0.251771	1.254710
N109	N	1.216175	-0.421179	0.596897
N110	N	1.549508	-0.087846	0.930231
N111	N	1.882842	0.245488	1.263564
H112	H	1.173252	-0.464634	0.658251
H113	H	1.506585	-0.131300	0.991584
H114	H	1.839919	0.202033	1.324918
N115	N	1.982322	-0.226861	0.992979
N116	N	2.315655	0.106472	1.326312
N117	N	2.648988	0.439806	1.659646
N118	N	1.991226	-0.219531	1.109959
N119	N	2.324560	0.113803	1.443292
N120	N	2.657893	0.447136	1.776626
H121	H	2.052738	-0.168927	1.152914
H122	H	2.386072	0.164407	1.486247
H123	H	2.719405	0.497740	1.819580
