data_functionalizedCrystal
_audit_creation_method	'MofGen! by Chris Wilmer'
_symmetry_space_group_name_H-M	'P1'
_symmetry_Int_Tables_number	1
_symmetry_cell_setting	triclinic
loop_
_symmetry_equiv_pos_as_xyz
  x,y,z
_cell_length_a	10.654550
_cell_length_b	14.044190
_cell_length_c	9.130313
_cell_angle_alpha	89.993628
_cell_angle_beta	89.996220
_cell_angle_gamma	88.838339
loop_
_atom_site_label
_atom_site_type_symbol
_atom_site_fract_x
_atom_site_fract_y
_atom_site_fract_z
O1	O	1.681227	0.133228	-0.121939
O2	O	1.317024	0.145921	-0.121918
O3	O	1.493654	0.001554	-0.121899
O4	O	1.504597	0.277595	-0.121958
O5	O	1.493652	0.001557	0.121700
O6	O	1.317022	0.145925	0.121681
O7	O	1.681225	0.133231	0.121660
Cu8	Cu	1.499123	0.139579	0.143913
Cu9	Cu	1.499125	0.139574	-0.144171
O10	O	1.504595	0.277599	0.121641
C11	C	1.270131	0.144991	-0.000115
C12	C	1.130408	0.142203	-0.000105
C13	C	1.059467	0.227204	-0.000145
C14	C	0.928182	0.224578	-0.000169
C15	C	0.938791	0.051942	-0.000122
C16	C	1.070074	0.054569	-0.000087
C17	C	1.119801	0.314837	-0.000164
C18	C	1.048859	0.399846	-0.000205
C19	C	0.917574	0.397220	-0.000229
C20	C	0.857231	0.309586	-0.000213
C21	C	1.488866	-0.033790	-0.000095
C22	C	1.474587	-0.139110	-0.000082
C23	C	1.549752	-0.388903	-0.000144
C24	C	1.448502	-0.331939	-0.000127
C25	C	1.463019	-0.224639	-0.000102
C26	C	1.535237	-0.496212	-0.000169
C27	C	1.728117	0.134161	-0.000146
C28	C	1.867841	0.136950	-0.000165
C29	C	1.509383	0.312943	-0.000166
C30	C	1.523662	0.418263	-0.000189
N31	N	1.499131	0.139581	0.346536
N32	N	1.499127	0.139564	-0.346794
C33	C	1.577367	0.075677	0.423196
C34	C	1.577362	0.075666	0.576532
C35	C	1.420882	0.203471	0.576536
C36	C	1.420881	0.203477	0.423202
C37	C	1.655616	0.011782	0.346530
C38	C	1.733859	-0.052127	0.423190
C39	C	1.733854	-0.052138	0.576527
C40	C	1.655607	0.011759	0.653203
H41	H	0.889649	-0.019405	-0.000133
O42	O	1.107670	0.484887	-0.000284
C43	C	1.305215	0.565446	-0.000185
C44	C	1.238777	0.469069	-0.000129
H45	H	1.411225	0.552690	-0.000029
H46	H	1.276898	0.607504	-0.102172
H47	H	1.276692	0.607498	0.101719
H48	H	1.267265	0.426939	-0.101965
H49	H	1.267095	0.427083	0.101925
O50	O	1.138805	-0.028089	-0.000126
C51	C	1.135485	-0.199597	-0.000013
C52	C	1.057495	-0.106059	-0.000006
H53	H	1.069780	-0.262660	0.000115
H54	H	1.197207	-0.202746	-0.101967
H55	H	1.197221	-0.202628	0.101925
H56	H	0.995688	-0.102966	-0.101875
H57	H	0.995855	-0.102948	0.102015
H58	H	1.357173	0.255513	0.360784
O59	O	1.666074	-0.350797	-0.000061
C60	C	1.786775	-0.207542	-0.000093
C61	C	1.654971	-0.250584	-0.000161
H62	H	1.777843	-0.126514	-0.000205
H63	H	1.840037	-0.232085	0.101876
H64	H	1.840031	-0.232172	-0.102015
H65	H	1.601611	-0.225974	0.101693
H66	H	1.601804	-0.226045	-0.102197
H67	H	1.226699	0.316985	-0.000150
O68	O	1.809899	-0.114286	0.348940
C69	C	1.965157	-0.241015	0.365123
C70	C	1.879083	-0.170684	0.449387
H71	H	2.021134	-0.286617	0.446297
H72	H	1.905654	-0.288847	0.293378
H73	H	2.032471	-0.199595	0.293294
H74	H	1.811753	-0.212026	0.521296
H75	H	1.938664	-0.122853	0.521040
H76	H	1.350916	-0.363756	-0.000130
H77	H	0.859817	0.466438	-0.000248
H78	H	1.655629	0.011787	0.221675
O79	O	1.344700	0.265444	0.650951
C80	C	1.132407	0.319527	0.697827
C81	C	1.218534	0.249271	0.613489
H82	H	1.030385	0.306489	0.667547
H83	H	1.145741	0.308545	0.820604
H84	H	1.157352	0.395614	0.667691
H85	H	1.193643	0.173157	0.643502
H86	H	1.205186	0.260336	0.490732
H87	H	1.797554	-0.104181	0.638942
H88	H	0.750330	0.307455	-0.000211
H89	H	1.655600	0.011738	0.778061
