data_functionalizedCrystal
_audit_creation_method	'MofGen! by Chris Wilmer'
_symmetry_space_group_name_H-M	'P1'
_symmetry_Int_Tables_number	1
_symmetry_cell_setting	triclinic
loop_
_symmetry_equiv_pos_as_xyz
  x,y,z
_cell_length_a	17.077404
_cell_length_b	13.032721
_cell_length_c	17.077395
_cell_angle_alpha	97.154458
_cell_angle_beta	89.984359
_cell_angle_gamma	97.204757
loop_
_atom_site_label
_atom_site_type_symbol
_atom_site_fract_x
_atom_site_fract_y
_atom_site_fract_z
Zn1	Zn	1.160341	-0.416050	-0.483525
Zn2	Zn	1.660341	0.083950	0.016475
Zn3	Zn	1.143587	-0.590812	-0.368927
Zn4	Zn	1.643587	-0.090812	0.131073
Zn5	Zn	1.029078	-0.416082	-0.352276
Zn6	Zn	1.529078	0.083918	0.147724
Zn7	Zn	1.012377	-0.590754	-0.500145
Zn8	Zn	1.512377	-0.090754	-0.000145
O9	O	1.086346	-0.503425	-0.426218
O10	O	1.586346	-0.003425	0.073782
O11	O	1.267964	-0.439243	-0.468336
O12	O	1.767964	0.060757	0.031664
O13	O	1.128376	-0.567672	-0.256875
O14	O	1.628376	-0.067672	0.243125
O15	O	1.060492	-0.269839	-0.355762
O16	O	1.560492	0.230161	0.144238
O17	O	1.255656	-0.567640	-0.384142
O18	O	1.755656	-0.067640	0.115858
O19	O	1.156930	-0.269814	-0.452190
O20	O	1.656930	0.230186	0.047810
O21	O	1.044247	-0.439299	-0.244641
O22	O	1.544247	0.060701	0.255359
O23	O	0.917017	-0.439242	-0.371878
O24	O	1.417017	0.060758	0.128122
O25	O	1.032026	-0.567541	-0.607784
O26	O	1.532026	-0.067541	-0.107784
O27	O	0.904746	-0.567573	-0.480517
O28	O	1.404746	-0.067573	0.019483
O29	O	1.140735	-0.439186	-0.595573
O30	O	1.640735	0.060814	-0.095573
O31	O	1.112181	-0.737044	-0.400258
O32	O	1.612181	-0.237044	0.099742
O33	O	1.015781	-0.737001	-0.496663
O34	O	1.515781	-0.237001	0.003337
C35	C	0.882400	-0.503406	-0.426195
C36	C	1.382400	-0.003406	0.073805
C37	C	0.795148	-0.503423	-0.426206
C38	C	1.295148	-0.003423	0.073794
C39	C	1.060372	-0.774941	-0.452088
C40	C	1.560372	-0.274941	0.047912
C41	C	1.049332	-0.891097	-0.463182
C42	C	1.549332	-0.391097	0.036818
C43	C	0.747780	-0.570345	-0.482703
C44	C	1.247780	-0.070345	0.017297
C45	C	0.665799	-0.570347	-0.482716
C46	C	1.165799	-0.070347	0.017284
C47	C	0.631188	-0.503432	-0.426227
C48	C	1.131188	-0.003432	0.073773
C49	C	0.678563	-0.436502	-0.369727
C50	C	1.178563	0.063498	0.130273
C51	C	0.760543	-0.436495	-0.369718
C52	C	1.260543	0.063505	0.130282
C53	C	0.507691	-0.436522	-0.369748
C54	C	1.007691	0.063478	0.130252
C55	C	0.425706	-0.436530	-0.369755
C56	C	0.925706	0.063470	0.130245
C57	C	0.412948	-0.570375	-0.482745
C58	C	0.912948	-0.070375	0.017255
C59	C	0.494927	-0.570368	-0.482737
C60	C	0.994927	-0.070368	0.017263
C61	C	0.542296	-0.503439	-0.426235
C62	C	1.042296	-0.003439	0.073765
C63	C	1.092149	-0.942869	-0.420464
C64	C	1.592149	-0.442869	0.079536
C65	C	1.080740	-1.062922	-0.431928
C66	C	1.580740	-0.562922	0.068072
C67	C	1.291088	-0.503444	-0.426242
C68	C	1.791088	-0.003444	0.073758
C69	C	1.378337	-0.503453	-0.426252
C70	C	1.878337	-0.003453	0.073748
C71	C	1.086386	-0.503354	-0.630956
C72	C	1.586386	-0.003354	-0.130956
C73	C	1.086404	-0.503323	-0.718203
C74	C	1.586404	-0.003323	-0.218203
C75	C	1.112442	-0.230848	-0.400264
C76	C	1.612442	0.269152	0.099736
C77	C	1.123563	-0.114692	-0.389204
C78	C	1.623563	0.385308	0.110796
C79	C	1.143109	-0.436347	-1.087647
C80	C	1.643109	0.063653	-0.587647
C81	C	1.143089	-0.436384	-1.005670
C82	C	1.643089	0.063616	-0.505670
C83	C	1.086478	-0.503224	-0.971042
C84	C	1.586478	-0.003224	-0.471042
C85	C	1.029887	-0.570040	-1.018397
C86	C	1.529887	-0.070040	-0.518397
C87	C	1.029911	-0.570008	-1.100373
C88	C	1.529911	-0.070008	-0.600373
C89	C	1.029841	-0.570101	-0.847533
C90	C	1.529841	-0.070101	-0.347533
C91	C	1.029816	-0.570132	-0.765551
C92	C	1.529816	-0.070132	-0.265551
C93	C	1.143019	-0.436476	-0.752829
C94	C	1.643019	0.063524	-0.252829
C95	C	1.143043	-0.436444	-0.834805
C96	C	1.643043	0.063556	-0.334805
C97	C	1.086451	-0.503259	-0.882155
C98	C	1.586451	-0.003259	-0.382155
C99	C	1.086358	-0.503420	-0.222270
C100	C	1.586358	-0.003420	0.277730
C101	C	1.086521	-0.503156	-0.134995
C102	C	1.586521	-0.003156	0.365005
H103	H	0.627235	-0.624843	-0.528721
H104	H	1.127235	-0.124843	-0.028721
H105	H	0.983759	-0.624512	-0.886083
H106	H	1.483759	-0.124512	-0.386083
N107	N	0.989579	-0.950096	-0.522867
N108	N	1.489579	-0.450096	-0.022867
H109	H	1.003524	-0.931094	-0.577163
H110	H	1.503524	-0.431094	-0.077163
H111	H	0.989921	-1.027476	-0.522529
H112	H	1.489921	-0.527476	-0.022529
H113	H	0.799110	-0.381994	-0.323716
H114	H	1.299110	0.118006	0.176284
N115	N	0.968766	-0.642234	-0.728201
N116	N	1.468766	-0.142234	-0.228201
H117	H	0.996032	-0.690666	-0.698801
H118	H	1.496032	-0.190666	-0.198801
H119	H	0.936462	-0.599703	-0.690181
H120	H	1.436462	-0.099703	-0.190181
H121	H	1.189204	-0.381911	-1.115833
H122	H	1.689204	0.118089	-0.615833
H123	H	1.189171	-0.381984	-0.967122
H124	H	1.689171	0.118016	-0.467122
N125	N	0.968825	-0.642138	-0.981059
N126	N	1.468825	-0.142138	-0.481059
H127	H	0.996075	-0.690584	-0.951658
H128	H	1.496075	-0.190584	-0.451658
H129	H	0.936521	-0.599603	-0.943041
H130	H	1.436521	-0.099603	-0.443041
N131	N	0.968879	-0.642057	-1.151455
N132	N	1.468879	-0.142057	-0.651455
H133	H	0.973912	-0.716734	-1.144304
H134	H	1.473912	-0.216734	-0.644304
H135	H	0.914373	-0.625734	-1.135620
H136	H	1.414373	-0.125734	-0.635620
N137	N	0.785105	-0.642519	-0.543634
N138	N	1.285105	-0.142519	-0.043634
H139	H	0.844226	-0.632365	-0.535056
H140	H	1.344226	-0.132365	-0.035056
H141	H	0.763632	-0.717133	-0.538433
H142	H	1.263632	-0.217133	-0.038433
H143	H	0.397529	-0.382029	-0.323765
H144	H	0.897529	0.117971	0.176235
H145	H	1.189138	-0.382012	-0.862996
H146	H	1.689138	0.117988	-0.362996
N147	N	0.532252	-0.642543	-0.543667
N148	N	1.032252	-0.142543	-0.043667
H149	H	0.570335	-0.600131	-0.576050
H150	H	1.070335	-0.100131	-0.076050
H151	H	0.561583	-0.690900	-0.516256
H152	H	1.061583	-0.190900	-0.016256
N153	N	0.361862	-0.642566	-0.543686
N154	N	0.861862	-0.142566	-0.043686
H155	H	0.304677	-0.632416	-0.535125
H156	H	0.804677	-0.132416	-0.035125
H157	H	0.377761	-0.626403	-0.598227
H158	H	0.877761	-0.126403	-0.098227
N159	N	1.183315	-1.055691	-0.329514
N160	N	1.683315	-0.555691	0.170486
H161	H	1.210322	-1.106737	-0.302583
H162	H	1.710322	-0.606737	0.197417
H163	H	1.223900	-1.010340	-0.357205
H164	H	1.723900	-0.510340	0.142795
N165	N	1.204052	-0.364399	-0.701765
N166	N	1.704052	0.135601	-0.201765
H167	H	1.195449	-0.374559	-0.644579
H168	H	1.695449	0.125441	-0.144579
H169	H	1.258563	-0.380651	-0.717642
H170	H	1.758563	0.119349	-0.217642
H171	H	0.546258	-0.382013	-0.323744
H172	H	1.046258	0.117987	0.176256
H173	H	1.137257	-0.898317	-0.375406
H174	H	1.637257	-0.398317	0.124594
N175	N	0.641229	-0.364347	-0.308789
N176	N	1.141229	0.135653	0.191211
H177	H	0.611843	-0.315977	-0.336132
H178	H	1.111843	0.184023	0.163868
H179	H	0.603193	-0.406856	-0.276431
H180	H	1.103193	0.093144	0.223569
N181	N	1.020993	-1.121922	-0.491625
N182	N	1.520993	-0.621922	0.008375
H183	H	1.021312	-1.199320	-0.491354
H184	H	1.521312	-0.699320	0.008646
H185	H	0.966727	-1.102974	-0.477558
H186	H	1.466727	-0.602974	0.022442
