data_functionalizedCrystal
_audit_creation_method	'MofGen! by Chris Wilmer'
_symmetry_space_group_name_H-M	'P1'
_symmetry_Int_Tables_number	1
_symmetry_cell_setting	triclinic
loop_
_symmetry_equiv_pos_as_xyz
  x,y,z
_cell_length_a	10.654550
_cell_length_b	23.532407
_cell_length_c	9.730223
_cell_angle_alpha	89.994043
_cell_angle_beta	89.996251
_cell_angle_gamma	83.666790
loop_
_atom_site_label
_atom_site_type_symbol
_atom_site_fract_x
_atom_site_fract_y
_atom_site_fract_z
O1	O	1.665300	0.079982	-0.114418
O2	O	1.299580	0.087603	-0.114398
O3	O	1.493468	0.000933	-0.114384
O4	O	1.471412	0.166652	-0.114433
O5	O	1.493466	0.000935	0.114196
O6	O	1.299578	0.087605	0.114182
O7	O	1.665298	0.079985	0.114161
Zn8	Zn	1.482437	0.083795	0.150464
Zn9	Zn	1.482440	0.083792	-0.150700
O10	O	1.471409	0.166655	0.114147
C11	C	1.252799	0.087044	-0.000105
C12	C	1.113408	0.085370	-0.000096
C13	C	1.492905	-0.020286	-0.000090
C14	C	1.491217	-0.083514	-0.000079
C15	C	1.032306	0.136400	-0.000131
C16	C	0.901335	0.134824	-0.000154
C17	C	0.932582	0.031183	-0.000113
C18	C	1.063550	0.032760	-0.000080
C19	C	1.082164	0.189010	-0.000147
C20	C	1.001060	0.240045	-0.000184
C21	C	0.870089	0.238468	-0.000207
C22	C	0.820222	0.185858	-0.000194
C23	C	1.595364	-0.481938	-0.000161
C24	C	1.593795	-0.541349	-0.000171
O25	O	1.690341	-0.577464	-0.000227
N26	N	1.478529	-0.564726	-0.000164
C27	C	1.364824	-0.528689	-0.000160
O28	O	1.266636	-0.554029	-0.000156
C29	C	1.366394	-0.469280	-0.000159
C30	C	1.481668	-0.445906	-0.000153
C31	C	1.710629	-0.458564	-0.000156
C32	C	1.712197	-0.399158	-0.000143
C33	C	1.598500	-0.363126	-0.000135
C34	C	1.483236	-0.386500	-0.000140
C35	C	1.252690	-0.433244	-0.000165
C36	C	1.254270	-0.373832	-0.000166
C37	C	1.369544	-0.350458	-0.000159
C38	C	1.371107	-0.291061	-0.000119
N39	N	1.486374	-0.267684	-0.000126
C40	C	1.600070	-0.303716	-0.000134
C41	C	1.361535	-0.653453	-0.000163
C42	C	1.359964	-0.712861	-0.000154
C43	C	1.588936	-0.725517	-0.000168
C44	C	1.590506	-0.666108	-0.000167
C45	C	1.476802	-0.630076	-0.000171
C46	C	1.603355	-0.178958	-0.000106
C47	C	1.604913	-0.119546	-0.000087
C48	C	1.375942	-0.106896	-0.000081
C49	C	1.374383	-0.166303	-0.000092
C50	C	1.488100	-0.202333	-0.000109
O51	O	1.274613	-0.254911	-0.000068
O52	O	1.698241	-0.278369	-0.000157
C53	C	1.712079	0.080543	-0.000135
C54	C	1.851469	0.082217	-0.000152
C55	C	1.471972	0.187873	-0.000149
C56	C	1.473661	0.251101	-0.000169
N57	N	1.482444	0.083797	0.356000
N58	N	1.482443	0.083786	-0.356237
C59	C	1.568320	0.045432	0.427932
C60	C	1.568317	0.045425	0.571815
C61	C	1.396559	0.122152	0.571821
C62	C	1.396557	0.122156	0.427941
C63	C	1.654207	0.007073	0.355992
C64	C	1.740090	-0.031294	0.427924
C65	C	1.740087	-0.031301	0.571807
C66	C	1.654201	0.007059	0.643758
H67	H	1.188805	0.190300	-0.000134
H68	H	0.891969	-0.011650	-0.000125
H69	H	0.713576	0.184578	-0.000191
C70	C	1.560677	0.048822	0.849874
C71	C	1.654190	0.007050	0.801918
H72	H	1.560670	0.048813	0.947512
H73	H	1.577411	0.085288	0.817331
H74	H	1.480526	0.040686	0.817317
H75	H	1.734342	0.015188	0.834466
H76	H	1.637464	-0.029425	0.834474
H77	H	1.268937	-0.624119	-0.000154
H78	H	1.326628	0.153395	0.369373
H79	H	1.681514	-0.754865	-0.000180
C80	C	1.772380	0.019070	0.149884
C81	C	1.654217	0.007077	0.197835
H82	H	1.772387	0.019070	0.052246
H83	H	1.789082	0.055538	0.182429
H84	H	1.835807	-0.009270	0.182444
H85	H	1.590791	0.035421	0.165284
H86	H	1.637500	-0.029395	0.165276
H87	H	1.266096	-0.731887	-0.000135
H88	H	1.129587	-0.008793	-0.000055
C89	C	1.831090	-0.138032	-0.000113
C90	C	1.731631	-0.093855	-0.000092
H91	H	1.909316	-0.122172	-0.000127
H92	H	1.825716	-0.160945	0.079590
H93	H	1.825700	-0.160936	-0.079833
H94	H	1.737016	-0.070954	0.079633
H95	H	1.737008	-0.070933	-0.079803
H96	H	1.283373	-0.077548	-0.000069
C97	C	0.704706	0.296814	-0.117764
C98	C	0.780936	0.294562	-0.000245
H99	H	0.649664	0.331444	-0.117786
H100	H	0.756468	0.295273	-0.197448
H101	H	0.656270	0.265256	-0.117745
H102	H	0.829379	0.326118	-0.000269
H103	H	0.729167	0.296109	0.079459
H104	H	1.810010	-0.062529	0.369335
H105	H	1.810008	-0.062545	0.630373
H106	H	1.280517	-0.185334	-0.000059
C107	C	1.734469	-0.253093	-0.117630
C108	C	1.728354	-0.218556	-0.000119
H109	H	1.811641	-0.277536	-0.117633
H110	H	1.665616	-0.275522	-0.117625
H111	H	1.730317	-0.229643	-0.197328
H112	H	1.732496	-0.242007	0.079579
H113	H	1.797226	-0.196126	-0.000112
C114	C	1.026528	-0.414742	-0.000193
C115	C	1.125975	-0.458926	-0.000185
H116	H	0.948296	-0.430597	-0.000215
H117	H	1.031901	-0.391842	0.079519
H118	H	1.031935	-0.391829	-0.079903
H119	H	1.120573	-0.481837	0.079532
H120	H	1.120599	-0.481836	-0.079905
H121	H	1.161675	-0.344497	-0.000171
H122	H	1.326635	0.153384	0.630412
H123	H	1.041671	0.282878	-0.000183
H124	H	1.806065	-0.380133	-0.000143
C125	C	1.905328	-0.487624	-0.117655
C126	C	1.835622	-0.498163	-0.000157
H127	H	1.982502	-0.512065	-0.117641
H128	H	1.858046	-0.494767	-0.197353
H129	H	1.922726	-0.448892	-0.117644
H130	H	1.818215	-0.536894	-0.000174
H131	H	1.882913	-0.491024	0.079561
H132	H	1.684372	-0.647081	-0.000163
