data_functionalizedCrystal
_audit_creation_method	'MofGen! by Chris Wilmer'
_symmetry_space_group_name_H-M	'P1'
_symmetry_Int_Tables_number	1
_symmetry_cell_setting	triclinic
loop_
_symmetry_equiv_pos_as_xyz
  x,y,z
_cell_length_a	18.215407
_cell_length_b	18.215405
_cell_length_c	18.215399
_cell_angle_alpha	89.969449
_cell_angle_beta	89.980167
_cell_angle_gamma	90.025333
loop_
_atom_site_label
_atom_site_type_symbol
_atom_site_fract_x
_atom_site_fract_y
_atom_site_fract_z
Zn1	Zn	1.125072	-0.292983	-0.416103
Zn2	Zn	1.124980	-0.416054	-0.293031
Zn3	Zn	1.002005	-0.293007	-0.293050
Zn4	Zn	1.001970	-0.416013	-0.416056
O5	O	1.063507	-0.354514	-0.354560
O6	O	1.228044	-0.309316	-0.399788
O7	O	1.108643	-0.399759	-0.190049
O8	O	1.018382	-0.190020	-0.309401
O9	O	1.227977	-0.399736	-0.309368
O10	O	1.108799	-0.190002	-0.399807
O11	O	1.018293	-0.309357	-0.190063
O12	O	0.899016	-0.309317	-0.309355
O13	O	1.018324	-0.399666	-0.519046
O14	O	0.898991	-0.399689	-0.399727
O15	O	1.108766	-0.309276	-0.519081
O16	O	1.108610	-0.519033	-0.309322
O17	O	1.018235	-0.519003	-0.399708
C18	C	1.063429	-0.545721	-0.354524
C19	C	1.063463	-0.627520	-0.354534
C20	C	0.872301	-0.354502	-0.354539
C21	C	0.790502	-0.354514	-0.354547
C22	C	1.110632	-0.815705	-0.307556
C23	C	1.110665	-0.892563	-0.307574
C24	C	1.016476	-0.892572	-0.401616
C25	C	1.016447	-0.815715	-0.401601
C26	C	1.063524	-0.777283	-0.354567
C27	C	1.063586	-0.930999	-0.354600
C28	C	1.063621	-1.014333	-0.354619
C29	C	1.063490	-0.693944	-0.354548
C30	C	0.602314	-0.401645	-0.401544
C31	C	0.525455	-0.401647	-0.401554
C32	C	0.525452	-0.307397	-0.307591
C33	C	0.602309	-0.307392	-0.307586
C34	C	0.640738	-0.354520	-0.354562
C35	C	0.487022	-0.354528	-0.354576
C36	C	0.403688	-0.354530	-0.354585
C37	C	0.724077	-0.354517	-0.354553
C38	C	1.255460	-0.354528	-0.354581
C39	C	1.337259	-0.354533	-0.354591
C40	C	1.063552	-0.354464	-0.546513
C41	C	1.063571	-0.354442	-0.628312
C42	C	1.063605	-0.162561	-0.354611
C43	C	1.063647	-0.080763	-0.354633
C44	C	1.110681	-0.307332	-0.816525
C45	C	1.110690	-0.307311	-0.893384
C46	C	1.016513	-0.401438	-0.893336
C47	C	1.016501	-0.401455	-0.816479
C48	C	1.063589	-0.354403	-0.778075
C49	C	1.063610	-0.354365	-0.931791
C50	C	1.063619	-0.354342	-1.015125
C51	C	1.063579	-0.354425	-0.694736
C52	C	1.063504	-0.354512	-0.163353
C53	C	1.063628	-0.354326	-0.081555
H54	H	1.149026	-0.923843	-0.269294
C55	C	0.965518	-0.452617	-0.935074
C56	C	1.007174	-0.499790	-0.979175
C57	C	0.960224	-0.546954	-1.017625
H58	H	0.933457	-0.424543	-0.965120
H59	H	0.937481	-0.480696	-0.901189
H60	H	1.035199	-0.471714	-1.013056
H61	H	1.039234	-0.527880	-0.949147
H62	H	0.932187	-0.575034	-0.983740
H63	H	0.928165	-0.518875	-1.047666
H64	H	0.988481	-0.578972	-1.047547
C65	C	0.483768	-0.256113	-0.256676
C66	C	0.502483	-0.183317	-0.272843
C67	C	0.464094	-0.136054	-0.225959
H68	H	0.496310	-0.266724	-0.207184
H69	H	0.432483	-0.262815	-0.263410
H70	H	0.553756	-0.176619	-0.266102
H71	H	0.489939	-0.172684	-0.322327
H72	H	0.412810	-0.142755	-0.232693
H73	H	0.476640	-0.146671	-0.176470
H74	H	0.476782	-0.086656	-0.236926
H75	H	0.633595	-0.269012	-0.269327
H76	H	0.978148	-0.439786	-0.785173
H77	H	1.149021	-0.269017	-0.785259
C78	C	0.644170	-0.452776	-0.452471
C79	C	0.719704	-0.442702	-0.442400
C80	C	0.758282	-0.489797	-0.489297
H81	H	0.631687	-0.442113	-0.501967
H82	H	0.631594	-0.502227	-0.441608
H83	H	0.732276	-0.393262	-0.453268
H84	H	0.732209	-0.453371	-0.392914
H85	H	0.745706	-0.539248	-0.478434
H86	H	0.745793	-0.479129	-0.538790
H87	H	0.809535	-0.482973	-0.482465
C88	C	1.161827	-0.774111	-0.256469
C89	C	1.203102	-0.824213	-0.215317
C90	C	1.250279	-0.785926	-0.168254
H91	H	1.133766	-0.744173	-0.224304
H92	H	1.193903	-0.744097	-0.284629
H93	H	1.171029	-0.854214	-0.187159
H94	H	1.231177	-0.854153	-0.247462
H95	H	1.282355	-0.755913	-0.196414
H96	H	1.222212	-0.755990	-0.136094
H97	H	1.278294	-0.819915	-0.140332
C98	C	0.965388	-0.934433	-0.452593
C99	C	0.975479	-1.009965	-0.442529
C100	C	0.928419	-1.048548	-0.489468
H101	H	0.976074	-0.921883	-0.502078
H102	H	0.915928	-0.921925	-0.441763
H103	H	1.024927	-1.022467	-0.453364
H104	H	0.964787	-1.022537	-0.393054
H105	H	0.878959	-1.036040	-0.478639
H106	H	0.939110	-1.035992	-0.538951
H107	H	0.935255	-1.099800	-0.482642
H108	H	1.149035	-0.268979	-0.924686
C109	C	0.965218	-0.774127	-0.452673
C110	C	0.923978	-0.824232	-0.493848
C111	C	0.876776	-0.785948	-0.540896
H112	H	0.993259	-0.744096	-0.484823
H113	H	0.933120	-0.744206	-0.424500
H114	H	0.956072	-0.854140	-0.522019
H115	H	0.895922	-0.854263	-0.461717
H116	H	0.844679	-0.756027	-0.512723
H117	H	0.904823	-0.755919	-0.573041
H118	H	0.848785	-0.819938	-0.568834
H119	H	0.494174	-0.440020	-0.439813
