data_functionalizedCrystal
_audit_creation_method	'MofGen! by Chris Wilmer'
_symmetry_space_group_name_H-M	'P1'
_symmetry_Int_Tables_number	1
_symmetry_cell_setting	triclinic
loop_
_symmetry_equiv_pos_as_xyz
  x,y,z
_cell_length_a	27.440280
_cell_length_b	27.440280
_cell_length_c	14.395555
_cell_angle_alpha	59.995227
_cell_angle_beta	90.004690
_cell_angle_gamma	60.007024
loop_
_atom_site_label
_atom_site_type_symbol
_atom_site_fract_x
_atom_site_fract_y
_atom_site_fract_z
Zr1	Zr	0.469580	0.533354	-0.121880
O2	O	0.391776	0.635025	-0.270239
O3	O	0.493420	0.431686	-0.076388
O4	O	0.493436	0.533348	-0.270198
O5	O	0.391760	0.533368	0.076438
O6	O	0.573639	0.533338	-0.270179
O7	O	0.391761	0.533364	-0.076429
O8	O	0.573611	0.351485	0.076512
O9	O	0.391788	0.715221	-0.270253
O10	O	0.563455	0.473495	-0.056986
O11	O	0.503600	0.473505	0.057083
O12	O	0.503619	0.593198	-0.171104
O13	O	0.443764	0.593208	-0.057035
Zr14	Zr	0.597493	0.533345	0.121956
Zr15	Zr	0.597494	0.533339	-0.121849
Zr16	Zr	0.469579	0.533360	0.121926
Zr17	Zr	0.469598	0.661257	-0.121901
Zr18	Zr	0.597474	0.405442	0.121978
O19	O	0.573652	0.635012	0.076464
O20	O	0.573654	0.635004	-0.270196
O21	O	0.391775	0.635033	0.076421
O22	O	0.675297	0.431673	0.270316
O23	O	0.675298	0.431665	-0.076345
O24	O	0.493419	0.431695	0.270272
O25	O	0.675313	0.533331	-0.076362
O26	O	0.573637	0.533351	0.270274
O27	O	0.493434	0.533360	0.270255
O28	O	0.675312	0.533334	0.076506
O29	O	0.493463	0.715209	-0.270228
O30	O	0.573610	0.351489	0.270305
O31	O	0.675285	0.351477	0.270329
O32	O	0.675286	0.351473	0.076536
O33	O	0.391787	0.715226	-0.076460
O34	O	0.493462	0.715214	-0.076435
O35	O	0.563454	0.473501	0.171180
O36	O	0.623309	0.473491	0.057111
O37	O	0.563473	0.593194	-0.057006
O38	O	0.503618	0.593203	0.057063
C39	C	0.533513	0.373362	0.000065
C40	C	0.533505	0.319064	0.000074
C41	C	0.577720	0.040177	0.084277
C42	C	0.577714	0.091199	0.084281
O43	O	0.615294	0.080020	0.155896
N44	N	0.533531	0.160894	0.000051
C45	C	0.489353	0.179566	-0.084195
O46	O	0.451771	0.243531	-0.155840
C47	C	0.489361	0.128544	-0.084203
C48	C	0.533544	0.058850	0.000039
C49	C	0.621900	-0.029513	0.168511
C50	C	0.621904	-0.080532	0.168508
C51	C	0.577729	-0.061859	0.084270
C52	C	0.533549	0.007832	0.000035
C53	C	0.445186	0.147217	-0.168453
C54	C	0.445199	0.096189	-0.168455
C55	C	0.489382	0.026494	-0.084213
C56	C	0.489378	-0.024514	-0.084206
N57	N	0.533562	-0.094208	0.000024
C58	C	0.577738	-0.112881	0.084262
C59	C	0.489339	0.286711	-0.084173
C60	C	0.489328	0.337732	-0.084161
C61	C	0.577690	0.249362	0.084314
C62	C	0.577698	0.198341	0.084306
C63	C	0.533523	0.217017	0.000057
C64	C	0.577744	-0.220019	0.084249
C65	C	0.577743	-0.271038	0.084240
C66	C	0.489383	-0.182664	-0.084238
C67	C	0.489381	-0.131649	-0.084227
C68	C	0.533567	-0.150332	0.000022
O69	O	0.451820	-0.013386	-0.155788
O70	O	0.615318	-0.176846	0.155885
C71	C	0.373535	0.533368	-0.000000
C72	C	0.319232	0.533374	-0.000013
C73	C	0.013769	0.470854	0.059638
C74	C	-0.037250	0.470850	0.059648
O75	O	-0.037074	0.417711	0.110343
N76	N	-0.094001	0.533333	0.000079
C77	C	-0.099732	0.595824	-0.059495
O78	O	-0.152688	0.648970	-0.110162
C79	C	-0.048714	0.595827	-0.059498
C80	C	0.008036	0.533340	0.000066
C81	C	0.070516	0.408372	0.119198
C82	C	0.121531	0.408376	0.119185
C83	C	0.115798	0.470862	0.059614
C84	C	0.059051	0.533344	0.000054
C85	C	-0.054447	0.658317	-0.119064
C86	C	-0.003422	0.658315	-0.119061
C87	C	0.053328	0.595828	-0.059498
C88	C	0.104333	0.595834	-0.059530
N89	N	0.161083	0.533351	0.000039
C90	C	0.166816	0.470865	0.059611
C91	C	-0.206871	0.595813	-0.059483
C92	C	-0.257888	0.595811	-0.059488
C93	C	-0.195402	0.470837	0.059657
C94	C	-0.144384	0.470840	0.059654
C95	C	-0.150120	0.533330	0.000086
C96	C	0.273949	0.470879	0.059580
C97	C	0.324965	0.470888	0.059559
C98	C	0.262475	0.595862	-0.059581
C99	C	0.211463	0.595853	-0.059565
C100	C	0.217203	0.533356	0.000024
O101	O	0.104203	0.648947	-0.110196
O102	O	0.219774	0.417728	0.110281
C103	C	0.693537	0.533330	0.000076
C104	C	0.747840	0.533324	0.000089
C105	C	0.533538	0.533342	-0.304925
C106	C	0.533538	0.533340	-0.408427
C107	C	0.533560	0.693336	0.000011
C108	C	0.533568	0.747634	0.000002
C109	C	0.566166	0.468072	-0.406794
C110	C	0.509891	0.500704	-0.499835
C111	C	0.589800	0.500710	-0.499815
C112	C	0.477229	0.565972	-0.500105
C113	C	0.557179	0.565968	-0.500071
C114	C	0.500869	0.598648	-0.593129
C115	C	0.533535	0.533356	0.305002
C116	C	0.533535	0.533359	0.408504
C117	C	0.693514	0.373343	0.000103
C118	C	0.747809	0.319039	0.000125
C119	C	0.533512	0.373369	0.305029
C120	C	0.533503	0.319074	0.408539
C121	C	0.693513	0.373351	0.305067
C122	C	0.747808	0.319049	0.408591
C123	C	0.373560	0.693348	-0.304990
C124	C	0.319265	0.747650	-0.408514
C125	C	0.373559	0.693355	-0.000027
C126	C	0.319264	0.747660	-0.000049
C127	C	0.533561	0.693329	-0.304952
C128	C	0.533569	0.747625	-0.408463
C129	C	0.742063	0.293539	-0.059432
C130	C	0.793074	0.242521	-0.059434
C131	C	0.849831	0.217001	0.000128
C132	C	0.855575	0.242505	0.059688
C133	C	0.804565	0.293526	0.059682
C134	C	0.564743	0.293574	0.516717
C135	C	0.564733	0.242564	0.613986
C136	C	0.533486	0.217052	0.603075
C137	C	0.502243	0.242557	0.494885
C138	C	0.502250	0.293569	0.397619
C139	C	0.804554	0.293543	0.397664
C140	C	0.855574	0.242527	0.494926
C141	C	0.849847	0.217015	0.603114
C142	C	0.793095	0.242526	0.614039
C143	C	0.742076	0.293544	0.516778
C144	C	0.262519	0.773162	-0.397587
C145	C	0.211498	0.824193	-0.494850
C146	C	0.217226	0.849708	-0.603038
C147	C	0.273978	0.824194	-0.613962
C148	C	0.324997	0.773167	-0.516701
C149	C	0.325009	0.773165	0.059499
C150	C	0.273998	0.824197	0.059474
C151	C	0.217242	0.849719	-0.000092
C152	C	0.211498	0.824212	-0.059647
C153	C	0.262508	0.773184	-0.059628
C154	C	0.564822	0.773121	-0.397515
C155	C	0.564841	0.824130	-0.494765
C156	C	0.533604	0.849647	-0.602962
C157	C	0.502351	0.824146	-0.613908
C158	C	0.502335	0.773134	-0.516659
H159	H	0.453389	-0.074899	-0.152796
N160	N	0.583684	0.602475	-0.498779
H161	H	0.626208	0.577768	-0.497711
H162	H	0.583082	0.602581	-0.428731
N163	N	0.162231	0.904749	-0.000085
H164	H	0.137671	0.886997	0.033811
H165	H	0.137719	0.947073	-0.080769
N166	N	0.468522	0.321077	0.280964
H167	H	0.484890	0.282152	0.271862
H168	H	0.473252	0.357287	0.221032
N169	N	-0.009606	0.725715	-0.183314
H170	H	-0.032140	0.753032	-0.152081
H171	H	-0.032132	0.752976	-0.266613
H172	H	0.453361	0.301928	-0.152778
H173	H	0.788386	0.221762	-0.107934
N174	N	0.786919	0.215005	0.730728
H175	H	0.806699	0.223880	0.773734
H176	H	0.806687	0.163798	0.773639
H177	H	0.165293	0.844958	-0.485933
N178	N	-0.319096	0.663205	-0.123739
H179	H	-0.323877	0.690522	-0.207056
H180	H	-0.323830	0.690467	-0.092419
H181	H	0.901793	0.221719	0.108181
H182	H	0.476804	0.221778	0.486018
H183	H	0.473237	0.653883	-0.672772
N184	N	0.468616	0.745650	-0.528488
H185	H	0.437171	0.754540	-0.490815
H186	H	0.497294	0.694442	-0.490803
H187	H	0.613724	-0.235241	0.152852
N188	N	0.256300	0.745680	-0.123857
H189	H	0.233753	0.724525	-0.092614
H190	H	0.297242	0.709508	-0.114799
H191	H	-0.100647	0.709201	-0.167566
N192	N	0.598441	0.215058	0.730660
H193	H	0.629874	0.163842	0.773683
H194	H	0.569754	0.223993	0.773574
N195	N	0.150251	0.663247	-0.123824
H196	H	0.154363	0.702831	-0.161569
H197	H	0.127727	0.665971	-0.069141
N198	N	0.256304	0.663251	-0.123831
H199	H	0.276085	0.666031	-0.069207
H200	H	0.212603	0.702801	-0.161566
H201	H	0.891395	0.175473	0.682301
N202	N	0.150281	0.851731	-0.123869
H203	H	0.118843	0.887920	-0.114826
H204	H	0.145554	0.812763	-0.092571
H205	H	0.533486	0.175515	0.682284
H206	H	-0.211549	0.646703	-0.107997
N207	N	0.598514	0.745606	-0.280825
H208	H	0.618315	0.769502	-0.288663
H209	H	0.629914	0.694389	-0.237867
H210	H	0.695872	0.314304	0.525690
N211	N	0.810740	0.321047	0.280983
H212	H	0.854434	0.297142	0.288837
H213	H	0.790936	0.372264	0.238018
H214	H	0.901780	0.221761	0.486011
N215	N	0.162195	0.904744	-0.707936
H216	H	0.125379	0.917029	-0.684587
H217	H	0.162217	0.886951	-0.754700
H218	H	0.371174	0.420002	0.108066
N219	N	0.256333	0.745646	-0.280907
H220	H	0.212639	0.769559	-0.288760
H221	H	0.276146	0.754519	-0.237955
H222	H	0.476919	0.844930	-0.702015
H223	H	0.278634	0.844975	-0.702061
H224	H	0.371201	0.752395	-0.525612
N225	N	0.386222	0.745644	0.123741
H226	H	0.391001	0.724484	0.207053
H227	H	0.390967	0.784601	0.092395
H228	H	0.891362	0.175456	0.000124
H229	H	0.809251	0.314281	0.108188
H230	H	0.429625	0.593540	-0.499299
N231	N	0.280202	0.851700	0.123712
H232	H	0.323898	0.827781	0.161456
H233	H	0.260390	0.842830	0.183576
N234	N	0.598553	0.851627	-0.482945
H235	H	0.618332	0.827723	-0.399645
H236	H	0.569877	0.902844	-0.520718
N237	N	0.533630	0.904661	-0.707848
H238	H	0.558171	0.916936	-0.684484
H239	H	0.491309	0.946970	-0.754641
H240	H	0.613723	-0.327788	0.152845
H241	H	0.657876	-0.044729	0.237110
N242	N	0.669564	-0.155699	0.259360
H243	H	0.697546	-0.159775	0.312714
H244	H	0.692740	-0.178782	0.222527
H245	H	0.613676	0.141595	0.152904
H246	H	0.409226	0.111404	-0.237065
H247	H	0.613660	0.234166	0.152906
N248	N	0.680853	0.321056	-0.123680
H249	H	0.649404	0.357246	-0.114651
H250	H	0.676128	0.282089	-0.092405
N251	N	0.441675	0.412900	-0.175024
H252	H	0.413696	0.416979	-0.228389
H253	H	0.461003	0.435989	-0.219183
H254	H	0.409212	0.203959	-0.237060
H255	H	0.590187	0.314340	0.525623
H256	H	0.453414	-0.167471	-0.152819
H257	H	0.167736	0.357493	0.167684
N258	N	0.280144	0.403473	0.123850
H259	H	0.323838	0.363897	0.161572
H260	H	0.260335	0.400746	0.069176
H261	H	-0.098179	0.419957	0.108167
N262	N	0.076703	0.340974	0.183449
H263	H	0.099245	0.313655	0.266763
H264	H	0.099223	0.313717	0.152118
N265	N	-0.189222	0.403438	0.123912
H266	H	-0.230155	0.412923	0.114873
H267	H	-0.166661	0.376153	0.207199
H268	H	0.593713	0.412884	-0.327018
H269	H	0.489890	0.473124	-0.500767
H270	H	0.637384	0.473112	-0.500698
