data_functionalizedCrystal
_audit_creation_method	'MofGen! by Chris Wilmer'
_symmetry_space_group_name_H-M	'P1'
_symmetry_Int_Tables_number	1
_symmetry_cell_setting	triclinic
loop_
_symmetry_equiv_pos_as_xyz
  x,y,z
_cell_length_a	25.639242
_cell_length_b	19.121063
_cell_length_c	19.120904
_cell_angle_alpha	85.258387
_cell_angle_beta	92.414207
_cell_angle_gamma	87.535104
loop_
_atom_site_label
_atom_site_type_symbol
_atom_site_fract_x
_atom_site_fract_y
_atom_site_fract_z
Zn1	Zn	0.776825	0.297199	-0.409934
Zn2	Zn	1.110158	0.630532	-0.076601
Zn3	Zn	1.443492	0.963866	0.256733
Zn4	Zn	0.776760	0.409846	-0.297285
Zn5	Zn	1.110094	0.743179	0.036049
Zn6	Zn	1.443427	1.076513	0.369382
Zn7	Zn	0.693292	0.292190	-0.292269
Zn8	Zn	1.026625	0.625524	0.041064
Zn9	Zn	1.359959	0.958857	0.374397
Zn10	Zn	0.685471	0.414816	-0.414886
Zn11	Zn	1.018804	0.748149	-0.081553
Zn12	Zn	1.352137	1.081482	0.251781
O13	O	0.733087	0.353513	-0.353593
O14	O	1.066420	0.686846	-0.020260
O15	O	1.399754	1.020179	0.313073
O16	O	0.849980	0.312158	-0.395017
O17	O	1.183314	0.645492	-0.061684
O18	O	1.516647	0.978825	0.271649
O19	O	0.768934	0.390063	-0.198160
O20	O	1.102268	0.723396	0.135174
O21	O	1.435601	1.056729	0.468507
O22	O	0.707673	0.194392	-0.303706
O23	O	1.041007	0.527726	0.029627
O24	O	1.374340	0.861059	0.362960
O25	O	0.849933	0.394919	-0.312254
O26	O	1.183266	0.728253	0.021079
O27	O	1.516599	1.061586	0.354412
O28	O	0.769045	0.198072	-0.390154
O29	O	1.102378	0.531406	-0.056821
O30	O	1.435711	0.864739	0.276513
O31	O	0.707611	0.303622	-0.194475
O32	O	1.040944	0.636955	0.138858
O33	O	1.374277	0.970288	0.472192
O34	O	0.619091	0.308441	-0.308508
O35	O	0.952424	0.641774	0.024825
O36	O	1.285757	0.975107	0.358159
O37	O	0.694343	0.403390	-0.512689
O38	O	1.027676	0.736723	-0.179355
O39	O	1.361009	1.070056	0.153978
O40	O	0.613344	0.398533	-0.398594
O41	O	0.946678	0.731866	-0.065261
O42	O	1.280011	1.065200	0.268073
O43	O	0.761460	0.316977	-0.509050
O44	O	1.094794	0.650311	-0.175717
O45	O	1.428127	0.983644	0.157616
O46	O	0.761350	0.508968	-0.317056
O47	O	1.094683	0.842301	0.016277
O48	O	1.428017	1.175634	0.349611
O49	O	0.694280	0.512619	-0.403457
O50	O	1.027613	0.845952	-0.070124
O51	O	1.360947	1.179286	0.263209
C52	C	0.726973	0.536324	-0.361354
C53	C	1.060306	0.869657	-0.028020
C54	C	1.393640	1.202991	0.305313
C55	C	0.724404	0.614533	-0.364697
C56	C	1.057738	0.947866	-0.031364
C57	C	1.391071	1.281199	0.301970
C58	C	0.597247	0.353483	-0.353545
C59	C	0.930580	0.686816	-0.020211
C60	C	1.263914	1.020150	0.313122
C61	C	0.539133	0.353488	-0.353541
C62	C	0.872466	0.686821	-0.020208
C63	C	1.205800	1.020155	0.313126
C64	C	0.727036	0.361297	-0.537113
C65	C	1.060370	0.694630	-0.203780
C66	C	1.393703	1.027963	0.129554
C67	C	0.724458	0.364613	-0.615318
C68	C	1.057791	0.697947	-0.281985
C69	C	1.391125	1.031280	0.051349
C70	C	0.175783	0.400497	-0.400462
C71	C	0.509116	0.733831	-0.067128
C72	C	0.842450	1.067164	0.266205
C73	C	0.121178	0.400502	-0.400473
C74	C	0.454511	0.733835	-0.067140
C75	C	0.787845	1.067169	0.266194
O76	O	0.090404	0.440435	-0.440325
O77	O	0.423738	0.773768	-0.106991
O78	O	0.757071	1.107102	0.226342
N79	N	0.096846	0.353534	-0.353640
N80	N	0.430179	0.686867	-0.020307
N81	N	0.763512	1.020201	0.313027
C82	C	0.127121	0.306554	-0.306798
C83	C	0.460455	0.639887	0.026536
C84	C	0.793788	0.973220	0.359869
O85	O	0.101411	0.266604	-0.266964
O86	O	0.434744	0.599937	0.066369
O87	O	0.768077	0.933270	0.399702
C88	C	0.181725	0.306546	-0.306790
C89	C	0.515058	0.639879	0.026543
C90	C	0.848392	0.973213	0.359876
C91	C	0.206054	0.353522	-0.353622
C92	C	0.539388	0.686855	-0.020288
C93	C	0.872721	1.020188	0.313045
C94	C	0.200113	0.447469	-0.447290
C95	C	0.533446	0.780802	-0.113956
C96	C	0.866779	1.114135	0.219377
C97	C	0.254714	0.447465	-0.447277
C98	C	0.588047	0.780798	-0.113944
C99	C	0.921380	1.114131	0.219389
C100	C	0.284985	0.400489	-0.400437
C101	C	0.618318	0.733822	-0.067104
C102	C	0.951652	1.067156	0.266230
C103	C	0.260655	0.353518	-0.353609
C104	C	0.593989	0.686851	-0.020276
C105	C	0.927322	1.020184	0.313058
C106	C	0.211999	0.259562	-0.259952
C107	C	0.545333	0.592896	0.073381
C108	C	0.878666	0.926229	0.406715
C109	C	0.266607	0.259558	-0.259949
C110	C	0.599940	0.592892	0.073384
C111	C	0.933273	0.926225	0.406718
C112	C	0.290936	0.306534	-0.306780
C113	C	0.624269	0.639868	0.026553
C114	C	0.957603	0.973201	0.359887
C115	C	0.345528	0.306538	-0.306757
C116	C	0.678861	0.639871	0.026577
C117	C	1.012195	0.973205	0.359910
N118	N	0.369860	0.353506	-0.353589
N119	N	0.703194	0.686839	-0.020256
N120	N	1.036527	1.020173	0.313077
C121	C	0.339589	0.400482	-0.400430
C122	C	0.672922	0.733815	-0.067096
C123	C	1.006256	1.067148	0.266237
C124	C	0.012449	0.306572	-0.306818
C125	C	0.345783	0.639906	0.026516
C126	C	0.679116	0.973239	0.359849
C127	C	-0.042153	0.306583	-0.306821
C128	C	0.291180	0.639916	0.026512
C129	C	0.624513	0.973249	0.359846
C130	C	-0.048093	0.400531	-0.400497
C131	C	0.285241	0.733864	-0.067164
C132	C	0.618574	1.067197	0.266169
C133	C	0.006511	0.400523	-0.400490
C134	C	0.339844	0.733856	-0.067157
C135	C	0.673178	1.067190	0.266177
C136	C	0.036782	0.353540	-0.353650
C137	C	0.370115	0.686874	-0.020317
C138	C	0.703448	1.020207	0.313016
C139	C	0.454255	0.400470	-0.400400
C140	C	0.787589	0.733803	-0.067066
C141	C	1.120922	1.067136	0.266267
C142	C	0.508861	0.400464	-0.400381
C143	C	0.842195	0.733797	-0.067048
C144	C	1.175528	1.067130	0.266285
C145	C	0.514796	0.306513	-0.306708
C146	C	0.848129	0.639847	0.026626
C147	C	1.181463	0.973180	0.359959
C148	C	0.460195	0.306522	-0.306723
C149	C	0.793528	0.639855	0.026610
C150	C	1.126861	0.973189	0.359943
C151	C	0.429925	0.353503	-0.353575
C152	C	0.763259	0.686836	-0.020242
C153	C	1.096592	1.020169	0.313091
O154	O	0.376335	0.266624	-0.266927
O155	O	0.709668	0.599957	0.066406
O156	O	1.043002	0.933290	0.399740
O157	O	0.365307	0.440418	-0.440263
O158	O	0.698640	0.773752	-0.106929
O159	O	1.031973	1.107085	0.226404
C160	C	0.869457	0.353543	-0.353643
C161	C	1.202791	0.686877	-0.020310
C162	C	1.536124	1.020210	0.313024
C163	C	0.927570	0.353556	-0.353664
C164	C	1.260904	0.686889	-0.020331
C165	C	1.594237	1.020223	0.313003
C166	C	0.739239	0.169988	-0.345818
C167	C	1.072572	0.503322	-0.012485
C168	C	1.405905	0.836655	0.320848
C169	C	0.741860	0.091781	-0.342505
C170	C	1.075193	0.425114	-0.009172
C171	C	1.408527	0.758448	0.324162
C172	C	0.758142	0.649352	-0.321321
C173	C	1.091476	0.982686	0.012013
C174	C	1.424809	1.316019	0.345346
C175	C	0.755730	0.722838	-0.324469
C176	C	1.089063	1.056171	0.008864
C177	C	1.422396	1.389504	0.342197
C178	C	0.719576	0.761502	-0.370991
C179	C	1.052909	1.094835	-0.037658
C180	C	1.386243	1.428169	0.295675
C181	C	0.685837	0.726677	-0.414372
C182	C	1.019170	1.060011	-0.081039
C183	C	1.352503	1.393344	0.252294
C184	C	0.688252	0.653193	-0.411227
C185	C	1.021586	0.986527	-0.077893
C186	C	1.354919	1.319860	0.255440
C187	C	0.710536	0.983472	-0.382741
C188	C	1.043870	1.316806	-0.049407
C189	C	1.377203	1.650139	0.283926
C190	C	0.708122	1.056961	-0.385881
C191	C	1.041456	1.390295	-0.052548
C192	C	1.374789	1.723628	0.280785
C193	C	0.778016	1.053117	-0.295979
C194	C	1.111349	1.386450	0.037355
C195	C	1.444683	1.719783	0.370688
C196	C	0.780426	0.979631	-0.292834
C197	C	1.113760	1.312965	0.040499
C198	C	1.447093	1.646298	0.373832
C199	C	0.746689	0.944813	-0.336218
C200	C	1.080022	1.278147	-0.002885
C201	C	1.413356	1.611480	0.330449
C202	C	0.717108	0.836616	-0.374209
C203	C	1.050441	1.169949	-0.040876
C204	C	1.383774	1.503283	0.292458
C205	C	0.749160	0.869701	-0.333003
C206	C	1.082493	1.203034	0.000330
C207	C	1.415827	1.536367	0.333663
C208	C	0.758189	0.321183	-0.650166
C209	C	1.091523	0.654517	-0.316832
C210	C	1.424856	0.987850	0.016501
C211	C	0.755760	0.324297	-0.723648
C212	C	1.089094	0.657631	-0.390314
C213	C	1.422427	0.990964	-0.056981
C214	C	0.719602	0.370845	-0.762280
C215	C	1.052935	0.704179	-0.428947
C216	C	1.386269	1.037512	-0.095614
C217	C	0.685867	0.414277	-0.727427
C218	C	1.019200	0.747611	-0.394094
C219	C	1.352534	1.080944	-0.060761
C220	C	0.688294	0.411159	-0.653947
C221	C	1.021627	0.744493	-0.320613
C222	C	1.354961	1.077826	0.012720
C223	C	0.710524	0.382507	-0.984239
C224	C	1.043857	0.715841	-0.650906
C225	C	1.377191	1.049174	-0.317572
C226	C	0.708101	0.385623	-1.057725
C227	C	1.041434	0.718957	-0.724392
C228	C	1.374767	1.052290	-0.391058
C229	C	0.777994	0.295642	-1.053940
C230	C	1.111327	0.628976	-0.720607
C231	C	1.444660	0.962309	-0.387273
C232	C	0.780419	0.292531	-0.980458
C233	C	1.113753	0.625865	-0.647125
C234	C	1.447086	0.959198	-0.313791
C235	C	0.746683	0.335961	-0.945611
C236	C	1.080016	0.669294	-0.612278
C237	C	1.413349	1.002627	-0.278945
C238	C	0.717119	0.374031	-0.837391
C239	C	1.050453	0.707364	-0.504057
C240	C	1.383786	1.040698	-0.170724
C241	C	0.749163	0.332771	-0.870502
C242	C	1.082496	0.666104	-0.537169
C243	C	1.415830	0.999438	-0.203836
C244	C	0.739146	0.345709	-0.170786
C245	C	1.072479	0.679042	0.162548
C246	C	1.405813	1.012375	0.495881
C247	C	0.741832	0.342193	-0.092573
C248	C	1.075166	0.675527	0.240761
C249	C	1.408499	1.008860	0.574094
H250	H	0.528668	0.438720	-0.438517
H251	H	0.862001	0.772053	-0.105184
H252	H	1.195334	1.105386	0.228149
H253	H	0.656424	0.452175	-0.758888
H254	H	0.989758	0.785508	-0.425555
H255	H	1.323091	1.118842	-0.092221
H256	H	0.429616	0.438724	-0.438552
H257	H	0.762950	0.772058	-0.105219
H258	H	1.096283	1.105391	0.228114
H259	H	0.660780	0.624844	-0.446549
H260	H	0.994113	0.958177	-0.113216
H261	H	1.327447	1.291511	0.220117
H262	H	0.291251	0.221295	-0.221810
H263	H	0.624584	0.554628	0.111524
H264	H	0.957917	0.887961	0.444857
H265	H	0.660821	0.446518	-0.625574
H266	H	0.994154	0.779851	-0.292241
H267	H	1.327488	1.113184	0.041092
H268	H	0.805484	1.081474	-0.260659
H269	H	1.138817	1.414807	0.072674
H270	H	1.472150	1.748140	0.406007
H271	H	0.809865	0.254629	-0.949008
H272	H	1.143198	0.587962	-0.615675
H273	H	1.476531	0.921296	-0.282341
H274	H	0.037093	0.268314	-0.268670
H275	H	0.370426	0.601647	0.064663
H276	H	0.703760	0.934980	0.397997
H277	H	0.683060	0.417881	-0.955876
H278	H	1.016394	0.751214	-0.622543
H279	H	1.349727	1.084547	-0.289210
H280	H	-0.072750	0.438779	-0.438639
H281	H	0.260584	0.772112	-0.105306
H282	H	0.593917	1.105445	0.228027
H283	H	0.192200	0.221311	-0.221815
H284	H	0.525533	0.554645	0.111518
H285	H	0.858867	0.887978	0.444852
H286	H	0.787580	0.617876	-0.283434
H287	H	1.120913	0.951210	0.049899
H288	H	1.454247	1.284543	0.383232
H289	H	0.787635	0.283281	-0.618716
H290	H	1.120968	0.616615	-0.285383
H291	H	1.454302	0.949948	0.047951
H292	H	0.809865	0.948152	-0.254953
H293	H	1.143199	1.281486	0.078381
H294	H	1.476532	1.614819	0.411714
H295	H	0.440385	0.268272	-0.268588
H296	H	0.773718	0.601605	0.064745
H297	H	1.107051	0.934938	0.398078
H298	H	0.778601	0.294869	-0.839044
H299	H	1.111934	0.628202	-0.505711
H300	H	1.445267	0.961536	-0.172378
H301	H	0.678688	1.088440	-0.423777
H302	H	1.012021	1.421774	-0.090444
H303	H	1.345354	1.755107	0.242889
H304	H	0.274518	0.485716	-0.485413
H305	H	0.607851	0.819049	-0.152080
H306	H	0.941184	1.152383	0.181253
H307	H	0.539453	0.268269	-0.268569
H308	H	0.872786	0.601603	0.064764
H309	H	1.206119	0.934936	0.398097
H310	H	0.678655	0.423530	-1.089178
H311	H	1.011988	0.756863	-0.755845
H312	H	1.345321	1.090197	-0.422511
H313	H	0.683065	0.955129	-0.418064
H314	H	1.016398	1.288463	-0.084731
H315	H	1.349732	1.621796	0.248603
H316	H	0.687682	0.411934	-0.868854
H317	H	1.021015	0.745267	-0.535521
H318	H	1.354348	1.078601	-0.202187
H319	H	0.656402	0.758164	-0.452255
H320	H	0.989735	1.091497	-0.118921
H321	H	1.323069	1.424830	0.214412
H322	H	0.778598	0.838218	-0.295128
H323	H	1.111931	1.171552	0.038206
H324	H	1.445265	1.504885	0.371539
H325	H	0.783229	0.288934	-0.752017
H326	H	1.116563	0.622267	-0.418684
H327	H	1.449896	0.955600	-0.085351
H328	H	0.805460	0.260284	-1.082320
H329	H	1.138793	0.593617	-0.748987
H330	H	1.472126	0.926951	-0.415653
H331	H	0.175471	0.485722	-0.485436
H332	H	0.508804	0.819056	-0.152103
H333	H	0.842138	1.152389	0.181230
H334	H	0.026316	0.438774	-0.438625
H335	H	0.359650	0.772107	-0.105292
H336	H	0.692983	1.105441	0.228042
H337	H	0.687671	0.868104	-0.412086
H338	H	1.021004	1.201438	-0.078753
H339	H	1.354337	1.534771	0.254581
H340	H	0.783202	0.751185	-0.289147
H341	H	1.116535	1.084518	0.044186
H342	H	1.449869	1.417851	0.377520
H343	H	-0.061958	0.268337	-0.268680
H344	H	0.271376	0.601670	0.064654
H345	H	0.604709	0.935004	0.397987
