data_functionalizedCrystal
_audit_creation_method	'MofGen! by Chris Wilmer'
_symmetry_space_group_name_H-M	'P1'
_symmetry_Int_Tables_number	1
_symmetry_cell_setting	triclinic
loop_
_symmetry_equiv_pos_as_xyz
  x,y,z
_cell_length_a	18.101398
_cell_length_b	18.101395
_cell_length_c	17.077396
_cell_angle_alpha	89.972533
_cell_angle_beta	89.989660
_cell_angle_gamma	90.026661
loop_
_atom_site_label
_atom_site_type_symbol
_atom_site_fract_x
_atom_site_fract_y
_atom_site_fract_z
Zn1	Zn	1.132125	-0.294917	-0.443656
Zn2	Zn	1.382125	-0.044917	-0.193656
Zn3	Zn	1.632125	0.205083	0.056344
Zn4	Zn	1.882125	0.455083	0.306344
Zn5	Zn	1.132020	-0.418766	-0.312393
Zn6	Zn	1.382020	-0.168766	-0.062393
Zn7	Zn	1.632020	0.081234	0.187607
Zn8	Zn	1.882020	0.331234	0.437607
Zn9	Zn	1.008283	-0.294933	-0.312425
Zn10	Zn	1.258283	-0.044933	-0.062425
Zn11	Zn	1.508283	0.205067	0.187575
Zn12	Zn	1.758283	0.455067	0.437575
Zn13	Zn	1.008235	-0.418712	-0.443637
Zn14	Zn	1.258235	-0.168712	-0.193637
Zn15	Zn	1.508235	0.081288	0.056363
Zn16	Zn	1.758235	0.331288	0.306363
O17	O	1.070166	-0.356832	-0.378028
O18	O	1.320166	-0.106832	-0.128028
O19	O	1.570166	0.143168	0.121972
O20	O	1.820166	0.393168	0.371972
O21	O	1.235744	-0.311362	-0.426238
O22	O	1.485744	-0.061362	-0.176238
O23	O	1.735744	0.188638	0.073762
O24	O	1.985744	0.438638	0.323762
O25	O	1.115582	-0.402369	-0.202550
O26	O	1.365582	-0.152369	0.047450
O27	O	1.615582	0.097631	0.297450
O28	O	1.865582	0.347631	0.547450
O29	O	1.024775	-0.191298	-0.329855
O30	O	1.274775	0.058702	-0.079855
O31	O	1.524775	0.308702	0.170145
O32	O	1.774775	0.558702	0.420145
O33	O	1.235667	-0.402353	-0.329799
O34	O	1.485667	-0.152353	-0.079799
O35	O	1.735667	0.097647	0.170201
O36	O	1.985667	0.347647	0.420201
O37	O	1.115762	-0.191287	-0.426270
O38	O	1.365762	0.058713	-0.176270
O39	O	1.615762	0.308713	0.073730
O40	O	1.865762	0.558713	0.323730
O41	O	1.024673	-0.311389	-0.202574
O42	O	1.274673	-0.061389	0.047426
O43	O	1.524673	0.188611	0.297426
O44	O	1.774673	0.438611	0.547426
O45	O	0.904644	-0.311337	-0.329836
O46	O	1.154644	-0.061337	-0.079836
O47	O	1.404644	0.188663	0.170164
O48	O	1.654644	0.438663	0.420164
O49	O	1.024693	-0.402261	-0.553487
O50	O	1.274693	-0.152261	-0.303487
O51	O	1.524693	0.097739	-0.053487
O52	O	1.774693	0.347739	0.196513
O53	O	0.904608	-0.402277	-0.426237
O54	O	1.154608	-0.152277	-0.176237
O55	O	1.404608	0.097723	0.073763
O56	O	1.654608	0.347723	0.323763
O57	O	1.115715	-0.311310	-0.553501
O58	O	1.365715	-0.061310	-0.303501
O59	O	1.615715	0.188690	-0.053501
O60	O	1.865715	0.438690	0.196499
O61	O	1.115535	-0.522392	-0.329781
O62	O	1.365535	-0.272392	-0.079781
O63	O	1.615535	-0.022392	0.170219
O64	O	1.865535	0.227608	0.420219
O65	O	1.024591	-0.522352	-0.426206
O66	O	1.274591	-0.272352	-0.176206
O67	O	1.524591	-0.022352	0.073794
O68	O	1.774591	0.227648	0.323794
C69	C	0.877755	-0.356803	-0.378039
C70	C	1.127755	-0.106803	-0.128039
C71	C	1.377755	0.143197	0.121961
C72	C	1.627755	0.393197	0.371961
C73	C	0.795441	-0.356809	-0.378062
C74	C	1.045441	-0.106809	-0.128062
C75	C	1.295441	0.143191	0.121938
C76	C	1.545441	0.393191	0.371938
C77	C	0.496350	-0.356852	-0.378029
C78	C	0.746350	-0.106852	-0.128029
C79	C	0.996350	0.143148	0.121971
C80	C	1.246350	0.393148	0.371971
C81	C	0.527678	-0.414346	-0.438383
C82	C	0.777678	-0.164346	-0.188383
C83	C	1.027678	0.085654	0.061617
C84	C	1.277678	0.335654	0.311617
C85	C	0.613296	-0.414166	-0.438631
C86	C	0.863296	-0.164166	-0.188631
C87	C	1.113296	0.085834	0.061369
C88	C	1.363296	0.335834	0.311369
C89	C	0.644733	-0.356831	-0.378046
C90	C	0.894733	-0.106831	-0.128046
C91	C	1.144733	0.143169	0.121954
C92	C	1.394733	0.393169	0.371954
C93	C	0.613678	-0.278829	-0.400650
C94	C	0.863678	-0.028829	-0.150650
C95	C	1.113678	0.221171	0.099350
C96	C	1.363678	0.471171	0.349350
C97	C	0.528033	-0.279174	-0.401079
C98	C	0.778033	-0.029174	-0.151079
C99	C	1.028033	0.220826	0.098921
C100	C	1.278033	0.470826	0.348921
C101	C	0.527897	-0.376674	-0.294926
C102	C	0.777897	-0.126674	-0.044926
C103	C	1.027897	0.123326	0.205074
C104	C	1.277897	0.373326	0.455074
C105	C	0.613547	-0.378385	-0.295370
C106	C	0.863547	-0.128385	-0.045370
C107	C	1.113547	0.121615	0.204630
C108	C	1.363547	0.371615	0.454630
C109	C	0.728592	-0.356815	-0.378053
C110	C	0.978592	-0.106815	-0.128053
C111	C	1.228592	0.143185	0.121947
C112	C	1.478592	0.393185	0.371947
C113	C	0.412491	-0.356864	-0.378023
C114	C	0.662491	-0.106864	-0.128023
C115	C	0.912491	0.143136	0.121977
C116	C	1.162491	0.393136	0.371977
C117	C	1.070067	-0.549243	-0.378005
C118	C	1.320067	-0.299243	-0.128005
C119	C	1.570067	-0.049243	0.121995
C120	C	1.820067	0.200757	0.371995
C121	C	1.070092	-0.631557	-0.378021
C122	C	1.320092	-0.381557	-0.128021
C123	C	1.570092	-0.131557	0.121979
C124	C	1.820092	0.118443	0.371979
C125	C	1.070255	-0.930648	-0.378063
C126	C	1.320255	-0.680648	-0.128063
C127	C	1.570255	-0.430648	0.121937
C128	C	1.820255	-0.180648	0.371937
C129	C	1.013168	-0.899329	-0.438882
C130	C	1.263168	-0.649329	-0.188882
C131	C	1.513168	-0.399329	0.061118
C132	C	1.763168	-0.149329	0.311118
C133	C	1.012896	-0.813711	-0.438692
C134	C	1.262896	-0.563711	-0.188692
C135	C	1.512896	-0.313711	0.061308
C136	C	1.762896	-0.063711	0.311308
C137	C	1.070174	-0.782265	-0.378043
C138	C	1.320174	-0.532265	-0.128043
C139	C	1.570174	-0.282265	0.121957
C140	C	1.820174	-0.032265	0.371957
C141	C	1.049044	-0.813415	-0.295317
C142	C	1.299044	-0.563415	-0.045317
C143	C	1.549044	-0.313415	0.204683
C144	C	1.799044	-0.063415	0.454683
C145	C	1.048676	-0.899060	-0.295681
C146	C	1.298676	-0.649060	-0.045681
C147	C	1.548676	-0.399060	0.204319
C148	C	1.798676	-0.149060	0.454319
C149	C	1.148596	-0.898998	-0.399243
C150	C	1.398596	-0.648998	-0.149243
C151	C	1.648596	-0.398998	0.100757
C152	C	1.898596	-0.148998	0.350757
C153	C	1.148136	-0.813346	-0.401057
C154	C	1.398136	-0.563346	-0.151057
C155	C	1.648136	-0.313346	0.098943
C156	C	1.898136	-0.063346	0.348943
C157	C	1.070130	-0.698406	-0.378027
C158	C	1.320130	-0.448406	-0.128027
C159	C	1.570130	-0.198406	0.121973
C160	C	1.820130	0.051594	0.371973
C161	C	1.070297	-1.014507	-0.378074
C162	C	1.320297	-0.764507	-0.128074
C163	C	1.570297	-0.514507	0.121926
C164	C	1.820297	-0.264507	0.371926
C165	C	1.263328	-0.356862	-0.378017
C166	C	1.513328	-0.106862	-0.128017
C167	C	1.763328	0.143138	0.121983
C168	C	2.013328	0.393138	0.371983
C169	C	1.345642	-0.356875	-0.378013
C170	C	1.595642	-0.106875	-0.128013
C171	C	1.845642	0.143125	0.121987
C172	C	2.095642	0.393125	0.371987
C173	C	1.070211	-0.356778	-0.582772
C174	C	1.320211	-0.106778	-0.332772
C175	C	1.570211	0.143222	-0.082772
C176	C	1.820211	0.393222	0.167228
C177	C	1.070230	-0.356754	-0.670022
C178	C	1.320230	-0.106754	-0.420022
C179	C	1.570230	0.143246	-0.170022
C180	C	1.820230	0.393246	0.079978
C181	C	1.070285	-0.163670	-0.378068
C182	C	1.320285	0.086330	-0.128068
C183	C	1.570285	0.336330	0.121932
C184	C	1.820285	0.586330	0.371932
C185	C	1.070336	-0.081356	-0.378085
C186	C	1.320336	0.168644	-0.128085
C187	C	1.570336	0.418644	0.121915
C188	C	1.820336	0.668644	0.371915
C189	C	1.117626	-0.309392	-0.711021
C190	C	1.367626	-0.059392	-0.461021
C191	C	1.617626	0.190608	-0.211021
C192	C	1.867626	0.440608	0.038979
C193	C	1.117635	-0.309368	-0.793001
C194	C	1.367635	-0.059368	-0.543001
C195	C	1.617635	0.190632	-0.293001
C196	C	1.867635	0.440632	-0.043001
C197	C	1.070251	-0.356709	-0.833982
C198	C	1.320251	-0.106709	-0.583982
C199	C	1.570251	0.143291	-0.333982
C200	C	1.820251	0.393291	-0.083982
C201	C	1.022849	-0.404074	-0.792977
C202	C	1.272849	-0.154074	-0.542977
C203	C	1.522849	0.095926	-0.292977
C204	C	1.772849	0.345926	-0.042977
C205	C	1.022837	-0.404094	-0.710998
C206	C	1.272837	-0.154094	-0.460998
C207	C	1.522837	0.095906	-0.210998
C208	C	1.772837	0.345906	0.039002
C209	C	1.022879	-0.404029	-0.963847
C210	C	1.272879	-0.154029	-0.713847
C211	C	1.522879	0.095971	-0.463847
C212	C	1.772879	0.345971	-0.213847
C213	C	1.022891	-0.404010	-1.045832
C214	C	1.272891	-0.154010	-0.795832
C215	C	1.522891	0.095990	-0.545832
C216	C	1.772891	0.345990	-0.295832
C217	C	1.117677	-0.309303	-1.045850
C218	C	1.367677	-0.059303	-0.795850
C219	C	1.617677	0.190697	-0.545850
C220	C	1.867677	0.440697	-0.295850
C221	C	1.117665	-0.309323	-0.963871
C222	C	1.367665	-0.059323	-0.713871
C223	C	1.617665	0.190677	-0.463871
C224	C	1.867665	0.440677	-0.213871
C225	C	1.070264	-0.356689	-0.922873
C226	C	1.320264	-0.106689	-0.672873
C227	C	1.570264	0.143311	-0.422873
C228	C	1.820264	0.393311	-0.172873
C229	C	1.070164	-0.356833	-0.174080
C230	C	1.320164	-0.106833	0.075920
C231	C	1.570164	0.143167	0.325920
C232	C	1.820164	0.393167	0.575920
C233	C	1.070288	-0.356648	-0.086831
C234	C	1.320288	-0.106648	0.163169
C235	C	1.570288	0.143352	0.413169
C236	C	1.820288	0.393352	0.663169
H237	H	0.506283	-0.432580	-0.274383
H238	H	0.756283	-0.182580	-0.024383
H239	H	1.006283	0.067420	0.225617
H240	H	1.256283	0.317420	0.475617
H241	H	1.192919	-0.791938	-0.359988
H242	H	1.442919	-0.541938	-0.109988
H243	H	1.692919	-0.291938	0.140012
H244	H	1.942919	-0.041938	0.390012
F245	F	0.936995	-0.787007	-0.420360
F246	F	1.186995	-0.537007	-0.170360
F247	F	1.436995	-0.287007	0.079640
F248	F	1.686995	-0.037007	0.329640
H249	H	1.167861	-0.920547	-0.458538
H250	H	1.417861	-0.670547	-0.208538
H251	H	1.667861	-0.420547	0.041462
H252	H	1.917861	-0.170547	0.291462
F253	F	0.640074	-0.453415	-0.273090
F254	F	0.890074	-0.203415	-0.023090
F255	F	1.140074	0.046585	0.226910
F256	F	1.390074	0.296585	0.476910
H257	H	0.634291	-0.472009	-0.424464
H258	H	0.884291	-0.222009	-0.174464
H259	H	1.134291	0.027991	0.075536
H260	H	1.384291	0.277991	0.325536
F261	F	0.937730	-0.927551	-0.420791
F262	F	1.187730	-0.677551	-0.170791
F263	F	1.437730	-0.427551	0.079209
F264	F	1.687730	-0.177551	0.329209
H265	H	0.634946	-0.339550	-0.247987
H266	H	0.884946	-0.089550	0.002013
H267	H	1.134946	0.160450	0.252013
H268	H	1.384946	0.410450	0.502013
H269	H	0.984268	-0.442588	-0.930469
H270	H	1.234268	-0.192588	-0.680469
H271	H	1.484268	0.057412	-0.430469
H272	H	1.734268	0.307412	-0.180469
F273	F	1.168107	-0.258983	-0.836632
F274	F	1.418107	-0.008983	-0.586632
F275	F	1.668107	0.241017	-0.336632
F276	F	1.918107	0.491017	-0.086632
H277	H	0.507638	-0.334796	-0.249957
H278	H	0.757638	-0.084796	0.000043
H279	H	1.007638	0.165204	0.250043
H280	H	1.257638	0.415204	0.500043
H281	H	0.508073	-0.262362	-0.461831
H282	H	0.758073	-0.012362	-0.211831
H283	H	1.008073	0.237638	0.038169
H284	H	1.258073	0.487638	0.288169
F285	F	0.641733	-0.256456	-0.479195
F286	F	0.891733	-0.006456	-0.229195
F287	F	1.141733	0.243544	0.020805
F288	F	1.391733	0.493544	0.270805
F289	F	1.030272	-0.926188	-0.519320
F290	F	1.280272	-0.676188	-0.269320
F291	F	1.530272	-0.426188	-0.019320
F292	F	1.780272	-0.176188	0.230680
H293	H	1.156272	-0.270735	-1.079236
H294	H	1.406272	-0.020735	-0.829236
H295	H	1.656272	0.229265	-0.579236
H296	H	1.906272	0.479265	-0.329236
H297	H	0.984234	-0.442654	-0.677618
H298	H	1.234234	-0.192654	-0.427618
H299	H	1.484234	0.057346	-0.177618
H300	H	1.734234	0.307346	0.072382
H301	H	0.984265	-0.442618	-0.826350
H302	H	1.234265	-0.192618	-0.576350
H303	H	1.484265	0.057382	-0.326350
H304	H	1.734265	0.307382	-0.076350
H305	H	1.156254	-0.270777	-0.930507
H306	H	1.406254	-0.020777	-0.680507
H307	H	1.656254	0.229223	-0.430507
H308	H	1.906254	0.479223	-0.180507
F309	F	1.100659	-0.926146	-0.234429
F310	F	1.350659	-0.676146	0.015571
F311	F	1.600659	-0.426146	0.265571
F312	F	1.850659	-0.176146	0.515571
F313	F	1.204192	-0.925481	-0.341354
F314	F	1.454192	-0.675481	-0.091354
F315	F	1.704192	-0.425481	0.158646
F316	F	1.954192	-0.175481	0.408646
F317	F	1.168965	-0.786733	-0.480634
F318	F	1.418965	-0.536733	-0.230634
F319	F	1.668965	-0.286733	0.019366
F320	F	1.918965	-0.036733	0.269366
H321	H	1.089315	-0.793048	-0.248768
H322	H	1.339315	-0.543048	0.001232
H323	H	1.589315	-0.293048	0.251232
H324	H	1.839315	-0.043048	0.501232
H325	H	0.992383	-0.792026	-0.277053
H326	H	1.242383	-0.542026	-0.027053
H327	H	1.492383	-0.292026	0.222947
H328	H	1.742383	-0.042026	0.472947
H329	H	0.984305	-0.442559	-1.079196
H330	H	1.234305	-0.192559	-0.829196
H331	H	1.484305	0.057441	-0.579196
H332	H	1.734305	0.307441	-0.329196
F333	F	1.168064	-0.259007	-0.667414
F334	F	1.418064	-0.009007	-0.417414
F335	F	1.668064	0.240993	-0.167414
F336	F	1.918064	0.490993	0.082586
H337	H	0.991408	-0.919099	-0.277739
H338	H	1.241408	-0.669099	-0.027739
H339	H	1.491408	-0.419099	0.222261
H340	H	1.741408	-0.169099	0.472261
H341	H	0.634042	-0.234831	-0.358063
H342	H	0.884042	0.015169	-0.108063
H343	H	1.134042	0.265169	0.141937
H344	H	1.384042	0.515169	0.391937
H345	H	0.506168	-0.401397	-0.499601
H346	H	0.756168	-0.151397	-0.249601
H347	H	1.006168	0.098603	0.000399
H348	H	1.256168	0.348603	0.250399
F349	F	0.640099	-0.397023	-0.519113
F350	F	0.890099	-0.147023	-0.269113
F351	F	1.140099	0.102977	-0.019113
F352	F	1.390099	0.352977	0.230887
F353	F	0.500728	-0.490199	-0.420078
F354	F	0.750728	-0.240199	-0.170078
F355	F	1.000728	0.009801	0.079922
F356	F	1.250728	0.259801	0.329922
H357	H	1.026116	-0.792647	-0.500033
H358	H	1.276116	-0.542647	-0.250033
H359	H	1.526116	-0.292647	-0.000033
H360	H	1.776116	-0.042647	0.249967
F361	F	0.500945	-0.221286	-0.346130
F362	F	0.750945	0.028714	-0.096130
F363	F	1.000945	0.278714	0.153870
F364	F	1.250945	0.528714	0.403870
