data_functionalizedCrystal
_audit_creation_method	'MofGen! by Chris Wilmer'
_symmetry_space_group_name_H-M	'P1'
_symmetry_Int_Tables_number	1
_symmetry_cell_setting	triclinic
loop_
_symmetry_equiv_pos_as_xyz
  x,y,z
_cell_length_a	14.519709
_cell_length_b	11.026607
_cell_length_c	9.482900
_cell_angle_alpha	101.363848
_cell_angle_beta	99.350820
_cell_angle_gamma	83.866919
loop_
_atom_site_label
_atom_site_type_symbol
_atom_site_fract_x
_atom_site_fract_y
_atom_site_fract_z
O1	O	0.375017	-1.629894	-0.120915
O2	O	0.708350	-1.296561	0.212419
O3	O	1.041683	-0.963227	0.545752
O4	O	0.331026	-1.276492	-0.120914
O5	O	0.664359	-0.943159	0.212419
O6	O	0.997693	-0.609826	0.545752
O7	O	0.220328	-1.462561	-0.120901
O8	O	0.553661	-1.129228	0.212432
O9	O	0.886995	-0.795894	0.545765
O10	O	0.485715	-1.443825	-0.120927
O11	O	0.819048	-1.110492	0.212406
O12	O	1.152381	-0.777159	0.545739
O13	O	0.242929	-1.424766	0.120889
O14	O	0.576262	-1.091433	0.454222
O15	O	0.909595	-0.758100	0.787555
O16	O	0.353627	-1.238698	0.120876
O17	O	0.686960	-0.905364	0.454209
O18	O	1.020294	-0.572031	0.787542
O19	O	0.397617	-1.592099	0.120875
O20	O	0.730951	-1.258766	0.454209
O21	O	1.064284	-0.925433	0.787542
Cu22	Cu	0.377686	-1.411948	0.142953
Cu23	Cu	0.711019	-1.078614	0.476286
Cu24	Cu	1.044352	-0.745281	0.809619
Cu25	Cu	0.350958	-1.456644	-0.142992
Cu26	Cu	0.684291	-1.123311	0.190342
Cu27	Cu	1.017624	-0.789977	0.523675
O28	O	0.508316	-1.406031	0.120862
O29	O	0.841649	-1.072697	0.454196
O30	O	1.174982	-0.739364	0.787529
C31	C	0.334211	-1.212367	-0.000019
C32	C	0.667544	-0.879033	0.333314
C33	C	1.000878	-0.545700	0.666648
C34	C	0.310019	-1.077600	-0.000019
C35	C	0.643352	-0.744267	0.333315
C36	C	0.976685	-0.410933	0.666648
C37	C	0.197125	-1.442790	-0.000006
C38	C	0.530458	-1.109457	0.333327
C39	C	0.863791	-0.776124	0.666661
C40	C	0.094312	-1.440173	-0.000005
C41	C	0.427646	-1.106840	0.333328
C42	C	0.760979	-0.773506	0.666661
C43	C	0.394432	-1.656226	-0.000023
C44	C	0.727765	-1.322892	0.333310
C45	C	1.061099	-0.989559	0.666644
C46	C	0.418624	-1.790994	-0.000033
C47	C	0.751957	-1.457660	0.333300
C48	C	1.085290	-1.124327	0.666634
C49	C	-0.282175	-1.430544	-0.000043
C50	C	0.051159	-1.097211	0.333290
C51	C	0.384492	-0.763878	0.666624
C52	C	-0.177425	-1.433218	-0.000032
C53	C	0.155909	-1.099885	0.333301
C54	C	0.489242	-0.766551	0.666635
C55	C	-0.093934	-1.435358	-0.000023
C56	C	0.239399	-1.102025	0.333311
C57	C	0.572732	-0.768691	0.666644
C58	C	0.010822	-1.438033	-0.000015
C59	C	0.344155	-1.104700	0.333319
C60	C	0.677489	-0.771366	0.666652
C61	C	0.531518	-1.425802	-0.000036
C62	C	0.864852	-1.092469	0.333297
C63	C	1.198185	-0.759135	0.666631
C64	C	0.634330	-1.428421	-0.000046
C65	C	0.967663	-1.095087	0.333287
C66	C	1.300997	-0.761754	0.666620
N67	N	0.396486	-1.380519	0.344071
N68	N	0.729819	-1.047186	0.677404
N69	N	1.063152	-0.713853	1.010737
C70	C	0.376817	-1.003940	-0.000026
C71	C	0.710151	-0.670607	0.333307
C72	C	1.043484	-0.337274	0.666641
C73	C	0.351815	-0.864652	-0.000026
C74	C	0.685148	-0.531318	0.333308
C75	C	1.018482	-0.197985	0.666641
N76	N	0.332152	-1.488082	-0.344110
N77	N	0.665485	-1.154749	-0.010776
N78	N	0.998819	-0.821415	0.322557
C79	C	0.356497	-1.447366	0.416275
C80	C	0.689830	-1.114032	0.749608
C81	C	1.023163	-0.780699	1.082941
C82	C	0.372147	-1.421226	0.583690
C83	C	0.705480	-1.087892	0.917024
C84	C	1.038814	-0.754559	1.250357
H85	H	0.452517	-1.043996	-0.000025
H86	H	0.785850	-0.710663	0.333308
H87	H	1.119184	-0.377329	0.666641
H88	H	0.234316	-1.037549	-0.000048
H89	H	0.567650	-0.704216	0.333285
H90	H	0.900983	-0.370882	0.666618
H91	H	0.442304	-1.303933	0.406195
H92	H	0.775638	-0.970600	0.739529
H93	H	1.108971	-0.637267	1.072862
H94	H	0.276108	-0.824606	-0.000055
H95	H	0.609441	-0.491273	0.333278
H96	H	0.942775	-0.157940	0.666611
F97	F	0.272441	-1.588390	0.574703
F98	F	0.605775	-1.255057	0.908037
F99	F	0.939108	-0.921724	1.241370
F100	F	0.296403	-1.547249	0.335079
F101	F	0.629736	-1.213916	0.668413
F102	F	0.963070	-0.880582	1.001746
F103	F	0.517577	-0.843333	-0.000025
F104	F	0.850910	-0.510000	0.333308
F105	F	1.184243	-0.176666	0.666642
H106	H	0.417969	-1.344635	0.645809
H107	H	0.751302	-1.011301	0.979143
H108	H	1.084635	-0.677968	1.312476
