data_functionalizedCrystal
_audit_creation_method	'MofGen! by Chris Wilmer'
_symmetry_space_group_name_H-M	'P1'
_symmetry_Int_Tables_number	1
_symmetry_cell_setting	triclinic
loop_
_symmetry_equiv_pos_as_xyz
  x,y,z
_cell_length_a	13.032831
_cell_length_b	16.120444
_cell_length_c	16.120256
_cell_angle_alpha	95.616860
_cell_angle_beta	86.057501
_cell_angle_gamma	86.079645
loop_
_atom_site_label
_atom_site_type_symbol
_atom_site_fract_x
_atom_site_fract_y
_atom_site_fract_z
Zn1	Zn	1.523142	-0.519561	-0.651752
Zn2	Zn	1.856476	-0.186228	-0.318419
Zn3	Zn	2.189809	0.147105	0.014915
Zn4	Zn	1.523010	-0.652233	-0.519049
Zn5	Zn	1.856343	-0.318900	-0.185716
Zn6	Zn	2.189676	0.014433	0.147617
Zn7	Zn	1.359933	-0.495049	-0.494607
Zn8	Zn	1.693266	-0.161716	-0.161274
Zn9	Zn	2.026600	0.171618	0.172059
Zn10	Zn	1.341469	-0.639875	-0.639430
Zn11	Zn	1.674802	-0.306542	-0.306096
Zn12	Zn	2.008136	0.026791	0.027237
O13	O	1.436888	-0.576680	-0.576210
O14	O	1.770222	-0.243346	-0.242876
O15	O	2.103555	0.089987	0.090457
O16	O	1.667404	-0.552591	-0.649535
O17	O	2.000737	-0.219258	-0.316201
O18	O	2.334071	0.114076	0.017132
O19	O	1.509049	-0.626296	-0.399662
O20	O	1.842382	-0.292963	-0.066329
O21	O	2.175716	0.040371	0.267005
O22	O	1.389366	-0.382166	-0.510381
O23	O	1.722699	-0.048833	-0.177047
O24	O	2.056032	0.284500	0.156286
O25	O	1.667306	-0.650065	-0.552039
O26	O	2.000640	-0.316731	-0.218705
O27	O	2.333973	0.016602	0.114628
O28	O	1.509275	-0.400176	-0.625834
O29	O	1.842608	-0.066842	-0.292501
O30	O	2.175942	0.266491	0.040832
O31	O	1.389237	-0.510813	-0.381704
O32	O	1.722571	-0.177480	-0.048371
O33	O	2.055904	0.155854	0.284962
O34	O	1.213204	-0.498830	-0.498432
O35	O	1.546538	-0.165497	-0.165099
O36	O	1.879871	0.167837	0.168235
O37	O	1.357897	-0.629002	-0.757209
O38	O	1.691230	-0.295669	-0.423876
O39	O	2.024563	0.037664	-0.090543
O40	O	1.199639	-0.605233	-0.604832
O41	O	1.532972	-0.271900	-0.271499
O42	O	1.866306	0.061433	0.061834
O43	O	1.491371	-0.540608	-0.766263
O44	O	1.824705	-0.207275	-0.432929
O45	O	2.158038	0.126059	-0.099596
O46	O	1.491145	-0.766728	-0.540090
O47	O	1.824478	-0.433395	-0.206757
O48	O	2.157812	-0.100062	0.126577
O49	O	1.357768	-0.757649	-0.628533
O50	O	1.691101	-0.424316	-0.295200
O51	O	2.024435	-0.090982	0.038134
C52	C	1.169012	-0.548031	-0.547643
C53	C	1.502345	-0.214698	-0.214310
C54	C	1.835678	0.118635	0.119023
C55	C	1.054410	-0.535796	-0.535443
C56	C	1.387744	-0.202463	-0.202110
C57	C	1.721077	0.130870	0.131223
C58	C	0.996633	-0.583066	-0.582577
C59	C	1.329966	-0.249732	-0.249243
C60	C	1.663299	0.083601	0.084090
C61	C	0.878186	-0.570421	-0.569969
C62	C	1.211519	-0.237088	-0.236635
C63	C	1.544852	0.096246	0.096698
C64	C	1.422465	-0.792305	-0.585648
C65	C	1.755799	-0.458971	-0.252314
C66	C	2.089132	-0.125638	0.081019
C67	C	1.416388	-0.884561	-0.589723
C68	C	1.749721	-0.551228	-0.256390
C69	C	2.083054	-0.217895	0.076943
C70	C	1.468658	-1.099057	-0.555273
C71	C	1.801991	-0.765723	-0.221940
C72	C	2.135325	-0.432390	0.111394
C73	C	1.405309	-1.053473	-0.597175
C74	C	1.738643	-0.720139	-0.263842
C75	C	2.071976	-0.386806	0.069492
C76	C	1.411475	-0.959482	-0.593028
C77	C	1.744809	-0.626148	-0.259694
C78	C	2.078142	-0.292815	0.073639
C79	C	1.462494	-1.193056	-0.559419
C80	C	1.795827	-0.859723	-0.226086
C81	C	2.129160	-0.526390	0.107247
C82	C	1.705811	-0.605441	-0.604888
C83	C	2.039145	-0.272107	-0.271554
C84	C	2.372478	0.061226	0.061779
C85	C	1.820410	-0.617697	-0.617109
C86	C	2.153743	-0.284364	-0.283775
C87	C	2.487077	0.048970	0.049558
C88	C	1.422589	-0.586161	-0.792693
C89	C	1.755922	-0.252828	-0.459360
C90	C	2.089256	0.080506	-0.126026
C91	C	1.416496	-0.590201	-0.884946
C92	C	1.749829	-0.256868	-0.551612
C93	C	2.083162	0.076465	-0.218279
C94	C	1.451395	-0.360217	-0.566756
C95	C	1.784728	-0.026883	-0.233422
C96	C	2.118062	0.306450	0.099911
C97	C	1.457577	-0.267973	-0.562727
C98	C	1.790910	0.065360	-0.229394
C99	C	2.124243	0.398694	0.103940
C100	C	1.468665	-0.555589	-1.099430
C101	C	1.801999	-0.222255	-0.766096
C102	C	2.135332	0.111078	-0.432763
C103	C	1.405338	-0.597540	-1.053842
C104	C	1.738671	-0.264206	-0.720508
C105	C	2.072005	0.069127	-0.387175
C106	C	1.411548	-0.593455	-0.959859
C107	C	1.744881	-0.260122	-0.626526
C108	C	2.078215	0.073211	-0.293193
C109	C	1.462457	-0.559672	-1.193421
C110	C	1.795790	-0.226339	-0.860087
C111	C	2.129123	0.106995	-0.526754
C112	C	1.451196	-0.567182	-0.360572
C113	C	1.784529	-0.233849	-0.027238
C114	C	2.117862	0.099485	0.306095
C115	C	1.457504	-0.562929	-0.268331
C116	C	1.790838	-0.229596	0.065002
C117	C	2.124171	0.103737	0.398336
H118	H	1.034857	-0.632893	-0.632267
H119	H	1.368190	-0.299559	-0.298933
H120	H	1.701523	0.033774	0.034400
Cl121	Cl	1.559554	-0.495394	-1.050713
Cl122	Cl	1.892888	-0.162061	-0.717380
Cl123	Cl	2.226221	0.171273	-0.384046
Cl124	Cl	1.314421	-1.102200	-0.657367
Cl125	Cl	1.647755	-0.768867	-0.324033
Cl126	Cl	1.981088	-0.435533	0.009300
Cl127	Cl	1.314433	-0.657729	-1.102556
Cl128	Cl	1.647766	-0.324395	-0.769222
Cl129	Cl	1.981100	0.008938	-0.435889
Cl130	Cl	0.819185	-0.493477	-0.493253
Cl131	Cl	1.152518	-0.160144	-0.159920
Cl132	Cl	1.485851	0.173190	0.173413
Cl133	Cl	0.879408	-0.694625	-0.693841
Cl134	Cl	1.212742	-0.361292	-0.360508
Cl135	Cl	1.546075	-0.027958	-0.027174
H136	H	1.016186	-0.485963	-0.485759
H137	H	1.349520	-0.152630	-0.152426
H138	H	1.682853	0.180703	0.180907
H139	H	1.527518	-1.067497	-0.516287
H140	H	1.860852	-0.734163	-0.182953
H141	H	2.194185	-0.400830	0.150380
