data_functionalizedCrystal
_audit_creation_method	'MofGen! by Chris Wilmer'
_symmetry_space_group_name_H-M	'P1'
_symmetry_Int_Tables_number	1
_symmetry_cell_setting	triclinic
loop_
_symmetry_equiv_pos_as_xyz
  x,y,z
_cell_length_a	12.759401
_cell_length_b	21.295417
_cell_length_c	21.295395
_cell_angle_alpha	89.892576
_cell_angle_beta	89.933148
_cell_angle_gamma	90.030933
loop_
_atom_site_label
_atom_site_type_symbol
_atom_site_fract_x
_atom_site_fract_y
_atom_site_fract_z
Zn1	Zn	1.606640	-0.250141	-0.355861
Zn2	Zn	1.606338	-0.355550	-0.250586
Zn3	Zn	1.430794	-0.250300	-0.250611
Zn4	Zn	1.430882	-0.355377	-0.355823
O5	O	1.518664	-0.302842	-0.303220
O6	O	1.753621	-0.264130	-0.341901
O7	O	1.582889	-0.341728	-0.162499
O8	O	1.454210	-0.162189	-0.264599
O9	O	1.753399	-0.341574	-0.264556
O10	O	1.583404	-0.162072	-0.341925
O11	O	1.453917	-0.264400	-0.162518
O12	O	1.283785	-0.264232	-0.264563
O13	O	1.454360	-0.341278	-0.443918
O14	O	1.283850	-0.341432	-0.341862
O15	O	1.583489	-0.263962	-0.443945
O16	O	1.582974	-0.443617	-0.264520
O17	O	1.454067	-0.443489	-0.341837
C18	C	1.245696	-0.302831	-0.303211
C19	C	1.128920	-0.302842	-0.303222
C20	C	1.518526	-0.466394	-0.303185
C21	C	1.518563	-0.536362	-0.303191
C22	C	1.074174	-0.262589	-0.343558
C23	C	0.964450	-0.262596	-0.343562
C24	C	0.964227	-0.343112	-0.262893
C25	C	1.073949	-0.343102	-0.262886
C26	C	1.585745	-0.569274	-0.262973
C27	C	1.585794	-0.635016	-0.262988
C28	C	1.518643	-0.667844	-0.303213
C29	C	1.451457	-0.634924	-0.343439
C30	C	1.451417	-0.569183	-0.343428
N31	N	1.426743	-0.771104	-0.308009
N32	N	1.426783	-0.833555	-0.308016
C33	C	1.518761	-0.865919	-0.303249
N34	N	1.610698	-0.833472	-0.298464
N35	N	1.610656	-0.771014	-0.298454
C36	C	1.518679	-0.739130	-0.303230
C37	C	1.586001	-0.970116	-0.263044
C38	C	1.586052	-1.035860	-0.263063
C39	C	1.451706	-1.035767	-0.343511
C40	C	1.451664	-0.970024	-0.343496
C41	C	1.518810	-0.937203	-0.303259
C42	C	1.792697	-0.302853	-0.303229
C43	C	1.909474	-0.302858	-0.303233
C44	C	1.518968	-0.302583	-0.467411
C45	C	1.519098	-0.302472	-0.537379
C46	C	1.518831	-0.138652	-0.303269
C47	C	1.518902	-0.068683	-0.303290
C48	C	1.518421	-0.303055	-0.139668
C49	C	1.518495	-0.302988	-0.069700
C50	C	1.450894	-0.262995	-0.036873
C51	C	1.450972	-0.262927	0.028870
C52	C	1.518640	-0.302863	0.061782
C53	C	1.586253	-0.342859	0.028947
C54	C	1.586181	-0.342921	-0.036794
N55	N	1.527421	-0.357831	0.165148
N56	N	1.527483	-0.357770	0.227599
C57	C	1.518863	-0.302676	0.259856
N58	N	1.510158	-0.247645	0.227303
N59	N	1.510090	-0.247707	0.164846
C60	C	1.518726	-0.302799	0.133067
C61	C	1.451344	-0.262606	0.363969
C62	C	1.451429	-0.262536	0.429713
C63	C	1.586704	-0.342474	0.429789
C64	C	1.586625	-0.342538	0.364046
C65	C	1.518939	-0.302604	0.331141
H66	H	0.919881	-0.229817	-0.376407
O67	O	1.133461	-0.219161	-0.387058
H68	H	1.218956	-0.225919	-0.380282
O69	O	1.379281	-1.071168	-0.386899
H70	H	1.332559	-1.037234	-0.414866
H71	H	1.396784	-0.661657	-0.376192
H72	H	0.919457	-0.375892	-0.230054
O73	O	1.133009	-0.386517	-0.219378
H74	H	1.076353	-0.414520	-0.191336
H75	H	1.396954	-0.943226	-0.376243
H76	H	1.395780	-0.230477	-0.063661
O77	O	1.659703	-0.385540	0.465281
H78	H	1.706705	-0.413358	0.431406
H79	H	1.396382	-0.229965	0.456440
H80	H	1.395925	-0.230357	0.055603
H81	H	1.640422	-0.542553	-0.230212
O82	O	1.659510	-0.385690	0.328633
H83	H	1.706567	-0.413457	0.362562
H84	H	1.641350	-0.375374	0.055748
O85	O	1.378935	-0.533679	-0.386796
H86	H	1.332239	-0.567548	-0.414767
H87	H	1.641231	-0.375489	-0.063522
H88	H	1.396237	-0.230085	0.337176
H89	H	1.640505	-0.661818	-0.230237
O90	O	1.658436	-0.934704	-0.219665
H91	H	1.640423	-0.947430	-0.170249
O92	O	1.658514	-1.071363	-0.219682
H93	H	1.705186	-1.037493	-0.191699
