data_functionalizedCrystal
_audit_creation_method	'MofGen! by Chris Wilmer'
_symmetry_space_group_name_H-M	'P1'
_symmetry_Int_Tables_number	1
_symmetry_cell_setting	triclinic
loop_
_symmetry_equiv_pos_as_xyz
  x,y,z
_cell_length_a	13.262390
_cell_length_b	15.625325
_cell_length_c	12.376457
_cell_angle_alpha	118.870109
_cell_angle_beta	63.168449
_cell_angle_gamma	89.232170
loop_
_atom_site_label
_atom_site_type_symbol
_atom_site_fract_x
_atom_site_fract_y
_atom_site_fract_z
O1	O	1.510480	0.020794	-0.549891
O2	O	1.180178	0.055161	-0.434250
O3	O	1.367501	-0.105216	-0.557584
O4	O	1.323157	0.181171	-0.426557
O5	O	1.320691	-0.065174	-0.338766
O6	O	1.133367	0.095203	-0.215432
O7	O	1.463669	0.060836	-0.331073
Zn8	Zn	1.291086	0.084377	-0.238511
Zn9	Zn	1.352761	0.031620	-0.526813
O10	O	1.276346	0.221213	-0.207739
C11	C	1.114750	0.076938	-0.311201
C12	C	0.989535	0.082159	-0.270563
C13	C	0.738657	0.009553	-0.633148
C14	C	0.856304	0.004642	-0.671334
C15	C	0.889618	0.024021	-0.571144
C16	C	0.805273	0.048312	-0.432762
C17	C	0.687617	0.053215	-0.394576
C18	C	0.838577	0.067683	-0.332573
C19	C	0.754232	0.091974	-0.194191
C20	C	0.636588	0.096877	-0.156011
C21	C	0.603274	0.077498	-0.256201
C22	C	0.956234	0.062780	-0.370759
C23	C	0.905193	0.106442	-0.132187
C24	C	0.787546	0.111353	-0.094001
C25	C	1.346727	-0.121669	-0.463938
C26	C	1.354553	-0.230351	-0.510901
C27	C	1.252739	-0.478652	-0.068960
C28	C	1.260103	-0.580780	-0.113113
C29	C	1.311133	-0.624421	-0.351655
C30	C	1.303768	-0.522294	-0.307520
C31	C	1.274571	-0.449417	-0.166171
C32	C	1.325600	-0.493059	-0.404731
C33	C	1.318242	-0.390943	-0.360601
C34	C	1.289050	-0.318061	-0.219260
C35	C	1.267213	-0.347300	-0.122041
C36	C	1.354805	-0.565940	-0.546082
C37	C	1.376637	-0.536705	-0.643294
C38	C	1.369271	-0.434585	-0.599161
C39	C	1.340079	-0.361703	-0.457820
C40	C	1.391108	-0.405345	-0.696380
C41	C	1.383750	-0.303228	-0.652250
C42	C	1.332721	-0.259586	-0.413690
C43	C	1.529098	0.039059	-0.454125
C44	C	1.654315	0.033836	-0.494772
C45	C	1.297121	0.237666	-0.301388
C46	C	1.289297	0.346346	-0.254434
N47	N	1.249003	0.120381	-0.041755
N48	N	1.394854	-0.004393	-0.723575
C49	C	1.492545	-0.087989	0.152938
C50	C	1.521992	-0.113188	0.015215
C51	C	1.453747	-0.054798	0.000965
C52	C	1.356050	0.028796	0.124453
C53	C	1.326605	0.054002	0.262190
C54	C	1.287807	0.087193	0.110217
C55	C	1.190110	0.170787	0.233705
C56	C	1.160669	0.195989	0.371428
C57	C	1.228914	0.137599	0.385677
C58	C	1.317253	0.061987	-0.027520
C59	C	1.151313	0.203978	0.081732
C60	C	1.121865	0.229177	0.219456
H61	H	0.718857	0.131130	0.018671
O62	O	1.362774	-0.676082	-0.593663
H63	H	1.453492	-0.725529	-0.686046
O64	O	1.077692	0.266968	0.066391
H65	H	0.985145	0.264304	0.116497
O66	O	0.545611	0.123073	-0.006761
H67	H	0.588534	0.135735	0.056499
O68	O	1.301223	-0.180973	-0.261230
H69	H	1.374394	-0.146525	-0.264706
O70	O	1.016502	0.319347	0.352648
H71	H	1.007504	0.327064	0.450809
H72	H	1.024896	0.043004	-0.483429
O73	O	0.702735	-0.011356	-0.741208
H74	H	0.634123	0.057169	-0.696938
H75	H	1.204936	0.158113	0.497821
O76	O	1.485488	-0.081983	-0.147576
H77	H	1.564877	-0.149928	-0.231051
O78	O	0.941099	0.127371	-0.024097
H79	H	0.922531	0.071447	0.007845
H80	H	1.400413	-0.596055	-0.758382
H81	H	1.283064	-0.234912	-0.183334
H82	H	1.548107	-0.135518	0.164554
H83	H	0.507478	0.081499	-0.225115
O84	O	1.627349	-0.203351	-0.117972
H85	H	1.669849	-0.239727	-0.084929
H86	H	1.414891	-0.464697	-0.811470
H87	H	1.242317	-0.604575	-0.033940
O88	O	1.016504	0.018733	-0.612316
H89	H	1.020263	0.094202	-0.538291
H90	H	1.243400	-0.287952	-0.006927
H91	H	1.334909	-0.683771	-0.466744
H92	H	1.401528	-0.279426	-0.731409
O93	O	0.947272	-0.021549	-0.820573
H94	H	0.904343	-0.034191	-0.883822
O95	O	1.221247	-0.400036	0.083496
H96	H	1.207304	-0.437518	0.143686
O97	O	1.055331	0.286188	0.504605
H98	H	0.974069	0.273872	0.501861
H99	H	1.396798	-0.006076	-0.128054
