data_functionalizedCrystal
_audit_creation_method	'MofGen! by Chris Wilmer'
_symmetry_space_group_name_H-M	'P1'
_symmetry_Int_Tables_number	1
_symmetry_cell_setting	triclinic
loop_
_symmetry_equiv_pos_as_xyz
  x,y,z
_cell_length_a	8.597366
_cell_length_b	15.995292
_cell_length_c	7.088929
_cell_angle_alpha	83.780829
_cell_angle_beta	103.954530
_cell_angle_gamma	84.406091
loop_
_atom_site_label
_atom_site_type_symbol
_atom_site_fract_x
_atom_site_fract_y
_atom_site_fract_z
O1	O	2.101317	0.114987	0.187172
O2	O	1.636630	0.128658	0.110623
O3	O	1.881724	-0.000078	0.150995
O4	O	1.856223	0.243723	0.146800
O5	O	1.914478	-0.017321	0.474366
O6	O	1.669384	0.111415	0.433994
O7	O	2.134071	0.097744	0.510543
Cu8	Cu	1.904718	0.103005	0.501794
Cu9	Cu	1.865983	0.123397	0.119371
O10	O	1.888977	0.226480	0.470171
C11	C	1.593544	0.119529	0.262513
C12	C	1.416364	0.118008	0.233325
C13	C	1.897063	-0.039894	0.312505
C14	C	1.893949	-0.132844	0.311977
C15	C	1.882512	-0.470575	0.310111
C16	C	2.059487	-0.447431	0.339975
C17	C	2.062775	-0.350719	0.339793
C18	C	1.888187	-0.303023	0.311038
C19	C	1.781041	-0.322212	0.111814
C20	C	1.778896	-0.418993	0.111316
C21	C	1.812532	-0.438456	0.478454
C22	C	1.819334	-0.342098	0.481967
C23	C	1.891385	-0.208328	0.311554
C24	C	1.879308	-0.565268	0.309581
C25	C	2.177156	0.106873	0.358649
C26	C	2.354335	0.108395	0.387824
C27	C	1.873638	0.266296	0.308657
C28	C	1.876750	0.359246	0.309171
N29	N	1.931975	0.088662	0.770772
N30	N	1.838739	0.137733	-0.149604
H31	H	1.436788	0.101328	0.542449
N32	N	2.053201	0.024869	0.893191
N33	N	2.071479	0.015256	1.074905
H34	H	2.157089	-0.029799	1.161366
H35	H	2.119019	-0.325295	0.218672
N36	N	1.312932	0.126857	0.039368
N37	N	1.164320	0.125558	0.015121
H38	H	1.091259	0.131807	-0.121864
N39	N	1.649339	-0.455970	0.453089
N40	N	1.584682	-0.491944	0.311765
H41	H	1.469430	-0.504316	0.293835
H42	H	2.145448	-0.338803	0.483567
H43	H	1.648343	-0.433002	0.081587
H44	H	1.897571	-0.330865	0.629181
N45	N	1.717530	0.201528	0.727989
N46	N	1.699258	0.211140	0.546275
H47	H	1.613653	0.256197	0.459811
N48	N	2.161847	-0.491483	0.520188
N49	N	2.105568	-0.540452	0.628719
H50	H	2.177860	-0.571571	0.756000
H51	H	2.113957	-0.469478	0.219464
H52	H	1.826166	-0.438494	-0.016631
H53	H	1.651872	-0.289884	0.083789
H54	H	1.828538	-0.294869	-0.015491
H55	H	1.882419	-0.474049	0.627598
H56	H	1.693032	-0.309630	0.472131
