data_functionalizedCrystal
_audit_creation_method	'MofGen! by Chris Wilmer'
_symmetry_space_group_name_H-M	'P1'
_symmetry_Int_Tables_number	1
_symmetry_cell_setting	triclinic
loop_
_symmetry_equiv_pos_as_xyz
  x,y,z
_cell_length_a	17.077404
_cell_length_b	13.031981
_cell_length_c	17.077396
_cell_angle_alpha	82.787914
_cell_angle_beta	89.981638
_cell_angle_gamma	97.189720
loop_
_atom_site_label
_atom_site_type_symbol
_atom_site_fract_x
_atom_site_fract_y
_atom_site_fract_z
Zn1	Zn	1.160409	-0.416167	-0.404091
Zn2	Zn	1.143664	-0.590961	-0.256139
Zn3	Zn	1.029138	-0.416196	-0.272839
Zn4	Zn	1.012463	-0.590892	-0.387372
O5	O	1.086418	-0.503554	-0.330111
O6	O	1.268033	-0.439370	-0.384473
O7	O	1.128442	-0.567820	-0.148504
O8	O	1.060537	-0.269929	-0.304236
O9	O	1.255730	-0.567791	-0.275774
O10	O	1.156981	-0.269907	-0.400666
O11	O	1.044300	-0.439421	-0.160773
O12	O	0.917080	-0.439354	-0.288024
O13	O	1.032118	-0.567673	-0.499441
O14	O	0.904830	-0.567702	-0.372171
O15	O	1.140813	-0.439303	-0.511725
O16	O	1.112274	-0.737215	-0.259562
O17	O	1.015881	-0.737165	-0.355978
C18	C	0.882473	-0.503525	-0.330096
C19	C	0.795222	-0.503537	-0.330106
C20	C	0.760627	-0.436787	-0.386771
C21	C	0.678646	-0.436794	-0.386774
C22	C	0.631261	-0.503557	-0.330114
C23	C	0.665861	-0.570309	-0.273443
C24	C	0.747842	-0.570297	-0.273438
C25	C	0.494989	-0.570333	-0.273461
C26	C	0.413003	-0.570348	-0.273467
C27	C	0.425794	-0.436830	-0.386797
C28	C	0.507774	-0.436818	-0.386791
C29	C	0.542369	-0.503572	-0.330121
C30	C	1.060472	-0.775114	-0.304161
C31	C	1.049444	-0.891289	-0.293085
C32	C	1.092216	-0.942989	-0.335907
C33	C	1.080819	-1.063062	-0.324461
C34	C	1.291160	-0.503585	-0.330126
C35	C	1.378408	-0.503598	-0.330132
C36	C	1.086473	-0.503477	-0.534862
C37	C	1.086497	-0.503444	-0.622115
C38	C	1.112487	-0.230934	-0.356179
C39	C	1.123596	-0.114759	-0.367288
C40	C	1.143096	-0.436596	-0.669503
C41	C	1.143109	-0.436562	-0.751487
C42	C	1.086525	-0.503381	-0.786081
C43	C	1.029919	-0.570232	-0.738687
C44	C	1.029904	-0.570261	-0.656705
C45	C	1.029957	-0.570169	-0.909563
C46	C	1.029973	-0.570142	-0.991550
C47	C	1.143162	-0.436470	-1.004345
C48	C	1.143147	-0.436499	-0.922363
C49	C	1.086542	-0.503351	-0.874975
C50	C	1.086416	-0.503556	-0.126163
C51	C	1.086573	-0.503294	-0.038938
H52	H	0.546353	-0.382460	-0.432932
F53	F	1.021919	-1.121388	-0.265466
H54	H	0.374424	-0.624712	-0.227330
H55	H	1.168651	-1.070133	-0.412428
F56	F	0.641832	-0.365751	-0.447086
F57	F	0.388975	-0.365783	-0.447109
H58	H	1.004385	-0.935920	-0.247955
H59	H	0.523153	-0.624689	-0.227312
H60	H	0.627274	-0.624664	-0.227307
F61	F	1.203325	-0.365482	-0.632693
F62	F	1.203374	-0.365449	-0.801914
F63	F	1.203374	-0.365388	-0.885547
F64	F	1.203406	-0.365321	-1.054780
F65	F	0.784659	-0.641342	-0.213127
F66	F	0.969744	-0.641250	-1.028367
H67	H	1.137268	-0.898361	-0.381044
F68	F	0.969695	-0.641342	-0.775507
F69	F	0.969710	-0.641319	-0.859130
H70	H	0.983807	-0.624685	-0.618123
H71	H	0.799203	-0.382424	-0.432912
