data_functionalizedCrystal
_audit_creation_method	'MofGen! by Chris Wilmer'
_symmetry_space_group_name_H-M	'P1'
_symmetry_Int_Tables_number	1
_symmetry_cell_setting	triclinic
loop_
_symmetry_equiv_pos_as_xyz
  x,y,z
_cell_length_a	10.654550
_cell_length_b	11.295483
_cell_length_c	10.654550
_cell_angle_alpha	85.865008
_cell_angle_beta	84.484931
_cell_angle_gamma	94.141852
loop_
_atom_site_label
_atom_site_type_symbol
_atom_site_fract_x
_atom_site_fract_y
_atom_site_fract_z
O1	O	1.676220	0.098935	0.168022
O2	O	1.310743	0.098957	0.184827
O3	O	1.501884	0.098938	-0.006314
O4	O	1.485079	0.098954	0.359163
O5	O	1.485095	-0.099111	0.010448
O6	O	1.293954	-0.099092	0.201589
O7	O	1.659431	-0.099114	0.184785
Cu8	Cu	1.475160	-0.117186	0.194717
Cu9	Cu	1.495014	0.117030	0.174894
O10	O	1.468290	-0.099095	0.375925
C11	C	1.255551	-0.000065	0.191974
C12	C	1.116108	-0.000057	0.188281
N13	N	1.461204	-0.281921	0.208659
C14	C	1.036623	-0.000055	0.300822
C15	C	0.905600	-0.000076	0.297348
C16	C	0.933562	-0.000095	0.068780
C17	C	1.064581	-0.000082	0.072257
C18	C	1.609437	-0.531225	0.060510
C19	C	1.598900	-0.655888	0.071055
C20	C	1.429588	-0.655911	0.240287
C21	C	1.440125	-0.531249	0.229742
C22	C	1.530054	-0.468910	0.139852
C23	C	1.540596	-0.344245	0.129314
C24	C	1.371279	-0.344271	0.298539
C25	C	1.360741	-0.468934	0.309084
C26	C	1.714623	-0.000089	0.177638
C27	C	1.854066	-0.000090	0.181330
C28	C	1.492255	-0.000086	-0.044731
C29	C	1.488564	-0.000084	-0.184174
N30	N	1.508979	0.281765	0.160942
C31	C	1.601105	-0.000090	-0.263659
C32	C	1.597629	-0.000075	-0.394682
C33	C	1.369062	-0.000053	-0.366720
C34	C	1.372539	-0.000059	-0.235701
C35	C	1.477919	-0.000068	0.414342
C36	C	1.481611	-0.000063	0.553785
H37	H	1.078571	-0.000043	0.395297
H38	H	1.682669	-0.480468	-0.012673
F39	F	0.878712	-0.000117	-0.054695
H40	H	1.129302	-0.000087	-0.019394
F41	F	1.683388	-0.722205	-0.013394
F42	F	1.252752	-0.000044	-0.151102
H43	H	1.695579	-0.000107	-0.221711
F44	F	1.333873	-0.722270	0.335938
H45	H	1.613824	-0.293490	0.056124
H46	H	1.287519	-0.519704	0.382268
F47	F	1.286796	-0.277938	0.382990
H48	H	1.274598	-0.000035	-0.408690
F49	F	0.821011	-0.000076	0.417130
F50	F	1.717412	-0.000079	-0.479271
