data_functionalizedCrystal
_audit_creation_method	'MofGen! by Chris Wilmer'
_symmetry_space_group_name_H-M	'P1'
_symmetry_Int_Tables_number	1
_symmetry_cell_setting	triclinic
loop_
_symmetry_equiv_pos_as_xyz
  x,y,z
_cell_length_a	13.262522
_cell_length_b	23.532357
_cell_length_c	11.804365
_cell_angle_alpha	101.747256
_cell_angle_beta	62.659257
_cell_angle_gamma	83.659636
loop_
_atom_site_label
_atom_site_type_symbol
_atom_site_fract_x
_atom_site_fract_y
_atom_site_fract_z
O1	O	1.519142	0.008373	-0.591013
O2	O	1.190549	0.029018	-0.484602
O3	O	1.364778	-0.064557	-0.541000
O4	O	1.344913	0.101948	-0.534616
O5	O	1.318911	-0.039946	-0.328097
O6	O	1.144682	0.053629	-0.271699
O7	O	1.473275	0.032985	-0.378110
Cu8	Cu	1.304790	0.045554	-0.305465
Cu9	Cu	1.359034	0.016448	-0.557247
O10	O	1.299046	0.126559	-0.321712
C11	C	1.125585	0.042430	-0.364539
C12	C	1.000347	0.045720	-0.323981
C13	C	0.916513	0.060683	-0.188867
C14	C	0.798845	0.063769	-0.150751
C15	C	0.764997	0.051898	-0.247745
C16	C	0.848830	0.036939	-0.382862
C17	C	0.966512	0.033847	-0.420983
C18	C	0.814996	0.025062	-0.479861
C19	C	0.898829	0.010103	-0.614978
C20	C	1.016498	0.007013	-0.653092
C21	C	1.050345	0.018884	-0.556097
C22	C	0.697315	0.028154	-0.441741
C23	C	0.747314	0.001318	-0.673856
C24	C	0.864982	-0.001768	-0.711972
C25	C	1.341346	-0.073451	-0.434383
C26	C	1.339849	-0.136620	-0.433887
C27	C	1.355482	-0.541751	-0.546971
C28	C	1.354063	-0.601106	-0.546518
O29	O	1.374554	-0.643206	-0.644966
N30	N	1.328356	-0.617378	-0.430238
C31	C	1.304056	-0.574292	-0.314399
O32	O	1.282059	-0.593583	-0.215452
C33	C	1.305468	-0.514938	-0.314851
C34	C	1.331187	-0.498670	-0.431142
C35	C	1.381199	-0.525482	-0.663252
C36	C	1.382620	-0.466132	-0.663705
C37	C	1.358325	-0.423051	-0.547877
C38	C	1.332609	-0.439320	-0.431595
C39	C	1.281159	-0.471852	-0.199011
C40	C	1.282572	-0.412495	-0.199472
C41	C	1.308292	-0.396227	-0.315764
C42	C	1.309735	-0.336889	-0.316220
N43	N	1.335441	-0.320616	-0.432500
C44	C	1.359736	-0.363697	-0.548328
C45	C	1.301092	-0.698940	-0.313459
C46	C	1.299688	-0.758293	-0.313009
C47	C	1.349693	-0.785103	-0.545127
C48	C	1.351105	-0.725749	-0.545579
C49	C	1.326798	-0.682667	-0.429739
C50	C	1.362720	-0.239057	-0.549271
C51	C	1.364144	-0.179701	-0.549715
C52	C	1.314133	-0.152897	-0.317596
C53	C	1.312715	-0.212248	-0.317153
C54	C	1.337007	-0.255328	-0.433000
O55	O	1.289251	-0.294756	-0.217820
O56	O	1.381715	-0.344395	-0.647254
C57	C	1.538240	0.019572	-0.498176
C58	C	1.663480	0.016281	-0.538742
C59	C	1.322478	0.135453	-0.428332
C60	C	1.323977	0.198621	-0.428836
N61	N	1.266646	0.066025	-0.128377
N62	N	1.397187	-0.004028	-0.734338
C63	C	1.488784	-0.053197	0.173666
C64	C	1.517639	-0.068685	0.039665
C65	C	1.454893	-0.035009	-0.002353
C66	C	1.363288	0.014158	0.089646
C67	C	1.334436	0.029651	0.223659
C68	C	1.300545	0.047839	0.047639
C69	C	1.208940	0.097006	0.139638
C70	C	1.180093	0.112496	0.273637
C71	C	1.242839	0.078820	0.315654
C72	C	1.329397	0.032346	-0.086374
C73	C	1.175049	0.115194	-0.036381
C74	C	1.146194	0.130682	0.097620
H75	H	1.385092	-0.166461	-0.644419
Br76	Br	1.414174	-0.583941	-0.820470
H77	H	1.084756	-0.005176	-0.763113
Br78	Br	0.583556	0.048453	-0.258374
H79	H	1.071608	0.170716	0.172541
Br80	Br	1.268109	-0.640477	-0.156235
Br81	Br	1.573944	-0.098889	0.230687
H82	H	1.219343	0.091429	0.424770
Br83	Br	0.685078	0.084078	0.032614
Br84	Br	1.281166	-0.094419	-0.160409
H85	H	1.105512	0.152535	0.348541
Br86	Br	1.089896	0.160904	-0.093396
H87	H	0.944086	0.070342	-0.109909
Br88	Br	1.210041	0.014706	-0.607822
H89	H	1.403981	-0.007686	-0.161267
H90	H	0.669185	0.054413	-0.216703
H91	H	1.592223	-0.108716	-0.035236
Br92	Br	0.701389	-0.014791	-0.805501
Br93	Br	0.978767	-0.022071	-0.895341
Br94	Br	1.494052	-0.056030	-0.184215
H95	H	1.382496	-0.274126	-0.643603
Br96	Br	1.417519	-0.444064	-0.821535
Br97	Br	1.386011	-0.703678	-0.703408
H98	H	1.369472	-0.820190	-0.639440
H99	H	1.278762	-0.771534	-0.218318
H100	H	1.262762	-0.377417	-0.105134
Br101	Br	1.246248	-0.493913	-0.041175
Br102	Br	1.277836	-0.234329	-0.159337
