data_functionalizedCrystal
_audit_creation_method	'MofGen! by Chris Wilmer'
_symmetry_space_group_name_H-M	'P1'
_symmetry_Int_Tables_number	1
_symmetry_cell_setting	triclinic
loop_
_symmetry_equiv_pos_as_xyz
  x,y,z
_cell_length_a	12.759395
_cell_length_b	12.759394
_cell_length_c	12.759387
_cell_angle_alpha	89.968340
_cell_angle_beta	90.020509
_cell_angle_gamma	89.983626
loop_
_atom_site_label
_atom_site_type_symbol
_atom_site_fract_x
_atom_site_fract_y
_atom_site_fract_z
Zn1	Zn	1.606268	0.418168	0.593999
Zn2	Zn	1.606158	0.593885	0.418317
Zn3	Zn	1.430566	0.418225	0.418336
Zn4	Zn	1.430558	0.593810	0.593956
O5	O	1.518387	0.506022	0.506152
O6	O	1.753274	0.441485	0.570704
O7	O	1.582823	0.570639	0.271298
O8	O	1.453922	0.271197	0.441664
O9	O	1.753194	0.570583	0.441631
O10	O	1.583010	0.271155	0.570723
O11	O	1.453816	0.441582	0.271312
O12	O	1.283544	0.441510	0.441622
O13	O	1.453909	0.570456	0.740983
O14	O	1.283538	0.570511	0.570649
O15	O	1.583002	0.441412	0.741014
O16	O	1.582815	0.740896	0.441590
O17	O	1.453802	0.740841	0.570631
C18	C	1.245420	0.506009	0.506134
C19	C	1.128643	0.506029	0.506151
C20	C	1.518467	0.505919	0.780185
C21	C	1.518500	0.505875	0.896962
C22	C	1.518324	0.778990	0.506126
C23	C	1.518393	0.895766	0.506151
C24	C	1.128676	0.640576	0.640290
C25	C	1.073831	0.707857	0.707362
C26	C	0.964109	0.707870	0.707375
C27	C	0.909230	0.640592	0.640310
C28	C	0.964074	0.573310	0.573238
C29	C	1.073799	0.573307	0.573230
C30	C	0.964042	0.438760	0.439106
C31	C	1.073764	0.438751	0.439086
C32	C	0.909162	0.371482	0.372042
C33	C	0.964007	0.304204	0.304962
C34	C	1.073735	0.304195	0.304951
C35	C	1.128608	0.371469	0.372014
C36	C	1.792421	0.506036	0.506170
C37	C	1.909197	0.506042	0.506178
C38	C	1.518479	0.231989	0.506200
C39	C	1.518518	0.115212	0.506221
C40	C	1.652835	0.895770	0.371881
C41	C	1.720083	0.950633	0.304758
C42	C	1.720145	1.060354	0.304786
C43	C	1.652953	1.115216	0.371947
C44	C	1.585705	1.060353	0.439070
C45	C	1.585648	0.950629	0.439032
C46	C	1.451270	1.060349	0.573343
C47	C	1.451202	0.950628	0.573311
C48	C	1.384079	1.115211	0.640504
C49	C	1.316823	1.060348	0.707623
C50	C	1.316764	0.950620	0.707591
C51	C	1.383954	0.895765	0.640434
C52	C	1.518369	0.506049	0.233184
C53	C	1.518538	0.505797	0.116408
C54	C	1.652934	0.371511	0.897015
C55	C	1.720166	0.304313	0.951902
C56	C	1.720192	0.304275	1.061624
C57	C	1.652976	0.371439	1.116461
C58	C	1.585744	0.438637	1.061574
C59	C	1.585728	0.438671	0.951849
C60	C	1.451307	0.572995	1.061521
C61	C	1.451285	0.573040	0.951799
C62	C	1.384091	0.640159	1.116358
C63	C	1.316863	0.707364	1.061471
C64	C	1.316841	0.707400	0.951742
C65	C	1.384053	0.640238	0.896912
H66	H	1.218017	0.640580	0.640278
H67	H	1.118526	0.762632	0.761966
H68	H	1.774890	0.249627	0.907242
O69	O	1.785250	0.897178	0.239553
C70	C	1.770798	0.788570	0.253933
H71	H	1.689696	0.773621	0.288275
H72	H	1.833077	0.757334	0.309920
C73	C	1.880050	0.750680	0.105442
C74	C	1.780436	0.732320	0.147613
H75	H	1.886000	0.715981	0.039861
H76	H	1.889791	0.823851	0.095755
H77	H	1.931938	0.724650	0.152108
H78	H	1.728551	0.758362	0.100954
H79	H	1.770687	0.659151	0.157290
O80	O	0.802580	0.371326	0.372146
C81	C	0.765947	0.270668	0.399290
H82	H	0.829202	0.227285	0.445170
H83	H	0.746454	0.225058	0.324994
C84	C	0.589124	0.334213	0.410975
C85	C	0.666812	0.280932	0.467333
H86	H	0.527971	0.340543	0.452943
H87	H	0.613803	0.402028	0.392684
H88	H	0.572893	0.296197	0.349064
H89	H	0.683052	0.318954	0.529235
H90	H	0.642134	0.213123	0.485637
H91	H	1.262126	1.105025	0.762305
O92	O	1.384119	0.640317	1.222941
C93	C	1.411087	0.740997	1.259575
H94	H	1.393094	0.801528	1.196326
H95	H	1.498265	0.743234	1.279053
C96	C	1.369188	0.691840	1.436402
C97	C	1.347080	0.766186	1.358722
H98	H	1.329710	0.707377	1.497563
H99	H	1.351023	0.624008	1.411722
H100	H	1.441837	0.693712	1.452621
H101	H	1.274435	0.764304	1.342495
H102	H	1.365232	0.834018	1.383401
O103	O	1.384235	1.221793	0.640705
C104	C	1.411171	1.258342	0.741436
H105	H	1.456921	1.195035	0.784885
H106	H	1.336782	1.277835	0.786901
C107	C	1.423090	1.435205	0.677995
C108	C	1.479288	1.357453	0.731356
H109	H	1.465103	1.496344	0.671779
H110	H	1.404938	1.410583	0.610131
H111	H	1.361102	1.451436	0.715890
H112	H	1.541267	1.341214	0.693455
H113	H	1.497451	1.382075	0.799214
O114	O	1.251343	0.897492	0.772833
C115	C	1.192081	0.969447	0.832133
H116	H	1.188502	1.047698	0.789117
H117	H	1.230537	0.981018	0.911955
C118	C	1.084630	0.830599	0.900023
C119	C	1.080227	0.926707	0.847186
H120	H	1.015634	0.804235	0.909314
H121	H	1.124557	0.782121	0.860075
H122	H	1.116681	0.840256	0.966536
H123	H	1.048188	0.917047	0.780670
H124	H	1.040291	0.975183	0.887123
H125	H	1.653018	1.204557	0.371973
O126	O	1.127171	0.238870	0.239894
C127	C	1.235783	0.253303	0.254236
H128	H	1.250805	0.287816	0.335249
H129	H	1.266876	0.309167	0.191809
C130	C	1.273681	0.104593	0.145294
C131	C	1.292132	0.146975	0.244800
H132	H	1.308441	0.039007	0.139469
H133	H	1.200507	0.094871	0.135628
H134	H	1.299592	0.151157	0.093283
H135	H	1.266209	0.100418	0.296808
H136	H	1.365303	0.156686	0.254475
O137	O	1.785597	0.238966	1.114784
C138	C	1.844895	0.179670	1.042863
H139	H	1.848503	0.222724	0.964637
H140	H	1.806453	0.099876	1.031210
C141	C	1.952294	0.111652	1.181791
C142	C	1.956733	0.164535	1.085715
H143	H	2.021279	0.102311	1.208225
H144	H	1.912341	0.151597	1.230247
H145	H	1.920254	0.045162	1.172067
H146	H	1.988760	0.231028	1.095443
H147	H	1.996694	0.124601	1.037262
H148	H	1.652930	0.371545	0.807674
O149	O	1.251629	0.772746	1.114622
C150	C	1.274560	0.877474	1.087822
H151	H	1.314932	0.879692	1.008164
H152	H	1.328572	0.912839	1.149581
C153	C	1.122524	0.938380	1.180565
C154	C	1.172103	0.941105	1.082723
H155	H	1.059326	0.977633	1.177424
H156	H	1.107077	0.867824	1.198624
H157	H	1.167545	0.967850	1.232021
H158	H	1.127087	0.911624	1.031272
H159	H	1.187540	1.011658	1.064655
H160	H	0.919455	0.762651	0.761996
H161	H	0.819889	0.640599	0.640336
H162	H	0.919315	0.249426	0.250369
H163	H	1.217949	0.371471	0.372008
H164	H	1.652778	0.806429	0.371837
H165	H	1.774909	1.105023	0.250135
H166	H	1.383905	0.806424	0.640394
H167	H	1.652994	0.371393	1.205802
H168	H	1.262082	0.762110	0.907060
H169	H	1.384046	0.640265	0.807571
