data_functionalizedCrystal
_audit_creation_method	'MofGen! by Chris Wilmer'
_symmetry_space_group_name_H-M	'P1'
_symmetry_Int_Tables_number	1
_symmetry_cell_setting	triclinic
loop_
_symmetry_equiv_pos_as_xyz
  x,y,z
_cell_length_a	11.792241
_cell_length_b	16.992695
_cell_length_c	16.053802
_cell_angle_alpha	92.741074
_cell_angle_beta	87.405349
_cell_angle_gamma	87.430819
loop_
_atom_site_label
_atom_site_type_symbol
_atom_site_fract_x
_atom_site_fract_y
_atom_site_fract_z
O1	O	-1.520188	-0.104234	0.069348
O2	O	-1.190755	-0.115313	0.069368
O3	O	-1.354150	0.004375	0.069352
O4	O	-1.356793	-0.223921	0.069365
O5	O	-1.345154	-0.002186	-0.069506
O6	O	-1.181759	-0.121873	-0.069490
O7	O	-1.511192	-0.110794	-0.069510
Zn8	Zn	-1.345047	-0.117375	-0.091547
Zn9	Zn	-1.356900	-0.108732	0.091405
O10	O	-1.347796	-0.230482	-0.069493
C11	C	-1.346255	0.030321	-0.000077
C12	C	-1.336117	0.117409	-0.000076
C13	C	-1.143909	-0.117897	-0.000059
C14	C	-1.017725	-0.115813	-0.000051
C15	C	-1.558038	-0.108210	-0.000081
C16	C	-1.684222	-0.110293	-0.000083
C17	C	-0.786698	-0.111984	-0.000076
C18	C	-0.915258	-0.114112	-0.000062
C19	C	-1.355692	-0.256428	-0.000063
C20	C	-1.365831	-0.343515	-0.000058
N21	N	-1.336966	-0.123274	-0.216406
C22	C	-1.433934	0.167233	-0.000083
C23	C	-1.424402	0.249061	-0.000074
C24	C	-1.317051	0.281062	-0.000065
C25	C	-1.219227	0.231231	-0.000056
C26	C	-1.228760	0.149406	-0.000059
C27	C	-1.277540	0.524828	-0.000051
C28	C	-1.268013	0.606660	-0.000051
C29	C	-1.473190	0.624484	-0.000068
C30	C	-1.482713	0.542656	-0.000076
C31	C	-1.384889	0.492833	-0.000062
N32	N	-1.307305	0.364703	-0.000059
N33	N	-1.394636	0.409194	-0.000062
C34	C	-1.406520	-0.072365	-0.260107
C35	C	-1.400878	-0.076499	-0.347513
C36	C	-1.325688	-0.131546	-0.391217
C37	C	-1.256126	-0.182457	-0.347510
C38	C	-1.261763	-0.178319	-0.260105
C39	C	-1.301064	-0.149600	-0.652624
C40	C	-1.295435	-0.153735	-0.740035
C41	C	-1.440186	-0.047776	-0.740032
C42	C	-1.445821	-0.043646	-0.652626
C43	C	-1.376256	-0.094554	-0.608926
N44	N	-1.319922	-0.135774	-0.480560
N45	N	-1.382016	-0.090321	-0.519585
N46	N	-1.364989	-0.102827	0.216264
H47	H	-1.504056	0.289625	-0.000082
O48	O	-1.182438	0.476525	0.000063
C49	C	-1.122372	0.494482	0.071991
H50	H	-1.146184	0.557557	0.095968
H51	H	-1.027150	0.488373	0.055819
H52	H	-1.145208	0.452039	0.122348
O53	O	-1.115030	0.262443	-0.000084
C54	C	-1.127589	0.345350	-0.000065
H55	H	-1.212748	0.362946	-0.026359
H56	H	-1.055837	0.368851	-0.040375
H57	H	-1.124337	0.371292	0.066552
O58	O	-1.586958	0.511524	-0.000227
C59	C	-1.593936	0.461317	-0.072133
H60	H	-1.529596	0.478550	-0.122395
H61	H	-1.683213	0.467127	-0.096277
H62	H	-1.574643	0.397676	-0.055874
O63	O	-1.538161	0.136063	0.000020
C64	C	-1.554483	0.092674	0.071945
H65	H	-1.468395	0.073806	0.095924
H66	H	-1.603558	0.038144	0.055767
H67	H	-1.604694	0.130984	0.122302
O68	O	-1.133623	0.101114	-0.000089
C69	C	-1.036828	0.146904	-0.000059
H70	H	-1.058400	0.206604	-0.026353
H71	H	-0.965219	0.115124	-0.040365
H72	H	-1.008594	0.156012	0.066561
H73	H	-1.457513	-0.035045	-0.383094
O74	O	-1.518529	0.009893	-0.609951
C75	C	-1.595663	-0.029746	-0.559094
H76	H	-1.602219	-0.092796	-0.585420
H77	H	-1.682834	0.002257	-0.557744
H78	H	-1.564312	-0.030751	-0.492994
H79	H	-1.467753	-0.027544	-0.224529
O80	O	-1.507693	0.001792	-0.782393
C81	C	-1.483544	0.080536	-0.761063
H82	H	-1.443885	0.083642	-0.697605
H83	H	-1.565575	0.118916	-0.758073
H84	H	-1.421649	0.102723	-0.810264
H85	H	-1.244423	-0.191053	-0.617051
H86	H	-1.234203	-0.198565	-0.775614
O87	O	-1.183184	-0.235907	-0.390090
C88	C	-1.193104	-0.228633	-0.476608
H89	H	-1.279946	-0.200301	-0.488540
H90	H	-1.183715	-0.289551	-0.509815
H91	H	-1.123675	-0.190167	-0.501428
H92	H	-1.205123	-0.219774	-0.224525
H93	H	-1.552832	0.665059	-0.000078
H94	H	-1.180590	0.632711	-0.000057
