data_functionalizedCrystal
_audit_creation_method	'MofGen! by Chris Wilmer'
_symmetry_space_group_name_H-M	'P1'
_symmetry_Int_Tables_number	1
_symmetry_cell_setting	triclinic
loop_
_symmetry_equiv_pos_as_xyz
  x,y,z
_cell_length_a	17.077404
_cell_length_b	16.625546
_cell_length_c	17.077396
_cell_angle_alpha	89.968950
_cell_angle_beta	89.982756
_cell_angle_gamma	90.022693
loop_
_atom_site_label
_atom_site_type_symbol
_atom_site_fract_x
_atom_site_fract_y
_atom_site_fract_z
Zn1	Zn	1.200039	-0.320990	-0.443833
Zn2	Zn	1.700039	0.179010	0.056167
Zn3	Zn	1.199953	-0.455835	-0.312563
Zn4	Zn	1.699953	0.044165	0.187437
Zn5	Zn	1.068776	-0.321020	-0.312581
Zn6	Zn	1.568776	0.178980	0.187419
Zn7	Zn	1.068740	-0.455785	-0.443787
Zn8	Zn	1.568740	0.044215	0.056213
O9	O	1.134377	-0.388408	-0.378191
O10	O	1.634377	0.111592	0.121809
O11	O	1.309875	-0.338886	-0.426432
O12	O	1.809875	0.161114	0.073568
O13	O	1.182531	-0.437985	-0.202719
O14	O	1.682531	0.062015	0.297281
O15	O	1.086240	-0.208184	-0.330019
O16	O	1.586240	0.291816	0.169981
O17	O	1.309811	-0.437956	-0.329988
O18	O	1.809811	0.062044	0.170012
O19	O	1.182679	-0.208162	-0.426449
O20	O	1.682679	0.291838	0.073551
O21	O	1.086156	-0.338937	-0.202732
O22	O	1.586156	0.161063	0.297268
O23	O	0.958925	-0.338889	-0.329974
O24	O	1.458925	0.161111	0.170026
O25	O	1.086178	-0.437871	-0.553640
O26	O	1.586178	0.062129	-0.053640
O27	O	0.958898	-0.437900	-0.426370
O28	O	1.458898	0.062100	0.073630
O29	O	1.182643	-0.338837	-0.553674
O30	O	1.682643	0.161163	-0.053674
O31	O	1.182496	-0.568661	-0.329943
O32	O	1.682496	-0.068661	0.170057
O33	O	1.086094	-0.568624	-0.426353
O34	O	1.586094	-0.068624	0.073647
C35	C	0.930429	-0.388393	-0.378169
C36	C	1.430429	0.111607	0.121831
C37	C	0.843180	-0.388406	-0.378179
C38	C	1.343180	0.111594	0.121821
C39	C	0.802196	-0.440039	-0.428292
C40	C	1.302196	0.059961	0.071708
C41	C	0.720216	-0.440041	-0.428304
C42	C	1.220216	0.059959	0.071696
C43	C	0.679220	-0.388413	-0.378199
C44	C	1.179220	0.111587	0.121801
C45	C	0.720209	-0.336775	-0.328084
C46	C	1.220209	0.163225	0.171916
C47	C	0.802188	-0.336769	-0.328076
C48	C	1.302188	0.163231	0.171924
C49	C	0.549339	-0.336790	-0.328103
C50	C	1.049339	0.163210	0.171897
C51	C	0.467355	-0.336797	-0.328110
C52	C	0.967355	0.163203	0.171890
C53	C	0.467367	-0.440062	-0.428331
C54	C	0.967367	0.059938	0.071669
C55	C	0.549346	-0.440057	-0.428323
C56	C	1.049346	0.059943	0.071677
C57	C	0.590329	-0.388419	-0.378207
C58	C	1.090329	0.111581	0.121793
C59	C	1.134303	-0.597898	-0.378158
C60	C	1.634303	-0.097898	0.121842
C61	C	1.134343	-0.687520	-0.378170
C62	C	1.634343	-0.187520	0.121830
C63	C	1.134480	-1.015695	-0.378252
C64	C	1.634480	-0.515695	0.121748
C65	C	1.134439	-0.924387	-0.378232
C66	C	1.634439	-0.424387	0.121768
C67	C	1.134411	-0.851610	-0.378211
C68	C	1.634411	-0.351610	0.121789
C69	C	1.134371	-0.760296	-0.378191
C70	C	1.634371	-0.260296	0.121809
C71	C	1.339121	-0.388423	-0.378213
C72	C	1.839121	0.111577	0.121787
C73	C	1.426371	-0.388429	-0.378223
C74	C	1.926371	0.111571	0.121777
C75	C	1.134417	-0.388345	-0.582936
C76	C	1.634417	0.111655	-0.082936
C77	C	1.134433	-0.388319	-0.670185
C78	C	1.634433	0.111681	-0.170185
C79	C	1.134473	-0.178099	-0.378241
C80	C	1.634473	0.321901	0.121759
C81	C	1.134514	-0.088478	-0.378263
C82	C	1.634514	0.411522	0.121737
C83	C	1.084266	-0.336738	-0.711182
C84	C	1.584266	0.163262	-0.211182
C85	C	1.084279	-0.336720	-0.793162
C86	C	1.584279	0.163280	-0.293162
C87	C	1.134464	-0.388278	-0.834145
C88	C	1.634464	0.111722	-0.334145
C89	C	1.184633	-0.439864	-0.793143
C90	C	1.684633	0.060136	-0.293143
C91	C	1.184615	-0.439886	-0.711164
C92	C	1.684615	0.060114	-0.211164
C93	C	1.184667	-0.439814	-0.964013
C94	C	1.684667	0.060186	-0.464013
C95	C	1.184685	-0.439791	-1.045998
C96	C	1.684685	0.060209	-0.545998
C97	C	1.084331	-0.336648	-1.046011
C98	C	1.584331	0.163352	-0.546011
C99	C	1.084313	-0.336670	-0.964032
C100	C	1.584313	0.163330	-0.464032
C101	C	1.134484	-0.388255	-0.923036
C102	C	1.634484	0.111745	-0.423036
C103	C	1.134383	-0.388412	-0.174243
C104	C	1.634383	0.111588	0.325757
C105	C	1.134518	-0.388211	-0.086994
C106	C	1.634518	0.111789	0.413006
H107	H	0.433978	-0.294747	-0.287319
H108	H	0.933978	0.205253	0.212681
H109	H	1.043452	-0.294682	-0.930667
H110	H	1.543452	0.205318	-0.430667
C111	C	1.239797	-0.496623	-0.666064
C112	C	1.739797	0.003377	-0.166064
H113	H	1.232594	-0.489258	-0.611371
H114	H	1.732594	0.010742	-0.111371
H115	H	1.292549	-0.484827	-0.679505
H116	H	1.792549	0.015173	-0.179505
H117	H	1.228279	-0.550795	-0.679485
H118	H	1.728279	-0.050795	-0.179485
C119	C	0.594420	-0.279987	-0.272979
C120	C	1.094420	0.220013	0.227021
H121	H	0.558265	-0.249245	-0.243134
H122	H	1.058265	0.250755	0.256866
H123	H	0.626423	-0.244893	-0.303066
H124	H	1.126423	0.255107	0.196934
H125	H	0.626376	-0.310788	-0.238716
H126	H	1.126376	0.189212	0.261284
C127	C	1.029056	-0.280030	-0.666108
C128	C	1.529056	0.219970	-0.166108
H129	H	0.999174	-0.249315	-0.702268
H130	H	1.499174	0.250685	-0.202268
H131	H	1.059085	-0.244906	-0.634136
H132	H	1.559085	0.255094	-0.134136
H133	H	0.994832	-0.310891	-0.634121
H134	H	1.494832	0.189109	-0.134121
H135	H	0.686850	-0.482086	-0.469111
H136	H	1.186850	0.017914	0.030889
H137	H	1.043425	-0.294721	-0.826538
H138	H	1.543425	0.205279	-0.326538
H139	H	0.582722	-0.482101	-0.469119
H140	H	1.082722	0.017899	0.030881
H141	H	1.225490	-0.481848	-0.826517
H142	H	1.725490	0.018152	-0.326517
H143	H	0.433994	-0.482105	-0.469140
H144	H	0.933994	0.017895	0.030860
H145	H	0.686824	-0.294735	-0.287291
H146	H	1.186824	0.205265	0.212709
H147	H	0.835569	-0.482083	-0.469091
H148	H	1.335569	0.017917	0.030909
C149	C	0.847270	-0.279972	-0.272953
C150	C	1.347270	0.220028	0.227047
H151	H	0.811115	-0.249229	-0.243109
H152	H	1.311115	0.250771	0.256891
H153	H	0.879272	-0.244879	-0.303043
H154	H	1.379272	0.255121	0.196957
H155	H	0.879228	-0.310771	-0.238690
H156	H	1.379228	0.189229	0.261310
H157	H	1.043481	-0.294644	-1.079395
H158	H	1.543481	0.205356	-0.579395
C159	C	1.239891	-0.496499	-1.091077
C160	C	1.739891	0.003501	-0.591077
H161	H	1.269764	-0.527229	-1.054922
H162	H	1.769764	-0.027229	-0.554922
H163	H	1.274113	-0.465643	-1.123064
H164	H	1.774113	0.034357	-0.623064
H165	H	1.209853	-0.531620	-1.123050
H166	H	1.709853	-0.031620	-0.623050
H167	H	1.225528	-0.481813	-0.930636
H168	H	1.725528	0.018187	-0.430636
