data_functionalizedCrystal
_audit_creation_method	'MofGen! by Chris Wilmer'
_symmetry_space_group_name_H-M	'P1'
_symmetry_Int_Tables_number	1
_symmetry_cell_setting	triclinic
loop_
_symmetry_equiv_pos_as_xyz
  x,y,z
_cell_length_a	10.723023
_cell_length_b	14.044190
_cell_length_c	9.198806
_cell_angle_alpha	89.991997
_cell_angle_beta	89.996191
_cell_angle_gamma	88.829662
loop_
_atom_site_label
_atom_site_type_symbol
_atom_site_fract_x
_atom_site_fract_y
_atom_site_fract_z
O1	O	1.670503	0.133036	-0.120907
O2	O	1.308625	0.145772	-0.120912
O3	O	1.484127	0.001384	-0.120881
O4	O	1.495000	0.277424	-0.120938
O5	O	1.484112	0.001384	0.120904
O6	O	1.308609	0.145771	0.120873
O7	O	1.670487	0.133036	0.120878
Cu8	Cu	1.489547	0.139404	0.142952
Cu9	Cu	1.489565	0.139404	-0.142986
O10	O	1.494985	0.277424	0.120847
C11	C	1.262025	0.144845	-0.000020
C12	C	1.123193	0.142073	-0.000021
C13	C	0.917807	0.137971	0.125226
C14	C	1.061296	0.140837	0.125230
C15	C	1.479363	-0.033962	0.000016
C16	C	1.465175	-0.139280	0.000028
C17	C	1.539861	-0.389081	-0.000028
C18	C	1.439257	-0.332106	-0.000019
C19	C	1.453681	-0.224808	0.000007
C20	C	1.525438	-0.496389	-0.000054
C21	C	1.717087	0.133963	-0.000017
C22	C	1.855919	0.136735	-0.000026
C23	C	1.499749	0.312769	-0.000053
C24	C	1.513937	0.418088	-0.000075
N25	N	1.489543	0.139403	0.344066
N26	N	1.489578	0.139398	-0.344100
C27	C	1.563205	0.078511	0.416277
C28	C	1.563224	0.078508	0.583689
H29	H	1.069979	0.141008	-0.107259
H30	H	1.426514	0.191536	0.593811
O31	O	1.323513	-0.369931	0.000172
C32	C	1.258280	-0.339444	0.125425
H33	H	1.299798	-0.270553	0.167182
H34	H	1.266498	-0.396610	0.213099
C35	C	1.068847	-0.406594	0.036116
C36	C	1.119833	-0.321976	0.087396
H37	H	0.983445	-0.395823	0.012662
H38	H	1.112795	-0.427137	-0.048267
H39	H	1.075706	-0.454224	0.109186
H40	H	1.112987	-0.274352	0.014320
H41	H	1.075879	-0.301424	0.171766
H42	H	0.909164	0.137804	-0.107256
O43	O	1.414253	0.201465	0.418320
C44	C	1.331426	0.150250	0.506362
H45	H	1.372653	0.076269	0.529015
H46	H	1.238338	0.143401	0.447812
C47	C	1.260371	0.294356	0.623200
C48	C	1.311011	0.203494	0.651033
H49	H	1.247772	0.327201	0.712437
H50	H	1.316169	0.328862	0.563881
H51	H	1.182803	0.288636	0.574405
H52	H	1.388584	0.209215	0.699810
H53	H	1.255225	0.168990	0.710364
O54	O	1.655440	-0.350989	0.000063
C55	C	1.644291	-0.250784	0.000054
H56	H	1.549371	-0.228320	0.045816
H57	H	1.653367	-0.223165	-0.115933
C58	C	1.864653	-0.236568	0.038699
C59	C	1.748075	-0.208977	0.094917
H60	H	1.928675	-0.210778	0.097209
H61	H	1.872167	-0.304078	0.038700
H62	H	1.872199	-0.213551	-0.057956
H63	H	1.740525	-0.232004	0.191563
H64	H	1.740563	-0.141470	0.094934
H65	H	1.626252	0.026378	0.354162
H66	H	1.114519	0.141895	0.232463
H67	H	0.864561	0.136913	0.232456
H68	H	1.626294	0.026379	0.645786
