data_functionalizedCrystal
_audit_creation_method	'MofGen! by Chris Wilmer'
_symmetry_space_group_name_H-M	'P1'
_symmetry_Int_Tables_number	1
_symmetry_cell_setting	triclinic
loop_
_symmetry_equiv_pos_as_xyz
  x,y,z
_cell_length_a	14.519731
_cell_length_b	12.837932
_cell_length_c	11.295483
_cell_angle_alpha	85.466831
_cell_angle_beta	94.114372
_cell_angle_gamma	89.259278
loop_
_atom_site_label
_atom_site_type_symbol
_atom_site_fract_x
_atom_site_fract_y
_atom_site_fract_z
O1	O	-1.241210	-0.129043	-0.099048
O2	O	-0.741210	0.370957	0.400952
O3	O	-0.974117	-0.145025	-0.099043
O4	O	-0.474117	0.354975	0.400957
O5	O	-1.101740	0.013880	-0.099047
O6	O	-0.601740	0.513880	0.400953
O7	O	-1.113587	-0.287949	-0.099045
O8	O	-0.613587	0.212051	0.400955
O9	O	-1.090529	-0.000055	0.099004
O10	O	-0.590529	0.499945	0.599004
O11	O	-0.962905	-0.158961	0.099008
O12	O	-0.462905	0.341039	0.599008
O13	O	-1.229999	-0.142978	0.099003
O14	O	-0.729999	0.357022	0.599003
Cu15	Cu	-1.095428	-0.152242	0.117089
Cu16	Cu	-0.595428	0.347758	0.617089
Cu17	Cu	-1.108687	-0.135762	-0.117129
Cu18	Cu	-0.608687	0.364238	0.382871
O19	O	-1.102375	-0.301884	0.099006
O20	O	-0.602375	0.198116	0.599006
C21	C	-0.934087	-0.151244	-0.000017
C22	C	-0.434087	0.348756	0.499983
C23	C	-0.831513	-0.149000	-0.000015
C24	C	-0.331513	0.351000	0.499985
C25	C	-1.092133	0.045541	-0.000024
C26	C	-0.592133	0.545541	0.499976
C27	C	-1.080198	0.160642	-0.000032
C28	C	-0.580198	0.660642	0.499968
C29	C	-0.748211	-0.147177	-0.000018
C30	C	-0.248211	0.352823	0.499982
C31	C	-0.643705	-0.144899	-0.000016
C32	C	-0.143705	0.355101	0.499984
C33	C	-0.560410	-0.143091	-0.000014
C34	C	-0.060410	0.356909	0.499986
C35	C	-0.455898	-0.140812	-0.000015
C36	C	0.044102	0.359188	0.499985
C37	C	-1.111983	-0.333545	-0.000019
C38	C	-0.611983	0.166455	0.499981
C39	C	-1.123917	-0.448645	-0.000019
C40	C	-0.623917	0.051355	0.499981
C41	C	-0.270028	-0.136760	-0.000020
C42	C	0.229972	0.363240	0.499980
C43	C	-0.372602	-0.139004	-0.000013
C44	C	0.127398	0.360996	0.499987
N45	N	-1.086110	-0.163833	0.281825
N46	N	-0.586110	0.336167	0.781825
C47	C	-0.980446	0.310678	-0.000028
C48	C	-0.480446	0.810678	0.499972
C49	C	-0.991654	0.202530	-0.000030
C50	C	-0.491654	0.702530	0.499970
C51	C	-1.157541	0.226910	-0.000034
C52	C	-0.657541	0.726910	0.499966
C53	C	-1.146333	0.335058	-0.000032
C54	C	-0.646333	0.835058	0.499968
C55	C	-1.057782	0.376937	-0.000027
C56	C	-0.557782	0.876937	0.499973
C57	C	-1.046575	0.485087	-0.000017
C58	C	-0.546575	0.985087	0.499983
C59	C	-1.212462	0.509465	-0.000029
C60	C	-0.712462	1.009465	0.499971
C61	C	-1.223670	0.401317	-0.000031
C62	C	-0.723670	0.901317	0.499969
N63	N	-1.118012	-0.124163	-0.281866
N64	N	-0.618012	0.375837	0.218134
C65	C	-1.185089	-0.040668	0.531112
C66	C	-0.685089	0.459332	1.031112
C67	C	-1.178054	-0.049435	0.655776
C68	C	-0.678054	0.450565	1.155776
C69	C	-1.065000	-0.190127	0.655819
C70	C	-0.565000	0.309873	1.155819
C71	C	-1.072035	-0.181360	0.531155
C72	C	-0.572035	0.318640	1.031155
C73	C	-1.132083	-0.106630	0.468806
C74	C	-0.632083	0.393370	0.968806
C75	C	-1.139122	-0.097869	0.344140
C76	C	-0.639122	0.402131	0.844140
C77	C	-1.026064	-0.238555	0.344186
C78	C	-0.526064	0.261445	0.844186
C79	C	-1.019029	-0.247322	0.468849
C80	C	-0.519029	0.252678	0.968849
H81	H	-0.908343	0.344775	-0.000002
H82	H	-0.408343	0.844775	0.499998
H83	H	-0.928678	0.148585	-0.000032
H84	H	-0.428678	0.648585	0.499968
O85	O	-1.253042	0.181726	-0.000056
O86	O	-0.753042	0.681726	0.499944
H87	H	-1.286105	0.202643	0.080660
H88	H	-0.786105	0.702643	0.580660
H89	H	-0.982905	-0.292269	0.293442
H90	H	-0.482905	0.207731	0.793442
O91	O	-1.000240	-0.270719	0.723089
O92	O	-0.500240	0.229281	1.223089
H93	H	-0.948379	-0.230942	0.779900
H94	H	-0.448379	0.269058	1.279900
H95	H	-1.188018	-0.037022	0.293377
H96	H	-0.688018	0.462978	0.793377
O97	O	-1.249828	0.039946	0.463843
O98	O	-0.749828	0.539946	0.963843
H99	H	-1.301702	0.000197	0.407023
H100	H	-0.801702	0.500197	0.907023
H101	H	-0.970136	-0.308164	0.519628
H102	H	-0.470136	0.191836	1.019628
O103	O	-1.319175	0.356146	-0.000033
O104	O	-0.819175	0.856146	0.499967
H105	H	-1.313978	0.269812	-0.000028
H106	H	-0.813978	0.769812	0.499972
H107	H	-0.974472	0.519182	-0.000002
H108	H	-0.474472	1.019182	0.499998
O109	O	-1.295886	0.580929	-0.000032
O110	O	-0.795886	1.080929	0.499968
H111	H	-1.273219	0.663169	-0.000035
H112	H	-0.773219	1.163169	0.499965
O113	O	-1.235235	0.021696	0.722984
O114	O	-0.735235	0.521696	1.222984
H115	H	-1.278177	0.075123	0.658680
H116	H	-0.778177	0.575123	1.158680
