data_functionalizedCrystal
_audit_creation_method	'MofGen! by Chris Wilmer'
_symmetry_space_group_name_H-M	'P1'
_symmetry_Int_Tables_number	1
_symmetry_cell_setting	triclinic
loop_
_symmetry_equiv_pos_as_xyz
  x,y,z
_cell_length_a	10.654550
_cell_length_b	17.699083
_cell_length_c	9.130313
_cell_angle_alpha	89.997869
_cell_angle_beta	89.996220
_cell_angle_gamma	83.883958
loop_
_atom_site_label
_atom_site_type_symbol
_atom_site_fract_x
_atom_site_fract_y
_atom_site_fract_z
O1	O	1.665973	0.106299	-0.121923
O2	O	1.300318	0.116427	-0.121900
O3	O	1.493476	0.001240	-0.121899
O4	O	1.472815	0.221487	-0.121924
O5	O	1.493474	0.001243	0.121700
O6	O	1.300315	0.116430	0.121699
O7	O	1.665971	0.106302	0.121676
Cu8	Cu	1.483143	0.111366	0.143930
Cu9	Cu	1.483146	0.111363	-0.144154
O10	O	1.472812	0.221490	0.121675
C11	C	1.253531	0.115685	-0.000097
C12	C	1.114127	0.113460	-0.000088
C13	C	1.033454	0.181281	-0.000117
C14	C	0.902470	0.179185	-0.000142
C15	C	0.932845	0.041443	-0.000115
C16	C	1.063826	0.043539	-0.000080
C17	C	1.015917	0.260805	-0.000139
C18	C	0.884933	0.258710	-0.000164
C19	C	1.492735	-0.026961	-0.000099
C20	C	1.490514	-0.110993	-0.000099
C21	C	1.603894	-0.158893	-0.000104
C22	C	1.601799	-0.237850	-0.000117
C23	C	1.486324	-0.268905	-0.000114
C24	C	1.372935	-0.220998	-0.000113
C25	C	1.375031	-0.142043	-0.000111
C26	C	1.364481	-0.539415	-0.000124
C27	C	1.362394	-0.618376	-0.000122
C28	C	1.591249	-0.635222	-0.000130
C29	C	1.593345	-0.556266	-0.000128
C30	C	1.479957	-0.508367	-0.000135
C31	C	1.482229	-0.422753	-0.000124
C32	C	1.484050	-0.354517	-0.000114
C33	C	1.712757	0.107044	-0.000130
C34	C	1.852161	0.109269	-0.000149
C35	C	1.473554	0.249690	-0.000128
C36	C	1.475775	0.333722	-0.000138
N37	N	1.483150	0.111369	0.346553
N38	N	1.483149	0.111355	-0.346777
C39	C	1.568702	0.060381	0.423205
C40	C	1.568699	0.060372	0.576542
C41	C	1.397587	0.162345	0.576561
C42	C	1.397585	0.162349	0.423226
C43	C	1.667496	0.001510	0.423195
C44	C	1.667493	0.001501	0.576532
H45	H	1.697927	-0.133615	-0.000097
H46	H	1.647071	-0.056663	0.381583
H47	H	0.838840	0.282744	0.105002
C48	C	0.878400	-0.034521	-0.000346
C49	C	0.919479	-0.075571	-0.125640
C50	C	0.869367	-0.145558	-0.125896
H51	H	0.788843	-0.026165	-0.000444
H52	H	0.906124	-0.062514	0.084567
H53	H	0.891748	-0.047585	-0.210532
H54	H	1.009029	-0.083948	-0.125569
H55	H	0.897091	-0.173552	-0.040982
H56	H	0.779811	-0.137195	-0.125989
H57	H	0.897241	-0.173423	-0.210898
H58	H	1.044703	0.291908	0.101809
C59	C	1.062628	0.294625	-0.140444
C60	C	0.960060	0.314888	-0.233436
C61	C	1.003041	0.346052	-0.362691
H62	H	1.120854	0.258198	-0.187806
H63	H	1.103120	0.338461	-0.117677
H64	H	0.919588	0.271058	-0.256204
H65	H	0.901824	0.351322	-0.186119
H66	H	1.043533	0.389887	-0.339925
H67	H	1.061268	0.309620	-0.410040
H68	H	0.933455	0.359810	-0.425796
C69	C	1.304754	0.217816	0.659620
C70	C	1.324855	0.292307	0.622302
C71	C	1.239348	0.343429	0.698767
H72	H	1.316911	0.210617	0.761942
H73	H	1.220950	0.209169	0.634458
H74	H	1.408639	0.300951	0.647474
H75	H	1.312689	0.299531	0.519993
H76	H	1.155544	0.334782	0.673605
H77	H	1.251512	0.336222	0.801086
H78	H	1.252967	0.393976	0.673448
H79	H	1.683575	-0.674231	-0.000132
H80	H	1.758357	0.019943	0.375629
H81	H	1.637942	-0.053472	0.624087
C82	C	1.725035	-0.289729	-0.000036
C83	C	1.826611	-0.245633	0.000014
C84	C	1.940159	-0.293398	0.000108
H85	H	1.729165	-0.320894	-0.084962
H86	H	1.729035	-0.320871	0.084945
H87	H	1.822613	-0.214505	-0.084959
H88	H	1.822522	-0.214470	0.084934
H89	H	1.944159	-0.324540	0.085090
H90	H	1.944277	-0.324561	-0.084820
H91	H	2.009092	-0.263486	0.000155
H92	H	1.129507	-0.011687	-0.000035
H93	H	1.268354	-0.643658	-0.000117
C94	C	1.795937	0.018834	0.631740
C95	C	1.874507	0.029447	0.512216
C96	C	1.992828	0.045423	0.563017
H97	H	1.832552	-0.022403	0.689495
H98	H	1.786286	0.063724	0.689508
H99	H	1.884161	-0.015437	0.454473
H100	H	1.837932	0.070686	0.454449
H101	H	1.983177	0.090312	0.620785
H102	H	2.029430	0.004183	0.620772
H103	H	2.046148	0.052632	0.481929
H104	H	1.687377	-0.530986	-0.000123
C105	C	1.241242	-0.487543	-0.000035
C106	C	1.139670	-0.531643	0.000017
C107	C	1.026118	-0.483881	0.000126
H108	H	1.237113	-0.456373	-0.084957
H109	H	1.237235	-0.456408	0.084951
H110	H	1.143675	-0.562766	-0.084959
H111	H	1.143757	-0.562812	0.084934
H112	H	1.022111	-0.452745	0.085111
H113	H	1.022002	-0.452713	-0.084798
H114	H	0.957189	-0.513795	0.000175
H115	H	0.842677	0.288672	-0.102121
H116	H	1.278912	-0.246289	-0.000120
H117	H	1.282705	-0.103043	-0.000107
H118	H	1.327912	0.203861	0.360818
