data_functionalizedCrystal
_audit_creation_method	'MofGen! by Chris Wilmer'
_symmetry_space_group_name_H-M	'P1'
_symmetry_Int_Tables_number	1
_symmetry_cell_setting	triclinic
loop_
_symmetry_equiv_pos_as_xyz
  x,y,z
_cell_length_a	8.597340
_cell_length_b	17.666332
_cell_length_c	19.188924
_cell_angle_alpha	90.007291
_cell_angle_beta	84.245364
_cell_angle_gamma	82.307139
loop_
_atom_site_label
_atom_site_type_symbol
_atom_site_fract_x
_atom_site_fract_y
_atom_site_fract_z
O1	O	2.081666	-0.072818	0.104204
O2	O	2.581666	0.427182	0.604204
O3	O	1.624691	-0.043011	0.112198
O4	O	2.124691	0.456989	0.612198
O5	O	1.866372	-0.058784	0.006653
O6	O	2.366372	0.441216	0.506653
O7	O	1.839986	-0.057045	0.209749
O8	O	2.339986	0.442955	0.709749
O9	O	1.866329	-0.184678	0.006649
O10	O	2.366329	0.315322	0.506649
O11	O	1.624648	-0.168905	0.112195
O12	O	2.124648	0.331095	0.612195
O13	O	2.081624	-0.198712	0.104200
O14	O	2.581624	0.301288	0.604200
Cu15	Cu	1.853132	-0.195303	0.108197
Cu16	Cu	2.353132	0.304697	0.608197
Cu17	Cu	1.853182	-0.046419	0.108201
Cu18	Cu	2.353182	0.453581	0.608201
O19	O	1.839943	-0.182939	0.209745
O20	O	2.339943	0.317061	0.709745
C21	C	1.566206	-0.102145	0.111338
C22	C	2.066206	0.397855	0.611338
C23	C	1.392002	-0.090783	0.108772
C24	C	1.892002	0.409217	0.608772
N25	N	1.853108	-0.300021	0.108194
N26	N	2.353108	0.199979	0.608194
C27	C	1.947978	-0.345809	0.151216
C28	C	2.447978	0.154191	0.651216
C29	C	1.948003	-0.425058	0.151214
C30	C	2.448003	0.074942	0.651214
C31	C	1.853129	-0.458515	0.108198
C32	C	2.353129	0.041485	0.608198
C33	C	1.758254	-0.412718	0.065167
C34	C	2.258254	0.087282	0.565167
C35	C	1.758244	-0.333471	0.065165
C36	C	2.258244	0.166529	0.565165
N37	N	1.715689	-0.573990	0.105353
N38	N	2.215689	-0.073990	0.605353
N39	N	1.715703	-0.649271	0.105359
N40	N	2.215703	-0.149271	0.605359
C41	C	1.853158	-0.697281	0.108201
C42	C	2.353158	-0.197281	0.608201
N43	N	1.990600	-0.667165	0.111050
N44	N	2.490600	-0.167165	0.611050
N45	N	1.990584	-0.591876	0.111047
N46	N	2.490584	-0.091876	0.611047
C47	C	1.853131	-0.544444	0.108195
C48	C	2.353131	-0.044444	0.608195
C49	C	1.948063	-0.829000	0.151223
C50	C	2.448063	-0.329000	0.651223
C51	C	1.948091	-0.908251	0.151216
C52	C	2.448091	-0.408251	0.651216
C53	C	1.758328	-0.895908	0.065174
C54	C	2.258328	-0.395908	0.565174
C55	C	1.758314	-0.816659	0.065176
C56	C	2.258314	-0.316659	0.565176
C57	C	1.853179	-0.783210	0.108205
C58	C	2.353179	-0.283210	0.608205
C59	C	2.140109	-0.139576	0.105060
C60	C	2.640109	0.360424	0.605060
C61	C	2.314313	-0.150934	0.107627
C62	C	2.814313	0.349066	0.607627
C63	C	1.865498	-0.121676	-0.019367
C64	C	2.365498	0.378324	0.480633
C65	C	1.862938	-0.121511	-0.096893
C66	C	2.362938	0.378489	0.403107
N67	N	1.853219	0.058298	0.108199
N68	N	2.353219	0.558298	0.608199
C69	C	1.861767	-0.052808	-0.133299
C70	C	2.361767	0.447192	0.366701
C71	C	1.859339	-0.052644	-0.206142
C72	C	2.359339	0.447356	0.293858
C73	C	1.858115	-0.121189	-0.242577
C74	C	2.358115	0.378811	0.257423
C75	C	1.859278	-0.189900	-0.206161
C76	C	2.359278	0.310100	0.293839
C77	C	1.861689	-0.190061	-0.133319
C78	C	2.361689	0.309939	0.366681
N79	N	1.943616	-0.177841	-0.361541
N80	N	2.443616	0.322159	0.138459
N81	N	1.941329	-0.177684	-0.430738
N82	N	2.441329	0.322316	0.069262
C83	C	1.850846	-0.120707	-0.462045
C84	C	2.350846	0.379293	0.037955
N85	N	1.762757	-0.063884	-0.421542
N86	N	2.262757	0.436116	0.078458
N87	N	1.765051	-0.064040	-0.352339
N88	N	2.265051	0.435960	0.147661
C89	C	1.855499	-0.121022	-0.321562
C90	C	2.355499	0.378978	0.178438
C91	C	1.847040	-0.051822	-0.577436
C92	C	2.347040	0.448178	-0.077436
C93	C	1.844603	-0.051660	-0.650280
C94	C	2.344603	0.448340	-0.150280
C95	C	1.844558	-0.188919	-0.650298
C96	C	2.344558	0.311081	-0.150298
C97	C	1.846979	-0.189078	-0.577455
C98	C	2.346979	0.310922	-0.077455
C99	C	1.848228	-0.120528	-0.541029
C100	C	2.348228	0.379472	-0.041029
C101	C	1.840817	-0.120045	0.235765
C102	C	2.340817	0.379955	0.735765
C103	C	1.843377	-0.120205	0.313291
C104	C	2.343377	0.379795	0.813291
H105	H	1.381073	-0.211127	0.108605
H106	H	1.881073	0.288873	0.608605
H107	H	1.848048	0.003997	-0.547776
H108	H	2.348048	0.503997	-0.047776
H109	H	1.862779	0.003011	-0.103646
H110	H	2.362779	0.503011	0.396354
H111	H	1.681082	-0.923148	0.030148
H112	H	2.181082	-0.423148	0.530148
H113	H	1.325235	-0.030585	0.107788
H114	H	1.825235	0.469415	0.607788
H115	H	2.025230	-0.318580	0.186250
H116	H	2.525230	0.181420	0.686250
H117	H	2.025308	-0.801764	0.186259
H118	H	2.525308	-0.301764	0.686259
H119	H	1.858376	0.003305	-0.235790
H120	H	2.358376	0.503305	0.264210
H121	H	1.681010	-0.439963	0.030143
H122	H	2.181010	0.060037	0.530143
H123	H	1.858277	-0.245710	-0.235830
H124	H	2.358277	0.254290	0.264170
H125	H	2.025257	-0.462345	0.186250
H126	H	2.525257	0.037655	0.686250
H127	H	1.680987	-0.296190	0.030131
H128	H	2.180987	0.203810	0.530131
H129	H	1.862637	-0.246009	-0.103676
H130	H	2.362637	0.253991	0.396324
H131	H	2.025356	-0.945531	0.186248
H132	H	2.525356	-0.445531	0.686248
H133	H	1.843642	0.004289	-0.679920
H134	H	2.343642	0.504289	-0.179920
H135	H	1.681055	-0.779378	0.030146
H136	H	2.181055	-0.279378	0.530146
H137	H	1.843549	-0.244729	-0.679961
H138	H	2.343549	0.255271	-0.179961
H139	H	1.847946	-0.245024	-0.547813
H140	H	2.347946	0.254976	-0.047813
