data_functionalizedCrystal
_audit_creation_method	'MofGen! by Chris Wilmer'
_symmetry_space_group_name_H-M	'P1'
_symmetry_Int_Tables_number	1
_symmetry_cell_setting	triclinic
loop_
_symmetry_equiv_pos_as_xyz
  x,y,z
_cell_length_a	14.971482
_cell_length_b	14.586319
_cell_length_c	14.971486
_cell_angle_alpha	89.995999
_cell_angle_beta	96.386632
_cell_angle_gamma	90.002951
loop_
_atom_site_label
_atom_site_type_symbol
_atom_site_fract_x
_atom_site_fract_y
_atom_site_fract_z
O1	O	1.186946	0.076229	-0.116546
O2	O	0.926545	0.076233	-0.130508
O3	O	1.063725	0.076225	0.006673
O4	O	1.049766	0.076238	-0.253727
O5	O	1.063715	-0.076256	0.006675
O6	O	0.926535	-0.076247	-0.130506
O7	O	1.186936	-0.076252	-0.116544
Cu8	Cu	1.056735	-0.090172	-0.123525
Cu9	Cu	1.056746	0.090154	-0.123527
O10	O	1.049756	-0.076243	-0.253725
C11	C	0.893215	-0.000006	-0.129883
C12	C	0.793918	-0.000005	-0.128014
C13	C	0.747268	-0.083123	-0.127132
C14	C	0.653970	-0.083124	-0.125361
C15	C	0.607322	-0.000006	-0.124479
C16	C	0.653979	0.083119	-0.125358
C17	C	0.747276	0.083119	-0.127122
C18	C	0.459517	0.083113	-0.121682
C19	C	0.366213	0.083113	-0.119919
C20	C	0.366210	-0.083130	-0.119922
C21	C	0.459508	-0.083130	-0.121686
C22	C	0.506158	-0.000005	-0.122567
N23	N	1.056733	-0.217004	-0.123522
C24	C	1.117497	-0.452014	-0.062799
C25	C	1.117499	-0.547996	-0.062797
C26	C	0.995985	-0.547997	-0.184249
C27	C	0.995979	-0.452018	-0.184246
C28	C	1.056740	-0.404029	-0.123522
C29	C	1.056748	-0.595990	-0.123523
C30	C	1.056751	-0.700057	-0.123521
C31	C	1.056736	-0.299955	-0.123522
C32	C	1.220266	-0.000010	-0.117168
C33	C	1.319563	-0.000006	-0.119038
C34	C	1.063096	-0.000016	0.039999
C35	C	1.061225	-0.000015	0.139296
N36	N	1.056755	0.216986	-0.123522
C37	C	1.050385	-0.000001	-0.287051
C38	C	1.052256	0.000004	-0.386348
C39	C	1.141814	-0.000017	0.196522
C40	C	1.140051	-0.000008	0.289822
C41	C	1.057698	-0.000003	0.325893
C42	C	0.977102	0.000002	0.268659
C43	C	0.978866	-0.000001	0.175362
C44	C	0.973431	0.000005	0.463122
C45	C	0.971667	0.000006	0.556426
C46	C	1.134616	-0.000001	0.577582
C47	C	1.136380	-0.000004	0.484284
C48	C	1.055784	-0.000001	0.427057
H49	H	0.328234	0.150795	-0.119201
C50	C	0.554468	0.179552	-0.200499
C51	C	0.510802	0.174481	-0.122654
H52	H	0.586134	0.235955	-0.201098
H53	H	0.511302	0.176103	-0.251920
H54	H	0.595595	0.130042	-0.201265
H55	H	0.469669	0.223988	-0.121892
H56	H	0.553973	0.177939	-0.071220
H57	H	1.166971	-0.412944	-0.013353
H58	H	1.205675	-0.000011	0.336413
H59	H	0.328223	-0.150814	-0.119205
C60	C	0.737911	0.247442	-0.126960
C61	C	0.798556	0.174485	-0.128101
H62	H	0.769570	0.303848	-0.127569
H63	H	0.708294	0.243985	-0.074155
H64	H	0.694749	0.243978	-0.178395
H65	H	0.841715	0.177946	-0.076663
H66	H	0.828188	0.177944	-0.180912
C67	C	1.237617	-0.538347	0.057243
C68	C	1.184289	-0.600741	0.003948
H69	H	1.278855	-0.570912	0.098446
H70	H	1.200353	-0.500920	0.089478
H71	H	1.269822	-0.500903	0.019946
H72	H	1.152079	-0.638181	0.041245
H73	H	1.221559	-0.638184	-0.028289
C74	C	0.890282	-0.156942	-0.129843
C75	C	0.798540	-0.174490	-0.128104
H76	H	0.921931	-0.213351	-0.130446
H77	H	0.912339	-0.122799	-0.078016
H78	H	0.898796	-0.122787	-0.182256
H79	H	0.790026	-0.208640	-0.075687
H80	H	0.776477	-0.208648	-0.179936
C81	C	0.663336	-0.247445	-0.125560
C82	C	0.602691	-0.174491	-0.124401
H83	H	0.631677	-0.303853	-0.124973
H84	H	0.706493	-0.243996	-0.074132
H85	H	0.692958	-0.243971	-0.178372
H86	H	0.573075	-0.177962	-0.071586
H87	H	0.559519	-0.177942	-0.175835
H88	H	1.203439	-0.000015	0.454919
H89	H	1.208876	-0.000026	0.167161
H90	H	0.904607	-0.000004	0.585792
H91	H	0.946516	-0.587079	-0.233690
H92	H	0.946499	-0.412945	-0.233694
H93	H	1.200240	-0.000001	0.624181
H94	H	0.907801	0.000010	0.416529
C95	C	0.880597	0.078389	0.361307
C96	C	0.886579	0.000007	0.308310
H97	H	0.824712	0.078385	0.385788
H98	H	0.884670	0.131553	0.325346
H99	H	0.928347	0.078378	0.408739
H100	H	0.838832	0.000022	0.260874
H101	H	0.882497	-0.053170	0.344273
C102	C	0.817622	0.000000	0.163815
C103	C	0.890280	-0.000001	0.112455
H104	H	0.762932	-0.000002	0.124978
H105	H	0.820328	0.053170	0.200640
H106	H	0.820324	-0.053177	0.200650
H107	H	0.887582	0.053181	0.075624
H108	H	0.887572	-0.053176	0.075614
H109	H	0.615992	0.150795	-0.124632
H110	H	0.497485	-0.150813	-0.122410
