data_functionalizedCrystal
_audit_creation_method	'MofGen! by Chris Wilmer'
_symmetry_space_group_name_H-M	'P1'
_symmetry_Int_Tables_number	1
_symmetry_cell_setting	triclinic
loop_
_symmetry_equiv_pos_as_xyz
  x,y,z
_cell_length_a	15.995300
_cell_length_b	15.995350
_cell_length_c	14.586319
_cell_angle_alpha	89.997883
_cell_angle_beta	89.994276
_cell_angle_gamma	83.482091
loop_
_atom_site_label
_atom_site_type_symbol
_atom_site_fract_x
_atom_site_fract_y
_atom_site_fract_z
O1	O	1.111011	0.107725	-0.076269
O2	O	0.867230	0.121097	-0.076263
O3	O	0.995785	-0.007478	-0.076266
O4	O	0.982457	0.236300	-0.076267
O5	O	0.995774	-0.007481	0.076215
O6	O	0.867220	0.121094	0.076218
O7	O	1.111001	0.107722	0.076211
Cu8	Cu	0.989110	0.114408	0.090137
Cu9	Cu	0.989122	0.114411	-0.090189
O10	O	0.982447	0.236297	0.076214
C11	C	0.836030	0.120550	-0.000022
C12	C	0.743077	0.118915	-0.000020
C13	C	0.995229	-0.038674	-0.000027
C14	C	0.993577	-0.131624	-0.000032
C15	C	0.572894	0.115896	-0.000027
C16	C	0.525428	0.207443	-0.000025
C17	C	0.428740	0.205773	-0.000374
C18	C	0.405337	0.112924	-0.000033
C19	C	0.446476	0.067505	-0.086935
C20	C	0.543109	0.069822	-0.087005
C21	C	0.543377	0.068463	0.086400
C22	C	0.446432	0.068471	0.087540
C23	C	0.310642	0.111239	-0.000039
C24	C	0.667590	0.117577	-0.000027
C25	C	0.987644	-0.469370	-0.000029
C26	C	0.896090	-0.421920	-0.000369
C27	C	0.897743	-0.325230	-0.000025
C28	C	0.990587	-0.301810	-0.000031
C29	C	1.035739	-0.342898	0.087040
C30	C	1.033439	-0.439533	0.087113
C31	C	1.035342	-0.439888	-0.086286
C32	C	1.035320	-0.342943	-0.087437
C33	C	0.992255	-0.207113	-0.000029
C34	C	0.985979	-0.564068	-0.000025
C35	C	1.142202	0.108269	-0.000032
C36	C	1.235154	0.109904	-0.000040
C37	C	0.983003	0.267493	-0.000027
C38	C	0.984655	0.360443	-0.000028
N39	N	0.989107	0.114405	0.216969
N40	N	0.989131	0.114408	-0.217021
C41	C	1.046053	0.057491	0.547962
C42	C	1.046051	0.057491	0.451980
C43	C	0.932182	0.171328	0.451993
C44	C	0.932189	0.171331	0.547973
C45	C	0.989123	0.114408	0.595954
C46	C	0.989115	0.114405	0.403994
C47	C	0.989112	0.114406	0.299927
C48	C	0.989127	0.114408	0.700028
H49	H	0.543915	0.244233	0.062283
N50	N	0.989806	-0.463768	0.173328
H51	H	0.938381	-0.491690	0.156456
H52	H	1.029614	-0.504118	0.210329
H53	H	0.400897	0.241310	-0.063032
H54	H	1.100656	-0.471793	0.091060
H55	H	0.575383	0.002598	-0.090718
N56	N	0.551401	0.255460	-0.082446
H57	H	0.593780	0.218169	-0.119785
H58	H	0.500306	0.273590	-0.121331
N59	N	1.126087	-0.324196	0.091338
H60	H	1.153881	-0.351211	0.147842
H61	H	1.157031	-0.347520	0.034894
N62	N	0.870779	0.232718	0.599746
H63	H	0.880415	0.292149	0.583037
H64	H	0.811381	0.222976	0.583035
N65	N	0.567391	0.113178	-0.173379
H66	H	0.515344	0.130609	-0.211048
H67	H	0.595316	0.164628	-0.156620
N68	N	0.410202	0.112416	0.172689
H69	H	0.382144	0.071368	0.211518
H70	H	0.456867	0.134424	0.208915
H71	H	1.102844	-0.471661	-0.086876
N72	N	0.994204	-0.305293	0.172880
H73	H	0.946149	-0.261653	0.155565
H74	H	0.971976	-0.351151	0.210205
N75	N	1.107465	-0.003895	0.599716
H76	H	1.143532	-0.039948	0.554744
H77	H	1.144480	0.028182	0.639525
N78	N	0.426064	-0.021177	0.094880
H79	H	0.389756	-0.034309	0.041295
H80	H	0.479985	-0.060711	0.094301
N81	N	1.107456	-0.003895	0.400216
H82	H	1.143523	-0.039952	0.445179
H83	H	1.075400	-0.040922	0.360399
N84	N	0.427808	-0.022866	-0.090900
H85	H	0.392418	-0.035264	-0.036271
H86	H	0.396190	-0.032345	-0.149224
N87	N	0.847828	-0.447859	0.081885
H88	H	0.829563	-0.396790	0.120767
H89	H	0.796612	-0.473969	0.060560
H90	H	0.575158	0.000966	0.087236
H91	H	0.885826	0.217673	0.412917
H92	H	0.400273	0.241461	0.061907
H93	H	0.859501	-0.440444	-0.062809
H94	H	0.418095	0.098646	-0.151851
H95	H	0.862250	-0.296800	-0.062441
N96	N	0.570505	0.108375	0.173690
H97	H	0.633872	0.105885	0.174943
H98	H	0.544851	0.169006	0.176290
H99	H	1.005413	-0.460421	-0.152281
H100	H	1.002309	-0.315687	-0.151850
N101	N	0.850412	-0.288301	0.082798
H102	H	0.790238	-0.301641	0.080123
H103	H	0.878064	-0.313273	0.140357
H104	H	1.103027	-0.327593	-0.092699
