data_functionalizedCrystal
_audit_creation_method	'MofGen! by Chris Wilmer'
_symmetry_space_group_name_H-M	'P1'
_symmetry_Int_Tables_number	1
_symmetry_cell_setting	triclinic
loop_
_symmetry_equiv_pos_as_xyz
  x,y,z
_cell_length_a	14.560438
_cell_length_b	20.016444
_cell_length_c	14.560438
_cell_angle_alpha	60.000669
_cell_angle_beta	90.000200
_cell_angle_gamma	60.001683
loop_
_atom_site_label
_atom_site_type_symbol
_atom_site_fract_x
_atom_site_fract_y
_atom_site_fract_z
Zr1	Zr	-0.120460	0.731260	0.884757
O2	O	-0.267101	0.870631	0.738115
O3	O	-0.075514	0.591888	0.929711
O4	O	-0.267107	0.731261	0.929715
O5	O	0.075632	0.731258	0.738107
O6	O	-0.267105	0.731263	1.080854
O7	O	-0.075507	0.731258	0.738110
O8	O	0.075620	0.481950	1.080846
O9	O	-0.267093	0.980571	0.738115
O10	O	-0.056335	0.649216	1.061676
O11	O	0.056457	0.649214	0.948881
O12	O	-0.169119	0.813308	0.948886
O13	O	-0.056327	0.813306	0.836091
Zr14	Zr	0.120594	0.731263	1.125801
Zr15	Zr	-0.120457	0.731263	1.125806
Zr16	Zr	0.120590	0.731260	0.884753
Zr17	Zr	-0.120448	0.906601	0.884758
Zr18	Zr	0.120582	0.555922	1.125800
O19	O	0.075647	0.870635	1.080847
O20	O	-0.267095	0.870636	1.080854
O21	O	0.075642	0.870631	0.738108
O22	O	0.267234	0.591892	1.272443
O23	O	-0.075509	0.591892	1.272450
O24	O	0.267229	0.591888	0.929704
O25	O	-0.075499	0.731265	1.272451
O26	O	0.267241	0.731262	1.080843
O27	O	0.267238	0.731260	0.929705
O28	O	0.075641	0.731265	1.272448
O29	O	-0.267090	0.980573	0.929716
O30	O	0.267223	0.481950	1.080842
O31	O	0.267226	0.481952	1.272443
O32	O	0.075624	0.481953	1.272447
O33	O	-0.075490	0.980571	0.738111
O34	O	-0.075487	0.980573	0.929712
O35	O	0.169253	0.649215	1.061672
O36	O	0.056461	0.649217	1.174467
O37	O	-0.056324	0.813309	1.061677
O38	O	0.056468	0.813308	0.948882
C39	C	0.000052	0.511937	1.005278
C40	C	0.000046	0.437500	1.005278
C41	C	-0.058811	0.266231	1.064160
C42	C	-0.058802	0.196283	1.064163
C43	C	0.058952	0.196295	0.946397
C44	C	0.058949	0.266237	0.946401
C45	C	0.000061	0.301206	1.005279
C46	C	0.000072	0.161317	1.005279
C47	C	0.000082	0.085477	1.005282
C48	C	0.000052	0.377050	1.005278
C49	C	-0.301451	0.731262	1.005285
C50	C	-0.403783	0.731262	1.005287
C51	C	-0.451865	0.731267	1.088545
C52	C	-0.548015	0.731263	1.088540
C53	C	-0.547993	0.731253	0.922008
C54	C	-0.451841	0.731250	0.922019
C55	C	-0.403808	0.731279	1.171813
C56	C	-0.451891	0.731285	1.255077
C57	C	-0.548040	0.731281	1.255072
C58	C	-0.596106	0.731271	1.171802
C59	C	0.301584	0.731261	1.005273
C60	C	0.403916	0.731261	1.005271
C61	C	0.000062	0.731258	0.703765
C62	C	0.000060	0.731257	0.601433
C63	C	0.000082	0.950586	1.005280
C64	C	0.000087	1.025023	1.005280
C65	C	0.058932	0.645604	0.612230
C66	C	0.058942	0.645608	0.516075
C67	C	-0.058801	0.816926	0.398330
C68	C	-0.058803	0.816921	0.494484
C69	C	0.117796	0.559940	0.719180
C70	C	0.176671	0.474280	0.729981
C71	C	0.176682	0.474285	0.633826
C72	C	0.117816	0.559949	0.526870
C73	C	0.000072	0.731265	1.306793
C74	C	0.000073	0.731267	1.409125
C75	C	0.000056	0.511941	1.306793
C76	C	0.000053	0.437505	1.409124
C77	C	0.301569	0.511936	1.005272
C78	C	0.403896	0.437499	1.005270
C79	C	0.301574	0.511940	1.306787
C80	C	0.403902	0.437504	1.409116
C81	C	-0.301440	0.950583	0.703771
C82	C	-0.403769	1.025019	0.601443
C83	C	0.000077	0.950583	0.703765
C84	C	0.000080	1.025018	0.601434
C85	C	-0.301435	0.950587	1.005286
C86	C	-0.403763	1.025024	1.005288
C87	C	-0.058837	0.402549	1.398304
C88	C	-0.058863	0.332618	1.494445
C89	C	0.000009	0.297641	1.601406
C90	C	0.058900	0.332604	1.612223
C91	C	0.058919	0.402538	1.516083
C92	C	0.510838	0.402544	1.064144
C93	C	0.606994	0.332612	1.064138
C94	C	0.596206	0.297633	1.005263
C95	C	0.489253	0.332595	0.946381
C96	C	0.393099	0.402530	0.946382
C97	C	0.393081	0.402549	1.516058
C98	C	0.489220	0.332619	1.612216
C99	C	0.596180	0.297640	1.601429
C100	C	0.607000	0.332602	1.494475
C101	C	0.510861	0.402536	1.398320
C102	C	-0.392947	1.059982	0.494500
C103	C	-0.489087	1.129935	0.398342
C104	C	-0.596047	1.164917	0.409129
C105	C	-0.606866	1.129951	0.516083
C106	C	-0.510728	1.060005	0.612238
C107	C	0.058960	1.059982	0.612254
C108	C	0.058960	1.129932	0.516113
C109	C	0.000085	1.164912	0.409152
C110	C	-0.058802	1.129945	0.398335
C111	C	-0.058807	1.060001	0.494475
C112	C	-0.392938	1.059981	1.064175
C113	C	-0.489076	1.129913	1.064199
C114	C	-0.596037	1.164892	1.005329
C115	C	-0.606859	1.129928	0.946441
C116	C	-0.510723	1.059992	0.946424
H117	H	-0.106740	0.167807	1.112110
H118	H	0.694071	0.304154	1.112090
Cl119	Cl	-0.132812	0.924600	0.480914
Cl120	Cl	-0.475445	1.173859	1.138228
Cl121	Cl	-0.132898	0.288675	1.480820
H122	H	-0.000015	0.240695	1.679680
H123	H	-0.412690	0.731245	0.854224
H124	H	0.519688	0.430987	1.311246
Cl125	Cl	0.133001	1.173871	0.529738
H126	H	-0.106736	1.158437	0.311235
H127	H	0.306025	0.430982	0.898443
Cl128	Cl	0.117840	0.559951	0.405990
Cl129	Cl	-0.524352	1.016052	0.746677
Cl130	Cl	-0.132801	0.924610	0.263876
H131	H	0.106895	0.294713	0.898452
Cl132	Cl	0.717031	0.209720	1.722323
H133	H	0.674510	0.240687	1.005272
Cl134	Cl	0.741473	0.288616	1.480933
H135	H	0.106911	1.031507	0.699338
Cl136	Cl	0.132984	0.152325	0.872388
Cl137	Cl	0.000105	1.252840	0.288300
Cl138	Cl	-0.132862	0.446510	1.263851
Cl139	Cl	0.132911	0.288618	1.746697
H140	H	0.106881	0.430990	1.524908
Cl141	Cl	-0.716885	1.252815	1.005358
Cl142	Cl	0.117781	0.559928	0.840064
Cl143	Cl	-0.475459	1.173874	0.263900
H144	H	0.224605	0.404536	0.817069
H145	H	-0.325520	0.731285	1.171823
H146	H	0.519644	0.431016	1.112088
H147	H	0.480485	0.304104	0.898447
H148	H	0.224630	0.404536	0.642626
H149	H	0.305997	0.431019	1.524863
H150	H	0.480391	0.304160	1.699294
H151	H	-0.305864	1.031503	0.485695
H152	H	-0.106760	0.294700	1.112104
Cl153	Cl	-0.132827	1.016049	0.480853
Cl154	Cl	-0.258484	1.016022	1.138193
H155	H	-0.412746	0.731286	1.322878
Cl156	Cl	-0.716897	1.252849	0.288235
Cl157	Cl	-0.608480	0.731278	1.359751
H158	H	-0.693960	1.158418	0.898511
H159	H	-0.693965	1.158443	0.524853
H160	H	-0.519552	1.031537	0.898467
H161	H	-0.587135	0.731246	0.854213
Cl162	Cl	-0.716972	0.731254	1.171810
