data_functionalizedCrystal
_audit_creation_method	'MofGen! by Chris Wilmer'
_symmetry_space_group_name_H-M	'P1'
_symmetry_Int_Tables_number	1
_symmetry_cell_setting	triclinic
loop_
_symmetry_equiv_pos_as_xyz
  x,y,z
_cell_length_a	23.532407
_cell_length_b	23.532407
_cell_length_c	9.565339
_cell_angle_alpha	89.995586
_cell_angle_beta	90.001814
_cell_angle_gamma	82.848678
loop_
_atom_site_label
_atom_site_type_symbol
_atom_site_fract_x
_atom_site_fract_y
_atom_site_fract_z
O1	O	0.755259	0.069131	-0.116100
O2	O	0.589396	0.079134	-0.116143
O3	O	0.677329	-0.008799	-0.116094
O4	O	0.667326	0.157064	-0.116148
O5	O	0.677322	-0.008794	0.116426
O6	O	0.589389	0.079139	0.116377
O7	O	0.755252	0.069136	0.116421
Zn8	Zn	0.672319	0.074139	0.153317
Zn9	Zn	0.672329	0.074131	-0.153039
O10	O	0.667319	0.157070	0.116372
C11	C	0.568176	0.078882	0.000112
C12	C	0.504959	0.078116	0.000097
C13	C	0.105856	0.125350	0.000145
C14	C	0.046456	0.124638	0.000154
O15	O	0.009711	0.168424	0.000190
N16	N	0.023830	0.072362	0.000168
C17	C	0.060607	0.020794	0.000188
O18	O	0.035908	-0.023737	0.000203
C19	C	0.120006	0.021506	0.000190
C20	C	0.142629	0.073785	0.000161
C21	C	0.128479	0.177625	0.000118
C22	C	0.187876	0.178336	0.000106
C23	C	0.224649	0.126772	0.000122
C24	C	0.202025	0.074497	0.000149
C25	C	0.156783	-0.030062	0.000220
C26	C	0.216185	-0.029345	0.000222
C27	C	0.238808	0.022934	0.000193
C28	C	0.298194	0.023643	0.000154
N29	N	0.320820	0.075920	0.000139
C30	C	0.284048	0.127484	0.000123
C31	C	-0.064135	0.019302	0.000188
C32	C	-0.123533	0.018589	0.000177
C33	C	-0.137680	0.122434	0.000145
C34	C	-0.078281	0.123146	0.000146
C35	C	-0.041509	0.071578	0.000174
C36	C	0.408784	0.128974	0.000098
C37	C	0.468186	0.129680	0.000081
C38	C	0.482329	0.025836	0.000121
C39	C	0.422932	0.025129	0.000130
C40	C	0.386160	0.076702	0.000124
O41	O	0.334974	-0.020119	0.000123
O42	O	0.308755	0.172007	0.000127
C43	C	0.677071	-0.030013	0.000169
C44	C	0.676305	-0.093230	0.000180
C45	C	0.723539	-0.492333	0.000116
C46	C	0.722827	-0.551733	0.000105
O47	O	0.766613	-0.588478	0.000065
N48	N	0.670551	-0.574359	0.000092
C49	C	0.618983	-0.537582	0.000076
O50	O	0.574452	-0.562281	0.000063
C51	C	0.619695	-0.478182	0.000077
C52	C	0.671974	-0.455560	0.000104
C53	C	0.775814	-0.469710	0.000141
C54	C	0.776525	-0.410313	0.000154
C55	C	0.724961	-0.373540	0.000142
C56	C	0.672685	-0.396164	0.000117
C57	C	0.568127	-0.441406	0.000051
C58	C	0.568844	-0.382004	0.000051
C59	C	0.621123	-0.359381	0.000078
C60	C	0.621832	-0.299995	0.000119
N61	N	0.674109	-0.277368	0.000131
C62	C	0.725673	-0.314141	0.000143
C63	C	0.617491	-0.662324	0.000072
C64	C	0.616778	-0.721722	0.000081
C65	C	0.720623	-0.735869	0.000107
C66	C	0.721335	-0.676470	0.000108
C67	C	0.669767	-0.639698	0.000085
C68	C	0.727163	-0.189405	0.000173
C69	C	0.727869	-0.130003	0.000192
C70	C	0.624025	-0.115860	0.000158
C71	C	0.623318	-0.175257	0.000147
C72	C	0.674891	-0.212029	0.000149
O73	O	0.578070	-0.263215	0.000153
O74	O	0.770196	-0.289433	0.000138
C75	C	0.776472	0.069388	0.000163
C76	C	0.839689	0.070154	0.000169
C77	C	0.667577	0.178283	0.000105
C78	C	0.668343	0.241500	0.000086
N79	N	0.672317	0.074143	0.362396
N80	N	0.672335	0.074122	-0.362118
C81	C	0.631639	0.114796	0.453577
C82	C	0.683041	0.125556	0.546765
C83	C	0.620937	0.063388	0.546763
C84	C	0.723745	0.084929	0.453532
C85	C	0.661608	0.022738	0.453523
C86	C	0.713047	0.033476	0.546669
H87	H	0.770443	-0.111587	0.000217
O88	O	0.649575	-0.034814	0.399209
H89	H	0.606872	-0.043636	0.436479
H90	H	0.577479	0.054300	0.587719
H91	H	0.486602	0.172255	0.000057
H92	H	-0.167632	0.164421	0.000139
O93	O	0.560389	-0.746116	0.000079
H94	H	0.568550	-0.793598	0.000087
H95	H	0.404512	-0.017441	0.000133
O96	O	0.566929	-0.199656	0.000134
H97	H	0.564114	-0.226383	0.094902
H98	H	0.692112	0.169019	0.587721
O99	O	0.782788	-0.229059	0.000186
H100	H	0.784943	-0.256465	0.094952
O101	O	0.088821	0.233245	0.000095
H102	H	0.114541	0.269709	0.000067
O103	O	0.832917	-0.385924	0.000157
H104	H	0.835737	-0.359209	0.094933
H105	H	0.378851	0.170970	0.000098
H106	H	0.525555	-0.459814	0.000021
H107	H	0.747493	-0.000914	0.587286
O108	O	0.781327	0.097036	0.399537
H109	H	0.775728	0.136532	0.334978
H110	H	0.246123	-0.071339	0.000245
H111	H	0.206289	0.220908	0.000082
H112	H	-0.059867	0.165717	0.000131
H113	H	-0.141947	-0.023982	0.000179
H114	H	0.762610	-0.765821	0.000111
H115	H	0.526850	-0.352066	0.000030
O116	O	-0.024473	-0.036321	0.000197
H117	H	-0.050191	-0.072787	0.000196
O118	O	0.777723	-0.652074	0.000109
H119	H	0.802484	-0.666875	0.094879
O120	O	0.132391	-0.086450	0.000257
H121	H	0.105667	-0.089252	0.095030
H122	H	0.512280	-0.016146	0.000128
O123	O	0.831436	-0.509365	0.000176
H124	H	0.856479	-0.501349	-0.094574
O125	O	0.561866	-0.622665	0.000087
H126	H	0.536830	-0.630675	-0.094680
O127	O	0.568410	-0.076193	0.000151
H128	H	0.566257	-0.048792	-0.094624
O129	O	0.586113	0.160370	0.399411
H130	H	0.595152	0.202991	0.436756
