data_functionalizedCrystal
_audit_creation_method	'MofGen! by Chris Wilmer'
_symmetry_space_group_name_H-M	'P1'
_symmetry_Int_Tables_number	1
_symmetry_cell_setting	triclinic
loop_
_symmetry_equiv_pos_as_xyz
  x,y,z
_cell_length_a	18.215407
_cell_length_b	16.625545
_cell_length_c	18.215399
_cell_angle_alpha	89.973113
_cell_angle_beta	89.982632
_cell_angle_gamma	90.023001
loop_
_atom_site_label
_atom_site_type_symbol
_atom_site_fract_x
_atom_site_fract_y
_atom_site_fract_z
Zn1	Zn	1.125068	-0.321065	-0.416073
Zn2	Zn	1.458402	0.012268	-0.082740
Zn3	Zn	1.791735	0.345602	0.250594
Zn4	Zn	1.124975	-0.455905	-0.293009
Zn5	Zn	1.458309	-0.122572	0.040324
Zn6	Zn	1.791642	0.210761	0.373658
Zn7	Zn	1.002001	-0.321084	-0.293026
Zn8	Zn	1.335334	0.012249	0.040308
Zn9	Zn	1.668668	0.345582	0.373641
Zn10	Zn	1.001965	-0.455853	-0.416039
Zn11	Zn	1.335299	-0.122520	-0.082706
Zn12	Zn	1.668632	0.210813	0.250628
O13	O	1.063503	-0.388477	-0.354537
O14	O	1.396836	-0.055144	-0.021203
O15	O	1.730169	0.278190	0.312130
O16	O	1.228040	-0.338965	-0.399755
O17	O	1.561374	-0.005632	-0.066422
O18	O	1.894707	0.327701	0.266911
O19	O	1.108639	-0.438051	-0.190027
O20	O	1.441972	-0.104717	0.143307
O21	O	1.775305	0.228616	0.476640
O22	O	1.018380	-0.208249	-0.309369
O23	O	1.351713	0.125084	0.023964
O24	O	1.685047	0.458417	0.357298
O25	O	1.227972	-0.438032	-0.309341
O26	O	1.561305	-0.104699	0.023993
O27	O	1.894639	0.228635	0.357326
O28	O	1.108797	-0.208235	-0.399772
O29	O	1.442130	0.125098	-0.066438
O30	O	1.775464	0.458432	0.266895
O31	O	1.018290	-0.338998	-0.190039
O32	O	1.351623	-0.005665	0.143294
O33	O	1.684956	0.327668	0.476628
O34	O	0.899012	-0.338948	-0.309336
O35	O	1.232345	-0.005615	0.023997
O36	O	1.565679	0.327719	0.357330
O37	O	1.018319	-0.437943	-0.519028
O38	O	1.351653	-0.104610	-0.185695
O39	O	1.684986	0.228723	0.147639
O40	O	0.898986	-0.437962	-0.399714
O41	O	1.232319	-0.104629	-0.066381
O42	O	1.565653	0.228705	0.266953
O43	O	1.108763	-0.338915	-0.519053
O44	O	1.442096	-0.005582	-0.185719
O45	O	1.775429	0.327752	0.147614
O46	O	1.108604	-0.568731	-0.309308
O47	O	1.441937	-0.235397	0.024025
O48	O	1.775271	0.097936	0.357359
O49	O	1.018229	-0.568693	-0.399698
O50	O	1.351563	-0.235359	-0.066364
O51	O	1.684896	0.097974	0.266969
C52	C	0.872296	-0.388452	-0.354524
C53	C	1.205630	-0.055119	-0.021190
C54	C	1.538963	0.278215	0.312143
C55	C	0.790497	-0.388461	-0.354536
C56	C	1.123831	-0.055128	-0.021202
C57	C	1.457164	0.278206	0.312131
C58	C	0.602338	-0.336983	-0.401689
C59	C	0.935671	-0.003650	-0.068356
C60	C	1.269005	0.329684	0.264978
C61	C	0.525479	-0.336990	-0.401691
C62	C	0.858813	-0.003657	-0.068358
C63	C	1.192146	0.329677	0.264975
C64	C	0.525419	-0.439993	-0.307397
C65	C	0.858752	-0.106660	0.025936
C66	C	1.192086	0.226673	0.359269
C67	C	0.602276	-0.439982	-0.307392
C68	C	0.935610	-0.106648	0.025942
C69	C	1.268943	0.226685	0.359275
C70	C	0.640734	-0.388478	-0.354542
C71	C	0.974067	-0.055145	-0.021208
C72	C	1.307401	0.278189	0.312125
C73	C	0.487018	-0.388496	-0.354550
C74	C	0.820351	-0.055163	-0.021216
C75	C	1.153685	0.278170	0.312117
C76	C	0.403684	-0.388504	-0.354552
C77	C	0.737018	-0.055171	-0.021219
C78	C	1.070351	0.278162	0.312115
C79	C	0.724073	-0.388469	-0.354539
C80	C	1.057406	-0.055135	-0.021205
C81	C	1.390740	0.278198	0.312128
C82	C	1.063423	-0.597968	-0.354513
C83	C	1.396756	-0.264634	-0.021180
C84	C	1.730089	0.068699	0.312153
C85	C	1.063456	-0.687589	-0.354528
C86	C	1.396789	-0.354256	-0.021195
C87	C	1.730122	-0.020922	0.312139
C88	C	1.063484	-0.760371	-0.354543
C89	C	1.396818	-0.427038	-0.021209
C90	C	1.730151	-0.093705	0.312124
C91	C	1.063527	-0.851680	-0.354559
C92	C	1.396861	-0.518346	-0.021226
C93	C	1.730194	-0.185013	0.312108
C94	C	1.063565	-0.924456	-0.354568
C95	C	1.396899	-0.591123	-0.021235
C96	C	1.730232	-0.257789	0.312098
C97	C	1.063607	-1.015770	-0.354583
C98	C	1.396941	-0.682437	-0.021250
C99	C	1.730274	-0.349104	0.312083
C100	C	1.255455	-0.388502	-0.354550
C101	C	1.588789	-0.055169	-0.021217
C102	C	1.922122	0.278164	0.312117
C103	C	1.337254	-0.388513	-0.354556
C104	C	1.670588	-0.055180	-0.021222
C105	C	2.003921	0.278153	0.312111
C106	C	1.063547	-0.388421	-0.546490
C107	C	1.396881	-0.055088	-0.213156
C108	C	1.730214	0.278245	0.120177
C109	C	1.063567	-0.388398	-0.628289
C110	C	1.396900	-0.055064	-0.294955
C111	C	1.730233	0.278269	0.038378
C112	C	1.063603	-0.178168	-0.354576
C113	C	1.396936	0.155165	-0.021243
C114	C	1.730270	0.488499	0.312091
C115	C	1.063646	-0.088547	-0.354593
C116	C	1.396979	0.244787	-0.021259
C117	C	1.730312	0.578120	0.312074
C118	C	1.110677	-0.336785	-0.816497
C119	C	1.444011	-0.003452	-0.483163
C120	C	1.777344	0.329881	-0.149830
C121	C	1.110686	-0.336762	-0.893355
C122	C	1.444019	-0.003428	-0.560022
C123	C	1.777353	0.329905	-0.226689
C124	C	1.016508	-0.439885	-0.893318
C125	C	1.349841	-0.106552	-0.559985
C126	C	1.683175	0.226781	-0.226652
C127	C	1.016496	-0.439904	-0.816461
C128	C	1.349829	-0.106571	-0.483128
C129	C	1.683163	0.226763	-0.149794
C130	C	1.063585	-0.388355	-0.778052
C131	C	1.396918	-0.055022	-0.444719
C132	C	1.730251	0.278311	-0.111385
C133	C	1.063606	-0.388313	-0.931768
C134	C	1.396939	-0.054980	-0.598435
C135	C	1.730272	0.278354	-0.265102
C136	C	1.063615	-0.388288	-1.015102
C137	C	1.396948	-0.054955	-0.681769
C138	C	1.730281	0.278379	-0.348435
C139	C	1.063575	-0.388379	-0.694713
C140	C	1.396908	-0.055046	-0.361380
C141	C	1.730242	0.278288	-0.028046
C142	C	1.063500	-0.388474	-0.163330
C143	C	1.396834	-0.055141	0.170003
C144	C	1.730167	0.278193	0.503336
C145	C	1.063624	-0.388271	-0.081532
C146	C	1.396957	-0.054937	0.251801
C147	C	1.730290	0.278396	0.585135
H148	H	0.633648	-0.295043	-0.440079
H149	H	0.966981	0.038291	-0.106746
H150	H	1.300315	0.371624	0.226588
H151	H	0.633539	-0.481916	-0.268995
H152	H	0.966873	-0.148582	0.064339
H153	H	1.300206	0.184751	0.397672
H154	H	0.978171	-0.481856	-0.924600
H155	H	1.311505	-0.148523	-0.591267
H156	H	1.644838	0.184811	-0.257934
H157	H	1.149032	-0.294767	-0.924654
H158	H	1.482366	0.038566	-0.591320
H159	H	1.815699	0.371900	-0.257987
N160	N	0.484066	-0.281441	-0.452534
N161	N	0.817399	0.051893	-0.119201
N162	N	1.150732	0.385226	0.214132
H163	H	0.520093	-0.248811	-0.482398
H164	H	0.853427	0.084522	-0.149065
H165	H	1.186760	0.417856	0.184268
H166	H	0.452176	-0.314305	-0.486543
H167	H	0.785509	0.019028	-0.153210
H168	H	1.118843	0.352362	0.180123
N169	N	0.483940	-0.495539	-0.256543
N170	N	0.817273	-0.162206	0.076791
N171	N	1.150607	0.171127	0.410124
H172	H	0.429424	-0.487735	-0.263700
H173	H	0.762758	-0.154401	0.069633
H174	H	1.096091	0.178932	0.402967
H175	H	0.497364	-0.553140	-0.267902
H176	H	0.830697	-0.219806	0.065431
H177	H	1.164031	0.113527	0.398764
N178	N	1.161462	-0.281188	-0.775068
N179	N	1.494796	0.052145	-0.441735
N180	N	1.828129	0.385478	-0.108402
H181	H	1.191295	-0.248515	-0.811088
H182	H	1.524629	0.084818	-0.477755
H183	H	1.857962	0.418152	-0.144422
H184	H	1.131518	-0.243880	-0.743183
H185	H	1.464851	0.089454	-0.409849
H186	H	1.798185	0.422787	-0.076516
N187	N	0.965686	-0.495512	-0.774989
N188	N	1.299019	-0.162179	-0.441656
N189	N	1.632353	0.171155	-0.108322
H190	H	0.935857	-0.528165	-0.810982
H191	H	1.269190	-0.194832	-0.477649
H192	H	1.602524	0.138502	-0.144315
H193	H	0.995609	-0.532840	-0.743088
H194	H	1.328942	-0.199507	-0.409755
H195	H	1.662276	0.133827	-0.076421
