data_functionalizedCrystal
_audit_creation_method	'MofGen! by Chris Wilmer'
_symmetry_space_group_name_H-M	'P1'
_symmetry_Int_Tables_number	1
_symmetry_cell_setting	triclinic
loop_
_symmetry_equiv_pos_as_xyz
  x,y,z
_cell_length_a	17.699083
_cell_length_b	17.699083
_cell_length_c	16.776229
_cell_angle_alpha	90.001114
_cell_angle_beta	89.992455
_cell_angle_gamma	96.716985
loop_
_atom_site_label
_atom_site_type_symbol
_atom_site_fract_x
_atom_site_fract_y
_atom_site_fract_z
O1	O	0.095713	-1.004078	-0.066178
O2	O	0.108165	-0.783700	-0.066204
O3	O	-0.008250	-0.900116	-0.066183
O4	O	0.212128	-0.887663	-0.066199
O5	O	-0.008257	-0.900100	0.066393
O6	O	0.108158	-0.783685	0.066372
O7	O	0.095706	-1.004063	0.066398
Zn8	Zn	0.101931	-0.893871	0.087435
Zn9	Zn	0.101940	-0.893892	-0.087241
O10	O	0.212121	-0.887648	0.066378
C11	C	0.107716	-0.755495	0.000081
C12	C	0.106377	-0.671477	0.000071
C13	C	-0.036451	-0.899662	0.000105
C14	C	-0.120469	-0.898323	0.000105
C15	C	0.096156	-1.032268	0.000112
C16	C	0.097494	-1.116286	0.000116
C17	C	-0.169090	-0.966656	0.000114
C18	C	-0.248033	-0.965394	0.000107
C19	C	-0.278354	-0.895798	0.000096
C20	C	-0.229727	-0.827459	0.000085
C21	C	-0.150785	-0.828722	0.000086
C22	C	-0.548090	-0.822364	0.000078
C23	C	-0.627038	-0.821106	0.000078
C24	C	-0.645338	-0.959036	0.000099
C25	C	-0.566396	-0.960299	0.000100
C26	C	-0.517776	-0.891961	0.000084
C27	C	-0.432177	-0.893330	0.000090
C28	C	-0.363951	-0.894427	0.000096
C29	C	0.240322	-0.888102	0.000087
C30	C	0.324340	-0.889440	0.000082
N31	N	0.101924	-0.893863	0.206646
C32	C	0.174710	-0.622856	0.000066
C33	C	0.173448	-0.543913	0.000077
C34	C	0.103852	-0.513592	0.000086
C35	C	0.035513	-0.562219	0.000093
C36	C	0.036776	-0.641161	0.000088
C37	C	0.030418	-0.243856	0.000113
C38	C	0.029160	-0.164908	0.000115
C39	C	0.167090	-0.146608	0.000101
C40	C	0.168353	-0.225550	0.000097
C41	C	0.100015	-0.274170	0.000108
C42	C	0.101384	-0.359769	0.000098
C43	C	0.102481	-0.427995	0.000090
N44	N	0.101941	-0.893906	-0.206452
C45	C	0.050396	-0.945428	0.248372
C46	C	0.050396	-0.945432	0.331824
C47	C	0.101927	-0.893875	0.373549
C48	C	0.153457	-0.842305	0.331817
C49	C	0.153454	-0.842297	0.248366
C50	C	0.153472	-0.842332	0.668364
C51	C	0.153473	-0.842345	0.751820
C52	C	0.050414	-0.945466	0.751822
C53	C	0.050411	-0.945459	0.668372
C54	C	0.101938	-0.893887	0.626647
C55	C	0.101937	-0.893882	0.536158
C56	C	0.101932	-0.893882	0.464036
H57	H	-0.287618	-1.021038	0.000116
H58	H	-0.651721	-0.764429	0.000071
N59	N	0.209029	-0.786677	0.203363
H60	H	0.262738	-0.795290	0.217871
H61	H	0.201141	-0.794519	0.144180
N62	N	0.209041	-0.786707	0.623366
H63	H	0.241685	-0.754049	0.662464
H64	H	0.242467	-0.815606	0.588727
N65	N	-0.533698	-1.035366	0.000116
H66	H	-0.551431	-1.065302	-0.049027
H67	H	-0.476316	-1.025735	0.000148
H68	H	0.195437	-0.800358	0.785791
N69	N	0.240807	-0.094178	0.000101
H70	H	0.243367	-0.061011	-0.049040
H71	H	0.243319	-0.061071	0.049284
H72	H	0.008456	-0.987457	0.785804
H73	H	0.008452	-0.987444	0.634402
N74	N	-0.697778	-1.032747	0.000116
H75	H	-0.752389	-1.021391	0.000111
H76	H	-0.687969	-1.063094	-0.049025
H77	H	-0.254420	-0.770792	0.000071
N78	N	-0.098340	-0.755020	0.000071
H79	H	-0.129525	-0.710739	0.000065
H80	H	-0.065191	-0.752532	0.049218
N81	N	-0.495655	-0.748660	0.000064
H82	H	-0.526845	-0.704382	0.000061
H83	H	-0.462508	-0.746172	0.049211
H84	H	-0.025228	-0.283434	0.000123
H85	H	0.225025	-0.250232	0.000085
N86	N	0.249776	-0.655557	0.000047
H87	H	0.292873	-0.612774	0.000046
H88	H	0.253305	-0.687915	0.049191
H89	H	0.195412	-0.800322	0.365793
N90	N	-0.136389	-1.041722	0.000134
H91	H	-0.179172	-1.084819	0.000137
H92	H	-0.104027	-1.045258	-0.049012
H93	H	-0.021154	-0.537526	0.000112
H94	H	0.229092	-0.504328	0.000072
H95	H	-0.027517	-0.140225	0.000124
N96	N	-0.036929	-0.693601	0.000097
H97	H	-0.067300	-0.683866	-0.049045
H98	H	-0.025508	-0.748190	0.000127
N99	N	-0.005180	-1.001041	0.203372
H100	H	-0.037823	-1.033706	0.242472
H101	H	-0.038606	-0.972128	0.168757
H102	H	0.008438	-0.987419	0.365798
