data_functionalizedCrystal
_audit_creation_method	'MofGen! by Chris Wilmer'
_symmetry_space_group_name_H-M	'P1'
_symmetry_Int_Tables_number	1
_symmetry_cell_setting	triclinic
loop_
_symmetry_equiv_pos_as_xyz
  x,y,z
_cell_length_a	13.339070
_cell_length_b	16.992695
_cell_length_c	16.053802
_cell_angle_alpha	87.258926
_cell_angle_beta	93.278881
_cell_angle_gamma	103.148759
loop_
_atom_site_label
_atom_site_type_symbol
_atom_site_fract_x
_atom_site_fract_y
_atom_site_fract_z
O1	O	-1.378705	-0.397711	-0.069464
O2	O	-1.079932	-0.345192	-0.069459
O3	O	-1.228121	-0.257049	-0.069455
O4	O	-1.230517	-0.485855	-0.069468
O5	O	-1.219962	-0.261873	0.069404
O6	O	-1.071773	-0.350016	0.069400
O7	O	-1.370546	-0.402535	0.069395
Zn8	Zn	-1.219864	-0.377042	0.091444
Zn9	Zn	-1.230614	-0.370686	-0.091508
O10	O	-1.222358	-0.490679	0.069391
C11	C	-1.037446	-0.338733	-0.000028
C12	C	-0.923006	-0.312289	-0.000026
C13	C	-1.220960	-0.229578	-0.000025
C14	C	-1.211765	-0.140533	-0.000025
C15	C	-1.413032	-0.408995	-0.000037
C16	C	-1.527473	-0.435438	-0.000045
C17	C	-0.574838	-0.517902	-0.000051
C18	C	-0.682359	-0.542749	-0.000056
C19	C	-0.742526	-0.485136	-0.000048
C20	C	-0.695161	-0.402672	-0.000036
C21	C	-0.587629	-0.377821	-0.000038
C22	C	-0.755318	-0.345056	-0.000035
C23	C	-0.707953	-0.262591	-0.000023
C24	C	-0.600431	-0.237745	-0.000024
C25	C	-0.540264	-0.295358	-0.000032
C26	C	-0.862850	-0.369906	-0.000033
C27	C	-0.875641	-0.229826	-0.000020
C28	C	-0.768119	-0.204978	-0.000015
C29	C	-1.229519	-0.518150	-0.000040
C30	C	-1.238714	-0.607194	-0.000046
N31	N	-1.212535	-0.381380	0.216304
C32	C	-1.300479	-0.109593	-0.000026
C33	C	-1.291834	-0.025925	-0.000034
C34	C	-1.194474	0.026800	-0.000035
C35	C	-1.105754	-0.004145	-0.000037
C36	C	-1.114400	-0.087811	-0.000035
C37	C	-1.158640	0.278195	-0.000046
C38	C	-1.150000	0.361866	-0.000045
C39	C	-1.336081	0.340079	-0.000044
C40	C	-1.344718	0.256412	-0.000037
C41	C	-1.255998	0.225475	-0.000043
N42	N	-1.185635	0.112322	-0.000040
N43	N	-1.264838	0.139954	-0.000044
N44	N	-1.237951	-0.366343	-0.216368
C45	C	-1.275616	-0.343899	0.260000
C46	C	-1.270499	-0.346944	0.347406
C47	C	-1.202307	-0.387475	0.391116
C48	C	-1.139220	-0.424957	0.347414
C49	C	-1.144331	-0.421907	0.260009
C50	C	-1.179975	-0.400775	0.652525
C51	C	-1.174870	-0.403824	0.739936
C52	C	-1.306149	-0.325809	0.739922
C53	C	-1.311260	-0.322767	0.652516
C54	C	-1.248168	-0.360245	0.608822
N55	N	-1.197078	-0.390590	0.480460
N56	N	-1.253393	-0.357125	0.519480
H57	H	-0.830075	-0.505373	-0.000054
H58	H	-1.408311	0.365279	-0.000041
H59	H	-1.119337	-0.436832	0.775520
C60	C	-1.388272	0.007508	0.000014
C61	C	-1.475384	-0.056575	0.000045
C62	C	-1.564244	-0.025809	0.000101
H63	H	-1.391766	0.041356	-0.048396
H64	H	-1.385972	0.037992	0.048456
H65	H	-1.477684	-0.087045	-0.048392
H66	H	-1.471924	-0.090429	0.048452
H67	H	-1.561943	0.004675	0.048543
H68	H	-1.567727	0.008039	-0.048310
H69	H	-1.623359	-0.069284	0.000129
C70	C	-0.940778	-0.167142	-0.000052
C71	C	-0.876287	-0.089604	-0.000072
C72	C	-0.936261	-0.031846	-0.000116
H73	H	-0.980156	-0.175497	0.048359
H74	H	-0.985821	-0.172195	-0.048494
H75	H	-0.831262	-0.084553	0.048365
H76	H	-0.836909	-0.081223	-0.048479
H77	H	-0.981304	-0.036899	-0.048557
H78	H	-0.975637	-0.040208	0.048296
H79	H	-0.892514	0.020770	-0.000137
C80	C	-1.450519	0.199303	-0.000075
C81	C	-1.526365	0.244308	-0.000095
C82	C	-1.623841	0.191726	-0.000134
H83	H	-1.455053	0.164517	0.048338
H84	H	-1.460666	0.167898	-0.048514
H85	H	-1.516222	0.275699	0.048339
H86	H	-1.521864	0.279091	-0.048505
H87	H	-1.633988	0.160322	-0.048574
H88	H	-1.628364	0.156943	0.048280
H89	H	-1.675314	0.222254	-0.000156
H90	H	-0.901404	-0.437050	-0.000040
C91	C	-0.733835	-0.632262	-0.000257
C92	C	-0.799358	-0.648127	-0.071717
C93	C	-0.846780	-0.730584	-0.071944
H94	H	-0.772757	-0.646663	0.048103
H95	H	-0.682628	-0.663034	-0.000311
H96	H	-0.850558	-0.617365	-0.071655
H97	H	-0.760462	-0.633745	-0.120088
H98	H	-0.795573	-0.761356	-0.071998
H99	H	-0.885696	-0.744978	-0.023581
H100	H	-0.891235	-0.741360	-0.120432
C101	C	-1.044200	0.418984	-0.000099
C102	C	-0.968353	0.373984	-0.000130
C103	C	-0.870885	0.426573	-0.000192
H104	H	-1.033961	0.450417	0.048310
H105	H	-1.039766	0.453742	-0.048543
H106	H	-0.972784	0.339240	0.048309
H107	H	-0.978557	0.342553	-0.048535
H108	H	-0.866451	0.461332	-0.048635
H109	H	-0.860658	0.458004	0.048218
H110	H	-0.819412	0.396050	-0.000220
C111	C	-1.349685	-0.299818	0.212699
C112	C	-1.403812	-0.267627	0.269678
C113	C	-1.472042	-0.227002	0.226138
H114	H	-1.396956	-0.336610	0.178585
H115	H	-1.311974	-0.257291	0.178634
H116	H	-1.441521	-0.310148	0.303728
H117	H	-1.356568	-0.230823	0.303794
H118	H	-1.434331	-0.184475	0.192073
H119	H	-1.519306	-0.263799	0.192025
H120	H	-1.508768	-0.205149	0.264792
H121	H	-1.026482	0.038792	-0.000043
C122	C	-1.062360	0.244576	-0.000219
C123	C	-1.066064	0.199678	-0.071670
C124	C	-0.977377	0.168704	-0.071863
H125	H	-1.058923	0.210659	0.048147
H126	H	-1.003119	0.287944	-0.000262
H127	H	-1.125289	0.156315	-0.071620
H128	H	-1.069486	0.233578	-0.120047
H129	H	-0.918136	0.212073	-0.071906
H130	H	-0.973947	0.134791	-0.023495
H131	H	-0.979874	0.138244	-0.120346
H132	H	-1.042160	-0.113000	-0.000034
C133	C	-1.338821	-0.306126	0.394886
C134	C	-1.277099	-0.247040	0.445068
C135	C	-1.340004	-0.209412	0.488806
H136	H	-1.382026	-0.345286	0.429038
H137	H	-1.380148	-0.281509	0.356358
H138	H	-1.235790	-0.271657	0.483591
H139	H	-1.233896	-0.207864	0.410937
H140	H	-1.381331	-0.184795	0.450278
H141	H	-1.383206	-0.248577	0.522953
H142	H	-1.298135	-0.169313	0.522853
C143	C	-1.111437	-0.441556	0.605244
C144	C	-1.050648	-0.477723	0.662234
C145	C	-0.987506	-0.515309	0.618706
H146	H	-1.068153	-0.402383	0.571160
H147	H	-1.153131	-0.481704	0.571150
H148	H	-1.008958	-0.437579	0.696313
H149	H	-1.093906	-0.516907	0.696320
H150	H	-1.029201	-0.555458	0.584612
H151	H	-0.944229	-0.476132	0.584623
H152	H	-0.946261	-0.539860	0.657366
H153	H	-1.083690	-0.457955	0.383008
H154	H	-1.379759	-0.152518	-0.000020
H155	H	-1.366787	-0.289763	0.616929
H156	H	-0.525841	-0.564801	-0.000065
H157	H	-1.092963	-0.452427	0.224433
C158	C	-1.374458	-0.284986	0.787410
C159	C	-1.312718	-0.225908	0.837591
C160	C	-1.375605	-0.188273	0.881340
H161	H	-1.417665	-0.324143	0.821562
H162	H	-1.415782	-0.260359	0.748888
H163	H	-1.271411	-0.250534	0.876108
H164	H	-1.269512	-0.186735	0.803459
H165	H	-1.416930	-0.163647	0.842818
H166	H	-1.418809	-0.227436	0.915488
H167	H	-1.333724	-0.148180	0.915387
H168	H	-0.561870	-0.170596	-0.000024
H169	H	-0.452710	-0.275131	-0.000028
H170	H	-0.729540	-0.137833	-0.000012
