data_functionalizedCrystal
_audit_creation_method	'MofGen! by Chris Wilmer'
_symmetry_space_group_name_H-M	'P1'
_symmetry_Int_Tables_number	1
_symmetry_cell_setting	triclinic
loop_
_symmetry_equiv_pos_as_xyz
  x,y,z
_cell_length_a	19.288867
_cell_length_b	16.776229
_cell_length_c	19.288865
_cell_angle_alpha	89.991353
_cell_angle_beta	96.863342
_cell_angle_gamma	90.004265
loop_
_atom_site_label
_atom_site_type_symbol
_atom_site_fract_x
_atom_site_fract_y
_atom_site_fract_z
O1	O	0.921349	0.066269	-0.086653
O2	O	0.719088	0.066278	-0.098340
O3	O	0.826063	0.066258	0.008634
O4	O	0.814374	0.066290	-0.193627
O5	O	0.826051	-0.066319	0.008634
O6	O	0.719076	-0.066298	-0.098340
O7	O	0.921337	-0.066307	-0.086653
Zn8	Zn	0.820205	-0.087352	-0.092496
Zn9	Zn	0.820220	0.087323	-0.092496
O10	O	0.814362	-0.066287	-0.193626
C11	C	0.693206	-0.000009	-0.097964
C12	C	0.616102	-0.000006	-0.096834
C13	C	0.060544	0.072251	-0.088698
C14	C	0.132991	0.072254	-0.089755
C15	C	0.169213	-0.000013	-0.090287
C16	C	0.132984	-0.072289	-0.089743
C17	C	0.060539	-0.072290	-0.088679
C18	C	0.278535	-0.055373	-0.132654
C19	C	0.350979	-0.055369	-0.133723
C20	C	0.392659	-0.000013	-0.093566
C21	C	0.361885	0.055352	-0.052350
C22	C	0.289440	0.055351	-0.051285
C23	C	0.247768	-0.000020	-0.091440
C24	C	0.507436	0.072261	-0.095251
C25	C	0.579885	0.072262	-0.096304
C26	C	0.579876	-0.072283	-0.096299
C27	C	0.507429	-0.072281	-0.095239
C28	C	0.471213	-0.000007	-0.094718
N29	N	0.820199	-0.206563	-0.092495
C30	C	0.862190	-0.248272	-0.134518
C31	C	0.862198	-0.331724	-0.134515
C32	C	0.820210	-0.373466	-0.092493
C33	C	0.778217	-0.331752	-0.050466
C34	C	0.778214	-0.248301	-0.050466
C35	C	0.778231	-0.668299	-0.050467
C36	C	0.778236	-0.751756	-0.050473
C37	C	0.862215	-0.751722	-0.134517
C38	C	0.862212	-0.668271	-0.134516
C39	C	0.820222	-0.626564	-0.092486
C40	C	0.820215	-0.536076	-0.092489
C41	C	0.820213	-0.463953	-0.092494
C42	C	0.947219	-0.000018	-0.087029
C43	C	1.024323	-0.000016	-0.088159
C44	C	0.825681	-0.000033	0.034510
C45	C	0.824552	-0.000040	0.111614
N46	N	0.820232	0.206534	-0.092492
C47	C	0.814744	0.000006	-0.219503
C48	C	0.815873	0.000018	-0.296607
C49	C	0.887320	-0.000046	0.156310
C50	C	0.886259	-0.000034	0.228757
C51	C	0.822427	-0.000030	0.256505
C52	C	0.759651	-0.000019	0.211799
C53	C	0.760713	-0.000024	0.139354
C54	C	0.772243	-0.046467	0.364793
C55	C	0.771183	-0.046467	0.437237
C56	C	0.819147	-0.000012	0.479951
C57	C	0.868183	0.046432	0.450212
C58	C	0.869245	0.046428	0.377767
C59	C	0.821268	-0.000025	0.335059
C60	C	0.880769	-0.000004	0.603202
C61	C	0.879706	0.000013	0.675650
C62	C	0.753096	0.000020	0.658691
C63	C	0.754161	0.000010	0.586245
C64	C	0.818000	-0.000006	0.558505
H65	H	0.376026	-0.100433	-0.167301
H66	H	0.709598	-0.000019	0.102962
O67	O	0.732955	-0.203316	-0.005106
H68	H	0.740024	-0.138275	-0.012147
O69	O	0.953964	-0.000052	0.276973
H70	H	0.942498	-0.000045	0.332009
H71	H	0.244605	-0.100459	-0.165352
O72	O	0.949619	-0.000005	0.573274
H73	H	0.993089	0.000007	0.616529
O74	O	0.172076	0.150197	-0.090338
H75	H	0.151841	0.184851	-0.137473
O76	O	0.907499	-0.623252	-0.179841
H77	H	0.874079	-0.585236	-0.217259
H78	H	0.896407	-0.785690	-0.168737
O79	O	0.021527	-0.150293	-0.088267
H80	H	-0.017750	-0.153663	-0.135174
O81	O	0.732969	-0.796783	-0.005126
H82	H	0.703782	-0.753762	0.024112
O83	O	0.956170	-0.000041	0.126388
H84	H	0.999639	-0.000032	0.169644
H85	H	0.477937	-0.131128	-0.094802
H86	H	0.744041	-0.634351	-0.016244
O87	O	0.021498	0.150209	-0.088103
H88	H	0.029067	0.184887	-0.135630
O89	O	0.172045	-0.150237	-0.090323
H90	H	0.228505	-0.138097	-0.091162
H91	H	0.896377	-0.214291	-0.168741
H92	H	0.731253	-0.084281	0.461444
H93	H	0.733183	-0.084300	0.330021
O94	O	0.907485	-0.376713	-0.179841
H95	H	0.936674	-0.333667	-0.209068
H96	H	0.744034	-0.365745	-0.016248
O97	O	0.256247	0.115046	-0.006821
H98	H	0.297396	0.153535	0.020933
O99	O	0.922118	0.096529	0.345686
H100	H	0.955290	0.128842	0.387552
H101	H	0.907239	0.084260	0.484988
O102	O	0.947408	-0.000001	0.723864
H103	H	0.991974	-0.000022	0.692400
O104	O	0.684245	0.000020	0.688607
H105	H	0.694050	0.000017	0.746492
H106	H	0.703049	0.000011	0.549852
H107	H	0.707678	-0.000015	0.234396
H108	H	0.477947	0.131112	-0.094825
O109	O	0.406828	0.115060	-0.009027
H110	H	0.462375	0.105755	-0.016682
O111	O	0.618958	0.150209	-0.096886
H112	H	0.581600	0.200462	-0.096352
H113	H	0.609367	-0.131125	-0.096729
