data_functionalizedCrystal
_audit_creation_method	'MofGen! by Chris Wilmer'
_symmetry_space_group_name_H-M	'P1'
_symmetry_Int_Tables_number	1
_symmetry_cell_setting	triclinic
loop_
_symmetry_equiv_pos_as_xyz
  x,y,z
_cell_length_a	15.625950
_cell_length_b	14.519731
_cell_length_c	14.750779
_cell_angle_alpha	77.331756
_cell_angle_beta	120.090508
_cell_angle_gamma	83.980850
loop_
_atom_site_label
_atom_site_type_symbol
_atom_site_fract_x
_atom_site_fract_y
_atom_site_fract_z
O1	O	1.286263	0.028421	0.367765
O2	O	1.786263	0.528421	0.867765
O3	O	0.999417	0.067734	0.267946
O4	O	1.499417	0.567734	0.767946
O5	O	1.150437	-0.086825	0.320508
O6	O	1.650437	0.413175	0.820508
O7	O	1.135244	0.182981	0.315203
O8	O	1.635244	0.682981	0.815203
O9	O	1.193129	-0.130513	0.495017
O10	O	1.693129	0.369487	0.995017
O11	O	1.042109	0.024047	0.442455
O12	O	1.542109	0.524047	0.942455
O13	O	1.328955	-0.015266	0.542274
O14	O	1.828955	0.484734	1.042274
Zn15	Zn	1.192310	-0.002546	0.520072
Zn16	Zn	1.692310	0.497454	1.020072
Zn17	Zn	1.136062	0.055014	0.290149
Zn18	Zn	1.636062	0.555014	0.790149
O19	O	1.177935	0.139294	0.489712
O20	O	1.677935	0.639294	0.989712
C21	C	0.984052	0.048436	0.342426
C22	C	1.484052	0.548436	0.842426
C23	C	0.874666	0.056011	0.304361
C24	C	1.374666	0.556011	0.804361
C25	C	0.631137	-0.038066	0.654665
C26	C	1.131137	0.461934	1.154665
C27	C	0.528338	-0.030918	0.618848
C28	C	1.028338	0.469082	1.118848
C29	C	0.481848	0.016705	0.428624
C30	C	0.981848	0.516705	0.928624
C31	C	0.584645	0.009566	0.464425
C32	C	1.084645	0.509566	0.964425
C33	C	0.659283	-0.017821	0.577447
C34	C	1.159283	0.482179	1.077447
C35	C	0.612791	0.029811	0.387206
C36	C	1.112791	0.529811	0.887206
C37	C	0.715580	0.022667	0.423004
C38	C	1.215580	0.522667	0.923004
C39	C	0.790223	-0.004722	0.536022
C40	C	1.290223	0.495278	1.036022
C41	C	0.762072	-0.024965	0.613245
C42	C	1.262072	0.475035	1.113245
C43	C	0.538153	0.057191	0.274184
C44	C	1.038153	0.557191	0.774184
C45	C	0.566298	0.077436	0.196966
C46	C	1.066298	0.577436	0.696966
C47	C	0.669088	0.070299	0.232764
C48	C	1.169088	0.570299	0.732764
C49	C	0.743731	0.042910	0.345781
C50	C	1.243731	0.542910	0.845781
C51	C	0.697239	0.090542	0.155540
C52	C	1.197239	0.590542	0.655540
C53	C	0.800028	0.083398	0.191339
C54	C	1.300028	0.583398	0.691339
C55	C	0.846520	0.035766	0.381580
C56	C	1.346520	0.535766	0.881580
C57	C	1.171071	-0.142967	0.407515
C58	C	1.671071	0.357033	0.907515
C59	C	1.168939	-0.245161	0.406773
C60	C	1.668939	0.254839	0.906773
C61	C	1.167205	-0.328153	0.406168
C62	C	1.667205	0.171847	0.906168
C63	C	1.165038	-0.432270	0.405407
C64	C	1.665038	0.067730	0.905407
C65	C	1.163318	-0.515257	0.404802
C66	C	1.663318	-0.015257	0.904802
C67	C	1.161151	-0.619382	0.404042
C68	C	1.661151	-0.119382	0.904042
C69	C	1.344319	0.004032	0.467792
C70	C	1.844319	0.504032	0.967792
C71	C	1.453704	-0.003540	0.505850
C72	C	1.953704	0.496460	1.005850
C73	C	1.157301	0.195435	0.402703
C74	C	1.657301	0.695435	0.902703
C75	C	1.159431	0.297631	0.403438
C76	C	1.659431	0.797631	0.903438
N77	N	1.230705	-0.041831	0.676990
N78	N	1.730705	0.458169	1.176990
N79	N	1.097675	0.094291	0.133233
N80	N	1.597675	0.594291	0.633233
C81	C	0.990444	0.203967	0.945187
C82	C	1.490444	0.703967	1.445187
C83	C	1.017356	0.176444	1.055053
C84	C	1.517356	0.676444	1.555053
C85	C	1.151111	0.039625	1.101568
C86	C	1.651111	0.539625	1.601568
C87	C	1.124207	0.067134	0.991703
C88	C	1.624207	0.567134	1.491703
C89	C	1.043874	0.149306	0.913521
C90	C	1.543874	0.649306	1.413521
C91	C	1.177637	0.012473	0.960037
C92	C	1.677637	0.512473	1.460037
C93	C	1.150738	0.039983	0.850183
C94	C	1.650738	0.539983	1.350183
C95	C	1.070410	0.122153	0.771995
C96	C	1.570410	0.622153	1.271995
C97	C	1.016975	0.176816	0.803666
C98	C	1.516975	0.676816	1.303666
C99	C	1.257975	-0.069695	1.038223
C100	C	1.757975	0.430305	1.538223
C101	C	1.311405	-0.124356	1.006557
C102	C	1.811405	0.375644	1.506557
C103	C	1.284502	-0.096850	0.896699
C104	C	1.784502	0.403150	1.396699
C105	C	1.204174	-0.014680	0.818511
C106	C	1.704174	0.485320	1.318511
C107	C	1.337937	-0.151513	0.865027
C108	C	1.837937	0.348487	1.365027
C109	C	1.311038	-0.124003	0.755173
C110	C	1.811038	0.375997	1.255173
C111	C	1.177275	0.012830	0.708657
C112	C	1.677275	0.512830	1.208657
H113	H	0.873920	-0.010539	0.565167
H114	H	1.373920	0.489461	1.065167
F115	F	0.931464	0.264266	0.720451
F116	F	1.431464	0.764266	1.220451
F117	F	0.904933	0.291418	0.861972
F118	F	1.404933	0.791418	1.361972
H119	H	0.822943	0.099888	0.128459
H120	H	1.322943	0.599888	0.628459
H121	H	0.822845	-0.047252	0.705279
H122	H	1.322845	0.452748	1.205279
H123	H	1.048513	0.144553	0.682546
H124	H	1.548513	0.644553	1.182546
H125	H	1.279876	-0.092087	1.127673
H126	H	1.779876	0.407913	1.627673
F127	F	0.960481	0.234633	1.088744
F128	F	1.460481	0.734633	1.588744
F129	F	1.396903	-0.211805	1.089773
F130	F	1.896903	0.288195	1.589773
H131	H	1.216522	-0.027278	1.165237
H132	H	1.716522	0.472722	1.665237
F133	F	1.423441	-0.238957	0.948248
F134	F	1.923441	0.261043	1.448248
H135	H	0.421066	0.038999	0.336601
H136	H	0.921066	0.538999	0.836601
F137	F	0.925960	0.006628	0.501871
F138	F	1.425960	0.506628	1.001871
H139	H	1.354548	-0.168514	0.729392
H140	H	1.854548	0.331486	1.229392
H141	H	0.691911	-0.060353	0.746699
H142	H	1.191911	0.439647	1.246699
H143	H	0.454456	0.063011	0.245040
H144	H	0.954456	0.563011	0.745040
H145	H	0.505516	0.099730	0.104943
H146	H	1.005516	0.599730	0.604943
F147	F	0.498391	-0.052481	0.701045
F148	F	0.998391	0.447519	1.201045
H149	H	1.111852	0.079737	0.644993
H150	H	1.611852	0.579737	1.144993
F151	F	0.617798	0.119656	0.035259
F152	F	1.117798	0.619656	0.535259
