data_functionalizedCrystal
_audit_creation_method	'MofGen! by Chris Wilmer'
_symmetry_space_group_name_H-M	'P1'
_symmetry_Int_Tables_number	1
_symmetry_cell_setting	triclinic
loop_
_symmetry_equiv_pos_as_xyz
  x,y,z
_cell_length_a	10.908878
_cell_length_b	10.967829
_cell_length_c	9.482900
_cell_angle_alpha	87.494390
_cell_angle_beta	83.038437
_cell_angle_gamma	72.684712
loop_
_atom_site_label
_atom_site_type_symbol
_atom_site_fract_x
_atom_site_fract_y
_atom_site_fract_z
O1	O	1.713506	-0.205931	-0.069279
O2	O	1.344307	-0.113210	-0.092515
O3	O	1.530330	-0.334435	-0.037083
O4	O	1.527483	0.015295	-0.124711
O5	O	1.492552	-0.289351	0.193412
O6	O	1.306529	-0.068125	0.137980
O7	O	1.675728	-0.160846	0.161217
Cu8	Cu	1.487679	-0.110369	0.170645
Cu9	Cu	1.532356	-0.163687	-0.101943
O10	O	1.489705	0.060379	0.105784
C11	C	1.278013	-0.082002	0.020561
C12	C	1.136758	-0.056197	0.014093
C13	C	1.083013	-0.150357	0.037685
C14	C	0.937020	-0.123688	0.031001
C15	C	1.508380	-0.355964	0.089204
C16	C	1.499242	-0.487277	0.122096
C17	C	1.514739	-0.569170	0.017355
C18	C	1.505296	-0.704889	0.051349
C19	C	1.742023	-0.192055	0.048138
C20	C	1.883279	-0.217862	0.054596
C21	C	1.511656	0.081907	-0.020506
C22	C	1.520795	0.213218	-0.053407
N23	N	1.456265	-0.072871	0.362369
N24	N	1.563780	-0.201197	-0.293665
C25	C	1.523081	-0.152631	0.454553
C26	C	1.496954	-0.121425	0.614151
H27	H	1.145084	-0.250716	0.062824
C28	C	1.787530	-0.324189	0.689576
C29	C	1.667014	-0.324587	0.653227
H30	H	1.851224	-0.400370	0.656742
H31	H	1.809446	-0.252420	0.646760
H32	H	1.783654	-0.319527	0.789882
H33	H	1.670886	-0.329240	0.552919
H34	H	1.645092	-0.396376	0.696037
C35	C	1.576078	-0.736369	0.283879
C36	C	1.477941	-0.745861	0.206389
H37	H	1.559183	-0.761659	0.379592
H38	H	1.656765	-0.790467	0.243246
H39	H	1.578827	-0.650535	0.281367
H40	H	1.475198	-0.831698	0.208892
H41	H	1.397233	-0.691763	0.247033
C42	C	1.273203	0.001353	0.630589
C43	C	1.393607	0.001953	0.667094
H44	H	1.209403	0.077516	0.663284
H45	H	1.277211	-0.003424	0.530293
H46	H	1.251331	-0.070433	0.673455
H47	H	1.415484	0.073735	0.624219
H48	H	1.389601	0.006743	0.767410
C49	C	1.385205	0.156293	0.352114
C50	C	1.352923	0.050504	0.415309
H51	H	1.321397	0.232459	0.384789
H52	H	1.466882	0.156681	0.376884
H53	H	1.389207	0.151491	0.251807
H54	H	1.348930	0.055301	0.515616
H55	H	1.271224	0.050117	0.390549
C56	C	1.594175	-0.381807	0.464718
C57	C	1.626425	-0.275987	0.401563
H58	H	1.657977	-0.457956	0.431985
H59	H	1.590205	-0.377051	0.565012
H60	H	1.512479	-0.382188	0.439965
H61	H	1.708118	-0.275601	0.426324
H62	H	1.630410	-0.280745	0.301246
H63	H	1.074690	0.044160	-0.011059
H64	H	0.945345	-0.318229	0.079734
C65	C	0.898769	0.050146	-0.136859
C66	C	0.853244	0.011803	-0.002954
H67	H	0.847043	0.133787	-0.157822
H68	H	0.985875	0.050002	-0.136807
H69	H	0.894242	-0.007339	-0.206763
H70	H	0.857780	0.069282	0.066953
H71	H	0.766116	0.011956	-0.002995
H72	H	1.541040	-0.756419	-0.168255
H73	H	1.478976	-0.517640	0.236934
C74	C	1.546201	-0.401690	-0.141340
C75	C	1.542123	-0.528202	-0.137675
H76	H	1.563124	-0.376410	-0.237052
H77	H	1.465499	-0.347597	-0.100741
H78	H	1.612762	-0.395273	-0.088730
H79	H	1.475555	-0.534619	-0.190277
H80	H	1.622835	-0.582311	-0.178294
