data_functionalizedCrystal
_audit_creation_method	'MofGen! by Chris Wilmer'
_symmetry_space_group_name_H-M	'P1'
_symmetry_Int_Tables_number	1
_symmetry_cell_setting	triclinic
loop_
_symmetry_equiv_pos_as_xyz
  x,y,z
_cell_length_a	23.532407
_cell_length_b	23.532407
_cell_length_c	16.176319
_cell_angle_alpha	90.011464
_cell_angle_beta	90.002085
_cell_angle_gamma	82.848678
loop_
_atom_site_label
_atom_site_type_symbol
_atom_site_fract_x
_atom_site_fract_y
_atom_site_fract_z
O1	O	0.755262	0.069136	0.068652
O2	O	1.005262	0.319136	0.318652
O3	O	1.255262	0.569136	0.568652
O4	O	1.505262	0.819136	0.818652
O5	O	0.589398	0.079139	0.068677
O6	O	0.839398	0.329139	0.318677
O7	O	1.089398	0.579139	0.568677
O8	O	1.339398	0.829139	0.818677
O9	O	0.677332	-0.008794	0.068649
O10	O	0.927332	0.241206	0.318649
O11	O	1.177332	0.491206	0.568649
O12	O	1.427332	0.741206	0.818649
O13	O	0.667328	0.157070	0.068680
O14	O	0.917328	0.407070	0.318680
O15	O	1.167328	0.657070	0.568680
O16	O	1.417328	0.907070	0.818680
O17	O	0.677320	-0.008799	-0.068845
O18	O	0.927320	0.241201	0.181155
O19	O	1.177320	0.491201	0.431155
O20	O	1.427320	0.741201	0.681155
O21	O	0.589386	0.079134	-0.068816
O22	O	0.839386	0.329134	0.181184
O23	O	1.089386	0.579134	0.431184
O24	O	1.339386	0.829134	0.681184
O25	O	0.755250	0.069131	-0.068841
O26	O	1.005250	0.319131	0.181159
O27	O	1.255250	0.569131	0.431159
O28	O	1.505250	0.819131	0.681159
Cu29	Cu	0.672317	0.074132	-0.081383
Cu30	Cu	0.922317	0.324132	0.168617
Cu31	Cu	1.172317	0.574132	0.418617
Cu32	Cu	1.422317	0.824132	0.668617
Cu33	Cu	0.672331	0.074138	0.081219
Cu34	Cu	0.922331	0.324138	0.331219
Cu35	Cu	1.172331	0.574138	0.581219
Cu36	Cu	1.422331	0.824138	0.831219
O37	O	0.667316	0.157064	-0.068813
O38	O	0.917316	0.407064	0.181187
O39	O	1.167316	0.657064	0.431187
O40	O	1.417316	0.907064	0.681187
C41	C	0.568176	0.078882	-0.000066
C42	C	0.818176	0.328882	0.249934
C43	C	1.068176	0.578882	0.499934
C44	C	1.318176	0.828882	0.749934
C45	C	0.504959	0.078116	-0.000057
C46	C	0.754959	0.328116	0.249943
C47	C	1.004959	0.578116	0.499943
C48	C	1.254959	0.828116	0.749943
C49	C	0.105856	0.125350	-0.000086
C50	C	0.355856	0.375350	0.249914
C51	C	0.605856	0.625350	0.499914
C52	C	0.855856	0.875350	0.749914
C53	C	0.046456	0.124638	-0.000091
C54	C	0.296456	0.374638	0.249909
C55	C	0.546456	0.624638	0.499909
C56	C	0.796456	0.874638	0.749909
O57	O	0.009711	0.168424	-0.000113
O58	O	0.259711	0.418424	0.249887
O59	O	0.509711	0.668424	0.499887
O60	O	0.759711	0.918424	0.749887
N61	N	0.023830	0.072362	-0.000100
N62	N	0.273830	0.322362	0.249900
N63	N	0.523830	0.572362	0.499900
N64	N	0.773830	0.822362	0.749900
C65	C	0.060607	0.020794	-0.000111
C66	C	0.310607	0.270794	0.249889
C67	C	0.560607	0.520794	0.499889
C68	C	0.810607	0.770794	0.749889
O69	O	0.035908	-0.023737	-0.000120
O70	O	0.285908	0.226263	0.249880
O71	O	0.535908	0.476263	0.499880
O72	O	0.785908	0.726263	0.749880
C73	C	0.120006	0.021506	-0.000112
C74	C	0.370006	0.271506	0.249888
C75	C	0.620006	0.521506	0.499888
C76	C	0.870006	0.771506	0.749888
C77	C	0.142629	0.073785	-0.000095
C78	C	0.392629	0.323785	0.249905
C79	C	0.642629	0.573785	0.499905
C80	C	0.892629	0.823785	0.749905
C81	C	0.128479	0.177625	-0.000070
C82	C	0.378479	0.427625	0.249930
C83	C	0.628479	0.677625	0.499930
C84	C	0.878479	0.927625	0.749930
C85	C	0.187876	0.178336	-0.000063
C86	C	0.437876	0.428336	0.249937
C87	C	0.687876	0.678336	0.499937
C88	C	0.937876	0.928336	0.749937
C89	C	0.224649	0.126772	-0.000072
C90	C	0.474649	0.376772	0.249928
C91	C	0.724649	0.626772	0.499928
C92	C	0.974649	0.876772	0.749928
C93	C	0.202025	0.074496	-0.000088
C94	C	0.452025	0.324496	0.249912
C95	C	0.702025	0.574496	0.499912
C96	C	0.952025	0.824496	0.749912
C97	C	0.156783	-0.030062	-0.000130
C98	C	0.406783	0.219938	0.249870
C99	C	0.656783	0.469938	0.499870
C100	C	0.906783	0.719938	0.749870
C101	C	0.216185	-0.029345	-0.000131
C102	C	0.466185	0.220655	0.249869
C103	C	0.716185	0.470655	0.499869
C104	C	0.966185	0.720655	0.749869
C105	C	0.238808	0.022934	-0.000114
C106	C	0.488808	0.272934	0.249886
C107	C	0.738808	0.522934	0.499886
C108	C	0.988808	0.772934	0.749886
C109	C	0.298194	0.023643	-0.000091
C110	C	0.548194	0.273643	0.249909
C111	C	0.798194	0.523643	0.499909
C112	C	1.048194	0.773643	0.749909
N113	N	0.320820	0.075920	-0.000082
N114	N	0.570820	0.325920	0.249918
N115	N	0.820820	0.575920	0.499918
N116	N	1.070820	0.825920	0.749918
C117	C	0.284048	0.127484	-0.000073
C118	C	0.534048	0.377484	0.249927
C119	C	0.784048	0.627484	0.499927
C120	C	1.034048	0.877484	0.749927
C121	C	-0.064135	0.019302	-0.000111
C122	C	0.185865	0.269302	0.249889
C123	C	0.435865	0.519302	0.499889
C124	C	0.685865	0.769302	0.749889
C125	C	-0.123533	0.018589	-0.000105
C126	C	0.126467	0.268589	0.249895
C127	C	0.376467	0.518589	0.499895
C128	C	0.626467	0.768589	0.749895
C129	C	-0.137680	0.122434	-0.000086
C130	C	0.112320	0.372434	0.249914
C131	C	0.362320	0.622434	0.499914
C132	C	0.612320	0.872434	0.749914
C133	C	-0.078281	0.123146	-0.000087
C134	C	0.171719	0.373146	0.249913
C135	C	0.421719	0.623146	0.499913
C136	C	0.671719	0.873146	0.749913
C137	C	-0.041509	0.071578	-0.000103
C138	C	0.208491	0.321578	0.249897
C139	C	0.458491	0.571578	0.499897
C140	C	0.708491	0.821578	0.749897
C141	C	0.408784	0.128974	-0.000058
C142	C	0.658784	0.378974	0.249942
C143	C	0.908784	0.628974	0.499942
C144	C	1.158784	0.878974	0.749942
C145	C	0.468186	0.129680	-0.000048
C146	C	0.718186	0.379680	0.249952
C147	C	0.968186	0.629680	0.499952
C148	C	1.218186	0.879680	0.749952
C149	C	0.482329	0.025836	-0.000071
C150	C	0.732329	0.275836	0.249929
C151	C	0.982329	0.525836	0.499929
C152	C	1.232329	0.775836	0.749929
C153	C	0.422932	0.025129	-0.000077
C154	C	0.672932	0.275129	0.249923
C155	C	0.922932	0.525129	0.499923
C156	C	1.172932	0.775129	0.749923
C157	C	0.386160	0.076702	-0.000073
C158	C	0.636160	0.326702	0.249927
C159	C	0.886160	0.576702	0.499927
C160	C	1.136160	0.826702	0.749927
O161	O	0.334974	-0.020119	-0.000073
O162	O	0.584974	0.229881	0.249927
O163	O	0.834974	0.479881	0.499927
O164	O	1.084974	0.729881	0.749927
O165	O	0.308755	0.172007	-0.000075
O166	O	0.558755	0.422007	0.249925
O167	O	0.808755	0.672007	0.499925
O168	O	1.058755	0.922007	0.749925
C169	C	0.677071	-0.030013	-0.000100
C170	C	0.927071	0.219987	0.249900
C171	C	1.177071	0.469987	0.499900
C172	C	1.427071	0.719987	0.749900
C173	C	0.676305	-0.093230	-0.000106
C174	C	0.926305	0.156770	0.249894
C175	C	1.176305	0.406770	0.499894
C176	C	1.426305	0.656770	0.749894
C177	C	0.776472	0.069388	-0.000096
C178	C	1.026472	0.319388	0.249904
C179	C	1.276472	0.569388	0.499904
C180	C	1.526472	0.819388	0.749904
C181	C	0.839689	0.070154	-0.000100
C182	C	1.089689	0.320154	0.249900
C183	C	1.339689	0.570154	0.499900
C184	C	1.589689	0.820154	0.749900
C185	C	0.723539	-0.492333	-0.000068
C186	C	0.973539	-0.242333	0.249932
C187	C	1.223539	0.007667	0.499932
C188	C	1.473539	0.257667	0.749932
C189	C	0.722827	-0.551733	-0.000062
C190	C	0.972827	-0.301733	0.249938
C191	C	1.222827	-0.051733	0.499938
C192	C	1.472827	0.198267	0.749938
O193	O	0.766613	-0.588478	-0.000038
O194	O	1.016613	-0.338478	0.249962
O195	O	1.266613	-0.088478	0.499962
O196	O	1.516613	0.161522	0.749962
N197	N	0.670551	-0.574359	-0.000055
N198	N	0.920551	-0.324359	0.249945
N199	N	1.170551	-0.074359	0.499945
N200	N	1.420551	0.175641	0.749945
C201	C	0.618983	-0.537582	-0.000045
C202	C	0.868983	-0.287582	0.249955
C203	C	1.118983	-0.037582	0.499955
C204	C	1.368983	0.212418	0.749955
O205	O	0.574452	-0.562281	-0.000037
O206	O	0.824452	-0.312281	0.249963
O207	O	1.074452	-0.062281	0.499963
O208	O	1.324452	0.187719	0.749963
C209	C	0.619695	-0.478182	-0.000046
C210	C	0.869695	-0.228182	0.249954
C211	C	1.119695	0.021818	0.499954
C212	C	1.369695	0.271818	0.749954
C213	C	0.671974	-0.455560	-0.000061
C214	C	0.921974	-0.205560	0.249939
C215	C	1.171974	0.044440	0.499939
C216	C	1.421974	0.294440	0.749939
C217	C	0.775814	-0.469710	-0.000083
C218	C	1.025814	-0.219710	0.249917
C219	C	1.275814	0.030290	0.499917
C220	C	1.525814	0.280290	0.749917
C221	C	0.776525	-0.410313	-0.000091
C222	C	1.026525	-0.160313	0.249909
C223	C	1.276525	0.089687	0.499909
C224	C	1.526525	0.339687	0.749909
C225	C	0.724961	-0.373540	-0.000084
C226	C	0.974961	-0.123540	0.249916
C227	C	1.224961	0.126460	0.499916
C228	C	1.474961	0.376460	0.749916
C229	C	0.672685	-0.396164	-0.000069
C230	C	0.922685	-0.146164	0.249931
C231	C	1.172685	0.103836	0.499931
C232	C	1.422685	0.353836	0.749931
C233	C	0.568127	-0.441406	-0.000030
C234	C	0.818127	-0.191406	0.249970
C235	C	1.068127	0.058594	0.499970
C236	C	1.318127	0.308594	0.749970
C237	C	0.568844	-0.382004	-0.000030
C238	C	0.818844	-0.132004	0.249970
C239	C	1.068844	0.117996	0.499970
C240	C	1.318844	0.367996	0.749970
C241	C	0.621123	-0.359381	-0.000046
C242	C	0.871123	-0.109381	0.249954
C243	C	1.121123	0.140619	0.499954
C244	C	1.371123	0.390619	0.749954
C245	C	0.621832	-0.299995	-0.000070
C246	C	0.871832	-0.049995	0.249930
C247	C	1.121832	0.200005	0.499930
C248	C	1.371832	0.450005	0.749930
N249	N	0.674109	-0.277368	-0.000078
N250	N	0.924109	-0.027368	0.249922
N251	N	1.174109	0.222632	0.499922
N252	N	1.424109	0.472632	0.749922
C253	C	0.725673	-0.314141	-0.000085
C254	C	0.975673	-0.064141	0.249915
C255	C	1.225673	0.185859	0.499915
C256	C	1.475673	0.435859	0.749915
C257	C	0.617491	-0.662324	-0.000043
C258	C	0.867491	-0.412324	0.249957
C259	C	1.117491	-0.162324	0.499957
C260	C	1.367491	0.087676	0.749957
C261	C	0.616778	-0.721722	-0.000048
C262	C	0.866778	-0.471722	0.249952
C263	C	1.116778	-0.221722	0.499952
C264	C	1.366778	0.028278	0.749952
C265	C	0.720623	-0.735869	-0.000063
C266	C	0.970623	-0.485869	0.249937
C267	C	1.220623	-0.235869	0.499937
C268	C	1.470623	0.014131	0.749937
C269	C	0.721335	-0.676470	-0.000064
C270	C	0.971335	-0.426470	0.249936
C271	C	1.221335	-0.176470	0.499936
C272	C	1.471335	0.073530	0.749936
C273	C	0.669767	-0.639698	-0.000050
C274	C	0.919767	-0.389698	0.249950
C275	C	1.169767	-0.139698	0.499950
C276	C	1.419767	0.110302	0.749950
C277	C	0.727163	-0.189405	-0.000102
C278	C	0.977163	0.060595	0.249898
C279	C	1.227163	0.310595	0.499898
C280	C	1.477163	0.560595	0.749898
C281	C	0.727869	-0.130003	-0.000113
C282	C	0.977869	0.119997	0.249887
C283	C	1.227869	0.369997	0.499887
C284	C	1.477869	0.619997	0.749887
C285	C	0.624025	-0.115860	-0.000094
C286	C	0.874025	0.134140	0.249906
C287	C	1.124025	0.384140	0.499906
C288	C	1.374025	0.634140	0.749906
C289	C	0.623318	-0.175257	-0.000087
C290	C	0.873318	0.074743	0.249913
C291	C	1.123318	0.324743	0.499913
C292	C	1.373318	0.574743	0.749913
C293	C	0.674891	-0.212029	-0.000088
C294	C	0.924891	0.037971	0.249912
C295	C	1.174891	0.287971	0.499912
C296	C	1.424891	0.537971	0.749912
O297	O	0.578070	-0.263215	-0.000091
O298	O	0.828070	-0.013215	0.249909
O299	O	1.078070	0.236785	0.499909
O300	O	1.328070	0.486785	0.749909
O301	O	0.770196	-0.289433	-0.000081
O302	O	1.020196	-0.039433	0.249919
O303	O	1.270196	0.210567	0.499919
O304	O	1.520196	0.460567	0.749919
C305	C	0.667577	0.178283	-0.000062
C306	C	0.917577	0.428283	0.249938
C307	C	1.167577	0.678283	0.499938
C308	C	1.417577	0.928283	0.749938
C309	C	0.668343	0.241500	-0.000051
C310	C	0.918343	0.491500	0.249949
C311	C	1.168343	0.741500	0.499949
C312	C	1.418343	0.991500	0.749949
N313	N	0.672311	0.074127	-0.195748
N314	N	0.922311	0.324127	0.054252
N315	N	1.172311	0.574127	0.304252
N316	N	1.422311	0.824127	0.554252
C317	C	0.711260	0.035206	-0.239025
C318	C	0.961260	0.285206	0.010975
C319	C	1.211260	0.535206	0.260975
C320	C	1.461260	0.785206	0.510975
C321	C	0.711262	0.035205	-0.325572
C322	C	0.961262	0.285205	-0.075572
C323	C	1.211262	0.535205	0.174428
C324	C	1.461262	0.785205	0.424428
C325	C	0.672319	0.074129	-0.368841
C326	C	0.922319	0.324129	-0.118841
C327	C	1.172319	0.574129	0.131159
C328	C	1.422319	0.824129	0.381159
C329	C	0.633367	0.113052	-0.325558
C330	C	0.883367	0.363052	-0.075558
C331	C	1.133367	0.613052	0.174442
C332	C	1.383367	0.863052	0.424442
C333	C	0.633361	0.113049	-0.239012
C334	C	0.883361	0.363049	0.010988
C335	C	1.133361	0.613049	0.260988
C336	C	1.383361	0.863049	0.510988
C337	C	0.633386	0.113062	-0.674586
C338	C	0.883386	0.363062	-0.424586
C339	C	1.133386	0.613062	-0.174586
C340	C	1.383386	0.863062	0.075414
C341	C	0.633395	0.113063	-0.761138
C342	C	0.883395	0.363063	-0.511138
C343	C	1.133395	0.613063	-0.261138
C344	C	1.383395	0.863063	-0.011138
C345	C	0.711287	0.035218	-0.761146
C346	C	0.961287	0.285218	-0.511146
C347	C	1.211287	0.535218	-0.261146
C348	C	1.461287	0.785218	-0.011146
C349	C	0.711282	0.035216	-0.674600
C350	C	0.961282	0.285216	-0.424600
C351	C	1.211282	0.535216	-0.174600
C352	C	1.461282	0.785216	0.075400
C353	C	0.672328	0.074136	-0.631325
C354	C	0.922328	0.324136	-0.381325
C355	C	1.172328	0.574136	-0.131325
C356	C	1.422328	0.824136	0.118675
C357	C	0.672324	0.074136	-0.537481
C358	C	0.922324	0.324136	-0.287481
C359	C	1.172324	0.574136	-0.037481
C360	C	1.422324	0.824136	0.212519
C361	C	0.672325	0.074132	-0.462683
C362	C	0.922325	0.324132	-0.212683
C363	C	1.172325	0.574132	0.037317
C364	C	1.422325	0.824132	0.287317
N365	N	0.672342	0.074139	0.195584
N366	N	0.922342	0.324139	0.445584
N367	N	1.172342	0.574139	0.695584
N368	N	1.422342	0.824139	0.945584
H369	H	-0.167632	0.164421	-0.000082
H370	H	0.082368	0.414421	0.249918
H371	H	0.332368	0.664421	0.499918
H372	H	0.582368	0.914421	0.749918
Cl373	Cl	0.760242	-0.013717	-0.620209
Cl374	Cl	1.010242	0.236283	-0.370209
Cl375	Cl	1.260242	0.486283	-0.120209
Cl376	Cl	1.510242	0.736283	0.129791
H377	H	0.742974	0.003512	-0.203801
H378	H	0.992974	0.253512	0.046199
H379	H	1.242974	0.503512	0.296199
H380	H	1.492974	0.753512	0.546199
H381	H	0.206289	0.220908	-0.000049
H382	H	0.456289	0.470908	0.249951
H383	H	0.706289	0.720908	0.499951
H384	H	0.956289	0.970908	0.749951
H385	H	-0.141947	-0.023982	-0.000106
H386	H	0.108053	0.226018	0.249894
H387	H	0.358053	0.476018	0.499894
H388	H	0.608053	0.726018	0.749894
Cl389	Cl	0.528568	-0.038984	-0.000087
Cl390	Cl	0.778568	0.211016	0.249913
Cl391	Cl	1.028568	0.461016	0.499913
Cl392	Cl	1.278568	0.711016	0.749913
H393	H	0.582043	-0.085909	-0.000091
H394	H	0.832043	0.164091	0.249909
H395	H	1.082043	0.414091	0.499909
H396	H	1.332043	0.664091	0.749909
H397	H	0.580748	-0.193677	-0.000097
H398	H	0.830748	0.056323	0.249903
H399	H	1.080748	0.306323	0.499903
H400	H	1.330748	0.556323	0.749903
Cl401	Cl	0.785447	-0.782109	-0.000066
Cl402	Cl	1.035447	-0.532109	0.249934
Cl403	Cl	1.285447	-0.282109	0.499934
Cl404	Cl	1.535447	-0.032109	0.749934
H405	H	0.601669	0.144754	-0.639358
H406	H	0.851669	0.394754	-0.389358
H407	H	1.101669	0.644754	-0.139358
H408	H	1.351669	0.894754	0.110642
H409	H	0.819097	-0.391900	-0.000101
H410	H	1.069097	-0.141900	0.249899
H411	H	1.319097	0.108100	0.499899
H412	H	1.569097	0.358100	0.749899
H413	H	0.404512	-0.017441	-0.000079
H414	H	0.654512	0.232559	0.249921
H415	H	0.904512	0.482559	0.499921
H416	H	1.154512	0.732559	0.749921
Cl417	Cl	0.551053	-0.750154	-0.000044
Cl418	Cl	0.801053	-0.500154	0.249956
Cl419	Cl	1.051053	-0.250154	0.499956
Cl420	Cl	1.301053	-0.000154	0.749956
Cl421	Cl	0.760226	-0.013726	-0.379979
Cl422	Cl	1.010226	0.236274	-0.129979
Cl423	Cl	1.260226	0.486274	0.120021
Cl424	Cl	1.510226	0.736274	0.370021
Cl425	Cl	0.584406	0.161983	-0.379951
Cl426	Cl	0.834406	0.411983	-0.129951
Cl427	Cl	1.084406	0.661983	0.120049
Cl428	Cl	1.334406	0.911983	0.370049
Cl429	Cl	0.840647	-0.515929	-0.000093
Cl430	Cl	1.090647	-0.265929	0.249907
Cl431	Cl	1.340647	-0.015929	0.499907
Cl432	Cl	1.590647	0.234071	0.749907
H433	H	0.601645	0.144742	-0.203777
H434	H	0.851645	0.394742	0.046223
H435	H	1.101645	0.644742	0.296223
H436	H	1.351645	0.894742	0.546223
Cl437	Cl	0.791999	-0.235622	-0.000105
Cl438	Cl	1.041999	0.014378	0.249895
Cl439	Cl	1.291999	0.264378	0.499895
Cl440	Cl	1.541999	0.514378	0.749895
Cl441	Cl	0.496622	0.195408	-0.000024
Cl442	Cl	0.746622	0.445408	0.249976
Cl443	Cl	0.996622	0.695408	0.499976
Cl444	Cl	1.246622	0.945408	0.749976
Cl445	Cl	0.760257	-0.013714	-0.815554
Cl446	Cl	1.010257	0.236286	-0.565554
Cl447	Cl	1.260257	0.486286	-0.315554
Cl448	Cl	1.510257	0.736286	-0.065554
Cl449	Cl	0.584433	0.161999	-0.815532
Cl450	Cl	0.834433	0.411999	-0.565532
Cl451	Cl	1.084433	0.661999	-0.315532
Cl452	Cl	1.334433	0.911999	-0.065532
H453	H	0.378851	0.170970	-0.000058
H454	H	0.628851	0.420970	0.249942
H455	H	0.878851	0.670970	0.499942
H456	H	1.128851	0.920970	0.749942
Cl457	Cl	0.552656	-0.616101	-0.000035
Cl458	Cl	0.802656	-0.366101	0.249965
Cl459	Cl	1.052656	-0.116101	0.499965
Cl460	Cl	1.302656	0.133899	0.749965
Cl461	Cl	-0.049848	0.188872	-0.000068
Cl462	Cl	0.200152	0.438872	0.249932
Cl463	Cl	0.450152	0.688872	0.499932
Cl464	Cl	0.700152	0.938872	0.749932
Cl465	Cl	-0.017912	-0.045533	-0.000122
Cl466	Cl	0.232088	0.204467	0.249878
Cl467	Cl	0.482088	0.454467	0.499878
Cl468	Cl	0.732088	0.704467	0.749878
Cl469	Cl	0.082260	0.242458	-0.000056
Cl470	Cl	0.332260	0.492458	0.249944
Cl471	Cl	0.582260	0.742458	0.499944
Cl472	Cl	0.832260	0.992458	0.749944
Cl473	Cl	0.787061	-0.648037	-0.000083
Cl474	Cl	1.037061	-0.398037	0.249917
Cl475	Cl	1.287061	-0.148037	0.499917
Cl476	Cl	1.537061	0.101963	0.749917
Cl477	Cl	0.128358	-0.095789	-0.000138
Cl478	Cl	0.378358	0.154211	0.249862
Cl479	Cl	0.628358	0.404211	0.499862
Cl480	Cl	0.878358	0.654211	0.749862
H481	H	0.246123	-0.071339	-0.000145
H482	H	0.496123	0.178661	0.249855
H483	H	0.746123	0.428661	0.499855
H484	H	0.996123	0.678661	0.749855
H485	H	0.526850	-0.352066	-0.000018
H486	H	0.776850	-0.102066	0.249982
H487	H	1.026850	0.147934	0.499982
H488	H	1.276850	0.397934	0.749982
Cl489	Cl	0.793597	-0.101567	-0.000132
Cl490	Cl	1.043597	0.148433	0.249868
Cl491	Cl	1.293597	0.398433	0.499868
Cl492	Cl	1.543597	0.648433	0.749868
Cl493	Cl	0.502400	-0.469831	-0.000005
Cl494	Cl	0.752400	-0.219831	0.249995
Cl495	Cl	1.002400	0.030169	0.499995
Cl496	Cl	1.252400	0.280169	0.749995
