data_functionalizedCrystal
_audit_creation_method	'MofGen! by Chris Wilmer'
_symmetry_space_group_name_H-M	'P1'
_symmetry_Int_Tables_number	1
_symmetry_cell_setting	triclinic
loop_
_symmetry_equiv_pos_as_xyz
  x,y,z
_cell_length_a	13.897449
_cell_length_b	18.050590
_cell_length_c	18.050583
_cell_angle_alpha	89.966777
_cell_angle_beta	89.980272
_cell_angle_gamma	90.019379
loop_
_atom_site_label
_atom_site_type_symbol
_atom_site_fract_x
_atom_site_fract_y
_atom_site_fract_z
Zn1	Zn	1.474662	-0.295618	-0.419938
Zn2	Zn	1.974662	0.204382	0.080062
Zn3	Zn	1.474564	-0.419822	-0.295747
Zn4	Zn	1.974564	0.080178	0.204253
Zn5	Zn	1.313361	-0.295653	-0.295759
Zn6	Zn	1.813361	0.204347	0.204241
Zn7	Zn	1.313330	-0.419772	-0.419892
Zn8	Zn	1.813330	0.080228	0.080108
O9	O	1.393979	-0.357716	-0.357834
O10	O	1.893979	0.142284	0.142166
O11	O	1.609631	-0.312100	-0.403478
O12	O	2.109631	0.187900	0.096522
O13	O	1.453152	-0.403387	-0.191824
O14	O	1.953152	0.096613	0.308176
O15	O	1.334812	-0.191723	-0.312256
O16	O	1.834812	0.308277	0.187744
O17	O	1.609558	-0.403353	-0.312235
O18	O	2.109558	0.096647	0.187765
O19	O	1.453319	-0.191698	-0.403490
O20	O	1.953319	0.308302	0.096510
O21	O	1.334717	-0.312160	-0.191833
O22	O	1.834717	0.187840	0.308167
O23	O	1.178376	-0.312111	-0.312211
O24	O	1.678376	0.187889	0.187789
O25	O	1.334759	-0.403267	-0.523823
O26	O	1.834759	0.096733	-0.023823
O27	O	1.178353	-0.403301	-0.403411
O28	O	1.678353	0.096699	0.096589
O29	O	1.453289	-0.312052	-0.523857
O30	O	1.953289	0.187948	-0.023857
O31	O	1.453122	-0.523740	-0.312190
O32	O	1.953122	-0.023740	0.187810
O33	O	1.334664	-0.523703	-0.403399
O34	O	1.834664	-0.023703	0.096601
C35	C	1.143365	-0.357705	-0.357808
C36	C	1.643365	0.142295	0.142192
C37	C	1.036151	-0.357718	-0.357815
C38	C	1.536151	0.142282	0.142185
C39	C	0.949081	-0.357720	-0.357827
C40	C	1.449081	0.142280	0.142173
C41	C	0.839849	-0.357726	-0.357850
C42	C	1.339849	0.142274	0.142150
C43	C	1.393905	-0.550668	-0.357804
C44	C	1.893905	-0.050668	0.142196
C45	C	1.393962	-0.633214	-0.357817
C46	C	1.893962	-0.133214	0.142183
C47	C	1.458513	-0.832658	-0.308286
C48	C	1.958513	-0.332658	0.191714
C49	C	1.482073	-0.881985	-0.376067
C50	C	1.982073	-0.381985	0.123933
C51	C	1.394017	-0.784345	-0.357846
C52	C	1.894017	-0.284345	0.142154
C53	C	1.370555	-0.882099	-0.290096
C54	C	1.870555	-0.382099	0.209904
C55	C	1.394071	-0.930330	-0.357869
C56	C	1.894071	-0.430330	0.142131
C57	C	1.417622	-0.832584	-0.425662
C58	C	1.917622	-0.332584	0.074338
C59	C	1.306062	-0.832695	-0.339646
C60	C	1.806062	-0.332695	0.160354
C61	C	1.329589	-0.881999	-0.407473
C62	C	1.829589	-0.381999	0.092527
C63	C	1.393987	-0.700246	-0.357832
C64	C	1.893987	-0.200246	0.142168
C65	C	1.394100	-1.014426	-0.357890
C66	C	1.894100	-0.514426	0.142110
C67	C	1.645572	-0.357728	-0.357860
C68	C	2.145572	0.142272	0.142140
C69	C	1.752786	-0.357733	-0.357872
C70	C	2.252786	0.142267	0.142128
C71	C	1.394032	-0.357650	-0.551540
C72	C	1.894032	0.142350	-0.051540
C73	C	1.394054	-0.357622	-0.634085
C74	C	1.894054	0.142378	-0.134085
C75	C	1.394080	-0.164011	-0.357880
C76	C	1.894080	0.335989	0.142120
C77	C	1.394123	-0.081465	-0.357900
C78	C	1.894123	0.418535	0.142100
C79	C	1.458571	-0.307968	-0.882930
C80	C	1.958571	0.192032	-0.382930
C81	C	1.482123	-0.375731	-0.833515
C82	C	1.982123	0.124269	-0.333515
C83	C	1.394116	-0.357574	-0.931206
C84	C	1.894116	0.142426	-0.431206
C85	C	1.370579	-0.289839	-0.833539
C86	C	1.870579	0.210161	-0.333539
C87	C	1.394088	-0.357594	-0.785221
C88	C	1.894088	0.142406	-0.285221
C89	C	1.417714	-0.425373	-0.882879
C90	C	1.917714	0.074627	-0.382879
C91	C	1.306129	-0.339435	-0.882907
C92	C	1.806129	0.160565	-0.382907
C93	C	1.329648	-0.407244	-0.833514
C94	C	1.829648	0.092756	-0.333514
C95	C	1.394135	-0.357562	-1.015304
C96	C	1.894135	0.142438	-0.515304
C97	C	1.394069	-0.357614	-0.701124
C98	C	1.894069	0.142386	-0.201124
C99	C	1.393983	-0.357729	-0.164882
C100	C	1.893983	0.142271	0.335118
C101	C	1.394147	-0.357548	-0.082336
C102	C	1.894147	0.142452	0.417664
H103	H	1.513074	-0.810992	-0.266418
H104	H	2.013074	-0.310992	0.233582
H105	H	1.437718	-0.482676	-0.904462
H106	H	1.937718	0.017324	-0.404462
C107	C	1.255934	-0.911083	-0.464170
C108	C	1.755934	-0.411083	0.035830
N109	N	1.200459	-0.932989	-0.506875
N110	N	1.700459	-0.432989	-0.006875
C111	C	1.582588	-0.911242	-0.396881
C112	C	2.082588	-0.411242	0.103119
N113	N	1.658298	-0.933278	-0.412553
N114	N	2.158298	-0.433278	0.087447
C115	C	1.256018	-0.463997	-0.804359
C116	C	1.756018	0.036003	-0.304359
N117	N	1.200572	-0.506746	-0.782389
N118	N	1.700572	-0.006746	-0.282389
C119	C	1.444585	-0.803329	-0.503100
C120	C	1.944585	-0.303329	-0.003100
N121	N	1.464898	-0.781292	-0.561424
N122	N	1.964898	-0.281292	-0.061424
H123	H	1.231754	-0.324058	-0.904619
H124	H	1.731754	0.175942	-0.404619
C125	C	1.343711	-0.911477	-0.212679
C126	C	1.843711	-0.411477	0.287321
N127	N	1.323498	-0.933601	-0.154367
N128	N	1.823498	-0.433601	0.345633
H129	H	1.231679	-0.811026	-0.324217
H130	H	1.731679	-0.311026	0.175783
C131	C	1.532278	-0.251357	-0.912245
C132	C	2.032278	0.248643	-0.412245
N133	N	1.587796	-0.208720	-0.934327
N134	N	2.087796	0.291280	-0.434327
C135	C	1.343695	-0.212440	-0.804261
C136	C	1.843695	0.287560	-0.304261
N137	N	1.323453	-0.154142	-0.782213
N138	N	1.823453	0.345858	-0.282213
C139	C	1.582627	-0.396473	-0.804198
C140	C	2.082627	0.103527	-0.304198
N141	N	1.658328	-0.412089	-0.782116
N142	N	2.158328	0.087911	-0.282116
