data_functionalizedCrystal
_audit_creation_method	'MofGen! by Chris Wilmer'
_symmetry_space_group_name_H-M	'P1'
_symmetry_Int_Tables_number	1
_symmetry_cell_setting	triclinic
loop_
_symmetry_equiv_pos_as_xyz
  x,y,z
_cell_length_a	16.120490
_cell_length_b	16.120444
_cell_length_c	16.120297
_cell_angle_alpha	95.615117
_cell_angle_beta	90.129683
_cell_angle_gamma	90.165174
loop_
_atom_site_label
_atom_site_type_symbol
_atom_site_fract_x
_atom_site_fract_y
_atom_site_fract_z
Zn1	Zn	1.224982	-0.422332	-0.554792
Zn2	Zn	1.558316	-0.088999	-0.221459
Zn3	Zn	1.891649	0.244334	0.111875
Zn4	Zn	1.224875	-0.555017	-0.422098
Zn5	Zn	1.558209	-0.221684	-0.088765
Zn6	Zn	1.891542	0.111650	0.244568
Zn7	Zn	1.093721	-0.408241	-0.408037
Zn8	Zn	1.427055	-0.074908	-0.074704
Zn9	Zn	1.760388	0.258426	0.258629
Zn10	Zn	1.078872	-0.554241	-0.554034
Zn11	Zn	1.412205	-0.220908	-0.220701
Zn12	Zn	1.745539	0.112425	0.112633
O13	O	1.155613	-0.484958	-0.484740
O14	O	1.488946	-0.151625	-0.151407
O15	O	1.822279	0.181709	0.181926
O16	O	1.341004	-0.446155	-0.543392
O17	O	1.674337	-0.112822	-0.210058
O18	O	2.007671	0.220512	0.123275
O19	O	1.213647	-0.529974	-0.303600
O20	O	1.546980	-0.196641	0.029733
O21	O	1.880314	0.136693	0.363066
O22	O	1.117393	-0.293479	-0.421937
O23	O	1.450726	0.039854	-0.088604
O24	O	1.784059	0.373187	0.244730
O25	O	1.340925	-0.543638	-0.445902
O26	O	1.674259	-0.210305	-0.112569
O27	O	2.007592	0.123029	0.220764
O28	O	1.213829	-0.303832	-0.529757
O29	O	1.547163	0.029501	-0.196424
O30	O	1.880496	0.362834	0.136910
O31	O	1.117289	-0.422138	-0.293270
O32	O	1.450622	-0.088805	0.040064
O33	O	1.783956	0.244528	0.373397
O34	O	0.975716	-0.421386	-0.421202
O35	O	1.309049	-0.088053	-0.087869
O36	O	1.642382	0.245280	0.245464
O37	O	1.092084	-0.542316	-0.670767
O38	O	1.425418	-0.208983	-0.337434
O39	O	1.758751	0.124350	-0.004101
O40	O	0.964806	-0.528652	-0.528465
O41	O	1.298139	-0.195319	-0.195132
O42	O	1.631473	0.138014	0.138201
O43	O	1.199431	-0.445403	-0.671324
O44	O	1.532764	-0.112070	-0.337991
O45	O	1.866097	0.221264	-0.004658
O46	O	1.199248	-0.671545	-0.445167
O47	O	1.532582	-0.338211	-0.111834
O48	O	1.865915	-0.004878	0.221499
O49	O	1.091980	-0.670975	-0.542100
O50	O	1.425314	-0.337642	-0.208767
O51	O	1.758647	-0.004308	0.124567
C52	C	0.940174	-0.473407	-0.473226
C53	C	1.273507	-0.140073	-0.139893
C54	C	1.606841	0.193260	0.193440
C55	C	0.848006	-0.468486	-0.468321
C56	C	1.181339	-0.135153	-0.134988
C57	C	1.514673	0.198181	0.198345
C58	C	0.632811	-0.510476	-0.510185
C59	C	0.966144	-0.177142	-0.176852
C60	C	1.299477	0.156191	0.156482
C61	C	0.679259	-0.459510	-0.459365
C62	C	1.012592	-0.126176	-0.126032
C63	C	1.345926	0.207157	0.207302
C64	C	0.773158	-0.464506	-0.464350
C65	C	1.106492	-0.131172	-0.131016
C66	C	1.439825	0.202161	0.202317
C67	C	0.538902	-0.505481	-0.505201
C68	C	0.872236	-0.172148	-0.171868
C69	C	1.205569	0.161186	0.161465
C70	C	1.144013	-0.701503	-0.495097
C71	C	1.477346	-0.368170	-0.161763
C72	C	1.810680	-0.034836	0.171570
C73	C	1.139125	-0.794147	-0.499559
C74	C	1.472458	-0.460814	-0.166226
C75	C	1.805792	-0.127481	0.167108
C76	C	1.181163	-1.005308	-0.461782
C77	C	1.514496	-0.671975	-0.128448
C78	C	1.847830	-0.338641	0.204885
C79	C	1.130215	-0.963765	-0.507716
C80	C	1.463549	-0.630432	-0.174383
C81	C	1.796882	-0.297099	0.158951
C82	C	1.135174	-0.869381	-0.503176
C83	C	1.468508	-0.536048	-0.169843
C84	C	1.801841	-0.202714	0.163491
C85	C	1.176206	-1.099701	-0.466320
C86	C	1.509539	-0.766367	-0.132987
C87	C	1.842872	-0.433034	0.200346
C88	C	1.371893	-0.496555	-0.496300
C89	C	1.705226	-0.163222	-0.162967
C90	C	2.038559	0.170112	0.170367
C91	C	1.464058	-0.501497	-0.501226
C92	C	1.797392	-0.168163	-0.167893
C93	C	2.130725	0.165170	0.165441
C94	C	1.144113	-0.495345	-0.702133
C95	C	1.477446	-0.162012	-0.368800
C96	C	1.810780	0.171322	-0.035466
C97	C	1.139212	-0.499771	-0.794773
C98	C	1.472546	-0.166438	-0.461440
C99	C	1.805879	0.166895	-0.128106
C100	C	1.167279	-0.267569	-0.474363
C101	C	1.500613	0.065764	-0.141030
C102	C	1.833946	0.399097	0.192304
C103	C	1.172251	-0.174931	-0.469941
C104	C	1.505584	0.158402	-0.136608
C105	C	1.838918	0.491735	0.196726
C106	C	1.130236	-0.507833	-0.964384
C107	C	1.463569	-0.174499	-0.631051
C108	C	1.796903	0.158834	-0.297718
C109	C	1.181166	-0.461842	-1.005945
C110	C	1.514499	-0.128509	-0.672612
C111	C	1.847833	0.204825	-0.339278
C112	C	1.176172	-0.466327	-1.100323
C113	C	1.509505	-0.132994	-0.766989
C114	C	1.842838	0.200339	-0.433656
C115	C	1.135229	-0.503348	-0.869998
C116	C	1.468563	-0.170015	-0.536665
C117	C	1.801896	0.163318	-0.203332
C118	C	1.167119	-0.474554	-0.268193
C119	C	1.500452	-0.141220	0.065140
C120	C	1.833785	0.192113	0.398474
C121	C	1.172192	-0.469901	-0.175551
C122	C	1.505526	-0.136568	0.157782
C123	C	1.838859	0.196766	0.491116
H124	H	0.663564	-0.557858	-0.557433
H125	H	0.996897	-0.224525	-0.224099
H126	H	1.330231	0.108809	0.109234
N127	N	1.067503	-1.010541	-0.564325
N128	N	1.400837	-0.677207	-0.230992
N129	N	1.734170	-0.343874	0.102342
H130	H	1.072803	-1.072313	-0.559584
H131	H	1.406137	-0.738979	-0.226251
H132	H	1.739470	-0.405646	0.107082
H133	H	1.009761	-0.991645	-0.547422
H134	H	1.343095	-0.658312	-0.214089
H135	H	1.676428	-0.324978	0.119244
N136	N	1.243871	-0.958533	-0.405177
N137	N	1.577204	-0.625200	-0.071843
N138	N	1.910538	-0.291866	0.261490
H139	H	1.238564	-0.896762	-0.409919
H140	H	1.571898	-0.563428	-0.076586
H141	H	1.905231	-0.230095	0.256748
H142	H	1.233376	-0.970199	-0.345671
H143	H	1.566710	-0.636866	-0.012337
H144	H	1.900043	-0.303532	0.320996
N145	N	1.243894	-0.405223	-0.959197
N146	N	1.577227	-0.071890	-0.625864
N147	N	1.910561	0.261443	-0.292530
H148	H	1.238617	-0.410005	-0.897426
H149	H	1.571951	-0.076671	-0.564093
H150	H	1.905284	0.256662	-0.230759
H151	H	1.301630	-0.422083	-0.978157
H152	H	1.634963	-0.088749	-0.644823
H153	H	1.968296	0.244584	-0.311490
H154	H	1.082887	-0.550572	-0.999681
H155	H	1.416220	-0.217239	-0.666348
H156	H	1.749553	0.116094	-0.333014
H157	H	0.648504	-0.412124	-0.412113
H158	H	0.981837	-0.078791	-0.078780
H159	H	1.315170	0.254542	0.254554
