data_functionalizedCrystal
_audit_creation_method	'MofGen! by Chris Wilmer'
_symmetry_space_group_name_H-M	'P1'
_symmetry_Int_Tables_number	1
_symmetry_cell_setting	triclinic
loop_
_symmetry_equiv_pos_as_xyz
  x,y,z
_cell_length_a	16.625548
_cell_length_b	12.827893
_cell_length_c	12.827885
_cell_angle_alpha	89.974758
_cell_angle_beta	90.023203
_cell_angle_gamma	89.996631
loop_
_atom_site_label
_atom_site_type_symbol
_atom_site_fract_x
_atom_site_fract_y
_atom_site_fract_z
Zn1	Zn	-1.232794	-0.415984	-0.590987
Zn2	Zn	-0.732794	0.084016	-0.090987
Zn3	Zn	-1.232739	-0.590762	-0.416262
Zn4	Zn	-0.732739	-0.090762	0.083738
Zn5	Zn	-1.097953	-0.416035	-0.416250
Zn6	Zn	-0.597953	0.083965	0.083750
Zn7	Zn	-1.097970	-0.590684	-0.590951
Zn8	Zn	-0.597970	-0.090684	-0.090951
O9	O	-1.165364	-0.503366	-0.503612
O10	O	-0.665364	-0.003366	-0.003612
O11	O	-1.345619	-0.439180	-0.567830
O12	O	-0.845619	0.060820	-0.067830
O13	O	-1.214830	-0.567639	-0.270024
O14	O	-0.714830	-0.067639	0.229976
O15	O	-1.115856	-0.269793	-0.439439
O16	O	-0.615856	0.230207	0.060561
O17	O	-1.345579	-0.567589	-0.439460
O18	O	-0.845579	-0.067589	0.060540
O19	O	-1.214922	-0.269755	-0.567818
O20	O	-0.714922	0.230245	-0.067818
O21	O	-1.115803	-0.439268	-0.270015
O22	O	-0.615803	0.060732	0.229985
O23	O	-0.985123	-0.439191	-0.439404
O24	O	-0.485123	0.060809	0.060596
O25	O	-1.115885	-0.567455	-0.737192
O26	O	-0.615885	-0.067455	-0.237192
O27	O	-0.985136	-0.567505	-0.567756
O28	O	-0.485136	-0.067505	-0.067756
O29	O	-1.214939	-0.439104	-0.737219
O30	O	-0.714939	0.060896	-0.237219
O31	O	-1.214846	-0.736988	-0.439425
O32	O	-0.714846	-0.236988	0.060575
O33	O	-1.115832	-0.736930	-0.567768
O34	O	-0.615832	-0.236930	-0.067768
C35	C	-0.955873	-0.503346	-0.503575
C36	C	-0.455873	-0.003346	-0.003575
C37	C	-0.866252	-0.503362	-0.503584
C38	C	-0.366252	-0.003362	-0.003584
C39	C	-1.165357	-0.774876	-0.503616
C40	C	-0.665357	-0.274876	-0.003616
C41	C	-1.165428	-0.891029	-0.503653
C42	C	-0.665428	-0.391029	-0.003653
C43	C	-1.165420	-0.503265	-0.776183
C44	C	-0.665420	-0.003265	-0.276183
C45	C	-1.165443	-0.503222	-0.892336
C46	C	-0.665443	-0.003222	-0.392336
C47	C	-0.538077	-0.503360	-0.503615
C48	C	-0.038077	-0.003360	-0.003615
C49	C	-0.629385	-0.503358	-0.503603
C50	C	-0.129385	-0.003358	-0.003603
C51	C	-0.702161	-0.503362	-0.503598
C52	C	-0.202161	-0.003362	-0.003598
C53	C	-0.793476	-0.503358	-0.503588
C54	C	-0.293476	-0.003358	-0.003588
C55	C	-0.375673	-0.503381	-0.503641
C56	C	0.124327	-0.003381	-0.003641
C57	C	-0.465294	-0.503370	-0.503627
C58	C	0.034706	-0.003370	-0.003627
C59	C	-1.165393	-0.230796	-0.503631
C60	C	-0.665393	0.269204	-0.003631
C61	C	-1.165405	-0.114643	-0.503639
C62	C	-0.665405	0.385357	-0.003639
C63	C	-1.116395	-0.062877	-0.440124
C64	C	-0.616395	0.437123	0.059876
C65	C	-1.116406	0.057173	-0.440130
C66	C	-0.616406	0.557173	0.059870
C67	C	-1.116444	-0.566708	-0.944107
C68	C	-0.616444	-0.066708	-0.444107
C69	C	-1.116467	-0.566665	-1.064158
C70	C	-0.616467	-0.066665	-0.564158
C71	C	-1.165355	-0.503392	-0.232103
C72	C	-0.665355	-0.003392	0.267897
C73	C	-1.165488	-0.503141	-0.115950
C74	C	-0.665488	-0.003141	0.384050
H75	H	-1.074424	-0.107435	-0.385744
H76	H	-0.574424	0.392565	0.114256
H77	H	-1.207371	-0.070086	-0.558027
H78	H	-0.707371	0.429914	-0.058027
N79	N	-1.060825	0.116140	-0.368099
N80	N	-0.560825	0.616140	0.131901
H81	H	-1.003202	0.097213	-0.384299
H82	H	-0.503202	0.597213	0.115701
H83	H	-1.073386	0.097147	-0.293446
H84	H	-0.573386	0.597147	0.206554
N85	N	-1.221018	0.050035	-0.575699
N86	N	-0.721018	0.550035	-0.075699
H87	H	-1.258343	0.004729	-0.533202
H88	H	-0.758343	0.504729	-0.033202
H89	H	-1.188169	0.004832	-0.624067
H90	H	-0.688169	0.504832	-0.124067
H91	H	-1.074480	-0.621097	-0.899554
H92	H	-0.574480	-0.121097	-0.399554
N93	N	-1.060902	-0.638671	-1.123124
N94	N	-0.560902	-0.138671	-0.623124
H95	H	-1.028186	-0.681071	-1.072061
H96	H	-0.528186	-0.181071	-0.572061
H97	H	-1.023631	-0.596074	-1.168407
H98	H	-0.523631	-0.096074	-0.668407
N99	N	-1.221066	-0.431145	-1.056990
N100	N	-0.721066	0.068855	-0.556990
H101	H	-1.253783	-0.388747	-1.108053
H102	H	-0.753783	0.111253	-0.608053
H103	H	-1.188211	-0.382836	-1.011701
H104	H	-0.688211	0.117164	-0.511701
N105	N	-1.221027	-0.431168	-0.951342
N106	N	-0.721027	0.068832	-0.451342
H107	H	-1.253722	-0.388803	-0.900299
H108	H	-0.753722	0.111197	-0.400299
H109	H	-1.258317	-0.473727	-0.996636
H110	H	-0.758317	0.026273	-0.496636
