data_functionalizedCrystal
_audit_creation_method	'MofGen! by Chris Wilmer'
_symmetry_space_group_name_H-M	'P1'
_symmetry_Int_Tables_number	1
_symmetry_cell_setting	triclinic
loop_
_symmetry_equiv_pos_as_xyz
  x,y,z
_cell_length_a	19.805407
_cell_length_b	12.759394
_cell_length_c	19.805399
_cell_angle_alpha	89.976033
_cell_angle_beta	89.979591
_cell_angle_gamma	90.016777
loop_
_atom_site_label
_atom_site_type_symbol
_atom_site_fract_x
_atom_site_fract_y
_atom_site_fract_z
Zn1	Zn	1.034790	-0.418236	-0.382752
Zn2	Zn	1.034728	-0.593930	-0.269571
Zn3	Zn	0.921605	-0.418271	-0.269575
Zn4	Zn	0.921591	-0.593880	-0.382716
O5	O	0.978178	-0.506079	-0.326153
O6	O	1.129498	-0.441549	-0.367751
O7	O	1.019701	-0.570664	-0.174855
O8	O	0.936651	-0.271246	-0.284605
O9	O	1.129453	-0.570630	-0.284598
O10	O	1.019808	-0.271220	-0.367755
O11	O	0.936590	-0.441608	-0.174858
O12	O	0.826886	-0.441560	-0.284570
O13	O	0.936628	-0.570545	-0.477437
O14	O	0.826876	-0.570579	-0.367694
O15	O	1.019794	-0.441500	-0.477464
O16	O	1.019688	-0.740944	-0.284563
O17	O	0.936567	-0.740908	-0.367690
C18	C	0.802322	-0.506069	-0.326129
C19	C	0.727090	-0.506089	-0.326134
C20	C	0.265327	-0.438993	-0.369544
C21	C	0.336015	-0.438994	-0.369539
C22	C	0.371329	-0.506095	-0.326175
C23	C	0.335950	-0.573206	-0.282818
C24	C	0.265263	-0.573209	-0.282827
C25	C	0.621023	-0.573198	-0.282782
C26	C	0.691716	-0.573188	-0.282775
C27	C	0.691776	-0.438984	-0.369494
C28	C	0.621088	-0.438986	-0.369503
C29	C	0.585716	-0.506101	-0.326149
C30	C	0.509068	-0.506099	-0.326156
C31	C	0.447976	-0.506092	-0.326164
C32	C	0.978138	-0.779047	-0.326137
C33	C	0.978182	-0.895824	-0.326153
C34	C	1.064801	-0.895808	-0.239657
C35	C	1.108128	-0.950662	-0.196417
C36	C	1.108168	-1.060383	-0.196436
C37	C	1.064877	-1.115254	-0.239700
C38	C	1.021550	-1.060401	-0.282940
C39	C	1.021514	-0.950677	-0.282915
C40	C	0.934936	-1.060416	-0.369438
C41	C	0.934892	-0.950694	-0.369417
C42	C	0.891645	-1.115287	-0.412702
C43	C	0.848314	-1.060434	-0.455939
C44	C	0.848275	-0.950706	-0.455919
C45	C	0.891565	-0.895841	-0.412657
C46	C	1.154721	-0.506091	-0.326178
C47	C	1.229953	-0.506096	-0.326189
C48	C	0.978216	-0.506013	-0.502696
C49	C	0.978233	-0.505985	-0.577928
C50	C	0.978238	-0.232046	-0.326184
C51	C	0.978263	-0.115269	-0.326198
C52	C	1.021539	-0.438788	-0.613287
C53	C	1.021545	-0.438758	-0.683976
C54	C	0.978249	-0.505930	-0.719304
C55	C	0.934939	-0.573130	-0.683940
C56	C	0.934929	-0.573154	-0.613253
C57	C	0.934977	-0.573032	-0.969013
C58	C	0.934992	-0.573005	-1.039705
C59	C	1.021594	-0.438635	-1.039736
C60	C	1.021584	-0.438660	-0.969049
C61	C	0.978271	-0.505855	-0.933691
C62	C	0.978263	-0.505886	-0.857043
C63	C	0.978260	-0.505905	-0.795951
C64	C	0.978180	-0.506069	-0.150297
C65	C	0.978295	-0.505802	-0.075066
H66	H	0.236463	-0.627854	-0.247524
C67	C	1.069187	-0.364838	-0.722867
N68	N	1.105072	-0.309157	-0.752160
H69	H	0.592232	-0.627844	-0.247479
C70	C	0.730692	-0.365163	-0.417190
N71	N	0.760002	-0.309561	-0.453112
C72	C	0.887290	-0.647078	-0.574358
N73	N	0.851406	-0.702758	-0.545063
C74	C	0.891530	-0.775144	-0.412633
N75	N	0.891509	-0.684234	-0.412616
C76	C	1.069168	-0.364891	-0.574433
N77	N	1.105041	-0.309225	-0.545169
C78	C	0.730559	-0.647014	-0.235073
N79	N	0.759816	-0.702617	-0.199146
C80	C	0.374923	-0.365167	-0.417228
N81	N	0.404228	-0.309554	-0.453147
C82	C	0.374798	-0.647014	-0.235115
N83	N	0.404057	-0.702602	-0.199180
C84	C	0.887306	-0.647010	-0.722803
N85	N	0.851428	-0.702658	-0.752075
C86	C	1.155744	-0.890296	-0.148827
N87	N	1.191608	-0.844831	-0.112982
C88	C	0.582248	-0.365172	-0.417208
N89	N	0.552994	-0.309577	-0.453142
C90	C	0.891689	-1.235984	-0.412719
N91	N	0.891718	-1.326894	-0.412731
C92	C	0.887356	-0.646896	-1.078565
N93	N	0.851477	-0.702547	-1.107834
H94	H	1.064765	-0.806467	-0.239629
C95	C	0.887329	-0.646946	-0.930129
N96	N	0.851438	-0.702620	-0.900839
H97	H	1.056842	-0.383965	-0.940288
H98	H	1.143452	-1.105044	-0.161229
C99	C	1.069231	-0.364705	-1.078636
N100	N	1.105110	-0.309022	-1.107934
H101	H	1.064919	-1.204595	-0.239717
C102	C	0.800698	-1.120798	-0.503523
N103	N	0.764831	-1.166269	-0.539363
C104	C	0.226488	-0.365175	-0.417249
N105	N	0.197237	-0.309577	-0.453184
H106	H	0.812996	-0.906050	-0.491132
