data_functionalizedCrystal
_audit_creation_method	'MofGen! by Chris Wilmer'
_symmetry_space_group_name_H-M	'P1'
_symmetry_Int_Tables_number	1
_symmetry_cell_setting	triclinic
loop_
_symmetry_equiv_pos_as_xyz
  x,y,z
_cell_length_a	13.635800
_cell_length_b	13.167930
_cell_length_c	9.514088
_cell_angle_alpha	85.348595
_cell_angle_beta	118.843545
_cell_angle_gamma	74.245432
loop_
_atom_site_label
_atom_site_type_symbol
_atom_site_fract_x
_atom_site_fract_y
_atom_site_fract_z
V1	V	2.122830	-0.150888	0.523229
O2	O	2.100187	0.005286	0.490423
O3	O	2.111608	-0.297296	0.541623
O4	O	2.140082	-0.149429	0.741403
O5	O	2.071516	-0.143604	0.289260
V6	V	2.357591	-0.132106	0.492575
O7	O	2.268815	-0.192088	0.590471
O8	O	2.436704	-0.090906	0.425334
O9	O	2.257209	0.014302	0.474182
O10	O	2.438931	-0.288280	0.525381
O11	O	2.467603	-0.139389	0.726544
O12	O	2.228735	-0.133565	0.274401
V13	V	2.622830	-0.150888	0.523229
O14	O	2.600187	0.005286	0.490423
O15	O	2.611608	-0.297296	0.541623
O16	O	2.640082	-0.149429	0.741403
O17	O	2.571516	-0.143604	0.289260
V18	V	2.857591	-0.132106	0.492575
O19	O	2.768815	-0.192088	0.590471
O20	O	2.936704	-0.090906	0.425334
O21	O	2.757209	0.014302	0.474182
O22	O	2.938931	-0.288280	0.525381
O23	O	2.967603	-0.139389	0.726544
O24	O	2.728735	-0.133565	0.274401
C25	C	2.035924	-0.332960	0.539038
C26	C	2.067668	-0.452656	0.555532
C27	C	2.028089	-0.645703	0.287594
C28	C	2.057913	-0.758167	0.303083
C29	C	2.157148	-0.790051	0.601998
C30	C	2.127324	-0.677587	0.586509
C31	C	2.062792	-0.605416	0.429302
C32	C	2.032961	-0.492949	0.413813
C33	C	2.132203	-0.524835	0.712728
C34	C	2.162027	-0.637300	0.728217
C35	C	2.072245	-0.144339	0.793875
C36	C	2.127079	-0.144115	0.972378
C37	C	2.164564	0.049961	0.476763
C38	C	2.122440	0.169656	0.460280
C39	C	2.128241	-0.138657	0.221921
C40	C	2.063026	-0.138876	0.043416
C41	C	2.535924	-0.332960	0.539038
C42	C	2.567668	-0.452656	0.555532
C43	C	2.572245	-0.144339	0.793875
C44	C	2.627079	-0.144115	0.972378
C45	C	2.664564	0.049961	0.476763
C46	C	2.622440	0.169656	0.460280
C47	C	2.628241	-0.138657	0.221921
C48	C	2.563026	-0.138876	0.043416
C49	C	2.675686	-0.514387	0.572124
C50	C	2.705535	-0.626858	0.587647
C51	C	2.627362	-0.677593	0.586565
C52	C	2.519337	-0.615854	0.569975
C53	C	2.489493	-0.503387	0.554465
C54	C	2.686918	0.231387	0.443692
C55	C	2.647341	0.343856	0.428177
C56	C	2.543292	0.394592	0.429263
C57	C	2.478809	0.332853	0.445848
C58	C	2.518381	0.220387	0.461350
H59	H	1.975530	-0.586939	0.159588
H60	H	2.455696	-0.657180	0.569097
O61	O	2.255289	-0.149815	1.072702
H62	H	2.293581	-0.153692	0.992592
O63	O	2.020475	-0.801624	0.150243
H64	H	1.970583	-0.732541	0.038331
H65	H	1.980410	-0.434188	0.285806
O66	O	2.372978	-0.436815	0.536558
H67	H	2.365347	-0.350084	0.525964
H68	H	2.209707	-0.848831	0.729990
H69	H	2.651678	-0.769172	0.599195
H70	H	2.771643	0.190093	0.442806
H71	H	2.739349	-0.473093	0.572998
H72	H	2.699862	0.394108	0.414677
O73	O	2.500637	0.515895	0.412563
H74	H	2.409457	0.555110	0.300540
O75	O	2.755291	-0.149820	1.072702
H76	H	2.764912	-0.078658	1.016743
H77	H	2.160455	-0.492023	0.828117
O78	O	2.231633	-0.715141	0.897772
H79	H	2.246540	-0.800114	0.884739
H80	H	2.394088	0.374180	0.446728
H81	H	2.793497	-0.677110	0.601148
H82	H	2.465874	0.170132	0.474870
O83	O	2.434813	-0.133145	0.943081
H84	H	2.432121	-0.206775	0.894366
O85	O	1.934811	-0.133142	0.943099
H86	H	1.910412	-0.134209	0.813931
