data_functionalizedCrystal
_audit_creation_method	'MofGen! by Chris Wilmer'
_symmetry_space_group_name_H-M	'P1'
_symmetry_Int_Tables_number	1
_symmetry_cell_setting	triclinic
loop_
_symmetry_equiv_pos_as_xyz
  x,y,z
_cell_length_a	10.654550
_cell_length_b	9.198806
_cell_length_c	10.723023
_cell_angle_alpha	89.997827
_cell_angle_beta	84.476225
_cell_angle_gamma	89.992525
loop_
_atom_site_label
_atom_site_type_symbol
_atom_site_fract_x
_atom_site_fract_y
_atom_site_fract_z
O1	O	1.667814	-0.121009	0.175272
O2	O	1.302333	-0.120985	0.191971
O3	O	1.493504	-0.120991	0.002047
O4	O	1.476642	-0.121002	0.365197
O5	O	1.493489	0.120794	0.002046
O6	O	1.302317	0.120800	0.191971
O7	O	1.667798	0.120776	0.175271
Cu8	Cu	1.485056	0.142865	0.183621
Cu9	Cu	1.485075	-0.143074	0.183622
O10	O	1.476627	0.120783	0.365196
C11	C	1.255527	-0.000089	0.190745
C12	C	1.116085	-0.000080	0.187076
C13	C	1.492270	-0.000100	-0.044454
C14	C	1.488599	-0.000105	-0.183008
N15	N	1.485053	0.343979	0.183620
C16	C	1.036582	-0.000105	0.298901
C17	C	0.905561	-0.000130	0.295446
C18	C	0.933560	-0.000112	0.068333
C19	C	1.064577	-0.000077	0.071789
C20	C	1.088089	-0.000109	0.414188
C21	C	1.008585	-0.000135	0.526022
C22	C	0.877564	-0.000160	0.522568
C23	C	0.826048	-0.000159	0.407279
C24	C	1.714604	-0.000122	0.176498
C25	C	1.854047	-0.000141	0.180166
N26	N	1.485088	-0.344188	0.183613
C27	C	1.565320	0.416173	0.103524
C28	C	1.565340	0.583586	0.103520
C29	C	1.486970	-0.125359	-0.244774
C30	C	1.483177	-0.125366	-0.387978
C31	C	1.477861	-0.000111	0.411696
C32	C	1.481532	-0.000117	0.550251
H33	H	1.194770	-0.000095	0.417014
C34	C	1.658120	0.332243	0.010865
N35	N	1.728014	0.269028	-0.058935
C36	C	1.481284	-0.270241	-0.459733
N37	N	1.479857	-0.379365	-0.513782
C38	C	1.658180	0.667456	0.010877
N39	N	1.728109	0.730631	-0.058906
C40	C	1.486685	0.144762	-0.254789
N41	N	1.485244	0.253880	-0.308853
C42	C	0.790114	-0.000170	0.645585
N43	N	0.724248	-0.000181	0.738247
C44	C	1.392243	0.571951	0.276259
N45	N	1.322310	0.508777	0.346038
H46	H	1.482939	0.107123	-0.396641
C47	C	1.065256	-0.000127	0.652832
N48	N	1.107939	-0.000121	0.748348
C49	C	0.681920	-0.000181	0.403486
N50	N	0.573365	-0.000205	0.400631
C51	C	1.488889	-0.270226	-0.172994
N52	N	1.490339	-0.379344	-0.118932
H53	H	1.416343	0.406110	0.252185
H54	H	0.891604	-0.000135	-0.025529
H55	H	1.129311	-0.000060	-0.019269
