data_functionalizedCrystal
_audit_creation_method	'MofGen! by Chris Wilmer'
_symmetry_space_group_name_H-M	'P1'
_symmetry_Int_Tables_number	1
_symmetry_cell_setting	triclinic
loop_
_symmetry_equiv_pos_as_xyz
  x,y,z
_cell_length_a	14.908308
_cell_length_b	12.759401
_cell_length_c	12.759399
_cell_angle_alpha	90.016641
_cell_angle_beta	86.731299
_cell_angle_gamma	86.720277
loop_
_atom_site_label
_atom_site_type_symbol
_atom_site_fract_x
_atom_site_fract_y
_atom_site_fract_z
Zn1	Zn	-0.510061	-1.571941	0.452484
Zn2	Zn	-0.359210	-1.581981	0.618052
Zn3	Zn	-0.359224	-1.406389	0.442393
Zn4	Zn	-0.510024	-1.396233	0.628124
O5	O	-0.434630	-1.489136	0.535263
O6	O	-0.490060	-1.720293	0.474455
O7	O	-0.232970	-1.567142	0.586313
O8	O	-0.379255	-1.428399	0.296712
O9	O	-0.379231	-1.727670	0.596097
O10	O	-0.490074	-1.550029	0.304126
O11	O	-0.232980	-1.438135	0.457257
O12	O	-0.379218	-1.258022	0.467023
O13	O	-0.636270	-1.411088	0.613263
O14	O	-0.490010	-1.250560	0.603478
O15	O	-0.636298	-1.540180	0.484221
O16	O	-0.379194	-1.557293	0.766408
O17	O	-0.489996	-1.420824	0.773807
C18	C	-0.434612	-1.216170	0.535249
C19	C	-0.434626	-1.099392	0.535270
C20	C	-0.434609	-1.489073	0.808229
C21	C	-0.434631	-1.489140	0.925007
C22	C	-0.669932	-1.473381	0.550991
C23	C	-0.770204	-1.466667	0.557693
C24	C	-0.958657	-1.588471	0.435892
C25	C	-1.052871	-1.582166	0.442186
C26	C	-1.052850	-1.447747	0.576569
C27	C	-0.958635	-1.454052	0.570275
C28	C	-0.911542	-1.524418	0.499935
C29	C	-0.817326	-1.530727	0.493648
C30	C	-0.817306	-1.396304	0.628024
C31	C	-0.911520	-1.389999	0.634318
C32	C	-0.200242	-1.504890	0.519521
C33	C	-0.099971	-1.511808	0.512523
C34	C	-0.434648	-1.763168	0.535278
C35	C	-0.434656	-1.879944	0.535285
C36	C	-0.492224	-1.040678	0.606418
C37	C	-0.492242	-0.930953	0.606424
C38	C	-0.377055	-0.938666	0.464129
C39	C	-0.377043	-1.048389	0.464119
C40	C	-0.434670	-1.489227	0.261233
C41	C	-0.434687	-1.489265	0.144457
C42	C	-0.377002	-1.560272	0.975986
C43	C	-0.377032	-1.560337	1.085712
C44	C	-0.492323	-1.418130	1.093472
C45	C	-0.492296	-1.418071	0.983748
H46	H	-0.778984	-1.588024	0.436375
O47	O	-0.320963	-1.629411	0.919085
C48	C	-0.270089	-1.692189	0.987614
H49	H	-0.307064	-1.693361	1.068275
H50	H	-0.260519	-1.775599	0.955207
H51	H	-0.201549	-1.658374	0.994774
O52	O	-0.912944	-1.656709	0.367426
C53	C	-0.935992	-1.632264	0.264252
H54	H	-0.961890	-1.546602	0.260669
H55	H	-0.874037	-1.645478	0.208212
H56	H	-0.990682	-1.684944	0.240445
O57	O	-1.098678	-1.644236	0.379865
C58	C	-1.153197	-1.580791	0.315668
H59	H	-1.124803	-1.499945	0.307286
H60	H	-1.154274	-1.618737	0.234884
H61	H	-1.224597	-1.572388	0.352919
O62	O	-1.098743	-1.379474	0.644850
C63	C	-1.192002	-1.387618	0.636636
H64	H	-1.204877	-1.467853	0.603104
H65	H	-1.227812	-1.378050	0.717714
H66	H	-1.218727	-1.323539	0.582451
O67	O	-0.548460	-1.349195	1.150497
C68	C	-0.638383	-1.366020	1.129612
H69	H	-0.642994	-1.449622	1.099685
H70	H	-0.682960	-1.353984	1.204735
H71	H	-0.661908	-1.308060	1.067532
O72	O	-0.548287	-0.873866	0.675396
C73	C	-0.606641	-0.806503	0.619597
H74	H	-0.612335	-0.839207	0.537239
H75	H	-0.676009	-0.800626	0.662363
H76	H	-0.578767	-0.725205	0.614068
O77	O	-0.957311	-1.321799	0.702757
C78	C	-1.011823	-1.377948	0.774233
H79	H	-0.983435	-1.462593	0.778823
H80	H	-1.012883	-1.339859	0.855159
H81	H	-1.083230	-1.376794	0.746516
H82	H	-0.539114	-1.082202	0.664352
O83	O	-0.321205	-1.629591	1.135257
C84	C	-0.372674	-1.693976	1.202050
H85	H	-0.443728	-1.695535	1.173690
H86	H	-0.340160	-1.777068	1.201006
H87	H	-0.375752	-1.661391	1.285463
H88	H	-0.330172	-0.897125	0.406202
O89	O	-0.771442	-1.334226	0.690286
C90	C	-0.716960	-1.397668	0.754526
H91	H	-0.702849	-1.478242	0.716530
H92	H	-0.650707	-1.359302	0.764188
H93	H	-0.753267	-1.406762	0.834806
H94	H	-0.330139	-1.096195	0.406175
O95	O	-0.548376	-1.349112	0.934180
C96	C	-0.606655	-1.404940	0.874508
H97	H	-0.612296	-1.487321	0.907883
H98	H	-0.676053	-1.362232	0.877893
H99	H	-0.578743	-1.410411	0.789499
