data_functionalizedCrystal
_audit_creation_method	'MofGen! by Chris Wilmer'
_symmetry_space_group_name_H-M	'P1'
_symmetry_Int_Tables_number	1
_symmetry_cell_setting	triclinic
loop_
_symmetry_equiv_pos_as_xyz
  x,y,z
_cell_length_a	19.077105
_cell_length_b	19.805405
_cell_length_c	19.805399
_cell_angle_alpha	90.029301
_cell_angle_beta	87.684312
_cell_angle_gamma	92.277359
loop_
_atom_site_label
_atom_site_type_symbol
_atom_site_fract_x
_atom_site_fract_y
_atom_site_fract_z
Zn1	Zn	1.075967	0.311118	-0.424213
Zn2	Zn	1.075878	0.424303	-0.311018
Zn3	Zn	0.958271	0.306582	-0.306498
Zn4	Zn	0.958233	0.419714	-0.419627
O5	O	1.017087	0.365429	-0.365339
O6	O	1.174446	0.329951	-0.413008
O7	O	1.060256	0.408709	-0.215701
O8	O	0.973937	0.212469	-0.322141
O9	O	1.174381	0.413107	-0.329844
O10	O	1.060407	0.215802	-0.408625
O11	O	0.973851	0.322220	-0.212380
O12	O	0.859775	0.317770	-0.317694
O13	O	0.973872	0.405287	-0.514953
O14	O	0.859748	0.400888	-0.400809
O15	O	1.060370	0.325501	-0.518322
O16	O	1.060219	0.518409	-0.325397
O17	O	0.973786	0.515037	-0.405192
C18	C	1.017008	0.541282	-0.365303
C19	C	1.017039	0.616515	-0.365313
C20	C	0.834224	0.358340	-0.358264
C21	C	0.755994	0.355323	-0.355253
C22	C	1.017127	0.365388	-0.541883
C23	C	1.017144	0.365371	-0.617116
C24	C	0.719246	0.397246	-0.397044
C25	C	0.645740	0.394403	-0.394219
C26	C	0.608985	0.349639	-0.349598
C27	C	0.645739	0.307712	-0.307805
C28	C	0.719243	0.310552	-0.310634
C29	C	0.389152	0.336493	-0.336506
C30	C	0.315643	0.333657	-0.333678
C31	C	0.315650	0.420348	-0.420093
C32	C	0.389155	0.423187	-0.422915
C33	C	0.425902	0.381257	-0.381125
N34	N	0.533851	0.346733	-0.346707
N35	N	0.501035	0.384160	-0.384020
C36	C	1.200665	0.372547	-0.372442
C37	C	1.278894	0.375580	-0.375469
C38	C	1.017186	0.188890	-0.365390
C39	C	1.017228	0.113660	-0.365412
C40	C	1.062088	0.653594	-0.323811
C41	C	1.062118	0.724284	-0.323827
C42	C	1.017094	0.757893	-0.365342
C43	C	0.972043	0.720809	-0.406849
C44	C	0.972017	0.650121	-0.406836
C45	C	0.972147	1.005887	-0.406903
C46	C	0.972174	1.076580	-0.406911
C47	C	1.062248	1.080049	-0.323894
C48	C	1.062222	1.009361	-0.323881
C49	C	1.017173	0.972283	-0.365390
C50	C	1.017142	0.895634	-0.365373
C51	C	1.017121	0.834541	-0.365356
C52	C	1.062184	0.323824	-0.654216
C53	C	1.062191	0.323805	-0.724904
C54	C	1.017161	0.365336	-0.758492
C55	C	0.972115	0.406884	-0.721387
C56	C	0.972105	0.406899	-0.650700
C57	C	0.972155	0.406822	-1.006462
C58	C	0.972170	0.406805	-1.077155
C59	C	1.062241	0.323728	-1.080667
C60	C	1.062231	0.323743	-1.009979
C61	C	1.017183	0.365289	-0.972881
C62	C	1.017175	0.365308	-0.896232
C63	C	1.017172	0.365320	-0.835140
C64	C	1.017088	0.365423	-0.189483
C65	C	1.017208	0.365255	-0.114256
H66	H	0.615823	0.428541	-0.428249
H67	H	0.935421	0.440723	-0.620494
O68	O	0.928328	0.447077	-0.970391
C69	C	0.833317	0.452506	-0.886863
C70	C	0.882898	0.406838	-0.927689
H71	H	0.796585	0.419993	-0.852318
H72	H	0.801082	0.482177	-0.922973
H73	H	0.865621	0.489168	-0.855038
H74	H	0.850649	0.370138	-0.959518
H75	H	0.915136	0.377214	-0.891543
O76	O	0.424807	0.295835	-0.295811
C77	C	0.447215	0.263656	-0.181603
C78	C	0.406803	0.309757	-0.227612
H79	H	0.432662	0.274886	-0.126455
H80	H	0.506073	0.273368	-0.191227
H81	H	0.432790	0.208544	-0.193072
H82	H	0.421169	0.364885	-0.216170
H83	H	0.347954	0.299988	-0.217980
O84	O	0.928407	0.447322	-0.753940
C85	C	0.894210	0.561127	-0.774241
C86	C	0.943741	0.515405	-0.737324
H87	H	0.906599	0.616182	-0.760831
H88	H	0.837450	0.547099	-0.758134
H89	H	0.901943	0.553946	-0.831132
H90	H	0.936069	0.522562	-0.680426
H91	H	1.000482	0.529445	-0.753486
O92	O	0.610071	0.264131	-0.264534
C93	C	0.587651	0.148089	-0.230997
C94	C	0.628073	0.197367	-0.280059
H95	H	0.602202	0.094102	-0.243523
H96	H	0.528794	0.153200	-0.236152
H97	H	0.602069	0.160496	-0.176958
H98	H	0.613714	0.184993	-0.334119
H99	H	0.686920	0.192248	-0.274846
O100	O	0.928210	0.753376	-0.447142
C101	C	0.808474	0.770469	-0.475251
C102	C	0.858039	0.733533	-0.429585
H103	H	0.751730	0.754451	-0.461064
H104	H	0.820739	0.756985	-0.530321
H105	H	0.816264	0.827359	-0.468145
H106	H	0.850277	0.676635	-0.436632
H107	H	0.845762	0.747073	-0.374532
H108	H	0.285719	0.297198	-0.297346
H109	H	1.098870	0.289976	-0.755108
O110	O	0.928390	0.447054	-1.109858
C111	C	0.833355	0.452447	-1.185961
C112	C	0.882896	0.406791	-1.148977
H113	H	0.796551	0.419913	-1.217586
H114	H	0.865618	0.489072	-1.220338
H115	H	0.801187	0.482160	-1.147294
H116	H	0.915075	0.377034	-1.187595
H117	H	0.850593	0.370209	-1.114588
O118	O	1.105899	0.760198	-0.283447
C119	C	1.195264	0.756181	-0.201125
C120	C	1.145704	0.715425	-0.246812
H121	H	1.227469	0.720000	-0.171505
H122	H	1.163018	0.788059	-0.164423
H123	H	1.232032	0.790664	-0.233666
H124	H	1.108925	0.680905	-0.214326
H125	H	1.177994	0.683591	-0.283518
H126	H	0.749166	0.433700	-0.433377
H127	H	1.098902	0.289927	-0.982636
O128	O	0.754913	0.269903	-0.269937
C129	C	0.777339	0.237739	-0.155729
C130	C	0.736912	0.283828	-0.201739
H131	H	0.762788	0.248971	-0.100581
H132	H	0.836195	0.247462	-0.165359
H133	H	0.762924	0.182624	-0.167193
H134	H	0.751267	0.338959	-0.190302
H135	H	0.678065	0.274047	-0.192100
O136	O	1.106004	1.116172	-0.283650
C137	C	1.145967	1.226607	-0.246870
C138	C	1.096387	1.185785	-0.292483
H139	H	1.138199	1.282897	-0.253985
H140	H	1.202717	1.214892	-0.261008
H141	H	1.133656	1.212247	-0.191807
H142	H	1.108634	1.200122	-0.347560
H143	H	1.039652	1.197505	-0.278288
O144	O	1.105723	0.620915	-0.283406
C145	C	1.115223	0.541500	-0.192411
C146	C	1.065723	0.578473	-0.238112
H147	H	1.082903	0.507167	-0.155789
H148	H	1.147415	0.580115	-0.162702
H149	H	1.152006	0.509809	-0.224947
H150	H	1.028896	0.610163	-0.205627
H151	H	1.033580	0.539823	-0.267825
O152	O	0.928417	1.109124	-0.447309
C153	C	0.839050	1.098226	-0.529632
C154	C	0.888577	1.061285	-0.483931
H155	H	0.806816	1.059565	-0.559242
H156	H	0.871325	1.132503	-0.566342
H157	H	0.802308	1.129965	-0.497102
H158	H	0.925329	1.029510	-0.516406
H159	H	0.856258	1.027049	-0.447217
H160	H	0.935465	0.975703	-0.440700
O161	O	1.106025	0.976821	-0.283535
C162	C	1.195346	0.987724	-0.201166
C163	C	1.145784	1.024660	-0.246835
H164	H	1.227493	1.026384	-0.171471
H165	H	1.232162	0.956024	-0.233659
H166	H	1.163032	0.953409	-0.164523
H167	H	1.178041	1.059009	-0.283485
H168	H	1.108965	1.056317	-0.214300
H169	H	0.935334	0.619932	-0.440632
H170	H	1.098855	0.290007	-0.626874
O171	O	1.106063	0.283345	-1.116604
C172	C	1.195374	0.200914	-1.112623
C173	C	1.145795	0.246622	-1.071845
H174	H	1.227500	0.171201	-1.076453
H175	H	1.232210	0.233376	-1.147119
H176	H	1.163075	0.164288	-1.144491
H177	H	1.178037	0.283255	-1.039938
H178	H	1.108957	0.214118	-1.037392
H179	H	0.285722	0.454484	-0.454117
O180	O	0.424748	0.466688	-0.466321
C181	C	0.416995	0.552404	-0.551702
C182	C	0.376598	0.503157	-0.502592
H183	H	0.378084	0.581913	-0.581030
H184	H	0.451418	0.522741	-0.588521
H185	H	0.451396	0.589053	-0.521872
H186	H	0.342159	0.466496	-0.532366
H187	H	0.342219	0.532864	-0.465773
