data_functionalizedCrystal
_audit_creation_method	'MofGen! by Chris Wilmer'
_symmetry_space_group_name_H-M	'P1'
_symmetry_Int_Tables_number	1
_symmetry_cell_setting	triclinic
loop_
_symmetry_equiv_pos_as_xyz
  x,y,z
_cell_length_a	16.992694
_cell_length_b	8.559649
_cell_length_c	16.053802
_cell_angle_alpha	92.204030
_cell_angle_beta	87.249047
_cell_angle_gamma	80.223444
loop_
_atom_site_label
_atom_site_type_symbol
_atom_site_fract_x
_atom_site_fract_y
_atom_site_fract_z
O1	O	1.023824	0.329978	-0.069320
O2	O	0.795762	0.326287	-0.069345
O3	O	0.929885	0.098096	-0.069329
O4	O	0.889700	0.558168	-0.069335
O5	O	0.922506	0.110601	0.069529
O6	O	0.788383	0.338792	0.069513
O7	O	1.016444	0.342483	0.069538
Zn8	Zn	0.901242	0.342623	0.091572
Zn9	Zn	0.910964	0.326147	-0.091379
O10	O	0.882321	0.570673	0.069523
C11	C	0.763145	0.327794	0.000081
C12	C	0.676954	0.313635	0.000072
C13	C	0.618488	0.450242	0.000071
C14	C	0.537502	0.436931	0.000082
C15	C	0.514985	0.287010	0.000089
C16	C	0.573459	0.150392	0.000093
C17	C	0.654442	0.163706	0.000087
C18	C	0.274709	0.231830	0.000112
C19	C	0.193719	0.218527	0.000115
C20	C	0.157768	0.505067	0.000106
C21	C	0.238755	0.518367	0.000096
C22	C	0.297221	0.381749	0.000104
N23	N	0.432206	0.273399	0.000099
N24	N	0.379998	0.395362	0.000100
C25	C	0.929241	0.045208	0.000098
C26	C	0.938306	-0.131015	0.000095
C27	C	1.049061	0.340975	0.000110
C28	C	1.135252	0.355134	0.000114
C29	C	0.882965	0.623562	0.000093
C30	C	0.873901	0.799784	0.000091
N31	N	0.894612	0.353867	0.216432
N32	N	0.917601	0.314891	-0.216239
C33	C	0.951698	0.256811	0.260132
C34	C	0.947067	0.264692	0.347539
C35	C	0.885353	0.369639	0.391243
C36	C	0.828261	0.466699	0.347536
C37	C	0.832890	0.458808	0.260132
C38	C	0.865138	0.404060	0.652650
C39	C	0.860515	0.411947	0.740061
C40	C	0.979321	0.209937	0.740057
C41	C	0.983946	0.202063	0.652651
C42	C	0.926852	0.299117	0.608952
N43	N	0.880619	0.377701	0.480586
N44	N	0.931583	0.291046	0.519610
H45	H	0.702047	0.052465	0.000088
H46	H	0.636813	0.572324	0.000064
C47	C	0.790041	-0.098138	0.000074
H48	H	0.794745	0.010883	0.000063
H49	H	0.759245	-0.116781	0.048493
H50	H	0.764402	-0.125520	-0.048359
H51	H	1.000384	-0.206593	0.000108
H52	H	1.001956	0.171359	0.224554
C53	C	0.168952	0.053607	0.000125
H54	H	0.215370	-0.025852	0.000135
H55	H	0.140676	0.038095	-0.048298
H56	H	0.135538	0.046831	0.048554
H57	H	0.993551	0.185660	0.383119
H58	H	1.034199	0.116607	0.617069
C59	C	1.042112	0.103173	0.788128
H60	H	1.030515	0.122888	0.846442
H61	H	1.093759	0.125784	0.773795
H62	H	1.040787	-0.005040	0.773810
C63	C	0.473192	0.587199	0.000078
H64	H	0.498202	0.678391	0.000063
H65	H	0.438288	0.592333	0.048504
H66	H	0.443420	0.583593	-0.048348
C67	C	0.792590	0.527304	0.788134
H68	H	0.759235	0.583941	0.749591
H69	H	0.814752	0.600028	0.822244
H70	H	0.761860	0.469068	0.822218
C71	C	0.339011	0.081556	0.000115
H72	H	0.314000	-0.009634	0.000111
H73	H	0.368784	0.085150	0.048537
H74	H	0.373917	0.076427	-0.048315
C75	C	0.263517	0.683281	0.000100
H76	H	0.217096	0.762736	0.000110
H77	H	0.296930	0.690077	-0.048322
H78	H	0.291793	0.698780	0.048530
H79	H	0.818650	0.483089	0.617077
H80	H	0.778008	0.552143	0.383125
C81	C	0.770098	0.565576	0.212061
H82	H	0.732684	0.629221	0.250606
H83	H	0.742953	0.501285	0.177973
H84	H	0.795919	0.632119	0.177957
H85	H	0.110157	0.616292	0.000102
H86	H	0.555119	0.028324	0.000110
