data_functionalizedCrystal
_audit_creation_method	'MofGen! by Chris Wilmer'
_symmetry_space_group_name_H-M	'P1'
_symmetry_Int_Tables_number	1
_symmetry_cell_setting	triclinic
loop_
_symmetry_equiv_pos_as_xyz
  x,y,z
_cell_length_a	19.805399
_cell_length_b	18.215407
_cell_length_c	18.215405
_cell_angle_alpha	89.974667
_cell_angle_beta	89.969351
_cell_angle_gamma	90.016085
loop_
_atom_site_label
_atom_site_type_symbol
_atom_site_fract_x
_atom_site_fract_y
_atom_site_fract_z
Zn1	Zn	-0.382697	-1.125045	-0.292982
Zn2	Zn	-0.049364	-0.791711	0.040351
Zn3	Zn	0.283969	-0.458378	0.373684
Zn4	Zn	-0.269506	-1.124961	-0.416054
Zn5	Zn	0.063827	-0.791628	-0.082720
Zn6	Zn	0.397161	-0.458295	0.250613
Zn7	Zn	-0.269524	-1.001985	-0.293007
Zn8	Zn	0.063810	-0.668652	0.040327
Zn9	Zn	0.397143	-0.335319	0.373660
Zn10	Zn	-0.382654	-1.001943	-0.416013
Zn11	Zn	-0.049321	-0.668610	-0.082679
Zn12	Zn	0.284012	-0.335277	0.250654
O13	O	-0.326095	-1.063484	-0.354514
O14	O	0.007238	-0.730150	-0.021181
O15	O	0.340571	-0.396817	0.312153
O16	O	-0.367693	-1.228018	-0.309315
O17	O	-0.034360	-0.894685	0.024018
O18	O	0.298974	-0.561351	0.357352
O19	O	-0.174792	-1.108631	-0.399759
O20	O	0.158542	-0.775298	-0.066425
O21	O	0.491875	-0.441964	0.266908
O22	O	-0.284562	-1.018362	-0.190019
O23	O	0.048772	-0.685029	0.143314
O24	O	0.382105	-0.351695	0.476648
O25	O	-0.284532	-1.227957	-0.399735
O26	O	0.048802	-0.894623	-0.066402
O27	O	0.382135	-0.561290	0.266931
O28	O	-0.367710	-1.108773	-0.190001
O29	O	-0.034377	-0.775440	0.143332
O30	O	0.298957	-0.442107	0.476665
O31	O	-0.174805	-1.018281	-0.309356
O32	O	0.158529	-0.684948	0.023977
O33	O	0.491862	-0.351614	0.357310
O34	O	-0.284520	-0.898996	-0.309317
O35	O	0.048813	-0.565662	0.024017
O36	O	0.382147	-0.232329	0.357350
O37	O	-0.477377	-1.018290	-0.399665
O38	O	-0.144043	-0.684957	-0.066332
O39	O	0.189290	-0.351624	0.267002
O40	O	-0.367636	-0.898965	-0.399689
O41	O	-0.034303	-0.565631	-0.066355
O42	O	0.299030	-0.232298	0.266978
O43	O	-0.477408	-1.108732	-0.309275
O44	O	-0.144075	-0.775399	0.024058
O45	O	0.189258	-0.442066	0.357391
O46	O	-0.284490	-1.108590	-0.519033
O47	O	0.048844	-0.775257	-0.185699
O48	O	0.382177	-0.441923	0.147634
O49	O	-0.367619	-1.018209	-0.519002
O50	O	-0.034286	-0.684876	-0.185669
O51	O	0.299047	-0.351543	0.147664
C52	C	-0.326076	-0.872277	-0.354501
C53	C	0.007258	-0.538944	-0.021168
C54	C	0.340591	-0.205611	0.312165
C55	C	-0.326084	-0.790478	-0.354514
C56	C	0.007250	-0.457145	-0.021180
C57	C	0.340583	-0.123812	0.312153
C58	C	-0.326063	-1.063406	-0.545720
C59	C	0.007271	-0.730073	-0.212387
C60	C	0.340604	-0.396739	0.120947
C61	C	-0.326071	-1.063440	-0.627519
C62	C	0.007262	-0.730107	-0.294186
C63	C	0.340595	-0.396773	0.039148
C64	C	-0.502638	-1.063516	-0.354463
C65	C	-0.169305	-0.730183	-0.021129
C66	C	0.164029	-0.396849	0.312204
C67	C	-0.577870	-1.063530	-0.354441
C68	C	-0.244537	-0.730196	-0.021108
C69	C	0.088797	-0.396863	0.312226
C70	C	-0.613220	-1.016498	-0.307364
C71	C	-0.279887	-0.683165	0.025969
C72	C	0.053446	-0.349831	0.359303
C73	C	-0.683909	-1.016508	-0.307350
C74	C	-0.350576	-0.683175	0.025984
C75	C	-0.017242	-0.349841	0.359317
C76	C	-0.719246	-1.063554	-0.354409
C77	C	-0.385912	-0.730221	-0.021076
C78	C	-0.052579	-0.396888	0.312257
C79	C	-0.683890	-1.110588	-0.401491
C80	C	-0.350557	-0.777255	-0.068158
C81	C	-0.017224	-0.443921	0.265175
C82	C	-0.613203	-1.110574	-0.401509
C83	C	-0.279870	-0.777240	-0.068175
C84	C	0.053464	-0.443907	0.265158
C85	C	-0.968964	-1.110646	-0.401422
C86	C	-0.635630	-0.777313	-0.068089
C87	C	-0.302297	-0.443980	0.265244
C88	C	-1.039656	-1.110659	-0.401400
C89	C	-0.706323	-0.777325	-0.068066
C90	C	-0.372989	-0.443992	0.265267
C91	C	-1.039670	-1.016581	-0.307263
C92	C	-0.706336	-0.683247	0.026070
C93	C	-0.373003	-0.349914	0.359403
C94	C	-0.968982	-1.016566	-0.307281
C95	C	-0.635649	-0.683233	0.026052
C96	C	-0.302316	-0.349900	0.359386
C97	C	-0.933633	-1.063597	-0.354365
C98	C	-0.600300	-0.730264	-0.021032
C99	C	-0.266967	-0.396930	0.312301
C100	C	-0.856985	-1.063585	-0.354381
C101	C	-0.523651	-0.730251	-0.021048
C102	C	-0.190318	-0.396918	0.312285
C103	C	-0.795893	-1.063571	-0.354390
C104	C	-0.462560	-0.730238	-0.021057
C105	C	-0.129226	-0.396904	0.312277
C106	C	-0.150239	-1.063494	-0.354512
C107	C	0.183094	-0.730160	-0.021178
C108	C	0.516427	-0.396827	0.312155
C109	C	-0.075008	-1.063623	-0.354326
C110	C	0.258326	-0.730289	-0.020993
C111	C	0.591659	-0.396956	0.312341
C112	C	-0.326115	-1.255437	-0.354527
C113	C	0.007218	-0.922103	-0.021194
C114	C	0.340552	-0.588770	0.312140
C115	C	-0.326124	-1.337235	-0.354533
C116	C	0.007210	-1.003902	-0.021199
C117	C	0.340543	-0.670569	0.312134
C118	C	-0.369308	-0.602288	-0.401644
C119	C	-0.035975	-0.268954	-0.068311
C120	C	0.297359	0.064379	0.265022
C121	C	-0.369316	-0.525429	-0.401647
C122	C	-0.035983	-0.192096	-0.068313
C123	C	0.297350	0.141238	0.265020
C124	C	-0.282897	-0.525432	-0.307397
C125	C	0.050436	-0.192098	0.025937
C126	C	0.383769	0.141235	0.359270
C127	C	-0.282893	-0.602289	-0.307391
C128	C	0.050441	-0.268956	0.025942
C129	C	0.383774	0.064378	0.359275
C130	C	-0.326097	-0.640715	-0.354519
C131	C	0.007236	-0.307382	-0.021186
C132	C	0.340570	0.025952	0.312147
C133	C	-0.326110	-0.486999	-0.354527
C134	C	0.007223	-0.153666	-0.021194
C135	C	0.340557	0.179668	0.312140
C136	C	-0.326119	-0.403665	-0.354529
C137	C	0.007214	-0.070332	-0.021196
C138	C	0.340548	0.263001	0.312138
C139	C	-0.326089	-0.724054	-0.354516
C140	C	0.007244	-0.390721	-0.021183
C141	C	0.340577	-0.057387	0.312150
C142	C	-0.282865	-1.110612	-0.815704
C143	C	0.050468	-0.777278	-0.482371
C144	C	0.383801	-0.443945	-0.149038
C145	C	-0.282882	-1.110645	-0.892563
C146	C	0.050451	-0.777311	-0.559230
C147	C	0.383785	-0.443978	-0.225896
C148	C	-0.369374	-1.016450	-0.892571
C149	C	-0.036040	-0.683116	-0.559238
C150	C	0.297293	-0.349783	-0.225905
C151	C	-0.369360	-1.016421	-0.815714
C152	C	-0.036027	-0.683088	-0.482381
C153	C	0.297306	-0.349754	-0.149047
C154	C	-0.326102	-1.063501	-0.777282
C155	C	0.007231	-0.730168	-0.443949
C156	C	0.340564	-0.396834	-0.110616
C157	C	-0.326132	-1.063563	-0.930999
C158	C	0.007201	-0.730229	-0.597665
C159	C	0.340535	-0.396896	-0.264332
C160	C	-0.326150	-1.063598	-1.014332
C161	C	0.007183	-0.730264	-0.680999
C162	C	0.340516	-0.396931	-0.347665
C163	C	-0.326085	-1.063467	-0.693944
C164	C	0.007248	-0.730133	-0.360610
C165	C	0.340582	-0.396800	-0.027277
C166	C	-0.326143	-1.063582	-0.162561
C167	C	0.007191	-0.730248	0.170772
C168	C	0.340524	-0.396915	0.504106
C169	C	-0.326163	-1.063623	-0.080762
C170	C	0.007170	-0.730290	0.252571
C171	C	0.340504	-0.396957	0.585905
H172	H	-0.584454	-0.978192	-0.269039
H173	H	-0.251121	-0.644858	0.064295
H174	H	0.082212	-0.311525	0.397628
Br175	Br	-0.428049	-0.952486	-0.763565
Br176	Br	-0.094716	-0.619153	-0.430232
Br177	Br	0.238618	-0.285820	-0.096899
H178	H	-0.584422	-1.148877	-0.439838
H179	H	-0.251088	-0.815544	-0.106505
H180	H	0.082245	-0.482211	0.226829
H181	H	-0.247675	-1.149008	-0.923843
H182	H	0.085658	-0.815675	-0.590509
H183	H	0.418992	-0.482341	-0.257176
H184	H	-0.404592	-0.978118	-0.923872
H185	H	-0.071258	-0.644784	-0.590538
H186	H	0.262075	-0.311451	-0.257205
Br187	Br	-0.224159	-1.174506	-0.763549
Br188	Br	0.109174	-0.841172	-0.430216
Br189	Br	0.442508	-0.507839	-0.096882
Br190	Br	-0.920999	-1.174478	-0.465318
Br191	Br	-0.587665	-0.841145	-0.131985
Br192	Br	-0.254332	-0.507812	0.201348
Br193	Br	-0.731882	-0.952636	-0.243497
Br194	Br	-0.398549	-0.619303	0.089837
Br195	Br	-0.065216	-0.285970	0.423170
Br196	Br	-0.921029	-0.952720	-0.243408
Br197	Br	-0.587695	-0.619387	0.089925
Br198	Br	-0.254362	-0.286054	0.423258
Br199	Br	-0.427966	-0.473280	-0.465601
Br200	Br	-0.094632	-0.139947	-0.132268
Br201	Br	0.238701	0.193387	0.201065
Br202	Br	-0.427944	-0.654435	-0.465601
Br203	Br	-0.094610	-0.321102	-0.132268
Br204	Br	0.238723	0.012231	0.201065
Br205	Br	-1.087647	-0.952751	-0.243363
Br206	Br	-0.754314	-0.619417	0.089971
Br207	Br	-0.420980	-0.286084	0.423304
Br208	Br	-0.731847	-1.174431	-0.465365
Br209	Br	-0.398513	-0.841097	-0.132032
Br210	Br	-0.065180	-0.507764	0.201301
Br211	Br	-0.224265	-0.473277	-0.243441
Br212	Br	0.109068	-0.139944	0.089893
Br213	Br	0.442401	0.193389	0.423226
H214	H	-1.068425	-1.148971	-0.439724
H215	H	-0.735092	-0.815638	-0.106391
H216	H	-0.401759	-0.482304	0.226943
Br217	Br	-0.224251	-0.654445	-0.243424
Br218	Br	0.109082	-0.321112	0.089909
Br219	Br	0.442415	0.012221	0.423243
