data_functionalizedCrystal
_audit_creation_method	'MofGen! by Chris Wilmer'
_symmetry_space_group_name_H-M	'P1'
_symmetry_Int_Tables_number	1
_symmetry_cell_setting	triclinic
loop_
_symmetry_equiv_pos_as_xyz
  x,y,z
_cell_length_a	13.897449
_cell_length_b	25.639240
_cell_length_c	13.897441
_cell_angle_alpha	89.958512
_cell_angle_beta	89.976606
_cell_angle_gamma	90.033584
loop_
_atom_site_label
_atom_site_type_symbol
_atom_site_fract_x
_atom_site_fract_y
_atom_site_fract_z
Zn1	Zn	1.474602	-0.208123	-0.545377
Zn2	Zn	1.974602	0.291877	-0.045377
Zn3	Zn	1.474453	-0.295565	-0.384047
Zn4	Zn	1.974453	0.204435	0.115953
Zn5	Zn	1.313291	-0.208147	-0.384088
Zn6	Zn	1.813291	0.291853	0.115912
Zn7	Zn	1.313230	-0.295530	-0.545292
Zn8	Zn	1.813230	0.204470	-0.045292
O9	O	1.393894	-0.251841	-0.464701
O10	O	1.893894	0.248159	0.035299
O11	O	1.609564	-0.219727	-0.523994
O12	O	2.109564	0.280273	-0.023994
O13	O	1.453038	-0.283994	-0.249071
O14	O	1.953038	0.216006	0.250929
O15	O	1.334777	-0.134978	-0.405535
O16	O	1.834777	0.365022	0.094465
O17	O	1.609455	-0.283970	-0.405466
O18	O	2.109455	0.216030	0.094534
O19	O	1.453291	-0.134961	-0.524033
O20	O	1.953291	0.365039	-0.024033
O21	O	1.334633	-0.219768	-0.249100
O22	O	1.834633	0.280232	0.250900
O23	O	1.178301	-0.219734	-0.405453
O24	O	1.678301	0.280266	0.094547
O25	O	1.334673	-0.283910	-0.680285
O26	O	1.834673	0.216090	-0.180285
O27	O	1.178257	-0.283934	-0.523890
O28	O	1.678257	0.216066	-0.023890
O29	O	1.453232	-0.219693	-0.680347
O30	O	1.953232	0.280307	-0.180347
O31	O	1.452979	-0.368726	-0.405385
O32	O	1.952979	0.131274	0.094615
O33	O	1.334529	-0.368700	-0.523851
O34	O	1.834529	0.131300	-0.023851
C35	C	1.143280	-0.251833	-0.464667
C36	C	1.643280	0.248167	0.035333
C37	C	1.036066	-0.251842	-0.464676
C38	C	1.536066	0.248158	0.035324
C39	C	0.948996	-0.251844	-0.464692
C40	C	1.448996	0.248156	0.035308
C41	C	0.839763	-0.251848	-0.464721
C42	C	1.339763	0.248152	0.035279
C43	C	1.393758	-0.387684	-0.464625
C44	C	1.893758	0.112316	0.035375
C45	C	1.393788	-0.445798	-0.464625
C46	C	1.893788	0.054202	0.035375
C47	C	1.455635	-0.806113	-0.526514
C48	C	1.955635	-0.306113	-0.026514
C49	C	1.455663	-0.860717	-0.526534
C50	C	1.955663	-0.360717	-0.026534
O51	O	1.508086	-0.888914	-0.579077
O52	O	2.008086	-0.388914	-0.079077
N53	N	1.394028	-0.888080	-0.464794
N54	N	1.894028	-0.388080	0.035206
C55	C	1.332353	-0.860836	-0.403038
C56	C	1.832353	-0.360836	0.096962
O57	O	1.279929	-0.889124	-0.350526
O58	O	1.779929	-0.389124	0.149474
C59	C	1.332320	-0.806233	-0.403024
C60	C	1.832320	-0.306233	0.096976
C61	C	1.393967	-0.778873	-0.464761
C62	C	1.893967	-0.278873	0.035239
C63	C	1.517276	-0.778753	-0.588247
C64	C	2.017276	-0.278753	-0.088247
C65	C	1.517248	-0.724152	-0.588226
C66	C	2.017248	-0.224152	-0.088226
C67	C	1.455580	-0.696912	-0.526472
C68	C	1.955580	-0.196912	-0.026472
C69	C	1.393939	-0.724272	-0.464740
C70	C	1.893939	-0.224272	0.035260
C71	C	1.270641	-0.778989	-0.341273
C72	C	1.770641	-0.278989	0.158727
C73	C	1.270613	-0.724382	-0.341265
C74	C	1.770613	-0.224382	0.158735
C75	C	1.332260	-0.697022	-0.403002
C76	C	1.832260	-0.197022	0.096998
C77	C	1.332244	-0.642431	-0.402965
C78	C	1.832244	-0.142431	0.097035
N79	N	1.393879	-0.615068	-0.464704
N80	N	1.893879	-0.115068	0.035296
C81	C	1.455548	-0.642309	-0.526458
C82	C	1.955548	-0.142309	-0.026458
C83	C	1.332425	-0.975506	-0.403073
C84	C	1.832425	-0.475506	0.096927
C85	C	1.332461	-1.030109	-0.403081
C86	C	1.832461	-0.530109	0.096919
C87	C	1.455771	-1.029986	-0.526579
C88	C	1.955771	-0.529986	-0.026579
C89	C	1.455739	-0.975383	-0.526565
C90	C	1.955739	-0.475383	-0.026565
C91	C	1.394060	-0.948144	-0.464813
C92	C	1.894060	-0.448144	0.035187
C93	C	1.455486	-0.527644	-0.526409
C94	C	1.955486	-0.027644	-0.026409
C95	C	1.455456	-0.473038	-0.526379
C96	C	1.955456	0.026962	-0.026379
C97	C	1.332143	-0.473165	-0.402885
C98	C	1.832143	0.026835	0.097115
C99	C	1.332176	-0.527766	-0.402911
C100	C	1.832176	-0.027766	0.097089
C101	C	1.393851	-0.555004	-0.464680
C102	C	1.893851	-0.055004	0.035320
O103	O	1.279845	-0.614200	-0.350452
O104	O	1.779845	-0.114200	0.149548
O105	O	1.507954	-0.614014	-0.578970
O106	O	2.007954	-0.114014	-0.078970
C107	C	1.645487	-0.251850	-0.464735
C108	C	2.145487	0.248150	0.035265
C109	C	1.752701	-0.251853	-0.464750
C110	C	2.252701	0.248147	0.035250
C111	C	1.393962	-0.251795	-0.716294
C112	C	1.893962	0.248205	-0.216294
C113	C	1.393992	-0.251775	-0.823508
C114	C	1.893992	0.248225	-0.323508
C115	C	1.394057	-0.115468	-0.464798
C116	C	1.894057	0.384532	0.035202
C117	C	1.394127	-0.057354	-0.464839
C118	C	1.894127	0.442646	0.035161
C119	C	1.394018	-0.251740	-1.019803
C120	C	1.894018	0.248260	-0.519803
C121	C	1.394000	-0.251761	-0.910571
C122	C	1.894000	0.248239	-0.410571
C123	C	1.393881	-0.251849	-0.214087
C124	C	1.893881	0.248151	0.285913
C125	C	1.394039	-0.251722	-0.106873
C126	C	1.894039	0.248278	0.393127
H127	H	1.505701	-0.549814	-0.576714
H128	H	2.005701	-0.049814	-0.076714
C129	C	1.203802	-0.694743	-0.274158
C130	C	1.703802	-0.194743	0.225842
C131	C	1.258426	-0.663390	-0.212383
C132	C	1.758426	-0.163390	0.287617
C133	C	1.196915	-0.636076	-0.150559
C134	C	1.696915	-0.136076	0.349441
H135	H	1.167075	-0.718802	-0.237306
H136	H	1.667075	-0.218802	0.262694
H137	H	1.161757	-0.673414	-0.310983
H138	H	1.661757	-0.173414	0.189017
H139	H	1.300454	-0.684717	-0.175561
H140	H	1.800454	-0.184717	0.324439
H141	H	1.295151	-0.639321	-0.249208
H142	H	1.795151	-0.139321	0.250792
H143	H	1.154870	-0.614746	-0.187384
H144	H	1.654870	-0.114746	0.312616
H145	H	1.160191	-0.660138	-0.113714
H146	H	1.660191	-0.160138	0.386286
H147	H	1.233967	-0.614796	-0.108644
H148	H	1.733967	-0.114796	0.391356
C149	C	1.265146	-0.557380	-0.335842
C150	C	1.765146	-0.057380	0.164158
C151	C	1.211120	-0.521834	-0.281771
C152	C	1.711120	-0.021834	0.218229
C153	C	1.149344	-0.549091	-0.219994
C154	C	1.649344	-0.049091	0.280006
H155	H	1.301964	-0.578690	-0.293772
H156	H	1.801964	-0.078690	0.206228
H157	H	1.223054	-0.578667	-0.372692
H158	H	1.723054	-0.078667	0.127308
H159	H	1.253207	-0.500556	-0.244924
H160	H	1.753207	-0.000556	0.255076
H161	H	1.174282	-0.500523	-0.323816
H162	H	1.674282	-0.000523	0.176184
H163	H	1.107252	-0.570378	-0.256843
H164	H	1.607252	-0.070378	0.243157
H165	H	1.186170	-0.570400	-0.177930
H166	H	1.686170	-0.070400	0.322070
H167	H	1.112675	-0.524977	-0.183305
H168	H	1.612675	-0.024977	0.316695
H169	H	1.505983	-1.052176	-0.576864
H170	H	2.005983	-0.552176	-0.076864
H171	H	1.281936	-0.450978	-0.352603
H172	H	1.781936	0.049022	0.147397
H173	H	1.505659	-0.450763	-0.576653
H174	H	2.005659	0.049237	-0.076653
C175	C	1.203597	-0.808591	-0.274210
C176	C	1.703597	-0.308591	0.225790
C177	C	1.149570	-0.773037	-0.220158
C178	C	1.649570	-0.273037	0.279842
C179	C	1.087784	-0.800285	-0.158378
C180	C	1.587784	-0.300285	0.341622
H181	H	1.240409	-0.829897	-0.232128
H182	H	1.740409	-0.329897	0.267872
H183	H	1.161507	-0.829880	-0.311057
H184	H	1.661507	-0.329880	0.188943
H185	H	1.191655	-0.751756	-0.183315
H186	H	1.691655	-0.251756	0.316685
H187	H	1.112739	-0.751729	-0.262215
H188	H	1.612739	-0.251729	0.237785
H189	H	1.045694	-0.821575	-0.195224
H190	H	1.545694	-0.321575	0.304776
H191	H	1.124604	-0.821591	-0.116302
H192	H	1.624604	-0.321591	0.383698
H193	H	1.051113	-0.776166	-0.121702
H194	H	1.551113	-0.276166	0.378298
H195	H	1.567444	-0.701879	-0.638500
H196	H	2.067444	-0.201879	-0.138500
H197	H	1.505936	-0.953110	-0.576837
H198	H	2.005936	-0.453110	-0.076837
H199	H	1.282273	-1.052381	-0.352799
H200	H	1.782273	-0.552381	0.147201
H201	H	1.567493	-0.800926	-0.638540
H202	H	2.067493	-0.300926	-0.138540
C203	C	1.265428	-0.946029	-0.335906
C204	C	1.765428	-0.446029	0.164094
C205	C	1.211482	-0.981684	-0.281829
C206	C	1.711482	-0.481684	0.218171
C207	C	1.149764	-0.954552	-0.219938
C208	C	1.649764	-0.454552	0.280062
H209	H	1.223276	-0.924729	-0.372644
H210	H	1.723276	-0.424729	0.127356
H211	H	1.302314	-0.924742	-0.293852
H212	H	1.802314	-0.424742	0.206148
H213	H	1.174598	-1.002962	-0.323877
H214	H	1.674598	-0.502962	0.176123
H215	H	1.253608	-1.002985	-0.245071
H216	H	1.753608	-0.502985	0.254929
H217	H	1.186650	-0.933265	-0.177884
H218	H	1.686650	-0.433265	0.322116
H219	H	1.107619	-0.933253	-0.256684
H220	H	1.607619	-0.433253	0.243316
H221	H	1.113160	-0.978740	-0.183233
H222	H	1.613160	-0.478740	0.316767
