data_functionalizedCrystal
_audit_creation_method	'MofGen! by Chris Wilmer'
_symmetry_space_group_name_H-M	'P1'
_symmetry_Int_Tables_number	1
_symmetry_cell_setting	triclinic
loop_
_symmetry_equiv_pos_as_xyz
  x,y,z
_cell_length_a	6.817900
_cell_length_b	16.255748
_cell_length_c	16.255661
_cell_angle_alpha	95.347428
_cell_angle_beta	103.488922
_cell_angle_gamma	103.490428
loop_
_atom_site_label
_atom_site_type_symbol
_atom_site_fract_x
_atom_site_fract_y
_atom_site_fract_z
V1	V	-4.026718	-0.117775	-0.264162
O2	O	-4.014190	0.004956	-0.258836
O3	O	-3.978277	-0.232852	-0.262642
O4	O	-3.978280	-0.116272	-0.379242
O5	O	-4.014186	-0.112431	-0.141429
V6	V	-4.510357	-0.103059	-0.249447
O7	O	-4.287724	-0.150057	-0.296440
O8	O	-4.699549	-0.070777	-0.217170
O9	O	-4.335592	0.012018	-0.250968
O10	O	-4.640282	-0.225790	-0.254774
O11	O	-4.640286	-0.108403	-0.372181
O12	O	-4.335588	-0.104562	-0.134368
C13	C	-3.823268	-0.260896	-0.258548
C14	C	-3.864948	-0.354974	-0.258072
C15	C	-3.800462	-0.634058	-0.252241
C16	C	-3.906949	-0.591123	-0.324865
C17	C	-4.015121	-0.693616	-0.256396
C18	C	-3.834252	-0.568919	-0.184633
C19	C	-3.941325	-0.527229	-0.257218
C20	C	-4.122189	-0.651929	-0.329071
C21	C	-4.049434	-0.629719	-0.188775
C22	C	-4.156080	-0.586816	-0.261419
C23	C	-4.057627	-0.789466	-0.255923
C24	C	-3.898837	-0.431382	-0.257697
C25	C	-3.823272	-0.112186	-0.407282
C26	C	-3.864952	-0.111718	-0.501362
C27	C	-3.775508	-0.106135	-0.724167
C28	C	-3.931928	-0.178192	-0.793821
C29	C	-3.941336	-0.110842	-0.673609
C30	C	-3.859207	-0.037960	-0.771590
C31	C	-4.015104	-0.109991	-0.839990
C32	C	-4.097238	-0.182963	-0.742033
C33	C	-4.024455	-0.042667	-0.719786
C34	C	-4.181011	-0.114745	-0.789421
C35	C	-3.898835	-0.111332	-0.577760
C36	C	-4.057622	-0.109507	-0.935837
C37	C	-4.153942	0.040057	-0.255059
C38	C	-4.091501	0.134135	-0.255540
C39	C	-4.153938	-0.108651	-0.106323
C40	C	-4.091497	-0.109114	-0.012242
H41	H	-3.712080	-0.532888	-0.123606
H42	H	-4.306188	-0.566087	-0.265325
H43	H	-3.603754	-0.102588	-0.695678
C44	C	-4.355198	-0.316286	-0.801716
C45	C	-4.232537	-0.265784	-0.724068
H46	H	-4.438727	-0.367412	-0.790622
H47	H	-4.266973	-0.330275	-0.835148
H48	H	-4.443109	-0.285423	-0.832033
H49	H	-4.144614	-0.296644	-0.693754
H50	H	-4.320772	-0.251796	-0.690622
H51	H	-4.352884	-0.118404	-0.817776
H52	H	-3.893258	-0.235490	-0.826049
C53	C	-3.599699	0.095010	-0.712163
C54	C	-3.723910	0.044775	-0.789714
H55	H	-3.516175	0.146086	-0.723352
H56	H	-3.511779	0.063916	-0.682273
H57	H	-3.686912	0.109110	-0.678276
H58	H	-3.636695	0.030670	-0.823598
H59	H	-3.811838	0.075875	-0.819617
C60	C	-3.897181	0.085322	-0.615627
C61	C	-4.076532	0.034686	-0.676236
H62	H	-3.929320	0.133080	-0.588736
H63	H	-3.790702	0.104929	-0.643303
H64	H	-3.849912	0.052298	-0.573728
H65	H	-4.123793	0.067708	-0.718139
H66	H	-4.183046	0.015080	-0.648559
H67	H	-4.109985	-0.646981	-0.131226
H68	H	-3.846340	-0.573883	-0.382412
H69	H	-4.244217	-0.687853	-0.390177
C70	C	-3.524565	-0.643165	-0.318486
C71	C	-3.598185	-0.662290	-0.247116
H72	H	-3.399702	-0.660602	-0.315325
H73	H	-3.496738	-0.583242	-0.319253
H74	H	-3.627320	-0.672695	-0.369282
H75	H	-3.495435	-0.632755	-0.196320
H76	H	-3.626003	-0.722225	-0.246340
