data_functionalizedCrystal
_audit_creation_method	'MofGen! by Chris Wilmer'
_symmetry_space_group_name_H-M	'P1'
_symmetry_Int_Tables_number	1
_symmetry_cell_setting	triclinic
loop_
_symmetry_equiv_pos_as_xyz
  x,y,z
_cell_length_a	12.759395
_cell_length_b	16.120484
_cell_length_c	12.759387
_cell_angle_alpha	92.863576
_cell_angle_beta	89.979491
_cell_angle_gamma	92.926975
loop_
_atom_site_label
_atom_site_type_symbol
_atom_site_fract_x
_atom_site_fract_y
_atom_site_fract_z
Zn1	Zn	1.584987	-0.331828	-0.615167
Zn2	Zn	1.575935	-0.471265	-0.448379
Zn3	Zn	1.409282	-0.331874	-0.439506
Zn4	Zn	1.400339	-0.471205	-0.624015
O5	O	1.492636	-0.401543	-0.531767
O6	O	1.730807	-0.350331	-0.593052
O7	O	1.553783	-0.452818	-0.300184
O8	O	1.440121	-0.215202	-0.455392
O9	O	1.724157	-0.452774	-0.470514
O10	O	1.569211	-0.215169	-0.584449
O11	O	1.431344	-0.350408	-0.293665
O12	O	1.261075	-0.350350	-0.463971
O13	O	1.424878	-0.452673	-0.769859
O14	O	1.254504	-0.452717	-0.599529
O15	O	1.560539	-0.350273	-0.763359
O16	O	1.545111	-0.587922	-0.479094
O17	O	1.416101	-0.587879	-0.608132
C18	C	1.219669	-0.401533	-0.531748
C19	C	1.102891	-0.401549	-0.531766
C20	C	1.096077	-0.508315	-0.672716
C21	C	1.037808	-0.561705	-0.743194
C22	C	0.928086	-0.561715	-0.743207
C23	C	0.876630	-0.508328	-0.672737
C24	C	0.934899	-0.454938	-0.602259
C25	C	1.044623	-0.454935	-0.602251
C26	C	0.941713	-0.348169	-0.461316
C27	C	1.051436	-0.348161	-0.461296
C28	C	0.890258	-0.294781	-0.390846
C29	C	0.948526	-0.241394	-0.320361
C30	C	1.058255	-0.241387	-0.320350
C31	C	1.109704	-0.294771	-0.390818
C32	C	1.478681	-0.618150	-0.545559
C33	C	1.472808	-0.710816	-0.551495
C34	C	1.462090	-0.880477	-0.562353
C35	C	1.523370	-0.921768	-0.501198
C36	C	1.517406	-1.016173	-0.507239
C37	C	1.468052	-0.786063	-0.556313
C38	C	1.766669	-0.401554	-0.531786
C39	C	1.883445	-0.401558	-0.531794
C40	C	1.492720	-0.401461	-0.805795
C41	C	1.492756	-0.401426	-0.922570
C42	C	1.506673	-0.184090	-0.517944
C43	C	1.512655	-0.091424	-0.512053
C44	C	1.634028	-0.294805	-0.915821
C45	C	1.704680	-0.241481	-0.967306
C46	C	1.704707	-0.241451	-1.077026
C47	C	1.634074	-0.294748	-1.135263
C48	C	1.563422	-0.348071	-1.083777
C49	C	1.563404	-0.348098	-0.974055
C50	C	1.422147	-0.454688	-1.090526
C51	C	1.422123	-0.454723	-0.980807
C52	C	1.351514	-0.507985	-1.148763
C53	C	1.280866	-0.561313	-1.097278
C54	C	1.280842	-0.561342	-0.987551
C55	C	1.351472	-0.508047	-0.929321
C56	C	1.492616	-0.401564	-0.258801
C57	C	1.492798	-0.401364	-0.142012
H58	H	1.079716	-0.605170	-0.800571
N59	N	1.390653	-0.925052	-0.633728
N60	N	1.398158	-0.915342	-0.730073
H61	H	1.347702	-0.946830	-0.780480
H62	H	1.185418	-0.508318	-0.672704
N63	N	1.594773	-0.877173	-0.429796
N64	N	1.560818	-0.828647	-0.359771
H65	H	1.611237	-0.797150	-0.309335
N66	N	1.351425	-0.508078	-0.817246
N67	N	1.288335	-0.555686	-0.771285
H68	H	1.288301	-0.555705	-0.692129
N69	N	1.634025	-0.294833	-0.803745
N70	N	1.697095	-0.247249	-0.751762
H71	H	1.697095	-0.247267	-0.672606
H72	H	1.223356	-0.604699	-1.144702
N73	N	1.776814	-0.187042	-0.907803
N74	N	1.776784	-0.187073	-0.809840
H75	H	1.827727	-0.148624	-0.767816
N76	N	1.776870	-0.186969	-1.129606
N77	N	1.839921	-0.139383	-1.077605
H78	H	1.890886	-0.100903	-1.114738
H79	H	1.223298	-0.604756	-0.945638
H80	H	1.634094	-0.294711	-1.224602
N81	N	1.351562	-0.507949	-1.260838
N82	N	1.432402	-0.525373	-1.310925
H83	H	1.432439	-0.525350	-1.390080
N84	N	0.868577	-0.616249	-0.815211
N85	N	0.914524	-0.663907	-0.878128
H86	H	0.872497	-0.702422	-0.928982
H87	H	0.800916	-0.294790	-0.390866
N88	N	0.764552	-0.508336	-0.672778
N89	N	0.712540	-0.556002	-0.735719
H90	H	0.633384	-0.556007	-0.735749
H91	H	0.906622	-0.197927	-0.262995
H92	H	1.199045	-0.294773	-0.390812
N93	N	1.117756	-0.186835	-0.248360
N94	N	1.071796	-0.139173	-0.185458
H95	H	1.113815	-0.100642	-0.134615
