data_functionalizedCrystal
_audit_creation_method	'MofGen! by Chris Wilmer'
_symmetry_space_group_name_H-M	'P1'
_symmetry_Int_Tables_number	1
_symmetry_cell_setting	triclinic
loop_
_symmetry_equiv_pos_as_xyz
  x,y,z
_cell_length_a	6.817900
_cell_length_b	8.749629
_cell_length_c	16.256277
_cell_angle_alpha	94.271163
_cell_angle_beta	103.500353
_cell_angle_gamma	105.181975
loop_
_atom_site_label
_atom_site_type_symbol
_atom_site_fract_x
_atom_site_fract_y
_atom_site_fract_z
V1	V	-4.034528	-0.220077	-0.262769
O2	O	-4.013994	0.009261	-0.258897
O3	O	-3.993589	-0.435112	-0.259885
O4	O	-3.986048	-0.217269	-0.377868
O5	O	-4.021587	-0.210090	-0.140098
V6	V	-4.517199	-0.192578	-0.248229
O7	O	-4.297654	-0.280400	-0.294665
O8	O	-4.704270	-0.132255	-0.216333
O9	O	-4.334931	0.022457	-0.251113
O10	O	-4.655130	-0.421916	-0.252100
O11	O	-4.647537	-0.202565	-0.370900
O12	O	-4.342472	-0.195386	-0.133130
C13	C	-3.840408	-0.487514	-0.255459
C14	C	-3.888222	-0.663311	-0.253868
C15	C	-3.830787	-0.209632	-0.405957
C16	C	-3.872483	-0.208759	-0.500043
C17	C	-4.163639	-0.214862	-0.731833
C18	C	-4.052366	-0.079142	-0.775605
C19	C	-3.948722	-0.207115	-0.672298
C20	C	-4.134238	-0.341183	-0.796163
C21	C	-4.022382	-0.205535	-0.838689
C22	C	-3.836866	-0.071299	-0.714822
C23	C	-3.918799	-0.333459	-0.735385
C24	C	-3.807366	-0.197702	-0.779126
C25	C	-3.906293	-0.208025	-0.576444
C26	C	-4.064792	-0.204614	-0.934539
C27	C	-4.151455	0.074851	-0.255536
C28	C	-4.082879	0.250646	-0.257132
C29	C	-4.161076	-0.203028	-0.105036
C30	C	-4.098618	-0.203893	-0.010949
H31	H	-4.109213	0.028392	-0.793537
H32	H	-3.862018	-0.441003	-0.717439
H33	H	-4.260384	-0.455225	-0.831477
H34	H	-3.758147	-0.724137	-0.249858
C35	C	-4.258618	-0.667188	-0.262554
H36	H	-4.202356	-0.555847	-0.262945
H37	H	-4.367228	-0.712195	-0.313535
H38	H	-4.314663	-0.682810	-0.214512
C39	C	-3.666686	0.082972	-0.667251
H40	H	-3.641158	0.081496	-0.607351
H41	H	-3.540280	0.089462	-0.683744
H42	H	-3.713688	0.173149	-0.681300
H43	H	-4.313760	-0.221958	-0.710907
H44	H	-3.656979	-0.190399	-0.799876
