data_functionalizedCrystal
_audit_creation_method	'MofGen! by Chris Wilmer'
_symmetry_space_group_name_H-M	'P1'
_symmetry_Int_Tables_number	1
_symmetry_cell_setting	triclinic
loop_
_symmetry_equiv_pos_as_xyz
  x,y,z
_cell_length_a	18.050591
_cell_length_b	25.639240
_cell_length_c	18.050582
_cell_angle_alpha	89.967473
_cell_angle_beta	89.978183
_cell_angle_gamma	90.028762
loop_
_atom_site_label
_atom_site_type_symbol
_atom_site_fract_x
_atom_site_fract_y
_atom_site_fract_z
Zn1	Zn	1.135276	-0.208236	-0.419984
Zn2	Zn	1.135175	-0.295665	-0.295774
Zn3	Zn	1.011093	-0.208239	-0.295795
Zn4	Zn	1.011033	-0.295636	-0.419909
O5	O	1.073144	-0.251944	-0.357865
O6	O	1.239187	-0.219844	-0.403529
O7	O	1.118698	-0.284081	-0.191852
O8	O	1.027633	-0.135074	-0.312309
O9	O	1.239113	-0.284078	-0.312273
O10	O	1.118870	-0.135071	-0.403550
O11	O	1.027535	-0.219850	-0.191867
O12	O	0.907160	-0.219822	-0.312236
O13	O	1.027531	-0.284029	-0.523844
O14	O	0.907116	-0.284032	-0.403423
O15	O	1.118812	-0.219817	-0.523898
O16	O	1.118640	-0.368826	-0.312200
O17	O	1.027433	-0.368805	-0.403402
C18	C	0.880192	-0.251925	-0.357824
C19	C	0.797646	-0.251929	-0.357824
C20	C	1.073039	-0.387787	-0.357807
C21	C	1.073062	-0.445901	-0.357807
C22	C	0.598198	-0.216971	-0.308351
C23	C	0.548773	-0.264659	-0.290064
C24	C	0.646516	-0.251945	-0.357858
C25	C	0.548859	-0.204274	-0.376143
C26	C	0.500531	-0.251956	-0.357889
C27	C	0.598178	-0.299658	-0.339535
C28	C	0.598269	-0.239240	-0.425646
C29	C	0.548866	-0.286961	-0.407384
C30	C	0.730614	-0.251938	-0.357838
C31	C	0.416434	-0.251968	-0.357909
C32	C	1.120674	-0.806224	-0.405460
C33	C	1.120696	-0.860828	-0.405475
O34	O	1.161053	-0.889031	-0.445932
N35	N	1.073247	-0.888183	-0.357937
C36	C	1.025767	-0.860931	-0.310386
O37	O	0.985410	-0.889212	-0.269953
C38	C	1.025742	-0.806327	-0.310375
C39	C	1.073200	-0.778976	-0.357911
C40	C	1.168128	-0.778872	-0.452993
C41	C	1.168107	-0.724272	-0.452977
C42	C	1.120632	-0.697023	-0.405428
C43	C	1.073179	-0.724375	-0.357895
C44	C	0.978260	-0.779076	-0.262828
C45	C	0.978238	-0.724469	-0.262822
C46	C	1.025696	-0.697117	-0.310358
C47	C	1.025683	-0.642526	-0.310330
N48	N	1.073133	-0.615171	-0.357868
C49	C	1.120607	-0.642420	-0.405417
C50	C	1.025823	-0.975601	-0.310413
C51	C	1.025851	-1.030204	-0.310420
C52	C	1.120779	-1.030098	-0.405510
C53	C	1.120754	-0.975494	-0.405499
C54	C	1.073272	-0.948247	-0.357951
C55	C	1.120560	-0.527755	-0.405379
C56	C	1.120537	-0.473149	-0.405356
C57	C	1.025606	-0.473260	-0.310269
C58	C	1.025632	-0.527861	-0.310288
C59	C	1.073111	-0.555107	-0.357849
O60	O	0.985345	-0.614288	-0.269896
O61	O	1.160951	-0.614132	-0.445850
C62	C	1.266850	-0.251964	-0.357907
C63	C	1.349395	-0.251973	-0.357925
C64	C	1.073176	-0.251919	-0.551571
C65	C	1.073190	-0.251909	-0.634117
C66	C	1.073270	-0.115571	-0.357940
C67	C	1.073323	-0.057457	-0.357972
C68	C	1.023598	-0.286770	-0.882913
C69	C	1.005463	-0.239081	-0.833534
C70	C	1.073253	-0.251832	-0.931237
C71	C	1.091321	-0.299556	-0.833534
C72	C	1.073220	-0.251872	-0.785252
C73	C	1.055083	-0.204117	-0.882946
C74	C	1.140973	-0.264624	-0.882951
C75	C	1.122864	-0.216902	-0.833594
C76	C	1.073270	-0.251809	-1.015336
C77	C	1.073203	-0.251889	-0.701156
C78	C	1.073155	-0.251931	-0.164913
C79	C	1.073285	-0.251794	-0.082368
H80	H	0.619858	-0.187426	-0.266440
F81	F	0.975084	-0.444251	-0.259665
H82	H	0.527342	-0.316576	-0.449263
F83	F	1.171093	-0.556744	-0.455998
H84	H	1.198240	-0.275445	-0.904673
H85	H	1.206787	-0.801052	-0.491717
F86	F	1.111311	-0.352287	-0.805158
F87	F	1.171305	-1.059107	-0.456117
F88	F	1.177733	-0.178262	-0.805466
H89	H	1.206749	-0.702005	-0.491687
F90	F	1.171264	-0.946389	-0.456094
F91	F	0.975287	-0.946607	-0.259798
F92	F	0.520355	-0.278715	-0.215153
F93	F	0.626373	-0.352374	-0.319251
H94	H	0.620027	-0.228472	-0.482942
F95	F	0.975131	-0.556972	-0.259686
F96	F	0.520538	-0.151574	-0.396340
H97	H	1.159185	-0.450881	-0.444065
H98	H	0.939615	-0.801337	-0.224119
F99	F	0.927699	-0.695473	-0.212214
F100	F	0.975350	-1.059308	-0.259816
F101	F	0.968691	-0.325319	-0.911222
F102	F	0.930590	-0.224955	-0.805163
F103	F	1.035003	-0.151370	-0.911193
