data_functionalizedCrystal
_audit_creation_method	'MofGen! by Chris Wilmer'
_symmetry_space_group_name_H-M	'P1'
_symmetry_Int_Tables_number	1
_symmetry_cell_setting	triclinic
loop_
_symmetry_equiv_pos_as_xyz
  x,y,z
_cell_length_a	12.759401
_cell_length_b	12.759399
_cell_length_c	12.759393
_cell_angle_alpha	89.969730
_cell_angle_beta	89.979914
_cell_angle_gamma	90.013324
loop_
_atom_site_label
_atom_site_type_symbol
_atom_site_fract_x
_atom_site_fract_y
_atom_site_fract_z
Zn1	Zn	-1.606258	0.418272	0.594007
Zn2	Zn	-1.106258	0.918272	1.094007
Zn3	Zn	-1.606150	0.593986	0.418326
Zn4	Zn	-1.106150	1.093986	0.918326
Zn5	Zn	-1.430559	0.418316	0.418343
Zn6	Zn	-0.930559	0.918316	0.918343
Zn7	Zn	-1.430548	0.593904	0.593964
Zn8	Zn	-0.930548	1.093904	1.093964
O9	O	-1.518379	0.506120	0.506160
O10	O	-1.018379	1.006120	1.006160
O11	O	-1.753265	0.441597	0.570713
O12	O	-1.253265	0.941597	1.070713
O13	O	-1.582816	0.570735	0.271307
O14	O	-1.082816	1.070735	0.771307
O15	O	-1.453916	0.271289	0.441670
O16	O	-0.953916	0.771289	0.941670
O17	O	-1.753185	0.570693	0.441641
O18	O	-1.253185	1.070693	0.941641
O19	O	-1.583001	0.271257	0.570730
O20	O	-1.083001	0.771257	1.070730
O21	O	-1.453810	0.441672	0.271320
O22	O	-0.953810	0.941672	0.771320
O23	O	-1.283536	0.441592	0.441629
O24	O	-0.783536	0.941592	0.941629
O25	O	-1.453897	0.570554	0.740991
O26	O	-0.953897	1.070554	1.240991
O27	O	-1.283528	0.570596	0.570657
O28	O	-0.783528	1.070596	1.070657
O29	O	-1.582991	0.441518	0.741022
O30	O	-1.082991	0.941518	1.241022
O31	O	-1.582806	0.740996	0.441599
O32	O	-1.082806	1.240996	0.941599
O33	O	-1.453792	0.740936	0.570640
O34	O	-0.953792	1.240936	1.070640
C35	C	-1.245411	0.506091	0.506141
C36	C	-0.745411	1.006091	1.006141
C37	C	-1.128635	0.506104	0.506157
C38	C	-0.628635	1.006104	1.006157
C39	C	-1.073815	0.439003	0.573468
C40	C	-0.573815	0.939003	1.073468
C41	C	-0.964091	0.439010	0.573473
C42	C	-0.464091	0.939010	1.073473
C43	C	-0.964016	0.573227	0.438854
C44	C	-0.464016	1.073227	0.938854
C45	C	-1.073738	0.573214	0.438845
C46	C	-0.573738	1.073214	0.938845
C47	C	-1.518314	0.779087	0.506136
C48	C	-1.018314	1.279087	1.006136
C49	C	-1.518383	0.895864	0.506161
C50	C	-1.018383	1.395864	1.006161
C51	C	-1.518455	0.506022	0.780193
C52	C	-1.018455	1.006022	1.280193
C53	C	-1.518487	0.505980	0.896970
C54	C	-1.018487	1.005980	1.396970
C55	C	-0.792412	0.506139	0.506176
C56	C	-0.292412	1.006139	1.006176
C57	C	-0.909188	0.506123	0.506172
C58	C	-0.409188	1.006123	1.006172
C59	C	-1.518472	0.232086	0.506207
C60	C	-1.018472	0.732086	1.006207
C61	C	-1.518512	0.115310	0.506227
C62	C	-1.018512	0.615310	1.006227
C63	C	-1.585637	0.950722	0.439046
C64	C	-1.085637	1.450722	0.939046
C65	C	-1.585704	1.060446	0.439081
C66	C	-1.085704	1.560446	0.939081
C67	C	-1.451254	1.060444	0.573349
C68	C	-0.951254	1.560444	1.073349
C69	C	-1.451193	0.950722	0.573319
C70	C	-0.951193	1.450722	1.073319
C71	C	-1.518363	0.506141	0.233192
C72	C	-1.018363	1.006141	0.733192
C73	C	-1.518534	0.505887	0.116416
C74	C	-1.018534	1.005887	0.616416
C75	C	-1.585688	0.573106	1.061561
C76	C	-1.085688	1.073106	1.561561
C77	C	-1.585663	0.573155	0.951837
C78	C	-1.085663	1.073155	1.451837
C79	C	-1.451325	0.438758	0.951833
C80	C	-0.951325	0.938758	1.451833
C81	C	-1.451346	0.438715	1.061555
C82	C	-0.951346	0.938715	1.561555
H83	H	-1.118373	0.627857	0.384027
H84	H	-0.618373	1.127857	0.884027
Br85	Br	-0.889507	0.664302	0.347507
Br86	Br	-0.389507	1.164302	0.847507
H87	H	-1.640348	0.906059	0.384363
H88	H	-1.140348	1.406059	0.884363
Br89	Br	-1.676801	0.664389	0.877393
Br90	Br	-1.176801	1.164389	1.377393
H91	H	-1.396656	0.383976	1.106220
H92	H	-0.896656	0.883976	1.606220
Br93	Br	-0.889696	0.347936	0.664824
Br94	Br	-0.389696	0.847936	1.164824
Br95	Br	-1.676870	0.664268	1.136012
Br96	Br	-1.176870	1.164268	1.636012
H97	H	-1.396426	0.906053	0.627977
H98	H	-0.896426	1.406053	1.127977
H99	H	-1.118508	0.384354	0.628275
H100	H	-0.618508	0.884354	1.128275
Br101	Br	-1.676988	1.134893	0.347998
Br102	Br	-1.176988	1.634893	0.847998
H103	H	-1.396549	1.105123	0.628025
H104	H	-0.896549	1.605123	1.128025
Br105	Br	-1.360171	0.347577	0.877372
Br106	Br	-0.860171	0.847577	1.377372
