data_functionalizedCrystal
_audit_creation_method	'MofGen! by Chris Wilmer'
_symmetry_space_group_name_H-M	'P1'
_symmetry_Int_Tables_number	1
_symmetry_cell_setting	triclinic
loop_
_symmetry_equiv_pos_as_xyz
  x,y,z
_cell_length_a	15.995343
_cell_length_b	17.699083
_cell_length_c	16.776229
_cell_angle_alpha	89.998886
_cell_angle_beta	90.011373
_cell_angle_gamma	96.613900
loop_
_atom_site_label
_atom_site_type_symbol
_atom_site_fract_x
_atom_site_fract_y
_atom_site_fract_z
O1	O	0.105886	-1.004252	0.066185
O2	O	0.119661	-0.783896	0.066212
O3	O	-0.009127	-0.900101	0.066183
O4	O	0.234674	-0.888047	0.066214
O5	O	-0.009135	-0.900085	-0.066394
O6	O	0.119654	-0.783881	-0.066365
O7	O	0.105878	-1.004236	-0.066392
Zn8	Zn	0.112764	-0.894056	-0.087427
Zn9	Zn	0.112775	-0.894076	0.087248
O10	O	0.234666	-0.888032	-0.066363
C11	C	0.119164	-0.755690	-0.000073
C12	C	0.117683	-0.671670	-0.000063
C13	C	-0.040325	-0.899596	-0.000107
C14	C	-0.133272	-0.898105	-0.000114
C15	C	0.106375	-1.032442	-0.000105
C16	C	0.107856	-1.116462	-0.000109
C17	C	-0.303453	-0.895399	-0.000095
C18	C	-0.326628	-0.811517	-0.000083
C19	C	-0.423303	-0.809939	0.000227
C20	C	-0.471008	-0.892734	-0.000078
C21	C	-0.441990	-0.934920	0.075472
C22	C	-0.345200	-0.935915	0.075527
C23	C	-0.345315	-0.937125	-0.075243
C24	C	-0.441804	-0.934028	-0.076227
C25	C	-0.565703	-0.891232	-0.000065
C26	C	-0.208758	-0.896903	-0.000102
C27	C	0.265864	-0.888537	-0.000071
C28	C	0.358811	-0.890028	-0.000059
N29	N	0.112757	-0.894048	-0.206639
C30	C	0.193279	-0.623173	-0.000054
C31	C	0.191883	-0.544227	-0.000064
C32	C	0.114889	-0.513780	-0.000079
C33	C	0.039288	-0.562284	-0.000090
C34	C	0.040685	-0.641228	-0.000086
C35	C	0.033651	-0.243911	-0.000111
C36	C	0.032259	-0.164961	-0.000113
C37	C	0.184849	-0.146911	-0.000090
C38	C	0.186246	-0.225855	-0.000085
C39	C	0.110644	-0.274351	-0.000101
C40	C	0.112160	-0.359953	-0.000091
C41	C	0.113373	-0.428180	-0.000083
C42	C	0.055753	-0.945519	-0.248369
C43	C	0.055752	-0.945523	-0.331821
C44	C	0.112760	-0.894059	-0.373542
C45	C	0.169767	-0.842583	-0.331806
C46	C	0.169763	-0.842575	-0.248355
C47	C	0.169783	-0.842610	-0.668353
C48	C	0.169785	-0.842623	-0.751810
C49	C	0.055772	-0.945558	-0.751819
C50	C	0.055768	-0.945550	-0.668368
C51	C	0.112772	-0.894072	-0.626640
C52	C	0.112771	-0.894067	-0.536151
C53	C	0.112766	-0.894067	-0.464028
N54	N	0.112776	-0.894091	0.206459
H55	H	-0.298562	-0.778997	-0.054254
H56	H	-0.027909	-0.283388	-0.000124
H57	H	-0.297570	-0.779540	0.054022
H58	H	-0.331421	-0.998865	-0.075984
C59	C	0.257498	-0.415196	-0.000056
C60	C	0.274980	-0.490918	-0.000045
H61	H	0.308803	-0.382287	-0.000047
H62	H	0.225922	-0.405971	0.046164
H63	H	0.225926	-0.405976	-0.046301
H64	H	0.306547	-0.500140	0.046204
H65	H	0.306570	-0.500147	-0.046269
C66	C	0.250475	-0.017878	-0.000097
C67	C	0.267954	-0.093601	-0.000083
H68	H	0.301780	0.015030	-0.000096
H69	H	0.218905	-0.008649	0.046126
H70	H	0.218897	-0.008660	-0.046339
H71	H	0.299527	-0.102821	0.046163
H72	H	0.299537	-0.102834	-0.046310
C73	C	0.336940	-0.200081	-0.000072
C74	C	0.270879	-0.259321	-0.000073
H75	H	0.389188	-0.220742	-0.000072
H76	H	0.333228	-0.169666	0.046156
H77	H	0.333210	-0.169665	-0.046309
H78	H	0.274605	-0.289734	0.046167
H79	H	0.274593	-0.289748	-0.046306
C80	C	0.283732	-0.826134	-0.154476
C81	C	0.232424	-0.785999	-0.202480
H82	H	0.322412	-0.791202	-0.126152
H83	H	0.313810	-0.857629	-0.187019
H84	H	0.249769	-0.856780	-0.117691
H85	H	0.266387	-0.755357	-0.239268
H86	H	0.202344	-0.754491	-0.169933
H87	H	-0.442263	-0.776909	-0.053914
H88	H	-0.318346	-0.907053	0.132224
H89	H	-0.030442	-0.140175	-0.000126
H90	H	-0.441665	-0.777087	0.054713
C91	C	-0.401157	-1.067585	0.082432
C92	C	-0.325686	-1.018951	0.079882
H93	H	-0.389110	-1.118846	0.085133
H94	H	-0.433052	-1.060661	0.035777
H95	H	-0.432484	-1.056236	0.128126
H96	H	-0.294362	-1.030297	0.034185
H97	H	-0.293778	-1.025879	0.126543
C98	C	0.220405	-0.796892	-0.459724
C99	C	0.232434	-0.786013	-0.377664
H100	H	0.259100	-0.761971	-0.488031
H101	H	0.164543	-0.788675	-0.473412
H102	H	0.229431	-0.847405	-0.473381
H103	H	0.223403	-0.735501	-0.364005
H104	H	0.288310	-0.794224	-0.363970
C105	C	-0.030611	-0.449285	-0.000101
C106	C	-0.045346	-0.528818	-0.000104
H107	H	-0.082862	-0.428628	-0.000103
H108	H	0.000500	-0.432643	-0.046327
H109	H	0.000513	-0.432645	0.046138
H110	H	-0.076465	-0.545458	-0.046347
H111	H	-0.076470	-0.545467	0.046126
C112	C	0.037381	-1.048485	-0.154471
C113	C	-0.006934	-1.002055	-0.202492
H114	H	-0.001329	-1.083379	-0.126149
H115	H	0.071342	-1.017829	-0.117692
H116	H	0.072173	-1.075743	-0.187008
H117	H	-0.041721	-0.974792	-0.169954
H118	H	-0.040910	-1.032715	-0.239275
H119	H	0.216199	-0.800695	-0.634384
C120	C	-0.394383	-0.867207	-0.195398
C121	C	-0.466779	-0.892567	-0.151691
H122	H	-0.409804	-0.841608	-0.241984
H123	H	-0.366277	-0.909520	-0.210191
H124	H	-0.357976	-0.833284	-0.163663
H125	H	-0.503183	-0.926494	-0.183424
H126	H	-0.494898	-0.850248	-0.136899
C127	C	-0.397639	-0.870260	0.196748
C128	C	-0.469008	-0.895861	0.151680
H129	H	-0.414318	-0.846147	0.243795
H130	H	-0.361525	-0.834993	0.166247
H131	H	-0.368679	-0.912280	0.210777
H132	H	-0.497964	-0.853840	0.137645
H133	H	-0.505136	-0.931130	0.182187
C134	C	-0.089257	-0.990007	-0.357529
C135	C	-0.006903	-1.002113	-0.377684
H136	H	-0.127936	-1.024951	-0.385838
H137	H	-0.098287	-0.939510	-0.371224
H138	H	-0.097401	-0.997364	-0.301856
H139	H	0.001244	-0.994751	-0.433357
H140	H	0.002131	-1.052622	-0.363995
H141	H	-0.473960	-0.995854	0.078063
H142	H	0.255976	-0.647956	-0.000042
C143	C	-0.088941	-0.680928	0.068057
C144	C	-0.042411	-0.694542	-0.000090
H145	H	-0.140240	-0.713846	0.068053
H146	H	-0.100793	-0.629562	0.068047
H147	H	-0.057351	-0.690157	0.114288
H148	H	-0.073999	-0.685308	-0.046321
H149	H	-0.030562	-0.745920	-0.000086
C150	C	-0.058214	-0.962002	-0.845684
C151	C	-0.006898	-1.002137	-0.797690
H152	H	-0.096904	-0.996933	-0.873997
H153	H	-0.024264	-0.931360	-0.882470
H154	H	-0.088287	-0.930502	-0.813128
H155	H	0.023180	-1.033633	-0.830246
H156	H	-0.040853	-1.032792	-0.760899
C157	C	-0.056939	-1.047296	-0.676762
C158	C	-0.006899	-1.002118	-0.622510
H159	H	-0.095632	-1.082213	-0.648449
H160	H	-0.022123	-1.074521	-0.709295
H161	H	-0.087009	-1.015789	-0.709325
H162	H	0.023175	-1.033625	-0.589950
H163	H	-0.041720	-0.974891	-0.589962
C164	C	-0.541320	-1.030315	-0.018104
C165	C	-0.486468	-1.015579	-0.082723
H166	H	-0.568898	-1.080662	-0.022115
H167	H	-0.582003	-0.995233	-0.018606
H168	H	-0.510254	-1.025057	0.030235
H169	H	-0.517536	-1.020832	-0.131062
H170	H	-0.445780	-1.050672	-0.082228
H171	H	0.216209	-0.800712	-0.785777
H172	H	-0.317000	-0.910653	-0.132528
