data_functionalizedCrystal
_audit_creation_method	'MofGen! by Chris Wilmer'
_symmetry_space_group_name_H-M	'P1'
_symmetry_Int_Tables_number	1
_symmetry_cell_setting	triclinic
loop_
_symmetry_equiv_pos_as_xyz
  x,y,z
_cell_length_a	11.169417
_cell_length_b	12.759399
_cell_length_c	11.169409
_cell_angle_alpha	89.965848
_cell_angle_beta	89.979436
_cell_angle_gamma	90.015995
loop_
_atom_site_label
_atom_site_type_symbol
_atom_site_fract_x
_atom_site_fract_y
_atom_site_fract_z
Zn1	Zn	1.834931	-0.418157	-0.678527
Zn2	Zn	1.834801	-0.593883	-0.477837
Zn3	Zn	1.634215	-0.418221	-0.477861
Zn4	Zn	1.634208	-0.593797	-0.678482
O5	O	1.734539	-0.506015	-0.578177
O6	O	2.002864	-0.441477	-0.651914
O7	O	1.808141	-0.570643	-0.309891
O8	O	1.660897	-0.271192	-0.504509
O9	O	2.002768	-0.570581	-0.504468
O10	O	1.808363	-0.271145	-0.651937
O11	O	1.660771	-0.441585	-0.309908
O12	O	1.466264	-0.441503	-0.504466
O13	O	1.660886	-0.570436	-0.846438
O14	O	1.466259	-0.570498	-0.651861
O15	O	1.808356	-0.441394	-0.846471
O16	O	1.808135	-0.740892	-0.504425
O17	O	1.660760	-0.740830	-0.651838
C18	C	1.422714	-0.505999	-0.578162
C19	C	1.289314	-0.506017	-0.578184
C20	C	1.734465	-0.778982	-0.578150
C21	C	1.734544	-0.895759	-0.578178
C22	C	1.811369	-0.950618	-0.501508
C23	C	1.811446	-1.060342	-0.501548
C24	C	1.657862	-1.060337	-0.654933
C25	C	1.657791	-0.950615	-0.654898
C26	C	1.953107	-1.210221	-0.458834
C27	C	2.029922	-1.265085	-0.382145
C28	C	2.048383	-1.229550	-0.265042
C29	C	1.990012	-1.139154	-0.224604
C30	C	1.913187	-1.084296	-0.301287
C31	C	1.894749	-1.119829	-0.418407
C32	C	1.516129	-0.800734	-0.697599
C33	C	1.439298	-0.745875	-0.774277
C34	C	1.420825	-0.781407	-0.891382
C35	C	1.479175	-0.871807	-0.931815
C36	C	1.556006	-0.926667	-0.855137
C37	C	1.574482	-0.891126	-0.738033
C38	C	2.047581	-0.506031	-0.578193
C39	C	2.180981	-0.506038	-0.578200
C40	C	1.734635	-0.505898	-0.891220
C41	C	1.734676	-0.505849	-1.024620
C42	C	1.734645	-0.231981	-0.578231
C43	C	1.734691	-0.115205	-0.578254
C44	C	1.734512	-0.506055	-0.266352
C45	C	1.734703	-0.505808	-0.132953
H46	H	1.865665	-1.010696	-0.268364
O47	O	1.583135	-1.113510	-0.729389
C48	C	1.463512	-1.086824	-0.703032
H49	H	1.460998	-1.007196	-0.656866
H50	H	1.423155	-1.148653	-0.641314
C51	C	1.393842	-1.179515	-0.876673
C52	C	1.390753	-1.081710	-0.819981
H53	H	1.348958	-1.176365	-0.948811
H54	H	1.474433	-1.197498	-0.894429
H55	H	1.360213	-1.231029	-0.825230
H56	H	1.424395	-1.030201	-0.871419
H57	H	1.310165	-1.063718	-0.802237
O58	O	1.612653	-1.014428	-0.894625
C59	C	1.579858	-1.034044	-1.014422
H60	H	1.548201	-0.958081	-1.057857
H61	H	1.504419	-1.094212	-1.016716
C62	C	1.727585	-1.170106	-1.030161
C63	C	1.688713	-1.076805	-1.083512
H64	H	1.794729	-1.196488	-1.072779
H65	H	1.749677	-1.156893	-0.949451
H66	H	1.664709	-1.220234	-1.032076
H67	H	1.751583	-1.026675	-1.081583
H68	H	1.666634	-1.090010	-1.164225
H69	H	1.531174	-0.771789	-0.602245
H70	H	1.938095	-1.239155	-0.554193
H71	H	1.464134	-0.900738	-1.027172
O72	O	2.007762	-1.104526	-0.110861
C73	C	1.939795	-1.012967	-0.091626
H74	H	1.861912	-1.010720	-0.157513
H75	H	1.998902	-0.941138	-0.105633
C76	C	1.986570	-1.015776	0.118229
C77	C	1.890907	-1.013021	0.037312
H78	H	1.956418	-1.015805	0.197765
H79	H	2.032365	-1.077458	0.105271
H80	H	2.035818	-0.955917	0.106542
H81	H	1.841670	-1.072885	0.048990
H82	H	1.845103	-0.951348	0.050276
H83	H	1.391793	-0.672262	-0.741348
O84	O	1.885758	-0.897282	-0.426865
C85	C	1.817429	-0.833905	-0.349287
H86	H	1.722928	-0.867046	-0.341801
H87	H	1.813223	-0.750723	-0.386364
C88	C	1.992195	-0.791569	-0.233766
C89	C	1.876130	-0.832278	-0.224564
H90	H	2.028406	-0.790561	-0.156831
H91	H	2.038231	-0.834264	-0.286034
H92	H	1.988674	-0.722254	-0.264668
H93	H	1.879654	-0.901596	-0.193677
H94	H	1.830096	-0.789595	-0.172287
H95	H	1.358259	-0.736731	-0.953811
H96	H	2.077449	-1.338685	-0.415081
H97	H	2.110930	-1.274227	-0.202601
