data_functionalizedCrystal
_audit_creation_method	'MofGen! by Chris Wilmer'
_symmetry_space_group_name_H-M	'P1'
_symmetry_Int_Tables_number	1
_symmetry_cell_setting	triclinic
loop_
_symmetry_equiv_pos_as_xyz
  x,y,z
_cell_length_a	14.519709
_cell_length_b	16.053802
_cell_length_c	16.992695
_cell_angle_alpha	87.258926
_cell_angle_beta	92.825816
_cell_angle_gamma	87.419624
loop_
_atom_site_label
_atom_site_type_symbol
_atom_site_fract_x
_atom_site_fract_y
_atom_site_fract_z
O1	O	1.234886	-0.069320	-0.099504
O2	O	0.967279	-0.069346	-0.111608
O3	O	1.100010	-0.069327	0.008588
O4	O	1.102156	-0.069340	-0.219700
O5	O	1.092702	0.069531	0.001999
O6	O	0.959971	0.069512	-0.118197
O7	O	1.227578	0.069537	-0.106092
Zn8	Zn	1.092615	0.091571	-0.113191
Zn9	Zn	1.102243	-0.091380	-0.104510
O10	O	1.094848	0.069518	-0.226288
C11	C	0.929225	0.000080	-0.114338
C12	C	0.826723	0.000070	-0.112647
C13	C	1.093596	0.000102	0.034510
C14	C	1.085360	0.000101	0.121566
N15	N	1.086050	0.216431	-0.119115
C16	C	0.451379	0.000108	-0.106425
C17	C	0.555811	0.000097	-0.108153
C18	C	0.639048	0.000088	-0.109536
C19	C	0.743487	0.000079	-0.111264
C20	C	1.265632	0.000110	-0.103362
C21	C	1.368135	0.000114	-0.105053
N22	N	1.108814	-0.216239	-0.098580
C23	C	1.142550	0.260133	-0.067989
C24	C	1.137968	0.347539	-0.072141
C25	C	1.076889	0.391241	-0.127422
C26	C	1.020382	0.347533	-0.178549
C27	C	1.024961	0.260128	-0.174393
C28	C	1.056886	0.652648	-0.145552
C29	C	1.052314	0.740059	-0.149705
C30	C	1.169899	0.740058	-0.043295
C31	C	1.174476	0.652652	-0.039147
C32	C	1.117966	0.608952	-0.090272
N33	N	1.072205	0.480584	-0.131668
N34	N	1.122646	0.519610	-0.086022
C35	C	1.101262	0.000088	-0.252210
C36	C	1.109498	0.000083	-0.339266
C37	C	1.164820	0.000109	0.171694
C38	C	1.157077	0.000101	0.253492
C39	C	1.069873	0.000089	0.285160
C40	C	0.990408	0.000079	0.235025
C41	C	0.998152	0.000081	0.153229
C42	C	1.037777	0.000075	0.528803
C43	C	1.030038	0.000075	0.610605
C44	C	1.196708	0.000095	0.629067
C45	C	1.204444	0.000103	0.547269
C46	C	1.124979	0.000088	0.497141
N47	N	1.061956	0.000083	0.368770
N48	N	1.132897	0.000088	0.413533
H49	H	1.192291	0.224556	-0.022977
N50	N	1.198942	0.394663	-0.017016
H51	H	1.185048	0.379465	0.039391
H52	H	1.265827	0.379404	-0.025547
H53	H	0.973070	0.000063	0.487998
N54	N	1.242781	0.000117	0.307557
H55	H	1.240567	0.051590	0.339468
H56	H	1.245951	-0.051394	0.344294
H57	H	0.970645	0.383120	-0.223558
H58	H	1.261404	0.000106	0.669890
H59	H	1.235830	0.000123	0.145918
H60	H	1.224211	0.617072	0.005867
H61	H	1.010876	0.617074	-0.187181
N62	N	0.935977	0.000061	0.644760
H63	H	0.903606	-0.051421	0.628934
H64	H	0.943209	0.000098	0.704176
H65	H	1.215905	0.775647	-0.001671
N66	N	0.896351	0.000061	0.269176
H67	H	0.903500	0.000064	0.328600
H68	H	0.858605	0.051533	0.248405
H69	H	1.002574	0.775637	-0.194725
H70	H	0.978951	0.224547	-0.216024
N71	N	1.298499	0.000120	0.513114
H72	H	1.347663	0.000124	0.557284
H73	H	1.308054	-0.051353	0.482016
H74	H	0.933447	0.000074	0.112414
