data_functionalizedCrystal
_audit_creation_method	'MofGen! by Chris Wilmer'
_symmetry_space_group_name_H-M	'P1'
_symmetry_Int_Tables_number	1
_symmetry_cell_setting	triclinic
loop_
_symmetry_equiv_pos_as_xyz
  x,y,z
_cell_length_a	16.625548
_cell_length_b	12.759399
_cell_length_c	12.759393
_cell_angle_alpha	90.030906
_cell_angle_beta	90.022725
_cell_angle_gamma	90.016184
loop_
_atom_site_label
_atom_site_type_symbol
_atom_site_fract_x
_atom_site_fract_y
_atom_site_fract_z
Zn1	Zn	-1.232739	0.418185	-0.594067
Zn2	Zn	-1.232654	0.593901	-0.418386
Zn3	Zn	-1.097896	0.418240	-0.418397
Zn4	Zn	-1.097888	0.593826	-0.594018
O5	O	-1.165294	0.506038	-0.506217
O6	O	-1.345560	0.441503	-0.570779
O7	O	-1.214746	0.570653	-0.271366
O8	O	-1.115821	0.271212	-0.441725
O9	O	-1.345498	0.570601	-0.441707
O10	O	-1.214890	0.271172	-0.570789
O11	O	-1.115739	0.441596	-0.271374
O12	O	-0.985062	0.441523	-0.441677
O13	O	-1.115809	0.570473	-0.741046
O14	O	-0.985057	0.570526	-0.570705
O15	O	-1.214883	0.441431	-0.741082
O16	O	-1.214739	0.740912	-0.441659
O17	O	-1.115727	0.740857	-0.570695
C18	C	-1.165245	0.779006	-0.506193
C19	C	-1.165297	0.895782	-0.506218
C20	C	-0.955803	0.506023	-0.506188
C21	C	-0.866182	0.506042	-0.506200
C22	C	-1.375603	0.506054	-0.506247
C23	C	-1.465224	0.506061	-0.506260
C24	C	-0.538007	0.506049	-0.506245
C25	C	-0.629315	0.506044	-0.506229
C26	C	-0.702092	0.506046	-0.506222
C27	C	-0.793406	0.506040	-0.506207
C28	C	-1.165355	0.505937	-0.780250
C29	C	-1.165380	0.505894	-0.897027
C30	C	-1.165366	0.232005	-0.506264
C31	C	-1.165396	0.115228	-0.506284
C32	C	-1.216912	0.950638	-0.439105
C33	C	-1.216964	1.060362	-0.439141
C34	C	-1.113780	1.060365	-0.573404
C35	C	-1.113733	0.950643	-0.573373
C36	C	-1.216972	0.438691	-0.951910
C37	C	-1.216986	0.438646	-1.061634
C38	C	-1.113814	0.573016	-1.061583
C39	C	-1.113797	0.573055	-0.951861
C40	C	-1.165281	0.506063	-0.233250
C41	C	-1.165411	0.505810	-0.116474
H42	H	-1.258900	0.905973	-0.384425
H43	H	-1.071779	0.627779	-0.907175
C44	C	-1.262939	1.228553	-0.379683
C45	C	-1.273754	1.120660	-0.365441
H46	H	-1.298023	1.265776	-0.334208
H47	H	-1.208804	1.246643	-0.364179
H48	H	-1.274671	1.246412	-0.450320
H49	H	-1.262017	1.102800	-0.294805
H50	H	-1.327902	1.102563	-0.380937
H51	H	-1.071796	1.105046	-0.628078
H52	H	-1.071818	0.627698	-1.106242
H53	H	-1.258995	0.383921	-1.106314
H54	H	-1.258973	0.384002	-0.907267
H55	H	-1.071702	0.905976	-0.628029
