data_functionalizedCrystal
_audit_creation_method	'MofGen! by Chris Wilmer'
_symmetry_space_group_name_H-M	'P1'
_symmetry_Int_Tables_number	1
_symmetry_cell_setting	triclinic
loop_
_symmetry_equiv_pos_as_xyz
  x,y,z
_cell_length_a	16.109318
_cell_length_b	12.811415
_cell_length_c	15.186229
_cell_angle_alpha	84.565396
_cell_angle_beta	90.000224
_cell_angle_gamma	83.757608
loop_
_atom_site_label
_atom_site_type_symbol
_atom_site_fract_x
_atom_site_fract_y
_atom_site_fract_z
O1	O	1.103618	0.134999	-0.083934
O2	O	1.603618	0.634999	0.416066
O3	O	0.861619	0.151769	-0.085291
O4	O	1.361619	0.651769	0.414709
O5	O	0.988707	-0.009410	-0.072407
O6	O	1.488707	0.490590	0.427593
O7	O	0.976531	0.296178	-0.096819
O8	O	1.476531	0.796178	0.403181
O9	O	0.988698	-0.009412	0.074051
O10	O	1.488698	0.490588	0.574051
O11	O	0.861611	0.151767	0.061166
O12	O	1.361611	0.651767	0.561166
O13	O	1.103609	0.134997	0.062523
O14	O	1.603609	0.634997	0.562523
Zn15	Zn	0.982609	0.143381	0.085098
Zn16	Zn	1.482609	0.643381	0.585098
Zn17	Zn	0.982620	0.143384	-0.107866
Zn18	Zn	1.482620	0.643384	0.392134
O19	O	0.976522	0.296176	0.049639
O20	O	1.476522	0.796176	0.549639
C21	C	0.830638	0.151086	-0.012010
C22	C	1.330638	0.651086	0.487990
C23	C	0.738336	0.149040	-0.011853
C24	C	1.238336	0.649040	0.488147
C25	C	0.439243	0.142432	-0.091144
C26	C	0.939243	0.642432	0.408856
C27	C	0.525971	0.144348	-0.091302
C28	C	1.025971	0.644348	0.408698
C29	C	0.525980	0.144331	0.068375
C30	C	1.025980	0.644331	0.568375
C31	C	0.439254	0.142408	0.068533
C32	C	0.939254	0.642408	0.568533
C33	C	0.395887	0.141464	-0.011229
C34	C	0.895887	0.641464	0.488771
C35	C	0.569342	0.145302	-0.011546
C36	C	1.069342	0.645302	0.488454
C37	C	0.663376	0.147379	-0.011717
C38	C	1.163376	0.647379	0.488283
C39	C	0.301847	0.139384	-0.011058
C40	C	0.801847	0.639384	0.488942
C41	C	0.988020	-0.048515	0.003944
C42	C	1.488020	0.451485	0.503944
C43	C	0.985977	-0.165033	0.013246
C44	C	1.485977	0.334967	0.513246
C45	C	0.982131	-0.383968	-0.128961
C46	C	1.482131	0.116032	0.371039
C47	C	0.980211	-0.493446	-0.120225
C48	C	1.480211	0.006554	0.379775
C49	C	0.980211	-0.493470	0.039452
C50	C	1.480211	0.006530	0.539452
C51	C	0.982131	-0.383991	0.030717
C52	C	1.482131	0.116009	0.530717
C53	C	0.983092	-0.329244	-0.053493
C54	C	1.483092	0.170756	0.446507
C55	C	0.985018	-0.219764	-0.062228
C56	C	1.485018	0.280236	0.437772
C57	C	0.985012	-0.219789	0.097449
C58	C	1.485012	0.280211	0.597449
C59	C	0.983092	-0.329267	0.106185
C60	C	1.483092	0.170733	0.606185
C61	C	1.134591	0.135680	-0.010760
C62	C	1.634591	0.635680	0.489240
C63	C	1.226893	0.137726	-0.010922
C64	C	1.726893	0.637726	0.489078
C65	C	0.977209	0.335281	-0.026714
C66	C	1.477209	0.835281	0.473286
C67	C	0.979252	0.451799	-0.036021
C68	C	1.479252	0.951799	0.463979
N69	N	0.982607	0.143379	0.216791
N70	N	1.482607	0.643379	0.716791
N71	N	0.982628	0.143379	-0.239558
N72	N	1.482628	0.643379	0.260442
C73	C	1.038901	0.072033	0.448217
C74	C	1.538901	0.572033	0.948217
C75	C	1.038903	0.072030	0.540407
C76	C	1.538903	0.572030	1.040407
C77	C	0.926329	0.214728	0.529009
C78	C	1.426329	0.714728	1.029009
C79	C	0.926323	0.214725	0.436821
C80	C	1.426323	0.714725	0.936821
C81	C	0.982613	0.143378	0.396428
C82	C	1.482613	0.643378	0.896428
C83	C	0.982622	0.143379	0.580805
C84	C	1.482622	0.643379	1.080805
C85	C	0.982624	0.143377	0.680762
C86	C	1.482624	0.643377	1.180762
C87	C	0.982610	0.143379	0.296465
C88	C	1.482610	0.643379	0.796465
H89	H	0.561300	0.145101	0.133314
H90	H	1.061300	0.645101	0.633314
H91	H	0.561267	0.145135	-0.156377
H92	H	1.061267	0.645135	0.343623
F93	F	0.866425	0.290660	0.572005
F94	F	1.366425	0.790660	1.072005
H95	H	0.403954	0.141618	0.133613
H96	H	0.903954	0.641618	0.633613
H97	H	1.084735	0.013936	0.415331
H98	H	1.584735	0.513936	0.915331
F99	F	0.983165	-0.325701	-0.218581
F100	F	1.483165	0.174299	0.281419
H101	H	0.985797	-0.175222	0.158901
H102	H	1.485797	0.324778	0.658901
F103	F	1.098810	-0.003908	0.595523
F104	F	1.598810	0.496092	1.095523
F105	F	0.986044	-0.161501	-0.151850
F106	F	1.486044	0.338499	0.348150
F107	F	0.982062	-0.387543	0.195801
F108	F	1.482062	0.112457	0.695801
H109	H	0.979426	-0.537998	-0.181679
H110	H	1.479426	-0.037998	0.318321
H111	H	0.979421	-0.538063	0.108012
H112	H	1.479421	-0.038063	0.608012
F113	F	0.866408	0.290661	0.381699
F114	F	1.366408	0.790661	0.881699
H115	H	0.403936	0.141662	-0.156091
H116	H	0.903936	0.641662	0.343909
