data_functionalizedCrystal
_audit_creation_method	'MofGen! by Chris Wilmer'
_symmetry_space_group_name_H-M	'P1'
_symmetry_Int_Tables_number	1
_symmetry_cell_setting	triclinic
loop_
_symmetry_equiv_pos_as_xyz
  x,y,z
_cell_length_a	29.839135
_cell_length_b	16.959453
_cell_length_c	16.959447
_cell_angle_alpha	90.028432
_cell_angle_beta	90.018945
_cell_angle_gamma	90.027802
loop_
_atom_site_label
_atom_site_type_symbol
_atom_site_fract_x
_atom_site_fract_y
_atom_site_fract_z
Zn1	Zn	-0.686782	0.314627	-0.447017
Zn2	Zn	-0.186782	0.814627	0.052983
Zn3	Zn	-0.686730	0.446820	-0.314842
Zn4	Zn	-0.186730	0.946820	0.185158
Zn5	Zn	-0.611661	0.314663	-0.314843
Zn6	Zn	-0.111661	0.814663	0.185157
Zn7	Zn	-0.611633	0.446772	-0.446970
Zn8	Zn	-0.111633	0.946772	0.053030
O9	O	-0.649201	0.380721	-0.380918
O10	O	-0.149201	0.880721	0.119082
O11	O	-0.749642	0.332168	-0.429502
O12	O	-0.249642	0.832168	0.070498
O13	O	-0.676762	0.429324	-0.204232
O14	O	-0.176762	0.929324	0.295768
O15	O	-0.621659	0.204048	-0.332396
O16	O	-0.121659	0.704048	0.167604
O17	O	-0.749604	0.429289	-0.332395
O18	O	-0.249604	0.929289	0.167605
O19	O	-0.676850	0.204021	-0.429503
O20	O	-0.176850	0.704021	0.070497
O21	O	-0.621609	0.332229	-0.204232
O22	O	-0.121609	0.832229	0.295768
O23	O	-0.548790	0.332183	-0.332351
O24	O	-0.048790	0.832183	0.167649
O25	O	-0.621612	0.429208	-0.557587
O26	O	-0.121612	0.929208	-0.057587
O27	O	-0.548769	0.429243	-0.429424
O28	O	-0.048769	0.929243	0.070576
O29	O	-0.676823	0.332122	-0.557621
O30	O	-0.176823	0.832122	-0.057621
O31	O	-0.676735	0.557424	-0.332350
O32	O	-0.176735	1.057424	0.167650
O33	O	-0.621561	0.557389	-0.429423
O34	O	-0.121561	1.057389	0.070577
C35	C	-0.532479	0.380712	-0.380883
C36	C	-0.032479	0.880712	0.119117
C37	C	-0.482544	0.380727	-0.380887
C38	C	0.017456	0.880727	0.119113
C39	C	-0.172918	0.330216	-0.431553
C40	C	0.327082	0.830216	0.068447
C41	C	0.014755	0.330217	-0.431574
C42	C	0.514755	0.830217	0.068426
O43	O	0.039006	0.287258	-0.474616
O44	O	0.539006	0.787258	0.025384
N45	N	0.038241	0.380707	-0.380942
N46	N	0.538241	0.880707	0.119058
C47	C	0.014805	0.431196	-0.330297
C48	C	0.514805	0.931196	0.169703
O49	O	0.039087	0.474134	-0.287226
O50	O	0.539087	0.974134	0.212774
C51	C	-0.172867	0.431190	-0.330273
C52	C	0.327133	0.931190	0.169727
C53	C	-0.196350	0.380703	-0.380914
C54	C	0.303650	0.880703	0.119086
C55	C	-0.196401	0.279733	-0.482189
C56	C	0.303599	0.779733	0.017811
C57	C	-0.243316	0.279736	-0.482187
C58	C	0.256684	0.779736	0.017813
C59	C	-0.266749	0.330222	-0.431547
C60	C	0.233251	0.830222	0.068453
C61	C	-0.243266	0.380706	-0.380911
C62	C	0.256734	0.880706	0.119089
C63	C	-0.196302	0.481674	-0.279624
C64	C	0.303698	0.981674	0.220376
C65	C	-0.243223	0.481667	-0.279621
C66	C	0.256777	0.981667	0.220379
C67	C	-0.266706	0.431180	-0.330263
C68	C	0.233294	0.931180	0.169737
C69	C	-0.313614	0.431196	-0.330269
C70	C	0.186386	0.931196	0.169731
N71	N	-0.337099	0.380706	-0.380901
N72	N	0.162901	0.880706	0.119099
C73	C	-0.313667	0.330220	-0.431540
C74	C	0.186333	0.830220	0.068460
C75	C	0.113336	0.431196	-0.330314
C76	C	0.613336	0.931196	0.169686
C77	C	0.160253	0.431199	-0.330321
C78	C	0.660253	0.931199	0.169679
C79	C	0.160200	0.330219	-0.431597
C80	C	0.660200	0.830219	0.068403
C81	C	0.113282	0.330221	-0.431594
C82	C	0.613282	0.830221	0.068406
C83	C	0.089850	0.380707	-0.380947
C84	C	0.589850	0.880707	0.119053
C85	C	-0.412192	0.330231	-0.431531
C86	C	0.087808	0.830231	0.068469
C87	C	-0.459112	0.330241	-0.431527
C88	C	0.040888	0.830241	0.068473
C89	C	-0.459055	0.431217	-0.330248
C90	C	0.040945	0.931217	0.169752
C91	C	-0.412139	0.431210	-0.330255
C92	C	0.087861	0.931210	0.169745
C93	C	-0.388709	0.380711	-0.380900
C94	C	0.111291	0.880711	0.119100
O95	O	-0.337893	0.474126	-0.287243
O96	O	0.162107	0.974126	0.212757
O97	O	-0.337957	0.287275	-0.474593
O98	O	0.162043	0.787275	0.025407
C99	C	-0.126002	0.330213	-0.431556
C100	C	0.373998	0.830213	0.068444
C101	C	-0.102519	0.380696	-0.380919
C102	C	0.397481	0.880696	0.119081
C103	C	-0.125952	0.431183	-0.330280
C104	C	0.374048	0.931183	0.169720
C105	C	-0.055602	0.380699	-0.380926
C106	C	0.444398	0.880699	0.119074
C107	C	-0.032169	0.330212	-0.431565
C108	C	0.467831	0.830212	0.068435
C109	C	-0.055655	0.279723	-0.482197
C110	C	0.444345	0.779723	0.017803
C111	C	-0.102570	0.279726	-0.482195
C112	C	0.397430	0.779726	0.017805
C113	C	-0.102466	0.481672	-0.279648
C114	C	0.397534	0.981672	0.220352
C115	C	-0.055551	0.481666	-0.279655
C116	C	0.444449	0.981666	0.220345
C117	C	-0.032118	0.431179	-0.330294
C118	C	0.467882	0.931179	0.169706
C119	C	-0.649152	0.586087	-0.380899
C120	C	-0.149152	1.086087	0.119101
C121	C	-0.649172	0.673944	-0.380917
C122	C	-0.149172	1.173944	0.119083
C123	C	0.233620	0.380724	-0.380951
C124	C	0.733620	0.880724	0.119049
C125	C	0.183686	0.380712	-0.380960
C126	C	0.683686	0.880712	0.119040
C127	C	-0.620431	0.715228	-0.431425
C128	C	-0.120431	1.215228	0.068575
C129	C	-0.677934	0.715212	-0.330430
C130	C	-0.177934	1.215212	0.169570
C131	C	-0.677955	0.797758	-0.330448
C132	C	-0.177955	1.297758	0.169552
C133	C	-0.649214	0.839043	-0.380956
C134	C	-0.149214	1.339043	0.119044
C135	C	-0.620452	0.797782	-0.431446
C136	C	-0.120452	1.297782	0.068554
C137	C	-0.706720	0.839026	-0.279965
C138	C	-0.206720	1.339026	0.220035
C139	C	-0.706743	0.921576	-0.279982
C140	C	-0.206743	1.421576	0.220018
C141	C	-0.678000	0.962863	-0.330486
C142	C	-0.178000	1.462863	0.169514
C143	C	-0.649236	0.921596	-0.380978
C144	C	-0.149236	1.421596	0.119022
C145	C	-0.620495	0.962881	-0.431486
C146	C	-0.120495	1.462881	0.068514
C147	C	-0.591728	0.921616	-0.481974
C148	C	-0.091728	1.421616	0.018026
C149	C	-0.591708	0.839068	-0.481951
C150	C	-0.091708	1.339068	0.018049
C151	C	-0.678020	1.045411	-0.330509
C152	C	-0.178020	1.545411	0.169491
C153	C	-0.620516	1.045435	-0.431507
C154	C	-0.120516	1.545435	0.068493
C155	C	-0.649220	0.380655	-0.587086
C156	C	-0.149220	0.880655	-0.087086
C157	C	-0.649228	0.380627	-0.674943
C158	C	-0.149228	0.880627	-0.174943
C159	C	-0.649261	1.174552	-0.380967
C160	C	-0.149261	1.674552	0.119033
C161	C	-0.649279	1.086696	-0.381017
C162	C	-0.149279	1.586696	0.118983
C163	C	-0.620536	0.431092	-1.046404
C164	C	-0.120536	0.931092	-0.546404
C165	C	-0.678028	0.329996	-1.046434
C166	C	-0.178028	0.829996	-0.546434
C167	C	-0.678016	0.330013	-0.963888
C168	C	-0.178016	0.830013	-0.463888
C169	C	-0.649264	0.380571	-0.922596
C170	C	-0.149264	0.880571	-0.422596
C171	C	-0.620524	0.431112	-0.963850
C172	C	-0.120524	0.931112	-0.463850
C173	C	-0.706759	0.279478	-0.922628
C174	C	-0.206759	0.779478	-0.422628
C175	C	-0.706749	0.279493	-0.840077
C176	C	-0.206749	0.779493	-0.340077
C177	C	-0.677994	0.330048	-0.798784
C178	C	-0.177994	0.830048	-0.298784
C179	C	-0.649252	0.380591	-0.840043
C180	C	-0.149252	0.880591	-0.340043
C181	C	-0.620500	0.431149	-0.798751
C182	C	-0.120500	0.931149	-0.298751
C183	C	-0.591755	0.481688	-0.840008
C184	C	-0.091755	0.981688	-0.340008
C185	C	-0.591769	0.481667	-0.922557
C186	C	-0.091769	0.981667	-0.422557
C187	C	-0.677980	0.330069	-0.716235
C188	C	-0.177980	0.830069	-0.216235
C189	C	-0.620488	0.431169	-0.716197
C190	C	-0.120488	0.931169	-0.216197
C191	C	-0.649209	0.380729	-0.175552
C192	C	-0.149209	0.880729	0.324448
C193	C	-0.649288	0.380534	-0.087696
C194	C	-0.149288	0.880534	0.412304
H195	H	-0.177327	0.238616	-0.523426
H196	H	0.322673	0.738616	-0.023426
C197	C	-0.170481	0.537203	-0.223911
C198	C	0.329519	1.037203	0.276089
H199	H	-0.191162	0.567257	-0.193748
H200	H	0.308838	1.067257	0.306252
H201	H	-0.152173	0.571689	-0.254074
H202	H	0.347827	1.071689	0.245926
H203	H	-0.152182	0.506915	-0.189521
H204	H	0.347818	1.006915	0.310479
H205	H	-0.701337	0.681596	-0.289312
H206	H	-0.201337	1.181596	0.210688
H207	H	-0.121686	0.238614	-0.523432
H208	H	0.378314	0.738614	-0.023432
H209	H	-0.393019	0.472330	-0.289028
H210	H	0.106981	0.972330	0.210972
H211	H	0.179287	0.289112	-0.472830
H212	H	0.679287	0.789112	0.027170
H213	H	-0.730154	0.238340	-0.806492
H214	H	-0.230154	0.738340	-0.306492
H215	H	-0.568368	0.522816	-0.956156
H216	H	-0.068368	1.022816	-0.456156
H217	H	-0.701444	1.079005	-0.289408
H218	H	-0.201444	1.579005	0.210592
H219	H	-0.730166	0.955167	-0.238871
H220	H	-0.230166	1.455167	0.261129
C221	C	-0.560075	0.793680	-0.537494
C222	C	-0.060075	1.293680	-0.037494
H223	H	-0.542959	0.830088	-0.567576
H224	H	-0.042959	1.330088	-0.067576
H225	H	-0.577243	0.761428	-0.571954
H226	H	-0.077243	1.261428	-0.071954
H227	H	-0.540502	0.761528	-0.507216
H228	H	-0.040502	1.261528	-0.007216
C229	C	-0.484836	0.486744	-0.274545
C230	C	0.015164	0.986744	0.225455
H231	H	-0.516142	0.479503	-0.281794
H232	H	-0.016142	0.979503	0.218206
H233	H	-0.477139	0.539870	-0.286011
H234	H	0.022861	1.039870	0.213989
H235	H	-0.477140	0.475098	-0.221455
H236	H	0.022860	0.975098	0.278545
H237	H	-0.568347	0.522856	-0.806377
H238	H	-0.068347	1.022856	-0.306377
H239	H	-0.036568	0.238617	-0.523432
H240	H	0.463432	0.738617	-0.023432
H241	H	-0.597070	0.472333	-0.682583
H242	H	-0.097070	0.972333	-0.182583
H243	H	-0.597131	0.472238	-1.079999
H244	H	-0.097131	0.972238	-0.579999
C245	C	-0.588901	1.090842	-0.487069
C246	C	-0.088901	1.590842	0.012931
H247	H	-0.571770	1.054442	-0.517136
H248	H	-0.071770	1.554442	-0.017136
H249	H	-0.569349	1.123104	-0.456808
H250	H	-0.069349	1.623104	0.043192
H251	H	-0.606085	1.122984	-0.521555
H252	H	-0.106085	1.622984	-0.021555
C253	C	-0.560116	0.967031	-0.537534
C254	C	-0.060116	1.467031	-0.037534
H255	H	-0.542983	0.930638	-0.567604
H256	H	-0.042983	1.430638	-0.067604
H257	H	-0.540565	0.999295	-0.507271
H258	H	-0.040565	1.499295	-0.007271
H259	H	-0.577302	0.999173	-0.572016
H260	H	-0.077302	1.499173	-0.072016
C261	C	-0.588791	0.669842	-0.486959
C262	C	-0.088791	1.169842	0.013041
H263	H	-0.592895	0.614766	-0.479719
H264	H	-0.092895	1.114766	0.020281
H265	H	-0.558615	0.683433	-0.475342
H266	H	-0.058615	1.183433	0.024658
H267	H	-0.595352	0.683320	-0.540086
H268	H	-0.095352	1.183320	-0.040086
H269	H	-0.730123	0.805409	-0.238847
H270	H	-0.230123	1.305409	0.261153
H271	H	0.179369	0.472319	-0.289093
H272	H	0.679369	0.972319	0.210907
H273	H	-0.701439	0.288838	-1.080059
H274	H	-0.201439	0.788838	-0.580059
C275	C	-0.484941	0.274700	-0.487231
C276	C	0.015059	0.774700	0.012769
H277	H	-0.464263	0.244627	-0.517382
H278	H	0.035737	0.744627	-0.017382
H279	H	-0.503243	0.304976	-0.521619
H280	H	-0.003243	0.804976	-0.021619
H281	H	-0.503246	0.240219	-0.457048
H282	H	-0.003246	0.740219	0.042952
C283	C	-0.029724	0.537204	-0.223945
C284	C	0.470276	1.037204	0.276055
H285	H	-0.050404	0.567264	-0.193783
H286	H	0.449596	1.067264	0.306217
H287	H	-0.011415	0.571685	-0.254112
H288	H	0.488585	1.071685	0.245888
H289	H	-0.011427	0.506915	-0.189554
H290	H	0.488573	1.006915	0.310446
H291	H	-0.121540	0.522784	-0.238409
H292	H	0.378460	1.022784	0.261591
C293	C	-0.738386	0.223871	-0.968045
C294	C	-0.238386	0.723871	-0.468045
H295	H	-0.755506	0.193782	-0.931653
H296	H	-0.255506	0.693782	-0.431653
H297	H	-0.721217	0.189421	-1.000254
H298	H	-0.221217	0.689421	-0.500254
H299	H	-0.757955	0.254110	-1.000242
H300	H	-0.257955	0.754110	-0.500242
C301	C	-0.386426	0.274690	-0.487246
C302	C	0.113574	0.774690	0.012754
H303	H	-0.407137	0.244635	-0.517405
H304	H	0.092863	0.744635	-0.017405
H305	H	-0.368125	0.240206	-0.457083
H306	H	0.131875	0.740206	0.042917
H307	H	-0.368125	0.304976	-0.521640
H308	H	0.131875	0.804976	-0.021640
C309	C	-0.269142	0.224189	-0.537882
C310	C	0.230858	0.724189	-0.037882
H311	H	-0.248461	0.194118	-0.568030
H312	H	0.251539	0.694118	-0.068030
H313	H	-0.287446	0.254456	-0.572274
H314	H	0.212554	0.754456	-0.072274
H315	H	-0.287444	0.189707	-0.507695
H316	H	0.212556	0.689707	-0.007695
H317	H	-0.701385	0.288923	-0.682647
H318	H	-0.201385	0.788923	-0.182647
H319	H	0.094262	0.472310	-0.289069
H320	H	0.594262	0.972310	0.210931
H321	H	0.094165	0.289109	-0.472829
H322	H	0.594165	0.789109	0.027171
H323	H	-0.262299	0.522778	-0.238376
H324	H	0.237701	1.022778	0.261624
