data_functionalizedCrystal
_audit_creation_method	'MofGen! by Chris Wilmer'
_symmetry_space_group_name_H-M	'P1'
_symmetry_Int_Tables_number	1
_symmetry_cell_setting	triclinic
loop_
_symmetry_equiv_pos_as_xyz
  x,y,z
_cell_length_a	17.699077
_cell_length_b	10.723023
_cell_length_c	16.776229
_cell_angle_alpha	89.994384
_cell_angle_beta	89.993415
_cell_angle_gamma	83.874062
loop_
_atom_site_label
_atom_site_type_symbol
_atom_site_fract_x
_atom_site_fract_y
_atom_site_fract_z
O1	O	1.005076	0.157762	-0.066276
O2	O	0.784827	0.178299	-0.066280
O3	O	0.900032	-0.013633	-0.066274
O4	O	0.889871	0.349694	-0.066281
O5	O	0.900017	-0.013645	0.066302
O6	O	0.784811	0.178287	0.066297
O7	O	1.005061	0.157750	0.066301
Zn8	Zn	0.894933	0.168017	0.087348
Zn9	Zn	0.894954	0.168032	-0.087327
O10	O	0.889855	0.349682	0.066295
C11	C	0.756617	0.177559	0.000008
C12	C	0.672585	0.175355	0.000007
C13	C	0.633103	0.174310	0.072275
C14	C	0.554147	0.172219	0.072276
C15	C	0.514674	0.171182	0.000008
C16	C	0.554163	0.172224	-0.072266
C17	C	0.633117	0.174305	-0.072266
C18	C	0.235746	0.163826	-0.072268
C19	C	0.156786	0.161748	-0.072262
C20	C	0.156776	0.161740	0.072275
C21	C	0.235731	0.163822	0.072275
C22	C	0.275212	0.164856	0.000001
C23	C	0.360825	0.167121	0.000001
C24	C	0.429062	0.168927	0.000007
C25	C	0.899285	-0.060126	0.000013
C26	C	0.897073	-0.198642	0.000010
C27	C	0.896095	-0.260385	-0.068669
C28	C	0.893809	-0.403549	-0.068674
C29	C	1.033270	0.158490	0.000011
C30	C	1.117302	0.160694	0.000007
C31	C	0.890602	0.396175	0.000006
C32	C	0.892814	0.534691	0.000004
N33	N	0.894925	0.168005	0.206559
N34	N	0.894968	0.168034	-0.206538
C35	C	0.945954	0.083053	0.248279
C36	C	0.945958	0.083052	0.331731
C37	C	0.894937	0.168010	0.373462
C38	C	0.843902	0.252967	0.331737
C39	C	0.843895	0.252961	0.248286
C40	C	0.843930	0.252992	0.668284
C41	C	0.843942	0.252994	0.751741
C42	C	0.945993	0.083082	0.751729
C43	C	0.945986	0.083076	0.668278
C44	C	0.894949	0.168028	0.626560
C45	C	0.894944	0.168026	0.536072
C46	C	0.894945	0.168019	0.463949
H47	H	0.665235	0.175164	0.131124
H48	H	0.802356	0.322138	0.365719
H49	H	0.802392	0.322180	0.785717
H50	H	0.987535	0.013899	0.634303
H51	H	0.665263	0.175159	-0.131115
C52	C	0.897255	-0.188618	-0.148103
N53	N	0.898131	-0.134566	-0.207935
H54	H	0.802341	0.322137	0.214319
H55	H	0.267883	0.164665	-0.131117
H56	H	0.267865	0.164672	0.131123
H57	H	0.522005	0.171347	0.131124
H58	H	0.892971	-0.456647	-0.127473
C59	C	0.893949	-0.393588	0.079445
N60	N	0.894802	-0.339558	0.139280
H61	H	0.124621	0.160892	0.131123
C62	C	1.002082	-0.010411	0.202382
N63	N	1.044358	-0.080815	0.167815
H64	H	0.522018	0.171370	-0.131108
C65	C	0.787887	0.346603	0.622405
N66	N	0.745708	0.417173	0.587847
H67	H	0.896213	-0.251769	0.058806
C68	C	1.002128	-0.010379	0.797626
N69	N	1.044409	-0.080771	0.832194
C70	C	1.002076	-0.010433	0.377618
N71	N	1.044339	-0.080862	0.412180
C72	C	0.113368	0.160594	-0.151767
N73	N	0.080667	0.159722	-0.211646
