data_functionalizedCrystal
_audit_creation_method	'MofGen! by Chris Wilmer'
_symmetry_space_group_name_H-M	'P1'
_symmetry_Int_Tables_number	1
_symmetry_cell_setting	triclinic
loop_
_symmetry_equiv_pos_as_xyz
  x,y,z
_cell_length_a	14.519731
_cell_length_b	12.837942
_cell_length_c	11.892095
_cell_angle_alpha	85.697431
_cell_angle_beta	86.093546
_cell_angle_gamma	90.741103
loop_
_atom_site_label
_atom_site_type_symbol
_atom_site_fract_x
_atom_site_fract_y
_atom_site_fract_z
O1	O	1.240923	-0.129398	-0.094000
O2	O	1.740923	0.370602	0.406000
O3	O	0.973830	-0.145380	-0.094003
O4	O	1.473830	0.354620	0.405997
O5	O	1.101454	0.013525	-0.093994
O6	O	1.601454	0.513525	0.406006
O7	O	1.113300	-0.288303	-0.094008
O8	O	1.613300	0.211697	0.405992
O9	O	1.090811	0.000296	0.094012
O10	O	1.590811	0.500296	0.594012
O11	O	0.963188	-0.158609	0.094004
O12	O	1.463188	0.341391	0.594004
O13	O	1.230281	-0.142627	0.094007
O14	O	1.730281	0.357373	0.594007
Zn15	Zn	1.095044	-0.152718	0.123856
Zn16	Zn	1.595044	0.347282	0.623856
Zn17	Zn	1.109067	-0.135289	-0.123851
Zn18	Zn	1.609067	0.364711	0.376149
O19	O	1.102657	-0.301532	0.093999
O20	O	1.602657	0.198468	0.593999
C21	C	0.934085	-0.151245	0.000000
C22	C	1.434085	0.348755	0.500000
C23	C	0.831511	-0.149001	-0.000001
C24	C	1.331511	0.350999	0.499999
C25	C	1.092131	0.045539	0.000008
C26	C	1.592131	0.545539	0.500008
C27	C	1.080197	0.160639	0.000006
C28	C	1.580197	0.660639	0.500006
C29	C	1.270026	-0.136761	0.000001
C30	C	1.770026	0.363239	0.500001
C31	C	1.372601	-0.139005	-0.000005
C32	C	1.872601	0.360995	0.499995
C33	C	1.455903	-0.140828	-0.000007
C34	C	1.955903	0.359172	0.499993
C35	C	1.560408	-0.143106	-0.000005
C36	C	2.060408	0.356894	0.499995
C37	C	1.643703	-0.144915	-0.000003
C38	C	2.143703	0.355085	0.499997
C39	C	1.748216	-0.147193	-0.000003
C40	C	2.248216	0.352807	0.499997
C41	C	1.111980	-0.333545	-0.000007
C42	C	1.611980	0.166455	0.499993
C43	C	1.123914	-0.448645	-0.000012
C44	C	1.623914	0.051355	0.499988
N45	N	1.085481	-0.164613	0.292909
N46	N	1.585481	0.335387	0.792909
C47	C	1.223669	0.401321	-0.000016
C48	C	1.723669	0.901321	0.499984
C49	C	1.212460	0.509468	-0.000018
C50	C	1.712460	1.009468	0.499982
C51	C	1.046572	0.485085	-0.000008
C52	C	1.546572	0.985085	0.499992
C53	C	1.057781	0.376937	-0.000006
C54	C	1.557781	0.876937	0.499994
C55	C	1.146332	0.335059	-0.000008
C56	C	1.646332	0.835059	0.499992
C57	C	1.157539	0.226909	0.000002
C58	C	1.657539	0.726909	0.500002
C59	C	0.991653	0.202528	0.000004
C60	C	1.491653	0.702528	0.500004
C61	C	0.980444	0.310676	0.000002
C62	C	1.480444	0.810676	0.500002
N63	N	1.118637	-0.123386	-0.292905
N64	N	1.618637	0.376614	0.207095
C65	C	1.185177	-0.040559	0.529564
C66	C	1.685177	0.459441	1.029564
C67	C	1.178499	-0.048881	0.647905
C68	C	1.678499	0.451119	1.147905
C69	C	1.065445	-0.189572	0.647936
C70	C	1.565445	0.310428	1.147936
C71	C	1.072122	-0.181250	0.529594
C72	C	1.572122	0.318750	1.029594
C73	C	1.131991	-0.106743	0.470412
C74	C	1.631991	0.393257	0.970412
C75	C	1.138673	-0.098426	0.352069
C76	C	1.638673	0.401574	0.852069
C77	C	1.025614	-0.239112	0.352102
C78	C	1.525614	0.260888	0.852102
C79	C	1.018937	-0.247434	0.470443
C80	C	1.518937	0.252566	0.970443
H81	H	1.229642	0.192814	0.000004
H82	H	1.729642	0.692814	0.500004
Br83	Br	0.937685	-0.348543	0.550768
Br84	Br	1.437685	0.151457	1.050768
Br85	Br	1.219926	0.002685	0.271752
Br86	Br	1.719926	0.502685	0.771752
Br87	Br	1.343839	0.344478	0.000016
Br88	Br	1.843839	0.844478	0.500016
Br89	Br	1.317422	0.599394	-0.000036
Br90	Br	1.817422	1.099394	0.499964
H91	H	0.974479	0.519202	-0.000018
H92	H	1.474479	1.019202	0.499982
H93	H	1.233931	0.020101	0.481377
H94	H	1.733931	0.520101	0.981377
Br95	Br	1.250678	0.040948	0.728180
Br96	Br	1.750678	0.540948	1.228180
H97	H	1.016695	-0.250228	0.696137
H98	H	1.516695	0.249772	1.196137
Br99	Br	0.860275	0.367521	-0.000009
Br100	Br	1.360275	0.867521	0.499991
Br101	Br	0.886688	0.112594	0.000035
Br102	Br	1.386688	0.612594	0.500035
H103	H	0.982310	-0.293006	0.303927
H104	H	1.482310	0.206994	0.803927
