data_functionalizedCrystal
_audit_creation_method	'MofGen! by Chris Wilmer'
_symmetry_space_group_name_H-M	'P1'
_symmetry_Int_Tables_number	1
_symmetry_cell_setting	triclinic
loop_
_symmetry_equiv_pos_as_xyz
  x,y,z
_cell_length_a	13.897449
_cell_length_b	13.897448
_cell_length_c	13.897441
_cell_angle_alpha	89.969401
_cell_angle_beta	90.014047
_cell_angle_gamma	89.977982
loop_
_atom_site_label
_atom_site_type_symbol
_atom_site_fract_x
_atom_site_fract_y
_atom_site_fract_z
Zn1	Zn	1.474703	0.383873	0.545209
Zn2	Zn	1.808036	0.717206	0.878542
Zn3	Zn	2.141369	1.050540	1.211876
Zn4	Zn	1.474597	0.545195	0.383911
Zn5	Zn	1.807930	0.878528	0.717244
Zn6	Zn	2.141263	1.211861	1.050577
Zn7	Zn	1.313392	0.383927	0.383946
Zn8	Zn	1.646725	0.717261	0.717280
Zn9	Zn	1.980058	1.050594	1.050613
Zn10	Zn	1.313373	0.545140	0.545182
Zn11	Zn	1.646707	0.878473	0.878515
Zn12	Zn	1.980040	1.211806	1.211849
O13	O	1.394016	0.464534	0.464562
O14	O	1.727349	0.797867	0.797895
O15	O	2.060683	1.131200	1.131229
O16	O	1.609670	0.405273	0.523809
O17	O	1.943003	0.738606	0.857142
O18	O	2.276337	1.071939	1.190476
O19	O	1.453176	0.523848	0.248934
O20	O	1.786509	0.857181	0.582267
O21	O	2.119842	1.190515	0.915600
O22	O	1.334842	0.248938	0.405365
O23	O	1.668175	0.582272	0.738698
O24	O	2.001509	0.915605	1.072031
O25	O	1.609592	0.523795	0.405304
O26	O	1.942926	0.857128	0.738637
O27	O	2.276259	1.190462	1.071970
O28	O	1.453356	0.248898	0.523844
O29	O	1.786690	0.582232	0.857177
O30	O	2.120023	0.915565	1.190510
O31	O	1.334739	0.405366	0.248960
O32	O	1.668073	0.738699	0.582293
O33	O	2.001406	1.072032	0.915627
O34	O	1.178408	0.405312	0.405338
O35	O	1.511741	0.738646	0.738672
O36	O	1.845074	1.071979	1.072005
O37	O	1.334811	0.523702	0.680167
O38	O	1.668144	0.857035	1.013501
O39	O	2.001477	1.190368	1.346834
O40	O	1.178394	0.523754	0.523797
O41	O	1.511728	0.857088	0.857131
O42	O	1.845061	1.190421	1.190464
O43	O	1.453339	0.405220	0.680187
O44	O	1.786672	0.738553	1.013521
O45	O	2.120005	1.071886	1.346854
O46	O	1.453158	0.680169	0.405277
O47	O	1.786491	1.013502	0.738610
O48	O	2.119825	1.346836	1.071944
O49	O	1.334708	0.680129	0.523763
O50	O	1.668041	1.013462	0.857096
O51	O	2.001375	1.346795	1.190429
C52	C	1.143402	0.464534	0.464569
C53	C	1.476735	0.797867	0.797903
C54	C	1.810068	1.131201	1.131236
C55	C	1.036188	0.464558	0.464595
C56	C	1.369521	0.797891	0.797929
C57	C	1.702855	1.131224	1.131262
C58	C	1.393946	0.715148	0.464534
C59	C	1.727279	1.048481	0.797867
C60	C	2.060612	1.381815	1.131201
C61	C	1.394004	0.822362	0.464554
C62	C	1.727337	1.155695	0.797888
C63	C	2.060670	1.489029	1.131221
C64	C	1.394085	0.464448	0.716155
C65	C	1.727418	0.797782	1.049488
C66	C	2.060751	1.131115	1.382822
C67	C	1.394114	0.464412	0.823369
C68	C	1.727447	0.797745	1.156702
C69	C	2.060780	1.131079	1.490036
C70	C	1.645609	0.464534	0.464555
C71	C	1.978942	0.797867	0.797889
C72	C	2.312276	1.131201	1.131222
C73	C	1.752823	0.464534	0.464552
C74	C	2.086156	0.797867	0.797886
C75	C	2.419490	1.131201	1.131219
C76	C	1.839893	0.464544	0.464559
C77	C	2.173226	0.797878	0.797892
C78	C	2.506559	1.131211	1.131226
C79	C	1.949125	0.464554	0.464576
C80	C	2.282459	0.797888	0.797909
C81	C	2.615792	1.131221	1.131243
C82	C	1.394113	0.212941	0.464611
C83	C	1.727446	0.546274	0.797944
C84	C	2.060780	0.879607	1.131278
C85	C	1.394154	0.105727	0.464632
C86	C	1.727488	0.439060	0.797965
C87	C	2.060821	0.772393	1.131299
C88	C	1.394105	1.018657	0.464615
C89	C	1.727438	1.351990	0.797948
C90	C	2.060772	1.685324	1.131282
C91	C	1.394046	0.909424	0.464584
C92	C	1.727379	1.242758	0.797917
C93	C	2.060713	1.576091	1.131251
C94	C	1.394003	0.464549	0.213948
C95	C	1.727337	0.797882	0.547281
C96	C	2.060670	1.131216	0.880614
C97	C	1.394161	0.464314	0.106734
C98	C	1.727494	0.797647	0.440068
C99	C	2.060828	1.130980	0.773401
C100	C	1.394140	0.464347	1.019664
C101	C	1.727473	0.797680	1.352998
C102	C	2.060807	1.131013	1.686331
C103	C	1.394122	0.464386	0.910432
C104	C	1.727456	0.797719	1.243765
C105	C	2.060789	1.131052	1.577098
