data_functionalizedCrystal
_audit_creation_method	'MofGen! by Chris Wilmer'
_symmetry_space_group_name_H-M	'P1'
_symmetry_Int_Tables_number	1
_symmetry_cell_setting	triclinic
loop_
_symmetry_equiv_pos_as_xyz
  x,y,z
_cell_length_a	17.077404
_cell_length_b	25.639239
_cell_length_c	25.639243
_cell_angle_alpha	90.014282
_cell_angle_beta	90.013398
_cell_angle_gamma	90.038911
loop_
_atom_site_label
_atom_site_type_symbol
_atom_site_fract_x
_atom_site_fract_y
_atom_site_fract_z
Zn1	Zn	1.199921	-0.208234	0.295619
Zn2	Zn	1.699921	0.291766	0.795619
Zn3	Zn	1.199806	-0.295646	0.208183
Zn4	Zn	1.699806	0.204354	0.708183
Zn5	Zn	1.068667	-0.208227	0.208196
Zn6	Zn	1.568667	0.291773	0.708196
Zn7	Zn	1.068585	-0.295641	0.295586
Zn8	Zn	1.568585	0.204359	0.795586
O9	O	1.134245	-0.251937	0.251896
O10	O	1.634245	0.248063	0.751896
O11	O	1.309753	-0.219835	0.284028
O12	O	1.809753	0.280165	0.784028
O13	O	1.182396	-0.284049	0.135019
O14	O	1.682396	0.215951	0.635019
O15	O	1.086161	-0.135063	0.219812
O16	O	1.586161	0.364937	0.719812
O17	O	1.309668	-0.284056	0.219789
O18	O	1.809668	0.215944	0.719789
O19	O	1.182593	-0.135068	0.284041
O20	O	1.682593	0.364932	0.784041
O21	O	1.086049	-0.219823	0.135029
O22	O	1.586049	0.280177	0.635029
O23	O	0.958809	-0.219817	0.219781
O24	O	1.458809	0.280183	0.719781
O25	O	1.086021	-0.284047	0.368756
O26	O	1.586021	0.215953	0.868756
O27	O	0.958749	-0.284040	0.283986
O28	O	1.458749	0.215960	0.783986
O29	O	1.182513	-0.219830	0.368779
O30	O	1.682513	0.280170	0.868779
O31	O	1.182317	-0.368811	0.219758
O32	O	1.682317	0.131189	0.719758
O33	O	1.085909	-0.368807	0.283973
O34	O	1.585909	0.131193	0.783973
C35	C	0.930297	-0.251928	0.251882
C36	C	1.430297	0.248072	0.751882
C37	C	0.843047	-0.251936	0.251888
C38	C	1.343047	0.248064	0.751888
C39	C	0.802046	-0.285427	0.285266
C40	C	1.302046	0.214573	0.785266
C41	C	0.720065	-0.285428	0.285274
C42	C	1.220065	0.214572	0.785274
C43	C	0.679088	-0.251941	0.251901
C44	C	1.179088	0.248059	0.751901
C45	C	0.720094	-0.218446	0.218522
C46	C	1.220094	0.281554	0.718522
C47	C	0.802073	-0.218443	0.218517
C48	C	1.302073	0.281557	0.718517
C49	C	0.549224	-0.218456	0.218535
C50	C	1.049224	0.281544	0.718535
C51	C	0.467240	-0.218460	0.218539
C52	C	0.967240	0.281540	0.718539
C53	C	0.467216	-0.285442	0.285292
C54	C	0.967216	0.214558	0.785292
C55	C	0.549195	-0.285439	0.285287
C56	C	1.049195	0.214561	0.785287
C57	C	0.590197	-0.251944	0.251906
C58	C	1.090197	0.248056	0.751906
C59	C	1.134113	-0.387780	0.251872
C60	C	1.634113	0.112220	0.751872
C61	C	1.134128	-0.445894	0.251879
C62	C	1.634128	0.054106	0.751879
C63	C	1.184575	-0.806246	0.218516
C64	C	1.684575	-0.306246	0.718516
C65	C	1.184606	-0.860851	0.218523
C66	C	1.684606	-0.360851	0.718523
O67	O	1.227361	-0.889078	0.190131
O68	O	1.727361	-0.389078	0.690131
N69	N	1.134383	-0.888176	0.251931
N70	N	1.634383	-0.388176	0.751931
C71	C	1.084132	-0.860895	0.285337
C72	C	1.584132	-0.360895	0.785337
O73	O	1.041416	-0.889151	0.313753
O74	O	1.541416	-0.389151	0.813753
C75	C	1.084106	-0.806291	0.285332
C76	C	1.584106	-0.306291	0.785332
C77	C	1.134326	-0.778969	0.251919
C78	C	1.634326	-0.278969	0.751919
C79	C	1.234792	-0.778923	0.185106
C80	C	1.734792	-0.278923	0.685106
C81	C	1.234761	-0.724323	0.185099
C82	C	1.734761	-0.224323	0.685099
C83	C	1.184512	-0.697045	0.218501
C84	C	1.684512	-0.197045	0.718501
C85	C	1.134295	-0.724368	0.251911
C86	C	1.634295	-0.224368	0.751911
C87	C	1.033859	-0.779011	0.318741
C88	C	1.533859	-0.279011	0.818741
C89	C	1.033838	-0.724404	0.318733
C90	C	1.533838	-0.224404	0.818733
C91	C	1.084059	-0.697081	0.285320
C92	C	1.584059	-0.197081	0.785320
C93	C	1.084014	-0.642490	0.285306
C94	C	1.584014	-0.142490	0.785306
N95	N	1.134237	-0.615164	0.251899
N96	N	1.634237	-0.115164	0.751899
C97	C	1.184486	-0.642442	0.218496
C98	C	1.684486	-0.142442	0.718496
C99	C	1.084191	-0.975565	0.285345
C100	C	1.584191	-0.475565	0.785345
C101	C	1.084212	-1.030168	0.285347
C102	C	1.584212	-0.530168	0.785347
C103	C	1.184687	-1.030120	0.218534
C104	C	1.684687	-0.530120	0.718534
C105	C	1.184661	-0.975516	0.218530
C106	C	1.684661	-0.475516	0.718530
C107	C	1.134414	-0.948240	0.251938
C108	C	1.634414	-0.448240	0.751938
C109	C	1.184415	-0.527777	0.218483
C110	C	1.684415	-0.027777	0.718483
C111	C	1.184377	-0.473171	0.218477
C112	C	1.684377	0.026829	0.718477
C113	C	1.083905	-0.473224	0.285291
C114	C	1.583905	0.026776	0.785291
C115	C	1.083940	-0.527825	0.285296
C116	C	1.583940	-0.027825	0.785296
C117	C	1.134202	-0.555100	0.251890
C118	C	1.634202	-0.055100	0.751890
O119	O	1.041283	-0.614227	0.313686
O120	O	1.541283	-0.114227	0.813686
O121	O	1.227201	-0.614179	0.190089
O122	O	1.727201	-0.114179	0.690089
C123	C	1.338989	-0.251947	0.251911
C124	C	1.838989	0.248053	0.751911
C125	C	1.426239	-0.251951	0.251917
C126	C	1.926239	0.248049	0.751917
C127	C	1.134270	-0.251939	0.388269
C128	C	1.634270	0.248061	0.888269
C129	C	1.134281	-0.251939	0.446383
C130	C	1.634281	0.248061	0.946383
C131	C	1.134399	-0.115564	0.251931
C132	C	1.634399	0.384436	0.751931
C133	C	1.134464	-0.057450	0.251947
C134	C	1.634464	0.442550	0.751947
C135	C	1.084068	-0.218501	0.806757
C136	C	1.584068	0.281499	1.306757
C137	C	1.084062	-0.218502	0.861361
C138	C	1.584062	0.281498	1.361361
O139	O	1.041381	-0.190077	0.889607
O140	O	1.541381	0.309923	1.389607
N141	N	1.134225	-0.251939	0.888665
N142	N	1.634225	0.248061	1.388665
C143	C	1.184391	-0.285382	0.861363
C144	C	1.684391	0.214618	1.361363
O145	O	1.227058	-0.313824	0.889601
O146	O	1.727058	0.186176	1.389601
C147	C	1.184393	-0.285384	0.806760
C148	C	1.684393	0.214616	1.306760
C149	C	1.134232	-0.251940	0.779458
C150	C	1.634232	0.248060	1.279458
C151	C	1.033911	-0.185061	0.779455
C152	C	1.533911	0.314939	1.279455
C153	C	1.033918	-0.185059	0.724854
C154	C	1.533918	0.314941	1.224854
C155	C	1.084083	-0.218499	0.697556
C156	C	1.584083	0.281501	1.197556
C157	C	1.134240	-0.251939	0.724857
C158	C	1.634240	0.248061	1.224857
C159	C	1.234555	-0.318829	0.779458
C160	C	1.734555	0.181171	1.279458
C161	C	1.234551	-0.318828	0.724851
C162	C	1.734551	0.181172	1.224851
C163	C	1.184391	-0.285384	0.697549
C164	C	1.684391	0.214616	1.197549
C165	C	1.184411	-0.285377	0.642958
C166	C	1.684411	0.214623	1.142958
N167	N	1.134248	-0.251939	0.615653
N168	N	1.634248	0.248061	1.115653
C169	C	1.084084	-0.218500	0.642952
C170	C	1.584084	0.281500	1.142952
C171	C	1.184384	-0.285377	0.976034
C172	C	1.684384	0.214623	1.476034
C173	C	1.184387	-0.285373	1.030636
C174	C	1.684387	0.214627	1.530636
C175	C	1.084057	-0.218493	1.030630
C176	C	1.584057	0.281507	1.530630
C177	C	1.084058	-0.218495	0.976027
C178	C	1.584058	0.281505	1.476027
C179	C	1.134221	-0.251939	0.948729
C180	C	1.634221	0.248061	1.448729
C181	C	1.084103	-0.218500	0.528287
C182	C	1.584103	0.281500	1.028287
C183	C	1.084117	-0.218500	0.473682
C184	C	1.584117	0.281500	0.973682
C185	C	1.184444	-0.285382	0.473692
C186	C	1.684444	0.214618	0.973692
C187	C	1.184434	-0.285380	0.528293
C188	C	1.684434	0.214620	1.028293
C189	C	1.134257	-0.251937	0.555589
C190	C	1.634257	0.248063	1.055589
O191	O	1.227068	-0.313788	0.614678
O192	O	1.727068	0.186212	1.114678
O193	O	1.041417	-0.190068	0.614707
O194	O	1.541417	0.309932	1.114707
C195	C	1.134218	-0.251945	1.116053
C196	C	1.634218	0.248055	1.616053
C197	C	1.134219	-0.251936	1.057939
C198	C	1.634219	0.248064	1.557939
H199	H	0.686686	-0.312701	0.312453
H200	H	1.186686	0.187299	0.812453
O201	O	1.238551	-0.321445	0.444243
O202	O	1.738551	0.178555	0.944243
H203	H	1.225043	-0.362479	0.454711
H204	H	1.725043	0.137521	0.954711
H205	H	1.225241	-0.312600	1.052860
H206	H	1.725241	0.187400	1.552860
O207	O	0.593451	-0.182331	0.182533
O208	O	1.093451	0.317669	0.682533
H209	H	0.630769	-0.205691	0.155892
H210	H	1.130769	0.294309	0.655892
O211	O	1.029984	-0.946144	0.321374
O212	O	1.529984	-0.446144	0.821374
H213	H	0.990064	-0.921300	0.297944
H214	H	1.490064	-0.421300	0.797944
H215	H	0.433878	-0.191185	0.191370
H216	H	0.933878	0.308815	0.691370
H217	H	1.043213	-0.191262	0.953801
H218	H	1.543213	0.308738	1.453801
H219	H	0.835404	-0.312699	0.312440
H220	H	1.335404	0.187301	0.812440
H221	H	1.225242	-0.312608	0.953811
H222	H	1.725242	0.187392	1.453811
O223	O	1.288637	-0.354913	0.808897
O224	O	1.788637	0.145087	1.308897
H225	H	1.323500	-0.378171	0.780733
H226	H	1.823500	0.121829	1.280733
O227	O	0.423001	-0.321566	0.321301
O228	O	0.923001	0.178434	0.821301
H229	H	0.359112	-0.315938	0.315705
H230	H	0.859112	0.184062	0.815705
H231	H	0.993069	-0.157828	0.702630
H232	H	1.493069	0.342172	1.202630
O233	O	0.593398	-0.321554	0.321282
O234	O	1.093398	0.178446	0.821282
H235	H	0.551117	-0.344842	0.344499
H236	H	1.051117	0.155158	0.844499
O237	O	1.238557	-0.443703	0.182443
O238	O	1.738557	0.056297	0.682443
H239	H	1.203446	-0.418861	0.155812
H240	H	1.703446	0.081139	0.655812
H241	H	0.686724	-0.191177	0.191352
H242	H	1.186724	0.308823	0.691352
H243	H	0.835455	-0.191168	0.191340
H244	H	1.335455	0.308832	0.691340
H245	H	0.992921	-0.702198	0.345940
H246	H	1.492921	-0.202198	0.845940
O247	O	1.238617	-0.557192	0.182449
O248	O	1.738617	-0.057192	0.682449
H249	H	1.273521	-0.529012	0.159214
H250	H	1.773521	-0.029012	0.659214
H251	H	1.275657	-0.702080	0.157892
H252	H	1.775657	-0.202080	0.657892
O253	O	1.288988	-0.808341	0.149073
O254	O	1.788988	-0.308341	0.649073
H255	H	1.323892	-0.780159	0.125841
H256	H	1.823892	-0.280159	0.625841
O257	O	1.238835	-0.946047	0.182497
O258	O	1.738835	-0.446047	0.682497
H259	H	1.273781	-0.974194	0.159276
H260	H	1.773781	-0.474194	0.659276
H261	H	1.275406	-0.346060	0.702628
H262	H	1.775406	0.153940	1.202628
H263	H	1.225605	-1.052339	0.191338
H264	H	1.725605	-0.552339	0.691338
H265	H	1.043049	-0.550072	0.312505
H266	H	1.543049	-0.050072	0.812505
H267	H	1.043310	-1.052409	0.312551
H268	H	1.543310	-0.552409	0.812551
O269	O	1.238535	-0.321448	0.557745
O270	O	1.738535	0.178552	1.057745
H271	H	1.273415	-0.344701	0.529587
H272	H	1.773415	0.155299	1.029587
O273	O	0.979697	-0.808473	0.354783
O274	O	1.479697	-0.308473	0.854783
H275	H	0.944766	-0.780323	0.378011
H276	H	1.444766	-0.280323	0.878011
O277	O	1.029712	-0.443799	0.321321
O278	O	1.529712	0.056201	0.821321
H279	H	1.038140	-0.401240	0.315704
H280	H	1.538140	0.098760	0.815704
H281	H	1.043270	-0.191264	0.451455
H282	H	1.543270	0.308736	0.951455
O283	O	1.029993	-0.182426	0.557725
O284	O	1.529993	0.317574	1.057725
H285	H	0.995128	-0.159171	0.529559
H286	H	1.495128	0.340829	1.029559
H287	H	0.993058	-0.157830	0.801676
H288	H	1.493058	0.342170	1.301676
O289	O	1.029947	-0.182425	1.060078
O290	O	1.529947	0.317575	1.560078
H291	H	1.038373	-0.188048	1.102633
H292	H	1.538373	0.311952	1.602633
