data_functionalizedCrystal
_audit_creation_method	'MofGen! by Chris Wilmer'
_symmetry_space_group_name_H-M	'P1'
_symmetry_Int_Tables_number	1
_symmetry_cell_setting	triclinic
loop_
_symmetry_equiv_pos_as_xyz
  x,y,z
_cell_length_a	19.288864
_cell_length_b	14.519709
_cell_length_c	17.766277
_cell_angle_alpha	89.992699
_cell_angle_beta	89.976791
_cell_angle_gamma	83.408195
loop_
_atom_site_label
_atom_site_type_symbol
_atom_site_fract_x
_atom_site_fract_y
_atom_site_fract_z
O1	O	0.921767	0.115045	-0.062837
O2	O	1.421767	0.615045	0.437163
O3	O	0.719562	0.130564	-0.062786
O4	O	1.219562	0.630564	0.437214
O5	O	0.826026	-0.011468	-0.062806
O6	O	1.326026	0.488532	0.437194
O7	O	0.815304	0.257077	-0.062817
O8	O	1.315304	0.757077	0.437183
O9	O	0.826007	-0.011475	0.062382
O10	O	1.326007	0.488525	0.562382
O11	O	0.719544	0.130557	0.062402
O12	O	1.219544	0.630557	0.562402
O13	O	0.921748	0.115038	0.062351
O14	O	1.421748	0.615038	0.562351
Cu15	Cu	0.820644	0.122797	0.073808
Cu16	Cu	1.320644	0.622797	0.573808
Cu17	Cu	0.820666	0.122805	-0.074242
Cu18	Cu	1.320666	0.622805	0.425758
O19	O	0.815285	0.257070	0.062371
O20	O	1.315285	0.757070	0.562371
C21	C	0.693675	0.130061	-0.000185
C22	C	1.193675	0.630061	0.499815
C23	C	0.616566	0.128562	-0.000165
C24	C	1.116566	0.628562	0.499835
C25	C	0.572169	0.211900	-0.000181
C26	C	1.072169	0.711900	0.499819
C27	C	0.499717	0.210492	-0.000189
C28	C	0.999717	0.710492	0.499811
C29	C	0.471665	0.125741	-0.000197
C30	C	0.971665	0.625741	0.499803
C31	C	0.516071	0.042392	-0.000178
C32	C	1.016071	0.542392	0.499822
C33	C	0.588521	0.043803	-0.000162
C34	C	1.088521	0.543803	0.499838
C35	C	0.363169	0.059120	-0.044079
C36	C	0.863169	0.559120	0.455921
C37	C	0.290720	0.057713	-0.044099
C38	C	0.790720	0.557713	0.455901
C39	C	0.248203	0.121387	-0.000242
C40	C	0.748203	0.621387	0.499758
C41	C	0.278144	0.186483	0.043625
C42	C	0.778144	0.686483	0.543625
C43	C	0.350594	0.187894	0.043641
C44	C	0.850594	0.687894	0.543641
C45	C	0.393105	0.124202	-0.000214
C46	C	0.893105	0.624202	0.499786
C47	C	0.125246	0.203203	-0.000265
C48	C	0.625246	0.703203	0.499735
C49	C	0.052792	0.201792	-0.000269
C50	C	0.552792	0.701792	0.499731
C51	C	0.069148	0.033689	-0.000265
C52	C	0.569148	0.533689	0.499735
C53	C	0.141599	0.035103	-0.000254
C54	C	0.641599	0.535103	0.499746
C55	C	0.169644	0.119863	-0.000258
C56	C	0.669644	0.619863	0.499742
C57	C	0.825517	-0.045828	-0.000212
C58	C	1.325517	0.454172	0.499788
C59	C	0.824019	-0.148200	-0.000211
C60	C	1.324019	0.351800	0.499789
C61	C	0.818507	-0.523061	-0.000229
C62	C	1.318507	-0.023061	0.499771
C63	C	0.820037	-0.418762	-0.000224
C64	C	1.320037	0.081238	0.499776
C65	C	0.821263	-0.335633	-0.000219
C66	C	1.321263	0.164367	0.499781
C67	C	0.822794	-0.231329	-0.000215
C68	C	1.322794	0.268671	0.499785
C69	C	0.947636	0.115541	-0.000251
C70	C	1.447636	0.615541	0.499749
C71	C	1.024745	0.117040	-0.000276
C72	C	1.524745	0.617040	0.499724
C73	C	0.815794	0.291430	-0.000225
C74	C	1.315794	0.791430	0.499775
C75	C	0.817291	0.393802	-0.000230
C76	C	1.317291	0.893802	0.499770
N77	N	0.820634	0.122790	0.177938
N78	N	1.320634	0.622790	0.677938
N79	N	0.820682	0.122805	-0.178373
N80	N	1.320682	0.622805	0.321627
C81	C	0.867791	0.059929	0.217316
C82	C	1.367791	0.559929	0.717316
C83	C	0.867795	0.059925	0.296118
C84	C	1.367795	0.559925	0.796118
C85	C	0.820648	0.122798	0.335538
C86	C	1.320648	0.622798	0.835538
C87	C	0.773482	0.185664	0.296151
C88	C	1.273482	0.685664	0.796151
C89	C	0.773475	0.185660	0.217351
C90	C	1.273475	0.685660	0.717351
C91	C	0.811652	0.206826	0.460375
C92	C	1.311652	0.706826	0.960375
C93	C	0.811664	0.206831	0.539173
C94	C	1.311664	0.706831	1.039173
C95	C	0.820667	0.122809	0.578585
C96	C	1.320667	0.622809	1.078585
C97	C	0.829672	0.038778	0.539188
C98	C	1.329672	0.538778	1.039188
C99	C	0.829665	0.038775	0.460387
C100	C	1.329665	0.538775	0.960387
C101	C	0.820651	0.122808	0.420984
C102	C	1.320651	0.622808	0.920984
C103	C	0.867831	0.059938	0.703409
C104	C	1.367831	0.559938	1.203409
C105	C	0.867830	0.059932	0.782212
C106	C	1.367830	0.559932	1.282212
C107	C	0.773521	0.185679	0.782244
C108	C	1.273521	0.685679	1.282244
C109	C	0.773518	0.185676	0.703442
C110	C	1.273518	0.685676	1.203442
C111	C	0.820677	0.122807	0.664029
C112	C	1.320677	0.622807	1.164029
H113	H	0.624670	-0.024063	-0.000150
H114	H	1.124670	0.475937	0.499850
H115	H	0.016645	0.269658	-0.000277
H116	H	0.516645	0.769658	0.499723
H117	H	0.046308	-0.035317	-0.000319
H118	H	0.546308	0.464683	0.499681
H119	H	0.735121	0.236867	0.671378
H120	H	1.235121	0.736867	1.171378
C121	C	0.919696	-0.009224	0.660051
C122	C	1.419696	0.490776	1.160051
H123	H	0.947775	-0.046673	0.694793
H124	H	1.447775	0.453327	1.194793
H125	H	0.948647	0.023850	0.629292
H126	H	1.448647	0.523850	1.129292
H127	H	0.894656	-0.047531	0.629331
H128	H	1.394656	0.452469	1.129331
H129	H	0.906230	0.008738	0.814274
H130	H	1.406230	0.508738	1.314274
H131	H	0.177748	-0.032760	-0.000246
H132	H	0.677748	0.467240	0.499754
C133	C	0.257792	-0.013892	-0.092347
C134	C	0.757792	0.486108	0.407653
H135	H	0.293489	-0.051624	-0.118453
H136	H	0.793489	0.448376	0.381547
H137	H	0.226447	0.017433	-0.127626
H138	H	0.726447	0.517433	0.372374
H139	H	0.233135	-0.051678	-0.060722
H140	H	0.733135	0.448322	0.439278
C141	C	0.919656	-0.009234	0.173966
C142	C	1.419656	0.490766	0.673966
H143	H	0.947738	-0.046679	0.208709
H144	H	1.447738	0.453321	0.708709
H145	H	0.948605	0.023838	0.143202
H146	H	1.448605	0.523838	0.643202
H147	H	0.894617	-0.047546	0.143250
H148	H	1.394617	0.452454	0.643250
C149	C	0.409931	-0.010919	-0.092331
C150	C	0.909931	0.489081	0.407669
H151	H	0.381723	-0.049877	-0.118468
H152	H	0.881723	0.450123	0.381532
H153	H	0.441803	-0.047612	-0.060712
H154	H	0.941803	0.452388	0.439288
H155	H	0.435105	0.021531	-0.127594
H156	H	0.935105	0.521531	0.372406
C157	C	0.485216	-0.050831	-0.000191
C158	C	0.985216	0.449169	0.499809
H159	H	0.435708	-0.039736	-0.000211
H160	H	0.935708	0.460264	0.499789
H161	H	0.500422	-0.085140	0.043468
H162	H	1.000422	0.414860	0.543468
H163	H	0.500475	-0.085128	-0.043849
H164	H	1.000475	0.414872	0.456151
H165	H	0.906198	0.008734	0.328185
H166	H	1.406198	0.508734	0.828185
C167	C	0.839559	-0.053649	0.417051
C168	C	1.339559	0.446351	0.917051
H169	H	0.845018	-0.103691	0.451802
H170	H	1.345018	0.396309	0.951802
H171	H	0.879938	-0.055598	0.386204
H172	H	1.379938	0.444402	0.886204
H173	H	0.799813	-0.058683	0.386419
H174	H	1.299813	0.441317	0.886419
H175	H	0.148080	0.272220	-0.000257
H176	H	0.648080	0.772220	0.499743
C177	C	0.801764	0.299258	0.582503
C178	C	1.301764	0.799258	1.082503
H179	H	0.796389	0.349298	0.547747
H180	H	1.296389	0.849298	1.047747
H181	H	0.841459	0.304247	0.613218
H182	H	1.341459	0.804247	1.113218
H183	H	0.761323	0.301259	0.613267
H184	H	1.261323	0.801259	1.113267
C185	C	0.721660	0.254838	0.825597
C186	C	1.221660	0.754838	1.325597
H187	H	0.728420	0.245841	0.878168
H188	H	1.228420	0.745841	1.378168
H189	H	0.675293	0.244980	0.812709
H190	H	1.175293	0.744980	1.312709
H191	H	0.729281	0.316365	0.812671
H192	H	1.229281	0.816365	1.312671
H193	H	0.837003	-0.029641	0.571275
H194	H	1.337003	0.470359	1.071275
C195	C	0.801753	0.299256	0.417029
C196	C	1.301753	0.799256	0.917029
H197	H	0.796403	0.349300	0.451777
H198	H	1.296403	0.849300	0.951777
H199	H	0.761312	0.301264	0.386308
H200	H	1.261312	0.801264	0.886308
H201	H	0.841450	0.304231	0.386270
H202	H	1.341450	0.804231	0.886270
H203	H	0.735093	0.236854	0.328251
H204	H	1.235093	0.736854	0.828251
C205	C	0.450869	0.302165	-0.000209
C206	C	0.950869	0.802165	0.499791
H207	H	0.403704	0.289183	-0.000214
H208	H	0.903704	0.789183	0.499786
H209	H	0.459407	0.336929	-0.043865
H210	H	0.959407	0.836929	0.456135
H211	H	0.459356	0.336931	0.043452
H212	H	0.959356	0.836931	0.543452
C213	C	0.721604	0.254816	0.174033
C214	C	1.221604	0.754816	0.674033
H215	H	0.693527	0.292265	0.208794
H216	H	1.193527	0.792265	0.708794
H217	H	0.692652	0.221740	0.143309
H218	H	1.192652	0.721740	0.643309
H219	H	0.746640	0.293125	0.143279
H220	H	1.246640	0.793125	0.643279
H221	H	0.374969	0.240895	0.079362
H222	H	0.874969	0.740895	0.579362
C223	C	0.603015	0.305132	-0.000171
C224	C	1.103015	0.805132	0.499829
H225	H	0.566193	0.354564	-0.000173
H226	H	1.066193	0.854564	0.499827
H227	H	0.630965	0.309185	-0.043817
H228	H	1.130965	0.809185	0.456183
H229	H	0.630909	0.309170	0.043500
H230	H	1.130909	0.809170	0.543500
H231	H	0.243528	0.238332	0.079338
H232	H	0.743528	0.738332	0.579338
