data_functionalizedCrystal
_audit_creation_method	'MofGen! by Chris Wilmer'
_symmetry_space_group_name_H-M	'P1'
_symmetry_Int_Tables_number	1
_symmetry_cell_setting	triclinic
loop_
_symmetry_equiv_pos_as_xyz
  x,y,z
_cell_length_a	18.215407
_cell_length_b	16.959454
_cell_length_c	18.215399
_cell_angle_alpha	89.976304
_cell_angle_beta	89.980167
_cell_angle_gamma	90.020523
loop_
_atom_site_label
_atom_site_type_symbol
_atom_site_fract_x
_atom_site_fract_y
_atom_site_fract_z
Zn1	Zn	1.125097	-0.314680	-0.416138
Zn2	Zn	1.625097	0.185320	0.083862
Zn3	Zn	1.125015	-0.446866	-0.293080
Zn4	Zn	1.625015	0.053134	0.206920
Zn5	Zn	1.002029	-0.314706	-0.293085
Zn6	Zn	1.502029	0.185294	0.206915
Zn7	Zn	1.002005	-0.446822	-0.416105
Zn8	Zn	1.502005	0.053178	0.083895
O9	O	1.063537	-0.380768	-0.354602
O10	O	1.563537	0.119232	0.145398
O11	O	1.228070	-0.332222	-0.399825
O12	O	1.728070	0.167778	0.100175
O13	O	1.108677	-0.429364	-0.190097
O14	O	1.608677	0.070636	0.309903
O15	O	1.018398	-0.204092	-0.309424
O16	O	1.518398	0.295908	0.190576
O17	O	1.228010	-0.429339	-0.309416
O18	O	1.728010	0.070661	0.190584
O19	O	1.108815	-0.204073	-0.399830
O20	O	1.608815	0.295927	0.100170
O21	O	1.018319	-0.332267	-0.190100
O22	O	1.518319	0.167733	0.309900
O23	O	0.899042	-0.332224	-0.309392
O24	O	1.399042	0.167776	0.190608
O25	O	1.018358	-0.429264	-0.519094
O26	O	1.518358	0.070736	-0.019094
O27	O	0.899024	-0.429289	-0.399775
O28	O	1.399024	0.070711	0.100225
O29	O	1.108792	-0.332180	-0.519118
O30	O	1.608792	0.167820	-0.019118
O31	O	1.108654	-0.557471	-0.309385
O32	O	1.608654	-0.057471	0.190615
O33	O	1.018279	-0.557438	-0.399770
O34	O	1.518279	-0.057438	0.100230
C35	C	0.872330	-0.380755	-0.354581
C36	C	1.372330	0.119245	0.145419
C37	C	0.790531	-0.380768	-0.354589
C38	C	1.290531	0.119232	0.145411
C39	C	0.602348	-0.431389	-0.401593
C40	C	1.102348	0.068611	0.098407
C41	C	0.525489	-0.431392	-0.401602
C42	C	1.025489	0.068608	0.098398
C43	C	0.525478	-0.330162	-0.307628
C44	C	1.025478	0.169838	0.192372
C45	C	0.602335	-0.330156	-0.307623
C46	C	1.102335	0.169844	0.192377
C47	C	0.640768	-0.380774	-0.354604
C48	C	1.140768	0.119226	0.145396
C49	C	0.487052	-0.380782	-0.354618
C50	C	0.987052	0.119218	0.145382
C51	C	0.403718	-0.380785	-0.354628
C52	C	0.903718	0.119215	0.145372
C53	C	0.724107	-0.380771	-0.354596
C54	C	1.224107	0.119229	0.145404
C55	C	1.063475	-0.586135	-0.354590
C56	C	1.563475	-0.086135	0.145410
C57	C	1.063516	-0.673991	-0.354609
C58	C	1.563516	-0.173991	0.145391
C59	C	1.016547	-1.045480	-0.401661
C60	C	1.516547	-0.545480	0.098339
C61	C	1.110731	-1.045454	-0.307618
C62	C	1.610731	-0.545454	0.192382
C63	C	1.110706	-0.962908	-0.307611
C64	C	1.610706	-0.462908	0.192389
C65	C	1.063599	-0.921644	-0.354629
C66	C	1.563599	-0.421644	0.145371
C67	C	1.016518	-0.962926	-0.401654
C68	C	1.516518	-0.462926	0.098346
C69	C	1.157781	-0.921619	-0.260582
C70	C	1.657781	-0.421619	0.239418
C71	C	1.157756	-0.839068	-0.260573
C72	C	1.657756	-0.339068	0.239427
C73	C	1.110653	-0.797803	-0.307595
C74	C	1.610653	-0.297803	0.192405
C75	C	1.063570	-0.839091	-0.354622
C76	C	1.563570	-0.339091	0.145378
C77	C	1.016464	-0.797827	-0.401640
C78	C	1.516464	-0.297827	0.098360
C79	C	0.969384	-0.839113	-0.448672
C80	C	1.469384	-0.339113	0.051328
C81	C	0.969414	-0.921661	-0.448676
C82	C	1.469414	-0.421661	0.051324
C83	C	1.110623	-0.715255	-0.307591
C84	C	1.610623	-0.215255	0.192409
C85	C	1.016435	-0.715273	-0.401634
C86	C	1.516435	-0.215273	0.098366
C87	C	1.255489	-0.380783	-0.354624
C88	C	1.755489	0.119217	0.145376
C89	C	1.337288	-0.380789	-0.354633
C90	C	1.837288	0.119211	0.145367
C91	C	1.063581	-0.380714	-0.546555
C92	C	1.563581	0.119286	-0.046555
C93	C	1.063601	-0.380691	-0.628354
C94	C	1.563601	0.119309	-0.128354
C95	C	1.063619	-0.174600	-0.354631
C96	C	1.563619	0.325400	0.145369
C97	C	1.063653	-0.086744	-0.354643
C98	C	1.563653	0.413256	0.145357
C99	C	1.110707	-0.330092	-0.816562
C100	C	1.610707	0.169908	-0.316562
C101	C	1.110716	-0.330069	-0.893420
C102	C	1.610716	0.169931	-0.393420
C103	C	1.016546	-0.431167	-0.893384
C104	C	1.516546	0.068833	-0.393384
C105	C	1.016534	-0.431186	-0.816527
C106	C	1.516534	0.068814	-0.316527
C107	C	1.063619	-0.380649	-0.778118
C108	C	1.563619	0.119351	-0.278118
C109	C	1.063639	-0.380608	-0.931834
C110	C	1.563639	0.119392	-0.431834
C111	C	1.063649	-0.380583	-1.015168
C112	C	1.563649	0.119417	-0.515168
C113	C	1.063609	-0.380672	-0.694779
C114	C	1.563609	0.119328	-0.194779
C115	C	1.063534	-0.380766	-0.163396
C116	C	1.563534	0.119234	0.336604
C117	C	1.063658	-0.380566	-0.081597
C118	C	1.563658	0.119434	0.418403
H119	H	0.633617	-0.288934	-0.269359
H120	H	1.133617	0.211066	0.230641
H121	H	0.978184	-0.472355	-0.785225
H122	H	1.478184	0.027645	-0.285225
C123	C	1.161847	-0.275133	-0.774992
C124	C	1.661847	0.224867	-0.274992
C125	C	1.203072	-0.230837	-0.825114
C126	C	1.703072	0.269163	-0.325114
C127	C	1.250182	-0.180190	-0.786849
C128	C	1.750182	0.319810	-0.286849
H129	H	1.193964	-0.305287	-0.745008
H130	H	1.693964	0.194713	-0.245008
H131	H	1.133718	-0.240657	-0.745027
H132	H	1.633718	0.259343	-0.245027
H133	H	1.231199	-0.265308	-0.855067
H134	H	1.731199	0.234692	-0.355067
H135	H	1.170974	-0.200667	-0.855100
H136	H	1.670974	0.299333	-0.355100
H137	H	1.222053	-0.145714	-0.756884
H138	H	1.722053	0.354286	-0.256884
H139	H	1.282294	-0.210350	-0.756867
H140	H	1.782294	0.289650	-0.256867
H141	H	1.278154	-0.150124	-0.820851
H142	H	1.778154	0.349876	-0.320851
C143	C	1.161718	-0.275077	-0.935196
C144	C	1.661718	0.224923	-0.435196
C145	C	1.120071	-0.224384	-0.979301
C146	C	1.620071	0.275616	-0.479301
C147	C	1.167029	-0.173703	-1.017785
C148	C	1.667029	0.326297	-0.517785
H149	H	1.193792	-0.305210	-0.965243
H150	H	1.693792	0.194790	-0.465243
H151	H	1.189740	-0.244938	-0.901332
H152	H	1.689740	0.255062	-0.401332
H153	H	1.092061	-0.254520	-1.013161
H154	H	1.592061	0.245480	-0.513161
H155	H	1.087999	-0.194234	-0.949272
H156	H	1.587999	0.305766	-0.449272
H157	H	1.195051	-0.143564	-0.983921
H158	H	1.695051	0.356436	-0.483921
H159	H	1.199101	-0.203843	-1.047828
H160	H	1.699101	0.296157	-0.547828
H161	H	1.138778	-0.139298	-1.047710
H162	H	1.638778	0.360702	-0.547710
C163	C	0.965525	-1.090258	-0.452845
C164	C	1.465525	-0.590258	0.047155
C165	C	0.981515	-1.070136	-0.525671
C166	C	1.481515	-0.570136	-0.025671
C167	C	0.934537	-1.111378	-0.572842
C168	C	1.434537	-0.611378	-0.072842
H169	H	0.916053	-1.076810	-0.442126
H170	H	1.416053	-0.576810	0.057874
H171	H	0.972295	-1.145339	-0.446169
H172	H	1.472295	-0.645339	0.053831
H173	H	0.974739	-1.015067	-0.532344
H174	H	1.474739	-0.515067	-0.032344
H175	H	1.030979	-1.083586	-0.536413
H176	H	1.530979	-0.583586	-0.036413
H177	H	0.941306	-1.166459	-0.566166
H178	H	1.441306	-0.666459	-0.066166
H179	H	0.885067	-1.097927	-0.562116
H180	H	1.385067	-0.597927	-0.062116
H181	H	0.945383	-1.097737	-0.622260
H182	H	1.445383	-0.597737	-0.122260
C183	C	0.483789	-0.275080	-0.256707
C184	C	0.983789	0.224920	0.243293
C185	C	0.502498	-0.196893	-0.272865
C186	C	1.002498	0.303107	0.227135
C187	C	0.464106	-0.146129	-0.225975
C188	C	0.964106	0.353871	0.274025
H189	H	0.496333	-0.286476	-0.207216
H190	H	0.996333	0.213524	0.292784
H191	H	0.432506	-0.282278	-0.263442
H192	H	0.932506	0.217722	0.236558
H193	H	0.553771	-0.189699	-0.266124
H194	H	1.053771	0.310301	0.233876
H195	H	0.489953	-0.185472	-0.322347
H196	H	0.989953	0.314528	0.177653
H197	H	0.412822	-0.153327	-0.232710
H198	H	0.912822	0.346673	0.267290
H199	H	0.476652	-0.157533	-0.176487
H200	H	0.976652	0.342467	0.323513
H201	H	0.476789	-0.093074	-0.236936
H202	H	0.976789	0.406926	0.263064
H203	H	0.978077	-0.681682	-0.439924
H204	H	1.478077	-0.181682	0.060076
C205	C	0.644170	-0.486209	-0.452648
C206	C	1.144170	0.013791	0.047352
C207	C	0.688339	-0.441512	-0.499870
C208	C	1.188339	0.058488	0.000130
C209	C	0.726881	-0.491985	-0.546909
C210	C	1.226881	0.008015	-0.046909
H211	H	0.610363	-0.516371	-0.480705
H212	H	1.110363	-0.016371	0.019295
H213	H	0.674174	-0.520599	-0.424463
H214	H	1.174174	-0.020599	0.075537
H215	H	0.658338	-0.407137	-0.528052
H216	H	1.158338	0.092863	-0.028052
H217	H	0.722160	-0.411353	-0.471833
H218	H	1.222160	0.088647	0.028167
H219	H	0.756885	-0.526375	-0.518724
H220	H	1.256885	-0.026375	-0.018724
H221	H	0.693068	-0.522144	-0.574961
H222	H	1.193068	-0.022144	-0.074961
H223	H	0.756859	-0.461666	-0.578950
H224	H	1.256859	0.038334	-0.078950
C225	C	0.965513	-0.486008	-0.935221
C226	C	1.465513	0.013992	-0.435221
C227	C	0.975615	-0.475188	-1.010758
C228	C	1.475615	0.024812	-0.510758
C229	C	0.928623	-0.525703	-1.049318
C230	C	1.428623	-0.025703	-0.549318
H231	H	0.916038	-0.474491	-0.922707
H232	H	1.416038	0.025509	-0.422707
H233	H	0.976269	-0.539137	-0.922659
H234	H	1.476269	-0.039137	-0.422659
H235	H	0.964853	-0.422071	-1.023315
H236	H	1.464853	0.077929	-0.523315
H237	H	1.025080	-0.486710	-1.023294
H238	H	1.525080	0.013290	-0.523294
H239	H	0.939379	-0.578832	-1.036757
H240	H	1.439379	-0.078832	-0.536757
H241	H	0.879151	-0.514182	-1.036799
H242	H	1.379151	-0.014182	-0.536799
H243	H	0.935475	-0.518373	-1.100574
H244	H	1.435475	-0.018373	-0.600574
C245	C	1.208915	-0.794145	-0.209637
C246	C	1.708915	-0.294145	0.290363
C247	C	1.256032	-0.746684	-0.251349
C248	C	1.756032	-0.246684	0.248651
C249	C	1.303164	-0.705280	-0.204453
C250	C	1.803164	-0.205280	0.295547
H251	H	1.237044	-0.830452	-0.181618
H252	H	1.737044	-0.330452	0.318382
H253	H	1.180792	-0.761934	-0.177555
H254	H	1.680792	-0.261934	0.322445
H255	H	1.284152	-0.778893	-0.283417
H256	H	1.784152	-0.278893	0.216583
H257	H	1.227924	-0.710362	-0.279365
H258	H	1.727924	-0.210362	0.220635
H259	H	1.275041	-0.673068	-0.172371
H260	H	1.775041	-0.173068	0.327629
H261	H	1.331287	-0.741592	-0.176437
H262	H	1.831287	-0.241592	0.323563
H263	H	1.335134	-0.673067	-0.232747
H264	H	1.835134	-0.173067	0.267253
H265	H	0.931026	-0.805506	-0.486951
H266	H	1.431026	-0.305506	0.013049
H267	H	0.494211	-0.472606	-0.439866
H268	H	0.994211	0.027394	0.060134
C269	C	0.918392	-0.966446	-0.499853
C270	C	1.418392	-0.466446	0.000147
C271	C	0.934378	-0.946338	-0.572684
C272	C	1.434378	-0.446338	-0.072684
C273	C	0.887397	-0.987590	-0.619846
C274	C	1.387397	-0.487590	-0.119846
H275	H	0.868920	-0.952997	-0.489134
H276	H	1.368920	-0.452997	0.010866
H277	H	0.925162	-1.021526	-0.493168
H278	H	1.425162	-0.521526	0.006832
H279	H	0.927601	-0.891271	-0.579366
H280	H	1.427601	-0.391271	-0.079366
H281	H	0.983841	-0.959790	-0.583426
H282	H	1.483841	-0.459790	-0.083426
H283	H	0.894167	-1.042669	-0.613161
H284	H	1.394167	-0.542669	-0.113161
H285	H	0.837928	-0.974137	-0.609120
H286	H	1.337928	-0.474137	-0.109120
H287	H	0.898242	-0.973958	-0.669267
H288	H	1.398242	-0.473958	-0.169267
C289	C	1.161933	-1.090311	-0.256677
C290	C	1.661933	-0.590311	0.243323
C291	C	1.209105	-1.137653	-0.298372
C292	C	1.709105	-0.637653	0.201628
C293	C	1.256277	-1.178990	-0.251462
C294	C	1.756277	-0.678990	0.248538
H295	H	1.133865	-1.122603	-0.224588
H296	H	1.633865	-0.622603	0.275412
H297	H	1.190013	-1.053940	-0.228668
H298	H	1.690013	-0.553940	0.271332
H299	H	1.181028	-1.174019	-0.326369
H300	H	1.681028	-0.674019	0.173631
H301	H	1.237189	-1.105381	-0.330460
H302	H	1.737189	-0.605381	0.169540
H303	H	1.284357	-1.142619	-0.223453
H304	H	1.784357	-0.642619	0.276547
H305	H	1.228203	-1.211277	-0.219376
H306	H	1.728203	-0.711277	0.280624
H307	H	1.288293	-1.211110	-0.279746
H308	H	1.788293	-0.711110	0.220254
C309	C	1.208940	-0.966503	-0.209619
C310	C	1.708940	-0.466503	0.290381
C311	C	1.256119	-1.013868	-0.251284
C312	C	1.756119	-0.513868	0.248716
C313	C	1.303232	-1.055241	-0.204343
C314	C	1.803232	-0.555241	0.295657
H315	H	1.180830	-0.998783	-0.177556
H316	H	1.680830	-0.498783	0.322444
H317	H	1.237017	-0.930154	-0.181583
H318	H	1.737017	-0.430154	0.318417
H319	H	1.228044	-1.050212	-0.279307
H320	H	1.728044	-0.550212	0.220693
H321	H	1.284244	-0.981608	-0.283345
H322	H	1.784244	-0.481608	0.216655
H323	H	1.331310	-1.018892	-0.176307
H324	H	1.831310	-0.518892	0.323693
H325	H	1.275117	-1.087516	-0.172283
H326	H	1.775117	-0.587516	0.327717
H327	H	1.335253	-1.087377	-0.232606
H328	H	1.835253	-0.587377	0.267394
H329	H	1.148950	-0.681644	-0.269295
H330	H	1.648950	-0.181644	0.230705
