data_functionalizedCrystal
_audit_creation_method	'MofGen! by Chris Wilmer'
_symmetry_space_group_name_H-M	'P1'
_symmetry_Int_Tables_number	1
_symmetry_cell_setting	triclinic
loop_
_symmetry_equiv_pos_as_xyz
  x,y,z
_cell_length_a	19.288864
_cell_length_b	10.654551
_cell_length_c	17.766277
_cell_angle_alpha	89.996514
_cell_angle_beta	89.976791
_cell_angle_gamma	83.810805
loop_
_atom_site_label
_atom_site_type_symbol
_atom_site_fract_x
_atom_site_fract_y
_atom_site_fract_z
O1	O	0.922379	0.156657	-0.062831
O2	O	0.720257	0.177789	-0.062779
O3	O	0.825965	-0.015616	-0.062807
O4	O	0.816671	0.350062	-0.062804
O5	O	0.825946	-0.015625	0.062382
O6	O	0.720238	0.177780	0.062409
O7	O	0.922360	0.156647	0.062357
Cu8	Cu	0.821298	0.167212	0.073814
Cu9	Cu	0.821320	0.167224	-0.074236
O10	O	0.816652	0.350052	0.062385
C11	C	0.694367	0.177104	-0.000178
C12	C	0.617250	0.175063	-0.000159
C13	C	0.825273	-0.062404	-0.000214
C14	C	0.823231	-0.201803	-0.000219
C15	C	0.573297	0.288545	-0.000170
C16	C	0.500837	0.286627	-0.000178
C17	C	0.472334	0.171221	-0.000190
C18	C	0.516296	0.057725	-0.000175
C19	C	0.588754	0.059646	-0.000159
C20	C	0.363484	0.080503	-0.044076
C21	C	0.291027	0.078587	-0.044096
C22	C	0.248849	0.165292	-0.000236
C23	C	0.279136	0.253934	0.043635
C24	C	0.351594	0.255855	0.043651
C25	C	0.393766	0.169126	-0.000207
C26	C	0.126327	0.276702	-0.000255
C27	C	0.053866	0.274779	-0.000259
C28	C	0.069327	0.045875	-0.000264
C29	C	0.141786	0.047800	-0.000252
C30	C	0.170281	0.163217	-0.000252
C31	C	0.822283	-0.267289	-0.068457
C32	C	0.820358	-0.398269	-0.068453
C33	C	0.820332	-0.398265	0.068034
C34	C	0.822252	-0.267287	0.068029
C35	C	0.822301	-0.267294	-0.147257
C36	C	0.820377	-0.398273	-0.147253
C37	C	0.948251	0.157332	-0.000245
C38	C	1.025368	0.159373	-0.000270
C39	C	0.817344	0.396840	-0.000210
C40	C	0.819386	0.536240	-0.000210
N41	N	0.821287	0.167203	0.177944
N42	N	0.821336	0.167223	-0.178366
C43	C	0.868110	0.081606	0.217319
C44	C	0.868114	0.081600	0.296121
C45	C	0.821302	0.167213	0.335545
C46	C	0.774470	0.252818	0.296161
C47	C	0.774463	0.252813	0.217360
C48	C	0.812752	0.281634	0.460385
C49	C	0.812765	0.281641	0.539184
C50	C	0.821320	0.167228	0.578591
C51	C	0.829879	0.052804	0.539190
C52	C	0.829871	0.052799	0.460389
C53	C	0.821304	0.167228	0.420991
C54	C	0.868150	0.081617	0.703412
C55	C	0.868149	0.081610	0.782215
C56	C	0.774509	0.252839	0.782253
C57	C	0.774506	0.252835	0.703452
C58	C	0.821331	0.167226	0.664036
H59	H	0.465044	0.379040	-0.000185
O60	O	0.765120	-0.210798	-0.183446
C61	C	0.786335	-0.142412	-0.245763
H62	H	0.840945	-0.182804	-0.263809
H63	H	0.748451	-0.150150	-0.294356
H64	H	0.786764	-0.038986	-0.229515
O65	O	0.488645	-0.054412	-0.000058
C66	C	0.511028	-0.123587	0.064772
H67	H	0.526397	-0.056099	0.110097
H68	H	0.466869	-0.176767	0.086521
H69	H	0.557915	-0.193832	0.050124
H70	H	0.046120	-0.048091	-0.000321
H71	H	0.906276	0.011905	0.671318
H72	H	0.872962	-0.238810	-0.171720
H73	H	0.266373	0.006415	-0.079821
O74	O	0.877591	-0.454932	-0.183357
C75	C	0.875552	-0.586814	-0.183270
H76	H	0.819383	-0.608707	-0.175937
H77	H	0.896964	-0.627842	-0.238909
H78	H	0.908657	-0.630539	-0.134895
H79	H	0.177574	-0.044609	-0.000248
H80	H	0.397820	0.009895	-0.079796
O81	O	0.759990	-0.432209	-0.176540
C82	C	0.752770	-0.389433	-0.251518
H83	H	0.806283	-0.375413	-0.275326
H84	H	0.728253	-0.462335	-0.286810
H85	H	0.717936	-0.295963	-0.253048
O86	O	0.631425	-0.050628	-0.000288
C87	C	0.618442	-0.120732	-0.065118
H88	H	0.594022	-0.054292	-0.110437
H89	H	0.669610	-0.171379	-0.086876
H90	H	0.581197	-0.193212	-0.050467
O91	O	0.804472	0.392898	0.422226
C92	C	0.796914	0.493887	0.473897
H93	H	0.821175	0.461442	0.530060
H94	H	0.824303	0.575586	0.451112
H95	H	0.739155	0.526297	0.482301
H96	H	0.906235	0.011895	0.185229
O97	O	0.823201	-0.203874	0.134383
C98	C	0.821912	-0.289759	0.194618
H99	H	0.842494	-0.388450	0.174609
H100	H	0.856122	-0.260083	0.242337
H101	H	0.766081	-0.290192	0.215615
H102	H	0.906244	0.011893	0.328186
H103	H	0.018080	0.367193	-0.000263
O104	O	0.728961	0.335827	0.665163
C105	C	0.685798	0.268775	0.619592
H106	H	0.684147	0.169745	0.643346
H107	H	0.630842	0.320274	0.618720
H108	H	0.707502	0.262086	0.559861
H109	H	0.376251	0.328027	0.079374
O110	O	0.601091	0.400547	-0.000213
C111	C	0.674470	0.377914	-0.000186
H112	H	0.691021	0.279807	-0.023868
H113	H	0.697087	0.451720	-0.036544
H114	H	0.694639	0.383915	0.059873
H115	H	0.819534	-0.451597	0.123599
O116	O	0.838155	-0.058457	0.422231
C117	C	0.845727	-0.159446	0.473902
H118	H	0.821472	-0.127008	0.530088
H119	H	0.818342	-0.241153	0.451152
H120	H	0.903489	-0.191841	0.482249
H121	H	0.805800	0.374812	0.571259
O122	O	0.838066	-0.058325	0.577488
C123	C	0.779074	-0.068185	0.623113
H124	H	0.732617	-0.005363	0.599391
H125	H	0.766666	-0.170393	0.624011
H126	H	0.790234	-0.036774	0.682829
H127	H	0.736353	0.322524	0.328264
O128	O	0.913704	-0.001591	0.820350
C129	C	0.955017	-0.077165	0.768658
H130	H	0.956040	-0.025682	0.712483
H131	H	1.010393	-0.096563	0.791398
H132	H	0.932026	-0.170359	0.760294
O133	O	0.729003	0.335832	0.820622
C134	C	0.685825	0.268775	0.866215
H135	H	0.713018	0.170381	0.878012
H136	H	0.675091	0.321244	0.921630
H137	H	0.634452	0.260475	0.835872
H138	H	0.736333	0.322518	0.185301
H139	H	0.244796	0.324537	0.079351
H140	H	0.149529	0.370681	-0.000243
