data_functionalizedCrystal
_audit_creation_method	'MofGen! by Chris Wilmer'
_symmetry_space_group_name_H-M	'P1'
_symmetry_Int_Tables_number	1
_symmetry_cell_setting	triclinic
loop_
_symmetry_equiv_pos_as_xyz
  x,y,z
_cell_length_a	10.654546
_cell_length_b	14.185568
_cell_length_c	10.654559
_cell_angle_alpha	76.745564
_cell_angle_beta	84.486123
_cell_angle_gamma	103.316111
loop_
_atom_site_label
_atom_site_type_symbol
_atom_site_fract_x
_atom_site_fract_y
_atom_site_fract_z
O1	O	-1.696175	-0.083587	-0.148132
O2	O	-1.330684	-0.083552	-0.164954
O3	O	-1.521825	-0.083564	0.026194
O4	O	-1.505035	-0.083576	-0.339280
O5	O	-1.465272	0.083274	-0.030178
O6	O	-1.274132	0.083286	-0.221326
O7	O	-1.639622	0.083251	-0.204504
Cu8	Cu	-1.451713	0.098502	-0.218062
Cu9	Cu	-1.518593	-0.098804	-0.151396
O10	O	-1.448482	0.083263	-0.395652
C11	C	-1.255608	-0.000129	-0.191908
C12	C	-1.116160	-0.000115	-0.188223
C13	C	-1.036683	-0.000130	-0.300760
C14	C	-0.905665	-0.000140	-0.297281
C15	C	-0.933617	-0.000126	-0.068717
C16	C	-1.064629	-0.000109	-0.072199
C17	C	-1.088214	-0.000136	-0.416783
C18	C	-1.008736	-0.000152	-0.529329
C19	C	-0.877718	-0.000162	-0.525851
C20	C	-0.826179	-0.000157	-0.409826
N21	N	-1.565634	-0.237578	-0.104497
C22	C	-1.266417	-0.605209	-0.402626
C23	C	-1.302083	-0.710233	-0.367134
C24	C	-1.471661	-0.710204	-0.198225
C25	C	-1.436013	-0.605178	-0.233707
C26	C	-1.333390	-0.552689	-0.335908
C27	C	-1.502986	-0.552658	-0.166989
C28	C	-1.467337	-0.447642	-0.202465
C29	C	-1.364714	-0.395145	-0.304658
C30	C	-1.297740	-0.447672	-0.371383
C31	C	-1.605603	-0.605150	-0.064783
C32	C	-1.672576	-0.552630	0.001935
C33	C	-1.636933	-0.447611	-0.033546
C34	C	-1.534311	-0.395114	-0.135740
C35	C	-1.703907	-0.395084	0.033179
C36	C	-1.668258	-0.290067	-0.002297
C37	C	-1.498661	-0.290097	-0.171215
C38	C	-0.714694	-0.000162	-0.177556
C39	C	-0.854130	-0.000144	-0.181262
C40	C	-1.492313	-0.000146	0.044806
C41	C	-1.488617	-0.000147	0.184249
N42	N	-1.404682	0.237276	-0.264951
C43	C	-1.456050	0.090796	0.219034
C44	C	-1.452589	0.090794	0.350057
C45	C	-1.514257	-0.091102	0.411500
C46	C	-1.517727	-0.091099	0.280480
C47	C	-1.426940	0.181748	0.122802
C48	C	-1.394370	0.272699	0.157585
C49	C	-1.390908	0.272696	0.288608
C50	C	-1.420016	0.181744	0.384849
C51	C	-1.477992	-0.000155	0.585736
C52	C	-1.481684	-0.000152	0.446292
H53	H	-0.813007	-0.000165	-0.617495
H54	H	-1.247535	-0.752989	-0.421472
H55	H	-0.891648	-0.000139	0.025750
C56	C	-1.362354	0.372737	0.051729
H57	H	-1.369067	0.359716	-0.031287
H58	H	-1.422226	0.410104	0.069512
H59	H	-1.275998	0.410105	0.051645
C60	C	-1.416210	0.181743	0.528971
H61	H	-1.392641	0.248932	0.535907
H62	H	-1.499921	0.148146	0.578898
H63	H	-1.353689	0.148162	0.561013
H64	H	-1.634621	-0.690661	-0.035899
C65	C	-1.553547	-0.191134	0.242211
H66	H	-1.570370	-0.245302	0.318283
H67	H	-1.629292	-0.194915	0.201317
H68	H	-1.483063	-0.194906	0.183435
C69	C	-1.546257	-0.191140	0.517356
H70	H	-1.539512	-0.178116	0.600367
H71	H	-1.632603	-0.228518	0.517454
H72	H	-1.486369	-0.228497	0.499561
H73	H	-1.194895	-0.000132	-0.419627
H74	H	-1.050706	-0.000147	-0.623795
C75	C	-1.355085	0.372735	0.326869
H76	H	-1.338237	0.426898	0.250788
H77	H	-1.425558	0.376516	0.385641
H78	H	-1.279331	0.376514	0.367761
H79	H	-1.129343	-0.000100	0.019439
C80	C	-0.682063	-0.000172	-0.406000
H81	H	-0.642109	-0.000186	-0.489640
H82	H	-0.637841	0.058003	-0.382662
H83	H	-0.677337	-0.058364	-0.343347
H84	H	-1.555215	-0.752953	-0.115009
H85	H	-1.415104	-0.247359	-0.254446
H86	H	-1.756131	-0.595379	0.085151
C87	C	-1.816781	-0.452830	0.145596
H88	H	-1.828422	-0.522896	0.157166
H89	H	-1.796739	-0.435622	0.223772
H90	H	-1.894832	-0.435606	0.125188
C91	C	-1.741923	-0.232291	0.071091
H92	H	-1.808153	-0.278592	0.137031
H93	H	-1.682494	-0.191338	0.110051
H94	H	-1.780587	-0.191309	0.011467
H95	H	-1.335686	-0.309633	-0.333537
H96	H	-1.182859	-0.562470	-0.485857
C97	C	-1.184810	-0.389927	-0.483758
H98	H	-1.150008	-0.436245	-0.518400
H99	H	-1.216367	-0.348923	-0.550419
H100	H	-1.118358	-0.348999	-0.451752
C101	C	-1.430752	0.181755	-0.021319
H102	H	-1.408761	0.248945	-0.073649
H103	H	-1.369819	0.148166	-0.048549
H104	H	-1.516045	0.148167	-0.030672
