data_functionalizedCrystal
_audit_creation_method	'MofGen! by Chris Wilmer'
_symmetry_space_group_name_H-M	'P1'
_symmetry_Int_Tables_number	1
_symmetry_cell_setting	triclinic
loop_
_symmetry_equiv_pos_as_xyz
  x,y,z
_cell_length_a	8.559649
_cell_length_b	12.811415
_cell_length_c	7.088929
_cell_angle_alpha	78.355812
_cell_angle_beta	95.325015
_cell_angle_gamma	76.944044
loop_
_atom_site_label
_atom_site_type_symbol
_atom_site_fract_x
_atom_site_fract_y
_atom_site_fract_z
O1	O	2.103996	-0.023799	-0.154831
O2	O	1.638174	0.031103	-0.164359
O3	O	1.885553	-0.152141	-0.132575
O4	O	1.856617	0.159444	-0.186615
O5	O	1.918613	-0.176679	0.189656
O6	O	1.671234	0.006565	0.157872
O7	O	2.137056	-0.048337	0.167401
Cu8	Cu	1.907164	-0.023127	0.192059
Cu9	Cu	1.868066	0.005892	-0.189017
O10	O	1.889677	0.134906	0.135617
C11	C	1.595127	0.022995	-0.003966
C12	C	1.417608	0.035379	-0.006117
C13	C	1.901475	-0.203930	0.035391
C14	C	1.899645	-0.321686	0.055801
C15	C	1.860131	-0.516194	-0.257182
C16	C	1.858411	-0.626835	-0.238014
C17	C	1.894472	-0.653610	0.113304
C18	C	1.896193	-0.542969	0.094136
C19	C	1.879024	-0.474264	-0.091113
C20	C	1.880756	-0.363623	-0.110280
C21	C	1.916806	-0.390398	0.241037
C22	C	1.915085	-0.501040	0.260205
C23	C	2.180102	-0.040229	0.007003
C24	C	2.357620	-0.052613	0.009141
C25	C	1.873755	0.186696	-0.032353
C26	C	1.875583	0.304453	-0.052777
N27	N	1.934675	-0.043539	0.460087
N28	N	1.840568	0.026295	-0.457044
H29	H	1.333148	0.120194	-0.020837
H30	H	1.442069	-0.137420	0.023841
Cl31	Cl	1.859178	-0.277254	-0.343161
Cl32	Cl	1.916007	-0.739990	0.346167
H33	H	1.846166	-0.460255	-0.408019
Cl34	Cl	1.834655	-0.679542	-0.446796
H35	H	2.032223	-0.115905	0.554295
H36	H	1.929057	-0.556992	0.411029
Cl37	Cl	1.940574	-0.337684	0.449822
Cl38	Cl	1.689984	0.138029	0.397523
