data_functionalizedCrystal
_audit_creation_method	'MofGen! by Chris Wilmer'
_symmetry_space_group_name_H-M	'P1'
_symmetry_Int_Tables_number	1
_symmetry_cell_setting	triclinic
loop_
_symmetry_equiv_pos_as_xyz
  x,y,z
_cell_length_a	10.654550
_cell_length_b	27.731996
_cell_length_c	9.730223
_cell_angle_alpha	90.005974
_cell_angle_beta	90.006378
_cell_angle_gamma	83.553145
loop_
_atom_site_label
_atom_site_type_symbol
_atom_site_fract_x
_atom_site_fract_y
_atom_site_fract_z
O1	O	1.664952	0.067884	0.114423
O2	O	1.299199	0.074352	0.114403
O3	O	1.493469	0.000791	0.114384
O4	O	1.470682	0.141446	0.114442
O5	O	1.493457	0.000795	-0.114196
O6	O	1.299186	0.074356	-0.114177
O7	O	1.664940	0.067888	-0.114157
Zn8	Zn	1.482061	0.071123	-0.150459
Zn9	Zn	1.482078	0.071117	0.150705
O10	O	1.470670	0.141450	-0.114138
C11	C	1.252415	0.073879	0.000110
C12	C	1.113032	0.072458	0.000101
C13	C	1.031705	0.115770	0.000139
C14	C	0.900741	0.114432	0.000162
C15	C	0.932445	0.026467	0.000115
C16	C	1.063406	0.027805	0.000082
C17	C	1.081331	0.160423	0.000157
C18	C	1.000002	0.203739	0.000197
C19	C	0.869038	0.202401	0.000220
C20	C	0.819403	0.157747	0.000204
C21	C	1.492995	-0.017218	0.000089
C22	C	1.491585	-0.070883	0.000075
C23	C	1.482721	-0.403657	0.124740
C24	C	1.477367	-0.605348	0.124764
O25	O	1.476627	-0.631425	0.230732
N26	N	1.476695	-0.630567	0.000167
C27	C	1.477354	-0.605360	-0.124446
O28	O	1.476646	-0.631437	-0.230424
C29	C	1.482699	-0.403669	-0.124468
C30	C	1.483383	-0.378453	0.000137
C31	C	1.483404	-0.378441	0.249336
C32	C	1.484750	-0.328021	0.249329
C33	C	1.485412	-0.302817	0.124726
C34	C	1.484729	-0.328033	0.000130
C35	C	1.483348	-0.378462	-0.249080
C36	C	1.484681	-0.328036	-0.249074
C37	C	1.485366	-0.302820	-0.124468
C38	C	1.486736	-0.252410	-0.124480
N39	N	1.487408	-0.227191	0.000118
C40	C	1.486746	-0.252395	0.124721
C41	C	1.474550	-0.711251	-0.124425
C42	C	1.473216	-0.761673	-0.124420
C43	C	1.473227	-0.761658	0.124791
C44	C	1.474570	-0.711235	0.124784
C45	C	1.475222	-0.686032	0.000172
C46	C	1.489572	-0.146510	0.124696
C47	C	1.490923	-0.096086	0.124678
C48	C	1.490905	-0.096106	-0.124532
C49	C	1.489561	-0.146525	-0.124515
C50	C	1.488890	-0.171726	0.000111
O51	O	1.487463	-0.226301	-0.230392
O52	O	1.487425	-0.226307	0.230682
C53	C	1.481376	-0.454076	0.124748
C54	C	1.480693	-0.479292	0.000152
C55	C	1.481355	-0.454088	-0.124451
C56	C	1.479359	-0.529715	0.000157
C57	C	1.478696	-0.554918	0.124760
C58	C	1.479368	-0.529699	0.249358
C59	C	1.480714	-0.479280	0.249351
C60	C	1.480683	-0.479307	-0.249049
C61	C	1.479339	-0.529727	-0.249031
C62	C	1.478677	-0.554931	-0.124428
C63	C	1.711724	0.068361	0.000139
C64	C	1.851107	0.069782	0.000157
C65	C	1.471144	0.159458	0.000160
C66	C	1.472554	0.213123	0.000183
N67	N	1.482059	0.071126	-0.355996
C68	C	1.557631	0.100712	-0.427917
C69	C	1.557650	0.100703	-0.571800
C70	C	1.406515	0.041522	-0.571827
C71	C	1.406504	0.041528	-0.427946
C72	C	1.633186	0.130310	-0.355967
C73	C	1.708763	0.159898	-0.427889
C74	C	1.708782	0.159889	-0.571772
C75	C	1.633224	0.130291	-0.643732
N76	N	1.482090	0.071110	0.356241
H77	H	0.802823	0.237670	0.000238
H78	H	1.633176	0.130321	-0.238810
H79	H	1.040424	0.240094	0.000199
H80	H	1.129626	-0.007463	0.000055
H81	H	1.485302	-0.307495	0.350796
H82	H	1.481270	-0.458753	0.350818
H83	H	1.489020	-0.167022	0.226178
C84	C	1.791902	0.192441	-0.650882
N85	N	1.854499	0.216965	-0.710465
H86	H	1.344998	0.017426	-0.630429
C87	C	0.675337	0.156278	0.000224
N88	N	0.566828	0.155172	0.000247
C89	C	1.633255	0.130281	-0.802009
N90	N	1.633275	0.130275	-0.921221
C91	C	1.323367	0.008984	-0.348828
N92	N	1.260748	-0.015529	-0.289235
C93	C	0.877840	-0.022648	0.000110
N94	N	0.836712	-0.059643	0.000113
C95	C	1.491672	-0.068352	0.261760
N96	N	1.492232	-0.047464	0.365007
C97	C	1.472475	-0.789406	-0.261496
N98	N	1.471908	-0.810291	-0.364747
H99	H	1.187966	0.161518	0.000145
H100	H	1.482860	-0.398956	0.350809
H101	H	1.475126	-0.690707	0.226249
H102	H	1.475087	-0.690735	-0.225905
C103	C	1.472488	-0.789391	0.261855
N104	N	1.471921	-0.810281	0.365086
C105	C	1.482579	-0.406187	-0.386159
N106	N	1.481993	-0.427069	-0.489415
H107	H	1.485193	-0.307517	-0.350551
H108	H	1.489015	-0.167058	-0.225979
H109	H	1.491450	-0.075576	-0.225981
H110	H	1.478835	-0.550229	0.350814
H111	H	1.478792	-0.550254	-0.350508
H112	H	1.481224	-0.458792	-0.350518
C113	C	1.791882	0.192449	-0.348729
N114	N	1.854490	0.216967	-0.289108
