data_functionalizedCrystal
_audit_creation_method	'MofGen! by Chris Wilmer'
_symmetry_space_group_name_H-M	'P1'
_symmetry_Int_Tables_number	1
_symmetry_cell_setting	triclinic
loop_
_symmetry_equiv_pos_as_xyz
  x,y,z
_cell_length_a	14.044220
_cell_length_b	12.503572
_cell_length_c	14.044220
_cell_angle_alpha	93.843168
_cell_angle_beta	86.811122
_cell_angle_gamma	93.835250
loop_
_atom_site_label
_atom_site_type_symbol
_atom_site_fract_x
_atom_site_fract_y
_atom_site_fract_z
O1	O	1.282200	0.089210	-0.225116
O2	O	1.782200	0.589210	0.274884
O3	O	1.005530	0.089237	-0.216809
O4	O	1.505530	0.589237	0.283191
O5	O	1.139712	0.089213	-0.082627
O6	O	1.639712	0.589213	0.417373
O7	O	1.148019	0.089234	-0.359298
O8	O	1.648019	0.589234	0.140702
O9	O	1.129622	-0.089427	-0.092737
O10	O	1.629622	0.410573	0.407263
O11	O	0.995440	-0.089403	-0.226918
O12	O	1.495440	0.410597	0.273082
O13	O	1.272110	-0.089430	-0.235226
O14	O	1.772110	0.410570	0.264774
Cu15	Cu	1.132854	-0.105728	-0.231995
Cu16	Cu	1.632854	0.394272	0.268005
Cu17	Cu	1.144786	0.105535	-0.220040
Cu18	Cu	1.644786	0.605535	0.279960
O19	O	1.137929	-0.089406	-0.369407
O20	O	1.637929	0.410594	0.130593
C21	C	0.964864	-0.000080	-0.218228
C22	C	1.464864	0.499920	0.281772
C23	C	0.858721	-0.000070	-0.207383
C24	C	1.358721	0.499930	0.292617
N25	N	1.124469	-0.254319	-0.240404
N26	N	1.624469	0.245681	0.259596
C27	C	0.664382	-0.000092	-0.187558
C28	C	1.164382	0.499908	0.312442
C29	C	0.613253	-0.000091	-0.264472
C30	C	1.113253	0.499909	0.235528
C31	C	0.505116	-0.000104	-0.253441
C32	C	1.005116	0.499896	0.246559
C33	C	0.772529	-0.000080	-0.198587
C34	C	1.272529	0.499920	0.301413
C35	C	1.112134	-0.473432	-0.252782
C36	C	1.612134	0.026568	0.247218
C37	C	1.165511	-0.526768	-0.199249
C38	C	1.665511	-0.026768	0.300751
C39	C	1.158648	-0.648690	-0.206136
C40	C	1.658648	-0.148690	0.293864
C41	C	1.118996	-0.351499	-0.245896
C42	C	1.618996	0.148501	0.254104
C43	C	1.312777	-0.000111	-0.233807
C44	C	1.812777	0.499889	0.266193
C45	C	1.418920	-0.000114	-0.244651
C46	C	1.918920	0.499886	0.255349
C47	C	1.131031	-0.000107	-0.052060
C48	C	1.631031	0.499893	0.447940
C49	C	1.120187	-0.000107	0.054082
C50	C	1.620187	0.499893	0.554082
N51	N	1.153179	0.254126	-0.211624
N52	N	1.653179	0.754126	0.288376
C53	C	1.146609	-0.000084	-0.399974
C54	C	1.646609	0.499916	0.100026
C55	C	1.157454	-0.000077	-0.506117
C56	C	1.657454	0.499923	-0.006117
C57	C	1.100361	-0.000090	0.248421
C58	C	1.600361	0.499910	0.748421
C59	C	1.177275	-0.000094	0.299551
C60	C	1.677275	0.499906	0.799551
C61	C	1.166244	-0.000084	0.407687
C62	C	1.666244	0.499916	0.907687
C63	C	1.111391	-0.000099	0.140274
C64	C	1.611391	0.499901	0.640274
H65	H	0.650692	-0.000081	-0.338605
H66	H	1.150692	0.499919	0.161395
C67	C	1.049907	-0.645928	-0.315226
C68	C	1.549907	-0.145928	0.184774
C69	C	1.043497	-0.535391	-0.321642
C70	C	1.543497	-0.035391	0.178358
H71	H	1.007540	-0.684185	-0.357743
H72	H	1.507540	-0.184185	0.142257
H73	H	1.033017	-0.664291	-0.251677
H74	H	1.533017	-0.164291	0.248323
H75	H	1.113510	-0.664272	-0.331922
H76	H	1.613510	-0.164272	0.168078
H77	H	0.979895	-0.517045	-0.304939
H78	H	1.479895	-0.017045	0.195061
H79	H	1.060381	-0.517021	-0.385205
H80	H	1.560381	-0.017021	0.114795
C81	C	0.514954	-0.000096	-0.095791
C82	C	1.014954	0.499904	0.404209
C83	C	0.613848	-0.000093	-0.087485
C84	C	1.113848	0.499907	0.412515
H85	H	0.483751	-0.000086	-0.034010
H86	H	0.983751	0.499914	0.465990
H87	H	0.493508	-0.062392	-0.133007
H88	H	0.993508	0.437608	0.366993
H89	H	0.500534	0.062200	-0.125978
H90	H	1.000534	0.562200	0.374022
H91	H	0.628269	-0.062394	-0.057304
H92	H	1.128269	0.437606	0.442696
H93	H	0.635302	0.062209	-0.050254
H94	H	1.135302	0.562209	0.449746
H95	H	1.251413	-0.000029	0.262115
H96	H	1.751413	0.499971	0.762115
H97	H	1.216364	-0.480864	-0.148245
H98	H	1.716364	0.019136	0.351755
C99	C	1.008595	-0.000090	0.397850
C100	C	1.508595	0.499910	0.897850
C101	C	1.000288	-0.000089	0.298955
C102	C	1.500288	0.499911	0.798955
H103	H	0.946813	-0.000100	0.429053
H104	H	1.446813	0.499900	0.929053
H105	H	1.045802	0.062205	0.419305
H106	H	1.545802	0.562205	0.919305
H107	H	1.038789	-0.062387	0.412260
H108	H	1.538789	0.437613	0.912260
H109	H	0.970100	0.062212	0.284544
H110	H	1.470100	0.562212	0.784544
H111	H	0.963066	-0.062390	0.277492
H112	H	1.463066	0.437610	0.777492
