data_functionalizedCrystal
_audit_creation_method	'MofGen! by Chris Wilmer'
_symmetry_space_group_name_H-M	'P1'
_symmetry_Int_Tables_number	1
_symmetry_cell_setting	triclinic
loop_
_symmetry_equiv_pos_as_xyz
  x,y,z
_cell_length_a	12.837943
_cell_length_b	10.540510
_cell_length_c	11.295483
_cell_angle_alpha	94.138442
_cell_angle_beta	85.461227
_cell_angle_gamma	89.671125
loop_
_atom_site_label
_atom_site_type_symbol
_atom_site_fract_x
_atom_site_fract_y
_atom_site_fract_z
O1	O	1.384794	0.322577	-0.098991
O2	O	1.884794	0.822577	0.401009
O3	O	1.082869	0.306261	-0.098999
O4	O	1.582869	0.806261	0.401001
O5	O	1.240736	0.130469	-0.098994
O6	O	1.740736	0.630469	0.401006
O7	O	1.226927	0.498370	-0.098996
O8	O	1.726927	0.998370	0.401004
O9	O	1.226870	0.145883	0.099056
O10	O	1.726870	0.645883	0.599056
O11	O	1.069003	0.321675	0.099052
O12	O	1.569003	0.821675	0.599052
O13	O	1.370928	0.337991	0.099059
O14	O	1.870928	0.837991	0.599059
Cu15	Cu	1.218700	0.331241	0.117139
Cu16	Cu	1.718700	0.831241	0.617139
Cu17	Cu	1.235098	0.313012	-0.117078
Cu18	Cu	1.735098	0.813012	0.382922
O19	O	1.213061	0.513784	0.099055
O20	O	1.713061	1.013784	0.599055
C21	C	1.037276	0.308457	0.000025
C22	C	1.537276	0.808457	0.500025
C23	C	0.922078	0.292018	0.000022
C24	C	1.422078	0.792018	0.500022
C25	C	0.682565	0.489638	0.000039
C26	C	1.182565	0.989638	0.500039
C27	C	0.574326	0.474199	0.000037
C28	C	1.074326	0.974199	0.500037
C29	C	0.597360	0.245701	0.000025
C30	C	1.097360	0.745701	0.500025
C31	C	0.705599	0.261141	0.000027
C32	C	1.205599	0.761141	0.500027
C33	C	0.748197	0.383113	0.000032
C34	C	1.248197	0.883113	0.500032
C35	C	0.856438	0.398551	0.000025
C36	C	1.356438	0.898551	0.500025
C37	C	0.879469	0.170055	0.000022
C38	C	1.379469	0.670055	0.500022
C39	C	0.771231	0.154615	0.000020
C40	C	1.271231	0.654615	0.500020
C41	C	1.232774	0.090759	0.000029
C42	C	1.732774	0.590759	0.500029
C43	C	1.229696	-0.050530	0.000021
C44	C	1.729696	0.449470	0.500021
C45	C	1.339333	-0.255900	0.000478
C46	C	1.839333	0.244100	0.500478
C47	C	1.342649	-0.108979	0.000025
C48	C	1.842649	0.391021	0.500025
C49	C	1.179793	-0.110443	-0.113074
C50	C	1.679793	0.389557	0.386926
C51	C	1.177315	-0.257484	-0.113163
C52	C	1.677315	0.242516	0.386837
C53	C	1.159195	-0.240022	0.112057
C54	C	1.659195	0.259978	0.612057
C55	C	1.164448	-0.092976	0.113546
C56	C	1.664448	0.407024	0.613546
C57	C	1.416522	0.335796	0.000033
C58	C	1.916522	0.835796	0.500033
C59	C	1.531720	0.352234	0.000028
C60	C	2.031720	0.852234	0.500028
C61	C	1.221023	0.553493	0.000030
C62	C	1.721023	1.053493	0.500030
C63	C	1.224102	0.694781	0.000029
C64	C	1.724102	1.194781	0.500029
N65	N	1.207174	0.344062	0.281875
N66	N	1.707174	0.844062	0.781875
N67	N	1.246632	0.300182	-0.281814
N68	N	1.746632	0.800182	0.218186
C69	C	1.329602	0.207817	0.531168
C70	C	1.829602	0.707817	1.031168
C71	C	1.320899	0.217516	0.655831
C72	C	1.820899	0.717516	1.155831
C73	C	1.181061	0.373151	0.655868
C74	C	1.681061	0.873151	1.155868
C75	C	1.189764	0.363452	0.531204
C76	C	1.689764	0.863452	1.031204
C77	C	1.264038	0.280784	0.468859
C78	C	1.764038	0.780784	0.968859
C79	C	1.272745	0.271092	0.344193
C80	C	1.772745	0.771092	0.844193
C81	C	1.132902	0.426720	0.344231
C82	C	1.632902	0.926720	0.844231
C83	C	1.124199	0.436419	0.468895
C84	C	1.624199	0.936419	0.968895
H85	H	0.562650	0.146404	0.000119
H86	H	1.062650	0.646404	0.500119
H87	H	0.932920	0.083313	0.000009
H88	H	1.432920	0.583313	0.500009
H89	H	1.096933	-0.072517	-0.117282
H90	H	1.596933	0.427483	0.382718
H91	H	1.388731	-0.300876	-0.080168
H92	H	1.888731	0.199124	0.419832
H93	H	1.063724	0.503723	0.519671
H94	H	1.563724	1.003723	1.019671
H95	H	0.520891	0.560944	0.000045
H96	H	1.020891	1.060944	0.500045
H97	H	1.374286	0.158097	0.706560
H98	H	1.874286	0.658097	1.206560
H99	H	1.200663	-0.053230	0.197213
H100	H	1.700663	0.446770	0.697213
H101	H	1.390085	0.140514	0.480406
H102	H	1.890085	0.640514	0.980406
H103	H	1.225840	-0.081725	-0.197238
H104	H	1.725840	0.418275	0.302762
H105	H	1.093191	-0.290159	-0.118289
H106	H	1.593191	0.209841	0.381711
H107	H	1.393839	-0.081895	-0.081184
H108	H	1.893839	0.418105	0.418816
H109	H	1.382215	-0.068355	0.081095
H110	H	1.882215	0.431645	0.581095
H111	H	0.891119	0.497867	0.000032
H112	H	1.391119	0.997867	0.500032
H113	H	1.189088	-0.271588	0.197784
H114	H	1.689088	0.228412	0.697784
H115	H	1.120582	0.440449	0.706645
H116	H	1.620582	0.940449	1.206645
H117	H	1.333225	0.203783	0.293432
H118	H	1.833225	0.703783	0.793432
H119	H	0.717249	0.588953	0.000041
H120	H	1.217249	1.088953	0.500041
H121	H	0.736531	0.055309	0.000029
H122	H	1.236531	0.555309	0.500029
H123	H	1.377661	-0.286708	0.081584
H124	H	1.877661	0.213292	0.581584
H125	H	1.222749	-0.299937	-0.197702
H126	H	1.722749	0.200063	0.302298
H127	H	1.079518	0.486139	0.293485
H128	H	1.579518	0.986139	0.793485
H129	H	1.081505	-0.052439	0.120373
H130	H	1.581505	0.447561	0.620373
H131	H	1.074335	-0.271430	0.112817
H132	H	1.574335	0.228570	0.612817
