data_functionalizedCrystal
_audit_creation_method	'MofGen! by Chris Wilmer'
_symmetry_space_group_name_H-M	'P1'
_symmetry_Int_Tables_number	1
_symmetry_cell_setting	triclinic
loop_
_symmetry_equiv_pos_as_xyz
  x,y,z
_cell_length_a	12.837943
_cell_length_b	15.995350
_cell_length_c	11.892095
_cell_angle_alpha	93.891441
_cell_angle_beta	85.689438
_cell_angle_gamma	89.160657
loop_
_atom_site_label
_atom_site_type_symbol
_atom_site_fract_x
_atom_site_fract_y
_atom_site_fract_z
O1	O	1.382080	0.212847	-0.093972
O2	O	1.080275	0.202094	-0.093979
O3	O	1.239427	0.086241	-0.093975
O4	O	1.222927	0.328700	-0.093977
O5	O	1.226157	0.095884	0.094032
O6	O	1.067005	0.211737	0.094028
O7	O	1.368810	0.222490	0.094035
Zn8	Zn	1.215800	0.218644	0.123881
Zn9	Zn	1.233284	0.205939	-0.123826
O10	O	1.209657	0.338343	0.094030
C11	C	1.035019	0.203283	0.000023
C12	C	0.919942	0.192449	0.000020
C13	C	0.678983	0.322688	0.000035
C14	C	0.570857	0.312513	0.000033
C15	C	0.595563	0.161925	0.000023
C16	C	0.703688	0.172100	0.000025
C17	C	0.745394	0.252484	0.000029
C18	C	0.853523	0.262658	0.000023
C19	C	0.878225	0.112072	0.000020
C20	C	0.770100	0.101896	0.000018
C21	C	1.232110	0.059813	0.000027
C22	C	1.230066	-0.033301	0.000020
C23	C	1.222721	-0.371634	0.000024
C24	C	1.109405	-0.333265	-0.000400
C25	C	1.111421	-0.236390	0.000023
C26	C	1.226364	-0.203783	0.000021
C27	C	1.274693	-0.234893	0.107382
C28	C	1.271839	-0.331752	0.107472
C29	C	1.289271	-0.342889	-0.106327
C30	C	1.289344	-0.246018	-0.107746
C31	C	1.228429	-0.108921	0.000024
C32	C	1.220659	-0.466496	0.000029
C33	C	1.414066	0.221301	0.000030
C34	C	1.529143	0.232134	0.000025
C35	C	1.216974	0.364770	0.000026
C36	C	1.219020	0.457884	0.000025
N37	N	1.203876	0.227315	0.292935
N38	N	1.245217	0.197262	-0.292880
C39	C	1.328193	0.136877	0.529587
C40	C	1.319865	0.142945	0.647928
C41	C	1.178889	0.245514	0.647962
C42	C	1.187216	0.239446	0.529621
C43	C	1.261872	0.185127	0.470437
C44	C	1.270204	0.179064	0.352093
C45	C	1.129223	0.281628	0.352129
C46	C	1.120896	0.287696	0.470471
H47	H	0.736126	0.036451	0.000028
H48	H	0.932310	0.054906	0.000008
H49	H	1.330995	0.134837	0.303907
H50	H	0.887477	0.328111	0.000028
H51	H	1.072907	-0.215422	-0.076937
H52	H	1.069536	-0.359360	-0.077391
C53	C	0.724872	0.411104	0.000031
C54	C	0.692934	0.476832	0.097654
C55	C	0.738823	0.565249	0.097648
C56	C	0.816650	0.587937	0.000019
C57	C	0.848593	0.522207	-0.097612
C58	C	0.802704	0.433790	-0.097606
H59	H	0.635318	0.460038	0.169932
H60	H	0.715177	0.613906	0.169922
H61	H	0.850620	0.653388	0.000014
H62	H	0.906209	0.539001	-0.169890
H63	H	0.826350	0.385133	-0.169879
H64	H	0.561579	0.096485	0.000112
C65	C	1.392822	0.089872	0.712995
C66	C	1.474951	0.030139	0.647890
C67	C	1.547910	-0.022937	0.712956
C68	C	1.538740	-0.016280	0.843127
C69	C	1.456608	0.043456	0.908239
C70	C	1.383649	0.096532	0.843173
H71	H	1.481743	0.025208	0.551523
H72	H	1.608710	-0.067158	0.664755
H73	H	1.592749	-0.055570	0.891294
H74	H	1.449817	0.048386	1.004606
H75	H	1.322849	0.140752	0.891374
C76	C	1.403205	-0.216690	-0.116509
C77	C	1.479117	-0.250458	-0.216216
C78	C	1.592983	-0.221132	-0.224967
C79	C	1.630938	-0.158038	-0.134010
C80	C	1.555024	-0.124266	-0.034296
C81	C	1.441158	-0.153592	-0.025545
H82	H	1.451022	-0.297168	-0.283553
H83	H	1.649179	-0.246133	-0.298782
H84	H	1.715228	-0.136329	-0.140488
H85	H	1.583119	-0.077556	0.033042
H86	H	1.384962	-0.128591	0.048270
H87	H	1.225408	-0.349189	0.187727
H88	H	0.516788	0.369680	0.000041
C89	C	1.044314	-0.198165	0.104172
C90	C	0.988726	-0.255798	0.187219
C91	C	0.921620	-0.217573	0.291375
C92	C	0.910101	-0.121714	0.312483
C93	C	0.965691	-0.064075	0.229433
C94	C	1.032797	-0.102300	0.125277
H95	H	0.997252	-0.326763	0.171596
H96	H	0.880469	-0.260242	0.352854
H97	H	0.860425	-0.093418	0.389585
H98	H	0.957166	0.006890	0.245056
H99	H	1.073949	-0.059632	0.063798
C100	C	1.241762	-0.219124	-0.215081
C101	C	1.308648	-0.172400	-0.302691
C102	C	1.261055	-0.145539	-0.410039
C103	C	1.146577	-0.165403	-0.429777
C104	C	1.079684	-0.212130	-0.342165
C105	C	1.127277	-0.238991	-0.234817
H106	H	1.393398	-0.157693	-0.288083
H107	H	1.310574	-0.110948	-0.474896
H108	H	1.111346	-0.145519	-0.509242
H109	H	0.994934	-0.226836	-0.356773
H110	H	1.077758	-0.273581	-0.169960
C111	C	1.388382	-0.206409	0.112789
C112	C	1.419437	-0.150054	0.214565
C113	C	1.533123	-0.121558	0.219971
C114	C	1.615753	-0.149417	0.123600
C115	C	1.584700	-0.205776	0.021817
C116	C	1.471015	-0.234272	0.016411
H117	H	1.358268	-0.129428	0.285911
H118	H	1.556109	-0.079837	0.295318
H119	H	1.699910	-0.128323	0.127601
H120	H	1.645870	-0.226402	-0.049529
H121	H	1.448028	-0.275992	-0.058936
H122	H	1.060110	0.331919	0.518672
C123	C	1.246970	-0.380264	-0.216261
C124	C	1.151448	-0.437375	-0.210862
C125	C	1.109135	-0.474751	-0.320789
C126	C	1.162343	-0.455016	-0.436114
C127	C	1.257870	-0.397902	-0.441517
C128	C	1.300183	-0.360526	-0.331591
H129	H	1.112055	-0.451987	-0.125488
H130	H	1.038419	-0.517031	-0.316788
H131	H	1.131019	-0.482684	-0.517487
H132	H	1.297263	-0.383291	-0.526891
H133	H	1.370899	-0.318247	-0.335591
C134	C	1.056265	0.334707	0.287060
C135	C	1.065428	0.328037	0.156888
C136	C	0.992477	0.381116	0.091817
C137	C	0.910363	0.440866	0.156917
C138	C	0.901197	0.447538	0.287096
C139	C	0.974148	0.394459	0.352167
H140	H	1.126216	0.283804	0.108691
H141	H	0.999263	0.376177	-0.004550
H142	H	0.856361	0.480159	0.108748
H143	H	0.840409	0.491771	0.335293
H144	H	0.967362	0.399399	0.448534
H145	H	1.118099	0.289733	0.696165
H146	H	1.372891	-0.368019	-0.107050
H147	H	1.388987	0.092654	0.481399
H148	H	1.058900	-0.352531	0.076159
H149	H	1.354712	-0.357110	0.112342
H150	H	1.230224	-0.205512	0.187277
