data_functionalizedCrystal
_audit_creation_method	'MofGen! by Chris Wilmer'
_symmetry_space_group_name_H-M	'P1'
_symmetry_Int_Tables_number	1
_symmetry_cell_setting	triclinic
loop_
_symmetry_equiv_pos_as_xyz
  x,y,z
_cell_length_a	19.805407
_cell_length_b	12.594516
_cell_length_c	19.805399
_cell_angle_alpha	89.977796
_cell_angle_beta	89.983114
_cell_angle_gamma	90.016053
loop_
_atom_site_label
_atom_site_type_symbol
_atom_site_fract_x
_atom_site_fract_y
_atom_site_fract_z
Zn1	Zn	1.034766	-0.423752	-0.382752
Zn2	Zn	1.034707	-0.601750	-0.269577
Zn3	Zn	0.921586	-0.423786	-0.269576
Zn4	Zn	0.921565	-0.601689	-0.382723
O5	O	0.978156	-0.512744	-0.326157
O6	O	1.129475	-0.447375	-0.367751
O7	O	1.019685	-0.578182	-0.174860
O8	O	0.936634	-0.274835	-0.284601
O9	O	1.129431	-0.578149	-0.284602
O10	O	1.019787	-0.274811	-0.367750
O11	O	0.936576	-0.447433	-0.174860
O12	O	0.826867	-0.447374	-0.284573
O13	O	0.936597	-0.578046	-0.477444
O14	O	0.826851	-0.578078	-0.367702
O15	O	1.019766	-0.447316	-0.477464
O16	O	1.019665	-0.750688	-0.284574
O17	O	0.936540	-0.750643	-0.367703
C18	C	0.802300	-0.512724	-0.326135
C19	C	0.727068	-0.512741	-0.326142
C20	C	0.978112	-0.789285	-0.326150
C21	C	0.978155	-0.907590	-0.326170
C22	C	0.691734	-0.580901	-0.369357
C23	C	0.621045	-0.580903	-0.369366
C24	C	0.585693	-0.512749	-0.326157
C25	C	0.621032	-0.444581	-0.282940
C26	C	0.691719	-0.444575	-0.282934
C27	C	0.335959	-0.444605	-0.282962
C28	C	0.265267	-0.444619	-0.282970
C29	C	0.265285	-0.580933	-0.369394
C30	C	0.335972	-0.580926	-0.369389
C31	C	0.371305	-0.512755	-0.326175
C32	C	0.447954	-0.512752	-0.326166
C33	C	0.509046	-0.512756	-0.326162
C34	C	0.932939	-0.976858	-0.371352
C35	C	0.916453	-1.047717	-0.309590
C36	C	0.994702	-1.047531	-0.387943
C37	C	0.961636	-0.976891	-0.264375
C38	C	1.039915	-0.976699	-0.342770
C39	C	1.023452	-1.047526	-0.280965
C40	C	1.154699	-0.512765	-0.326179
C41	C	1.229931	-0.512774	-0.326189
C42	C	0.978186	-0.512670	-0.502700
C43	C	0.978199	-0.512639	-0.577932
C44	C	0.978219	-0.235123	-0.326178
C45	C	0.978246	-0.116818	-0.326188
C46	C	0.934936	-0.444551	-0.613275
C47	C	0.934945	-0.444530	-0.683964
C48	C	0.978221	-0.512593	-0.719307
C49	C	1.021486	-0.580688	-0.683959
C50	C	1.021472	-0.580713	-0.613272
C51	C	1.021539	-0.580588	-0.969033
C52	C	1.021551	-0.580556	-1.039725
C53	C	0.935012	-0.444406	-1.039724
C54	C	0.934999	-0.444431	-0.969037
C55	C	0.978261	-0.512529	-0.933695
C56	C	0.978249	-0.512553	-0.857046
C57	C	0.978237	-0.512565	-0.795955
C58	C	0.978166	-0.512741	-0.150301
C59	C	0.978284	-0.512472	-0.075069
H60	H	0.720513	-0.636404	-0.404541
N61	N	1.105361	-0.937530	-0.360416
N62	N	1.112477	-0.879411	-0.411096
H63	H	1.158699	-0.851745	-0.423567
N64	N	0.890783	-0.374923	-0.932936
N65	N	0.847636	-0.412389	-0.893485
H66	H	0.816405	-0.363302	-0.867989
N67	N	1.065748	-0.650103	-0.932927
N68	N	1.065744	-0.650108	-0.869814
H69	H	1.096974	-0.699195	-0.844311
H70	H	1.056706	-0.636149	-0.584496
N71	N	0.890761	-0.374987	-0.720080
N72	N	0.847629	-0.412407	-0.759519
H73	H	0.816423	-0.363289	-0.785029
N74	N	0.584956	-0.650556	-0.413495
N75	N	0.545499	-0.718338	-0.389604
H76	H	0.520012	-0.767538	-0.420770
H77	H	1.056718	-0.636111	-0.712742
N78	N	1.071477	-1.086200	-0.232993
N79	N	1.105290	-1.022299	-0.198531
H80	H	1.139206	-1.049614	-0.164649
H81	H	1.008662	-1.078560	-0.440176
H82	H	0.364752	-0.636428	-0.404572
H83	H	0.236508	-0.636437	-0.404584
H84	H	0.899699	-0.389121	-0.584503
N85	N	0.890824	-0.374848	-1.075837
N86	N	0.890839	-0.374829	-1.138950
H87	H	0.859635	-0.325702	-1.164454
H88	H	1.056793	-0.635984	-1.068500
H89	H	0.236485	-0.389113	-0.247783
H90	H	0.864266	-1.078934	-0.295564
H91	H	0.364719	-0.389103	-0.247769
N92	N	0.584912	-0.374961	-0.238811
N93	N	0.521800	-0.374975	-0.238821
H94	H	0.496290	-0.325806	-0.207653
N95	N	0.944040	-0.938118	-0.198836
N96	N	0.941132	-0.840389	-0.188259
H97	H	0.928698	-0.813002	-0.141975
H98	H	0.894633	-0.945828	-0.409505
N99	N	0.727805	-0.374933	-0.238793
N100	N	0.696234	-0.314081	-0.200219
H101	H	0.721718	-0.264889	-0.169046
