data_functionalizedCrystal
_audit_creation_method	'MofGen! by Chris Wilmer'
_symmetry_space_group_name_H-M	'P1'
_symmetry_Int_Tables_number	1
_symmetry_cell_setting	triclinic
loop_
_symmetry_equiv_pos_as_xyz
  x,y,z
_cell_length_a	18.101398
_cell_length_b	21.295417
_cell_length_c	18.101390
_cell_angle_alpha	89.963028
_cell_angle_beta	89.977223
_cell_angle_gamma	90.025773
loop_
_atom_site_label
_atom_site_type_symbol
_atom_site_fract_x
_atom_site_fract_y
_atom_site_fract_z
Zn1	Zn	1.132113	-0.250665	-0.418817
Zn2	Zn	1.132013	-0.355945	-0.294967
Zn3	Zn	1.008275	-0.250685	-0.294979
Zn4	Zn	1.008224	-0.355892	-0.418755
O5	O	1.070156	-0.303297	-0.356880
O6	O	1.235732	-0.264645	-0.402409
O7	O	1.115579	-0.342013	-0.191335
O8	O	1.024766	-0.162593	-0.311437
O9	O	1.235659	-0.341994	-0.311417
O10	O	1.115749	-0.162578	-0.402421
O11	O	1.024669	-0.264679	-0.191344
O12	O	0.904635	-0.264627	-0.311377
O13	O	1.024678	-0.341903	-0.522397
O14	O	0.904598	-0.341922	-0.402315
O15	O	1.115699	-0.264593	-0.522442
O16	O	1.115529	-0.444027	-0.311357
O17	O	1.024582	-0.443988	-0.402304
C18	C	0.877746	-0.303271	-0.356841
C19	C	0.795432	-0.303275	-0.356842
C20	C	1.070059	-0.466848	-0.356839
C21	C	1.070085	-0.536817	-0.356846
C22	C	0.496341	-0.303315	-0.356904
C23	C	0.527665	-0.254440	-0.299967
C24	C	0.613283	-0.254571	-0.299724
C25	C	0.644723	-0.303295	-0.356873
C26	C	0.613606	-0.369607	-0.335543
C27	C	0.527961	-0.369336	-0.335147
C28	C	0.527953	-0.286454	-0.435305
C29	C	0.613604	-0.284977	-0.434877
C30	C	0.728583	-0.303287	-0.356857
C31	C	0.412481	-0.303326	-0.356919
C32	C	1.117484	-0.569683	-0.309538
C33	C	1.117519	-0.635425	-0.309555
C34	C	1.070142	-0.668299	-0.356871
C35	C	1.022740	-0.635425	-0.404188
C36	C	1.022712	-0.569684	-0.404175
N37	N	1.005357	-0.771560	-0.362504
N38	N	1.005386	-0.834011	-0.362512
C39	C	1.070224	-0.866374	-0.356914
N40	N	1.135035	-0.833925	-0.351293
N41	N	1.135005	-0.771468	-0.351282
C42	C	1.070167	-0.739584	-0.356891
C43	C	1.117665	-0.970525	-0.309622
C44	C	1.117701	-1.036269	-0.309644
C45	C	1.022915	-1.036268	-0.404273
C46	C	1.022886	-0.970525	-0.404255
C47	C	1.070260	-0.937658	-0.356925
C48	C	1.263318	-0.303323	-0.356919
C49	C	1.345632	-0.303334	-0.356935
C50	C	1.070194	-0.303240	-0.550042
C51	C	1.070210	-0.303215	-0.632356
C52	C	1.070274	-0.139107	-0.356937
C53	C	1.070324	-0.069138	-0.356961
C54	C	1.070236	-0.303196	-0.783064
C55	C	1.127506	-0.254550	-0.814447
C56	C	1.127745	-0.254682	-0.900065
C57	C	1.070262	-0.303175	-0.931447
C58	C	1.091139	-0.369572	-0.900333
C59	C	1.091539	-0.369303	-0.814688
C60	C	0.991951	-0.286020	-0.814616
C61	C	0.992386	-0.284544	-0.900267
C62	C	1.070276	-0.303168	-1.015306
C63	C	1.070225	-0.303207	-0.699205
C64	C	1.070161	-0.303308	-0.164469
C65	C	1.070289	-0.303155	-0.082155
H66	H	0.634323	-0.205398	-0.313095
H67	H	1.156242	-0.943764	-0.271085
H68	H	0.984286	-0.943764	-0.442774
C69	C	0.971104	-0.218537	-0.927754
C70	C	0.900816	-0.209354	-0.974419
C71	C	0.879536	-0.143349	-1.001916
C72	C	0.928544	-0.086526	-0.982747
C73	C	0.998836	-0.095708	-0.936080
C74	C	1.020116	-0.161713	-0.908583
H75	H	0.864534	-0.251419	-0.988611
H76	H	0.827501	-0.136552	-1.036462
H77	H	0.912791	-0.037665	-1.003102
H78	H	1.035118	-0.053643	-0.921888
H79	H	1.072151	-0.168510	-0.874036
C80	C	0.499876	-0.187804	-0.317825
C81	C	0.448399	-0.176950	-0.384325
C82	C	0.420607	-0.110312	-0.402185
C83	C	0.444292	-0.054527	-0.353546
C84	C	0.495771	-0.065380	-0.287042
C85	C	0.523564	-0.132018	-0.269182
H86	H	0.430864	-0.218246	-0.420334
H87	H	0.382498	-0.102279	-0.451416
H88	H	0.423718	-0.005198	-0.366767
H89	H	0.513307	-0.024083	-0.251032
H90	H	0.561673	-0.140051	-0.219951
C91	C	0.500592	-0.334544	-0.492619
C92	C	0.449820	-0.388847	-0.468449
C93	C	0.422458	-0.436941	-0.525754
C94	C	0.445868	-0.430732	-0.607231
C95	C	0.496643	-0.376427	-0.631405
C96	C	0.524005	-0.328333	-0.574099
H97	H	0.432489	-0.393445	-0.408131
H98	H	0.384872	-0.477141	-0.507858
H99	H	0.425613	-0.466334	-0.649652
H100	H	0.513975	-0.371828	-0.691723
H101	H	0.561592	-0.288133	-0.591995
C102	C	0.498555	-0.269320	-0.221941
C103	C	0.446515	-0.325609	-0.209751
C104	C	0.417404	-0.340493	-0.131725
C105	C	0.440334	-0.299087	-0.065889
C106	C	0.492377	-0.242794	-0.078077
C107	C	0.521487	-0.227911	-0.156103
H108	H	0.429538	-0.356264	-0.258489
H109	H	0.378879	-0.382164	-0.122704
H110	H	0.418785	-0.310104	-0.008130
H111	H	0.509353	-0.212140	-0.029339
H112	H	0.560013	-0.186240	-0.165124
H113	H	0.506380	-0.238940	-0.454697
C114	C	0.641076	-0.219051	-0.456608
C115	C	0.691529	-0.182004	-0.403796
C116	C	0.719004	-0.116076	-0.425522
C117	C	0.696024	-0.087195	-0.500061
C118	C	0.645568	-0.124243	-0.552878
C119	C	0.618094	-0.190170	-0.531152
H120	H	0.708543	-0.203383	-0.348613
H121	H	0.756355	-0.088652	-0.386423
H122	H	0.716362	-0.038392	-0.516145
H123	H	0.628555	-0.102863	-0.608061
H124	H	0.580743	-0.217595	-0.570251
C125	C	1.167598	-0.389534	-0.929314
C126	C	1.211154	-0.345707	-0.981170
C127	C	1.287614	-0.365664	-1.010149
C128	C	1.320519	-0.429447	-0.987272
C129	C	1.276962	-0.473278	-0.935413
C130	C	1.200502	-0.453321	-0.906434
H131	H	1.186796	-0.298488	-0.998108
H132	H	1.319858	-0.333218	-1.048539
H133	H	1.377119	-0.444221	-1.008724
H134	H	1.301320	-0.520497	-0.918475
H135	H	1.168258	-0.485767	-0.868044
C136	C	0.641117	-0.420126	-0.389805
C137	C	0.692279	-0.401709	-0.454271
C138	C	0.719791	-0.452227	-0.508534
C139	C	0.696142	-0.521162	-0.498332
C140	C	0.644977	-0.539582	-0.433864
C141	C	0.617465	-0.489064	-0.379600
H142	H	0.709789	-0.350677	-0.461825
H143	H	0.757667	-0.438591	-0.556257
H144	H	0.716508	-0.558558	-0.538500
H145	H	0.627467	-0.590614	-0.426309
H146	H	0.579589	-0.502700	-0.331877
C147	C	0.934309	-0.333876	-0.787190
C148	C	0.890415	-0.373506	-0.843167
C149	C	0.832781	-0.421364	-0.815736
C150	C	0.819041	-0.429592	-0.732327
C151	C	0.862936	-0.389960	-0.676345
C152	C	0.920570	-0.342102	-0.703776
H153	H	0.900585	-0.367416	-0.904915
H154	H	0.800287	-0.450702	-0.857178
H155	H	0.776377	-0.465019	-0.712021
H156	H	0.852766	-0.396050	-0.614597
H157	H	0.953064	-0.312764	-0.662334
H158	H	0.635023	-0.384153	-0.278847
H159	H	0.633738	-0.265718	-0.241630
H160	H	0.984343	-1.063033	-0.442802
H161	H	1.114702	-0.205457	-0.921105
C162	C	1.169847	-1.072425	-0.257606
C163	C	1.221954	-1.036269	-0.205550
C164	C	1.274103	-1.072425	-0.153513
C165	C	1.274144	-1.144738	-0.153531
C166	C	1.222034	-1.180898	-0.205589
C167	C	1.169886	-1.144742	-0.257626
H168	H	1.221926	-0.982735	-0.205534
H169	H	1.312678	-1.045657	-0.114976
H170	H	1.312747	-1.171503	-0.115010
H171	H	1.222063	-1.234432	-0.205605
H172	H	1.131311	-1.171510	-0.296163
H173	H	0.635008	-0.317981	-0.479573
H174	H	0.984113	-0.542923	-0.442700
C175	C	1.110109	-0.187844	-0.786655
C176	C	1.043689	-0.176724	-0.735122
C177	C	1.026291	-0.110016	-0.707324
C178	C	1.075313	-0.054428	-0.731059
C179	C	1.141738	-0.065547	-0.782594
C180	C	1.159136	-0.132255	-0.810392
H181	H	1.007396	-0.217874	-0.717550
H182	H	0.977119	-0.101785	-0.669174
H183	H	1.062434	-0.005047	-0.710481
H184	H	1.178031	-0.024396	-0.800166
H185	H	1.208308	-0.140485	-0.848542
C186	C	1.205431	-0.269746	-0.785401
C187	C	1.217237	-0.326085	-0.733360
C188	C	1.295162	-0.341285	-0.704316
C189	C	1.361281	-0.300146	-0.727312
C190	C	1.349477	-0.243803	-0.779355
C191	C	1.271552	-0.228604	-0.808399
H192	H	1.168290	-0.356542	-0.716335
H193	H	1.303899	-0.382993	-0.665790
H194	H	1.418965	-0.311398	-0.705811
H195	H	1.398424	-0.213347	-0.796380
H196	H	1.262814	-0.186895	-0.846925
H197	H	0.972878	-0.238435	-0.793025
C198	C	0.931694	-0.328886	-0.929117
C199	C	0.951876	-0.383032	-0.981725
C200	C	0.891187	-0.427379	-1.010575
C201	C	0.810315	-0.417580	-0.986815
C202	C	0.790129	-0.363432	-0.934204
C203	C	0.850819	-0.319085	-0.905354
H204	H	1.011746	-0.390288	-0.999316
H205	H	0.906130	-0.467463	-1.049521
H206	H	0.765388	-0.450409	-1.008171
H207	H	0.730259	-0.356176	-0.916613
H208	H	0.835875	-0.279000	-0.866408
H209	H	0.507239	-0.406984	-0.374809
H210	H	0.507951	-0.383634	-0.277832
C211	C	1.169595	-0.533527	-0.257481
C212	C	1.227698	-0.488267	-0.289618
C213	C	1.279808	-0.452108	-0.237561
C214	C	1.273816	-0.461208	-0.153368
C215	C	1.215711	-0.506470	-0.121228
C216	C	1.163600	-0.542629	-0.173284
H217	H	1.232136	-0.481528	-0.351946
H218	H	1.322821	-0.418602	-0.261354
H219	H	1.312391	-0.434441	-0.114833
H220	H	1.211272	-0.513209	-0.058899
H221	H	1.120587	-0.576135	-0.149491
H222	H	1.050711	-0.406802	-0.920656
H223	H	1.156119	-0.662190	-0.271032
C224	C	0.970624	-0.671583	-0.456237
C225	C	0.970650	-0.743896	-0.456251
C226	C	0.918535	-0.780053	-0.508305
C227	C	0.866395	-0.743897	-0.560346
C228	C	0.866368	-0.671580	-0.560334
C229	C	0.918482	-0.635423	-0.508279
H230	H	1.009248	-0.770664	-0.417726
H231	H	0.918556	-0.833587	-0.508314
H232	H	0.827817	-0.770663	-0.598879
H233	H	0.827769	-0.644812	-0.598859
H234	H	0.918462	-0.581889	-0.508271
H235	H	1.185761	-0.266063	-0.920566
C236	C	1.168837	-0.388923	-0.787711
C237	C	1.237007	-0.349789	-0.809523
C238	C	1.314308	-0.369408	-0.782552
C239	C	1.323438	-0.428161	-0.733769
C240	C	1.255265	-0.467299	-0.711954
C241	C	1.177965	-0.447680	-0.738925
H242	H	1.230251	-0.306293	-0.845638
H243	H	1.364774	-0.340435	-0.798701
H244	H	1.380660	-0.442684	-0.713803
H245	H	1.262022	-0.510795	-0.675839
H246	H	1.127499	-0.476653	-0.722776
C247	C	1.037624	-0.419953	-0.786630
C248	C	0.994344	-0.460518	-0.842157
C249	C	0.940434	-0.511170	-0.814103
C250	C	0.929804	-0.521257	-0.730523
C251	C	0.973085	-0.480691	-0.674991
C252	C	1.026995	-0.430038	-0.703045
H253	H	1.002211	-0.453052	-0.904033
H254	H	0.908394	-0.541200	-0.855212
H255	H	0.889897	-0.558753	-0.709756
H256	H	0.965218	-0.488156	-0.613116
H257	H	1.059035	-0.400008	-0.661936
