data_functionalizedCrystal
_audit_creation_method	'MofGen! by Chris Wilmer'
_symmetry_space_group_name_H-M	'P1'
_symmetry_Int_Tables_number	1
_symmetry_cell_setting	triclinic
loop_
_symmetry_equiv_pos_as_xyz
  x,y,z
_cell_length_a	17.000371
_cell_length_b	15.500215
_cell_length_c	15.944551
_cell_angle_alpha	93.183658
_cell_angle_beta	79.548993
_cell_angle_gamma	93.371385
loop_
_atom_site_label
_atom_site_type_symbol
_atom_site_fract_x
_atom_site_fract_y
_atom_site_fract_z
O1	O	1.059405	0.071949	0.033506
O2	O	0.827674	0.071950	0.063991
O3	O	0.949867	0.071942	-0.073994
O4	O	0.937212	0.071957	0.171492
O5	O	0.943255	-0.071948	-0.080475
O6	O	0.821062	-0.071939	0.057510
O7	O	1.052793	-0.071941	0.027025
Cu8	Cu	0.936324	-0.085078	0.041676
Cu9	Cu	0.944144	0.085088	0.049340
O10	O	0.930600	-0.071932	0.165011
C11	C	0.794714	0.000006	0.062388
C12	C	0.706356	0.000006	0.067257
C13	C	0.674326	-0.000000	-0.007671
C14	C	0.591304	0.000006	-0.003091
C15	C	0.540312	0.000013	0.076418
C16	C	0.572347	0.000022	0.151353
C17	C	0.655369	0.000021	0.146772
C18	C	0.289168	0.000020	0.094113
C19	C	0.206141	0.000018	0.098688
C20	C	0.225104	0.000004	-0.055757
C21	C	0.308125	-0.000002	-0.060331
C22	C	0.340153	0.000012	0.014604
C23	C	0.455450	0.000017	0.081102
C24	C	0.425015	0.000014	0.009920
N25	N	0.930829	-0.204764	0.036284
C26	C	0.977025	-0.250034	0.081656
C27	C	0.972881	-0.340607	0.077572
C28	C	0.922535	-0.385909	0.028121
C29	C	0.876338	-0.340633	-0.017256
C30	C	0.880488	-0.250061	-0.013177
C31	C	0.907596	-0.659378	0.013427
C32	C	0.903448	-0.749956	0.009353
C33	C	0.999992	-0.749925	0.104181
C34	C	1.004134	-0.659351	0.108260
C35	C	0.957940	-0.614083	0.062879
C36	C	0.918296	-0.478490	0.023948
C37	C	0.962184	-0.521504	0.067048
C38	C	1.085753	0.000006	0.028628
C39	C	1.174111	0.000011	0.023759
C40	C	0.946036	-0.000003	-0.108490
C41	C	0.944461	-0.000004	-0.201619
N42	N	0.949644	0.204774	0.054725
C43	C	0.864955	0.000009	-0.410599
C44	C	0.898615	-0.070938	-0.477541
C45	C	0.941611	0.000003	-0.372134
C46	C	0.905152	0.070926	-0.471136
C47	C	0.938854	0.000013	-0.536843
C48	C	0.975290	-0.071002	-0.437852
C49	C	0.981819	0.070926	-0.431437
C50	C	1.015534	-0.000038	-0.498366
C51	C	0.943198	-0.000004	-0.277250
C52	C	0.937273	0.000014	-0.631727
C53	C	0.934431	0.000015	0.199506
C54	C	0.936007	0.000021	0.292636
H55	H	0.715839	-0.000009	-0.072417
C56	C	0.516258	0.000031	0.238815
C57	C	0.523283	0.074756	0.305255
C58	C	0.467194	0.074763	0.392718
C59	C	0.404081	0.000045	0.413742
C60	C	0.397053	-0.074685	0.347300
C61	C	0.453141	-0.074693	0.259837
H62	H	0.570006	0.130072	0.289693
H63	H	0.472397	0.130084	0.441902
H64	H	0.362561	0.000050	0.478487
H65	H	0.350330	-0.130001	0.362862
H66	H	0.447939	-0.130013	0.210653
C67	C	1.101562	-0.000089	-0.549529
C68	C	1.126660	-0.074468	-0.615272
C69	C	1.212687	-0.074524	-0.666435
C70	C	1.273617	-0.000201	-0.651853
C71	C	1.248520	0.074183	-0.586107
C72	C	1.162493	0.074239	-0.534944
H73	H	1.081556	-0.129491	-0.626069
H74	H	1.231265	-0.129588	-0.715105
H75	H	1.337299	-0.000243	-0.689727
H76	H	1.293625	0.129206	-0.575310
H77	H	1.143915	0.129304	-0.486274
C78	C	1.015326	-0.152123	-0.417744
C79	C	1.046506	-0.218229	-0.490062
C80	C	1.086538	-0.299349	-0.469951
C81	C	1.095391	-0.314363	-0.377522
C82	C	1.064210	-0.248255	-0.305198
C83	C	1.024177	-0.167135	-0.325309
H84	H	1.039953	-0.207116	-0.558489
H85	H	1.109621	-0.348286	-0.523490
H86	H	1.125026	-0.374412	-0.362634
H87	H	1.070762	-0.259367	-0.236771
H88	H	1.001095	-0.118198	-0.271769
H89	H	1.018017	-0.213156	0.121930
H90	H	0.875476	0.130910	-0.486113
C91	C	0.851093	-0.151965	-0.505123
C92	C	0.878220	-0.242683	-0.492536
C93	C	0.830693	-0.323706	-0.520113
C94	C	0.756039	-0.314012	-0.560276
C95	C	0.728908	-0.223290	-0.572865
C96	C	0.776435	-0.142267	-0.545289
H97	H	0.933487	-0.249862	-0.462803
H98	H	0.850778	-0.390864	-0.510793
H99	H	0.720857	-0.373990	-0.580690
H100	H	0.673642	-0.216111	-0.602599
H101	H	0.756351	-0.075109	-0.554608
H102	H	0.801323	-0.000062	-0.372591
H103	H	0.565230	0.000002	-0.064106
H104	H	1.037602	-0.786792	0.141127
C105	C	1.029307	0.151955	-0.403818
C106	C	1.001295	0.242649	-0.414930
C107	C	1.048775	0.323686	-0.387306
C108	C	1.124267	0.314030	-0.348570
C109	C	1.152282	0.223332	-0.337455
C110	C	1.104802	0.142294	-0.365079
H111	H	0.945408	0.249801	-0.443607
H112	H	1.028036	0.390827	-0.395534
H113	H	1.159415	0.374018	-0.328121
H114	H	1.208169	0.216180	-0.308779
H115	H	1.125541	0.075154	-0.356852
H116	H	0.681445	0.000023	0.207787
C117	C	0.481103	0.000005	-0.077539
C118	C	0.537351	-0.074716	-0.105279
C119	C	0.593447	-0.074729	-0.192737
C120	C	0.593295	-0.000020	-0.252457
C121	C	0.537044	0.074707	-0.224718
C122	C	0.480948	0.074720	-0.137259
H123	H	0.537466	-0.130025	-0.061070
H124	H	0.635088	-0.130047	-0.213271
H125	H	0.634821	-0.000029	-0.317199
H126	H	0.536929	0.130016	-0.268927
H127	H	0.439308	0.130038	-0.116726
C128	C	0.364210	-0.000008	-0.147795
C129	C	0.420453	-0.074732	-0.175549
C130	C	0.476536	-0.074743	-0.263016
C131	C	0.476375	-0.000031	-0.322730
C132	C	0.420129	0.074698	-0.294977
C133	C	0.364047	0.074710	-0.207510
H134	H	0.420574	-0.130043	-0.131344
H135	H	0.518173	-0.130063	-0.283560
H136	H	0.517891	-0.000039	-0.387478
H137	H	0.420008	0.130010	-0.339182
H138	H	0.322410	0.130030	-0.186966
H139	H	0.199017	0.000002	-0.116764
H140	H	0.413923	0.000021	0.145839
C141	C	0.862905	-0.528317	-0.030440
C142	C	0.772098	-0.515875	-0.010797
C143	C	0.716706	-0.565701	-0.065185
C144	C	0.752122	-0.627969	-0.139217
C145	C	0.842934	-0.640414	-0.158864
C146	C	0.898326	-0.590588	-0.104476
H147	H	0.745877	-0.469778	0.044010
H148	H	0.649480	-0.556488	-0.050640
H149	H	0.711118	-0.664853	-0.179479
H150	H	0.869155	-0.686511	-0.213671
H151	H	0.965551	-0.599800	-0.119021
C152	C	1.023703	-0.390393	0.127485
C153	C	1.115651	-0.377903	0.108975
C154	C	1.166481	-0.427682	0.158890
C155	C	1.125364	-0.489951	0.227314
C156	C	1.033411	-0.502443	0.245827
C157	C	0.982581	-0.452664	0.195912
H158	H	1.146093	-0.331805	0.058321
H159	H	1.234551	-0.418433	0.145185
H160	H	1.162992	-0.526800	0.264263
H161	H	1.002969	-0.548541	0.296481
H162	H	0.914511	-0.461913	0.209617
C163	C	0.820952	-0.390467	-0.071645
C164	C	0.856368	-0.452744	-0.145669
C165	C	0.800976	-0.502578	-0.200052
C166	C	0.710168	-0.490135	-0.180411
C167	C	0.674748	-0.427855	-0.106383
C168	C	0.730140	-0.378021	-0.052000
H169	H	0.923593	-0.461958	-0.160212
H170	H	0.827197	-0.548682	-0.254853
H171	H	0.669164	-0.527025	-0.220669
H172	H	0.607523	-0.418641	-0.091841
H173	H	0.703919	-0.331917	0.002800
C174	C	0.150045	0.000034	0.186153
C175	C	0.157063	0.074766	0.252587
C176	C	0.100966	0.074783	0.340045
C177	C	0.037850	0.000067	0.361069
C178	C	0.030829	-0.074671	0.294633
C179	C	0.086926	-0.074687	0.207175
H180	H	0.203788	0.130080	0.237025
H181	H	0.106164	0.130109	0.389225
H182	H	-0.003677	0.000079	0.425811
H183	H	-0.015896	-0.129985	0.310195
H184	H	0.081728	-0.130013	0.157995
H185	H	0.315235	0.000037	0.155130
H186	H	1.045132	-0.622473	0.148526
H187	H	0.869982	-0.622532	-0.023525
C188	C	0.848069	-0.799791	-0.045051
C189	C	0.797258	-0.750000	-0.094970
C190	C	0.741880	-0.799835	-0.149369
C191	C	0.737314	-0.899460	-0.153848
C192	C	0.788126	-0.949256	-0.103927
C193	C	0.843504	-0.899422	-0.049528
H194	H	0.800637	-0.676246	-0.091656
H195	H	0.704265	-0.762972	-0.186324
H196	H	0.696320	-0.936351	-0.194118
H197	H	0.784747	-1.023010	-0.107241
H198	H	0.881119	-0.936285	-0.012573
H199	H	0.842870	-0.213203	-0.050123
H200	H	1.003177	-0.484615	0.107308
