data_functionalizedCrystal
_audit_creation_method	'MofGen! by Chris Wilmer'
_symmetry_space_group_name_H-M	'P1'
_symmetry_Int_Tables_number	1
_symmetry_cell_setting	triclinic
loop_
_symmetry_equiv_pos_as_xyz
  x,y,z
_cell_length_a	31.640172
_cell_length_b	14.809374
_cell_length_c	14.809374
_cell_angle_alpha	60.797835
_cell_angle_beta	90.004769
_cell_angle_gamma	67.424801
loop_
_atom_site_label
_atom_site_type_symbol
_atom_site_fract_x
_atom_site_fract_y
_atom_site_fract_z
Zr1	Zr	0.466858	0.955103	-0.203542
O2	O	0.415083	1.113035	-0.350716
O3	O	0.475400	0.777335	-0.145463
O4	O	0.492689	0.926479	-0.331998
O5	O	0.392494	0.993388	-0.031784
O6	O	0.562244	0.926464	-0.331979
O7	O	0.397794	0.963891	-0.164181
O8	O	0.531317	0.659673	0.001699
O9	O	0.423421	1.260179	-0.365462
O10	O	0.539807	0.857789	-0.136340
O11	O	0.483944	0.879813	-0.037548
O12	O	0.504299	1.055411	-0.257169
O13	O	0.448436	1.077435	-0.158378
Zr14	Zr	0.569338	1.002124	0.007646
Zr15	Zr	0.577791	0.955080	-0.203511
Zr16	Zr	0.458405	1.002147	0.007615
Zr17	Zr	0.480156	1.189781	-0.227060
Zr18	Zr	0.556040	0.767446	0.031163
O19	O	0.560796	1.179892	-0.050433
O20	O	0.572815	1.113002	-0.350672
O21	O	0.403064	1.179925	-0.050478
O22	O	0.621113	0.844192	0.154820
O23	O	0.633132	0.777301	-0.145419
O24	O	0.463381	0.844225	0.154775
O25	O	0.643702	0.963839	-0.164112
O26	O	0.543507	1.030748	0.136102
O27	O	0.473952	1.030763	0.136082
O28	O	0.638402	0.993336	-0.031715
O29	O	0.511598	1.260160	-0.365437
O30	O	0.524598	0.697066	0.169540
O31	O	0.612775	0.697048	0.169565
O32	O	0.619494	0.659654	0.001723
O33	O	0.416702	1.297573	-0.197620
O34	O	0.504879	1.297554	-0.197595
O35	O	0.531897	0.901816	0.061273
O36	O	0.587760	0.879792	-0.037519
O37	O	0.552252	1.077413	-0.158348
O38	O	0.496389	1.099437	-0.059557
C39	C	0.501464	0.685067	-0.068532
C40	C	0.495818	0.585440	-0.058548
C41	C	0.521013	0.530098	-0.103104
C42	C	0.515179	0.427128	-0.092786
C43	C	0.379338	0.978643	-0.097987
C44	C	0.332244	0.978652	-0.098000
C45	C	0.058767	0.875449	-0.034855
C46	C	-0.118220	0.875432	-0.034834
O47	O	-0.125344	0.787708	0.018842
N48	N	-0.158885	0.978587	-0.097907
C49	C	-0.155301	1.081756	-0.160984
O50	O	-0.193950	1.169497	-0.214623
C51	C	0.021685	1.081773	-0.160999
C52	C	0.062349	0.978609	-0.097931
C53	C	0.099429	0.772294	0.028209
C54	C	0.143673	0.772298	0.028199
C55	C	0.147255	0.875458	-0.034876
C56	C	0.106593	0.978614	-0.097941
C57	C	0.025268	1.184942	-0.224071
C58	C	0.069519	1.184937	-0.224067
C59	C	0.110183	1.081773	-0.160998
C60	C	0.154419	1.081778	-0.161027
N61	N	0.195083	0.978623	-0.097954
C62	C	0.191502	0.875463	-0.034878
C63	C	-0.248220	1.081739	-0.160973
C64	C	-0.292466	1.081734	-0.160971
C65	C	-0.255382	0.875410	-0.034819
C66	C	-0.211135	0.875415	-0.034828
C67	C	-0.207556	0.978583	-0.097900
C68	C	0.284416	0.875480	-0.034906
C69	C	0.328662	0.875493	-0.034925
C70	C	0.291575	1.081817	-0.161073
C71	C	0.247332	1.081804	-0.161058
C72	C	0.243755	0.978626	-0.097966
O73	O	0.161578	1.169458	-0.214666
O74	O	0.230155	0.787738	0.018770
C75	C	0.014523	0.875445	-0.034845
C76	C	-0.026139	0.978600	-0.097910
C77	C	-0.022557	1.081760	-0.160985
C78	C	-0.070386	0.978596	-0.097907
C79	C	-0.073968	0.875436	-0.034832
C80	C	-0.033303	0.772281	0.028241
C81	C	0.010941	0.772285	0.028230
C82	C	-0.063222	1.184916	-0.224058
C83	C	-0.107464	1.184902	-0.224043
C84	C	-0.111046	1.081743	-0.160968
C85	C	0.656858	0.978584	-0.097909
C86	C	0.703952	0.978574	-0.097896
C87	C	0.528671	0.919768	-0.362074
C88	C	0.532259	0.899797	-0.451716
C89	C	0.534732	1.272160	-0.127365
C90	C	0.540378	1.371787	-0.137349
C91	C	0.516245	0.988927	-0.551620
C92	C	0.519953	0.968288	-0.644271
C93	C	0.507525	1.037458	0.166177
C94	C	0.503937	1.057430	0.255819
C95	C	0.640224	0.685038	-0.068493
C96	C	0.681672	0.585401	-0.058496
C97	C	0.490891	0.743912	0.195594
C98	C	0.481657	0.664256	0.295220
C99	C	0.629651	0.743883	0.195633
C100	C	0.667511	0.664217	0.295272
C101	C	0.406545	1.213344	-0.391529
C102	C	0.368686	1.293009	-0.491168
C103	C	0.395972	1.272189	-0.127404
C104	C	0.354524	1.371826	-0.137401
C105	C	0.545305	1.213315	-0.391490
C106	C	0.554539	1.292970	-0.491116
C107	C	0.676106	0.527124	-0.105393
C108	C	0.715048	0.433513	-0.096021
C109	C	0.759556	0.398176	-0.039745
C110	C	0.765121	0.456463	0.007154
C111	C	0.726180	0.550077	-0.002225
C112	C	0.502351	0.638336	0.393597
C113	C	0.493674	0.563506	0.487212
C114	C	0.464304	0.514591	0.482449
C115	C	0.443607	0.540519	0.384061
C116	C	0.452282	0.615354	0.290447
C117	C	0.714455	0.615309	0.290495
C118	C	0.750034	0.540466	0.384107
C119	C	0.738667	0.514527	0.482495
C120	C	0.691718	0.563444	0.487269
C121	C	0.656140	0.638291	0.393657
C122	C	0.321742	1.341929	-0.486393
C123	C	0.286165	1.416801	-0.580007
C124	C	0.297532	1.442745	-0.678396
C125	C	0.344481	1.393823	-0.683169
C126	C	0.380057	1.318958	-0.589556
C127	C	0.360091	1.430111	-0.090513
C128	C	0.321151	1.523743	-0.099911
C129	C	0.276644	1.559082	-0.156191
C130	C	0.271078	1.500791	-0.203085
C131	C	0.310018	1.407167	-0.193693
C132	C	0.583911	1.341863	-0.486318
C133	C	0.592596	1.416697	-0.579917
C134	C	0.571907	1.442644	-0.678314
C135	C	0.542533	1.393742	-0.683110
C136	C	0.533851	1.318903	-0.589511
H137	H	0.566271	0.400629	-0.183132
H138	H	0.469930	0.556587	-0.012761
H139	H	0.525690	1.414880	-0.763237
H140	H	0.536412	0.876694	-0.627324
H141	H	0.487481	1.149024	-0.761130
C142	C	0.356978	1.422359	-0.791399
H143	H	0.329063	1.473941	-0.846458
H144	H	0.377729	1.457227	-0.802461
H145	H	0.371844	1.353505	-0.792053
H146	H	0.361772	0.791481	0.016437
C147	C	0.534651	0.692146	0.398856
H148	H	0.545725	0.665996	0.470859
H149	H	0.560656	0.669963	0.369696
H150	H	0.517493	0.773690	0.359276
H151	H	0.281511	0.791463	0.016470
C152	C	0.679220	0.534890	0.595500
H153	H	0.707134	0.483297	0.650561
H154	H	0.664345	0.603727	0.596172
H155	H	0.658474	0.500001	0.606548
H156	H	0.546905	0.558943	-0.148884
C157	C	0.480201	0.388168	-0.030933
H158	H	0.480866	0.324077	-0.032119
H159	H	0.488785	0.366725	0.040602
H160	H	0.449369	0.449667	-0.063141
C161	C	0.554489	0.776068	-0.428821
H162	H	0.554062	0.778428	-0.494096
H163	H	0.586073	0.736713	-0.389115
H164	H	0.537039	0.736733	-0.389135
H165	H	0.176780	0.688291	0.079552
H166	H	0.457244	0.453658	0.558683
C167	C	0.726967	0.643833	0.182280
H168	H	0.760024	0.603988	0.192857
H169	H	0.711368	0.620692	0.148809
H170	H	0.717240	0.724422	0.138421
H171	H	-0.178028	0.791411	0.016538
C172	C	0.431692	1.265139	-0.594821
H173	H	0.433362	1.291309	-0.666826
H174	H	0.449731	1.287302	-0.565642
H175	H	0.443838	1.183596	-0.555259
H176	H	0.096520	0.688285	0.079578
H177	H	0.600761	1.320751	-0.406207
H178	H	0.419694	0.500681	0.380198
C179	C	0.777804	0.432197	0.585461
H180	H	0.764314	0.423755	0.644746
H181	H	0.793685	0.359162	0.592784
H182	H	0.799555	0.462900	0.582378
H183	H	0.639870	0.555890	-0.151232
C184	C	0.708917	0.369403	-0.147599
H185	H	0.676830	0.403848	-0.182439
H186	H	0.727867	0.373870	-0.197953
H187	H	0.718262	0.290936	-0.094214
H188	H	0.509932	1.279103	-0.593432
C189	C	0.222118	1.539667	-0.264979
H190	H	0.199727	1.603765	-0.263840
H191	H	0.223013	1.561074	-0.336499
H192	H	0.213406	1.478142	-0.232762
C193	C	0.581458	1.524968	-0.781268
H194	H	0.564933	1.533418	-0.840561
H195	H	0.571093	1.598001	-0.788586
H196	H	0.614245	1.494259	-0.778173
H197	H	-0.258305	0.791412	0.016533
C198	C	-0.337191	1.195213	-0.230354
H199	H	-0.328716	1.256648	-0.267907
H200	H	-0.353360	1.189115	-0.279641
H201	H	-0.357087	1.209897	-0.186304
C202	C	0.429520	0.643849	0.182239
H203	H	0.410790	0.603987	0.192820
H204	H	0.410286	0.724430	0.138360
H205	H	0.453441	0.620684	0.148788
H206	H	0.396327	1.401348	-0.044678
C207	C	0.624900	1.470489	-0.574625
H208	H	0.635970	1.444331	-0.502618
H209	H	0.650907	1.448299	-0.603777
H210	H	0.607747	1.552034	-0.614202
H211	H	-0.245312	1.165755	-0.212342
C212	C	0.802386	0.295192	-0.029424
H213	H	0.792691	0.265543	-0.065408
H214	H	0.825252	0.319702	-0.060105
H215	H	0.815632	0.236781	0.043616
C216	C	0.814078	0.417571	0.069075
H217	H	0.811820	0.465683	0.095667
H218	H	0.825494	0.340061	0.126730
H219	H	0.835120	0.422991	0.023024
H220	H	0.325692	1.571189	-0.061719
H221	H	-0.007835	1.268949	-0.275427
C222	C	0.801671	0.486659	0.378838
H223	H	0.803341	0.512815	0.306834
H224	H	0.819705	0.508841	0.408002
H225	H	0.813822	0.405115	0.418414
H226	H	0.072428	1.268954	-0.275417
H227	H	0.617917	0.678103	0.397562
C228	C	0.494013	1.112656	-0.574515
H229	H	0.494434	1.110296	-0.509240
H230	H	0.511456	1.152001	-0.614207
H231	H	0.462426	1.152001	-0.614215
C232	C	0.202602	1.195280	-0.230432
H233	H	0.211074	1.256719	-0.267993
H234	H	0.186429	1.189183	-0.279712
H235	H	0.182711	1.209959	-0.186372
C236	C	0.309232	1.313405	-0.378176
H237	H	0.337139	1.261806	-0.323096
H238	H	0.294362	1.382258	-0.377528
H239	H	0.288478	1.278539	-0.367136
C240	C	0.295519	1.195287	-0.230450
H241	H	0.264966	1.256729	-0.268018
H242	H	0.310146	1.209961	-0.186405
H243	H	0.313875	1.189179	-0.279742
H244	H	0.510531	0.542407	0.567315
H245	H	0.305479	1.359713	-0.231872
C246	C	0.055665	0.658806	0.097616
H247	H	0.047188	0.597377	0.135185
H248	H	0.075565	0.644110	0.053584
H249	H	0.071829	0.664914	0.146907
C250	C	0.234526	1.470599	-0.574742
H251	H	0.214962	1.518915	-0.644582
H252	H	0.225438	1.411189	-0.533017
H253	H	0.231319	1.514904	-0.543392
C254	C	-0.037250	0.658809	0.097627
H255	H	-0.069427	0.673595	0.088600
H256	H	-0.020518	0.606015	0.076891
H257	H	-0.024248	0.626828	0.170209
H258	H	0.244940	1.635319	-0.163830
C259	C	-0.152191	1.298391	-0.293421
H260	H	-0.143716	1.359826	-0.330976
H261	H	-0.168364	1.292300	-0.342708
H262	H	-0.172083	1.313071	-0.249365
C263	C	0.732306	0.614177	0.049365
H264	H	0.702743	0.675000	0.035719
H265	H	0.744171	0.562079	0.123957
H266	H	0.753781	0.645017	0.020228
C267	C	-0.059288	1.298396	-0.293452
H268	H	-0.089845	1.359821	-0.331016
H269	H	-0.044664	1.313098	-0.249429
H270	H	-0.040936	1.292286	-0.342748
H271	H	0.268559	1.503706	-0.754613
