data_functionalizedCrystal
_audit_creation_method	'MofGen! by Chris Wilmer'
_symmetry_space_group_name_H-M	'P1'
_symmetry_Int_Tables_number	1
_symmetry_cell_setting	triclinic
loop_
_symmetry_equiv_pos_as_xyz
  x,y,z
_cell_length_a	12.594517
_cell_length_b	12.594516
_cell_length_c	17.077396
_cell_angle_alpha	89.976855
_cell_angle_beta	89.979204
_cell_angle_gamma	90.015485
loop_
_atom_site_label
_atom_site_type_symbol
_atom_site_fract_x
_atom_site_fract_y
_atom_site_fract_z
Zn1	Zn	1.627252	-0.423758	-0.443899
Zn2	Zn	2.127252	0.076242	0.056101
Zn3	Zn	1.627147	-0.601759	-0.312645
Zn4	Zn	2.127147	-0.101759	0.187355
Zn5	Zn	1.449260	-0.423793	-0.312644
Zn6	Zn	1.949260	0.076207	0.187356
Zn7	Zn	1.449238	-0.601693	-0.443866
Zn8	Zn	1.949238	-0.101693	0.056134
O9	O	1.538224	-0.512751	-0.378263
O10	O	2.038224	-0.012751	0.121737
O11	O	1.776184	-0.447383	-0.426502
O12	O	2.276184	0.052617	0.073498
O13	O	1.603516	-0.578193	-0.202798
O14	O	2.103516	-0.078193	0.297202
O15	O	1.472924	-0.274843	-0.330069
O16	O	1.972924	0.225157	0.169931
O17	O	1.776107	-0.578160	-0.330071
O18	O	2.276107	-0.078160	0.169929
O19	O	1.603694	-0.274817	-0.426501
O20	O	2.103694	0.225183	0.073499
O21	O	1.472823	-0.447443	-0.202797
O22	O	1.972823	0.052557	0.297203
O23	O	1.300312	-0.447379	-0.330036
O24	O	1.800312	0.052621	0.169964
O25	O	1.472887	-0.578048	-0.553717
O26	O	1.972887	-0.078048	-0.053717
O27	O	1.300295	-0.578082	-0.426445
O28	O	1.800295	-0.078082	0.073555
O29	O	1.603673	-0.447320	-0.553742
O30	O	2.103673	0.052680	-0.053742
O31	O	1.603494	-0.750696	-0.330039
O32	O	2.103494	-0.250696	0.169961
O33	O	1.472785	-0.750648	-0.426446
O34	O	1.972785	-0.250648	0.073554
C35	C	1.261684	-0.512728	-0.378237
C36	C	1.761684	-0.012728	0.121763
C37	C	1.143378	-0.512744	-0.378245
C38	C	1.643378	-0.012744	0.121755
C39	C	1.538155	-0.789292	-0.378256
C40	C	2.038155	-0.289292	0.121744
C41	C	1.538222	-0.907597	-0.378279
C42	C	2.038222	-0.407597	0.121721
C43	C	1.003339	-0.441576	-0.325928
C44	C	1.503339	0.058424	0.174072
C45	C	1.074196	-0.415648	-0.397557
C46	C	1.574196	0.084352	0.102443
C47	C	1.074093	-0.538624	-0.306623
C48	C	1.574093	-0.038624	0.193377
C49	C	1.003449	-0.486807	-0.449969
C50	C	1.503449	0.013193	0.050031
C51	C	1.003340	-0.609828	-0.358987
C52	C	1.503340	-0.109828	0.141013
C53	C	1.074165	-0.583937	-0.430665
C54	C	1.574165	-0.083937	0.069335
C55	C	1.467123	-0.976863	-0.430678
C56	C	1.967123	-0.476863	0.069322
C57	C	1.441192	-1.047723	-0.359050
C58	C	1.941192	-0.547723	0.140950
C59	C	1.564250	-1.047536	-0.449919
C60	C	2.064250	-0.547536	0.050081
C61	C	1.512240	-0.976899	-0.306613
C62	C	2.012240	-0.476899	0.193387
C63	C	1.635344	-0.976706	-0.397531
C64	C	2.135344	-0.476706	0.102469
C65	C	1.609450	-1.047534	-0.325853
C66	C	2.109450	-0.547534	0.174147
C67	C	1.815845	-0.512775	-0.378290
C68	C	2.315845	-0.012775	0.121710
C69	C	1.934151	-0.512785	-0.378302
C70	C	2.434151	-0.012785	0.121698
C71	C	1.538289	-0.512672	-0.583008
C72	C	2.038289	-0.012672	-0.083008
C73	C	1.538316	-0.512639	-0.670258
C74	C	2.038316	-0.012639	-0.170258
C75	C	1.538324	-0.235130	-0.378288
C76	C	2.038324	0.264870	0.121712
C77	C	1.538366	-0.116825	-0.378299
C78	C	2.038366	0.383175	0.121701
C79	C	1.606419	-0.444563	-0.711262
C80	C	2.106419	0.055437	-0.211262
C81	C	1.606432	-0.444528	-0.793242
C82	C	2.106432	0.055472	-0.293242
C83	C	1.538347	-0.512574	-0.834217
C84	C	2.038347	-0.012574	-0.334217
C85	C	1.470236	-0.580653	-0.793207
C86	C	1.970236	-0.080653	-0.293207
C87	C	1.470219	-0.580682	-0.711228
C88	C	1.970219	-0.080682	-0.211228
C89	C	1.470279	-0.580589	-0.964077
C90	C	1.970279	-0.080589	-0.464077
C91	C	1.470298	-0.580562	-1.046062
C92	C	1.970298	-0.080562	-0.546062
C93	C	1.606492	-0.444435	-1.046091
C94	C	2.106492	0.055565	-0.546091
C95	C	1.606475	-0.444464	-0.964112
C96	C	2.106475	0.055536	-0.464112
C97	C	1.538366	-0.512544	-0.923108
C98	C	2.038366	-0.012544	-0.423108
C99	C	1.538222	-0.512752	-0.174316
C100	C	2.038222	-0.012752	0.325684
C101	C	1.538400	-0.512486	-0.087066
C102	C	2.038400	-0.012486	0.412934
H103	H	0.972245	-0.381330	-0.281716
H104	H	1.472245	0.118670	0.218284
H105	H	1.661947	-0.388999	-1.079481
H106	H	2.161947	0.111001	-0.579481
H107	H	1.359125	-1.078940	-0.342783
H108	H	1.859125	-0.578940	0.157217
H109	H	1.661922	-0.389060	-0.930753
H110	H	2.161922	0.110940	-0.430753
H111	H	1.105300	-0.333560	-0.413884
H112	H	1.605300	0.166440	0.086116
H113	H	0.972546	-0.464839	-0.510581
H114	H	1.472546	0.035161	-0.010581
H115	H	0.972195	-0.691889	-0.342648
H116	H	1.472195	-0.191889	0.157352
H117	H	1.661891	-0.389096	-0.826624
H118	H	2.161891	0.110904	-0.326624
H119	H	1.105128	-0.560495	-0.246029
H120	H	1.605128	-0.060495	0.253971
H121	H	1.414854	-0.635969	-1.079422
H122	H	1.914854	-0.135969	-0.579422
H123	H	1.406889	-0.945831	-0.474925
H124	H	1.906889	-0.445831	0.025075
H125	H	1.414801	-0.636011	-0.930694
H126	H	1.914801	-0.136011	-0.430694
H127	H	1.490188	-0.945999	-0.246019
H128	H	1.990188	-0.445999	0.253981
H129	H	1.661866	-0.389155	-0.677906
H130	H	2.161866	0.110845	-0.177906
H131	H	1.414796	-0.636054	-0.826576
H132	H	1.914796	-0.136054	-0.326576
H133	H	1.414752	-0.636106	-0.677844
H134	H	1.914752	-0.136106	-0.177844
H135	H	1.586207	-1.078565	-0.510497
H136	H	2.086207	-0.578565	-0.010497
H137	H	1.105064	-0.644138	-0.474983
H138	H	1.605064	-0.144138	0.025017
H139	H	1.717392	-0.945492	-0.413832
H140	H	2.217392	-0.445492	0.086168
H141	H	1.669638	-1.078369	-0.281498
H142	H	2.169638	-0.578369	0.218502
