data_functionalizedCrystal
_audit_creation_method	'MofGen! by Chris Wilmer'
_symmetry_space_group_name_H-M	'P1'
_symmetry_Int_Tables_number	1
_symmetry_cell_setting	triclinic
loop_
_symmetry_equiv_pos_as_xyz
  x,y,z
_cell_length_a	14.971482
_cell_length_b	11.792254
_cell_length_c	14.048226
_cell_angle_alpha	89.993407
_cell_angle_beta	89.994098
_cell_angle_gamma	83.905603
loop_
_atom_site_label
_atom_site_type_symbol
_atom_site_fract_x
_atom_site_fract_y
_atom_site_fract_z
O1	O	1.187547	0.147888	-0.079149
O2	O	0.927218	0.165605	-0.079153
O3	O	1.063694	-0.008464	-0.079144
O4	O	1.051071	0.321957	-0.079158
O5	O	1.063677	-0.008474	0.079177
O6	O	0.927201	0.165595	0.079168
O7	O	1.187530	0.147878	0.079173
Zn8	Zn	1.057363	0.156735	0.104307
Zn9	Zn	1.057385	0.156748	-0.104288
O10	O	1.051054	0.321947	0.079163
C11	C	0.893882	0.164808	0.000007
C12	C	0.794575	0.162436	0.000005
C13	C	1.062891	-0.050755	0.000016
C14	C	1.060510	-0.176752	0.000015
C15	C	0.747917	0.161313	0.086307
C16	C	0.654609	0.159066	0.086308
C17	C	0.607961	0.157950	0.000006
C18	C	0.654626	0.159070	-0.086302
C19	C	0.747932	0.161309	-0.086302
C20	C	0.460145	0.154406	-0.086296
C21	C	0.366832	0.152169	-0.086296
C22	C	0.366822	0.152164	0.086315
C23	C	0.460128	0.154403	0.086315
C24	C	0.506787	0.155524	0.000006
C25	C	1.058577	-0.279076	0.000012
C26	C	1.056159	-0.407447	0.000003
C27	C	1.220867	0.148675	0.000010
C28	C	1.320173	0.151047	0.000006
C29	C	1.051858	0.364237	0.000001
C30	C	1.054238	0.490235	-0.000004
N31	N	1.057355	0.156725	0.246668
N32	N	1.057400	0.156749	-0.246649
C33	C	1.117806	0.079679	0.296490
C34	C	1.117812	0.079678	0.396148
C35	C	1.057371	0.156730	0.445981
C36	C	0.996913	0.233779	0.396152
C37	C	0.996904	0.233773	0.296496
C38	C	0.996939	0.233787	0.603867
C39	C	0.996950	0.233795	0.703529
C40	C	1.117847	0.079692	0.703518
C41	C	1.117838	0.079687	0.603862
C42	C	1.057381	0.156738	0.554040
H43	H	0.785890	0.162231	0.156584
H44	H	0.947677	0.296511	0.255932
H45	H	0.616626	0.158133	0.156584
C46	C	0.511468	0.155648	-0.181237
C47	C	0.565931	0.255674	-0.204972
C48	C	0.617253	0.256925	-0.299911
C49	C	0.614111	0.158152	-0.371115
C50	C	0.559645	0.058119	-0.347383
C51	C	0.508324	0.056868	-0.252444
H52	H	0.568259	0.328798	-0.152260
H53	H	0.657572	0.330977	-0.317479
H54	H	0.652102	0.159078	-0.441395
H55	H	0.557317	-0.015005	-0.400094
H56	H	0.468005	-0.017184	-0.234876
H57	H	0.498106	0.155318	0.156589
H58	H	0.328828	0.151251	0.156591
C59	C	1.184322	-0.005067	0.549040
C60	C	1.148942	-0.091937	0.480545
C61	C	1.215425	-0.176693	0.425721
C62	C	1.317288	-0.174579	0.439392
C63	C	1.352673	-0.087705	0.507890
C64	C	1.286190	-0.002949	0.562713
H65	H	1.073532	-0.093505	0.470423
H66	H	1.189229	-0.241003	0.375015
H67	H	1.366502	-0.237320	0.398808
H68	H	1.428083	-0.086137	0.518012
H69	H	1.312385	0.061360	0.613420
C70	C	0.315512	0.150931	-0.181224
C71	C	0.261042	0.050913	-0.204933
C72	C	0.209720	0.049673	-0.299860
C73	C	0.212867	0.148450	-0.371079
C74	C	0.267338	0.248476	-0.347373
C75	C	0.318661	0.249716	-0.252445
H76	H	0.258711	-0.022215	-0.152210
H77	H	0.169396	-0.024373	-0.317409
H78	H	0.174875	0.147532	-0.441350
H79	H	0.269670	0.321604	-0.400095
H80	H	0.358984	0.323762	-0.234897
C81	C	0.799261	0.162548	-0.181236
C82	C	0.796118	0.063765	-0.252431
C83	C	0.847447	0.064998	-0.347366
C84	C	0.901918	0.165014	-0.371107
C85	C	0.905063	0.263804	-0.299910
C86	C	0.853734	0.262571	-0.204974
H87	H	0.755794	-0.010280	-0.234858
H88	H	0.845119	-0.008134	-0.400071
H89	H	0.939915	0.165926	-0.441384
H90	H	0.945388	0.337848	-0.317482
H91	H	0.856062	0.335703	-0.152270
H92	H	0.616638	0.158153	-0.156571
H93	H	1.167028	0.016940	0.255922
H94	H	1.167035	0.016941	0.436712
C95	C	1.184346	-0.005069	0.758320
C96	C	1.184354	-0.005071	0.867938
C97	C	1.250854	-0.089823	0.922747
C98	C	1.317345	-0.174574	0.867938
C99	C	1.317339	-0.174575	0.758314
C100	C	1.250840	-0.089823	0.703506
H101	H	1.135131	0.057670	0.908516
H102	H	1.250857	-0.089821	1.003898
H103	H	1.366572	-0.237312	0.908511
H104	H	1.366562	-0.237315	0.717736
H105	H	1.250836	-0.089824	0.622355
H106	H	0.947706	0.296527	0.563305
H107	H	0.947696	0.296512	0.436733
C108	C	0.930457	0.318546	0.758344
C109	C	0.863952	0.403285	0.703538
C110	C	0.797457	0.488037	0.758350
C111	C	0.797467	0.488051	0.867968
C112	C	0.863975	0.403309	0.922779
C113	C	0.930470	0.318557	0.867967
H114	H	0.863942	0.403277	0.622387
H115	H	0.748224	0.550769	0.717775
H116	H	0.748244	0.550790	0.908543
H117	H	0.863984	0.403317	1.003930
H118	H	0.979703	0.255825	0.908543
