data_functionalizedCrystal
_audit_creation_method	'MofGen! by Chris Wilmer'
_symmetry_space_group_name_H-M	'P1'
_symmetry_Int_Tables_number	1
_symmetry_cell_setting	triclinic
loop_
_symmetry_equiv_pos_as_xyz
  x,y,z
_cell_length_a	6.817900
_cell_length_b	17.982723
_cell_length_c	19.453114
_cell_angle_alpha	96.129620
_cell_angle_beta	101.709288
_cell_angle_gamma	102.447564
loop_
_atom_site_label
_atom_site_type_symbol
_atom_site_fract_x
_atom_site_fract_y
_atom_site_fract_z
V1	V	-4.001665	-0.106207	-0.219300
V2	V	-3.501665	0.393793	0.280700
O3	O	-3.994950	0.004287	-0.214818
O4	O	-3.494950	0.504287	0.285182
O5	O	-3.948262	-0.209806	-0.218096
O6	O	-3.448262	0.290194	0.281904
O7	O	-3.944642	-0.104932	-0.314809
O8	O	-3.444642	0.395068	0.185191
O9	O	-3.998596	-0.101313	-0.117435
O10	O	-3.498596	0.398687	0.382565
V11	V	-4.487059	-0.092949	-0.207080
V12	V	-3.987059	0.407051	0.292920
O13	O	-4.258820	-0.135292	-0.246105
O14	O	-3.758820	0.364708	0.253895
O15	O	-4.680101	-0.063864	-0.180275
O16	O	-4.180101	0.436136	0.319725
O17	O	-4.317255	0.010650	-0.208284
O18	O	-3.817255	0.510650	0.291716
O19	O	-4.611171	-0.203443	-0.211562
O20	O	-4.111171	0.296557	0.288438
O21	O	-4.607525	-0.097843	-0.308945
O22	O	-4.107525	0.402157	0.191055
O23	O	-4.320875	-0.094224	-0.111571
O24	O	-3.820875	0.405776	0.388429
C25	C	-3.792325	-0.235050	-0.214712
C26	C	-3.292325	0.264950	0.285288
C27	C	-3.829892	-0.319746	-0.214364
C28	C	-3.329892	0.180254	0.285636
C29	C	-4.242158	-0.843516	-0.215704
C30	C	-3.742158	-0.343516	0.284296
C31	C	-4.206850	-0.763936	-0.216034
C32	C	-3.706850	-0.263936	0.283966
C33	C	-4.007591	-0.720256	-0.212684
C34	C	-3.507591	-0.220256	0.287316
C35	C	-3.843626	-0.756159	-0.208996
C36	C	-3.343626	-0.256159	0.291004
C37	C	-3.878932	-0.835737	-0.208661
C38	C	-3.378932	-0.335737	0.291339
C39	C	-3.701234	-0.435230	-0.210347
C40	C	-3.201234	0.064770	0.289653
C41	C	-3.665940	-0.355647	-0.210684
C42	C	-3.165940	0.144353	0.289316
C43	C	-4.029152	-0.363428	-0.217719
C44	C	-3.529152	0.136572	0.282281
C45	C	-4.064459	-0.443006	-0.217384
C46	C	-3.564459	0.056994	0.282616
C47	C	-3.900489	-0.478902	-0.213693
C48	C	-3.400489	0.021098	0.286307
C49	C	-3.938776	-0.565192	-0.213334
C50	C	-3.438776	-0.065192	0.286666
C51	C	-3.969306	-0.633969	-0.213048
C52	C	-3.469306	-0.133969	0.286952
C53	C	-3.787706	-0.101272	-0.338079
C54	C	-3.287706	0.398728	0.161921
C55	C	-3.822333	-0.100914	-0.416161
C56	C	-3.322333	0.399086	0.083839
C57	C	-4.020199	-0.104571	-0.456428
C58	C	-3.520199	0.395429	0.043572
C59	C	-4.052736	-0.104235	-0.529794
C60	C	-3.552736	0.395765	-0.029794
C61	C	-3.887403	-0.100258	-0.562892
C62	C	-3.387403	0.399742	-0.062892
C63	C	-3.689508	-0.096597	-0.522614
C64	C	-3.189508	0.403403	-0.022614
C65	C	-3.656973	-0.096925	-0.449249
C66	C	-3.156973	0.403075	0.050751
N67	N	-3.825717	-0.140494	-0.681795
N68	N	-3.325717	0.359506	-0.181795
N69	N	-3.856637	-0.140184	-0.751489
N70	N	-3.356637	0.359816	-0.251489
C71	C	-3.985417	-0.099268	-0.783937
C72	C	-3.485417	0.400732	-0.283937
N73	N	-4.082145	-0.058683	-0.744059
N74	N	-3.582145	0.441317	-0.244059
N75	N	-4.051229	-0.058996	-0.674359
N76	N	-3.551229	0.441004	-0.174359
C77	C	-3.922661	-0.099901	-0.642444
C78	C	-3.422661	0.400099	-0.142444
C79	C	-4.218575	-0.102559	-0.903756
C80	C	-3.718575	0.397441	-0.403756
C81	C	-4.251102	-0.102219	-0.977123
C82	C	-3.751102	0.397781	-0.477123
C83	C	-3.887872	-0.094588	-0.969942
C84	C	-3.387872	0.405412	-0.469942
C85	C	-3.855347	-0.094921	-0.896576
C86	C	-3.355347	0.405079	-0.396576
C87	C	-4.020707	-0.098910	-0.863488
C88	C	-3.520707	0.401090	-0.363488
C89	C	-4.136534	0.035890	-0.211666
C90	C	-3.636534	0.535890	0.288334
C91	C	-4.078205	0.120585	-0.212018
C92	C	-3.578205	0.620585	0.287982
C93	C	-4.141154	-0.097887	-0.088297
C94	C	-3.641154	0.402113	0.411703
C95	C	-4.085765	-0.098240	-0.010215
C96	C	-3.585765	0.401760	0.489785
H97	H	-4.340362	-0.734712	-0.219037
H98	H	-3.840362	-0.234712	0.280963
Cl99	Cl	-3.408209	-0.092332	-0.398624
Cl100	Cl	-2.908209	0.407668	0.101376
H101	H	-3.567710	-0.464445	-0.207332
H102	H	-3.067710	0.035555	0.292668
Cl103	Cl	-4.492669	-0.898422	-0.219921
Cl104	Cl	-3.992669	-0.398422	0.280079
H105	H	-3.694229	-0.091952	-0.863791
H106	H	-3.194229	0.408048	-0.363791
H107	H	-4.412228	-0.105191	-1.009907
H108	H	-3.912228	0.394809	-0.509907
H109	H	-3.503673	-0.320084	-0.207956
H110	H	-3.003673	0.179916	0.292044
Cl111	Cl	-4.301500	-0.108827	-0.580425
Cl112	Cl	-3.801500	0.391173	-0.080425
H113	H	-4.353220	-0.105805	-0.876814
H114	H	-3.853220	0.394195	-0.376814
H115	H	-4.162659	-0.334192	-0.220722
H116	H	-3.662659	0.165808	0.279278
H117	H	-3.554894	-0.093356	-0.549566
H118	H	-3.054894	0.406644	-0.049566
H119	H	-4.226714	-0.478568	-0.220116
H120	H	-3.726714	0.021432	0.279884
Cl121	Cl	-3.593121	-0.701245	-0.204774
Cl122	Cl	-3.093121	-0.201245	0.295226
H123	H	-3.753251	-0.091343	-0.996889
H124	H	-3.253251	0.408657	-0.496889
H125	H	-3.745426	-0.864965	-0.205666
H126	H	-3.245426	-0.364965	0.294334
Cl127	Cl	-4.228080	-0.109581	-0.414835
Cl128	Cl	-3.728080	0.390419	0.085165
