data_functionalizedCrystal
_audit_creation_method	'MofGen! by Chris Wilmer'
_symmetry_space_group_name_H-M	'P1'
_symmetry_Int_Tables_number	1
_symmetry_cell_setting	triclinic
loop_
_symmetry_equiv_pos_as_xyz
  x,y,z
_cell_length_a	14.044220
_cell_length_b	10.723024
_cell_length_c	9.198806
_cell_angle_alpha	90.003648
_cell_angle_beta	89.995861
_cell_angle_gamma	91.171627
loop_
_atom_site_label
_atom_site_type_symbol
_atom_site_fract_x
_atom_site_fract_y
_atom_site_fract_z
O1	O	0.133040	-1.670498	-0.120888
O2	O	0.145774	-1.308620	-0.120893
O3	O	0.001387	-1.484127	-0.120876
O4	O	0.277427	-1.494991	-0.120905
O5	O	0.001387	-1.484112	0.120909
O6	O	0.145774	-1.308604	0.120892
O7	O	0.133039	-1.670483	0.120898
Cu8	Cu	0.139407	-1.489542	0.142972
Cu9	Cu	0.139407	-1.489560	-0.142967
O10	O	0.277427	-1.494975	0.120881
C11	C	0.144847	-1.262020	-0.000001
C12	C	0.142075	-1.123188	-0.000003
C13	C	0.133966	-1.717083	0.000002
C14	C	0.136739	-1.855914	-0.000006
C15	C	-0.033958	-1.479364	0.000017
C16	C	-0.139276	-1.465180	0.000019
C17	C	-0.332106	-1.439248	-0.000003
C18	C	-0.389085	-1.539849	-0.000006
C19	C	-0.496383	-1.525420	-0.000017
C20	C	-0.224799	-1.453675	0.000009
C21	C	0.312772	-1.499738	-0.000016
C22	C	0.418090	-1.513923	-0.000027
N23	N	0.139406	-1.489539	0.344086
C24	C	0.222866	-1.056288	-0.000012
C25	C	0.220002	-0.912798	-0.000013
N26	N	0.139401	-1.489573	-0.344081
C27	C	0.078514	-1.563202	0.416290
C28	C	0.078511	-1.563221	0.583702
H29	H	-0.357284	-1.636814	-0.000102
H30	H	0.289166	-0.855286	-0.000027
H31	H	0.026381	-1.626251	0.354170
H32	H	0.067571	-0.913420	-0.000007
Cl33	Cl	-0.381203	-1.289550	-0.000012
Cl34	Cl	0.332936	-1.131859	-0.000019
Cl35	Cl	-0.001975	-1.660603	0.679562
Cl36	Cl	0.032005	-1.047617	0.000019
Cl37	Cl	0.219899	-1.392202	0.560068
H38	H	0.191531	-1.426481	0.406208
