data_functionalizedCrystal
_audit_creation_method	'MofGen! by Chris Wilmer'
_symmetry_space_group_name_H-M	'P1'
_symmetry_Int_Tables_number	1
_symmetry_cell_setting	triclinic
loop_
_symmetry_equiv_pos_as_xyz
  x,y,z
_cell_length_a	12.759401
_cell_length_b	29.839131
_cell_length_c	12.759393
_cell_angle_alpha	89.962059
_cell_angle_beta	89.980163
_cell_angle_gamma	90.042945
loop_
_atom_site_label
_atom_site_type_symbol
_atom_site_fract_x
_atom_site_fract_y
_atom_site_fract_z
Zn1	Zn	1.606060	-0.178808	-0.593974
Zn2	Zn	1.605872	-0.253947	-0.418275
Zn3	Zn	1.430362	-0.178834	-0.418309
Zn4	Zn	1.430269	-0.253914	-0.593912
O5	O	1.518141	-0.216376	-0.506117
O6	O	1.753056	-0.188779	-0.570679
O7	O	1.582551	-0.244007	-0.271258
O8	O	1.453786	-0.115963	-0.441652
O9	O	1.752918	-0.243983	-0.441593
O10	O	1.582871	-0.115945	-0.570712
O11	O	1.453604	-0.188822	-0.271283
O12	O	1.283329	-0.188790	-0.441592
O13	O	1.453627	-0.243927	-0.740941
O14	O	1.283260	-0.243951	-0.570606
O15	O	1.582780	-0.188747	-0.740987
O16	O	1.582461	-0.316810	-0.441533
O17	O	1.453445	-0.316786	-0.570573
C18	C	1.245173	-0.216370	-0.506097
C19	C	1.128397	-0.216379	-0.506113
C20	C	1.517951	-0.333098	-0.506065
C21	C	1.517966	-0.383033	-0.506078
C22	C	1.073527	-0.245145	-0.573185
C23	C	0.963802	-0.245147	-0.573206
C24	C	0.963829	-0.187615	-0.439073
C25	C	1.073551	-0.187611	-0.439058
C26	C	1.585441	-0.692676	-0.439024
C27	C	1.585571	-0.880349	-0.439065
O28	O	1.642790	-0.904614	-0.382014
N29	N	1.518359	-0.903818	-0.506197
C30	C	1.451114	-0.880365	-0.573327
O31	O	1.393956	-0.904633	-0.630435
C32	C	1.450990	-0.692693	-0.573291
C33	C	1.518200	-0.669227	-0.506148
C34	C	1.652646	-0.669210	-0.371888
C35	C	1.652609	-0.622294	-0.371874
C36	C	1.585367	-0.598845	-0.438997
C37	C	1.518162	-0.622311	-0.506134
C38	C	1.383752	-0.669242	-0.640427
C39	C	1.383729	-0.622321	-0.640413
C40	C	1.450938	-0.598854	-0.573270
C41	C	1.450884	-0.551947	-0.573244
N42	N	1.518096	-0.528478	-0.506113
C43	C	1.585338	-0.551927	-0.438989
C44	C	1.451182	-0.978896	-0.573340
C45	C	1.451212	-1.025814	-0.573348
C46	C	1.585670	-1.025794	-0.439087
C47	C	1.585635	-0.978876	-0.439075
C48	C	1.518394	-0.955427	-0.506209
C49	C	1.585254	-0.453402	-0.438965
C50	C	1.585208	-0.406482	-0.438955
C51	C	1.450753	-0.406506	-0.573219
C52	C	1.450795	-0.453421	-0.573226
C53	C	1.518054	-0.476868	-0.506096
O54	O	1.393703	-0.527653	-0.630274
O55	O	1.642503	-0.527651	-0.381907
C56	C	1.585478	-0.739591	-0.439038
C57	C	1.518274	-0.763058	-0.506175
C58	C	1.451032	-0.739609	-0.573298
C59	C	1.518303	-0.809976	-0.506183
C60	C	1.585545	-0.833425	-0.439060
C61	C	1.652757	-0.809956	-0.371928
C62	C	1.652720	-0.763041	-0.371915
C63	C	1.383820	-0.763077	-0.640430
C64	C	1.383862	-0.809993	-0.640437
C65	C	1.451103	-0.833442	-0.573314
C66	C	1.792174	-0.216382	-0.506139
C67	C	1.908951	-0.216384	-0.506148
C68	C	1.518214	-0.216330	-0.780151
C69	C	1.518245	-0.216311	-0.896928
C70	C	1.518360	-0.099197	-0.506193
C71	C	1.518453	-0.049263	-0.506225
C72	C	1.451127	-0.187571	-0.951802
C73	C	1.451151	-0.187557	-1.061526
C74	C	1.585422	-0.245025	-1.061492
C75	C	1.585391	-0.245041	-0.951769
C76	C	1.518128	-0.216389	-0.233150
C77	C	1.518301	-0.216281	-0.116374
H78	H	1.118179	-0.268568	-0.627787
Br79	Br	1.360040	-0.148558	-1.135996
Br80	Br	1.676480	-0.284051	-0.877289
H81	H	1.396003	-0.387406	-0.627867
H82	H	1.329065	-0.743989	-0.695091
Br83	Br	1.676545	-0.284013	-1.135926
H84	H	0.919132	-0.268570	-0.627824
Br85	Br	1.359999	-0.148582	-0.877377
H86	H	0.919159	-0.164194	-0.384478
Br87	Br	1.743841	-0.590454	-0.280761
H88	H	1.118227	-0.164183	-0.384440
H89	H	1.329123	-0.829095	-0.695112
H90	H	1.640025	-0.472486	-0.384304
Br91	Br	1.676424	-0.374638	-0.347823
H92	H	1.707408	-0.688297	-0.317227
Br93	Br	1.743940	-0.731201	-0.280789
Br94	Br	1.676849	-0.947033	-0.347948
H95	H	1.640421	-1.044895	-0.384433
Br96	Br	1.359980	-1.057655	-0.664459
Br97	Br	1.744009	-0.841789	-0.280828
Br98	Br	1.359918	-0.947080	-0.664460
H99	H	1.328975	-0.603231	-0.695086
Br100	Br	1.359557	-0.485269	-0.664324
Br101	Br	1.292544	-0.701077	-0.731567
