data_functionalizedCrystal
_audit_creation_method	'MofGen! by Chris Wilmer'
_symmetry_space_group_name_H-M	'P1'
_symmetry_Int_Tables_number	1
_symmetry_cell_setting	triclinic
loop_
_symmetry_equiv_pos_as_xyz
  x,y,z
_cell_length_a	19.288864
_cell_length_b	19.288865
_cell_length_c	9.730223
_cell_angle_alpha	89.990377
_cell_angle_beta	89.982865
_cell_angle_gamma	83.136245
loop_
_atom_site_label
_atom_site_type_symbol
_atom_site_fract_x
_atom_site_fract_y
_atom_site_fract_z
O1	O	0.921347	0.086647	-0.114746
O2	O	0.719086	0.098336	-0.114654
O3	O	0.826061	-0.008638	-0.114676
O4	O	0.814372	0.193622	-0.114725
O5	O	0.826054	-0.008641	0.113904
O6	O	0.719080	0.098333	0.113926
O7	O	0.921340	0.086645	0.113834
Zn8	Zn	0.820209	0.092489	0.150172
Zn9	Zn	0.820218	0.092492	-0.150992
O10	O	0.814366	0.193619	0.113855
C11	C	0.693207	0.097959	-0.000352
C12	C	0.616103	0.096830	-0.000316
C13	C	0.571407	0.159598	-0.000353
C14	C	0.498960	0.158537	-0.000368
C15	C	0.471212	0.094705	-0.000373
C16	C	0.515918	0.031929	-0.000329
C17	C	0.588364	0.032991	-0.000300
C18	C	0.362952	0.044527	-0.080489
C19	C	0.290508	0.043467	-0.080526
C20	C	0.247767	0.091425	-0.000456
C21	C	0.277477	0.140455	0.079634
C22	C	0.349922	0.141518	0.079663
C23	C	0.392658	0.093546	-0.000404
C24	C	0.124514	0.153047	-0.000507
C25	C	0.052066	0.151984	-0.000513
C26	C	0.069026	0.025374	-0.000488
C27	C	0.141473	0.026439	-0.000468
C28	C	0.169212	0.090278	-0.000484
C29	C	0.825682	-0.034516	-0.000382
C30	C	0.824553	-0.111620	-0.000369
C31	C	0.887321	-0.156316	-0.000391
C32	C	0.886260	-0.228763	-0.000412
C33	C	0.822428	-0.256511	-0.000384
C34	C	0.759652	-0.211805	-0.000370
C35	C	0.760714	-0.139359	-0.000362
C36	C	0.772246	-0.364799	0.079706
C37	C	0.771186	-0.437244	0.079707
C38	C	0.819148	-0.479956	-0.000413
C39	C	0.868182	-0.450217	-0.080516
C40	C	0.869244	-0.377772	-0.080509
C41	C	0.821269	-0.335065	-0.000393
C42	C	0.880770	-0.603209	-0.000460
C43	C	0.879707	-0.675657	-0.000490
C44	C	0.753097	-0.658697	-0.000434
C45	C	0.754162	-0.586250	-0.000418
C46	C	0.818000	-0.558511	-0.000424
C47	C	0.947220	0.087022	-0.000471
C48	C	1.024324	0.088151	-0.000517
C49	C	0.814745	0.219497	-0.000442
C50	C	0.815874	0.296601	-0.000464
N51	N	0.820208	0.092486	0.355708
N52	N	0.820224	0.092490	-0.356529
C53	C	0.867592	0.045137	0.427624
C54	C	0.867599	0.045137	0.571507
C55	C	0.772835	0.139841	0.571545
C56	C	0.772825	0.139837	0.427664
H57	H	0.242678	0.179507	0.144836
H58	H	0.734236	0.178394	0.369106
H59	H	0.015674	0.203099	-0.000535
C60	C	0.155031	0.223265	-0.000510
H61	H	0.118032	0.260497	-0.000515
H62	H	0.182957	0.226313	-0.080214
H63	H	0.182921	0.226309	0.079218
H64	H	0.733187	-0.330028	0.144956
H65	H	0.046435	-0.026600	-0.000578
H66	H	0.397748	0.005472	-0.145700
C67	C	0.190641	-0.042607	-0.000449
H68	H	0.163742	-0.080776	-0.000466
H69	H	0.219237	-0.044827	0.079271
H70	H	0.219271	-0.044820	-0.080161
C71	C	0.919709	-0.006945	0.348470
H72	H	0.912924	-0.000162	0.252479
H73	H	0.912320	-0.053285	0.372074
H74	H	0.966041	0.000491	0.372014
C75	C	0.682881	-0.689207	-0.000408
H76	H	0.645649	-0.652208	-0.000399
H77	H	0.679830	-0.717126	0.079297
H78	H	0.679839	-0.717103	-0.080135
C79	C	0.382603	0.195440	0.167767
H80	H	0.346777	0.223849	0.215461
H81	H	0.407125	0.223900	0.110042
H82	H	0.414062	0.171830	0.232179
H83	H	0.624756	-0.018124	-0.000271
C84	C	0.601917	0.229817	-0.000345
H85	H	0.564917	0.267048	-0.000355
H86	H	0.629848	0.232869	-0.080039
H87	H	0.629801	0.232859	0.079392
C88	C	0.257829	-0.010458	-0.168626
H89	H	0.208561	-0.004216	-0.157193
H90	H	0.275846	-0.056239	-0.140454
H91	H	0.268911	-0.004175	-0.262599
C92	C	0.485399	-0.038285	-0.000343
H93	H	0.435851	-0.029928	-0.000381
H94	H	0.500733	-0.064124	0.079377
H95	H	0.500778	-0.064117	-0.080055
H96	H	0.462561	0.209652	-0.000394
C97	C	0.689438	-0.242324	-0.000334
H98	H	0.697795	-0.291872	-0.000327
H99	H	0.663604	-0.226961	-0.080032
H100	H	0.663601	-0.226975	0.079399
H101	H	0.939303	-0.133736	-0.000401
H102	H	0.937375	-0.265162	-0.000435
C103	C	0.923170	-0.345060	-0.168629
H104	H	0.951581	-0.380868	-0.216358
H105	H	0.951628	-0.320558	-0.110910
H106	H	0.899563	-0.313577	-0.233011
H107	H	0.907237	-0.484993	-0.145758
C108	C	0.950988	-0.572692	-0.000483
H109	H	0.988220	-0.609691	-0.000519
H110	H	0.954033	-0.544794	0.079232
H111	H	0.954035	-0.544773	-0.080199
H112	H	0.906183	0.006581	0.630058
C113	C	0.948755	-0.724823	-0.000511
H114	H	0.986924	-0.697924	-0.000500
H115	H	0.950981	-0.753428	-0.080226
H116	H	0.950964	-0.753445	0.079205
H117	H	0.703049	-0.549857	-0.000392
H118	H	0.731257	-0.461451	0.144923
H119	H	0.734258	0.178394	0.630146
H120	H	0.709599	-0.102967	-0.000344
