data_functionalizedCrystal
_audit_creation_method	'MofGen! by Chris Wilmer'
_symmetry_space_group_name_H-M	'P1'
_symmetry_Int_Tables_number	1
_symmetry_cell_setting	triclinic
loop_
_symmetry_equiv_pos_as_xyz
  x,y,z
_cell_length_a	19.805407
_cell_length_b	18.101397
_cell_length_c	19.805399
_cell_angle_alpha	89.969268
_cell_angle_beta	89.978486
_cell_angle_gamma	90.019712
loop_
_atom_site_label
_atom_site_type_symbol
_atom_site_fract_x
_atom_site_fract_y
_atom_site_fract_z
Zn1	Zn	1.034746	-0.294851	-0.382795
Zn2	Zn	1.534746	0.205149	0.117205
Zn3	Zn	1.034678	-0.418698	-0.269603
Zn4	Zn	1.534678	0.081302	0.230397
Zn5	Zn	0.921566	-0.294873	-0.269610
Zn6	Zn	1.421566	0.205127	0.230390
Zn7	Zn	0.921536	-0.418654	-0.382741
Zn8	Zn	1.421536	0.081346	0.117259
O9	O	0.978131	-0.356769	-0.326187
O10	O	1.478131	0.143231	0.173813
O11	O	1.129453	-0.311289	-0.367800
O12	O	1.629453	0.188711	0.132200
O13	O	1.019657	-0.402300	-0.174888
O14	O	1.519657	0.097700	0.325112
O15	O	0.936620	-0.191237	-0.284650
O16	O	1.436620	0.308763	0.215350
O17	O	1.129403	-0.402279	-0.284638
O18	O	1.629403	0.097721	0.215362
O19	O	1.019773	-0.191221	-0.367806
O20	O	1.519773	0.308779	0.132194
O21	O	0.936554	-0.311326	-0.174893
O22	O	1.436554	0.188674	0.325107
O23	O	0.826845	-0.311284	-0.284598
O24	O	1.326845	0.188716	0.215402
O25	O	0.936569	-0.402204	-0.477465
O26	O	1.436569	0.097796	0.022535
O27	O	0.826823	-0.402225	-0.367714
O28	O	1.326823	0.097775	0.132286
O29	O	1.019744	-0.311246	-0.477504
O30	O	1.519744	0.188754	0.022496
O31	O	1.019628	-0.522325	-0.284586
O32	O	1.519628	-0.022325	0.215414
O33	O	0.936503	-0.522293	-0.367707
O34	O	1.436503	-0.022293	0.132293
C35	C	0.802275	-0.356752	-0.326151
C36	C	1.302275	0.143248	0.173849
C37	C	0.727043	-0.356763	-0.326152
C38	C	1.227043	0.143237	0.173848
C39	C	0.978073	-0.549180	-0.326155
C40	C	1.478073	-0.049180	0.173845
C41	C	0.978110	-0.631494	-0.326163
C42	C	1.478110	-0.131494	0.173837
C43	C	0.265258	-0.404211	-0.369442
C44	C	0.765258	0.095789	0.130558
C45	C	0.335947	-0.404210	-0.369427
C46	C	0.835947	0.095790	0.130573
C47	C	0.371281	-0.356787	-0.326214
C48	C	0.871281	0.143213	0.173786
C49	C	0.335924	-0.309367	-0.283007
C50	C	0.835924	0.190633	0.216993
C51	C	0.265237	-0.309373	-0.283019
C52	C	0.765237	0.190627	0.216981
C53	C	0.620997	-0.309345	-0.282960
C54	C	1.120997	0.190655	0.217040
C55	C	0.691689	-0.309341	-0.282953
C56	C	1.191689	0.190659	0.217047
C57	C	0.691707	-0.404182	-0.369368
C58	C	1.191707	0.095818	0.130632
C59	C	0.621020	-0.404187	-0.369380
C60	C	1.121020	0.095813	0.130620
C61	C	0.585669	-0.356771	-0.326171
C62	C	1.085669	0.143229	0.173829
C63	C	0.509020	-0.356774	-0.326186
C64	C	1.009020	0.143226	0.173814
C65	C	0.447929	-0.356780	-0.326202
C66	C	0.947929	0.143220	0.173798
C67	C	0.978197	-0.930585	-0.326225
C68	C	1.478197	-0.430585	0.173775
C69	C	1.030351	-0.899249	-0.273787
C70	C	1.530351	-0.399249	0.226213
C71	C	1.030532	-0.813630	-0.273923
C72	C	1.530532	-0.313630	0.226077
C73	C	0.978154	-0.782202	-0.326194
C74	C	1.478154	-0.282202	0.173806
C75	C	0.997486	-0.813209	-0.397540
C76	C	1.497486	-0.313209	0.102460
C77	C	0.997889	-0.898854	-0.397255
C78	C	1.497889	-0.398854	0.102745
C79	C	0.906572	-0.899093	-0.307934
C80	C	1.406572	-0.399093	0.192066
C81	C	0.906925	-0.813443	-0.306342
C82	C	1.406925	-0.313443	0.193658
C83	C	0.978129	-0.698343	-0.326180
C84	C	1.478129	-0.198343	0.173820
C85	C	0.978224	-1.014444	-0.326243
C86	C	1.478224	-0.514444	0.173757
C87	C	1.154674	-0.356786	-0.326224
C88	C	1.654674	0.143214	0.173776
C89	C	1.229906	-0.356794	-0.326240
C90	C	1.729906	0.143206	0.173760
C91	C	0.978161	-0.356718	-0.502730
C92	C	1.478161	0.143282	-0.002730
C93	C	0.978173	-0.356696	-0.577962
C94	C	1.478173	0.143304	-0.077962
C95	C	0.978208	-0.163607	-0.326235
C96	C	1.478208	0.336393	0.173765
C97	C	0.978240	-0.081293	-0.326256
C98	C	1.478240	0.418707	0.173744
C99	C	0.934914	-0.309321	-0.613309
C100	C	1.434914	0.190679	-0.113309
C101	C	0.934923	-0.309307	-0.683997
C102	C	1.434923	0.190693	-0.183997
C103	C	0.978196	-0.356664	-0.719338
C104	C	1.478196	0.143336	-0.219338
C105	C	1.021457	-0.404043	-0.683987
C106	C	1.521457	0.095957	-0.183987
C107	C	1.021444	-0.404061	-0.613299
C108	C	1.521444	0.095939	-0.113299
C109	C	1.021511	-0.403974	-0.969060
C110	C	1.521511	0.096026	-0.469060
C111	C	1.021522	-0.403951	-1.039752
C112	C	1.521522	0.096049	-0.539752
C113	C	0.934990	-0.309220	-1.039758
C114	C	1.434990	0.190780	-0.539758
C115	C	0.934977	-0.309238	-0.969071
C116	C	1.434977	0.190762	-0.469071
C117	C	0.978236	-0.356620	-0.933725
C118	C	1.478236	0.143380	-0.433725
C119	C	0.978224	-0.356636	-0.857077
C120	C	1.478224	0.143364	-0.357077
C121	C	0.978211	-0.356645	-0.795985
C122	C	1.478211	0.143355	-0.295985
C123	C	0.978141	-0.356767	-0.150331
C124	C	1.478141	0.143233	0.349669
C125	C	0.978259	-0.356580	-0.075100
C126	C	1.478259	0.143420	0.424900
H127	H	0.236494	-0.442825	-0.404635
H128	H	0.736494	0.057175	0.095365
H129	H	0.720457	-0.270721	-0.247762
H130	H	1.220457	0.229279	0.252238
H131	H	0.592223	-0.270738	-0.247774
H132	H	1.092223	0.229262	0.252226
H133	H	0.592254	-0.442801	-0.404571
H134	H	1.092254	0.057199	0.095429
C135	C	0.851603	-0.784551	-0.354159
C136	C	1.351603	-0.284551	0.145841
N137	N	0.809936	-0.762790	-0.390180
N138	N	1.309936	-0.262790	0.109820
H139	H	1.056675	-0.442633	-0.584521
H140	H	1.556675	0.057367	-0.084521
H141	H	1.056687	-0.442606	-0.712767
H142	H	1.556687	0.057394	-0.212767
C143	C	0.948807	-0.926856	-0.451844
C144	C	1.448807	-0.426856	0.048156
N145	N	0.911843	-0.947944	-0.492965
N146	N	1.411843	-0.447944	0.007035
C147	C	0.374795	-0.257196	-0.235477
C148	C	0.874795	0.242804	0.264523
N149	N	0.404071	-0.217895	-0.199680
N150	N	0.904071	0.282105	0.300320
C151	C	0.730600	-0.456349	-0.416893
C152	C	1.230600	0.043651	0.083107
N153	N	0.759893	-0.495640	-0.452687
N154	N	1.259893	0.004360	0.047313
C155	C	1.069134	-0.456054	-0.930190
C156	C	1.569134	0.043946	-0.430190
N157	N	1.105020	-0.495269	-0.900910
N158	N	1.605020	0.004731	-0.400910
C159	C	0.882814	-0.928348	-0.238864
C160	C	1.382814	-0.428348	0.261136
N161	N	0.864928	-0.950383	-0.186838
N162	N	1.364928	-0.450383	0.313162
C163	C	0.887310	-0.257224	-0.574440
C164	C	1.387310	0.242776	-0.074440
N165	N	0.851451	-0.217986	-0.545167
N166	N	1.351451	0.282014	-0.045167
H167	H	0.236454	-0.270759	-0.247841
H168	H	0.736454	0.229241	0.252159
C169	C	0.374831	-0.456375	-0.416951
C170	C	0.874831	0.043625	0.083049
N171	N	0.404119	-0.495670	-0.452746
N172	N	0.904119	0.004330	0.047254
H173	H	1.018437	-0.792669	-0.221021
H174	H	1.518437	-0.292669	0.278979
C175	C	1.068621	-0.925767	-0.418176
C176	C	1.568621	-0.425767	0.081824
N177	N	1.121898	-0.946034	-0.433932
N178	N	1.621898	-0.446034	0.066068
H179	H	1.018403	-0.919892	-0.220726
H180	H	1.518403	-0.419892	0.279274
H181	H	1.083117	-0.920718	-0.285750
H182	H	1.583117	-0.420718	0.214250
H183	H	1.083588	-0.793088	-0.286025
H184	H	1.583588	-0.293088	0.213975
H185	H	0.960661	-0.792850	-0.437662
H186	H	1.460661	-0.292850	0.062338
H187	H	0.892349	-0.793185	-0.253836
H188	H	1.392349	-0.293185	0.246164
H189	H	1.049254	-0.791703	-0.413295
H190	H	1.549254	-0.291703	0.086705
H191	H	0.867713	-0.919358	-0.346127
H192	H	1.367713	-0.419358	0.153873
C193	C	0.887342	-0.257184	-0.722875
C194	C	1.387342	0.242816	-0.222875
N195	N	0.851503	-0.217920	-0.752157
N196	N	1.351503	0.282080	-0.252157
H197	H	0.899743	-0.270672	-0.940300
H198	H	1.399743	0.229328	-0.440300
C199	C	0.887400	-0.257104	-1.078644
C200	C	1.387400	0.242896	-0.578644
N201	N	0.851556	-0.217850	-1.107932
N202	N	1.351556	0.282150	-0.607932
H203	H	1.056762	-0.442518	-1.068525
H204	H	1.556762	0.057482	-0.568525
