data_functionalizedCrystal
_audit_creation_method	'MofGen! by Chris Wilmer'
_symmetry_space_group_name_H-M	'P1'
_symmetry_Int_Tables_number	1
_symmetry_cell_setting	triclinic
loop_
_symmetry_equiv_pos_as_xyz
  x,y,z
_cell_length_a	13.033304
_cell_length_b	13.034248
_cell_length_c	13.032268
_cell_angle_alpha	74.856868
_cell_angle_beta	90.922231
_cell_angle_gamma	90.916431
loop_
_atom_site_label
_atom_site_type_symbol
_atom_site_fract_x
_atom_site_fract_y
_atom_site_fract_z
Zn1	Zn	-1.534010	0.326426	-0.827554
Zn2	Zn	-1.572174	0.477188	-0.676841
Zn3	Zn	-1.383267	0.320883	-0.632944
Zn4	Zn	-1.383188	0.520917	-0.833042
O5	O	-1.468160	0.411354	-0.742595
O6	O	-1.681250	0.330445	-0.823636
O7	O	-1.563119	0.435833	-0.524202
O8	O	-1.387325	0.174809	-0.638091
O9	O	-1.709289	0.441209	-0.712908
O10	O	-1.498076	0.178882	-0.781071
O11	O	-1.424331	0.320996	-0.491951
O12	O	-1.241079	0.363398	-0.643413
O13	O	-1.387190	0.515738	-0.979129
O14	O	-1.241021	0.510362	-0.790424
O15	O	-1.497999	0.372847	-0.975098
O16	O	-1.563042	0.629798	-0.718229
O17	O	-1.424195	0.661925	-0.832989
C18	C	-1.204185	0.441025	-0.712751
C19	C	-1.091255	0.453747	-0.700012
C20	C	-1.027035	0.404728	-0.749232
C21	C	-0.910316	0.417875	-0.736066
C22	C	-0.733166	0.381561	-0.772548
C23	C	-0.846096	0.368849	-0.785293
C24	C	-1.497777	0.683928	-0.780994
C25	C	-1.510536	0.800531	-0.797466
C26	C	-1.438328	0.449788	-1.016246
C27	C	-1.425616	0.466167	-1.132859
C28	C	-1.474675	0.971081	-0.751042
C29	C	-1.461486	0.850567	-0.734022
C30	C	-1.438412	1.137718	-0.704060
C31	C	-1.425632	1.021121	-0.687606
C32	C	-1.474774	0.402769	-1.182854
C33	C	-1.461637	0.419696	-1.303380
C34	C	-1.497925	0.372986	-0.470005
C35	C	-1.510802	0.356290	-0.353373
H36	H	-0.878892	0.469577	-0.684175
C37	C	-1.544591	1.033734	-0.841435
N38	N	-1.597253	1.080922	-0.909523
C39	C	-1.355717	0.958468	-0.597212
N40	N	-1.303053	0.911280	-0.529126
H41	H	-1.562612	0.289471	-1.306950
H42	H	-1.562294	0.846905	-0.864378
H43	H	-1.373796	0.532969	-1.179284
H44	H	-1.059826	0.505445	-0.648125
H45	H	-0.877518	0.317139	-0.837176
C46	C	-1.391567	0.787919	-0.643623
N47	N	-1.338904	0.740731	-0.575537
C48	C	-1.069488	0.334876	-0.819324
N49	N	-1.101462	0.282262	-0.872119
H50	H	-1.526583	0.335958	-1.136427
H51	H	-1.409814	0.486503	-1.349801
