data_functionalizedCrystal
_audit_creation_method	'MofGen! by Chris Wilmer'
_symmetry_space_group_name_H-M	'P1'
_symmetry_Int_Tables_number	1
_symmetry_cell_setting	triclinic
loop_
_symmetry_equiv_pos_as_xyz
  x,y,z
_cell_length_a	14.971482
_cell_length_b	14.519731
_cell_length_c	14.048226
_cell_angle_alpha	89.992586
_cell_angle_beta	89.994098
_cell_angle_gamma	83.650731
loop_
_atom_site_label
_atom_site_type_symbol
_atom_site_fract_x
_atom_site_fract_y
_atom_site_fract_z
O1	O	1.187026	0.120166	-0.079150
O2	O	1.687026	0.620166	0.420850
O3	O	0.926634	0.134562	-0.079155
O4	O	1.426634	0.634562	0.420845
O5	O	1.063724	-0.006877	-0.079144
O6	O	1.563724	0.493123	0.420856
O7	O	1.049936	0.261605	-0.079162
O8	O	1.549936	0.761605	0.420838
O9	O	1.063707	-0.006886	0.079177
O10	O	1.563707	0.493114	0.579177
O11	O	0.926618	0.134553	0.079166
O12	O	1.426618	0.634553	0.579166
O13	O	1.187009	0.120158	0.079171
O14	O	1.687009	0.620158	0.579171
Zn15	Zn	1.056811	0.127354	0.104305
Zn16	Zn	1.556811	0.627354	0.604305
Zn17	Zn	1.056832	0.127365	-0.104290
Zn18	Zn	1.556832	0.627365	0.395710
O19	O	1.049919	0.261597	0.079160
O20	O	1.549919	0.761597	0.579160
C21	C	0.893301	0.133915	0.000005
C22	C	1.393301	0.633915	0.500005
C23	C	0.794002	0.131987	0.000003
C24	C	1.294002	0.631987	0.500003
C25	C	0.747348	0.131075	0.086305
C26	C	1.247348	0.631075	0.586305
C27	C	0.654048	0.129249	0.086306
C28	C	1.154048	0.629249	0.586306
C29	C	0.607404	0.128342	0.000005
C30	C	1.107404	0.628342	0.500005
C31	C	0.654065	0.129252	-0.086304
C32	C	1.154065	0.629252	0.413696
C33	C	0.747364	0.131071	-0.086304
C34	C	1.247364	0.631071	0.413696
C35	C	0.459601	0.125462	-0.086298
C36	C	0.959601	0.625462	0.413702
C37	C	0.366295	0.123645	-0.086298
C38	C	0.866295	0.623645	0.413702
C39	C	0.366285	0.123640	0.086313
C40	C	0.866285	0.623640	0.586313
C41	C	0.459584	0.125460	0.086313
C42	C	0.959584	0.625460	0.586313
C43	C	0.506238	0.126371	0.000004
C44	C	1.006238	0.626371	0.500004
C45	C	1.063069	-0.041241	0.000017
C46	C	1.563069	0.458759	0.500017
C47	C	1.061134	-0.143620	0.000017
C48	C	1.561134	0.356380	0.500017
C49	C	1.059560	-0.226763	0.000015
C50	C	1.559560	0.273237	0.500015
C51	C	1.057595	-0.331070	0.000008
C52	C	1.557595	0.168930	0.500008
C53	C	1.056035	-0.414208	0.000002
C54	C	1.556035	0.085792	0.500002
C55	C	1.054070	-0.518523	-0.000004
C56	C	1.554070	-0.018523	0.499996
C57	C	1.220342	0.120805	0.000009
C58	C	1.720342	0.620805	0.500009
C59	C	1.319641	0.122733	0.000004
C60	C	1.819641	0.622733	0.500004
C61	C	1.050574	0.295960	-0.000003
C62	C	1.550574	0.795960	0.499997
C63	C	1.052510	0.398339	-0.000010
C64	C	1.552510	0.898339	0.499990
N65	N	1.056802	0.127346	0.246666
N66	N	1.556802	0.627346	0.746666
N67	N	1.056848	0.127366	-0.246650
N68	N	1.556848	0.627366	0.253350
C69	C	1.117525	0.064743	0.296489
C70	C	1.617525	0.564743	0.796489
C71	C	1.117531	0.064742	0.396147
C72	C	1.617531	0.564742	0.896147
C73	C	1.056818	0.127350	0.445980
C74	C	1.556818	0.627350	0.945980
C75	C	0.996089	0.189957	0.396150
C76	C	1.496089	0.689957	0.896150
C77	C	0.996079	0.189952	0.296494
C78	C	1.496079	0.689952	0.796494
C79	C	0.996115	0.189963	0.603864
C80	C	1.496115	0.689963	1.103864
C81	C	0.996125	0.189970	0.703527
C82	C	1.496125	0.689970	1.203527
C83	C	1.117566	0.064754	0.703517
C84	C	1.617566	0.564754	1.203517
C85	C	1.117557	0.064749	0.603861
C86	C	1.617557	0.564749	1.103861
C87	C	1.056829	0.127357	0.554038
C88	C	1.556829	0.627357	1.054038
H89	H	1.166968	0.013764	0.255922
H90	H	1.666968	0.513764	0.755922
H91	H	0.616080	0.128507	-0.156573
H92	H	1.116080	0.628507	0.343427
O93	O	1.183077	-0.002771	0.757243
O94	O	1.683077	0.497229	1.257243
H95	H	1.171579	-0.074687	0.738123
H96	H	1.671579	0.425313	1.238123
H97	H	1.166975	0.013765	0.436712
H98	H	1.666975	0.513765	0.936712
H99	H	1.166998	0.013774	0.563287
H100	H	1.666998	0.513774	1.063287
H101	H	0.785348	0.131816	-0.156580
H102	H	1.285348	0.631816	0.343420
O103	O	0.930626	0.257475	0.757281
O104	O	1.430626	0.757475	1.257281
H105	H	0.888382	0.300995	0.705896
H106	H	1.388382	0.800995	1.205896
O107	O	0.930606	0.257472	0.550114
O108	O	1.430606	0.757472	1.050114
H109	H	0.968317	0.302350	0.504678
H110	H	1.468317	0.802350	1.004678
H111	H	0.497559	0.126204	0.156587
H112	H	0.997559	0.626204	0.656587
O113	O	0.797649	0.132058	0.179393
O114	O	1.297649	0.632058	0.679393
H115	H	0.870363	0.133487	0.164898
H116	H	1.370363	0.633487	0.664898
H117	H	0.328295	0.122899	0.156589
H118	H	0.828295	0.622899	0.656589
H119	H	0.946651	0.240930	0.436729
H120	H	1.446651	0.740930	0.936729
O121	O	0.315982	0.122657	-0.179378
O122	O	0.815982	0.622657	0.320622
H123	H	0.326026	0.185808	-0.220779
H124	H	0.826026	0.685808	0.279221
O125	O	0.509926	0.126452	-0.179386
O126	O	1.009926	0.626452	0.320614
H127	H	0.461817	0.125527	-0.239398
H128	H	0.961817	0.625527	0.260602
O129	O	0.930588	0.257467	0.242740
O130	O	1.430588	0.757467	0.742740
H131	H	0.942100	0.329386	0.261833
H132	H	1.442100	0.829386	0.761833
O133	O	0.603724	0.128275	0.179388
O134	O	1.103724	0.628275	0.679388
H135	H	0.651831	0.129226	0.239399
H136	H	1.151831	0.629226	0.739399
