data_functionalizedCrystal
_audit_creation_method	'MofGen! by Chris Wilmer'
_symmetry_space_group_name_H-M	'P1'
_symmetry_Int_Tables_number	1
_symmetry_cell_setting	triclinic
loop_
_symmetry_equiv_pos_as_xyz
  x,y,z
_cell_length_a	16.120490
_cell_length_b	21.295417
_cell_length_c	16.120297
_cell_angle_alpha	92.868089
_cell_angle_beta	90.129683
_cell_angle_gamma	87.121864
loop_
_atom_site_label
_atom_site_type_symbol
_atom_site_fract_x
_atom_site_fract_y
_atom_site_fract_z
Zn1	Zn	1.247403	-0.318967	-0.534501
Zn2	Zn	1.497403	-0.068967	-0.284501
Zn3	Zn	1.747403	0.181033	-0.034501
Zn4	Zn	1.997403	0.431033	0.215499
Zn5	Zn	1.254340	-0.419177	-0.395433
Zn6	Zn	1.504340	-0.169177	-0.145433
Zn7	Zn	1.754340	0.080823	0.104567
Zn8	Zn	2.004340	0.330823	0.354567
Zn9	Zn	1.115394	-0.308324	-0.388424
Zn10	Zn	1.365394	-0.058324	-0.138424
Zn11	Zn	1.615394	0.191676	0.111576
Zn12	Zn	1.865394	0.441676	0.361576
Zn13	Zn	1.108296	-0.418591	-0.527406
Zn14	Zn	1.358296	-0.168591	-0.277406
Zn15	Zn	1.608296	0.081409	-0.027406
Zn16	Zn	1.858296	0.331409	0.222594
O17	O	1.181358	-0.366265	-0.461441
O18	O	1.431358	-0.116265	-0.211441
O19	O	1.681358	0.133735	0.038559
O20	O	1.931358	0.383735	0.288559
O21	O	1.364689	-0.336959	-0.521956
O22	O	1.614689	-0.086959	-0.271956
O23	O	1.864689	0.163041	-0.021956
O24	O	2.114689	0.413041	0.228044
O25	O	1.241782	-0.400263	-0.278138
O26	O	1.491782	-0.150263	-0.028138
O27	O	1.741782	0.099737	0.221862
O28	O	1.991782	0.349737	0.471862
O29	O	1.132973	-0.221651	-0.407837
O30	O	1.382973	0.028349	-0.157837
O31	O	1.632973	0.278349	0.092163
O32	O	1.882973	0.528349	0.342163
O33	O	1.369786	-0.410583	-0.419784
O34	O	1.619786	-0.160583	-0.169784
O35	O	1.869786	0.089417	0.080216
O36	O	2.119786	0.339417	0.330216
O37	O	1.229959	-0.229470	-0.515160
O38	O	1.479959	0.020530	-0.265160
O39	O	1.729959	0.270530	-0.015160
O40	O	1.979959	0.520530	0.234840
O41	O	1.139699	-0.318820	-0.272988
O42	O	1.389699	-0.068820	-0.022988
O43	O	1.639699	0.181180	0.227012
O44	O	1.889699	0.431180	0.477012
O45	O	0.998086	-0.318252	-0.400957
O46	O	1.248086	-0.068252	-0.150957
O47	O	1.498086	0.181748	0.099043
O48	O	1.748086	0.431748	0.349043
O49	O	1.120875	-0.409585	-0.644712
O50	O	1.370875	-0.159585	-0.394712
O51	O	1.620875	0.090415	-0.144712
O52	O	1.870875	0.340415	0.105288
O53	O	0.992871	-0.399265	-0.503067
O54	O	1.242871	-0.149265	-0.253067
O55	O	1.492871	0.100735	-0.003067
O56	O	1.742871	0.350735	0.246933
O57	O	1.223076	-0.336391	-0.649925
O58	O	1.473076	-0.086391	-0.399925
O59	O	1.723076	0.163609	-0.149925
O60	O	1.973076	0.413609	0.100075
O61	O	1.234899	-0.507185	-0.412904
O62	O	1.484899	-0.257185	-0.162904
O63	O	1.734899	-0.007185	0.087096
O64	O	1.984899	0.242815	0.337096
O65	O	1.127601	-0.506754	-0.509863
O66	O	1.377601	-0.256754	-0.259863
O67	O	1.627601	-0.006754	-0.009863
O68	O	1.877601	0.243246	0.240137
C69	C	0.965306	-0.357541	-0.450482
C70	C	1.215306	-0.107541	-0.200482
C71	C	1.465306	0.142459	0.049518
C72	C	1.715306	0.392459	0.299518
C73	C	0.872877	-0.353824	-0.445813
C74	C	1.122877	-0.103824	-0.195813
C75	C	1.372877	0.146176	0.054187
C76	C	1.622877	0.396176	0.304187
C77	C	0.659911	-0.385537	-0.485659
C78	C	0.909911	-0.135537	-0.235659
C79	C	1.159911	0.114463	0.014341
C80	C	1.409911	0.364463	0.264341
C81	C	0.703653	-0.347045	-0.437288
C82	C	0.953653	-0.097045	-0.187288
C83	C	1.203653	0.152955	0.062712
C84	C	1.453653	0.402955	0.312712
C85	C	0.797818	-0.350818	-0.442033
C86	C	1.047818	-0.100818	-0.192033
C87	C	1.297818	0.149182	0.057967
C88	C	1.547818	0.399182	0.307967
C89	C	0.565737	-0.381765	-0.480916
C90	C	0.815737	-0.131765	-0.230916
C91	C	1.065737	0.118235	0.019084
C92	C	1.315737	0.368235	0.269084
C93	C	1.181254	-0.529811	-0.461393
C94	C	1.431254	-0.279811	-0.211393
C95	C	1.681254	-0.029811	0.038607
C96	C	1.931254	0.220189	0.288607
C97	C	1.181284	-0.599780	-0.461405
C98	C	1.431284	-0.349780	-0.211405
C99	C	1.681284	-0.099780	0.038595
C100	C	1.931284	0.150220	0.288595
C101	C	1.231753	-0.636661	-0.517324
C102	C	1.481753	-0.386661	-0.267324
C103	C	1.731753	-0.136661	-0.017324
C104	C	1.981753	0.113339	0.232676
C105	C	1.231781	-0.702406	-0.517346
C106	C	1.481781	-0.452406	-0.267346
C107	C	1.731781	-0.202406	-0.017346
C108	C	1.981781	0.047594	0.232654
C109	C	1.181351	-0.731267	-0.461434
C110	C	1.431351	-0.481267	-0.211434
C111	C	1.681351	-0.231267	0.038566
C112	C	1.931351	0.018733	0.288566
C113	C	1.130872	-0.694377	-0.405511
C114	C	1.380872	-0.444377	-0.155511
C115	C	1.630872	-0.194377	0.094489
C116	C	1.880872	0.055623	0.344489
C117	C	1.130839	-0.628634	-0.405496
C118	C	1.380839	-0.378634	-0.155496
C119	C	1.630839	-0.128634	0.094504
C120	C	1.880839	0.121366	0.344504
N121	N	1.178760	-0.831630	-0.388343
N122	N	1.428760	-0.581630	-0.138343
N123	N	1.678760	-0.331630	0.111657
N124	N	1.928760	-0.081630	0.361657
N125	N	1.178796	-0.894083	-0.388359
N126	N	1.428796	-0.644083	-0.138359
N127	N	1.678796	-0.394083	0.111641
N128	N	1.928796	-0.144083	0.361641
C129	C	1.181446	-0.929346	-0.461477
C130	C	1.431446	-0.679346	-0.211477
C131	C	1.681446	-0.429346	0.038523
C132	C	1.931446	-0.179346	0.288523
N133	N	1.184074	-0.899798	-0.534579
N134	N	1.434074	-0.649798	-0.284579
N135	N	1.684074	-0.399798	-0.034579
N136	N	1.934074	-0.149798	0.215421
N137	N	1.184042	-0.837339	-0.534562
N138	N	1.434042	-0.587339	-0.284562
N139	N	1.684042	-0.337339	-0.034562
N140	N	1.934042	-0.087339	0.215438
C141	C	1.181380	-0.802553	-0.461445
C142	C	1.431380	-0.552553	-0.211445
C143	C	1.681380	-0.302553	0.038555
C144	C	1.931380	-0.052553	0.288555
C145	C	1.231947	-1.037515	-0.517425
C146	C	1.481947	-0.787515	-0.267425
C147	C	1.731947	-0.537515	-0.017425
C148	C	1.981947	-0.287515	0.232575
C149	C	1.231970	-1.103261	-0.517448
C150	C	1.481970	-0.853261	-0.267448
C151	C	1.731970	-0.603261	-0.017448
C152	C	1.981970	-0.353261	0.232552
C153	C	1.131065	-1.095231	-0.405605
C154	C	1.381065	-0.845231	-0.155605
C155	C	1.631065	-0.595231	0.094395
C156	C	1.881065	-0.345231	0.344395
C157	C	1.131038	-1.029487	-0.405589
C158	C	1.381038	-0.779487	-0.155589
C159	C	1.631038	-0.529487	0.094411
C160	C	1.881038	-0.279487	0.344411
C161	C	1.181484	-1.000633	-0.461498
C162	C	1.431484	-0.750633	-0.211498
C163	C	1.681484	-0.500633	0.038502
C164	C	1.931484	-0.250633	0.288502
C165	C	1.398254	-0.375023	-0.472443
C166	C	1.648254	-0.125023	-0.222443
C167	C	1.898254	0.124977	0.027557
C168	C	2.148254	0.374977	0.277557
C169	C	1.490682	-0.378756	-0.477132
C170	C	1.740682	-0.128756	-0.227132
C171	C	1.990682	0.121244	0.022868
C172	C	2.240682	0.371244	0.272868
C173	C	1.170410	-0.374110	-0.678335
C174	C	1.420410	-0.124110	-0.428335
C175	C	1.670410	0.125890	-0.178335
C176	C	1.920410	0.375890	0.071665
C177	C	1.165744	-0.377453	-0.770762
C178	C	1.415744	-0.127453	-0.520762
C179	C	1.665744	0.122547	-0.270762
C180	C	1.915744	0.372547	-0.020762
C181	C	1.181484	-0.202082	-0.461508
C182	C	1.431484	0.047918	-0.211508
C183	C	1.681484	0.297918	0.038492
C184	C	1.931484	0.547918	0.288492
C185	C	1.181538	-0.132117	-0.461536
C186	C	1.431538	0.117883	-0.211536
C187	C	1.681538	0.367883	0.038464
C188	C	1.931538	0.617883	0.288464
C189	C	1.157196	-0.383541	-0.939986
C190	C	1.407196	-0.133541	-0.689986
C191	C	1.657196	0.116459	-0.439986
C192	C	1.907196	0.366459	-0.189986
C193	C	1.205684	-0.348807	-0.983756
C194	C	1.455684	-0.098807	-0.733756
C195	C	1.705684	0.151193	-0.483756
C196	C	1.955684	0.401193	-0.233756
C197	C	1.200928	-0.352194	-1.077918
C198	C	1.450928	-0.102194	-0.827918
C199	C	1.700928	0.147806	-0.577918
C200	C	1.950928	0.397806	-0.327918
C201	C	1.161951	-0.380154	-0.845815
C202	C	1.411951	-0.130154	-0.595815
C203	C	1.661951	0.119846	-0.345815
C204	C	1.911951	0.369846	-0.095815
C205	C	1.192312	-0.358407	-0.245394
C206	C	1.442312	-0.108407	0.004606
C207	C	1.692312	0.141593	0.254606
C208	C	1.942312	0.391593	0.504606
C209	C	1.197138	-0.354893	-0.152975
C210	C	1.447138	-0.104893	0.097025
C211	C	1.697138	0.145107	0.347025
C212	C	1.947138	0.395107	0.597025
H213	H	0.670382	-0.311257	-0.392313
H214	H	0.920382	-0.061257	-0.142313
H215	H	1.170382	0.188743	0.107687
H216	H	1.420382	0.438743	0.357687
Cl217	Cl	0.711276	-0.440795	-0.555084
Cl218	Cl	0.961276	-0.190795	-0.305084
Cl219	Cl	1.211276	0.059205	-0.055084
Cl220	Cl	1.461276	0.309205	0.194916
H221	H	1.272826	-0.613171	-0.562850
H222	H	1.522826	-0.363171	-0.312850
H223	H	1.772826	-0.113171	-0.062850
H224	H	2.022826	0.136829	0.187150
Cl225	Cl	1.295238	-0.748780	-0.587645
Cl226	Cl	1.545238	-0.498780	-0.337645
Cl227	Cl	1.795238	-0.248780	-0.087645
Cl228	Cl	2.045238	0.001220	0.162355
H229	H	1.250768	-0.316525	-0.950511
H230	H	1.500768	-0.066525	-0.700511
H231	H	1.750768	0.183475	-0.450511
H232	H	2.000768	0.433475	-0.200511
Cl233	Cl	1.067387	-0.582267	-0.335192
Cl234	Cl	1.317387	-0.332267	-0.085192
Cl235	Cl	1.567387	-0.082267	0.164808
Cl236	Cl	1.817387	0.167733	0.414808
Cl237	Cl	1.067468	-0.730658	-0.335226
Cl238	Cl	1.317468	-0.480658	-0.085226
Cl239	Cl	1.567468	-0.230658	0.164774
Cl240	Cl	1.817468	0.019342	0.414774
Cl241	Cl	1.295359	-1.001239	-0.587712
Cl242	Cl	1.545359	-0.751239	-0.337712
Cl243	Cl	1.795359	-0.501239	-0.087712
Cl244	Cl	2.045359	-0.251239	0.162288
H245	H	1.089998	-1.118728	-0.360086
H246	H	1.339998	-0.868728	-0.110086
H247	H	1.589998	-0.618728	0.139914
H248	H	1.839998	-0.368728	0.389914
Cl249	Cl	1.087596	-0.433381	-0.991311
Cl250	Cl	1.337596	-0.183381	-0.741311
Cl251	Cl	1.587596	0.066619	-0.491311
Cl252	Cl	1.837596	0.316619	-0.241311
H253	H	1.273067	-1.133289	-0.562988
H254	H	1.523067	-0.883289	-0.312988
H255	H	1.773067	-0.633289	-0.062988
H256	H	2.023067	-0.383289	0.187012
H257	H	1.089946	-0.999456	-0.360051
H258	H	1.339946	-0.749456	-0.110051
H259	H	1.589946	-0.499456	0.139949
H260	H	1.839946	-0.249456	0.389949
