data_functionalizedCrystal
_audit_creation_method	'MofGen! by Chris Wilmer'
_symmetry_space_group_name_H-M	'P1'
_symmetry_Int_Tables_number	1
_symmetry_cell_setting	triclinic
loop_
_symmetry_equiv_pos_as_xyz
  x,y,z
_cell_length_a	17.640112
_cell_length_b	19.121063
_cell_length_c	17.640968
_cell_angle_alpha	98.351500
_cell_angle_beta	87.860920
_cell_angle_gamma	103.148881
loop_
_atom_site_label
_atom_site_type_symbol
_atom_site_fract_x
_atom_site_fract_y
_atom_site_fract_z
Zn1	Zn	1.247036	-0.020114	0.196194
Zn2	Zn	1.747036	0.479886	0.696194
Zn3	Zn	1.215936	-0.164540	0.077209
Zn4	Zn	1.715936	0.335460	0.577209
Zn5	Zn	1.092687	-0.065650	0.097361
Zn6	Zn	1.592687	0.434350	0.597361
Zn7	Zn	1.115017	-0.155325	0.229281
Zn8	Zn	1.615017	0.344675	0.729281
O9	O	1.167669	-0.101407	0.150011
O10	O	1.667669	0.398593	0.650011
O11	O	1.349741	-0.024071	0.158129
O12	O	1.849741	0.475929	0.658129
O13	O	1.177226	-0.174335	-0.025122
O14	O	1.677226	0.325665	0.474878
O15	O	1.116833	0.038363	0.105059
O16	O	1.616833	0.538363	0.605059
O17	O	1.326892	-0.130180	0.070712
O18	O	1.826892	0.369820	0.570712
O19	O	1.230232	0.071818	0.177670
O20	O	1.730232	0.571818	0.677670
O21	O	1.086676	-0.101681	-0.010316
O22	O	1.586676	0.398319	0.489684
O23	O	0.988819	-0.092746	0.137142
O24	O	1.488819	0.407254	0.637142
O25	O	1.154890	-0.114475	0.329896
O26	O	1.654890	0.385525	0.829896
O27	O	1.005224	-0.158630	0.234062
O28	O	1.505224	0.341370	0.734062
O29	O	1.251884	-0.015136	0.305587
O30	O	1.751884	0.484864	0.805587
O31	O	1.198878	-0.261289	0.102795
O32	O	1.698878	0.238711	0.602795
O33	O	1.124733	-0.254519	0.214521
O34	O	1.624733	0.245481	0.714521
C35	C	0.969322	-0.129630	0.191380
C36	C	1.469322	0.370370	0.691380
C37	C	0.884471	-0.141717	0.209096
C38	C	1.384471	0.358283	0.709096
C39	C	0.562686	-0.009571	0.015428
C40	C	1.062686	0.490429	0.515428
C41	C	0.482957	-0.020940	0.032086
C42	C	0.982957	0.479060	0.532086
C43	C	0.500055	-0.089704	0.132851
C44	C	1.000055	0.410296	0.632851
C45	C	0.579787	-0.078338	0.116204
C46	C	1.079787	0.421662	0.616204
C47	C	0.611096	-0.038271	0.057491
C48	C	1.111096	0.461729	0.557491
C49	C	0.628197	-0.107038	0.158266
C50	C	1.128197	0.392962	0.658266
C51	C	0.707921	-0.095675	0.141618
C52	C	1.207921	0.404325	0.641618
C53	C	0.739236	-0.055612	0.082906
C54	C	1.239236	0.444388	0.582906
C55	C	0.690820	-0.026908	0.040842
C56	C	1.190820	0.473092	0.540842
C57	C	0.596886	-0.147109	0.216975
C58	C	1.096886	0.352891	0.716975
C59	C	0.645295	-0.175809	0.259038
C60	C	1.145295	0.324191	0.759038
C61	C	0.725022	-0.164442	0.242393
C62	C	1.225022	0.335558	0.742393
C63	C	0.756337	-0.124379	0.183682
C64	C	1.256337	0.375621	0.683682
C65	C	0.773438	-0.193146	0.284457
C66	C	1.273438	0.306854	0.784457
C67	C	0.853163	-0.181784	0.267809
C68	C	1.353163	0.318216	0.767809
C69	C	0.836061	-0.113017	0.167033
C70	C	1.336061	0.386983	0.667033
C71	C	1.160878	-0.283301	0.160074
C72	C	1.660878	0.216699	0.660074
C73	C	1.158048	-0.361101	0.164389
C74	C	1.658048	0.138899	0.664389
C75	C	1.195368	-0.401138	0.108278
C76	C	1.695368	0.098862	0.608278
C77	C	1.192712	-0.474238	0.112340
C78	C	1.692712	0.025762	0.612340
C79	C	1.152731	-0.507299	0.172510
C80	C	1.652731	-0.007299	0.672510
C81	C	1.115410	-0.467255	0.228626
C82	C	1.615410	0.032745	0.728626
C83	C	1.118071	-0.394156	0.224567
C84	C	1.618071	0.105844	0.724567
C85	C	1.142766	-0.727835	0.187679
C86	C	1.642766	-0.227835	0.687679
C87	C	1.140106	-0.800941	0.191733
C88	C	1.640106	-0.300941	0.691733
C89	C	1.217410	-0.807918	0.075447
C90	C	1.717410	-0.307918	0.575447
C91	C	1.220063	-0.734818	0.071390
C92	C	1.720063	-0.234818	0.571390
C93	C	1.182746	-0.694779	0.127508
C94	C	1.682746	-0.194779	0.627508
C95	C	1.150013	-0.582019	0.176662
C96	C	1.650013	-0.082019	0.676662
C97	C	1.185469	-0.620060	0.123359
C98	C	1.685469	-0.120060	0.623359
C99	C	1.366791	-0.073074	0.108482
C100	C	1.866791	0.426926	0.608482
C101	C	1.451644	-0.061001	0.090784
C102	C	1.951644	0.438999	0.590784
C103	C	1.209347	-0.058698	0.345729
C104	C	1.709347	0.441302	0.845729
C105	C	1.227107	-0.040499	0.429132
C106	C	1.727107	0.459501	0.929132
C107	C	1.174511	0.081204	0.139922
C108	C	1.674511	0.581204	0.639922
C109	C	1.177426	0.159022	0.135622
C110	C	1.677426	0.659022	0.635622
C111	C	1.126199	-0.143893	-0.044957
C112	C	1.626199	0.356107	0.455043
C113	C	1.108594	-0.161874	-0.128402
C114	C	1.608594	0.338126	0.371598
C115	C	1.033051	-0.239247	0.766711
C116	C	1.533051	0.260753	1.266711
C117	C	1.049756	-0.222134	0.845077
C118	C	1.549756	0.277866	1.345077
C119	C	1.150747	-0.118701	0.819756
C120	C	1.650747	0.381299	1.319756
C121	C	1.134048	-0.135803	0.741387
C122	C	1.634048	0.364197	1.241387
C123	C	1.075199	-0.196077	0.714871
C124	C	1.575199	0.303923	1.214871
C125	C	1.176197	-0.092633	0.689546
C126	C	1.676197	0.407367	1.189546
C127	C	1.159501	-0.109736	0.611183
C128	C	1.659501	0.390264	1.111183
C129	C	1.100657	-0.170009	0.584660
C130	C	1.600657	0.329991	1.084660
C131	C	1.058504	-0.213180	0.636508
C132	C	1.558504	0.286820	1.136508
C133	C	1.235048	-0.032362	0.716063
C134	C	1.735048	0.467638	1.216063
C135	C	1.277197	0.010807	0.664223
C136	C	1.777197	0.510807	1.164223
C137	C	1.260498	-0.006292	0.585859
C138	C	1.760498	0.493708	1.085859
C139	C	1.201654	-0.066565	0.559336
C140	C	1.701654	0.433435	1.059336
C141	C	1.302651	0.036879	0.534012
C142	C	1.802651	0.536879	1.034012
C143	C	1.285956	0.019776	0.455648
C144	C	1.785956	0.519776	0.955648
C145	C	1.184959	-0.083668	0.480973
C146	C	1.684959	0.416332	0.980973
H147	H	0.861557	-0.080377	0.119234
H148	H	1.361557	0.419623	0.619234
H149	H	0.443545	0.002440	-0.002166
H150	H	0.943545	0.502440	0.497834
H151	H	1.320276	0.054930	0.413438
H152	H	1.820276	0.554930	0.913438
H153	H	1.227921	-0.374226	0.059278
H154	H	1.727921	0.125774	0.559278
Cl155	Cl	0.605926	-0.226187	0.332837
Cl156	Cl	1.105926	0.273813	0.832837
H157	H	1.112379	-0.695242	0.233372
H158	H	1.612379	-0.195242	0.733372
Cl159	Cl	1.376637	0.112642	0.567355
Cl160	Cl	1.876637	0.612642	1.067355
H161	H	1.252619	-0.707901	0.022394
H162	H	1.752619	-0.207901	0.522394
Cl163	Cl	0.839461	-0.041331	0.061971
Cl164	Cl	1.339461	0.458669	0.561971
Cl165	Cl	1.224727	-0.042932	0.853099
Cl166	Cl	1.724727	0.457068	1.353099
Cl167	Cl	1.079670	-0.191515	0.486145
Cl168	Cl	1.579670	0.308485	0.986145
Cl169	Cl	0.914024	-0.217866	0.320686
Cl170	Cl	1.414024	0.282134	0.820686
H171	H	1.247793	-0.840524	0.029759
H172	H	1.747793	-0.340524	0.529759
H173	H	1.107560	-0.827852	0.240742
H174	H	1.607560	-0.327852	0.740742
H175	H	0.474551	-0.122329	0.180653
H176	H	0.974551	0.377671	0.680653
H177	H	1.223101	-0.506834	0.066648
H178	H	1.723101	-0.006834	0.566648
Cl179	Cl	0.734065	-0.243530	0.358251
Cl180	Cl	1.234065	0.256470	0.858251
H181	H	0.716316	0.005731	-0.006957
H182	H	1.216316	0.505731	0.493043
Cl183	Cl	0.602053	0.040806	-0.058379
Cl184	Cl	1.102053	0.540806	0.441621
Cl185	Cl	1.065153	-0.508817	0.304273
Cl186	Cl	1.565153	-0.008817	0.804273
Cl187	Cl	1.071155	-0.343821	0.295111
Cl188	Cl	1.571155	0.156179	0.795111
H189	H	1.010566	-0.262247	0.614920
H190	H	1.510566	0.237753	1.114920
H191	H	0.531968	-0.156359	0.230528
H192	H	1.031968	0.343641	0.730528
H193	H	1.218025	-0.593138	0.074370
H194	H	1.718025	-0.093138	0.574370
Cl195	Cl	1.351177	0.086576	0.697565
Cl196	Cl	1.851177	0.586576	1.197565
H197	H	1.117458	-0.608946	0.225652
H198	H	1.617458	-0.108946	0.725652
Cl199	Cl	1.110970	-0.159438	0.447634
Cl200	Cl	1.610970	0.340562	0.947634
H201	H	0.985113	-0.288314	0.745124
H202	H	1.485113	0.211686	1.245124
Cl203	Cl	0.996760	-0.276410	0.910248
Cl204	Cl	1.496760	0.223590	1.410248
H205	H	1.248641	-0.018440	0.779872
H206	H	1.748641	0.481560	1.279872
