data_functionalizedCrystal
_audit_creation_method	'MofGen! by Chris Wilmer'
_symmetry_space_group_name_H-M	'P1'
_symmetry_Int_Tables_number	1
_symmetry_cell_setting	triclinic
loop_
_symmetry_equiv_pos_as_xyz
  x,y,z
_cell_length_a	12.811415
_cell_length_b	12.837943
_cell_length_c	8.140239
_cell_angle_alpha	89.998362
_cell_angle_beta	84.565620
_cell_angle_gamma	89.411917
loop_
_atom_site_label
_atom_site_type_symbol
_atom_site_fract_x
_atom_site_fract_y
_atom_site_fract_z
O1	O	0.272975	1.376629	-0.177246
O2	O	0.259491	1.074765	-0.175247
O3	O	0.114200	1.233291	-0.153589
O4	O	0.418266	1.218103	-0.198904
O5	O	0.114198	1.233283	0.119638
O6	O	0.259488	1.074756	0.097981
O7	O	0.272973	1.376620	0.095982
Zn8	Zn	0.266230	1.225687	0.140362
Zn9	Zn	0.266234	1.225698	-0.219627
O10	O	0.418263	1.218094	0.074324
C11	C	0.254934	1.036121	-0.037956
C12	C	0.241348	0.920985	-0.035936
C13	C	0.404678	0.680731	-0.060253
C14	C	0.391918	0.572550	-0.058354
C15	C	0.203068	0.596440	-0.030228
C16	C	0.215828	0.704621	-0.032126
C17	C	0.316636	0.746762	-0.047142
C18	C	0.329396	0.854945	-0.049052
C19	C	0.140547	0.878833	-0.020914
C20	C	0.127786	0.770652	-0.019015
C21	C	0.075010	1.232436	-0.011139
C22	C	-0.041763	1.229887	0.006253
C23	C	-0.261180	1.225088	-0.258973
C24	C	-0.370898	1.222694	-0.242639
C25	C	-0.370921	1.222695	0.055251
C26	C	-0.261202	1.225090	0.038918
C27	C	-0.206336	1.226288	-0.118199
C28	C	-0.096615	1.228690	-0.134531
C29	C	-0.096640	1.228684	0.163358
C30	C	-0.206358	1.226289	0.179691
C31	C	0.457454	1.218950	-0.068130
C32	C	0.574227	1.221498	-0.085533
C33	C	0.277529	1.415265	-0.041313
C34	C	0.291116	1.530400	-0.043344
N35	N	0.266228	1.225687	0.386045
N36	N	0.266228	1.225707	-0.465309
H37	H	0.486760	0.715043	-0.072481
H38	H	-0.051974	1.229665	0.277987
H39	H	0.120994	0.562109	-0.017867
H40	H	-0.251046	1.225310	0.307612
Br41	Br	-0.009018	0.713451	0.001372
Br42	Br	0.466205	0.912137	-0.069440
H43	H	0.068857	0.932608	-0.010249
Br44	Br	0.511408	0.482938	-0.076137
H45	H	-0.415612	1.221711	0.183168
Br46	Br	-0.022154	1.230323	-0.347757
Br47	Br	-0.186713	1.226735	-0.472195
H48	H	-0.415548	1.221713	-0.357272
