data_functionalizedCrystal
_audit_creation_method	'MofGen! by Chris Wilmer'
_symmetry_space_group_name_H-M	'P1'
_symmetry_Int_Tables_number	1
_symmetry_cell_setting	triclinic
loop_
_symmetry_equiv_pos_as_xyz
  x,y,z
_cell_length_a	12.759401
_cell_length_b	12.759400
_cell_length_c	12.759393
_cell_angle_alpha	89.968436
_cell_angle_beta	89.981504
_cell_angle_gamma	90.014845
loop_
_atom_site_label
_atom_site_type_symbol
_atom_site_fract_x
_atom_site_fract_y
_atom_site_fract_z
Zn1	Zn	1.606255	-0.418200	-0.593981
Zn2	Zn	1.606150	-0.593919	-0.418301
Zn3	Zn	1.430557	-0.418255	-0.418321
Zn4	Zn	1.430546	-0.593838	-0.593943
O5	O	1.518377	-0.506053	-0.506137
O6	O	1.753262	-0.441520	-0.570685
O7	O	1.582818	-0.570673	-0.271283
O8	O	1.453913	-0.271226	-0.441647
O9	O	1.753185	-0.570620	-0.441614
O10	O	1.582998	-0.271186	-0.570704
O11	O	1.453811	-0.441614	-0.271297
O12	O	1.283535	-0.441535	-0.441609
O13	O	1.453894	-0.570482	-0.740969
O14	O	1.283527	-0.570536	-0.570638
O15	O	1.582987	-0.441442	-0.740997
O16	O	1.582807	-0.740929	-0.441577
O17	O	1.453791	-0.740870	-0.570620
C18	C	1.245410	-0.506033	-0.506122
C19	C	1.128633	-0.506050	-0.506141
C20	C	1.073794	-0.573328	-0.573215
C21	C	0.964070	-0.573342	-0.573227
C22	C	0.964034	-0.438796	-0.439081
C23	C	1.073756	-0.438778	-0.439075
C24	C	1.073815	-0.651010	-0.650660
C25	C	0.964091	-0.651024	-0.650672
C26	C	1.518315	-0.779020	-0.506115
C27	C	1.518384	-0.895797	-0.506140
C28	C	1.585637	-0.950655	-0.439022
C29	C	1.585702	-1.060379	-0.439054
C30	C	1.451252	-1.060377	-0.573327
C31	C	1.451193	-0.950655	-0.573299
C32	C	1.663258	-0.950657	-0.361498
C33	C	1.663322	-1.060381	-0.361530
C34	C	1.792410	-0.506073	-0.506152
C35	C	1.909187	-0.506082	-0.506158
C36	C	1.518451	-0.505947	-0.780170
C37	C	1.518482	-0.505902	-0.896947
C38	C	1.518468	-0.232019	-0.506182
C39	C	1.518507	-0.115243	-0.506201
C40	C	1.585710	-0.438704	-0.951825
C41	C	1.585735	-0.438666	-1.061549
C42	C	1.451301	-0.573033	-1.061507
C43	C	1.451272	-0.573064	-0.951785
C44	C	1.663328	-0.361131	-0.951851
C45	C	1.663353	-0.361093	-1.061575
C46	C	1.518364	-0.506083	-0.233169
C47	C	1.518537	-0.505832	-0.116393
H48	H	0.934295	-0.732373	-0.628740
H49	H	1.641585	-1.090243	-0.280150
H50	H	1.396548	-1.105056	-0.628005
C51	C	1.839718	-0.995631	-0.408935
C52	C	1.773061	-0.910339	-0.391004
H53	H	1.907501	-0.970738	-0.427156
H54	H	1.844196	-1.037030	-0.347209
H55	H	1.812667	-1.036960	-0.464614
H56	H	1.800108	-0.869014	-0.335319
H57	H	1.768586	-0.868923	-0.452737
C58	C	1.391418	-0.782461	-0.632889
C59	C	1.377279	-0.890352	-0.647088
H60	H	1.345789	-0.745235	-0.678452
H61	H	1.376056	-0.764552	-0.562292
H62	H	1.461997	-0.764423	-0.648312
H63	H	1.306701	-0.908391	-0.631658
H64	H	1.392633	-0.908269	-0.717701
C65	C	1.318372	-0.705853	-0.962769
C66	C	1.377356	-0.646913	-0.891461
H67	H	1.272740	-0.751446	-0.925525
H68	H	1.278230	-0.660053	-1.005577
H69	H	1.364148	-0.746045	-1.005553
H70	H	1.331580	-0.606715	-0.848682
H71	H	1.417502	-0.692718	-0.848635
H72	H	1.118401	-0.383987	-0.384464
C73	C	1.598198	-0.986624	-0.188582
C74	C	1.623953	-0.904818	-0.257110
H75	H	1.573939	-0.958322	-0.124137
H76	H	1.544706	-1.028534	-0.218953
H77	H	1.658490	-1.028487	-0.176170
H78	H	1.563659	-0.862960	-0.269529
H79	H	1.677450	-0.862891	-0.226733
C80	C	1.616122	-0.184654	-0.997046
C81	C	1.633930	-0.251301	-0.911670
H82	H	1.597966	-0.116855	-0.972238
H83	H	1.677875	-0.180221	-1.038402
H84	H	1.560434	-0.211682	-1.038390
H85	H	1.689623	-0.224277	-0.870331
H86	H	1.572169	-0.255730	-0.870297
C87	C	1.391656	-0.632648	-1.229686
C88	C	1.377435	-0.646864	-1.121789
H89	H	1.346058	-0.678237	-1.266897
H90	H	1.376305	-0.562060	-1.247677
H91	H	1.462250	-0.648024	-1.247657
H92	H	1.306843	-0.631480	-1.103816
H93	H	1.392779	-0.717469	-1.103790
H94	H	1.740599	-0.390300	-0.917815
C95	C	0.795820	-0.379090	-0.379517
C96	C	0.903708	-0.364866	-0.365352
H97	H	0.758582	-0.333453	-0.333990
H98	H	0.777871	-0.363791	-0.450125
H99	H	0.777838	-0.449670	-0.364024
H100	H	0.921692	-0.294288	-0.380852
H101	H	0.921664	-0.380158	-0.294728
C102	C	1.839783	-0.408419	-1.016427
C103	C	1.773191	-0.390525	-1.101785
H104	H	1.907586	-0.426595	-1.041254
H105	H	1.844226	-0.346694	-0.975089
H106	H	1.812704	-0.464119	-0.975060
H107	H	1.800266	-0.334819	-1.143148
H108	H	1.768751	-0.452257	-1.143141
H109	H	1.740626	-1.094325	-0.390742
H110	H	0.930093	-0.621980	-0.728024
H111	H	1.103623	-0.629311	-0.732067
H112	H	1.107829	-0.728262	-0.621376
H113	H	1.634239	-0.283784	-1.095623
