data_functionalizedCrystal
_audit_creation_method	'MofGen! by Chris Wilmer'
_symmetry_space_group_name_H-M	'P1'
_symmetry_Int_Tables_number	1
_symmetry_cell_setting	triclinic
loop_
_symmetry_equiv_pos_as_xyz
  x,y,z
_cell_length_a	16.959455
_cell_length_b	18.101397
_cell_length_c	16.959447
_cell_angle_alpha	89.969891
_cell_angle_beta	89.976455
_cell_angle_gamma	90.017485
loop_
_atom_site_label
_atom_site_type_symbol
_atom_site_fract_x
_atom_site_fract_y
_atom_site_fract_z
Zn1	Zn	1.208406	-0.294900	-0.447018
Zn2	Zn	1.208321	-0.418745	-0.314832
Zn3	Zn	1.076228	-0.294916	-0.314841
Zn4	Zn	1.076199	-0.418698	-0.446956
O5	O	1.142288	-0.356815	-0.380912
O6	O	1.319006	-0.311342	-0.429505
O7	O	1.190774	-0.402345	-0.204222
O8	O	1.093809	-0.191281	-0.332405
O9	O	1.318943	-0.402330	-0.332388
O10	O	1.190921	-0.191269	-0.429514
O11	O	1.093726	-0.311368	-0.204229
O12	O	0.965613	-0.311322	-0.332345
O13	O	1.093760	-0.402249	-0.557575
O14	O	0.965592	-0.402264	-0.429409
O15	O	1.190893	-0.311295	-0.557621
O16	O	1.190746	-0.522372	-0.332328
O17	O	1.093677	-0.522337	-0.429400
C18	C	0.936922	-0.356790	-0.380872
C19	C	0.849065	-0.356798	-0.380874
C20	C	1.142221	-0.549225	-0.380873
C21	C	1.142264	-0.631539	-0.380884
C22	C	0.477546	-0.404145	-0.330317
C23	C	0.477633	-0.309545	-0.431602
C24	C	0.560179	-0.309533	-0.431583
C25	C	0.601412	-0.356828	-0.380931
C26	C	0.560100	-0.404136	-0.330298
C27	C	0.601498	-0.262232	-0.482221
C28	C	0.684049	-0.262218	-0.482204
C29	C	0.725284	-0.309510	-0.431548
C30	C	0.683966	-0.356819	-0.380912
C31	C	0.725199	-0.404115	-0.330260
C32	C	0.683883	-0.451421	-0.279620
C33	C	0.601335	-0.451429	-0.279642
C34	C	0.807832	-0.309502	-0.431526
C35	C	0.807753	-0.404106	-0.330241
C36	C	1.142365	-0.930630	-0.380956
C37	C	1.203268	-0.899296	-0.319717
C38	C	1.203479	-0.813677	-0.319876
C39	C	1.142315	-0.782248	-0.380919
C40	C	1.164895	-0.813257	-0.464238
C41	C	1.165366	-0.898902	-0.463904
C42	C	1.058719	-0.899135	-0.359596
C43	C	1.059133	-0.813485	-0.357737
C44	C	1.142285	-0.698388	-0.380904
C45	C	1.142397	-1.014490	-0.380977
C46	C	1.348456	-0.356839	-0.380952
C47	C	1.436313	-0.356850	-0.380969
C48	C	1.142333	-0.356765	-0.587080
C49	C	1.142351	-0.356744	-0.674937
C50	C	1.142378	-0.163653	-0.380968
C51	C	1.142416	-0.081339	-0.380991
C52	C	1.091789	-0.404091	-0.716189
C53	C	1.192927	-0.309374	-0.716238
C54	C	1.192944	-0.309349	-0.798784
C55	C	1.142381	-0.356696	-0.840036
C56	C	1.091802	-0.404066	-0.798742
C57	C	1.243516	-0.261974	-0.840085
C58	C	1.243534	-0.261948	-0.922636
C59	C	1.192975	-0.309298	-0.963889
C60	C	1.142394	-0.356671	-0.922590
C61	C	1.091832	-0.404018	-0.963842
C62	C	1.041255	-0.451395	-0.922544
C63	C	1.041243	-0.451417	-0.839996
C64	C	1.192986	-0.309276	-1.046437
C65	C	1.091845	-0.403993	-1.046395
C66	C	1.142290	-0.356810	-0.175546
C67	C	1.142424	-0.356623	-0.087689
H68	H	0.841319	-0.442617	-0.288990
C69	C	0.997413	-0.926510	-0.419841
H70	H	0.946991	-0.907292	-0.406629
H71	H	0.995592	-0.978955	-0.418971
H72	H	1.011835	-0.910159	-0.471095
C73	C	1.036224	-0.456074	-1.091766
H74	H	1.006100	-0.484287	-1.055347
H75	H	1.066451	-0.488332	-1.123973
H76	H	1.001795	-0.427728	-1.123962
H77	H	1.226507	-0.918824	-0.481997
C78	C	0.729493	-0.210185	-0.537901
H79	H	0.784562	-0.216954	-0.530640
H80	H	0.715965	-0.160414	-0.526437
H81	H	0.715998	-0.221096	-0.590995
H82	H	1.122950	-0.919627	-0.511104
C83	C	0.853280	-0.257476	-0.487223
H84	H	0.908349	-0.264246	-0.479960
H85	H	0.839753	-0.207705	-0.475762
H86	H	0.839785	-0.268391	-0.540315
C87	C	0.985636	-0.503473	-0.967923
H88	H	0.955509	-0.531690	-0.931510
H89	H	1.015866	-0.535727	-1.000131
H90	H	0.951210	-0.475123	-1.000118
C91	C	0.556146	-0.210218	-0.537942
H92	H	0.592573	-0.182051	-0.568105
H93	H	0.523928	-0.177915	-0.507782
H94	H	0.523962	-0.238605	-0.572331
C95	C	0.432283	-0.257529	-0.487322
H96	H	0.468711	-0.229358	-0.517479
H97	H	0.400061	-0.225230	-0.457161
H98	H	0.400104	-0.285914	-0.521718
C99	C	0.432108	-0.456180	-0.274617
H100	H	0.468490	-0.484342	-0.244447
H101	H	0.399915	-0.488488	-0.304795
H102	H	0.399893	-0.427808	-0.240234
H103	H	1.234089	-0.270823	-0.682646
H104	H	1.042107	-0.793226	-0.296421
C105	C	1.106810	-0.785749	-0.527539
H106	H	1.068183	-0.755031	-0.503660
H107	H	1.081718	-0.826869	-0.551633
H108	H	1.134699	-0.758359	-0.566372
H109	H	1.225351	-0.791752	-0.482636
C110	C	1.299121	-0.209888	-0.794712
H111	H	1.329236	-0.181662	-0.831128
H112	H	1.333548	-0.238222	-0.762509
H113	H	1.268878	-0.177632	-0.762512
C114	C	1.184406	-0.785354	-0.236418
H115	H	1.176461	-0.826192	-0.202110
H116	H	1.137923	-0.756126	-0.238021
H117	H	1.227083	-0.756282	-0.217625
C118	C	1.184500	-0.927280	-0.236027
H119	H	1.139348	-0.958318	-0.237678
H120	H	1.174400	-0.886387	-0.202431
H121	H	1.228193	-0.954445	-0.216350
H122	H	1.264889	-0.920767	-0.333688
C123	C	1.248615	-0.257169	-1.091861
H124	H	1.278727	-0.228977	-1.055470
H125	H	1.218397	-0.224894	-1.124067
H126	H	1.283055	-0.285496	-1.124062
C127	C	0.994529	-0.784602	-0.413576
H128	H	0.944946	-0.804351	-0.398185
H129	H	1.006094	-0.799423	-0.466043
H130	H	0.992683	-0.732208	-0.410942
C131	C	0.729245	-0.503442	-0.223906
H132	H	0.784324	-0.496657	-0.231149
H133	H	0.715715	-0.553217	-0.235374
H134	H	0.715692	-0.492534	-0.170817
C135	C	0.555890	-0.503466	-0.223949
H136	H	0.592268	-0.531629	-0.193774
H137	H	0.523703	-0.535772	-0.254135
H138	H	0.523669	-0.475097	-0.189570
H139	H	1.038178	-0.920794	-0.299894
C140	C	1.287178	-0.785924	-0.338973
H141	H	1.321182	-0.826992	-0.346672
H142	H	1.306136	-0.756801	-0.296429
H143	H	1.285855	-0.756864	-0.385615
C144	C	1.299172	-0.209843	-0.968056
H145	H	1.329287	-0.181653	-0.931664
H146	H	1.268960	-0.177564	-1.000263
H147	H	1.333610	-0.238173	-1.000254
C148	C	0.985608	-0.503519	-0.794568
H149	H	0.992835	-0.496744	-0.739497
H150	H	0.997153	-0.553276	-0.808082
H151	H	0.932504	-0.492665	-0.808088
H152	H	1.050613	-0.442666	-0.682561
