data_functionalizedCrystal
_audit_creation_method	'MofGen! by Chris Wilmer'
_symmetry_space_group_name_H-M	'P1'
_symmetry_Int_Tables_number	1
_symmetry_cell_setting	triclinic
loop_
_symmetry_equiv_pos_as_xyz
  x,y,z
_cell_length_a	19.288867
_cell_length_b	19.288864
_cell_length_c	17.766277
_cell_angle_alpha	89.971843
_cell_angle_beta	89.992126
_cell_angle_gamma	83.136659
loop_
_atom_site_label
_atom_site_type_symbol
_atom_site_fract_x
_atom_site_fract_y
_atom_site_fract_z
O1	O	0.921352	0.086655	-0.062604
O2	O	1.421352	0.586655	0.437396
O3	O	0.719092	0.098343	-0.062616
O4	O	1.219092	0.598343	0.437384
O5	O	0.826066	-0.008631	-0.062563
O6	O	1.326066	0.491369	0.437437
O7	O	0.814378	0.193629	-0.062657
O8	O	1.314378	0.693629	0.437343
O9	O	0.826048	-0.008637	0.062626
O10	O	1.326048	0.491363	0.562626
O11	O	0.719073	0.098337	0.062573
O12	O	1.219073	0.598337	0.562573
O13	O	0.921333	0.086650	0.062585
O14	O	1.421333	0.586650	0.562585
Cu15	Cu	0.820201	0.092493	0.074010
Cu16	Cu	1.320201	0.592493	0.574010
Cu17	Cu	0.820224	0.092500	-0.074040
Cu18	Cu	1.320224	0.592500	0.425960
O19	O	0.814359	0.193624	0.062532
O20	O	1.314359	0.693624	0.562532
C21	C	0.693206	0.097964	-0.000022
C22	C	1.193206	0.597964	0.499978
C23	C	0.616102	0.096834	-0.000024
C24	C	1.116102	0.596834	0.499976
C25	C	0.060547	0.088701	-0.068252
C26	C	0.560547	0.588701	0.431748
C27	C	0.132995	0.089758	-0.068256
C28	C	0.632995	0.589758	0.431744
C29	C	0.169213	0.090287	-0.000016
C30	C	0.669213	0.590287	0.499984
C31	C	0.132980	0.089741	0.068233
C32	C	0.632980	0.589741	0.568233
C33	C	0.060535	0.088676	0.068234
C34	C	0.560535	0.588676	0.568234
C35	C	0.278533	0.132652	0.052245
C36	C	0.778533	0.632652	0.552245
C37	C	0.350976	0.133721	0.052241
C38	C	0.850976	0.633721	0.552241
C39	C	0.392659	0.093566	-0.000017
C40	C	0.892659	0.593566	0.499983
C41	C	0.361888	0.052352	-0.052284
C42	C	0.861888	0.552352	0.447716
C43	C	0.289443	0.051288	-0.052282
C44	C	0.789443	0.551288	0.447718
C45	C	0.247768	0.091440	-0.000010
C46	C	0.747768	0.591440	0.499990
C47	C	0.507439	0.095254	-0.068264
C48	C	1.007439	0.595254	0.431736
C49	C	0.579889	0.096306	-0.068265
C50	C	1.079889	0.596306	0.431735
C51	C	0.579872	0.096296	0.068225
C52	C	1.079872	0.596296	0.568225
C53	C	0.507425	0.095236	0.068224
C54	C	1.007425	0.595236	0.568224
C55	C	0.471213	0.094718	-0.000023
C56	C	0.971213	0.594718	0.499977
C57	C	0.825681	-0.034510	0.000042
C58	C	1.325681	0.465490	0.500042
C59	C	0.824552	-0.111614	0.000073
C60	C	1.324552	0.388386	0.500073
C61	C	0.947219	0.087029	-0.000010
C62	C	1.447219	0.587029	0.499990
C63	C	1.024323	0.088159	-0.000013
C64	C	1.524323	0.588159	0.499987
N65	N	0.820191	0.092488	0.178140
N66	N	1.320191	0.592488	0.678140
C67	C	0.814744	0.219503	-0.000074
C68	C	1.314744	0.719503	0.499926
C69	C	0.815873	0.296607	-0.000110
C70	C	1.315873	0.796607	0.499890
C71	C	0.753105	0.341302	-0.000099
C72	C	1.253105	0.841302	0.499901
C73	C	0.754166	0.413750	-0.000082
C74	C	1.254166	0.913750	0.499918
C75	C	0.817998	0.441498	-0.000061
C76	C	1.317998	0.941498	0.499939
C77	C	0.880774	0.396792	-0.000076
C78	C	1.380774	0.896792	0.499924
C79	C	0.879712	0.324346	-0.000101
C80	C	1.379712	0.824346	0.499899
C81	C	0.868171	0.549746	0.043841
C82	C	1.368171	1.049746	0.543841
C83	C	0.869230	0.622191	0.043870
C84	C	1.369230	1.122191	0.543870
C85	C	0.821278	0.664943	0.000012
C86	C	1.321278	1.164943	0.500012
C87	C	0.772254	0.635244	-0.043866
C88	C	1.272254	1.135244	0.456134
C89	C	0.771191	0.562799	-0.043891
C90	C	1.271191	1.062799	0.456109
C91	C	0.819157	0.520052	-0.000035
C92	C	1.319157	1.020052	0.499965
C93	C	0.759656	0.788195	0.000041
C94	C	1.259656	1.288195	0.500041
C95	C	0.760719	0.860643	0.000053
C96	C	1.260719	1.360643	0.500053
C97	C	0.887329	0.843684	0.000066
C98	C	1.387329	1.343684	0.500066
C99	C	0.886264	0.771237	0.000046
C100	C	1.386264	1.271237	0.500046
C101	C	0.822425	0.743498	0.000037
C102	C	1.322425	1.243498	0.500037
N103	N	0.820240	0.092499	-0.178171
N104	N	1.320240	0.592499	0.321829
C105	C	0.867575	0.045143	0.217550
C106	C	1.367575	0.545143	0.717550
C107	C	0.867579	0.045140	0.296352
C108	C	1.367579	0.545140	0.796352
C109	C	0.820206	0.092494	0.335740
C110	C	1.320206	0.592494	0.835740
C111	C	0.772813	0.139842	0.296321
C112	C	1.272813	0.639842	0.796321
C113	C	0.772806	0.139839	0.217520
C114	C	1.272806	0.639839	0.717520
C115	C	0.810907	0.155781	0.460549
C116	C	1.310907	0.655781	0.960549
C117	C	0.810919	0.155785	0.539348
C118	C	1.310919	0.655785	1.039348
C119	C	0.820224	0.092502	0.578787
C120	C	1.320224	0.592502	1.078787
C121	C	0.829532	0.029213	0.539417
C122	C	1.329532	0.529213	1.039417
C123	C	0.829525	0.029210	0.460617
C124	C	1.329525	0.529210	0.960617
C125	C	0.820208	0.092502	0.421186
C126	C	1.320208	0.592502	0.921186
C127	C	0.867615	0.045150	0.703643
C128	C	1.367615	0.545150	1.203643
C129	C	0.867614	0.045146	0.782446
C130	C	1.367614	0.545146	1.282446
C131	C	0.772852	0.139854	0.782413
C132	C	1.272852	0.639854	1.282413
C133	C	0.772849	0.139852	0.703612
C134	C	1.272849	0.639852	1.203612
C135	C	0.820234	0.092501	0.664231
C136	C	1.320234	0.592501	1.164231
H137	H	0.477930	0.094797	0.123791
H138	H	0.977930	0.594797	0.623791
H139	H	0.939302	0.866275	0.000028
H140	H	1.439302	1.366275	0.500028
Br141	Br	0.707162	0.693257	-0.103383
Br142	Br	1.207162	1.193257	0.396617
Br143	Br	0.668975	0.474420	-0.000065
Br144	Br	1.168975	0.974420	0.499935
H145	H	0.930827	0.287954	-0.000111
H146	H	1.430827	0.787954	0.499889
H147	H	0.837101	-0.022322	0.428566
H148	H	1.337101	0.477678	0.928566
H149	H	0.734240	0.178397	0.328395
H150	H	1.234240	0.678397	0.828395
Br151	Br	0.247684	-0.004645	-0.123210
Br152	Br	0.747684	0.495355	0.376790
H153	H	0.609382	0.096743	-0.123836
H154	H	1.109382	0.596743	0.376164
H155	H	0.734220	0.178394	0.185432
H156	H	1.234220	0.678394	0.685432
Br157	Br	0.708542	0.204111	0.650120
Br158	Br	1.208542	0.704111	1.150120
H159	H	0.803344	0.207319	0.571396
H160	H	1.303344	0.707319	1.071396
Br161	Br	0.798347	0.241675	0.407033
Br162	Br	1.298347	0.741675	0.907033
Br163	Br	0.182168	0.090494	-0.160872
Br164	Br	0.682168	0.590494	0.339128
Br165	Br	0.971454	0.710574	0.000035
Br166	Br	1.471454	1.210574	0.500035
H167	H	0.031041	0.088238	0.123804
H168	H	0.531041	0.588238	0.623804
Br169	Br	0.704665	0.522493	-0.103440
Br170	Br	1.204665	1.022493	0.396560
Br171	Br	0.629020	0.096999	0.160838
Br172	Br	1.129020	0.596999	0.660838
H173	H	0.031068	0.088276	-0.123824
H174	H	0.531068	0.588276	0.376176
Br175	Br	0.708552	0.204113	0.835862
Br176	Br	1.208552	0.704113	1.335862
H177	H	0.477954	0.094830	-0.123835
H178	H	0.977954	0.594830	0.376165
Br179	Br	0.931889	-0.019120	0.349847
Br180	Br	1.431889	0.480880	0.849847
H181	H	0.376021	0.167297	0.094784
H182	H	0.876021	0.667297	0.594784
Br183	Br	0.221971	0.187142	0.123184
Br184	Br	0.721971	0.687142	0.623184
H185	H	0.906157	0.006586	0.185489
H186	H	1.406157	0.506586	0.685489
Br187	Br	0.935721	0.662495	0.103471
Br188	Br	1.435721	1.162495	0.603471
H189	H	0.162474	0.090170	0.123794
H190	H	0.662474	0.590170	0.623794
H191	H	0.395825	0.019656	-0.094840
H192	H	0.895825	0.519656	0.405160
H193	H	0.701123	0.318722	-0.000113
H194	H	1.201123	0.818722	0.499887
H195	H	0.707675	0.765608	0.000038
H196	H	1.207675	1.265608	0.500038
Br197	Br	0.931920	-0.019114	0.650196
Br198	Br	1.431920	0.480886	1.150196
H199	H	0.709604	0.897035	0.000057
H200	H	1.209604	1.397035	0.500057
H201	H	0.907225	0.514941	0.079555
H202	H	1.407225	1.014941	0.579555
Br203	Br	0.842170	-0.056678	0.592931
Br204	Br	1.342170	0.443322	1.092931
Br205	Br	0.967404	0.434448	-0.000056
Br206	Br	1.467404	0.934448	0.499944
Br207	Br	0.931919	-0.019119	0.835936
Br208	Br	1.431919	0.480881	1.335936
