data_functionalizedCrystal
_audit_creation_method	'MofGen! by Chris Wilmer'
_symmetry_space_group_name_H-M	'P1'
_symmetry_Int_Tables_number	1
_symmetry_cell_setting	triclinic
loop_
_symmetry_equiv_pos_as_xyz
  x,y,z
_cell_length_a	6.817900
_cell_length_b	11.353959
_cell_length_c	14.125465
_cell_angle_alpha	106.193871
_cell_angle_beta	100.398878
_cell_angle_gamma	107.526623
loop_
_atom_site_label
_atom_site_type_symbol
_atom_site_fract_x
_atom_site_fract_y
_atom_site_fract_z
V1	V	-4.027839	-0.179668	-0.330075
O2	O	-3.977518	0.009789	-0.292626
O3	O	-4.015716	-0.357363	-0.357791
O4	O	-3.963316	-0.176398	-0.460357
O5	O	-4.030281	-0.172429	-0.189350
V6	V	-4.508855	-0.157067	-0.309602
O7	O	-4.294595	-0.229247	-0.374984
O8	O	-4.692296	-0.107489	-0.264693
O9	O	-4.297772	0.020628	-0.281886
O10	O	-4.676572	-0.346524	-0.347050
O11	O	-4.623810	-0.164306	-0.450326
O12	O	-4.350171	-0.160338	-0.179319
C13	C	-3.870063	-0.400697	-0.360318
C14	C	-3.941330	-0.545962	-0.383847
C15	C	-3.941208	-0.593306	-0.307688
C16	C	-4.014866	-0.743444	-0.332005
C17	C	-3.803221	-0.169856	-0.491150
C18	C	-3.831990	-0.168358	-0.597853
C19	C	-3.884722	-0.165611	-0.793216
C20	C	-4.071340	-0.171122	-0.846460
C21	C	-4.100683	-0.169593	-0.955167
C22	C	-3.855372	-0.167139	-0.684499
C23	C	-4.106768	0.063955	-0.279357
C24	C	-4.014738	0.209218	-0.255834
C25	C	-4.173610	-0.166883	-0.148522
C26	C	-4.124078	-0.168375	-0.041817
H27	H	-3.960111	-0.720169	-0.172623
N28	N	-4.083386	-0.832037	-0.436387
N29	N	-3.986796	-0.907179	-0.464420
H30	H	-4.035187	-0.969751	-0.538138
N31	N	-4.009894	-0.634559	-0.488226
N32	N	-4.069641	-0.756396	-0.507832
H33	H	-4.118066	-0.818969	-0.581552
N34	N	-4.244108	-0.178476	-0.801218
N35	N	-4.219657	-0.179725	-0.711695
H36	H	-4.341667	-0.184921	-0.679738
N37	N	-3.711964	-0.158249	-0.838455
N38	N	-3.736433	-0.157003	-0.927979
H39	H	-3.614431	-0.151806	-0.959942
H40	H	-3.886584	-0.522687	-0.224482
