data_functionalizedCrystal
_audit_creation_method	'MofGen! by Chris Wilmer'
_symmetry_space_group_name_H-M	'P1'
_symmetry_Int_Tables_number	1
_symmetry_cell_setting	triclinic
loop_
_symmetry_equiv_pos_as_xyz
  x,y,z
_cell_length_a	12.759401
_cell_length_b	12.759400
_cell_length_c	21.395356
_cell_angle_alpha	89.976983
_cell_angle_beta	89.979605
_cell_angle_gamma	90.014845
loop_
_atom_site_label
_atom_site_type_symbol
_atom_site_fract_x
_atom_site_fract_y
_atom_site_fract_z
Zn1	Zn	1.606275	-0.418288	-0.354228
Zn2	Zn	1.606164	-0.593981	-0.249459
Zn3	Zn	1.430571	-0.418317	-0.249471
Zn4	Zn	1.430566	-0.593926	-0.354205
O5	O	1.518394	-0.506128	-0.301841
O6	O	1.753281	-0.441605	-0.340335
O7	O	1.582827	-0.570714	-0.161783
O8	O	1.453928	-0.271292	-0.263382
O9	O	1.753200	-0.570686	-0.263362
O10	O	1.583017	-0.271271	-0.340346
O11	O	1.453820	-0.441654	-0.161791
O12	O	1.283550	-0.441601	-0.263359
O13	O	1.453918	-0.570593	-0.441886
O14	O	1.283546	-0.570621	-0.340307
O15	O	1.583011	-0.441552	-0.441903
O16	O	1.582821	-0.740995	-0.263340
O17	O	1.453810	-0.740955	-0.340296
C18	C	1.245427	-0.506109	-0.301833
C19	C	1.128650	-0.506126	-0.301844
C20	C	1.073813	-0.573414	-0.341844
C21	C	0.964089	-0.573427	-0.341851
C22	C	0.964048	-0.438862	-0.261851
C23	C	1.073770	-0.438844	-0.261848
C24	C	1.128693	-0.640696	-0.381840
C25	C	1.073856	-0.707990	-0.421843
C26	C	0.964132	-0.708003	-0.421850
C27	C	0.909245	-0.640722	-0.381853
C28	C	1.518332	-0.779096	-0.301828
C29	C	1.518401	-0.895872	-0.301843
C30	C	1.585652	-0.950720	-0.261816
C31	C	1.585716	-1.060444	-0.261836
C32	C	1.451271	-1.060463	-0.341911
C33	C	1.451212	-0.950741	-0.341894
C34	C	1.652841	-0.895852	-0.221766
C35	C	1.720096	-0.950700	-0.181735
C36	C	1.720160	-1.060424	-0.181754
C37	C	1.652970	-1.115300	-0.221804
C38	C	1.792427	-0.506148	-0.301850
C39	C	1.909204	-0.506157	-0.301854
C40	C	1.518477	-0.506063	-0.465264
C41	C	1.518512	-0.506035	-0.534906
C42	C	1.518485	-0.232095	-0.301868
C43	C	1.518524	-0.115318	-0.301879
C44	C	1.451356	-0.438827	-0.567613
C45	C	1.451352	-0.438807	-0.633049
C46	C	1.518523	-0.505985	-0.665774
C47	C	1.585684	-0.573207	-0.633058
C48	C	1.585678	-0.573232	-0.567624
C49	C	1.613186	-0.514245	-0.769458
C50	C	1.613194	-0.514213	-0.834891
C51	C	1.518541	-0.505915	-0.867595
C52	C	1.423877	-0.497627	-0.834858
C53	C	1.423871	-0.497652	-0.769424
C54	C	1.518537	-0.505966	-0.736726
C55	C	1.451375	-0.438681	-0.971255
C56	C	1.451370	-0.438669	-1.036692
C57	C	1.585711	-0.573064	-1.036700
C58	C	1.585707	-0.573081	-0.971265
C59	C	1.518541	-0.505884	-0.938546
C60	C	1.518372	-0.506117	-0.139053
C61	C	1.518540	-0.505849	-0.069413
H62	H	1.118419	-0.384044	-0.229281
H63	H	1.640375	-0.627905	-0.659708
N64	N	1.133048	-0.780549	-0.464983
H65	H	1.210878	-0.770335	-0.458909
H66	H	1.113849	-0.855563	-0.455152
H67	H	1.652793	-0.806509	-0.221744
N68	N	0.790900	-0.640723	-0.381859
H69	H	0.764505	-0.621509	-0.424861
H70	H	0.764532	-0.712787	-0.370242
H71	H	1.640369	-0.627961	-0.540994
N72	N	1.792573	-0.891521	-0.138547
H73	H	1.782330	-0.813689	-0.144607
H74	H	1.776272	-0.910765	-0.093794
H75	H	1.396452	-0.906083	-0.374488
N76	N	1.378932	-0.366168	-1.071966
H77	H	1.421651	-0.317480	-1.099129
H78	H	1.330236	-0.408917	-1.099063
N79	N	0.904990	-0.780583	-0.464994
H80	H	0.859442	-0.829215	-0.439479
H81	H	0.859552	-0.737890	-0.494070
N82	N	1.378909	-0.366369	-0.532317
H83	H	1.421624	-0.317701	-0.505180
H84	H	1.336373	-0.323855	-0.563004
H85	H	1.653036	-1.204645	-0.221822
N86	N	1.321767	-0.488697	-0.870113
H87	H	1.274747	-0.549453	-0.858695
H88	H	1.286119	-0.420672	-0.858712
H89	H	1.640395	-0.627807	-0.944634
H90	H	1.690274	-0.520956	-0.861540
H91	H	1.346793	-0.490905	-0.742772
H92	H	1.218036	-0.640694	-0.381838
N93	N	1.658164	-0.645518	-1.071989
H94	H	1.700710	-0.688097	-1.041337
H95	H	1.615382	-0.694125	-1.099124
H96	H	1.774930	-1.105079	-0.149164
H97	H	1.396683	-0.383966	-0.944614
H98	H	0.919350	-0.384086	-0.229288
N99	N	1.378795	-1.119639	-0.385102
H100	H	1.421488	-1.165100	-0.414165
H101	H	1.330166	-1.165165	-0.359575
N102	N	1.378916	-0.366317	-0.668337
H103	H	1.336365	-0.323754	-0.637681
H104	H	1.421710	-0.317695	-0.695498
N105	N	1.715281	-0.523215	-0.734186
H106	H	1.775248	-0.528457	-0.764852
H107	H	1.725063	-0.459218	-0.707043
