data_functionalizedCrystal
_audit_creation_method	'MofGen! by Chris Wilmer'
_symmetry_space_group_name_H-M	'P1'
_symmetry_Int_Tables_number	1
_symmetry_cell_setting	triclinic
loop_
_symmetry_equiv_pos_as_xyz
  x,y,z
_cell_length_a	21.295417
_cell_length_b	17.639617
_cell_length_c	21.295411
_cell_angle_alpha	78.751768
_cell_angle_beta	89.978356
_cell_angle_gamma	101.214475
loop_
_atom_site_label
_atom_site_type_symbol
_atom_site_fract_x
_atom_site_fract_y
_atom_site_fract_z
Zn1	Zn	-0.056424	1.208573	-0.550846
Zn2	Zn	0.443576	1.708573	-0.050846
Zn3	Zn	-0.161696	1.208451	-0.445552
Zn4	Zn	0.338304	1.708451	0.054448
Zn5	Zn	-0.077675	1.076362	-0.424266
Zn6	Zn	0.422325	1.576362	0.075734
Zn7	Zn	-0.182916	1.076323	-0.529472
Zn8	Zn	0.317084	1.576323	-0.029472
O9	O	-0.119678	1.142427	-0.487534
O10	O	0.380322	1.642427	0.012466
O11	O	-0.052614	1.319184	-0.554732
O12	O	0.447386	1.819184	-0.054732
O13	O	-0.150563	1.190894	-0.354633
O14	O	0.349437	1.690894	0.145367
O15	O	0.013244	1.093967	-0.441095
O16	O	0.513244	1.593967	0.058905
O17	O	-0.129957	1.319094	-0.477373
O18	O	0.370043	1.819094	0.022627
O19	O	0.028857	1.191103	-0.534092
O20	O	0.528857	1.691103	-0.034092
O21	O	-0.088834	1.093848	-0.338995
O22	O	0.411166	1.593848	0.161005
O23	O	-0.109410	0.965729	-0.420369
O24	O	0.390590	1.465729	0.079631
O25	O	-0.166124	1.093902	-0.620403
O26	O	0.333876	1.593902	-0.120403
O27	O	-0.186731	0.965701	-0.497663
O28	O	0.313269	1.465701	0.002337
O29	O	-0.073191	1.191065	-0.636106
O30	O	0.426809	1.691065	-0.136106
O31	O	-0.252611	1.190856	-0.456647
O32	O	0.247389	1.690856	0.043353
O33	O	-0.268202	1.093783	-0.518303
O34	O	0.231798	1.593783	-0.018303
C35	C	-0.152680	0.937031	-0.454388
C36	C	0.347320	1.437031	0.045612
C37	C	-0.166813	0.849162	-0.440222
C38	C	0.333187	1.349162	0.059778
C39	C	-0.012294	0.560376	-0.595303
C40	C	0.487706	1.060376	-0.095303
C41	C	-0.025591	0.477809	-0.581980
C42	C	0.474409	0.977809	-0.081980
C43	C	-0.105994	0.477737	-0.501310
C44	C	0.394006	0.977737	-0.001310
C45	C	-0.092706	0.560306	-0.514628
C46	C	0.407294	1.060306	-0.014628
C47	C	-0.045855	0.601619	-0.561625
C48	C	0.454145	1.101619	-0.061625
C49	C	-0.126268	0.601548	-0.480950
C50	C	0.373732	1.101548	0.019050
C51	C	-0.112979	0.684110	-0.494266
C52	C	0.387021	1.184110	0.005734
C53	C	-0.066129	0.725428	-0.541259
C54	C	0.433871	1.225428	-0.041259
C55	C	-0.032567	0.684180	-0.574941
C56	C	0.467433	1.184180	-0.074941
C57	C	-0.173115	0.560234	-0.433951
C58	C	0.326885	1.060234	0.066049
C59	C	-0.206676	0.601477	-0.400273
C60	C	0.293324	1.101477	0.099727
C61	C	-0.193391	0.684039	-0.413591
C62	C	0.306609	1.184039	0.086409
C63	C	-0.146541	0.725358	-0.460585
C64	C	0.353459	1.225358	0.039415
C65	C	-0.226953	0.725288	-0.379910
C66	C	0.273047	1.225288	0.120090
C67	C	-0.213664	0.807849	-0.393225
C68	C	0.286336	1.307849	0.106775
C69	C	-0.133252	0.807919	-0.473900
C70	C	0.366748	1.307919	0.026100
C71	C	-0.283246	1.142324	-0.487483
C72	C	0.216754	1.642324	0.012517
C73	C	-0.353210	1.142352	-0.487493
C74	C	0.146790	1.642352	0.012507
C75	C	-0.377930	1.192943	-0.455438
C76	C	0.122070	1.692943	0.044562
C77	C	-0.443667	1.192980	-0.455458
C78	C	0.056333	1.692980	0.044542
C79	C	-0.484683	1.142412	-0.487525
C80	C	0.015317	1.642412	0.012475
C81	C	-0.459955	1.091817	-0.519588
C82	C	0.040045	1.591817	-0.019588
C83	C	-0.394218	1.091787	-0.519572
C84	C	0.105782	1.591787	-0.019572
N85	N	-0.599065	1.073256	-0.481163
N86	N	-0.099065	1.573256	0.018837
N87	N	-0.661511	1.073286	-0.481175
N88	N	-0.161511	1.573286	0.018825
C89	C	-0.682743	1.142500	-0.487575
C90	C	-0.182743	1.642500	0.012425
N91	N	-0.639169	1.211683	-0.493951
N92	N	-0.139169	1.711683	0.006049
N93	N	-0.576717	1.211652	-0.493936
N94	N	-0.076717	1.711652	0.006064
C95	C	-0.555964	1.142439	-0.487546
C96	C	-0.055964	1.642439	0.012454
C97	C	-0.778742	1.193136	-0.455540
C98	C	-0.278742	1.693136	0.044460
C99	C	-0.844480	1.193174	-0.455564
C100	C	-0.344480	1.693174	0.044436
C101	C	-0.860767	1.092004	-0.519690
C102	C	-0.360767	1.592004	-0.019690
C103	C	-0.795030	1.091973	-0.519670
C104	C	-0.295030	1.591973	-0.019670
C105	C	-0.754021	1.142538	-0.487591
C106	C	-0.254021	1.642538	0.012409
C107	C	0.044533	1.142553	-0.487603
C108	C	0.544533	1.642553	0.012397
C109	C	0.114509	1.142606	-0.487633
C110	C	0.614509	1.642606	0.012367
C111	C	-0.119654	1.142493	-0.651735
C112	C	0.380346	1.642493	-0.151735
C113	C	-0.119644	1.142521	-0.721708
C114	C	0.380356	1.642521	-0.221708
C115	C	-0.086548	1.348625	-0.520811
C116	C	0.413452	1.848625	-0.020811
C117	C	-0.072430	1.436495	-0.534991
C118	C	0.427570	1.936495	-0.034991
C119	C	-0.071252	1.193112	-0.762752
C120	C	0.428748	1.693112	-0.262752
C121	C	-0.071225	1.193111	-0.828494
C122	C	0.428775	1.693111	-0.328494
C123	C	-0.119600	1.142527	-0.853191
C124	C	0.380400	1.642527	-0.353191
C125	C	-0.167996	1.091926	-0.812138
C126	C	0.332004	1.591926	-0.312138
C127	C	-0.168018	1.091923	-0.746396
C128	C	0.331982	1.591923	-0.246396
N129	N	-0.175648	1.136428	-0.955423
N130	N	0.324352	1.636428	-0.455423
N131	N	-0.175624	1.136435	-1.017876
N132	N	0.324376	1.636435	-0.517876
C133	C	-0.119535	1.142532	-1.051267
C134	C	0.380465	1.642532	-0.551267
N135	N	-0.063467	1.148636	-1.019849
N136	N	0.436533	1.648636	-0.519849
N137	N	-0.063490	1.148633	-0.957391
N138	N	0.436510	1.648633	-0.457391
C139	C	-0.119581	1.142524	-0.924476
C140	C	0.380419	1.642524	-0.424476
C141	C	-0.071110	1.193124	-1.163597
C142	C	0.428890	1.693124	-0.663597
C143	C	-0.071083	1.193118	-1.229340
C144	C	0.428917	1.693118	-0.729340
C145	C	-0.167858	1.091937	-1.212983
C146	C	0.332142	1.591937	-0.712983
C147	C	-0.167881	1.091940	-1.147240
C148	C	0.332119	1.591940	-0.647240
C149	C	-0.119507	1.142538	-1.122552
C150	C	0.380493	1.642538	-0.622552
C151	C	-0.119649	1.142407	-0.323979
C152	C	0.380351	1.642407	0.176021
C153	C	-0.119457	1.142533	-0.254032
C154	C	0.380543	1.642533	0.245968
H155	H	0.001746	0.444233	-0.609405
H156	H	0.501746	0.944233	-0.109405
O157	O	-0.019078	1.247679	-0.736121
O158	O	0.480922	1.747679	-0.236121
H159	H	0.014579	1.282855	-0.775711
H160	H	0.514579	1.782855	-0.275711
O161	O	-0.734497	1.247683	-0.420961
O162	O	-0.234497	1.747683	0.079039
H163	H	-0.749320	1.234178	-0.369366
H164	H	-0.249320	1.734178	0.130634
H165	H	-0.031673	1.234314	-1.262757
H166	H	0.468327	1.734314	-0.762757
O167	O	-0.905001	1.037461	-0.554275
O168	O	-0.405001	1.537461	-0.054275
H169	H	-0.890177	1.050986	-0.605870
H170	H	-0.390177	1.550986	-0.105870
H171	H	-0.207290	1.050748	-1.113822
H172	H	0.292710	1.550748	-0.613822
H173	H	-0.031815	1.234306	-0.861918
H174	H	0.468185	1.734306	-0.361918
H175	H	-0.240993	0.841429	-0.365801
H176	H	0.259007	1.341429	0.134199
O177	O	-0.082720	0.852483	-0.524592
O178	O	0.417280	1.352483	-0.024592
H179	H	-0.079122	0.916821	-0.528193
H180	H	0.420878	1.416821	-0.028193
O181	O	-0.768364	1.037386	-0.554225
O182	O	-0.268364	1.537386	-0.054225
H183	H	-0.807928	1.002219	-0.576518
H184	H	-0.307928	1.502219	-0.076518
H185	H	-0.244820	0.567829	-0.362006
H186	H	0.255180	1.067829	0.137994
H187	H	0.005582	0.717819	-0.613213
H188	H	0.505582	1.217819	-0.113213
H189	H	-0.374092	1.050589	-0.545676
H190	H	0.125908	1.550589	-0.045676
O191	O	-0.871139	1.247749	-0.420989
O192	O	-0.371139	1.747749	0.079011
H193	H	-0.894572	1.287977	-0.455686
H194	H	-0.394572	1.787977	0.044314
O195	O	-0.220172	1.037364	-0.838769
O196	O	0.279828	1.537364	-0.338769
H197	H	-0.212030	1.045870	-0.891380
H198	H	0.287970	1.545870	-0.391380
H199	H	-0.344542	1.234117	-0.429319
H200	H	0.155458	1.734117	0.070681
H201	H	-0.207241	1.050743	-1.233089
H202	H	0.292759	1.550743	-0.733089
O203	O	-0.220217	1.037354	-0.702125
O204	O	0.279783	1.537354	-0.202125
H205	H	-0.212104	1.045848	-0.652262
H206	H	0.287896	1.545848	-0.152262
O207	O	-0.470343	1.247541	-0.420876
O208	O	0.029657	1.747541	0.079124
H209	H	-0.430784	1.282691	-0.398563
H210	H	0.069216	1.782691	0.101437
H211	H	-0.055308	0.792655	-0.552098
H212	H	0.444692	1.292655	-0.052098
O213	O	-0.187447	0.471185	-0.419580
O214	O	0.312553	0.971185	0.080420
H215	H	-0.238453	0.449406	-0.428692
H216	H	0.261547	0.949406	0.071308
H217	H	-0.144138	0.444089	-0.463043
H218	H	0.355862	0.944089	0.036957
O219	O	0.038238	0.604946	-0.645993
O220	O	0.538238	1.104946	-0.145993
H221	H	0.059346	0.562399	-0.667176
H222	H	0.559346	1.062399	-0.167176
O223	O	-0.277479	0.680727	-0.329217
O224	O	0.222521	1.180727	0.170783
H225	H	-0.281080	0.616388	-0.325616
H226	H	0.218920	1.116388	0.174384
O227	O	-0.504189	1.037265	-0.554167
O228	O	-0.004189	1.537265	-0.054167
H229	H	-0.554055	1.045776	-0.548785
H230	H	-0.054055	1.545776	-0.048785
H231	H	-0.031718	1.234320	-1.143494
H232	H	0.468282	1.734320	-0.643494
