data_functionalizedCrystal
_audit_creation_method	'MofGen! by Chris Wilmer'
_symmetry_space_group_name_H-M	'P1'
_symmetry_Int_Tables_number	1
_symmetry_cell_setting	triclinic
loop_
_symmetry_equiv_pos_as_xyz
  x,y,z
_cell_length_a	16.974897
_cell_length_b	15.455301
_cell_length_c	10.723024
_cell_angle_alpha	92.975888
_cell_angle_beta	83.933465
_cell_angle_gamma	96.650569
loop_
_atom_site_label
_atom_site_type_symbol
_atom_site_fract_x
_atom_site_fract_y
_atom_site_fract_z
O1	O	1.056313	0.146201	0.168999
O2	O	0.825520	0.130019	0.188144
O3	O	0.946240	0.138480	-0.003060
O4	O	0.935593	0.137740	0.360203
O5	O	0.939978	-0.006222	-0.012835
O6	O	0.819258	-0.014683	0.178369
O7	O	1.050051	0.001500	0.159224
Cu8	Cu	0.934083	-0.019804	0.167904
Cu9	Cu	0.941488	0.151323	0.179464
O10	O	0.929331	-0.006962	0.350428
C11	C	0.792837	0.055596	0.182343
C12	C	0.704782	0.049422	0.179608
N13	N	0.928881	-0.140165	0.159773
C14	C	0.666820	0.125392	0.183654
C15	C	0.584081	0.119577	0.181103
C16	C	0.539307	0.037793	0.174497
C17	C	0.577275	-0.038183	0.170455
C18	C	0.660012	-0.032368	0.173015
C19	C	0.291494	0.011944	0.166278
C20	C	0.208752	0.006134	0.163714
C21	C	0.215563	0.163896	0.174365
C22	C	0.298302	0.169703	0.176917
C23	C	0.336262	0.093728	0.172881
N24	N	0.454734	0.031848	0.171885
N25	N	0.420833	0.099673	0.175502
C26	C	0.975423	-0.182291	0.232577
C27	C	0.971499	-0.273374	0.226420
C28	C	0.921028	-0.322331	0.147464
C29	C	0.874484	-0.280199	0.074652
C30	C	0.878413	-0.189116	0.080803
C31	C	0.904081	-0.595102	0.120924
C32	C	0.900154	-0.686190	0.114781
C33	C	0.997171	-0.679360	0.266548
C34	C	1.001091	-0.588276	0.272698
C35	C	0.954550	-0.546152	0.199881
N36	N	0.917014	-0.415433	0.141171
N37	N	0.958569	-0.453051	0.206167
C38	C	1.082734	0.075924	0.165025
C39	C	1.170789	0.082104	0.167760
N40	N	0.946697	0.271684	0.187585
C41	C	0.942334	0.066076	-0.054439
C42	C	0.940016	0.065916	-0.192969
C43	C	1.007565	0.070654	-0.268652
C44	C	1.005171	0.070489	-0.411830
C45	C	0.933237	0.065444	0.401807
C46	C	0.935555	0.065610	0.540337
H47	H	0.553175	0.181440	0.184397
O48	O	0.533881	-0.117677	0.163870
C49	C	0.560404	-0.163648	0.053264
H50	H	0.624242	-0.136803	0.020642
H51	H	0.558234	-0.235741	0.072761
H52	H	0.520187	-0.155575	-0.023050
H53	H	0.690919	-0.094231	0.169726
O54	O	0.858788	-0.554331	0.050158
C55	C	0.813413	-0.617074	-0.020864
H56	H	0.806267	-0.682302	0.026397
H57	H	0.752144	-0.595148	-0.027081
H58	H	0.845136	-0.624509	-0.119337
H59	H	0.334752	0.236301	0.182287
H60	H	0.184647	0.225750	0.177654
H61	H	1.062997	0.074541	-0.476862
H62	H	0.880413	0.061743	-0.234173
H63	H	0.172296	-0.060468	0.158370
H64	H	0.877725	0.061548	-0.394639
O65	O	0.833079	-0.148241	0.010225
C66	C	0.751810	-0.176156	0.042947
H67	H	0.743605	-0.201690	0.141858
H68	H	0.715340	-0.119001	0.039561
H69	H	0.730769	-0.230347	-0.026116
O70	O	0.710186	0.204908	0.190131
C71	C	0.658934	0.270713	0.193128
H72	H	0.595893	0.243226	0.229207
H73	H	0.680514	0.327229	0.258129
H74	H	0.658953	0.294895	0.094476
H75	H	0.859051	-0.726049	0.050486
H76	H	0.833394	-0.320066	0.010358
H77	H	0.322392	-0.049921	0.162983
H78	H	1.067168	0.074828	-0.227448
H79	H	1.016517	-0.142437	0.296878
O80	O	1.016734	-0.314159	0.297274
C81	C	1.062132	-0.251417	0.368265
H82	H	1.032140	-0.188796	0.379793
H83	H	1.066440	-0.277346	0.464636
H84	H	1.124524	-0.237374	0.317774
H85	H	1.042192	-0.548422	0.336988
H86	H	1.035062	-0.713667	0.325831
