data_functionalizedCrystal
_audit_creation_method	'MofGen! by Chris Wilmer'
_symmetry_space_group_name_H-M	'P1'
_symmetry_Int_Tables_number	1
_symmetry_cell_setting	triclinic
loop_
_symmetry_equiv_pos_as_xyz
  x,y,z
_cell_length_a	18.101398
_cell_length_b	18.101395
_cell_length_c	18.215399
_cell_angle_alpha	89.971163
_cell_angle_beta	89.992577
_cell_angle_gamma	90.026661
loop_
_atom_site_label
_atom_site_type_symbol
_atom_site_fract_x
_atom_site_fract_y
_atom_site_fract_z
Zn1	Zn	1.132104	-0.294907	-0.415939
Zn2	Zn	1.632104	0.205093	0.084061
Zn3	Zn	1.132005	-0.418759	-0.292876
Zn4	Zn	1.632005	0.081241	0.207124
Zn5	Zn	1.008268	-0.294926	-0.292907
Zn6	Zn	1.508268	0.205074	0.207093
Zn7	Zn	1.008214	-0.418702	-0.415921
Zn8	Zn	1.508214	0.081298	0.084079
O9	O	1.070148	-0.356824	-0.354411
O10	O	1.570148	0.143176	0.145589
O11	O	1.235724	-0.311353	-0.399609
O12	O	1.735724	0.188647	0.100391
O13	O	1.115572	-0.402364	-0.189896
O14	O	1.615572	0.097636	0.310104
O15	O	1.024759	-0.191291	-0.309247
O16	O	1.524759	0.308709	0.190753
O17	O	1.235651	-0.402346	-0.309195
O18	O	1.735651	0.097654	0.190805
O19	O	1.115741	-0.191277	-0.399639
O20	O	1.615741	0.308723	0.100361
O21	O	1.024663	-0.311385	-0.189918
O22	O	1.524663	0.188615	0.310082
O23	O	0.904628	-0.311330	-0.309230
O24	O	1.404628	0.188670	0.190770
O25	O	1.024667	-0.402249	-0.518908
O26	O	1.524667	0.097751	-0.018908
O27	O	0.904588	-0.402267	-0.399608
O28	O	1.404588	0.097733	0.100392
O29	O	1.115688	-0.311297	-0.518921
O30	O	1.615688	0.188703	-0.018921
O31	O	1.115519	-0.522384	-0.309178
O32	O	1.615519	-0.022384	0.190822
O33	O	1.024571	-0.522343	-0.399579
O34	O	1.524571	-0.022343	0.100421
C35	C	0.877737	-0.356795	-0.354421
C36	C	1.377737	0.143205	0.145579
C37	C	0.795423	-0.356800	-0.354443
C38	C	1.295423	0.143200	0.145557
C39	C	0.496332	-0.356844	-0.354412
C40	C	0.996332	0.143156	0.145588
C41	C	0.527657	-0.414336	-0.410995
C42	C	1.027657	0.085664	0.089005
C43	C	0.613275	-0.414156	-0.411227
C44	C	1.113275	0.085844	0.088773
C45	C	0.644715	-0.356823	-0.354427
C46	C	1.144715	0.143177	0.145573
C47	C	0.613659	-0.278820	-0.375619
C48	C	1.113659	0.221180	0.124381
C49	C	0.528014	-0.279165	-0.376022
C50	C	1.028014	0.220835	0.123978
C51	C	0.527883	-0.376667	-0.276501
C52	C	1.027883	0.123333	0.223499
C53	C	0.613533	-0.378378	-0.276917
C54	C	1.113533	0.121622	0.223083
C55	C	0.728574	-0.356806	-0.354435
C56	C	1.228574	0.143194	0.145565
C57	C	0.412473	-0.356855	-0.354406
C58	C	0.912473	0.143145	0.145594
C59	C	1.070049	-0.549234	-0.354389
C60	C	1.570049	-0.049234	0.145611
C61	C	1.070074	-0.631548	-0.354404
C62	C	1.570074	-0.131548	0.145596
C63	C	1.070236	-0.930639	-0.354444
C64	C	1.570236	-0.430639	0.145556
C65	C	1.013147	-0.899319	-0.411463
C66	C	1.513147	-0.399319	0.088537
C67	C	1.012875	-0.813701	-0.411285
C68	C	1.512875	-0.313701	0.088715
C69	C	1.070156	-0.782257	-0.354425
C70	C	1.570156	-0.282257	0.145575
C71	C	1.049030	-0.813409	-0.276867
C72	C	1.549030	-0.313409	0.223133
C73	C	1.048662	-0.899054	-0.277209
C74	C	1.548662	-0.399054	0.222791
C75	C	1.148577	-0.898989	-0.374300
C76	C	1.648577	-0.398989	0.125700
C77	C	1.148117	-0.813337	-0.376001
C78	C	1.648117	-0.313337	0.123999
C79	C	1.070111	-0.698397	-0.354409
C80	C	1.570111	-0.198397	0.145591
C81	C	1.070279	-1.014499	-0.354454
C82	C	1.570279	-0.514499	0.145546
C83	C	1.263309	-0.356854	-0.354401
C84	C	1.763309	0.143146	0.145599
C85	C	1.345624	-0.356866	-0.354397
C86	C	1.845624	0.143134	0.145603
C87	C	1.070183	-0.356765	-0.546364
C88	C	1.570183	0.143235	-0.046364
C89	C	1.070197	-0.356739	-0.628163
C90	C	1.570197	0.143261	-0.128163
C91	C	1.070267	-0.163662	-0.354448
C92	C	1.570267	0.336338	0.145552
C93	C	1.070318	-0.081348	-0.354465
C94	C	1.570318	0.418652	0.145535
C95	C	1.022901	-0.309334	-0.816369
C96	C	1.522901	0.190666	-0.316369
C97	C	1.022914	-0.309320	-0.893228
C98	C	1.522914	0.190680	-0.393228
C99	C	1.117582	-0.404056	-0.893194
C100	C	1.617582	0.095944	-0.393194
C101	C	1.117565	-0.404074	-0.816337
C102	C	1.617565	0.095926	-0.316337
C103	C	1.070226	-0.356709	-0.777926
C104	C	1.570226	0.143291	-0.277926
C105	C	1.070256	-0.356676	-0.931642
C106	C	1.570256	0.143324	-0.431642
C107	C	1.070270	-0.356660	-1.014976
C108	C	1.570270	0.143340	-0.514976
C109	C	1.070210	-0.356726	-0.694587
C110	C	1.570210	0.143274	-0.194587
C111	C	1.070155	-0.356829	-0.163204
C112	C	1.570155	0.143171	0.336796
C113	C	1.070284	-0.356646	-0.081406
C114	C	1.570284	0.143354	0.418594
H115	H	0.634271	-0.471999	-0.397946
H116	H	1.134271	0.028001	0.102054
O117	O	0.935958	-0.786638	-0.393862
O118	O	1.435958	-0.286638	0.106138
H119	H	0.935493	-0.725322	-0.393681
H120	H	1.435493	-0.225322	0.106319
O121	O	0.973974	-0.785085	-0.254185
O122	O	1.473974	-0.285085	0.245815
H123	H	0.979215	-0.753154	-0.202441
H124	H	1.479215	-0.253154	0.297559
H125	H	0.506144	-0.401386	-0.468389
H126	H	1.006144	0.098614	0.031611
H127	H	1.026092	-0.792636	-0.468793
H128	H	1.526092	-0.292636	0.031207
H129	H	0.634934	-0.339545	-0.232494
H130	H	1.134934	0.160455	0.267506
H131	H	0.991395	-0.919093	-0.260387
H132	H	1.491395	-0.419093	0.239613
H133	H	0.507626	-0.334790	-0.234341
H134	H	1.007626	0.165210	0.265659
H135	H	0.633837	-0.435777	-0.260934
H136	H	1.133837	0.064223	0.239066
O137	O	1.030206	-0.926891	-0.487822
O138	O	1.530206	-0.426891	0.012178
H139	H	1.079590	-0.963166	-0.485963
H140	H	1.579590	-0.463166	0.014037
H141	H	0.955431	-0.920901	-0.398477
H142	H	1.455431	-0.420901	0.101523
O143	O	0.640638	-0.220531	-0.322743
O144	O	1.140638	0.279469	0.177257
H145	H	0.676556	-0.246601	-0.280700
H146	H	1.176556	0.253399	0.219300
O147	O	1.204962	-0.925982	-0.319415
O148	O	1.704962	-0.425982	0.180585
H149	H	1.177366	-0.961745	-0.278176
H150	H	1.677366	-0.461745	0.221824
H151	H	0.507042	-0.472368	-0.397861
H152	H	1.007042	0.027632	0.102139
O153	O	1.101337	-0.926512	-0.219009
O154	O	1.601337	-0.426512	0.280991
H155	H	1.126957	-0.878616	-0.190742
H156	H	1.626957	-0.378616	0.309258
H157	H	1.089303	-0.793043	-0.233226
H158	H	1.589303	-0.293043	0.266774
H159	H	1.167839	-0.920537	-0.429891
H160	H	1.667839	-0.420537	0.070109
O161	O	1.169236	-0.786355	-0.451600
O162	O	1.669236	-0.286355	0.048400
H163	H	1.124402	-0.750952	-0.473720
H164	H	1.624402	-0.250952	0.026280
O165	O	0.499247	-0.450717	-0.250984
O166	O	0.999247	0.049283	0.249016
H167	H	0.468079	-0.443543	-0.198997
H168	H	0.968079	0.056457	0.301003
O169	O	1.207441	-0.785015	-0.324981
O170	O	1.707441	-0.285015	0.175019
H171	H	1.182173	-0.748180	-0.283262
H172	H	1.682173	-0.248180	0.216738
H173	H	0.984377	-0.270743	-0.924525
H174	H	1.484377	0.229257	-0.424525
H175	H	1.156125	-0.442618	-0.924477
H176	H	1.656125	0.057382	-0.424477
O177	O	1.168619	-0.455165	-0.774864
O178	O	1.668619	0.044835	-0.274864
H179	H	1.201551	-0.488087	-0.814484
H180	H	1.701551	0.011913	-0.314484
O181	O	0.971840	-0.258251	-0.774943
O182	O	1.471840	0.241749	-0.274943
H183	H	0.979783	-0.266214	-0.715040
H184	H	1.479783	0.233786	-0.215040
O185	O	0.642110	-0.256140	-0.450235
O186	O	1.142110	0.243860	0.049765
H187	H	0.624046	-0.297131	-0.491831
H188	H	1.124046	0.202869	0.008169
H189	H	0.633775	-0.401039	-0.468955
H190	H	1.133775	0.098961	0.031045
H191	H	0.507294	-0.234794	-0.336699
H192	H	1.007294	0.265206	0.163301
O193	O	0.501560	-0.256898	-0.451465
O194	O	1.001560	0.243102	0.048535
H195	H	0.549939	-0.245989	-0.487320
H196	H	1.049939	0.254011	0.012680
