data_functionalizedCrystal
_audit_creation_method	'MofGen! by Chris Wilmer'
_symmetry_space_group_name_H-M	'P1'
_symmetry_Int_Tables_number	1
_symmetry_cell_setting	triclinic
loop_
_symmetry_equiv_pos_as_xyz
  x,y,z
_cell_length_a	8.497374
_cell_length_b	10.686203
_cell_length_c	10.686220
_cell_angle_alpha	89.652027
_cell_angle_beta	85.634072
_cell_angle_gamma	85.629853
loop_
_atom_site_label
_atom_site_type_symbol
_atom_site_fract_x
_atom_site_fract_y
_atom_site_fract_z
Zn1	Zn	0.670961	0.352261	1.956002
Zn2	Zn	0.385569	0.561978	1.972052
Zn3	Zn	0.425732	0.368354	1.746285
Zn4	Zn	0.667845	0.578082	1.762317
O5	O	0.537527	0.465169	1.859164
O6	O	0.617600	0.366606	2.133673
O7	O	0.170134	0.536288	1.942112
O8	O	0.476374	0.190679	1.760678
O9	O	0.407923	0.520684	2.145465
O10	O	0.656543	0.178856	1.914756
O11	O	0.199641	0.394033	1.776242
O12	O	0.473352	0.409649	1.572870
O13	O	0.889021	0.548132	1.788001
O14	O	0.651232	0.563736	1.584648
O15	O	0.891310	0.382222	1.930301
O16	O	0.404902	0.739654	1.957657
O17	O	0.612288	0.751486	1.803565
C18	C	0.566313	0.490187	1.533243
C19	C	0.578662	0.500921	1.393815
C20	C	0.503930	0.791083	1.884126
C21	C	0.489600	0.930501	1.894920
C22	C	0.949008	0.465171	1.859155
C23	C	1.127650	0.465184	1.859159
C24	C	0.508629	0.440053	2.186358
C25	C	0.496315	0.429351	2.325788
C26	C	0.571304	1.137981	1.834126
C27	C	0.585743	0.998555	1.823426
H28	H	0.658606	0.570417	1.345383
C29	C	0.363567	0.995872	1.988762
H30	H	0.305167	0.934483	2.032161
H31	H	0.413951	1.042733	2.047281
H32	H	0.293806	1.050716	1.944725
C33	C	0.388319	0.335473	1.391199
H34	H	0.393920	0.340321	1.479471
H35	H	0.282279	0.355322	1.371174
H36	H	0.422156	0.252846	1.363324
H37	H	0.679021	0.950160	1.753960
