data_functionalizedCrystal
_audit_creation_method	'MofGen! by Chris Wilmer'
_symmetry_space_group_name_H-M	'P1'
_symmetry_Int_Tables_number	1
_symmetry_cell_setting	triclinic
loop_
_symmetry_equiv_pos_as_xyz
  x,y,z
_cell_length_a	10.723024
_cell_length_b	17.699083
_cell_length_c	16.176319
_cell_angle_alpha	90.001389
_cell_angle_beta	89.994397
_cell_angle_gamma	96.124558
loop_
_atom_site_label
_atom_site_type_symbol
_atom_site_fract_x
_atom_site_fract_y
_atom_site_fract_z
O1	O	0.157797	-1.005074	-0.068628
O2	O	0.178327	-0.784825	-0.068655
O3	O	-0.013601	-0.900030	-0.068638
O4	O	0.349725	-0.889869	-0.068646
O5	O	-0.013613	-0.900014	0.068855
O6	O	0.178315	-0.784809	0.068838
O7	O	0.157785	-1.005058	0.068865
Cu8	Cu	0.168049	-0.894932	0.081406
Cu9	Cu	0.168063	-0.894951	-0.081196
O10	O	0.349713	-0.889853	0.068848
C11	C	0.177585	-0.756616	0.000088
C12	C	0.175378	-0.672584	0.000078
C13	C	-0.060094	-0.899283	0.000107
C14	C	-0.198610	-0.897070	0.000104
C15	C	0.158527	-1.033268	0.000120
C16	C	0.160734	-1.117300	0.000125
C17	C	-0.274698	-0.961533	0.000111
C18	C	-0.417863	-0.959248	0.000108
C19	C	0.396206	-0.890601	0.000100
C20	C	0.534723	-0.892813	0.000098
N21	N	0.168038	-0.894924	0.195771
C22	C	0.288036	-0.624673	0.000076
C23	C	0.285955	-0.545717	0.000086
C24	C	0.171215	-0.514672	0.000093
C25	C	0.058549	-0.562589	0.000098
C26	C	0.060631	-0.641544	0.000093
C27	C	0.050148	-0.244173	0.000118
C28	C	0.048075	-0.165212	0.000121
C29	C	0.275473	-0.148346	0.000112
C30	C	0.277555	-0.227301	0.000107
C31	C	0.164889	-0.275210	0.000116
C32	C	0.167147	-0.360824	0.000106
C33	C	0.168956	-0.429060	0.000097
N34	N	0.168064	-0.894965	-0.195561
C35	C	0.083087	-0.945953	0.239042
C36	C	0.083085	-0.945957	0.325590
C37	C	0.168042	-0.894935	0.368863
C38	C	0.252997	-0.843901	0.325586
C39	C	0.252992	-0.843894	0.239040
C40	C	0.253021	-0.843927	0.674614
C41	C	0.253022	-0.843940	0.761165
C42	C	0.083115	-0.945989	0.761163
C43	C	0.083109	-0.945983	0.674618
C44	C	0.168059	-0.894946	0.631348
C45	C	0.168058	-0.894942	0.537503
C46	C	0.168050	-0.894943	0.462706
H47	H	-0.233851	-1.018413	0.000123
H48	H	0.013911	-0.987507	0.360821
H49	H	-0.399906	-0.837625	0.000098
H50	H	0.322167	-0.802355	0.360824
H51	H	-0.483241	-1.014433	0.000117
Br52	Br	-0.266677	-0.802260	0.000081
H53	H	-0.034875	-0.537306	0.000115
H54	H	0.381471	-0.649943	0.000069
H55	H	0.322166	-0.802341	0.203809
Br56	Br	0.428380	-0.083321	0.000101
Br57	Br	-0.092268	-0.706566	0.000103
Br58	Br	0.368309	-0.774668	0.615894
H59	H	0.370988	-0.252572	0.000098
H60	H	0.377693	-0.506711	0.000084
H61	H	0.013910	-0.987503	0.203815
H62	H	-0.041591	-0.283172	0.000126
H63	H	-0.045366	-0.139939	0.000127
Br64	Br	-0.032186	-1.015232	0.615892
Br65	Br	-0.032180	-1.015254	0.819891
H66	H	0.322207	-0.802389	0.796397
