data_functionalizedCrystal
_audit_creation_method	'MofGen! by Chris Wilmer'
_symmetry_space_group_name_H-M	'P1'
_symmetry_Int_Tables_number	1
_symmetry_cell_setting	triclinic
loop_
_symmetry_equiv_pos_as_xyz
  x,y,z
_cell_length_a	16.109318
_cell_length_b	9.565339
_cell_length_c	16.109301
_cell_angle_alpha	90.002222
_cell_angle_beta	83.465022
_cell_angle_gamma	89.993674
loop_
_atom_site_label
_atom_site_type_symbol
_atom_site_fract_x
_atom_site_fract_y
_atom_site_fract_z
O1	O	1.103115	0.116148	0.106932
O2	O	1.603115	0.616148	0.606932
O3	O	0.861055	0.116177	0.120216
O4	O	1.361055	0.616177	0.620216
O5	O	0.988734	0.116148	-0.007457
O6	O	1.488734	0.616148	0.492543
O7	O	0.975435	0.116178	0.234605
O8	O	1.475435	0.616178	0.734605
O9	O	0.988740	-0.116373	-0.007453
O10	O	1.488740	0.383627	0.492547
O11	O	0.861060	-0.116343	0.120220
O12	O	1.361060	0.383657	0.620220
O13	O	1.103120	-0.116372	0.106936
O14	O	1.603120	0.383628	0.606936
Zn15	Zn	0.982091	-0.153275	0.113578
Zn16	Zn	1.482091	0.346725	0.613578
Zn17	Zn	0.982084	0.153080	0.113573
Zn18	Zn	1.482084	0.653080	0.613573
O19	O	0.975441	-0.116343	0.234608
O20	O	1.475441	0.383657	0.734608
C21	C	0.830083	-0.000080	0.119677
C22	C	1.330083	0.499920	0.619677
C23	C	0.737788	-0.000069	0.118057
C24	C	1.237788	0.499931	0.618057
N25	N	0.982102	-0.362354	0.113581
N26	N	1.482102	0.137646	0.613581
C27	C	0.438711	0.126652	0.112820
C28	C	0.938711	0.626652	0.612820
C29	C	0.525433	0.126661	0.114337
C30	C	1.025433	0.626661	0.614337
C31	C	0.525458	-0.126845	0.114330
C32	C	1.025458	0.373155	0.614330
C33	C	0.438739	-0.126852	0.112806
C34	C	0.938739	0.373148	0.612806
C35	C	0.395367	-0.000099	0.112056
C36	C	0.895367	0.499901	0.612056
C37	C	0.568807	-0.000083	0.115096
C38	C	1.068807	0.499917	0.615096
C39	C	0.662835	-0.000075	0.116742
C40	C	1.162835	0.499925	0.616742
C41	C	0.301334	-0.000107	0.110409
C42	C	0.801334	0.499893	0.610409
C43	C	1.041168	-0.453534	0.054541
C44	C	1.541168	0.046466	0.554541
C45	C	0.966044	-0.546697	0.038408
C46	C	1.466044	-0.046697	0.538408
C47	C	1.057197	-0.546746	0.129660
C48	C	1.557197	-0.046746	0.629660
C49	C	0.906940	-0.453466	0.097411
C50	C	1.406940	0.046534	0.597411
C51	C	0.998142	-0.453507	0.188696
C52	C	1.498142	0.046493	0.688696
C53	C	0.922964	-0.546629	0.172595
C54	C	1.422964	-0.046629	0.672595
C55	C	1.134092	-0.000112	0.107474
C56	C	1.634092	0.499888	0.607474
C57	C	1.226387	-0.000114	0.109095
C58	C	1.726387	0.499886	0.609095
C59	C	0.988198	-0.000113	-0.038430
C60	C	1.488198	0.499887	0.461570
C61	C	0.986583	-0.000115	-0.130725
C62	C	1.486583	0.499885	0.369275
N63	N	0.982079	0.362159	0.113564
N64	N	1.482079	0.862159	0.613564
C65	C	1.058590	-0.000101	-0.352993
C66	C	1.558590	0.499899	0.147007
C67	C	1.057066	-0.000090	-0.439713
C68	C	1.557066	0.499910	0.060287
C69	C	0.905579	-0.000077	-0.419848
C70	C	1.405579	0.499923	0.080152
C71	C	0.907104	-0.000079	-0.333130
C72	C	1.407104	0.499921	0.166870
C73	C	0.983612	-0.000098	-0.299704
C74	C	1.483612	0.499902	0.200296
C75	C	0.980563	-0.000085	-0.473144
C76	C	1.480563	0.499915	0.026856
C77	C	0.978910	-0.000072	-0.567170
C78	C	1.478910	0.499928	-0.067170
C79	C	0.985265	-0.000108	-0.205672
C80	C	1.485265	0.499892	0.294328
C81	C	0.975976	-0.000079	0.265581
C82	C	1.475976	0.499921	0.765581
C83	C	0.977592	-0.000068	0.357877
C84	C	1.477592	0.499932	0.857877
H85	H	0.403401	0.229863	0.112207
H86	H	0.903401	0.729863	0.612207
H87	H	0.403447	-0.230075	0.112183
H88	H	0.903447	0.269925	0.612183
Cl89	Cl	1.118215	-0.390416	-0.022581
Cl90	Cl	1.618215	0.109584	0.477419
Cl91	Cl	0.812837	-0.000062	-0.266133
Cl92	Cl	1.312837	0.499938	0.233867
H93	H	0.560720	0.229875	0.114958
H94	H	1.060720	0.729875	0.614958
Cl95	Cl	0.579986	-0.286182	0.115283
Cl96	Cl	1.079986	0.213818	0.615283
Cl97	Cl	0.945066	-0.609886	-0.059677
Cl98	Cl	1.445066	-0.109886	0.440323
Cl99	Cl	1.019150	-0.390248	0.286750
Cl100	Cl	1.519150	0.109752	0.786750
Cl101	Cl	0.808854	-0.390482	0.076288
Cl102	Cl	1.308854	0.109518	0.576288
H103	H	0.872949	-0.587247	0.222520
H104	H	1.372949	-0.087247	0.722520
H105	H	1.120713	-0.587720	0.143267
H106	H	1.620713	-0.087720	0.643267
H107	H	1.120888	-0.000114	-0.325781
H108	H	1.620888	0.499886	0.174219
Cl109	Cl	1.151329	-0.000091	-0.506702
Cl110	Cl	1.651329	0.499909	-0.006702
H111	H	0.843288	-0.000064	-0.447074
H112	H	1.343288	0.499936	0.052926
