data_functionalizedCrystal
_audit_creation_method	'MofGen! by Chris Wilmer'
_symmetry_space_group_name_H-M	'P1'
_symmetry_Int_Tables_number	1
_symmetry_cell_setting	triclinic
loop_
_symmetry_equiv_pos_as_xyz
  x,y,z
_cell_length_a	9.065215
_cell_length_b	9.065218
_cell_length_c	7.540329
_cell_angle_alpha	89.996257
_cell_angle_beta	89.999994
_cell_angle_gamma	94.984709
loop_
_atom_site_label
_atom_site_type_symbol
_atom_site_fract_x
_atom_site_fract_y
_atom_site_fract_z
O1	O	1.960395	-0.216339	0.147458
O2	O	2.460395	0.283661	0.647458
O3	O	1.531110	-0.234090	0.147464
O4	O	2.031110	0.265910	0.647464
O5	O	1.754626	-0.010572	0.147457
O6	O	2.254626	0.489428	0.647457
O7	O	1.736879	-0.439857	0.147465
O8	O	2.236879	0.060143	0.647465
O9	O	1.754624	-0.010560	-0.147508
O10	O	2.254624	0.489440	0.352492
O11	O	1.531108	-0.234078	-0.147501
O12	O	2.031108	0.265922	0.352499
O13	O	1.960393	-0.216327	-0.147507
O14	O	2.460393	0.283673	0.352493
Cu15	Cu	1.745750	-0.225201	-0.174437
Cu16	Cu	2.245750	0.274799	0.325563
Cu17	Cu	1.745753	-0.225216	0.174394
Cu18	Cu	2.245753	0.274784	0.674394
O19	O	1.736877	-0.439845	-0.147500
O20	O	2.236877	0.060155	0.352500
C21	C	1.752919	0.044421	-0.000022
C22	C	2.252919	0.544421	0.499978
C23	C	1.747819	0.208264	-0.000014
C24	C	2.247819	0.708264	0.499986
C25	C	1.476122	-0.232379	-0.000017
C26	C	1.976122	0.267621	0.499983
C27	C	1.312279	-0.227281	-0.000015
C28	C	1.812279	0.272719	0.499985
C29	C	2.015381	-0.218038	-0.000022
C30	C	2.515381	0.281962	0.499978
C31	C	2.179224	-0.223136	-0.000013
C32	C	2.679224	0.276864	0.499987
C33	C	1.738584	-0.494837	-0.000017
C34	C	2.238584	0.005163	0.499983
C35	C	1.743683	-0.658680	-0.000014
C36	C	2.243683	-0.158680	0.499986
N37	N	1.745760	-0.225190	-0.419785
N38	N	2.245760	0.274810	0.080215
N39	N	1.745755	-0.225215	0.419742
N40	N	2.245755	0.274785	0.919742
