data_functionalizedCrystal
_audit_creation_method	'MofGen! by Chris Wilmer'
_symmetry_space_group_name_H-M	'P1'
_symmetry_Int_Tables_number	1
_symmetry_cell_setting	triclinic
loop_
_symmetry_equiv_pos_as_xyz
  x,y,z
_cell_length_a	19.805407
_cell_length_b	12.594516
_cell_length_c	19.805399
_cell_angle_alpha	89.977527
_cell_angle_beta	89.982197
_cell_angle_gamma	90.009132
loop_
_atom_site_label
_atom_site_type_symbol
_atom_site_fract_x
_atom_site_fract_y
_atom_site_fract_z
Zn1	Zn	1.034804	-0.423843	-0.382712
Zn2	Zn	1.534804	0.076157	0.117288
Zn3	Zn	1.034748	-0.601836	-0.269534
Zn4	Zn	1.534748	-0.101836	0.230466
Zn5	Zn	0.921619	-0.423864	-0.269540
Zn6	Zn	1.421619	0.076136	0.230460
Zn7	Zn	0.921611	-0.601772	-0.382684
Zn8	Zn	1.421611	-0.101772	0.117316
O9	O	0.978196	-0.512829	-0.326117
O10	O	1.478196	-0.012829	0.173883
O11	O	1.129513	-0.447473	-0.367707
O12	O	1.629513	0.052527	0.132293
O13	O	1.019721	-0.578264	-0.174818
O14	O	1.519721	-0.078264	0.325182
O15	O	0.936660	-0.274915	-0.284567
O16	O	1.436660	0.225085	0.215433
O17	O	1.129472	-0.578244	-0.284556
O18	O	1.629472	-0.078244	0.215444
O19	O	1.019817	-0.274900	-0.367713
O20	O	1.519817	0.225100	0.132287
O21	O	0.936605	-0.447508	-0.174822
O22	O	1.436605	0.052492	0.325178
O23	O	0.826901	-0.447445	-0.284540
O24	O	1.326901	0.052555	0.215460
O25	O	0.936647	-0.578133	-0.477404
O26	O	1.436647	-0.078133	0.022596
O27	O	0.826896	-0.578153	-0.367666
O28	O	1.326896	-0.078153	0.132334
O29	O	1.019809	-0.447410	-0.477425
O30	O	1.519809	0.052590	0.022575
O31	O	1.019713	-0.750774	-0.284529
O32	O	1.519713	-0.250774	0.215471
O33	O	0.936592	-0.750726	-0.367660
O34	O	1.436592	-0.250726	0.132340
C35	C	0.802340	-0.512795	-0.326101
C36	C	1.302340	-0.012795	0.173899
C37	C	0.727108	-0.512807	-0.326110
C38	C	1.227108	-0.012807	0.173890
C39	C	0.691786	-0.444835	-0.369473
C40	C	1.191786	0.055165	0.130527
C41	C	0.621097	-0.444840	-0.369475
C42	C	1.121097	0.055160	0.130525
C43	C	0.585732	-0.512824	-0.326118
C44	C	1.085732	-0.012824	0.173882
C45	C	0.621059	-0.580799	-0.282750
C46	C	1.121059	-0.080799	0.217250
C47	C	0.691746	-0.580787	-0.282745
C48	C	1.191746	-0.080787	0.217255
C49	C	0.335986	-0.580847	-0.282771
C50	C	0.835986	-0.080847	0.217229
C51	C	0.265294	-0.580856	-0.282781
C52	C	0.765294	-0.080856	0.217219
C53	C	0.265337	-0.444900	-0.369502
C54	C	0.765337	0.055100	0.130498
C55	C	0.336024	-0.444888	-0.369496
C56	C	0.836024	0.055112	0.130504
C57	C	0.371345	-0.512859	-0.326126
C58	C	0.871345	-0.012859	0.173874
C59	C	0.447993	-0.512850	-0.326123
C60	C	0.947993	-0.012850	0.173877
C61	C	0.509085	-0.512839	-0.326124
C62	C	1.009085	-0.012839	0.173876
C63	C	0.978164	-0.789370	-0.326105
C64	C	1.478164	-0.289370	0.173895
C65	C	0.978213	-0.907675	-0.326123
C66	C	1.478213	-0.407675	0.173877
C67	C	1.023475	-0.976916	-0.280956
C68	C	1.523475	-0.476916	0.219044
C69	C	1.040013	-1.047622	-0.342735
C70	C	1.540013	-0.547622	0.157265
C71	C	0.961760	-1.047767	-0.264384
C72	C	1.461760	-0.547767	0.235616
C73	C	0.994782	-0.976824	-0.387934
C74	C	1.494782	-0.476824	0.112066
C75	C	0.916500	-0.976962	-0.309542
C76	C	1.416500	-0.476962	0.190458
C77	C	0.933015	-1.047637	-0.371362
C78	C	1.433015	-0.547637	0.128638
C79	C	1.154738	-0.512863	-0.326134
C80	C	1.654738	-0.012863	0.173866
C81	C	1.229970	-0.512878	-0.326141
C82	C	1.729970	-0.012878	0.173859
C83	C	0.978234	-0.512762	-0.502660
C84	C	1.478234	-0.012762	-0.002660
C85	C	0.978250	-0.512733	-0.577892
C86	C	1.478250	-0.012733	-0.077892
C87	C	0.978246	-0.235208	-0.326144
C88	C	1.478246	0.264792	0.173856
C89	C	0.978267	-0.116902	-0.326155
C90	C	1.478267	0.383098	0.173845
C91	C	1.021553	-0.444662	-0.613248
C92	C	1.521553	0.055338	-0.113248
C93	C	1.021560	-0.444631	-0.683936
C94	C	1.521560	0.055369	-0.183936
C95	C	0.978267	-0.512678	-0.719268
C96	C	1.478267	-0.012678	-0.219268
C97	C	0.934958	-0.580752	-0.683907
C98	C	1.434958	-0.080752	-0.183907
C99	C	0.934948	-0.580776	-0.613220
C100	C	1.434948	-0.080776	-0.113220
C101	C	0.934996	-0.580652	-0.968980
C102	C	1.434996	-0.080652	-0.468980
C103	C	0.935011	-0.580625	-1.039672
C104	C	1.435011	-0.080625	-0.539672
C105	C	1.021608	-0.444507	-1.039697
C106	C	1.521608	0.055493	-0.539697
C107	C	1.021599	-0.444532	-0.969010
C108	C	1.521599	0.055468	-0.469010
C109	C	0.978288	-0.512602	-0.933655
C110	C	1.478288	-0.012602	-0.433655
C111	C	0.978280	-0.512633	-0.857007
C112	C	1.478280	-0.012633	-0.357007
C113	C	0.978277	-0.512652	-0.795915
C114	C	1.478277	-0.012652	-0.295915
C115	C	0.978197	-0.512819	-0.150261
C116	C	1.478197	-0.012819	0.349739
C117	C	0.978312	-0.512547	-0.075030
C118	C	1.478312	-0.012547	0.424970
H119	H	0.592341	-0.389493	-0.404787
H120	H	1.092341	0.110507	0.095213
F121	F	0.888929	-0.653052	-1.077273
F122	F	1.388929	-0.153052	-0.577273
H123	H	1.056855	-0.389125	-0.940247
H124	H	1.556855	0.110875	-0.440247
H125	H	1.092225	-1.078663	-0.356778
H126	H	1.592225	-0.578663	0.143222
F127	F	1.013088	-0.936270	-0.456214
F128	F	1.513088	-0.436270	0.043786
F129	F	1.073511	-0.936324	-0.231076
F130	F	1.573511	-0.436324	0.268924
F131	F	1.067637	-0.372242	-0.575652
F132	F	1.567637	0.127758	-0.075652
H133	H	0.720504	-0.636137	-0.247434
H134	H	1.220504	-0.136137	0.252566
F135	F	0.883015	-1.087974	-0.421361
F136	F	1.383015	-0.587974	0.078639
H137	H	0.592259	-0.636148	-0.247445
H138	H	1.092259	-0.136148	0.252555
F139	F	0.848272	-0.936364	-0.291165
F140	F	1.348272	-0.436364	0.208835
H141	H	0.720575	-0.389477	-0.404781
H142	H	1.220575	0.110523	0.095219
H143	H	0.947821	-1.078928	-0.212159
H144	H	1.447821	-0.578928	0.287841
F145	F	0.888901	-0.653098	-0.931362
F146	F	1.388901	-0.153098	-0.431362
H147	H	1.056872	-0.389078	-1.068491
H148	H	1.556872	0.110922	-0.568491
F149	F	0.888879	-0.653168	-0.721511
F150	F	1.388879	-0.153168	-0.221511
H151	H	0.899679	-0.636196	-0.584434
H152	H	1.399679	-0.136196	-0.084434
H153	H	0.364815	-0.389532	-0.404804
H154	H	0.864815	0.110468	0.095196
H155	H	1.056824	-0.389204	-0.712720
H156	H	1.556824	0.110796	-0.212720
H157	H	0.236501	-0.636219	-0.247472
H158	H	0.736501	-0.136219	0.252528
F159	F	0.227740	-0.372556	-0.415658
F160	F	0.727740	0.127444	0.084342
H161	H	0.364735	-0.636194	-0.247457
H162	H	0.864735	-0.136194	0.252543
