data_functionalizedCrystal
_audit_creation_method	'MofGen! by Chris Wilmer'
_symmetry_space_group_name_H-M	'P1'
_symmetry_Int_Tables_number	1
_symmetry_cell_setting	triclinic
loop_
_symmetry_equiv_pos_as_xyz
  x,y,z
_cell_length_a	14.519731
_cell_length_b	15.944551
_cell_length_c	13.596369
_cell_angle_alpha	89.993059
_cell_angle_beta	89.994584
_cell_angle_gamma	83.593795
loop_
_atom_site_label
_atom_site_type_symbol
_atom_site_fract_x
_atom_site_fract_y
_atom_site_fract_z
O1	O	1.223664	0.110194	-0.081796
O2	O	0.955167	0.123142	-0.081797
O3	O	1.096747	-0.005596	-0.081788
O4	O	1.082083	0.238932	-0.081805
O5	O	1.096733	-0.005602	0.081795
O6	O	0.955153	0.123135	0.081785
O7	O	1.223650	0.110187	0.081787
Zn8	Zn	1.089399	0.116660	0.107759
Zn9	Zn	1.089417	0.116669	-0.107769
O10	O	1.082069	0.238925	0.081777
C11	C	0.920801	0.122532	-0.000006
C12	C	0.818424	0.120714	-0.000007
C13	C	0.735283	0.119237	-0.000010
C14	C	0.630977	0.117391	-0.000011
C15	C	0.547841	0.115926	-0.000010
C16	C	0.443528	0.114080	-0.000012
C17	C	1.096131	-0.036894	0.000004
C18	C	1.094306	-0.130143	0.000005
C19	C	1.002186	-0.345139	-0.000010
C20	C	1.044957	-0.406095	0.080647
C21	C	1.091005	-0.300874	-0.000003
C22	C	1.044991	-0.406072	-0.080633
C23	C	1.087809	-0.465791	-0.000015
C24	C	1.133800	-0.360601	0.080720
C25	C	1.133822	-0.360571	-0.080632
C26	C	1.176658	-0.421509	0.000044
C27	C	1.092843	-0.205868	0.000004
C28	C	1.085977	-0.560795	-0.000015
C29	C	1.258015	0.110797	-0.000006
C30	C	1.360392	0.112615	-0.000012
C31	C	1.082685	0.270223	-0.000016
C32	C	1.084510	0.363472	-0.000023
N33	N	1.089393	0.116654	0.254851
N34	N	1.089431	0.116669	-0.254861
C35	C	1.089416	0.116670	0.656141
C36	C	1.089407	0.116668	0.544490
C37	C	1.089405	0.116662	0.455500
C38	C	1.089395	0.116659	0.343841
H39	H	0.928462	-0.311944	0.000070
C40	C	1.184533	-0.333286	-0.172750
H41	H	1.152890	-0.348674	-0.230005
H42	H	1.246165	-0.360487	-0.173330
H43	H	1.185807	-0.273851	-0.171757
C44	C	1.276333	-0.466161	0.000105
H45	H	1.307725	-0.450604	0.057451
H46	H	1.308122	-0.449887	-0.056646
H47	H	1.274639	-0.525549	-0.000430
C48	C	0.994236	-0.433278	-0.172749
H49	H	0.932264	-0.406855	-0.172644
H50	H	0.993931	-0.492822	-0.172413
H51	H	1.025192	-0.416920	-0.230023
C52	C	1.184498	-0.333533	0.172941
H53	H	1.204526	-0.381895	0.211406
H54	H	1.143560	-0.295561	0.210643
H55	H	1.236697	-0.306456	0.153663
C56	C	0.994203	-0.433347	0.172760
H57	H	0.932224	-0.406940	0.172663
H58	H	1.025153	-0.417019	0.230035
H59	H	0.993902	-0.492896	0.172395
