data_functionalizedCrystal
_audit_creation_method	'MofGen! by Chris Wilmer'
_symmetry_space_group_name_H-M	'P1'
_symmetry_Int_Tables_number	1
_symmetry_cell_setting	triclinic
loop_
_symmetry_equiv_pos_as_xyz
  x,y,z
_cell_length_a	12.837942
_cell_length_b	10.654562
_cell_length_c	9.130313
_cell_angle_alpha	89.996930
_cell_angle_beta	89.998975
_cell_angle_gamma	89.659522
loop_
_atom_site_label
_atom_site_type_symbol
_atom_site_fract_x
_atom_site_fract_y
_atom_site_fract_z
O1	O	0.145782	1.683733	-0.121896
O2	O	0.159651	1.319770	-0.121878
O3	O	0.001755	1.493681	-0.121877
O4	O	0.303678	1.509822	-0.121896
O5	O	0.001760	1.493679	0.121721
O6	O	0.159656	1.319768	0.121721
O7	O	0.145786	1.683731	0.121703
Cu8	Cu	0.152721	1.501750	0.143954
Cu9	Cu	0.152716	1.501752	-0.144129
O10	O	0.303682	1.509820	0.121703
C11	C	0.158632	1.272860	-0.000076
C12	C	0.155577	1.133084	-0.000069
C13	C	0.154155	1.067397	0.132706
C14	C	0.151292	0.936062	0.132681
C15	C	0.151280	0.936114	-0.132904
C16	C	0.154135	1.067446	-0.132878
C17	C	0.154166	1.067366	0.286039
C18	C	0.151304	0.936031	0.286015
C19	C	-0.036902	1.488227	-0.000079
C20	C	-0.152097	1.471965	-0.000080
C21	C	-0.391643	1.667469	-0.000121
C22	C	-0.499879	1.652195	-0.000122
C23	C	-0.476808	1.426144	-0.000096
C24	C	-0.368572	1.441418	-0.000094
C25	C	-0.325993	1.562084	-0.000104
C26	C	-0.217755	1.577357	-0.000092
C27	C	-0.194686	1.351307	-0.000076
C28	C	-0.302922	1.336033	-0.000078
C29	C	0.342340	1.515274	-0.000100
C30	C	0.457534	1.531536	-0.000108
C31	C	0.146805	1.730641	-0.000102
C32	C	0.149860	1.870417	-0.000119
N33	N	0.152724	1.501757	0.346577
N34	N	0.152705	1.501753	-0.346752
C35	C	0.082832	1.578789	0.423229
C36	C	0.082819	1.578785	0.576566
C37	C	0.222601	1.424712	0.576585
C38	C	0.222607	1.424711	0.423251
C39	C	0.002133	1.667746	0.423219
C40	C	0.002120	1.667741	0.576556
H41	H	0.082466	1.105801	0.344927
C42	C	-0.443144	1.204232	-0.000107
C43	C	-0.523622	1.293515	-0.000112
H44	H	-0.472048	1.122353	-0.000131
H45	H	-0.401421	1.214876	0.084847
H46	H	-0.401395	1.214906	-0.085050
H47	H	-0.565367	1.282846	0.084838
H48	H	-0.565363	1.282866	-0.085074
C49	C	-0.109408	1.725659	-0.125332
C50	C	-0.170944	1.709988	-0.000110
H51	H	-0.080507	1.807539	-0.125339
H52	H	-0.151151	1.715000	-0.210264
H53	H	-0.054821	1.665074	-0.125302
H54	H	-0.225536	1.770567	-0.000145
H55	H	-0.129199	1.720660	0.084844
C56	C	-0.634990	1.766158	0.125081
C57	C	-0.572045	1.768034	-0.000138
H58	H	-0.679547	1.837672	0.125061
H59	H	-0.592289	1.767430	0.210015
H60	H	-0.675836	1.692106	0.125074
H61	H	-0.531194	1.842082	-0.000125
H62	H	-0.614751	1.766773	-0.085094
C63	C	0.281829	1.214401	0.623817
C64	C	0.299413	1.340028	0.660875
H65	H	0.329247	1.162122	0.675861
H66	H	0.291844	1.203387	0.521540
H67	H	0.212472	1.192492	0.648943
H68	H	0.368768	1.361940	0.635738
H69	H	0.289406	1.351048	0.763175
H70	H	-0.337605	1.237790	-0.000075
H71	H	-0.356975	1.765720	-0.000115
H72	H	-0.141222	1.265495	-0.000051
C73	C	-0.170811	1.602346	0.486313
C74	C	-0.105514	1.627041	0.367027
H75	H	-0.237263	1.577209	0.451618
H76	H	-0.178136	1.675999	0.544096
H77	H	-0.141323	1.537065	0.544109
H78	H	-0.134998	1.692330	0.309236
H79	H	-0.098193	1.553380	0.309220
H80	H	0.279510	1.361974	0.360842
C81	C	0.058635	1.877848	0.473206
C82	C	0.036241	1.794561	0.358993
H83	H	0.079687	1.956139	0.433550
H84	H	0.113184	1.844142	0.531755
H85	H	-0.001787	1.889762	0.531754
H86	H	0.096665	1.782640	0.300451
H87	H	-0.018313	1.828275	0.300419
H88	H	-0.073240	1.629005	0.624110
C89	C	0.309681	0.983957	0.413647
C90	C	0.248104	0.884096	0.365451
H91	H	0.369442	0.951892	0.462675
H92	H	0.270499	1.035004	0.479047
H93	H	0.330878	1.032689	0.331896
H94	H	0.226901	0.835369	0.447204
H95	H	0.287294	0.833029	0.300048
H96	H	0.155277	1.120924	-0.240995
H97	H	0.019900	1.766192	0.618167
H98	H	0.229834	1.105197	0.333611
C99	C	0.146897	0.734812	-0.250870
C100	C	0.149704	0.863959	-0.278882
H101	H	0.145932	0.690271	-0.340995
H102	H	0.086038	0.715626	-0.196319
H103	H	0.206829	0.710950	-0.196316
H104	H	0.089767	0.887823	-0.333427
H105	H	0.210569	0.883153	-0.333456
H106	H	0.075638	0.898186	0.333599
