data_functionalizedCrystal
_audit_creation_method	'MofGen! by Chris Wilmer'
_symmetry_space_group_name_H-M	'P1'
_symmetry_Int_Tables_number	1
_symmetry_cell_setting	triclinic
loop_
_symmetry_equiv_pos_as_xyz
  x,y,z
_cell_length_a	19.188930
_cell_length_b	14.044220
_cell_length_c	13.101039
_cell_angle_alpha	86.332523
_cell_angle_beta	93.360061
_cell_angle_gamma	88.166828
loop_
_atom_site_label
_atom_site_type_symbol
_atom_site_fract_x
_atom_site_fract_y
_atom_site_fract_z
O1	O	-0.937307	-0.113041	-0.085551
O2	O	-0.735021	-0.128972	-0.085481
O3	O	-0.833127	0.016965	-0.085505
O4	O	-0.839201	-0.258978	-0.085527
O5	O	-0.826089	0.006477	0.084927
O6	O	-0.727983	-0.139460	0.084950
O7	O	-0.930269	-0.123529	0.084881
Zn8	Zn	-0.828009	-0.133160	0.111975
Zn9	Zn	-0.837282	-0.119341	-0.112576
O10	O	-0.832163	-0.269466	0.084904
C11	C	-0.705457	-0.133701	-0.000256
C12	C	-0.627852	-0.132154	-0.000229
C13	C	-0.826950	0.047024	-0.000288
C14	C	-0.819021	0.152217	-0.000284
C15	C	-0.959833	-0.118800	-0.000346
C16	C	-1.037439	-0.120346	-0.000380
C17	C	-0.588454	-0.217783	-0.000252
C18	C	-0.515537	-0.216328	-0.000263
C19	C	-0.482021	-0.129238	-0.000272
C20	C	-0.521427	-0.043598	-0.000243
C21	C	-0.594343	-0.045056	-0.000222
N22	N	-0.372142	-0.059097	-0.058313
N23	N	-0.302875	-0.057717	-0.058336
C24	C	-0.262331	-0.124839	-0.000335
N25	N	-0.293671	-0.193406	0.057677
N26	N	-0.362944	-0.194788	0.057695
C27	C	-0.402957	-0.127647	-0.000295
C28	C	-0.143869	-0.208896	-0.000368
C29	C	-0.070950	-0.207437	-0.000373
C30	C	-0.076842	-0.034705	-0.000363
C31	C	-0.149759	-0.036166	-0.000348
C32	C	-0.183268	-0.123264	-0.000355
N33	N	-0.821685	-0.142590	0.265225
C34	C	-0.838340	-0.299525	-0.000315
C35	C	-0.846269	-0.404717	-0.000326
C36	C	-0.804526	0.344819	-0.000293
C37	C	-0.860762	0.402686	-0.000316
C38	C	-0.852696	0.509857	-0.000321
C39	C	-0.812590	0.237638	-0.000288
N40	N	-0.843610	-0.109904	-0.265826
C41	C	-0.813083	-0.155429	0.474270
C42	C	-0.852211	-0.097068	0.525136
C43	C	-0.847424	-0.104212	0.641456
C44	C	-0.817868	-0.148286	0.357940
H45	H	-0.483454	-0.286059	-0.000279
H46	H	-0.049557	0.036210	-0.000434
N47	N	-0.901347	-0.023777	0.467115
H48	H	-0.897848	-0.028997	0.391040
H49	H	-0.950805	-0.035574	0.485779
N50	N	-0.932562	0.361713	-0.000328
H51	H	-0.941025	0.325083	-0.063503
H52	H	-0.935750	0.317372	0.062897
N53	N	-0.763950	-0.228715	0.532291
H54	H	-0.767455	-0.223493	0.608365
H55	H	-0.777043	-0.294752	0.513595
H56	H	-0.750328	0.375762	-0.000277
H57	H	-0.626420	0.024675	-0.000204
N58	N	-0.624588	-0.311726	-0.000262
H59	H	-0.607981	-0.353120	0.062908
H60	H	-0.676751	-0.299586	-0.000286
N61	N	-0.485282	0.050335	-0.000241
H62	H	-0.433112	0.038267	-0.000259
H63	H	-0.501941	0.091687	-0.063411
N64	N	-0.180017	-0.302830	-0.000371
H65	H	-0.143991	-0.356858	-0.000379
H66	H	-0.207518	-0.311084	0.062816
N67	N	-0.028474	-0.299821	-0.000337
H68	H	-0.042496	-0.333967	-0.063502
H69	H	0.022796	-0.285640	-0.000286
N70	N	-0.192257	0.056191	-0.000323
H71	H	-0.159963	0.111585	-0.000329
H72	H	-0.225268	0.063239	-0.063493
