data_functionalizedCrystal
_audit_creation_method	'MofGen! by Chris Wilmer'
_symmetry_space_group_name_H-M	'P1'
_symmetry_Int_Tables_number	1
_symmetry_cell_setting	triclinic
loop_
_symmetry_equiv_pos_as_xyz
  x,y,z
_cell_length_a	17.077404
_cell_length_b	12.594516
_cell_length_c	17.077396
_cell_angle_alpha	90.023145
_cell_angle_beta	90.019501
_cell_angle_gamma	90.016278
loop_
_atom_site_label
_atom_site_type_symbol
_atom_site_fract_x
_atom_site_fract_y
_atom_site_fract_z
Zn1	Zn	1.200092	-0.423736	0.443872
Zn2	Zn	1.700092	0.076264	0.943872
Zn3	Zn	1.200015	-0.601736	0.312618
Zn4	Zn	1.700015	-0.101736	0.812618
Zn5	Zn	1.068824	-0.423773	0.312620
Zn6	Zn	1.568824	0.076227	0.812620
Zn7	Zn	1.068807	-0.601673	0.443842
Zn8	Zn	1.568807	-0.101673	0.943842
O9	O	1.134434	-0.512730	0.378238
O10	O	1.634434	-0.012730	0.878238
O11	O	1.309929	-0.447359	0.426473
O12	O	1.809929	0.052641	0.926473
O13	O	1.182586	-0.578171	0.202771
O14	O	1.682586	-0.078171	0.702771
O15	O	1.086276	-0.274822	0.330044
O16	O	1.586276	0.225178	0.830044
O17	O	1.309872	-0.578135	0.330041
O18	O	1.809872	-0.078135	0.830041
O19	O	1.182718	-0.274795	0.426474
O20	O	1.682718	0.225205	0.926474
O21	O	1.086201	-0.447422	0.202773
O22	O	1.586201	0.052578	0.702773
O23	O	0.958975	-0.447361	0.330015
O24	O	1.458975	0.052639	0.830015
O25	O	1.086248	-0.578027	0.553693
O26	O	1.586248	-0.078027	1.053693
O27	O	0.958963	-0.578064	0.426423
O28	O	1.458963	-0.078064	0.926423
O29	O	1.182702	-0.447297	0.553715
O30	O	1.682702	0.052703	1.053715
O31	O	1.182571	-0.750674	0.330012
O32	O	1.682571	-0.250674	0.830012
O33	O	1.086173	-0.750627	0.426421
O34	O	1.586173	-0.250627	0.926421
C35	C	0.930487	-0.512710	0.378216
C36	C	1.430487	-0.012710	0.878216
C37	C	0.843237	-0.512728	0.378226
C38	C	1.343237	-0.012728	0.878226
C39	C	0.802261	-0.580887	0.428345
C40	C	1.302261	-0.080887	0.928345
C41	C	0.720280	-0.580890	0.428357
C42	C	1.220280	-0.080890	0.928357
C43	C	0.679277	-0.512737	0.378246
C44	C	1.179277	-0.012737	0.878246
C45	C	0.720259	-0.444570	0.328125
C46	C	1.220259	0.055430	0.828125
C47	C	0.802238	-0.444563	0.328117
C48	C	1.302238	0.055437	0.828117
C49	C	0.549389	-0.444591	0.328144
C50	C	1.049389	0.055409	0.828144
C51	C	0.467404	-0.444599	0.328150
C52	C	0.967404	0.055401	0.828150
C53	C	0.467431	-0.580917	0.428384
C54	C	0.967431	-0.080917	0.928384
C55	C	0.549410	-0.580910	0.428376
C56	C	1.049410	-0.080910	0.928376
C57	C	0.590386	-0.512745	0.378253
C58	C	1.090386	-0.012745	0.878253
C59	C	1.134383	-0.789271	0.378230
C60	C	1.634383	-0.289271	0.878230
C61	C	1.134433	-0.907576	0.378253
C62	C	1.634433	-0.407576	0.878253
C63	C	1.081997	-0.976843	0.430653
C64	C	1.581997	-0.476843	0.930653
C65	C	1.062873	-1.047703	0.359026
C66	C	1.562873	-0.547703	0.859026
C67	C	1.153628	-1.047515	0.449893
C68	C	1.653628	-0.547515	0.949893
C69	C	1.115271	-0.976878	0.306587
C70	C	1.615271	-0.476878	0.806587
C71	C	1.206059	-0.976684	0.397503
C72	C	1.706059	-0.476684	0.897503
C73	C	1.186963	-1.047512	0.325826
C74	C	1.686963	-0.547512	0.825826
C75	C	1.339179	-0.512750	0.378260
C76	C	1.839179	-0.012750	0.878260
C77	C	1.426428	-0.512758	0.378269
C78	C	1.926428	-0.012758	0.878269
C79	C	1.134482	-0.512651	0.582982
C80	C	1.634482	-0.012651	1.082982
C81	C	1.134502	-0.512618	0.670232
C82	C	1.634502	-0.012618	1.170232
C83	C	1.134507	-0.235109	0.378263
C84	C	1.634507	0.264891	0.878263
C85	C	1.134539	-0.116803	0.378273
C86	C	1.634539	0.383197	0.878273
C87	C	1.134432	-0.512731	0.174290
C88	C	1.634432	-0.012731	0.674290
C89	C	1.134564	-0.512465	0.087041
C90	C	1.634564	-0.012465	0.587041
C91	C	1.184728	-0.444541	0.711235
C92	C	1.684728	0.055459	1.211235
C93	C	1.184737	-0.444506	0.793216
C94	C	1.684737	0.055494	1.293216
C95	C	1.134524	-0.512553	0.834192
C96	C	1.634524	-0.012553	1.334192
C97	C	1.084293	-0.580633	0.793183
C98	C	1.584293	-0.080633	1.293183
C99	C	1.084281	-0.580662	0.711204
C100	C	1.584281	-0.080662	1.211204
C101	C	1.084325	-0.580569	0.964053
C102	C	1.584325	-0.080569	1.464053
C103	C	1.084339	-0.580541	1.046038
C104	C	1.584339	-0.080541	1.546038
C105	C	1.184782	-0.444412	1.046065
C106	C	1.684782	0.055588	1.546065
C107	C	1.184769	-0.444442	0.964086
C108	C	1.684769	0.055558	1.464086
C109	C	1.134538	-0.512523	0.923083
C110	C	1.634538	-0.012523	1.423083
H111	H	0.835599	-0.389055	0.287309
H112	H	1.335599	0.110945	0.787309
H113	H	1.099008	-0.945978	0.245994
H114	H	1.599008	-0.445978	0.745994
N115	N	0.846480	-0.654395	0.482396
N116	N	1.346480	-0.154395	0.982396
H117	H	0.904632	-0.644053	0.474786
H118	H	1.404632	-0.144053	0.974786
H119	H	0.832130	-0.730391	0.470085
H120	H	1.332130	-0.230391	0.970085
N121	N	1.286209	-0.935322	0.419094
N122	N	1.786209	-0.435322	0.919094
H123	H	1.307596	-0.891202	0.374594
H124	H	1.807596	-0.391202	0.874594
H125	H	1.322468	-0.997086	0.429431
H126	H	1.822468	-0.497086	0.929431
N127	N	0.676084	-0.654419	0.482403
N128	N	1.176084	-0.154419	0.982403
H129	H	0.714499	-0.697602	0.514139
H130	H	1.214499	-0.197602	1.014139
H131	H	0.642053	-0.703614	0.450379
H132	H	1.142053	-0.203614	0.950379
N133	N	1.175083	-1.088612	0.530132
N134	N	1.675083	-0.588612	1.030132
H135	H	1.224350	-1.132677	0.526444
H136	H	1.724350	-0.632677	1.026444
H137	H	1.130941	-1.133864	0.550987
H138	H	1.630941	-0.633864	1.050987
H139	H	0.582793	-0.636412	0.469177
H140	H	1.082793	-0.136412	0.969177
N141	N	0.423176	-0.371093	0.274104
N142	N	0.923176	0.128907	0.774104
H143	H	0.461572	-0.327903	0.242354
H144	H	0.961572	0.172097	0.742354
H145	H	0.389183	-0.321903	0.306126
H146	H	0.889183	0.178097	0.806126
N147	N	0.982702	-1.089037	0.337466
N148	N	1.482702	-0.589037	0.837466
H149	H	0.986505	-1.133194	0.288233
H150	H	1.486505	-0.633194	0.788233
H151	H	0.946166	-1.027257	0.328211
H152	H	1.446166	-0.527257	0.828211
N153	N	1.030180	-0.653911	1.090254
N154	N	1.530180	-0.153911	1.590254
H155	H	1.042332	-0.729976	1.075994
H156	H	1.542332	-0.229976	1.575994
H157	H	0.974117	-0.637276	1.075972
H158	H	1.474117	-0.137276	1.575972
N159	N	1.023158	-0.935714	0.489257
N160	N	1.523158	-0.435714	0.989257
H161	H	1.050930	-0.891507	0.530074
H162	H	1.550930	-0.391507	1.030074
H163	H	0.996161	-0.997584	0.515448
H164	H	1.496161	-0.497584	1.015448
N165	N	0.593590	-0.371078	0.274081
N166	N	1.093590	0.128922	0.774081
H167	H	0.627625	-0.321804	0.306037
H168	H	1.127625	0.178196	0.806037
H169	H	0.555129	-0.327978	0.242343
H170	H	1.055129	0.172022	0.742343
N171	N	0.676042	-0.371068	0.274067
N172	N	1.176042	0.128932	0.774067
H173	H	0.690292	-0.387510	0.217964
H174	H	1.190292	0.112490	0.717964
H175	H	0.690343	-0.295066	0.286414
H176	H	1.190343	0.204934	0.786414
N177	N	1.238931	-0.371058	0.919887
N178	N	1.738931	0.128942	1.419887
H179	H	1.270753	-0.327923	0.958300
H180	H	1.770753	0.172077	1.458300
H181	H	1.206986	-0.321812	0.885871
H182	H	1.706986	0.178188	1.385871
H183	H	0.434065	-0.636417	0.469198
H184	H	0.934065	-0.136417	0.969198
N185	N	1.245765	-1.088361	0.267080
N186	N	1.745765	-0.588361	0.767080
H187	H	1.231206	-1.062526	0.213021
H188	H	1.731206	-0.562526	0.713021
H189	H	1.245785	-1.168545	0.267796
H190	H	1.745785	-0.668545	0.767796
H191	H	1.225619	-0.389132	0.677878
H192	H	1.725619	0.110868	1.177878
H193	H	1.225638	-0.389073	0.826597
H194	H	1.725638	0.110927	1.326597
N195	N	1.238962	-0.370983	1.090283
N196	N	1.738962	0.129017	1.590283
H197	H	1.231350	-0.381284	1.148434
H198	H	1.731350	0.118716	1.648434
H199	H	1.226768	-0.294969	1.075957
H200	H	1.726768	0.205031	1.575957
N201	N	1.030145	-0.653992	0.919826
N202	N	1.530145	-0.153992	1.419826
H203	H	0.998339	-0.697099	0.958222
H204	H	1.498339	-0.197099	1.458222
H205	H	1.062081	-0.703264	0.885812
H206	H	1.562081	-0.203264	1.385812
H207	H	1.043406	-0.636034	0.826552
H208	H	1.543406	-0.136034	1.326552
N209	N	1.030102	-0.654077	0.666975
N210	N	1.530102	-0.154077	1.166975
H211	H	0.998293	-0.697180	0.705371
H212	H	1.498293	-0.197180	1.205371
H213	H	1.062029	-0.703352	0.632958
H214	H	1.562029	-0.203352	1.132958
