data_functionalizedCrystal
_audit_creation_method	'MofGen! by Chris Wilmer'
_symmetry_space_group_name_H-M	'P1'
_symmetry_Int_Tables_number	1
_symmetry_cell_setting	triclinic
loop_
_symmetry_equiv_pos_as_xyz
  x,y,z
_cell_length_a	12.759401
_cell_length_b	19.805405
_cell_length_c	12.759393
_cell_angle_alpha	89.962372
_cell_angle_beta	89.981504
_cell_angle_gamma	90.026572
loop_
_atom_site_label
_atom_site_type_symbol
_atom_site_fract_x
_atom_site_fract_y
_atom_site_fract_z
Zn1	Zn	1.606170	-0.269420	-0.593937
Zn2	Zn	1.606028	-0.382625	-0.418239
Zn3	Zn	1.430472	-0.269456	-0.418276
Zn4	Zn	1.430425	-0.382573	-0.593880
O5	O	1.518274	-0.326019	-0.506083
O6	O	1.753172	-0.284444	-0.570638
O7	O	1.582701	-0.367650	-0.271222
O8	O	1.453858	-0.174735	-0.441618
O9	O	1.753068	-0.367615	-0.441553
O10	O	1.582942	-0.174708	-0.570675
O11	O	1.453720	-0.284505	-0.271250
O12	O	1.283445	-0.284454	-0.441563
O13	O	1.453777	-0.367527	-0.740909
O14	O	1.283410	-0.367561	-0.570578
O15	O	1.582896	-0.284394	-0.740951
O16	O	1.582655	-0.477335	-0.441498
O17	O	1.453640	-0.477297	-0.570541
C18	C	1.245306	-0.326006	-0.506069
C19	C	1.128530	-0.326017	-0.506088
C20	C	1.073677	-0.369360	-0.573155
C21	C	0.963953	-0.369369	-0.573166
C22	C	0.963944	-0.282689	-0.439034
C23	C	1.073666	-0.282678	-0.439029
C24	C	1.073681	-0.419406	-0.650592
C25	C	0.963957	-0.419414	-0.650603
C26	C	1.518155	-0.501875	-0.506032
C27	C	1.518201	-0.577107	-0.506046
C28	C	1.585444	-0.612448	-0.438923
C29	C	1.585489	-0.683137	-0.438946
C30	C	1.518284	-0.718482	-0.506088
C31	C	1.451038	-0.683136	-0.573217
C32	C	1.450999	-0.612449	-0.573199
C33	C	1.451193	-0.968209	-0.573295
C34	C	1.451234	-1.038901	-0.573306
C35	C	1.585683	-1.038897	-0.439043
C36	C	1.585644	-0.968210	-0.439024
C37	C	1.518402	-0.932870	-0.506157
C38	C	1.518356	-0.856221	-0.506133
C39	C	1.518324	-0.795129	-0.506108
C40	C	1.792307	-0.326032	-0.506098
C41	C	1.909084	-0.326037	-0.506104
C42	C	1.518347	-0.325950	-0.780117
C43	C	1.518379	-0.325921	-0.896893
C44	C	1.518421	-0.149476	-0.506157
C45	C	1.518484	-0.074244	-0.506189
C46	C	1.585620	-0.282630	-0.951779
C47	C	1.585645	-0.282605	-1.061503
C48	C	1.451184	-0.369170	-1.061446
C49	C	1.451154	-0.369190	-0.951724
C50	C	1.663254	-0.232655	-0.951812
C51	C	1.663279	-0.232630	-1.061537
C52	C	1.518261	-0.326038	-0.233116
C53	C	1.518433	-0.325876	-0.116340
H54	H	1.107680	-0.469175	-0.621299
C55	C	1.766279	-0.257593	-0.906268
C56	C	1.810882	-0.206699	-0.844573
C57	C	1.905780	-0.229652	-0.802588
H58	H	1.812898	-0.268873	-0.961603
H59	H	1.753771	-0.296404	-0.864282
H60	H	1.823394	-0.167900	-0.886557
H61	H	1.764293	-0.195413	-0.789222
H62	H	1.893272	-0.268464	-0.760602
H63	H	1.952390	-0.240932	-0.857930
H64	H	1.936050	-0.195127	-0.760716
H65	H	1.396450	-0.404396	-1.106103
H66	H	1.634181	-0.182825	-1.095593
H67	H	1.744645	-0.246670	-1.091313
H68	H	1.118323	-0.247379	-0.384423
H69	H	1.640166	-0.583675	-0.384245
C70	C	1.113595	-0.400674	-0.759043
C71	C	1.174566	-0.342039	-0.752391
C72	C	1.211365	-0.324771	-0.852270
H73	H	1.055809	-0.392861	-0.804369
H74	H	1.155004	-0.436548	-0.785976
H75	H	1.133158	-0.306174	-0.725473
H76	H	1.232367	-0.349837	-0.707086
H77	H	1.252774	-0.360645	-0.879203
H78	H	1.153573	-0.316961	-0.897587
H79	H	1.252745	-0.284989	-0.847768
C80	C	1.658533	-0.721386	-0.365951
C81	C	1.717355	-0.675302	-0.307123
C82	C	1.784647	-0.710512	-0.239857
H83	H	1.704402	-0.748917	-0.406066
H84	H	1.618404	-0.748993	-0.320093
H85	H	1.757481	-0.647707	-0.352975
H86	H	1.671514	-0.647770	-0.266986
H87	H	1.744518	-0.738119	-0.193999
H88	H	1.830509	-0.738041	-0.279981
H89	H	1.824558	-0.679250	-0.199927
H90	H	0.929966	-0.400703	-0.727958
H91	H	0.919260	-0.247404	-0.384438
H92	H	1.641502	-0.180237	-0.922065
C93	C	1.658496	-0.929713	-0.366168
C94	C	1.644049	-0.860244	-0.380499
C95	C	1.711136	-0.824762	-0.313393
H96	H	1.729127	-0.941170	-0.381541
H97	H	1.643155	-0.941304	-0.295543
H98	H	1.659398	-0.848659	-0.451107
H99	H	1.573432	-0.848767	-0.365118
H100	H	1.695795	-0.836352	-0.242768
H101	H	1.781763	-0.836224	-0.328772
H102	H	1.701336	-0.777623	-0.323101
C103	C	1.377901	-0.721421	-0.646057
C104	C	1.273956	-0.704278	-0.623106
C105	C	1.206552	-0.739524	-0.690194
H106	H	1.387407	-0.768592	-0.636523
H107	H	1.393173	-0.709776	-0.716675
H108	H	1.258690	-0.715927	-0.552505
H109	H	1.264417	-0.657113	-0.632647
H110	H	1.221823	-0.727879	-0.760812
H111	H	1.216067	-0.786693	-0.680654
H112	H	1.136018	-0.727893	-0.674637
C113	C	0.924401	-0.489327	-0.621273
C114	C	1.009898	-0.532083	-0.603320
C115	C	0.973500	-0.596486	-0.576288
H116	H	0.883081	-0.506879	-0.676862
H117	H	0.883045	-0.486460	-0.559505
H118	H	1.051237	-0.534952	-0.665081
H119	H	1.051227	-0.514553	-0.547726
H120	H	0.932144	-0.593618	-0.514520
H121	H	0.932179	-0.614031	-0.631881
H122	H	1.031503	-0.625502	-0.564094
H123	H	1.396509	-1.067677	-0.627989
C124	C	1.658681	-1.077390	-0.366296
C125	C	1.644368	-1.146860	-0.380709
C126	C	1.711610	-1.182338	-0.313732
H127	H	1.643420	-1.065940	-0.295640
H128	H	1.729272	-1.065789	-0.381758
H129	H	1.573793	-1.158456	-0.365240
H130	H	1.659637	-1.158330	-0.451351
H131	H	1.782201	-1.170737	-0.329194
H132	H	1.696343	-1.170883	-0.243080
H133	H	1.701915	-1.229477	-0.323509
H134	H	1.396440	-0.939440	-0.627955
C135	C	1.378167	-0.574037	-0.646204
C136	C	1.437604	-0.533404	-0.713599
C137	C	1.370551	-0.498017	-0.780880
H138	H	1.332376	-0.546450	-0.606092
H139	H	1.338163	-0.605187	-0.686256
H140	H	1.477590	-0.502257	-0.673551
H141	H	1.483391	-0.560974	-0.753734
H142	H	1.330547	-0.529167	-0.820933
H143	H	1.324764	-0.470434	-0.740759
H144	H	1.410869	-0.470448	-0.826622
H145	H	1.396396	-0.404440	-0.907040
