data_functionalizedCrystal
_audit_creation_method	'MofGen! by Chris Wilmer'
_symmetry_space_group_name_H-M	'P1'
_symmetry_Int_Tables_number	1
_symmetry_cell_setting	triclinic
loop_
_symmetry_equiv_pos_as_xyz
  x,y,z
_cell_length_a	8.559649
_cell_length_b	13.596369
_cell_length_c	8.559649
_cell_angle_alpha	90.001014
_cell_angle_beta	110.221336
_cell_angle_gamma	90.005140
loop_
_atom_site_label
_atom_site_type_symbol
_atom_site_fract_x
_atom_site_fract_y
_atom_site_fract_z
O1	O	2.126887	0.081776	0.055046
O2	O	2.460221	0.415109	0.388380
O3	O	2.793554	0.748443	0.721713
O4	O	1.651402	0.081780	-0.028735
O5	O	1.984736	0.415113	0.304599
O6	O	2.318069	0.748446	0.637932
O7	O	1.931036	0.081777	0.250898
O8	O	2.264369	0.415110	0.584232
O9	O	2.597702	0.748443	0.917565
O10	O	1.847254	0.081779	-0.224587
O11	O	2.180588	0.415113	0.108747
O12	O	2.513921	0.748446	0.442080
O13	O	1.931003	-0.081806	0.250881
O14	O	2.264336	0.251527	0.584214
O15	O	2.597670	0.584860	0.917547
O16	O	1.651370	-0.081803	-0.028752
O17	O	1.984703	0.251530	0.304581
O18	O	2.318037	0.584864	0.637914
O19	O	2.126855	-0.081807	0.055029
O20	O	2.460188	0.251526	0.388362
O21	O	2.793522	0.584860	0.721695
Zn22	Zn	1.889107	-0.107777	0.013135
Zn23	Zn	2.222441	0.225556	0.346469
Zn24	Zn	2.555774	0.558889	0.679802
Zn25	Zn	1.889150	0.107750	0.013159
Zn26	Zn	2.222483	0.441084	0.346492
Zn27	Zn	2.555817	0.774417	0.679825
O28	O	1.847222	-0.081804	-0.224604
O29	O	2.180555	0.251530	0.108729
O30	O	2.513889	0.584863	0.442062
C31	C	1.591077	-0.000011	-0.035093
C32	C	1.924411	0.333322	0.298241
C33	C	2.257744	0.666655	0.631574
C34	C	1.411378	-0.000010	-0.053992
C35	C	1.744711	0.333324	0.279341
C36	C	2.078045	0.666657	0.612675
N37	N	1.889090	-0.254869	0.013122
N38	N	2.222424	0.078464	0.346455
N39	N	2.555757	0.411797	0.679789
C40	C	1.889098	-0.343867	0.013119
C41	C	2.222431	-0.010534	0.346453
C42	C	2.555765	0.322800	0.679786
C43	C	1.889115	-0.455518	0.013133
C44	C	2.222449	-0.122185	0.346466
C45	C	2.555782	0.211148	0.679799
C46	C	1.889139	-0.544509	0.013153
C47	C	2.222472	-0.211176	0.346487
C48	C	2.555805	0.122158	0.679820
C49	C	1.889158	-0.656167	0.013165
C50	C	2.222491	-0.322834	0.346499
C51	C	2.555825	0.010499	0.679832
C52	C	2.187180	-0.000014	0.061387
C53	C	2.520514	0.333319	0.394720
C54	C	2.853847	0.666653	0.728053
C55	C	2.366879	-0.000009	0.080286
C56	C	2.700213	0.333324	0.413619
C57	C	3.033546	0.666658	0.746953
C58	C	1.937369	-0.000013	0.311198
C59	C	2.270702	0.333320	0.644532
C60	C	2.604035	0.666654	0.977865
C61	C	1.956268	-0.000008	0.490898
C62	C	2.289601	0.333326	0.824231
C63	C	2.622934	0.666659	1.157564
N64	N	1.889182	0.254842	0.013186
N65	N	2.222515	0.588175	0.346520
N66	N	2.555848	0.921509	0.679853
C67	C	1.840889	-0.000012	-0.284904
C68	C	2.174222	0.333321	0.048429
C69	C	2.507556	0.666655	0.381762
C70	C	1.821990	-0.000011	-0.464604
C71	C	2.155323	0.333323	-0.131270
C72	C	2.488657	0.666656	0.202063
H73	H	1.311990	-0.000004	-0.183420
H74	H	1.645323	0.333330	0.149913
H75	H	1.978656	0.666663	0.483247
C76	C	2.131119	-0.000015	0.625143
C77	C	2.464453	0.333318	0.958476
C78	C	2.797786	0.666652	1.291810
H79	H	2.212823	-0.000019	0.573129
H80	H	2.546157	0.333315	0.906463
H81	H	2.879490	0.666648	1.239796
H82	H	2.144221	0.057024	0.692571
H83	H	2.477554	0.390358	1.025905
H84	H	2.810887	0.723691	1.359238
H85	H	2.144191	-0.057073	0.692533
H86	H	2.477525	0.276261	1.025867
H87	H	2.810858	0.609594	1.359200
C88	C	1.647147	-0.000005	0.401160
C89	C	1.980481	0.333328	0.734493
C90	C	2.313814	0.666661	1.067827
H91	H	1.565441	-0.000015	0.453170
H92	H	1.898774	0.333318	0.786503
H93	H	2.232107	0.666652	1.119837
H94	H	1.634073	0.057041	0.333759
H95	H	1.967406	0.390375	0.667092
H96	H	2.300740	0.723708	1.000425
H97	H	1.634053	-0.057056	0.333743
H98	H	1.967386	0.276277	0.667076
H99	H	2.300720	0.609611	1.000410
H100	H	1.466258	-0.000005	0.209705
H101	H	1.799591	0.333329	0.543039
H102	H	2.132924	0.666662	0.876372
