data_functionalizedCrystal
_audit_creation_method	'MofGen! by Chris Wilmer'
_symmetry_space_group_name_H-M	'P1'
_symmetry_Int_Tables_number	1
_symmetry_cell_setting	triclinic
loop_
_symmetry_equiv_pos_as_xyz
  x,y,z
_cell_length_a	16.109301
_cell_length_b	16.109301
_cell_length_c	7.540329
_cell_angle_alpha	89.996399
_cell_angle_beta	89.999760
_cell_angle_gamma	83.461532
loop_
_atom_site_label
_atom_site_type_symbol
_atom_site_fract_x
_atom_site_fract_y
_atom_site_fract_z
O1	O	1.103130	0.106866	-0.147370
O2	O	1.353130	0.356866	0.102630
O3	O	1.603130	0.606866	0.352630
O4	O	1.853130	0.856866	0.602630
O5	O	0.861068	0.120165	-0.147399
O6	O	1.111068	0.370165	0.102601
O7	O	1.361068	0.620165	0.352601
O8	O	1.611068	0.870165	0.602601
O9	O	0.988749	-0.007515	-0.147372
O10	O	1.238749	0.242485	0.102628
O11	O	1.488749	0.492485	0.352628
O12	O	1.738749	0.742485	0.602628
O13	O	0.975450	0.234547	-0.147397
O14	O	1.225450	0.484547	0.102603
O15	O	1.475450	0.734547	0.352603
O16	O	1.725450	0.984547	0.602603
O17	O	0.988741	-0.007517	0.147593
O18	O	1.238741	0.242483	0.397593
O19	O	1.488741	0.492483	0.647593
O20	O	1.738741	0.742483	0.897593
O21	O	0.861061	0.120164	0.147567
O22	O	1.111061	0.370164	0.397567
O23	O	1.361061	0.620164	0.647567
O24	O	1.611061	0.870164	0.897567
O25	O	1.103123	0.106864	0.147595
O26	O	1.353123	0.356864	0.397595
O27	O	1.603123	0.606864	0.647595
O28	O	1.853123	0.856864	0.897595
Cu29	Cu	0.982091	0.113514	0.174513
Cu30	Cu	1.232091	0.363514	0.424513
Cu31	Cu	1.482091	0.613514	0.674513
Cu32	Cu	1.732091	0.863514	0.924513
Cu33	Cu	0.982100	0.113516	-0.174317
Cu34	Cu	1.232100	0.363516	0.075683
Cu35	Cu	1.482100	0.613516	0.325683
Cu36	Cu	1.732100	0.863516	0.575683
O37	O	0.975442	0.234545	0.147568
O38	O	1.225442	0.484545	0.397568
O39	O	1.475442	0.734545	0.647568
O40	O	1.725442	0.984545	0.897568
C41	C	0.830090	0.119626	0.000080
C42	C	1.080090	0.369626	0.250080
C43	C	1.330090	0.619626	0.500080
C44	C	1.580090	0.869626	0.750080
C45	C	0.737794	0.118011	0.000070
C46	C	0.987794	0.368011	0.250070
C47	C	1.237794	0.618011	0.500070
C48	C	1.487794	0.868011	0.750070
C49	C	0.515522	0.190018	0.000083
C50	C	0.765522	0.440018	0.250083
C51	C	1.015522	0.690018	0.500083
C52	C	1.265522	0.940018	0.750083
C53	C	0.428802	0.188494	0.000095
C54	C	0.678802	0.438494	0.250095
C55	C	0.928802	0.688494	0.500095
C56	C	1.178802	0.938494	0.750095
C57	C	0.448676	0.037006	0.000103
C58	C	0.698676	0.287006	0.250103
C59	C	0.948676	0.537006	0.500103
C60	C	1.198676	0.787006	0.750103
C61	C	0.535395	0.038530	0.000104
C62	C	0.785395	0.288530	0.250104
C63	C	1.035395	0.538530	0.500104
C64	C	1.285395	0.788530	0.750104
C65	C	0.568815	0.115039	0.000085
C66	C	0.818815	0.365039	0.250085
C67	C	1.068815	0.615039	0.500085
C68	C	1.318815	0.865039	0.750085
C69	C	0.395376	0.111990	0.000096
C70	C	0.645376	0.361990	0.250096
C71	C	0.895376	0.611990	0.500096
C72	C	1.145376	0.861990	0.750096
C73	C	0.301350	0.110337	0.000108
C74	C	0.551350	0.360337	0.250108
C75	C	0.801350	0.610337	0.500108
C76	C	1.051350	0.860337	0.750108
C77	C	0.662847	0.116693	0.000076
C78	C	0.912847	0.366693	0.250076
C79	C	1.162847	0.616693	0.500076
C80	C	1.412847	0.866693	0.750076
C81	C	0.988206	-0.038491	0.000110
C82	C	1.238206	0.211509	0.250110
C83	C	1.488206	0.461509	0.500110
C84	C	1.738206	0.711509	0.750110
C85	C	0.986591	-0.130786	0.000107
C86	C	1.236591	0.119214	0.250107
C87	C	1.486591	0.369214	0.500107
C88	C	1.736591	0.619214	0.750107
C89	C	1.057074	-0.439785	0.000085
C90	C	1.307074	-0.189785	0.250085
C91	C	1.557074	0.060215	0.500085
C92	C	1.807074	0.310215	0.750085
C93	C	1.058600	-0.353064	0.000095
C94	C	1.308600	-0.103064	0.250095
C95	C	1.558600	0.146936	0.500095
C96	C	1.808600	0.396936	0.750095
C97	C	0.907111	-0.333191	0.000101
C98	C	1.157111	-0.083191	0.250101
C99	C	1.407111	0.166809	0.500101
C100	C	1.657111	0.416809	0.750101
C101	C	0.905586	-0.419910	0.000103
C102	C	1.155586	-0.169910	0.250103
C103	C	1.405586	0.080090	0.500103
C104	C	1.655586	0.330090	0.750103
C105	C	0.980571	-0.473205	0.000086
C106	C	1.230571	-0.223205	0.250086
C107	C	1.480571	0.026795	0.500086
C108	C	1.730571	0.276795	0.750086
C109	C	0.983620	-0.299766	0.000094
C110	C	1.233620	-0.049766	0.250094
C111	C	1.483620	0.200234	0.500094
C112	C	1.733620	0.450234	0.750094
C113	C	0.985274	-0.205740	0.000106
C114	C	1.235274	0.044260	0.250106
C115	C	1.485274	0.294260	0.500106
C116	C	1.735274	0.544260	0.750106
C117	C	0.978917	-0.567237	0.000078
C118	C	1.228917	-0.317237	0.250078
C119	C	1.478917	-0.067237	0.500078
C120	C	1.728917	0.182763	0.750078
C121	C	1.134101	0.107404	0.000112
C122	C	1.384101	0.357404	0.250112
C123	C	1.634101	0.607404	0.500112
C124	C	1.884101	0.857404	0.750112
C125	C	1.226397	0.109019	0.000111
C126	C	1.476397	0.359019	0.250111
C127	C	1.726397	0.609019	0.500111
C128	C	1.976397	0.859019	0.750111
C129	C	0.975985	0.265521	0.000083
C130	C	1.225985	0.515521	0.250083
C131	C	1.475985	0.765521	0.500083
C132	C	1.725985	1.015521	0.750083
C133	C	0.977600	0.357816	0.000073
C134	C	1.227600	0.607816	0.250073
C135	C	1.477600	0.857816	0.500073
C136	C	1.727600	1.107816	0.750073
N137	N	0.982091	0.113512	0.419862
N138	N	1.232091	0.363512	0.669862
N139	N	1.482091	0.613512	0.919862
N140	N	1.732091	0.863512	1.169862
N141	N	0.982107	0.113511	-0.419666
N142	N	1.232107	0.363511	-0.169666
N143	N	1.482107	0.613511	0.080334
N144	N	1.732107	0.863511	0.330334
H145	H	0.421454	-0.025285	0.000129
H146	H	0.671454	0.224715	0.250129
H147	H	0.921454	0.474715	0.500129
H148	H	1.171454	0.724715	0.750129
F149	F	0.592117	-0.041277	0.000118
F150	F	0.842117	0.208723	0.250118
F151	F	1.092117	0.458723	0.500118
F152	F	1.342117	0.708723	0.750118
F153	F	0.827312	-0.276464	0.000109
F154	F	1.077312	-0.026464	0.250109
F155	F	1.327312	0.223536	0.500109
F156	F	1.577312	0.473536	0.750109
F157	F	0.372086	0.268297	0.000095
F158	F	0.622086	0.518297	0.250095
F159	F	0.872086	0.768297	0.500095
F160	F	1.122086	1.018297	0.750095
H161	H	1.118131	-0.483175	0.000071
H162	H	1.368131	-0.233175	0.250071
H163	H	1.618131	0.016825	0.500071
H164	H	1.868131	0.266825	0.750071
H165	H	1.120896	-0.325859	0.000097
H166	H	1.370896	-0.075859	0.250097
H167	H	1.620896	0.174141	0.500097
H168	H	1.870896	0.424141	0.750097
H169	H	0.542730	0.252317	0.000081
H170	H	0.792730	0.502317	0.250081
H171	H	1.042730	0.752317	0.500081
H172	H	1.292730	1.002317	0.750081
F173	F	0.824156	-0.455480	0.000114
F174	F	1.074156	-0.205480	0.250114
F175	F	1.324156	0.044520	0.500114
F176	F	1.574156	0.294520	0.750114
