data_functionalizedCrystal
_audit_creation_method	'MofGen! by Chris Wilmer'
_symmetry_space_group_name_H-M	'P1'
_symmetry_Int_Tables_number	1
_symmetry_cell_setting	triclinic
loop_
_symmetry_equiv_pos_as_xyz
  x,y,z
_cell_length_a	15.995350
_cell_length_b	15.995350
_cell_length_c	14.586319
_cell_angle_alpha	89.998440
_cell_angle_beta	90.000141
_cell_angle_gamma	83.492375
loop_
_atom_site_label
_atom_site_type_symbol
_atom_site_fract_x
_atom_site_fract_y
_atom_site_fract_z
O1	O	1.110984	0.107926	-0.076158
O2	O	1.610984	0.607926	0.423842
O3	O	0.867209	0.121253	-0.076176
O4	O	1.367209	0.621253	0.423824
O5	O	0.995761	-0.007298	-0.076166
O6	O	1.495761	0.492702	0.423834
O7	O	0.982433	0.236477	-0.076169
O8	O	1.482433	0.736477	0.423831
O9	O	0.995752	-0.007300	0.076315
O10	O	1.495752	0.492700	0.576315
O11	O	0.867200	0.121251	0.076304
O12	O	1.367200	0.621251	0.576304
O13	O	1.110976	0.107924	0.076323
O14	O	1.610976	0.607924	0.576323
Cu15	Cu	0.989087	0.114587	0.090236
Cu16	Cu	1.489087	0.614587	0.590236
Cu17	Cu	0.989098	0.114589	-0.090090
Cu18	Cu	1.489098	0.614589	0.409910
O19	O	0.982424	0.236475	0.076312
O20	O	1.482424	0.736475	0.576312
C21	C	0.836010	0.120701	0.000062
C22	C	1.336010	0.620701	0.500062
C23	C	0.743060	0.119049	0.000054
C24	C	1.243060	0.619049	0.500054
C25	C	0.405312	0.113117	0.000074
C26	C	0.905312	0.613117	0.500074
C27	C	0.452746	0.021565	0.000415
C28	C	0.952746	0.521565	0.500415
C29	C	0.549436	0.023217	0.000065
C30	C	1.049436	0.523217	0.500065
C31	C	0.572873	0.116060	0.000065
C32	C	1.072873	0.616060	0.500065
C33	C	0.531791	0.161217	-0.087006
C34	C	1.031791	0.661217	0.412994
C35	C	0.435155	0.158917	-0.087073
C36	C	0.935155	0.658917	0.412927
C37	C	0.434806	0.160807	0.086327
C38	C	0.934806	0.660807	0.586327
C39	C	0.531751	0.160785	0.087471
C40	C	1.031751	0.660785	0.587471
C41	C	0.667570	0.117727	0.000057
C42	C	1.167570	0.617727	0.500057
C43	C	0.310614	0.111452	0.000076
C44	C	0.810614	0.611452	0.500076
C45	C	0.995205	-0.038494	0.000073
C46	C	1.495205	0.461506	0.500073
C47	C	0.993553	-0.131444	0.000067
C48	C	1.493553	0.368556	0.500067
C49	C	0.987621	-0.469192	0.000070
C50	C	1.487621	0.030808	0.500070
C51	C	0.896069	-0.421758	-0.000279
C52	C	1.396069	0.078242	0.499721
C53	C	0.897721	-0.325068	0.000065
C54	C	1.397721	0.174932	0.500065
C55	C	0.990564	-0.301631	0.000068
C56	C	1.490564	0.198369	0.500068
C57	C	1.035715	-0.342710	0.087144
C58	C	1.535715	0.157290	0.587144
C59	C	1.033415	-0.439346	0.087217
C60	C	1.533415	0.060654	0.587217
C61	C	1.035317	-0.439702	-0.086182
C62	C	1.535317	0.060298	0.413818
C63	C	1.035295	-0.342756	-0.087333
C64	C	1.535295	0.157244	0.412667
C65	C	0.992231	-0.206934	0.000070
C66	C	1.492231	0.293066	0.500070
C67	C	0.985956	-0.563890	0.000074
C68	C	1.485956	-0.063890	0.500074
C69	C	1.142175	0.108476	0.000083
C70	C	1.642175	0.608476	0.500083
C71	C	1.235125	0.110127	0.000084
C72	C	1.735125	0.610127	0.500084
C73	C	0.982980	0.267671	0.000072
C74	C	1.482980	0.767671	0.500072
C75	C	0.984631	0.360621	0.000071
C76	C	1.484631	0.860621	0.500071
N77	N	0.989086	0.114585	0.217068
N78	N	1.489086	0.614585	0.717068
N79	N	0.989106	0.114585	-0.216922
N80	N	1.489106	0.614585	0.283078
C81	C	1.046027	0.057682	0.452079
C82	C	1.546027	0.557682	0.952079
C83	C	1.046030	0.057680	0.548060
C84	C	1.546030	0.557680	1.048060
C85	C	0.932158	0.171491	0.548061
C86	C	1.432158	0.671491	1.048061
C87	C	0.932152	0.171488	0.452081
C88	C	1.432152	0.671488	0.952081
C89	C	0.989092	0.114585	0.404093
C90	C	1.489092	0.614585	0.904093
C91	C	0.989100	0.114585	0.596054
C92	C	1.489100	0.614585	1.096054
C93	C	0.989102	0.114584	0.700121
C94	C	1.489102	0.614584	1.200121
C95	C	0.989089	0.114585	0.300019
C96	C	1.489089	0.614585	0.800019
H97	H	0.577298	-0.012517	-0.062459
H98	H	1.077298	0.487483	0.437541
F99	F	0.996192	-0.466538	-0.172447
F100	F	1.496192	0.033462	0.327553
F101	F	1.121269	-0.481499	0.092393
F102	F	1.621269	0.018501	0.592393
H103	H	0.861983	-0.297204	0.062586
H104	H	1.361983	0.202796	0.562586
H105	H	0.577862	-0.012279	0.062481
H106	H	1.077862	0.487721	0.562481
H107	H	1.103000	-0.327394	-0.092588
H108	H	1.603000	0.172606	0.407412
F109	F	0.990367	-0.463270	0.172289
F110	F	1.490367	0.036730	0.672289
H111	H	1.103924	-0.328584	0.090385
H112	H	1.603924	0.171416	0.590385
F113	F	0.871548	0.232052	0.401006
F114	F	1.371548	0.732052	0.901006
H115	H	1.092391	0.011343	0.587128
H116	H	1.592391	0.511343	1.087128
H117	H	1.102818	-0.471462	-0.086765
H118	H	1.602818	0.028538	0.413235
F119	F	0.871564	0.232052	0.599139
F120	F	1.371564	0.732052	1.099139
F121	F	0.411227	0.115876	-0.172146
F122	F	0.911227	0.615876	0.327854
F123	F	0.551829	0.249281	0.094345
F124	F	1.051829	0.749281	0.594345
H125	H	0.559064	0.127820	0.151886
H126	H	1.059064	0.627820	0.651886
F127	F	0.393002	0.246771	-0.092238
F128	F	0.893002	0.746771	0.407762
H129	H	0.434220	-0.015031	0.062857
H130	H	0.934220	0.484969	0.562857
H131	H	0.433156	-0.014861	-0.061682
H132	H	0.933156	0.485139	0.438318
F133	F	0.550272	0.250365	-0.091256
F134	F	1.050272	0.750365	0.408744
H135	H	0.560169	0.129854	-0.151806
H136	H	1.060169	0.629854	0.348194
F137	F	1.106625	-0.002883	0.401010
F138	F	1.606625	0.497117	0.901010
H139	H	1.002283	-0.315507	-0.151749
H140	H	1.502283	0.184493	0.348251
H141	H	0.403044	0.228307	0.086915
H142	H	0.903044	0.728307	0.586915
F143	F	0.851330	-0.287914	-0.081522
F144	F	1.351330	0.212086	0.418478
F145	F	0.848242	-0.445977	-0.081899
F146	F	1.348242	0.054023	0.418101
F147	F	0.407964	0.121682	0.172591
F148	F	0.907964	0.621682	0.672591
H149	H	0.859636	-0.441353	0.061812
H150	H	1.359636	0.058647	0.561812
F151	F	0.994717	-0.305617	0.171840
F152	F	1.494717	0.194383	0.671840
