data_functionalizedCrystal
_audit_creation_method	'MofGen! by Chris Wilmer'
_symmetry_space_group_name_H-M	'P1'
_symmetry_Int_Tables_number	1
_symmetry_cell_setting	triclinic
loop_
_symmetry_equiv_pos_as_xyz
  x,y,z
_cell_length_a	10.540510
_cell_length_b	10.540510
_cell_length_c	9.616153
_cell_angle_alpha	90.000246
_cell_angle_beta	89.992871
_cell_angle_gamma	84.513311
loop_
_atom_site_label
_atom_site_type_symbol
_atom_site_fract_x
_atom_site_fract_y
_atom_site_fract_z
O1	O	1.685895	0.178718	-0.115646
O2	O	1.316475	0.195613	-0.115646
O3	O	1.509633	0.002456	-0.115646
O4	O	1.492737	0.371875	-0.115647
O5	O	1.509606	0.002460	0.115646
O6	O	1.316449	0.195617	0.115645
O7	O	1.685868	0.178722	0.115645
Zn8	Zn	1.501154	0.187170	0.152368
Zn9	Zn	1.501189	0.187165	-0.152369
O10	O	1.492711	0.371879	0.115645
C11	C	1.269159	0.194356	-0.000001
C12	C	1.128209	0.190589	-0.000001
C13	C	0.910739	0.324775	-0.000533
C14	C	1.057334	0.328793	-0.000003
C15	C	1.083442	0.119845	0.132075
C16	C	0.936681	0.116805	0.132177
C17	C	0.936905	0.113923	-0.130845
C18	C	1.083246	0.120478	-0.132582
C19	C	1.508361	-0.044846	-0.000003
C20	C	1.504594	-0.185795	-0.000011
C21	C	1.638780	-0.403265	0.000519
C22	C	1.642798	-0.256670	-0.000010
C23	C	1.433862	-0.230549	-0.132087
C24	C	1.430823	-0.377309	-0.132190
C25	C	1.427914	-0.377113	0.130831
C26	C	1.434469	-0.230773	0.132570
C27	C	1.733185	0.179979	-0.000003
C28	C	1.874135	0.183746	-0.000012
C29	C	1.493983	0.419181	-0.000001
C30	C	1.497750	0.560130	-0.000002
N31	N	1.501140	0.187173	0.360342
N32	N	1.501214	0.187152	-0.360343
C33	C	1.397498	0.290153	0.580712
C34	C	1.397726	0.290539	0.419544
C35	C	1.633862	0.217293	0.418792
C36	C	1.633297	0.218022	0.580010
C37	C	1.473381	0.053736	0.580254
C38	C	1.470335	0.054601	0.419027
H39	H	1.114279	0.168979	0.230366
C40	C	1.503968	-0.192081	0.264574
N41	N	1.556308	-0.162916	0.363998
H42	H	1.415155	0.388576	0.621210
C43	C	1.717566	-0.217030	0.127892
N44	N	1.773889	-0.187181	0.224230
C45	C	1.296415	-0.166505	-0.138734
N46	N	1.192890	-0.118263	-0.143740
H47	H	1.692611	-0.445224	0.095237
H48	H	1.378646	0.025066	0.620991
H49	H	0.914763	0.010159	-0.131737
H50	H	0.896448	0.165156	0.230905
C51	C	1.740801	0.120644	0.632686
N52	N	1.821787	0.047316	0.672355
H53	H	1.540871	-0.025728	0.378733
H54	H	1.111870	0.171951	-0.230291
H55	H	0.894364	0.157504	-0.230952
C56	C	1.575535	-0.049836	0.631758
N57	N	1.652479	-0.127836	0.670559
C58	C	1.666160	0.349527	0.630792
N59	N	1.690904	0.448583	0.669035
C60	C	1.711116	-0.462043	-0.126720
N61	N	1.765597	-0.506317	-0.222559
H62	H	1.130842	0.018102	0.136987
C63	C	1.096998	0.403497	-0.127958
N64	N	1.126868	0.459743	-0.224355
C65	C	1.421900	0.424260	0.367419
N66	N	1.440117	0.524983	0.328159
H67	H	1.132325	0.019579	-0.140557
H68	H	1.698485	-0.228272	-0.094850
C69	C	1.298152	-0.164477	0.143343
N70	N	1.195472	-0.114544	0.151446
H71	H	1.712925	0.144320	0.380439
H72	H	1.299110	0.272418	0.380029
H73	H	1.483005	-0.199699	-0.230378
C74	C	0.851950	0.397099	0.126707
N75	N	0.807668	0.451569	0.222547
C76	C	1.338426	0.023759	0.367431
N77	N	1.239070	0.000534	0.328562
H78	H	1.658749	0.313529	0.378401
H79	H	1.324150	-0.399252	0.131721
H80	H	1.479183	-0.417532	-0.230919
C81	C	1.095692	0.404001	0.128131
N82	N	1.124582	0.460646	0.224651
H83	H	1.298573	0.272310	0.619523
C84	C	0.905626	-0.022837	0.140289
N85	N	0.882240	-0.128014	0.146408
H86	H	0.868791	0.378616	-0.095252
C87	C	1.291182	-0.408364	-0.140315
N88	N	1.186006	-0.431749	-0.146448
H89	H	1.471822	-0.419298	0.230945
