data_functionalizedCrystal
_audit_creation_method	'MofGen! by Chris Wilmer'
_symmetry_space_group_name_H-M	'P1'
_symmetry_Int_Tables_number	1
_symmetry_cell_setting	triclinic
loop_
_symmetry_equiv_pos_as_xyz
  x,y,z
_cell_length_a	12.759401
_cell_length_b	12.759399
_cell_length_c	12.759393
_cell_angle_alpha	89.969094
_cell_angle_beta	89.979062
_cell_angle_gamma	90.016641
loop_
_atom_site_label
_atom_site_type_symbol
_atom_site_fract_x
_atom_site_fract_y
_atom_site_fract_z
Zn1	Zn	1.606263	-0.418173	-0.594017
Zn2	Zn	2.106263	0.081827	-0.094017
Zn3	Zn	1.606153	-0.593888	-0.418336
Zn4	Zn	2.106153	-0.093888	0.081664
Zn5	Zn	1.430562	-0.418229	-0.418352
Zn6	Zn	1.930562	0.081771	0.081648
Zn7	Zn	1.430553	-0.593815	-0.593973
Zn8	Zn	1.930553	-0.093815	-0.093973
O9	O	1.518383	-0.506026	-0.506170
O10	O	2.018383	-0.006026	-0.006170
O11	O	1.753270	-0.441489	-0.570724
O12	O	2.253270	0.058511	-0.070724
O13	O	1.582818	-0.570641	-0.271317
O14	O	2.082818	-0.070641	0.228683
O15	O	1.453919	-0.271200	-0.441680
O16	O	1.953919	0.228800	0.058320
O17	O	1.753189	-0.570587	-0.441652
O18	O	2.253189	-0.070587	0.058348
O19	O	1.583006	-0.271159	-0.570740
O20	O	2.083006	0.228841	-0.070740
O21	O	1.453812	-0.441584	-0.271329
O22	O	1.953812	0.058416	0.228671
O23	O	1.283540	-0.441513	-0.441637
O24	O	1.783540	0.058487	0.058363
O25	O	1.453903	-0.570461	-0.741000
O26	O	1.953903	-0.070461	-0.241000
O27	O	1.283533	-0.570516	-0.570665
O28	O	1.783533	-0.070516	-0.070665
O29	O	1.582997	-0.441418	-0.741032
O30	O	2.082997	0.058582	-0.241032
O31	O	1.582809	-0.740900	-0.441609
O32	O	2.082809	-0.240900	0.058391
O33	O	1.453796	-0.740846	-0.570649
O34	O	1.953796	-0.240846	-0.070649
C35	C	1.245415	-0.506013	-0.506149
C36	C	1.745415	-0.006013	-0.006149
C37	C	1.128639	-0.506033	-0.506165
C38	C	1.628639	-0.006033	-0.006165
C39	C	1.073801	-0.573307	-0.573244
C40	C	1.573801	-0.073307	-0.073244
C41	C	0.964077	-0.573311	-0.573265
C42	C	1.464077	-0.073311	-0.073265
C43	C	0.964038	-0.438764	-0.439118
C44	C	1.464038	0.061236	0.060882
C45	C	1.073760	-0.438756	-0.439104
C46	C	1.573760	0.061244	0.060896
C47	C	1.518318	-0.778994	-0.506146
C48	C	2.018318	-0.278994	-0.006146
C49	C	1.518387	-0.895770	-0.506171
C50	C	2.018387	-0.395770	-0.006171
C51	C	1.585641	-0.950625	-0.439056
C52	C	2.085641	-0.450625	0.060944
C53	C	1.585708	-1.060349	-0.439091
C54	C	2.085708	-0.560349	0.060909
C55	C	1.451259	-1.060353	-0.573359
C56	C	1.951259	-0.560353	-0.073359
C57	C	1.451198	-0.950631	-0.573328
C58	C	1.951198	-0.450631	-0.073328
C59	C	1.792416	-0.506040	-0.506191
C60	C	2.292416	-0.006040	-0.006191
C61	C	1.909193	-0.506046	-0.506200
C62	C	2.409193	-0.006046	-0.006200
C63	C	1.518461	-0.505925	-0.780203
C64	C	2.018461	-0.005925	-0.280203
C65	C	1.518495	-0.505882	-0.896980
C66	C	2.018495	-0.005882	-0.396980
C67	C	1.518476	-0.231993	-0.506217
C68	C	2.018476	0.268007	-0.006217
C69	C	1.518516	-0.115216	-0.506237
C70	C	2.018516	0.384784	-0.006237
C71	C	1.585719	-0.438679	-0.951860
C72	C	2.085719	0.061321	-0.451860
C73	C	1.585737	-0.438633	-1.061584
C74	C	2.085737	0.061367	-0.561584
C75	C	1.451303	-0.573004	-1.061538
C76	C	1.951303	-0.073004	-0.561538
C77	C	1.451281	-0.573044	-0.951816
C78	C	1.951281	-0.073044	-0.451816
C79	C	1.518365	-0.506051	-0.233202
C80	C	2.018365	-0.006051	0.266798
C81	C	1.518535	-0.505798	-0.116426
C82	C	2.018535	-0.005798	0.383574
H83	H	1.118411	-0.383967	-0.384480
H84	H	1.618411	0.116033	0.115520
C85	C	1.659691	-0.364706	-1.121948
C86	C	2.159691	0.135294	-0.621948
N87	N	1.715397	-0.309021	-1.167413
N88	N	2.215397	0.190979	-0.667413
C89	C	1.377370	-0.646876	-1.121868
C90	C	1.877370	-0.146876	-0.621868
N91	N	1.321682	-0.702517	-1.167307
N92	N	1.821682	-0.202517	-0.667307
C93	C	1.377322	-0.646974	-0.891444
C94	C	1.877322	-0.146974	-0.391444
N95	N	1.321616	-0.702653	-0.845972
N96	N	1.821616	-0.202653	-0.345972
H97	H	1.640446	-0.383989	-0.907216
H98	H	2.140446	0.116011	-0.407216
H99	H	0.919432	-0.628090	-0.627889
H100	H	1.419432	-0.128090	-0.127889
C101	C	1.134163	-0.647306	-0.647021
C102	C	1.634163	-0.147306	-0.147021
N103	N	1.179625	-0.703041	-0.702595
N104	N	1.679625	-0.203041	-0.202595
H105	H	1.640474	-1.105007	-0.384441
H106	H	2.140474	-0.605007	0.115559
H107	H	1.396555	-1.105035	-0.628034
H108	H	1.896555	-0.605035	-0.128034
C109	C	0.903662	-0.364769	-0.365349
C110	C	1.403662	0.135231	0.134651
N111	N	0.858187	-0.309037	-0.309782
N112	N	1.358187	0.190963	0.190218
C113	C	1.659556	-0.890282	-0.365187
C114	C	2.159556	-0.390282	0.134813
N115	N	1.715235	-0.844834	-0.309549
N116	N	2.215235	-0.344834	0.190451
C117	C	1.377231	-0.890287	-0.647185
C118	C	1.877231	-0.390287	-0.147185
N119	N	1.321531	-0.844836	-0.702821
N120	N	1.821531	-0.344836	-0.202821
