data_functionalizedCrystal
_audit_creation_method	'MofGen! by Chris Wilmer'
_symmetry_space_group_name_H-M	'P1'
_symmetry_Int_Tables_number	1
_symmetry_cell_setting	triclinic
loop_
_symmetry_equiv_pos_as_xyz
  x,y,z
_cell_length_a	18.215405
_cell_length_b	18.215407
_cell_length_c	18.215399
_cell_angle_alpha	90.013852
_cell_angle_beta	89.967040
_cell_angle_gamma	89.978982
loop_
_atom_site_label
_atom_site_type_symbol
_atom_site_fract_x
_atom_site_fract_y
_atom_site_fract_z
Zn1	Zn	-0.293050	-1.125050	-0.416044
Zn2	Zn	-0.043050	-0.875050	-0.166044
Zn3	Zn	0.206950	-0.625050	0.083956
Zn4	Zn	0.456950	-0.375050	0.333956
Zn5	Zn	-0.416127	-1.124965	-0.292972
Zn6	Zn	-0.166127	-0.874965	-0.042972
Zn7	Zn	0.083873	-0.624965	0.207028
Zn8	Zn	0.333873	-0.374965	0.457028
Zn9	Zn	-0.293070	-1.001989	-0.292998
Zn10	Zn	-0.043070	-0.751989	-0.042998
Zn11	Zn	0.206930	-0.501989	0.207002
Zn12	Zn	0.456930	-0.251989	0.457002
Zn13	Zn	-0.416071	-1.001949	-0.416004
Zn14	Zn	-0.166071	-0.751949	-0.166004
Zn15	Zn	0.083929	-0.501949	0.083996
Zn16	Zn	0.333929	-0.251949	0.333996
O17	O	-0.354580	-1.063488	-0.354504
O18	O	-0.104580	-0.813488	-0.104504
O19	O	0.145420	-0.563488	0.145496
O20	O	0.395420	-0.313488	0.395496
O21	O	-0.309391	-1.228023	-0.399725
O22	O	-0.059391	-0.978023	-0.149725
O23	O	0.190609	-0.728023	0.100275
O24	O	0.440609	-0.478023	0.350275
O25	O	-0.399835	-1.108633	-0.189991
O26	O	-0.149835	-0.858633	0.060009
O27	O	0.100165	-0.608633	0.310009
O28	O	0.350165	-0.358633	0.560009
O29	O	-0.190083	-1.018366	-0.309348
O30	O	0.059917	-0.768366	-0.059348
O31	O	0.309917	-0.518366	0.190652
O32	O	0.559917	-0.268366	0.440652
O33	O	-0.399815	-1.227960	-0.309304
O34	O	-0.149815	-0.977960	-0.059304
O35	O	0.100185	-0.727960	0.190696
O36	O	0.350185	-0.477960	0.440696
O37	O	-0.190069	-1.108778	-0.399750
O38	O	0.059931	-0.858778	-0.149750
O39	O	0.309931	-0.608778	0.100250
O40	O	0.559931	-0.358778	0.350250
O41	O	-0.309426	-1.018283	-0.190010
O42	O	-0.059426	-0.768283	0.059990
O43	O	0.190574	-0.518283	0.309990
O44	O	0.440574	-0.268283	0.559990
O45	O	-0.309372	-0.898999	-0.309309
O46	O	-0.059372	-0.648999	-0.059309
O47	O	0.190628	-0.398999	0.190691
O48	O	0.440628	-0.148999	0.440691
O49	O	-0.399721	-1.018297	-0.518993
O50	O	-0.149721	-0.768297	-0.268993
O51	O	0.100279	-0.518297	-0.018993
O52	O	0.350279	-0.268297	0.231007
O53	O	-0.399740	-0.898970	-0.399680
O54	O	-0.149740	-0.648970	-0.149680
O55	O	0.100260	-0.398970	0.100320
O56	O	0.350260	-0.148970	0.350320
O57	O	-0.309338	-1.108739	-0.519023
O58	O	-0.059338	-0.858739	-0.269023
O59	O	0.190662	-0.608739	-0.019023
O60	O	0.440662	-0.358739	0.230977
O61	O	-0.519104	-1.108594	-0.309265
O62	O	-0.269104	-0.858594	-0.059265
O63	O	-0.019104	-0.608594	0.190735
O64	O	0.230896	-0.358594	0.440735
O65	O	-0.519063	-1.018214	-0.399656
O66	O	-0.269063	-0.768214	-0.149656
O67	O	-0.019063	-0.518214	0.100344
O68	O	0.230937	-0.268214	0.350344
C69	C	-0.354553	-0.872282	-0.354493
C70	C	-0.104553	-0.622282	-0.104493
C71	C	0.145447	-0.372282	0.145507
C72	C	0.395447	-0.122282	0.395507
C73	C	-0.354559	-0.790483	-0.354506
C74	C	-0.104559	-0.540483	-0.104506
C75	C	0.145441	-0.290483	0.145494
C76	C	0.395441	-0.040483	0.395494
C77	C	-0.401699	-0.525429	-0.401497
C78	C	-0.151699	-0.275429	-0.151497
C79	C	0.098301	-0.025429	0.098503
C80	C	0.348301	0.224571	0.348503
C81	C	-0.401695	-0.602288	-0.401493
C82	C	-0.151695	-0.352288	-0.151493
C83	C	0.098305	-0.102288	0.098507
C84	C	0.348305	0.147712	0.348507
C85	C	-0.307453	-0.602288	-0.307526
C86	C	-0.057453	-0.352288	-0.057526
C87	C	0.192547	-0.102288	0.192474
C88	C	0.442547	0.147712	0.442474
C89	C	-0.307462	-0.525431	-0.307526
C90	C	-0.057462	-0.275431	-0.057526
C91	C	0.192538	-0.025431	0.192474
C92	C	0.442538	0.224569	0.442474
C93	C	-0.354584	-0.487003	-0.354516
C94	C	-0.104584	-0.237003	-0.104516
C95	C	0.145416	0.012997	0.145484
C96	C	0.395416	0.262997	0.395484
C97	C	-0.354571	-0.640720	-0.354512
C98	C	-0.104571	-0.390720	-0.104512
C99	C	0.145429	-0.140720	0.145488
C100	C	0.395429	0.109280	0.395488
C101	C	-0.354566	-0.724053	-0.354508
C102	C	-0.104566	-0.474053	-0.104508
C103	C	0.145434	-0.224053	0.145492
C104	C	0.395434	0.025947	0.395492
C105	C	-0.354590	-0.403664	-0.354519
C106	C	-0.104590	-0.153664	-0.104519
C107	C	0.145410	0.096336	0.145481
C108	C	0.395410	0.346336	0.395481
C109	C	-0.545786	-1.063410	-0.354469
C110	C	-0.295786	-0.813410	-0.104469
C111	C	-0.045786	-0.563410	0.145531
C112	C	0.204214	-0.313410	0.395531
C113	C	-0.627585	-1.063445	-0.354479
C114	C	-0.377585	-0.813445	-0.104479
C115	C	-0.127585	-0.563445	0.145521
C116	C	0.122415	-0.313445	0.395521
C117	C	-0.815775	-1.110616	-0.307499
C118	C	-0.565775	-0.860616	-0.057499
C119	C	-0.315775	-0.610616	0.192501
C120	C	-0.065775	-0.360616	0.442501
C121	C	-0.892634	-1.110649	-0.307517
C122	C	-0.642634	-0.860649	-0.057517
C123	C	-0.392634	-0.610649	0.192483
C124	C	-0.142634	-0.360649	0.442483
C125	C	-0.892632	-1.016455	-0.401563
C126	C	-0.642632	-0.766455	-0.151563
C127	C	-0.392632	-0.516455	0.098437
C128	C	-0.142632	-0.266455	0.348437
C129	C	-0.815774	-1.016426	-0.401548
C130	C	-0.565774	-0.766426	-0.151548
C131	C	-0.315774	-0.516426	0.098452
C132	C	-0.065774	-0.266426	0.348452
C133	C	-0.777348	-1.063505	-0.354512
C134	C	-0.527348	-0.813505	-0.104512
C135	C	-0.277348	-0.563505	0.145488
C136	C	-0.027348	-0.313505	0.395488
C137	C	-0.931064	-1.063567	-0.354545
C138	C	-0.681064	-0.813567	-0.104545
C139	C	-0.431064	-0.563567	0.145455
C140	C	-0.181064	-0.313567	0.395455
C141	C	-1.014398	-1.063602	-0.354564
C142	C	-0.764398	-0.813602	-0.104564
C143	C	-0.514398	-0.563602	0.145436
C144	C	-0.264398	-0.313602	0.395436
C145	C	-0.694009	-1.063471	-0.354493
C146	C	-0.444009	-0.813471	-0.104493
C147	C	-0.194009	-0.563471	0.145507
C148	C	0.055991	-0.313471	0.395507
C149	C	-0.162627	-1.063586	-0.354556
C150	C	0.087373	-0.813586	-0.104556
C151	C	0.337373	-0.563586	0.145444
C152	C	0.587373	-0.313586	0.395444
C153	C	-0.080828	-1.063628	-0.354578
C154	C	0.169172	-0.813628	-0.104578
C155	C	0.419172	-0.563628	0.145422
C156	C	0.669172	-0.313628	0.395422
C157	C	-0.354521	-1.063523	-0.546457
C158	C	-0.104521	-0.813523	-0.296457
C159	C	0.145479	-0.563523	-0.046457
C160	C	0.395479	-0.313523	0.203543
C161	C	-0.354496	-1.063538	-0.628256
C162	C	-0.104496	-0.813538	-0.378256
C163	C	0.145504	-0.563538	-0.128256
C164	C	0.395504	-0.313538	0.121744
C165	C	-0.354601	-0.255441	-0.354516
C166	C	-0.104601	-0.005441	-0.104516
C167	C	0.145399	0.244559	0.145484
C168	C	0.395399	0.494559	0.395484
C169	C	-0.354596	-0.337240	-0.354522
C170	C	-0.104596	-0.087240	-0.104522
C171	C	0.145404	0.162760	0.145478
C172	C	0.395404	0.412760	0.395478
C173	C	-0.307388	-1.016532	-0.816461
C174	C	-0.057388	-0.766532	-0.566461
C175	C	0.192612	-0.516532	-0.316461
C176	C	0.442612	-0.266532	-0.066461
C177	C	-0.307373	-1.016545	-0.893320
C178	C	-0.057373	-0.766545	-0.643320
C179	C	0.192627	-0.516545	-0.393320
C180	C	0.442627	-0.266545	-0.143320
C181	C	-0.401516	-1.110631	-0.893290
C182	C	-0.151516	-0.860631	-0.643290
C183	C	0.098484	-0.610631	-0.393290
C184	C	0.348484	-0.360631	-0.143290
C185	C	-0.401534	-1.110614	-0.816432
C186	C	-0.151534	-0.860614	-0.566432
C187	C	0.098466	-0.610614	-0.316432
C188	C	0.348466	-0.360614	-0.066432
C189	C	-0.354466	-1.063566	-0.778020
C190	C	-0.104466	-0.813566	-0.528020
C191	C	0.145534	-0.563566	-0.278020
C192	C	0.395534	-0.313566	-0.028020
C193	C	-0.354433	-1.063596	-0.931736
C194	C	-0.104433	-0.813596	-0.681736
C195	C	0.145567	-0.563596	-0.431736
C196	C	0.395567	-0.313596	-0.181736
C197	C	-0.354417	-1.063610	-1.015070
C198	C	-0.104417	-0.813610	-0.765070
C199	C	0.145583	-0.563610	-0.515070
C200	C	0.395583	-0.313610	-0.265070
C201	C	-0.354482	-1.063550	-0.694681
C202	C	-0.104482	-0.813550	-0.444681
C203	C	0.145518	-0.563550	-0.194681
C204	C	0.395518	-0.313550	0.055319
C205	C	-0.354585	-1.063496	-0.163298
C206	C	-0.104585	-0.813496	0.086702
C207	C	0.145415	-0.563496	0.336702
C208	C	0.395415	-0.313496	0.586702
C209	C	-0.354403	-1.063624	-0.081500
C210	C	-0.104403	-0.813624	0.168500
C211	C	0.145597	-0.563624	0.418500
C212	C	0.395597	-0.313624	0.668500
H213	H	-0.440069	-0.494144	-0.439759
H214	H	-0.190069	-0.244144	-0.189759
H215	H	0.059931	0.005856	0.060241
H216	H	0.309931	0.255856	0.310241
C217	C	-0.773502	-0.964614	-0.453284
C218	C	-0.523502	-0.714614	-0.203284
C219	C	-0.273502	-0.464614	0.046716
C220	C	-0.023502	-0.214614	0.296716
N221	N	-0.741662	-0.925597	-0.492257
N222	N	-0.491662	-0.675597	-0.242257
N223	N	-0.241662	-0.425597	0.007743
N224	N	0.008338	-0.175597	0.257743
H225	H	-0.923928	-0.978123	-0.439857
H226	H	-0.673928	-0.728123	-0.189857
H227	H	-0.423928	-0.478123	0.060143
H228	H	-0.173928	-0.228123	0.310143
C229	C	-0.773509	-1.162408	-0.255762
C230	C	-0.523509	-0.912408	-0.005762
C231	C	-0.273509	-0.662408	0.244238
C232	C	-0.023509	-0.412408	0.494238
N233	N	-0.741677	-1.201422	-0.216793
N234	N	-0.491677	-0.951422	0.033207
N235	N	-0.241677	-0.701422	0.283207
N236	N	0.008323	-0.451422	0.533207
H237	H	-0.269039	-0.978245	-0.924615
H238	H	-0.019039	-0.728245	-0.674615
H239	H	0.230961	-0.478245	-0.424615
H240	H	0.480961	-0.228245	-0.174615
C241	C	-0.934901	-1.162471	-0.255795
C242	C	-0.684901	-0.912471	-0.005795
C243	C	-0.434901	-0.662471	0.244205
C244	C	-0.184901	-0.412471	0.494205
N245	N	-0.966735	-1.201505	-0.216836
N246	N	-0.716735	-0.951505	0.033164
N247	N	-0.466735	-0.701505	0.283164
N248	N	-0.216735	-0.451505	0.533164
H249	H	-0.269062	-0.978222	-0.785188
H250	H	-0.019062	-0.728222	-0.535188
H251	H	0.230938	-0.478222	-0.285188
H252	H	0.480938	-0.228222	-0.035188
H253	H	-0.440062	-0.633571	-0.439749
H254	H	-0.190062	-0.383571	-0.189749
H255	H	0.059938	-0.133571	0.060251
H256	H	0.309938	0.116429	0.310251
H257	H	-0.269094	-0.494144	-0.269265
H258	H	-0.019094	-0.244144	-0.019265
H259	H	0.230906	0.005856	0.230735
H260	H	0.480906	0.255856	0.480735
C261	C	-0.255611	-0.644566	-0.255851
C262	C	-0.005611	-0.394566	-0.005851
C263	C	0.244389	-0.144566	0.244149
C264	C	0.494389	0.105434	0.494149
N265	N	-0.216558	-0.676409	-0.216933
N266	N	0.033442	-0.426409	0.033067
N267	N	0.283442	-0.176409	0.283067
N268	N	0.533442	0.073591	0.533067
H269	H	-0.439836	-1.148937	-0.924574
H270	H	-0.189836	-0.898937	-0.674574
H271	H	0.060164	-0.648937	-0.424574
H272	H	0.310164	-0.398937	-0.174574
C273	C	-0.453312	-1.162371	-0.774144
C274	C	-0.203312	-0.912371	-0.524144
C275	C	0.046688	-0.662371	-0.274144
C276	C	0.296688	-0.412371	-0.024144
N277	N	-0.492306	-1.201356	-0.742293
N278	N	-0.242306	-0.951356	-0.492293
N279	N	0.007694	-0.701356	-0.242293
N280	N	0.257694	-0.451356	0.007707
