data_functionalizedCrystal
_audit_creation_method	'MofGen! by Chris Wilmer'
_symmetry_space_group_name_H-M	'P1'
_symmetry_Int_Tables_number	1
_symmetry_cell_setting	triclinic
loop_
_symmetry_equiv_pos_as_xyz
  x,y,z
_cell_length_a	14.519731
_cell_length_b	15.944493
_cell_length_c	12.996460
_cell_angle_alpha	89.999729
_cell_angle_beta	89.994327
_cell_angle_gamma	83.581948
loop_
_atom_site_label
_atom_site_type_symbol
_atom_site_fract_x
_atom_site_fract_y
_atom_site_fract_z
O1	O	1.223639	0.110197	-0.085555
O2	O	0.955139	0.123146	-0.085555
O3	O	1.096749	-0.005596	-0.085564
O4	O	1.082029	0.238938	-0.085547
O5	O	1.096734	-0.005603	0.085570
O6	O	0.955124	0.123138	0.085579
O7	O	1.223624	0.110190	0.085579
Cu8	Cu	1.089373	0.116664	0.101205
Cu9	Cu	1.089390	0.116672	-0.101181
O10	O	1.082014	0.238931	0.085587
C11	C	0.920773	0.122535	0.000012
C12	C	0.818397	0.120717	0.000011
C13	C	0.735255	0.119240	0.000007
C14	C	0.630950	0.117394	0.000006
C15	C	0.547814	0.115929	0.000006
C16	C	0.443502	0.114083	0.000004
C17	C	1.096140	-0.036895	-0.000001
C18	C	1.094336	-0.130146	-0.000014
C19	C	1.177691	-0.365779	0.000005
C20	C	1.132748	-0.416412	-0.084372
C21	C	1.090994	-0.300872	-0.000002
C22	C	1.132713	-0.416395	0.084352
C23	C	1.087772	-0.465787	0.000015
C24	C	1.046074	-0.350277	-0.084449
C25	C	1.046052	-0.350257	0.084352
C26	C	1.001046	-0.400857	-0.000046
C27	C	1.092852	-0.205870	-0.000012
C28	C	1.085907	-0.560787	0.000018
C29	C	1.257990	0.110800	0.000010
C30	C	1.360366	0.112618	0.000004
C31	C	1.082623	0.270231	0.000022
C32	C	1.084427	0.363482	0.000029
N33	N	1.089367	0.116657	0.243552
N34	N	1.089403	0.116672	-0.243528
C35	C	1.089389	0.116673	0.663366
C36	C	1.089380	0.116671	0.546561
C37	C	1.089378	0.116666	0.453462
C38	C	1.089369	0.116663	0.336650
H39	H	1.169368	-0.445299	-0.155708
H40	H	1.252369	-0.350037	-0.000080
C41	C	0.997224	-0.312084	-0.179715
C42	C	0.965158	-0.376255	-0.238822
C43	C	0.920146	-0.341102	-0.326580
H44	H	1.039374	-0.283898	-0.219274
H45	H	0.946276	-0.272902	-0.159586
H46	H	1.016099	-0.415423	-0.258952
H47	H	0.922996	-0.404447	-0.199293
H48	H	0.869198	-0.301919	-0.306452
H49	H	0.962302	-0.312916	-0.366131
H50	H	0.898376	-0.384635	-0.366691
H51	H	0.926309	-0.416436	-0.000093
C52	C	0.997423	-0.311775	0.179595
C53	C	1.043137	-0.345422	0.267709
C54	C	0.998382	-0.309984	0.355474
H55	H	0.935012	-0.324370	0.180346
H56	H	0.998480	-0.252310	0.178615
H57	H	1.042070	-0.404873	0.268689
H58	H	1.105545	-0.332829	0.266992
H59	H	0.999439	-0.250519	0.354494
H60	H	0.935972	-0.322581	0.356215
H61	H	1.029397	-0.332802	0.415270
C62	C	1.181692	-0.454799	0.179434
C63	C	1.274078	-0.437347	0.179033
C64	C	1.319229	-0.472699	0.266606
H65	H	1.179785	-0.514154	0.179169
H66	H	1.151561	-0.431248	0.239381
H67	H	1.304201	-0.460901	0.119101
H68	H	1.276012	-0.377998	0.179313
H69	H	1.289098	-0.449148	0.326553
H70	H	1.317315	-0.532053	0.266333
H71	H	1.381915	-0.460857	0.266350
