data_functionalizedCrystal
_audit_creation_method	'MofGen! by Chris Wilmer'
_symmetry_space_group_name_H-M	'P1'
_symmetry_Int_Tables_number	1
_symmetry_cell_setting	triclinic
loop_
_symmetry_equiv_pos_as_xyz
  x,y,z
_cell_length_a	15.995350
_cell_length_b	15.995300
_cell_length_c	14.472310
_cell_angle_alpha	89.985388
_cell_angle_beta	90.001162
_cell_angle_gamma	83.482091
loop_
_atom_site_label
_atom_site_type_symbol
_atom_site_fract_x
_atom_site_fract_y
_atom_site_fract_z
O1	O	0.107720	1.111023	-0.076870
O2	O	0.121092	0.867242	-0.076864
O3	O	-0.007483	0.995796	-0.076866
O4	O	0.236295	0.982468	-0.076868
O5	O	-0.007475	0.995763	0.076816
O6	O	0.121099	0.867209	0.076818
O7	O	0.107728	1.110990	0.076812
Cu8	Cu	0.114414	0.989096	0.090847
Cu9	Cu	0.114405	0.989135	-0.090899
O10	O	0.236302	0.982435	0.076814
C11	C	0.120550	0.836030	-0.000022
C12	C	0.118915	0.743077	-0.000020
C13	C	0.115896	0.572894	-0.000027
C14	C	0.207443	0.525428	-0.000026
C15	C	0.205773	0.428741	-0.000377
C16	C	0.112924	0.405337	-0.000033
C17	C	0.067499	0.446489	-0.087620
C18	C	0.069816	0.543122	-0.087691
C19	C	0.068469	0.543364	0.087080
C20	C	0.068477	0.446419	0.088229
C21	C	0.111239	0.310642	-0.000040
C22	C	0.117577	0.667590	-0.000027
C23	C	-0.038674	0.995229	-0.000027
C24	C	-0.131624	0.993577	-0.000032
C25	C	-0.469370	0.987644	-0.000029
C26	C	-0.421920	0.896090	-0.000371
C27	C	-0.325230	0.897743	-0.000025
C28	C	-0.301810	0.990587	-0.000031
C29	C	-0.342892	1.035726	0.087726
C30	C	-0.439527	1.033426	0.087800
C31	C	-0.439894	1.035355	-0.086966
C32	C	-0.342949	1.035333	-0.088126
C33	C	-0.207113	0.992255	-0.000029
C34	C	-0.564068	0.985979	-0.000025
C35	C	0.267493	0.983003	-0.000027
C36	C	0.360443	0.984655	-0.000028
C37	C	0.108269	1.142202	-0.000032
C38	C	0.109904	1.235154	-0.000040
N39	N	0.114420	0.989075	0.218678
N40	N	0.114393	0.989163	-0.218730
C41	C	0.114402	0.989134	0.592769
C42	C	0.182969	0.920117	0.553605
C43	C	0.183219	0.920276	0.446517
C44	C	0.114411	0.989104	0.407178
C45	C	0.133477	1.076471	0.446013
C46	C	0.133964	1.076083	0.553135
C47	C	0.026565	0.971565	0.553300
C48	C	0.027152	0.969561	0.446172
C49	C	0.114414	0.989092	0.302290
C50	C	0.114400	0.989152	0.697658
H51	H	0.241306	0.400906	-0.063529
F52	F	-0.447799	0.848332	0.081205
H53	H	0.102547	0.561456	-0.153412
H54	H	0.085992	1.129045	0.579040
F55	F	-0.040129	1.037350	0.586402
H56	H	-0.457819	1.000483	0.153404
H57	H	0.002591	0.575396	-0.091433
F58	F	0.107868	0.570140	0.173880
F59	F	-0.466729	0.996243	-0.173906
F60	F	-0.288073	0.851363	-0.082250
H61	H	-0.471787	1.100643	0.091777
H62	H	0.101649	0.419066	0.153027
F63	F	0.008237	0.885558	0.413000
F64	F	-0.324446	1.124881	0.091989
H65	H	0.196804	1.092323	0.419175
H66	H	-0.315697	1.002331	-0.153046
F67	F	0.255715	0.549991	0.081738
F68	F	-0.021674	0.428062	-0.091559
H69	H	0.000784	0.431080	0.093777
F70	F	-0.305786	0.994713	0.173093
F71	F	0.108252	0.409472	-0.173141
H72	H	0.241466	0.400264	0.062395
F73	F	-0.019749	0.584916	0.088193
F74	F	-0.322882	1.123831	-0.095063
F75	F	-0.446135	0.848275	-0.082629
F76	F	0.267691	0.934586	0.588760
H77	H	0.248401	0.931495	0.420882
F78	F	-0.288792	0.851013	0.082341
H79	H	0.243683	0.545050	-0.062741
F80	F	-0.481424	1.123585	-0.087745
F81	F	0.168417	0.835381	0.412198
H82	H	0.198022	1.091565	0.578109
H83	H	0.171799	0.854965	0.579394
F84	F	0.069936	1.145206	0.412708
F85	F	0.002610	0.890088	0.588655
H86	H	-0.026262	1.016565	0.419398
