data_functionalizedCrystal
_audit_creation_method	'MofGen! by Chris Wilmer'
_symmetry_space_group_name_H-M	'P1'
_symmetry_Int_Tables_number	1
_symmetry_cell_setting	triclinic
loop_
_symmetry_equiv_pos_as_xyz
  x,y,z
_cell_length_a	8.559649
_cell_length_b	15.944551
_cell_length_c	7.088929
_cell_angle_alpha	83.774879
_cell_angle_beta	95.325015
_cell_angle_gamma	76.638701
loop_
_atom_site_label
_atom_site_type_symbol
_atom_site_fract_x
_atom_site_fract_y
_atom_site_fract_z
O1	O	2.103727	-0.018804	-0.158956
O2	O	1.638526	0.024575	-0.158968
O3	O	1.883832	-0.120210	-0.158944
O4	O	1.858421	0.125981	-0.158979
O5	O	1.916614	-0.139599	0.159034
O6	O	1.671309	0.005187	0.159010
O7	O	2.136509	-0.038193	0.159023
Cu8	Cu	1.906902	-0.018273	0.188050
Cu9	Cu	1.868133	0.004656	-0.187996
O10	O	1.891203	0.106593	0.158999
C11	C	1.595388	0.018169	0.000020
C12	C	1.418008	0.027954	0.000015
C13	C	1.899168	-0.161130	0.000045
C14	C	1.896006	-0.254172	0.000046
C15	C	1.736394	-0.458727	0.000015
C16	C	1.826675	-0.534087	0.156800
C17	C	1.890284	-0.424528	0.000031
C18	C	1.794391	-0.514957	-0.156702
C19	C	1.884745	-0.589082	0.000009
C20	C	1.980621	-0.498671	0.156945
C21	C	1.948300	-0.479525	-0.156697
C22	C	2.038697	-0.554877	0.000126
C23	C	1.893471	-0.329732	0.000046
C24	C	1.881571	-0.683878	0.000008
C25	C	2.179647	-0.031786	0.000031
C26	C	2.357025	-0.041571	0.000022
C27	C	1.875866	0.147513	0.000005
C28	C	1.879027	0.240556	-0.000008
N29	N	1.934182	-0.034401	0.452541
N30	N	1.840866	0.020776	-0.452487
H31	H	1.608676	-0.417185	0.000169
H32	H	2.030912	-0.091580	0.534206
H33	H	1.440515	-0.108579	0.000023
H34	H	1.744154	0.077957	0.465858
C35	C	1.145501	0.110937	-0.000002
C36	C	1.305300	0.118424	0.000000
H37	H	1.075925	0.166788	-0.000001
H38	H	1.114668	0.087243	-0.110880
H39	H	1.137534	0.073713	0.110893
H40	H	1.313270	0.155643	-0.110903
H41	H	1.336142	0.142130	0.110889
H42	H	1.775252	-0.558076	0.289345
C43	C	2.088807	-0.400634	0.334519
C44	C	2.086875	-0.488280	0.336089
H45	H	2.154392	-0.394219	0.445122
H46	H	2.131643	-0.381471	0.223340
H47	H	1.981693	-0.366775	0.334062
H48	H	2.193989	-0.522139	0.336531
H49	H	2.044045	-0.507454	0.447297
C50	C	2.308398	-0.603115	0.164537
C51	C	2.211287	-0.610796	0.000245
H52	H	2.414943	-0.637644	0.164619
H53	H	2.311433	-0.543993	0.165576
H54	H	2.264688	-0.622515	0.274839
H55	H	2.254991	-0.591391	-0.110058
H56	H	2.208259	-0.669931	-0.000812
H57	H	1.999667	-0.455510	-0.289250
C58	C	1.529829	-0.476214	-0.335323
C59	C	1.688053	-0.525489	-0.335642
H60	H	1.464180	-0.482710	-0.445794
H61	H	1.487694	-0.495847	-0.224010
H62	H	1.530309	-0.416666	-0.335980
H63	H	1.687574	-0.585039	-0.334971
H64	H	1.730198	-0.505861	-0.446984
