data_functionalizedCrystal
_audit_creation_method	'MofGen! by Chris Wilmer'
_symmetry_space_group_name_H-M	'P1'
_symmetry_Int_Tables_number	1
_symmetry_cell_setting	triclinic
loop_
_symmetry_equiv_pos_as_xyz
  x,y,z
_cell_length_a	14.971486
_cell_length_b	14.971494
_cell_length_c	14.048226
_cell_angle_alpha	89.995286
_cell_angle_beta	89.998499
_cell_angle_gamma	83.615843
loop_
_atom_site_label
_atom_site_type_symbol
_atom_site_fract_x
_atom_site_fract_y
_atom_site_fract_z
O1	O	1.186951	0.116564	-0.079047
O2	O	1.686951	0.616564	0.420953
O3	O	0.926551	0.130523	-0.079073
O4	O	1.426551	0.630523	0.420927
O5	O	1.063726	-0.006656	-0.079057
O6	O	1.563726	0.493344	0.420943
O7	O	1.049775	0.253743	-0.079063
O8	O	1.549775	0.753743	0.420937
O9	O	1.063710	-0.006664	0.079264
O10	O	1.563710	0.493336	0.579264
O11	O	0.926534	0.130515	0.079248
O12	O	1.426534	0.630515	0.579248
O13	O	1.186934	0.116556	0.079274
O14	O	1.686934	0.616556	0.579274
Zn15	Zn	1.056732	0.123534	0.104398
Zn16	Zn	1.556732	0.623534	0.604398
Zn17	Zn	1.056753	0.123545	-0.104197
Zn18	Zn	1.556753	0.623545	0.395803
O19	O	1.049759	0.253735	0.079258
O20	O	1.549759	0.753735	0.579258
C21	C	0.893218	0.129895	0.000084
C22	C	1.393218	0.629895	0.500084
C23	C	0.793921	0.128024	0.000075
C24	C	1.293921	0.628024	0.500075
C25	C	0.736698	0.208613	0.000074
C26	C	1.236698	0.708613	0.500074
C27	C	0.643398	0.206850	0.000088
C28	C	1.143398	0.706850	0.500088
C29	C	0.607323	0.124497	0.000096
C30	C	1.107323	0.624497	0.500096
C31	C	0.664554	0.043902	0.000100
C32	C	1.164554	0.543902	0.500100
C33	C	0.757851	0.045666	0.000092
C34	C	1.257851	0.545666	0.500092
C35	C	0.470091	0.040231	0.000113
C36	C	0.970091	0.540231	0.500113
C37	C	0.376787	0.038466	0.000118
C38	C	0.876787	0.538466	0.500118
C39	C	0.355638	0.201415	0.000109
C40	C	0.855638	0.701415	0.500109
C41	C	0.448936	0.203179	0.000102
C42	C	0.948936	0.703179	0.500102
C43	C	0.506160	0.122583	0.000103
C44	C	1.006160	0.622583	0.500103
C45	C	1.063093	-0.039985	0.000102
C46	C	1.563093	0.460015	0.500102
C47	C	1.061219	-0.139281	0.000097
C48	C	1.561219	0.360719	0.500097
C49	C	1.060350	-0.185922	-0.086205
C50	C	1.560350	0.314078	0.413795
C51	C	1.058583	-0.279221	-0.086206
C52	C	1.558583	0.220779	0.413794
C53	C	1.057693	-0.325879	0.000096
C54	C	1.557693	0.174121	0.500096
C55	C	1.058559	-0.279231	0.086404
C56	C	1.558559	0.220769	0.586404
C57	C	1.060319	-0.185933	0.086405
C58	C	1.560319	0.314067	0.586405
C59	C	1.054893	-0.473695	0.086398
C60	C	1.554893	0.026305	0.586398
C61	C	1.053135	-0.566999	0.086398
C62	C	1.553135	-0.066999	0.586398
C63	C	1.053158	-0.566982	-0.086213
C64	C	1.553158	-0.066982	0.413787
C65	C	1.054917	-0.473684	-0.086213
C66	C	1.554917	0.026316	0.413787
C67	C	1.055786	-0.427043	0.000096
C68	C	1.555786	0.072957	0.500096
C69	C	1.220267	0.117184	0.000114
C70	C	1.720267	0.617184	0.500114
C71	C	1.319564	0.119055	0.000118
C72	C	1.819564	0.619055	0.500118
C73	C	1.050392	0.287064	0.000097
C74	C	1.550392	0.787064	0.500097
C75	C	1.052266	0.386360	0.000095
C76	C	1.552266	0.886360	0.500095
N77	N	1.056723	0.123526	0.246759
N78	N	1.556723	0.623526	0.746759
N79	N	1.056769	0.123546	-0.246558
N80	N	1.556769	0.623546	0.253442
C81	C	1.117484	0.062809	0.296584
C82	C	1.617484	0.562809	0.796584
C83	C	1.117490	0.062808	0.396241
C84	C	1.617490	0.562808	0.896241
C85	C	1.056739	0.123530	0.446072
C86	C	1.556739	0.623530	0.946072
C87	C	0.995972	0.184251	0.396240
C88	C	1.495972	0.684251	0.896240
C89	C	0.995962	0.184246	0.296584
C90	C	1.495962	0.684246	0.796584
C91	C	0.995998	0.184257	0.603955
C92	C	1.495998	0.684257	1.103955
C93	C	0.996008	0.184263	0.703617
C94	C	1.496008	0.684263	1.203617
C95	C	1.117525	0.062819	0.703611
C96	C	1.617525	0.562819	1.203611
C97	C	1.117515	0.062815	0.603956
C98	C	1.617515	0.562815	1.103956
C99	C	1.056749	0.123537	0.554131
C100	C	1.556749	0.623537	1.054131
H101	H	0.804442	-0.019958	0.000092
H102	H	1.304442	0.480042	0.500092
H103	H	0.946484	0.233688	0.256018
H104	H	1.446484	0.733688	0.756018
N105	N	0.930445	0.249738	0.449989
N106	N	1.430445	0.749738	0.949989
H107	H	0.964669	0.289402	0.491323
H108	H	1.464669	0.789402	0.991323
H109	H	0.891964	0.288141	0.403243
H110	H	1.391964	0.788141	0.903243
N111	N	1.183041	-0.002679	0.550213
N112	N	1.683041	0.497321	1.050213
H113	H	1.148816	-0.042339	0.508876
H114	H	1.648816	0.457661	1.008876
H115	H	1.222657	0.031632	0.508911
H116	H	1.722657	0.531632	1.008911
N117	N	0.625638	-0.044918	0.000107
N118	N	1.125638	0.455082	0.500107
H119	H	0.646497	-0.080229	-0.058582
H120	H	1.146497	0.419771	0.441418
H121	H	0.646507	-0.080161	0.058837
H122	H	1.146507	0.419839	0.558837
N123	N	1.055841	-0.423383	0.179483
N124	N	1.555841	0.076617	0.679483
H125	H	1.001168	-0.377481	0.183329
H126	H	1.501168	0.122519	0.683329
H127	H	1.055048	-0.467153	0.234104
H128	H	1.555048	0.032847	0.734104
H129	H	1.166957	0.013365	0.256018
H130	H	1.666957	0.513365	0.756018
N131	N	0.930464	0.249751	0.550209
N132	N	1.430464	0.749751	1.050209
H133	H	0.890821	0.215504	0.508873
H134	H	1.390821	0.715504	1.008873
H135	H	0.892042	0.288208	0.596955
H136	H	1.392042	0.788208	1.096955
H137	H	0.309041	0.267038	0.000112
H138	H	0.809041	0.767038	0.500112
H139	H	1.166965	0.013367	0.436808
H140	H	1.666965	0.513367	0.936808
N141	N	0.775594	0.297442	0.000067
N142	N	1.275594	0.797442	0.500067
H143	H	0.813836	0.301805	0.058752
H144	H	1.313836	0.801805	0.558752
H145	H	0.813783	0.301759	-0.058666
H146	H	1.313783	0.801759	0.441334
N147	N	1.052248	-0.617253	-0.179325
N148	N	1.552248	-0.117253	0.320675
H149	H	0.996120	-0.648777	-0.183229
H150	H	1.496120	-0.148777	0.316771
H151	H	1.053129	-0.573458	-0.233914
H152	H	1.553129	-0.073458	0.266086
N153	N	0.581678	0.293770	0.000196
N154	N	1.081678	0.793770	0.500196
H155	H	0.618689	0.346207	0.000219
H156	H	1.118689	0.846207	0.500219
H157	H	0.542453	0.296657	-0.058456
H158	H	1.042453	0.796657	0.441544
N159	N	0.487849	0.291999	0.000075
N160	N	0.987849	0.791999	0.500075
H161	H	0.437443	0.342789	0.000074
H162	H	0.937443	0.842789	0.500074
H163	H	0.526105	0.296282	0.058760
H164	H	1.026105	0.796282	0.558760
N165	N	1.055887	-0.423358	-0.179293
N166	N	1.555887	0.076642	0.320707
H167	H	1.055069	-0.467059	-0.233969
H168	H	1.555069	0.032941	0.266031
H169	H	1.001212	-0.377456	-0.183056
H170	H	1.501212	0.122544	0.316944
N171	N	0.337864	-0.050350	0.000151
N172	N	0.837864	0.449650	0.500151
H173	H	0.299622	-0.054718	-0.058533
H174	H	0.799622	0.445282	0.441467
H175	H	0.388313	-0.101093	0.000198
H176	H	0.888313	0.398907	0.500198
N177	N	1.052173	-0.617327	0.179477
N178	N	1.552173	-0.117327	0.679477
H179	H	1.052983	-0.573624	0.234154
H180	H	1.552983	-0.073624	0.734154
H181	H	0.996037	-0.648848	0.183220
H182	H	1.496037	-0.148848	0.683220
N183	N	0.531814	-0.046695	0.000121
N184	N	1.031814	0.453305	0.500121
H185	H	0.494805	-0.099134	0.000124
H186	H	0.994805	0.400866	0.500124
H187	H	0.570982	-0.049509	-0.058574
H188	H	1.070982	0.450491	0.441426
H189	H	1.057829	-0.317227	0.156673
H190	H	1.557829	0.182773	0.656673
H191	H	1.061080	-0.147940	-0.156482
H192	H	1.561080	0.352060	0.343518
H193	H	1.057879	-0.317192	-0.156482
H194	H	1.557879	0.182808	0.343518
H195	H	1.061014	-0.147958	0.156681
H196	H	1.561014	0.352042	0.656681
H197	H	1.167002	0.013377	0.744185
H198	H	1.667002	0.513377	1.244185
H199	H	0.946538	0.233709	0.744185
H200	H	1.446538	0.733709	1.244185
