data_functionalizedCrystal
_audit_creation_method	'MofGen! by Chris Wilmer'
_symmetry_space_group_name_H-M	'P1'
_symmetry_Int_Tables_number	1
_symmetry_cell_setting	triclinic
loop_
_symmetry_equiv_pos_as_xyz
  x,y,z
_cell_length_a	6.817900
_cell_length_b	11.102288
_cell_length_c	16.015572
_cell_angle_alpha	76.744148
_cell_angle_beta	104.485554
_cell_angle_gamma	108.605689
loop_
_atom_site_label
_atom_site_type_symbol
_atom_site_fract_x
_atom_site_fract_y
_atom_site_fract_z
V1	V	-3.999220	-0.051261	-0.269393
O2	O	-3.960391	0.130656	-0.264265
O3	O	-3.976766	-0.224933	-0.267551
O4	O	-3.927019	0.005776	-0.386885
O5	O	-4.010482	-0.101651	-0.144105
V6	V	-4.482571	-0.036148	-0.254407
O7	O	-4.260858	-0.084413	-0.302265
O8	O	-4.671130	-0.002996	-0.221536
O9	O	-4.281819	0.137524	-0.256250
O10	O	-4.638797	-0.218065	-0.259536
O11	O	-4.588706	0.014242	-0.379696
O12	O	-4.331565	-0.093185	-0.136916
C13	C	-3.828848	-0.269029	-0.263301
C14	C	-3.891617	-0.410646	-0.262578
C15	C	-4.103316	-0.481658	-0.266549
C16	C	-4.162285	-0.614720	-0.265876
C17	C	-3.797832	-0.605747	-0.257258
C18	C	-3.738869	-0.472686	-0.257937
C19	C	-3.765391	0.025266	-0.415522
C20	C	-3.787814	0.070751	-0.511572
C21	C	-4.136761	-0.332975	-0.889205
C22	C	-4.157829	-0.290194	-0.979454
C23	C	-4.047775	-0.068856	-0.954747
C24	C	-4.026687	-0.111619	-0.864494
C25	C	-4.071187	-0.243680	-0.831730
C26	C	-3.961113	-0.022324	-0.807019
C27	C	-3.940038	-0.065084	-0.716774
C28	C	-3.984537	-0.197140	-0.684003
C29	C	-4.050112	-0.286440	-0.741485
C30	C	-3.916629	0.109736	-0.839785
C31	C	-3.851054	0.199031	-0.782310
C32	C	-3.829964	0.156272	-0.692063
C33	C	-3.874463	0.024216	-0.659292
C34	C	-3.764390	0.245572	-0.634581
C35	C	-3.743314	0.202812	-0.544335
C36	C	-3.853388	-0.018544	-0.569047
C37	C	-4.093080	0.181612	-0.260497
C38	C	-4.009548	0.323230	-0.261226
C39	C	-4.156537	-0.112681	-0.108274
C40	C	-4.113352	-0.158160	-0.012223
H41	H	-3.967380	-0.231953	-0.610519
O42	O	-3.533127	-0.403790	-0.253921
C43	C	-3.177731	-0.372979	-0.171587
C44	C	-3.410649	-0.451085	-0.176010
H45	H	-3.078634	-0.411204	-0.108610
H46	H	-3.161684	-0.267214	-0.172814
H47	H	-3.120423	-0.382750	-0.230105
H48	H	-3.468108	-0.441421	-0.117504
H49	H	-3.426562	-0.556818	-0.174825
H50	H	-4.334667	-0.672532	-0.269111
O51	O	-4.179566	-0.461295	-0.857505
C52	C	-4.289455	-0.676306	-0.891491
C53	C	-4.241481	-0.531043	-0.927520
H54	H	-4.339481	-0.732738	-0.948079
H55	H	-4.422160	-0.705630	-0.853161
H56	H	-4.142075	-0.698083	-0.846545
H57	H	-4.388738	-0.509159	-0.972501
H58	H	-4.108696	-0.501793	-0.965799
O59	O	-4.251543	-0.421221	-0.271178
C60	C	-4.422428	-0.258731	-0.352176
C61	C	-4.254447	-0.327041	-0.347028
H62	H	-4.424861	-0.182591	-0.413505
H63	H	-4.383077	-0.210725	-0.292004
H64	H	-4.583825	-0.332383	-0.354857
H65	H	-4.092987	-0.253471	-0.344375
H66	H	-4.293980	-0.375071	-0.407198
H67	H	-3.673477	-0.656277	-0.253477
O68	O	-3.895899	-0.146813	-0.537197
C69	C	-3.809029	-0.344627	-0.526269
C70	C	-3.761033	-0.199420	-0.562483
H71	H	-3.699988	-0.387198	-0.546684
H72	H	-3.980036	-0.394565	-0.553353
H73	H	-3.782502	-0.359597	-0.451899
H74	H	-3.787437	-0.184331	-0.636851
H75	H	-3.590040	-0.149554	-0.535333
O76	O	-4.092916	-0.414760	-0.709785
C77	C	-4.202806	-0.629771	-0.743771
C78	C	-4.154832	-0.484508	-0.779800
H79	H	-4.252832	-0.686203	-0.800359
H80	H	-4.335511	-0.659096	-0.705441
H81	H	-4.055425	-0.651548	-0.698825
H82	H	-4.302088	-0.462624	-0.824781
H83	H	-4.022046	-0.455258	-0.818079
O84	O	-3.807824	0.327266	-0.814284
C85	C	-3.791624	0.491242	-0.942362
C86	C	-3.840615	0.345980	-0.906272
H87	H	-3.818159	0.506418	-1.016739
H88	H	-3.620447	0.540764	-0.915217
H89	H	-3.900151	0.534085	-0.921843
H90	H	-3.732226	0.303023	-0.926777
H91	H	-4.011840	0.296551	-0.933413
H92	H	-4.211221	-0.362919	-1.026249
O93	O	-4.004545	0.059379	-0.986721
C94	C	-3.988345	0.223355	-1.114800
C95	C	-4.037336	0.078093	-1.078709
H96	H	-4.014880	0.238530	-1.189176
H97	H	-3.817168	0.272876	-1.087654
H98	H	-4.096872	0.266198	-1.094280
H99	H	-3.928947	0.035136	-1.099215
H100	H	-4.208561	0.028663	-1.105851
O101	O	-3.721177	0.373806	-0.666557
C102	C	-3.705024	0.537775	-0.794639
C103	C	-3.753982	0.392515	-0.758545
H104	H	-3.731570	0.552947	-0.869016
H105	H	-3.533849	0.587309	-0.767499
H106	H	-3.813559	0.580609	-0.774118
H107	H	-3.645584	0.349568	-0.779053
H108	H	-3.925205	0.343073	-0.785681
O109	O	-3.679499	0.289723	-0.488618
C110	C	-3.572669	0.513785	-0.473627
C111	C	-3.644860	0.415497	-0.536823
H112	H	-3.544685	0.615493	-0.512576
H113	H	-3.420120	0.502700	-0.427398
H114	H	-3.699915	0.495909	-0.434116
H115	H	-3.517760	0.433310	-0.576392
H116	H	-3.797463	0.426606	-0.582993
H117	H	-3.933761	0.144548	-0.913268
