data_functionalizedCrystal
_audit_creation_method	'MofGen! by Chris Wilmer'
_symmetry_space_group_name_H-M	'P1'
_symmetry_Int_Tables_number	1
_symmetry_cell_setting	triclinic
loop_
_symmetry_equiv_pos_as_xyz
  x,y,z
_cell_length_a	13.897449
_cell_length_b	13.897447
_cell_length_c	13.897449
_cell_angle_alpha	90.008998
_cell_angle_beta	90.008641
_cell_angle_gamma	90.020357
loop_
_atom_site_label
_atom_site_type_symbol
_atom_site_fract_x
_atom_site_fract_y
_atom_site_fract_z
Zn1	Zn	1.474550	-0.384156	0.545458
Zn2	Zn	1.474480	-0.545421	0.384163
Zn3	Zn	1.313280	-0.384144	0.384169
Zn4	Zn	1.313216	-0.545413	0.545408
O5	O	1.393882	-0.464784	0.464799
O6	O	1.609522	-0.405557	0.524080
O7	O	1.453095	-0.524025	0.249182
O8	O	1.334730	-0.249164	0.405587
O9	O	1.609471	-0.524037	0.405577
O10	O	1.453213	-0.249173	0.524086
O11	O	1.334662	-0.405535	0.249186
O12	O	1.178290	-0.405528	0.405539
O13	O	1.334619	-0.524025	0.680396
O14	O	1.178243	-0.524012	0.524001
O15	O	1.453150	-0.405550	0.680433
O16	O	1.453032	-0.680402	0.405529
O17	O	1.334551	-0.680396	0.523995
C18	C	1.143267	-0.464769	0.464766
C19	C	1.036053	-0.464786	0.464774
C20	C	0.948983	-0.464789	0.464790
C21	C	0.839751	-0.464796	0.464820
C22	C	1.393803	-0.715398	0.464777
C23	C	1.393858	-0.822612	0.464800
C24	C	1.393904	-0.909682	0.464822
C25	C	1.393972	-1.018914	0.464846
C26	C	1.645474	-0.464799	0.464834
C27	C	1.752688	-0.464806	0.464848
C28	C	1.393885	-0.464788	0.716392
C29	C	1.393887	-0.464789	0.823606
C30	C	1.393987	-0.213191	0.464843
C31	C	1.394031	-0.105977	0.464861
C32	C	1.393862	-0.464794	1.019901
C33	C	1.393873	-0.464794	0.910669
C34	C	1.393869	-0.464799	1.214185
C35	C	1.393861	-0.464791	1.106971
