data_functionalizedCrystal
_audit_creation_method	'MofGen! by Chris Wilmer'
_symmetry_space_group_name_H-M	'P1'
_symmetry_Int_Tables_number	1
_symmetry_cell_setting	triclinic
loop_
_symmetry_equiv_pos_as_xyz
  x,y,z
_cell_length_a	19.077212
_cell_length_b	18.050589
_cell_length_c	19.077237
_cell_angle_alpha	92.275368
_cell_angle_beta	85.294935
_cell_angle_gamma	92.320484
loop_
_atom_site_label
_atom_site_type_symbol
_atom_site_fract_x
_atom_site_fract_y
_atom_site_fract_z
Zn1	Zn	1.093705	-0.268145	-0.442029
Zn2	Zn	1.593705	0.231855	0.057971
Zn3	Zn	1.088889	-0.387549	-0.324149
Zn4	Zn	1.588889	0.112451	0.175851
Zn5	Zn	0.971092	-0.268158	-0.319409
Zn6	Zn	1.471092	0.231842	0.180591
Zn7	Zn	0.975773	-0.397083	-0.437249
Zn8	Zn	1.475773	0.102917	0.062751
O9	O	1.032364	-0.330234	-0.380709
O10	O	1.532364	0.169766	0.119291
O11	O	1.191719	-0.279989	-0.430377
O12	O	1.691719	0.220011	0.069623
O13	O	1.069288	-0.367727	-0.224871
O14	O	1.569288	0.132273	0.275129
O15	O	0.987413	-0.164230	-0.335691
O16	O	1.487413	0.335770	0.164309
O17	O	1.188181	-0.367715	-0.343771
O18	O	1.688181	0.132285	0.156229
O19	O	1.077497	-0.164221	-0.425780
O20	O	1.577497	0.335779	0.074220
O21	O	0.982743	-0.280011	-0.221388
O22	O	1.482743	0.219989	0.278612
O23	O	0.873059	-0.289255	-0.331056
O24	O	1.373059	0.210745	0.168944
O25	O	0.995391	-0.383964	-0.536533
O26	O	1.495391	0.116036	-0.036533
O27	O	0.876498	-0.383976	-0.417632
O28	O	1.376498	0.116024	0.082368
O29	O	1.082035	-0.289234	-0.540045
O30	O	1.582035	0.210766	-0.040045
O31	O	1.073827	-0.492740	-0.339135
O32	O	1.573827	0.007260	0.160865
O33	O	0.990721	-0.499744	-0.422229
O34	O	1.490721	0.000256	0.077771
C35	C	0.849199	-0.337652	-0.373311
C36	C	1.349199	0.162348	0.126689
C37	C	0.770841	-0.340844	-0.370163
C38	C	1.270841	0.159156	0.129837
C39	C	0.329569	-0.363709	-0.347617
C40	C	0.829569	0.136291	0.152383
C41	C	0.403194	-0.360705	-0.350569
C42	C	0.903194	0.139295	0.149431
C43	C	0.441855	-0.313610	-0.397210
C44	C	0.941855	0.186390	0.102790
C45	C	0.406885	-0.269510	-0.440897
C46	C	0.906885	0.230490	0.059103
C47	C	0.333260	-0.272510	-0.437940
C48	C	0.833260	0.227490	0.062060
C49	C	0.662247	-0.299745	-0.410893
C50	C	1.162247	0.200255	0.089107
C51	C	0.735876	-0.296749	-0.413847
C52	C	1.235876	0.203251	0.086153
C53	C	0.732181	-0.387944	-0.323519
C54	C	1.232181	0.112056	0.176481
C55	C	0.658555	-0.390943	-0.320569
C56	C	1.158555	0.109057	0.179431
C57	C	0.623592	-0.346840	-0.364253
C58	C	1.123592	0.153160	0.135747
N59	N	0.517112	-0.310540	-0.400231
N60	N	1.017112	0.189460	0.099769
N61	N	0.548335	-0.349906	-0.361228
N62	N	1.048335	0.150094	0.138772
C63	C	1.032279	-0.523189	-0.380694
C64	C	1.532279	-0.023189	0.119306
C65	C	1.032308	-0.605734	-0.380714
C66	C	1.532308	-0.105734	0.119286
C67	C	0.987160	-0.809018	-0.425885
C68	C	1.487160	-0.309018	0.074115
C69	C	0.967398	-0.856539	-0.360866
C70	C	1.467398	-0.356539	0.139134
C71	C	1.032377	-0.756862	-0.380726
C72	C	1.532377	-0.256862	0.119274
C73	C	1.052174	-0.856422	-0.445754
C74	C	1.552174	-0.356422	0.054246
C75	C	1.032444	-0.902845	-0.380743
C76	C	1.532444	-0.402845	0.119257
C77	C	1.012580	-0.803296	-0.315671
C78	C	1.512580	-0.303296	0.184329
C79	C	1.097388	-0.803175	-0.400603
C80	C	1.597388	-0.303175	0.099397
C81	C	1.077648	-0.850670	-0.335540
C82	C	1.577648	-0.350670	0.164460
C83	C	1.032338	-0.672765	-0.380716
C84	C	1.532338	-0.172765	0.119284
C85	C	1.032483	-0.986940	-0.380745
C86	C	1.532483	-0.486940	0.119255
C87	C	1.216245	-0.322787	-0.388136
C88	C	1.716245	0.177213	0.111864
C89	C	1.294604	-0.319614	-0.391301
C90	C	1.794604	0.180386	0.108699
C91	C	1.039772	-0.337661	-0.564583
C92	C	1.539772	0.162339	-0.064583
C93	C	1.042929	-0.340826	-0.642939
C94	C	1.542929	0.159174	-0.142939
C95	C	1.032470	-0.136525	-0.380740
C96	C	1.532470	0.363475	0.119260
C97	C	1.032515	-0.053978	-0.380754
C98	C	1.532515	0.446022	0.119246
C99	C	1.065576	-0.363580	-1.084197
C100	C	1.565576	0.136420	-0.584197
C101	C	1.062599	-0.360602	-1.010572
C102	C	1.562599	0.139398	-0.510572
C103	C	1.016056	-0.313440	-0.971955
C104	C	1.516056	0.186560	-0.471955
C105	C	0.972481	-0.269259	-1.006965
C106	C	1.472481	0.230741	-0.506965
C107	C	0.975455	-0.272242	-1.080588
C108	C	1.475455	0.227758	-0.580588
C109	C	1.002328	-0.299627	-0.751572
C110	C	1.502328	0.200373	-0.251572
C111	C	0.999359	-0.296646	-0.677944
C112	C	1.499359	0.203354	-0.177944
C113	C	1.089477	-0.387991	-0.681557
C114	C	1.589477	0.112009	-0.181557
C115	C	1.092449	-0.390965	-0.755181
C116	C	1.592449	0.109035	-0.255181
C117	C	1.048872	-0.346787	-0.790185
C118	C	1.548872	0.153213	-0.290185
N119	N	1.013014	-0.310394	-0.896699
N120	N	1.513014	0.189606	-0.396699
N121	N	1.051911	-0.349839	-0.865439
N122	N	1.551911	0.150161	-0.365439
C123	C	1.025026	-0.322780	-0.197552
C124	C	1.525026	0.177220	0.302448
C125	C	1.022006	-0.319401	-0.119202
C126	C	1.522006	0.180599	0.380798
H127	H	0.627082	-0.429292	-0.282588
H128	H	1.127082	0.070708	0.217412
H129	H	1.152322	-0.779785	-0.417431
H130	H	1.652322	-0.279785	0.082569
O131	O	0.769894	-0.435501	-0.276401
O132	O	1.269894	0.064499	0.223599
H133	H	0.730642	-0.468755	-0.243475
H134	H	1.230642	0.031245	0.256525
O135	O	0.922282	-0.218391	-0.965313
O136	O	1.422282	0.281609	-0.465313
H137	H	0.892480	-0.188176	-1.002025
H138	H	1.392480	0.311824	-0.502025
O139	O	0.777579	-0.245947	-0.464150
O140	O	1.277579	0.254053	0.035850
H141	H	0.740898	-0.215777	-0.494025
H142	H	1.240898	0.284223	0.005975
H143	H	0.304793	-0.236601	-0.473510
H144	H	0.804793	0.263399	0.026490
O145	O	1.142648	-0.441845	-0.796818
O146	O	1.642648	0.058155	-0.296818
H147	H	1.179900	-0.408521	-0.831812
H148	H	1.679900	0.091479	-0.331812
H149	H	1.115914	-0.868946	-0.297312
H150	H	1.615914	-0.368946	0.202688
O151	O	1.074325	-0.887248	-0.518588
O152	O	1.574325	-0.387248	-0.018588
H153	H	1.036674	-0.870675	-0.555957
H154	H	1.536674	-0.370675	-0.055957
H155	H	0.633789	-0.263837	-0.446466
H156	H	1.133789	0.236163	0.053534
H157	H	0.438368	-0.231161	-0.478870
H158	H	0.938368	0.268839	0.021130
H159	H	1.124954	-0.423959	-0.653049
H160	H	1.624954	0.076041	-0.153049
O161	O	0.928473	-0.224574	-1.118344
O162	O	1.428473	0.275426	-0.618344
H163	H	0.938359	-0.234571	-1.176026
H164	H	1.438359	0.265429	-0.676026
H165	H	0.912453	-0.879933	-0.344068
H166	H	1.412453	-0.379933	0.155932
O167	O	0.287871	-0.414500	-0.297307
O168	O	0.787871	0.085500	0.202693
H169	H	0.324556	-0.444650	-0.267421
H170	H	0.824556	0.055350	0.232579
H171	H	1.103480	-0.401981	-1.115634
H172	H	1.603480	0.098019	-0.615634
H173	H	1.098070	-0.396587	-0.982074
H174	H	1.598070	0.103413	-0.482074
H175	H	0.431659	-0.396611	-0.314996
H176	H	0.931659	0.103389	0.185004
H177	H	0.948861	-0.790603	-0.464017
H178	H	1.448861	-0.290603	0.035983
H179	H	0.995799	-0.780114	-0.260667
H180	H	1.495799	-0.280114	0.239333
O181	O	0.949151	-0.245784	-0.636287
O182	O	1.449151	0.254216	-0.136287
H183	H	0.919342	-0.215572	-0.672995
H184	H	1.419342	0.284428	-0.172995
O185	O	0.955339	-0.251971	-0.789323
O186	O	1.455339	0.248029	-0.289323
H187	H	0.922484	-0.218668	-0.750099
H188	H	1.422484	0.281332	-0.250099
