data_functionalizedCrystal
_audit_creation_method	'MofGen! by Chris Wilmer'
_symmetry_space_group_name_H-M	'P1'
_symmetry_Int_Tables_number	1
_symmetry_cell_setting	triclinic
loop_
_symmetry_equiv_pos_as_xyz
  x,y,z
_cell_length_a	6.817900
_cell_length_b	11.168121
_cell_length_c	10.773894
_cell_angle_alpha	95.440990
_cell_angle_beta	96.645922
_cell_angle_gamma	108.508496
loop_
_atom_site_label
_atom_site_type_symbol
_atom_site_fract_x
_atom_site_fract_y
_atom_site_fract_z
V1	V	-3.973864	-0.170064	-0.388954
O2	O	-3.936042	0.012947	-0.381539
O3	O	-3.951079	-0.341801	-0.386304
O4	O	-3.890835	-0.165353	-0.558586
O5	O	-3.996703	-0.164722	-0.208065
V6	V	-4.458661	-0.148422	-0.367317
O7	O	-4.232330	-0.217540	-0.436417
O8	O	-4.650392	-0.100947	-0.319855
O9	O	-4.258240	0.023315	-0.369967
O10	O	-4.613880	-0.331433	-0.374732
O11	O	-4.553219	-0.153764	-0.548206
O12	O	-4.318484	-0.153133	-0.197685
C13	C	-3.803431	-0.383733	-0.380171
C14	C	-3.865857	-0.524116	-0.379135
C15	C	-4.066459	-0.592744	-0.384590
C16	C	-4.130983	-0.737838	-0.383519
C17	C	-3.726583	-0.158654	-0.599932
C18	C	-3.740150	-0.155939	-0.738607
C19	C	-3.918927	-0.160645	-0.806469
C20	C	-3.932953	-0.157838	-0.949797
C21	C	-4.069231	0.065240	-0.376097
C22	C	-3.986042	0.205622	-0.377141
C23	C	-4.146079	-0.159836	-0.156333
C24	C	-4.111750	-0.162545	-0.017657
H25	H	-3.814188	-0.735390	-0.372467
C26	C	-3.698359	-0.589837	-0.371757
H27	H	-3.564138	-0.527967	-0.368483
H28	H	-3.701104	-0.630378	-0.298042
H29	H	-3.726482	-0.651699	-0.444218
C30	C	-3.547456	-0.147817	-0.803465
H31	H	-3.433488	-0.145260	-0.742308
H32	H	-3.579381	-0.220449	-0.865409
H33	H	-3.510609	-0.072749	-0.842680
H34	H	-4.190433	-0.544082	-0.390059
H35	H	-4.302830	-0.796830	-0.388175
C36	C	-3.740245	-0.149717	-1.014651
H37	H	-3.626278	-0.147159	-0.953493
H38	H	-3.772170	-0.222349	-1.076594
H39	H	-3.703398	-0.074648	-1.053865
C40	C	-4.111676	-0.168897	-0.741624
H41	H	-4.076967	-0.169710	-0.653800
H42	H	-4.154236	-0.097202	-0.754128
H43	H	-4.222741	-0.244892	-0.776933
H44	H	-4.254440	-0.168657	-0.969655
