data_functionalizedCrystal
_audit_creation_method	'MofGen! by Chris Wilmer'
_symmetry_space_group_name_H-M	'P1'
_symmetry_Int_Tables_number	1
_symmetry_cell_setting	triclinic
loop_
_symmetry_equiv_pos_as_xyz
  x,y,z
_cell_length_a	19.077105
_cell_length_b	18.050589
_cell_length_c	19.077174
_cell_angle_alpha	92.276796
_cell_angle_beta	85.483752
_cell_angle_gamma	87.724731
loop_
_atom_site_label
_atom_site_type_symbol
_atom_site_fract_x
_atom_site_fract_y
_atom_site_fract_z
Zn1	Zn	1.093685	-0.360841	-0.441865
Zn2	Zn	1.088863	-0.479833	-0.323985
Zn3	Zn	0.971071	-0.350459	-0.319262
Zn4	Zn	0.975757	-0.479784	-0.437102
O5	O	1.032344	-0.417729	-0.380554
O6	O	1.191695	-0.380990	-0.430198
O7	O	1.069258	-0.458347	-0.224708
O8	O	0.987392	-0.247915	-0.335542
O9	O	1.188153	-0.468413	-0.343591
O10	O	1.077477	-0.255542	-0.425618
O11	O	0.982717	-0.363297	-0.221238
O12	O	0.873042	-0.363250	-0.330924
O13	O	0.995380	-0.468330	-0.536384
O14	O	0.876485	-0.458264	-0.417501
O15	O	1.082021	-0.380943	-0.539883
O16	O	1.073803	-0.583748	-0.338973
O17	O	0.990704	-0.583712	-0.422080
C18	C	0.849185	-0.409626	-0.373184
C19	C	0.770830	-0.406177	-0.370048
C20	C	0.735826	-0.454095	-0.413579
C21	C	0.662203	-0.450845	-0.410636
C22	C	0.623585	-0.399681	-0.364157
C23	C	0.658593	-0.351759	-0.320623
C24	C	0.732215	-0.355005	-0.323571
C25	C	0.403205	-0.384656	-0.350519
C26	C	0.329577	-0.381415	-0.347574
C27	C	0.333193	-0.480501	-0.437588
C28	C	0.406816	-0.483746	-0.440528
C29	C	0.441818	-0.435821	-0.396997
N30	N	0.548330	-0.396360	-0.361146
N31	N	0.517072	-0.439139	-0.400012
C32	C	1.032258	-0.610677	-0.380538
C33	C	1.032287	-0.693225	-0.380558
C34	C	0.987144	-0.892684	-0.425737
C35	C	0.967379	-0.938529	-0.360720
C36	C	1.032357	-0.844359	-0.380570
C37	C	1.052156	-0.945598	-0.445596
C38	C	1.032423	-0.990347	-0.380587
C39	C	1.012557	-0.889113	-0.315518
C40	C	1.097366	-0.896181	-0.400438
C41	C	1.077624	-0.942002	-0.335378
C42	C	1.032317	-0.760258	-0.380561
C43	C	1.032463	-1.074446	-0.380589
C44	C	1.216218	-0.425865	-0.387952
C45	C	1.294574	-0.429332	-0.391105
C46	C	1.039761	-0.425789	-0.564428
C47	C	1.042922	-0.429224	-0.642784
C48	C	1.032450	-0.224029	-0.380585
C49	C	1.032495	-0.141486	-0.380598
C50	C	0.999351	-0.381351	-0.677789
C51	C	1.002318	-0.384585	-0.751413
C52	C	1.048860	-0.435688	-0.790031
C53	C	1.092432	-0.483566	-0.755021
C54	C	1.089461	-0.480335	-0.681398
C55	C	1.062574	-0.450659	-1.010413
C56	C	1.065543	-0.453884	-1.084041
C57	C	0.975427	-0.354903	-1.080428
C58	C	0.972463	-0.351674	-1.006804
C59	C	1.016033	-0.399555	-0.971800
N60	N	1.051895	-0.438992	-0.865286
N61	N	1.012994	-0.396253	-0.896546
C62	C	1.024996	-0.409649	-0.197396
C63	C	1.021972	-0.406011	-0.119046
H64	H	0.304686	-0.519518	-0.473029
H65	H	0.438254	-0.525410	-0.478374
O66	O	1.110824	-0.503433	-1.121593
C67	C	1.158089	-0.465041	-1.166034
H68	H	1.161595	-0.405776	-1.144029
H69	H	1.138538	-0.463955	-1.220952
C70	C	1.227087	-0.577423	-1.197148
C71	C	1.231397	-0.504633	-1.170117
H72	H	1.272306	-0.601845	-1.199669
H73	H	1.195243	-0.603289	-1.167209
H74	H	1.210791	-0.576507	-1.242909
H75	H	1.247684	-0.505549	-1.124353
H76	H	1.263246	-0.478768	-1.200048
H77	H	1.098044	-0.489654	-0.981922
O78	O	0.621153	-0.302093	-0.275380
C79	C	0.636273	-0.315929	-0.205810
H80	H	0.689656	-0.346763	-0.206441
H81	H	0.593858	-0.351201	-0.180345
C82	C	0.572409	-0.203871	-0.162589
C83	C	0.637977	-0.241737	-0.163363
H84	H	0.573457	-0.158107	-0.136404
H85	H	0.562219	-0.194551	-0.209459
H86	H	0.537070	-0.233273	-0.141369
H87	H	0.673313	-0.212339	-0.184591
H88	H	0.648172	-0.251051	-0.116496
O89	O	0.992416	-0.859727	-0.249939
C90	C	0.931191	-0.813816	-0.252373
H91	H	0.902503	-0.831050	-0.300233
H92	H	0.946366	-0.753586	-0.256371
C93	C	0.917799	-0.800579	-0.126195
C94	C	0.882561	-0.821750	-0.184974
H95	H	0.887803	-0.805470	-0.084619
H96	H	0.959049	-0.831508	-0.124555
H97	H	0.930443	-0.750389	-0.129537
H98	H	0.869925	-0.871942	-0.181636
H99	H	0.841307	-0.790830	-0.186612
O100	O	1.072067	-0.975178	-0.511154
C101	C	1.072461	-1.053252	-0.510114
H102	H	1.036098	-1.070372	-0.463800
H103	H	1.128250	-1.075946	-0.504391
C104	C	1.091311	-1.063724	-0.636157
C105	C	1.046645	-1.084752	-0.579277
H106	H	1.075390	-1.083156	-0.678820
H107	H	1.091048	-1.011124	-0.636858
H108	H	1.137799	-1.082637	-0.631378
H109	H	1.000160	-1.065831	-0.584052
H110	H	1.046899	-1.137350	-0.578578
O111	O	0.941509	-0.866934	-0.471325
C112	C	0.961791	-0.896868	-0.539635
H113	H	0.994766	-0.950437	-0.535981
H114	H	0.994160	-0.855263	-0.570176
C115	C	0.855176	-0.847609	-0.582421
C116	C	0.895671	-0.913407	-0.577933
H117	H	0.814391	-0.857809	-0.606047
H118	H	0.841512	-0.827439	-0.536401
H119	H	0.882158	-0.812945	-0.607871
H120	H	0.868692	-0.948066	-0.552477
H121	H	0.909329	-0.933583	-0.623950
O122	O	0.437238	-0.338037	-0.308334
C123	C	0.481486	-0.293789	-0.350252
H124	H	0.461552	-0.290747	-0.404893
H125	H	0.537371	-0.319319	-0.354878
C126	C	0.505741	-0.218814	-0.248868
C127	C	0.481254	-0.215072	-0.315978
H128	H	0.505601	-0.170258	-0.227725
H129	H	0.475933	-0.248626	-0.220626
H130	H	0.552310	-0.240092	-0.252732
H131	H	0.434684	-0.193803	-0.312112
H132	H	0.511055	-0.185254	-0.344218
O133	O	1.123180	-0.967763	-0.289719
C134	C	1.086336	-1.008008	-0.237880
H135	H	1.035990	-1.028589	-0.258964
H136	H	1.072466	-0.970504	-0.188850
C137	C	1.194673	-1.049554	-0.193109
C138	C	1.132840	-1.074837	-0.219007
H139	H	1.223359	-1.090776	-0.181463
H140	H	1.219495	-1.022438	-0.228032
H141	H	1.183105	-1.018300	-0.152254
H142	H	1.144408	-1.106083	-0.259865
H143	H	1.108021	-1.101961	-0.184090
O144	O	0.628176	-0.497293	-0.452995
C145	C	0.587445	-0.455217	-0.496888
H146	H	0.609832	-0.397907	-0.502230
H147	H	0.530764	-0.449210	-0.472867
C148	C	0.561780	-0.565178	-0.563504
C149	C	0.589281	-0.494790	-0.570070
H150	H	0.562910	-0.589589	-0.608646
H151	H	0.589220	-0.593527	-0.533931
H152	H	0.514548	-0.560162	-0.543485
H153	H	0.636514	-0.499808	-0.590081
H154	H	0.561849	-0.466444	-0.599648
H155	H	1.130324	-0.525179	-0.786469
O156	O	1.162883	-0.873863	-0.420623
C157	C	1.183531	-0.902731	-0.489228
H158	H	1.134782	-0.915771	-0.517591
H159	H	1.217580	-0.955677	-0.486189
C160	C	1.285815	-0.829114	-0.495121
C161	C	1.225941	-0.845124	-0.529960
H162	H	1.311979	-0.793581	-0.520247
H163	H	1.271907	-0.809667	-0.448900
H164	H	1.314182	-0.873240	-0.492591
H165	H	1.197572	-0.801000	-0.532482
H166	H	1.239846	-0.864562	-0.576183
H167	H	0.760714	-0.315982	-0.288126
O168	O	0.773364	-0.503872	-0.458631
C169	C	0.814314	-0.551877	-0.420126
H170	H	0.789876	-0.552963	-0.363707
H171	H	0.870024	-0.531268	-0.419970
C172	C	0.846818	-0.629355	-0.523784
C173	C	0.816799	-0.630693	-0.454491
H174	H	0.848355	-0.677972	-0.544983
H175	H	0.819232	-0.597011	-0.549726
H176	H	0.893240	-0.612178	-0.523644
H177	H	0.770376	-0.647862	-0.454632
H178	H	0.844378	-0.663042	-0.428549
H179	H	0.961455	-0.339733	-0.646352
H180	H	0.298136	-0.339743	-0.309729
O181	O	0.959969	-0.338002	-0.785307
C182	C	0.918245	-0.292214	-0.735434
H183	H	0.945006	-0.288620	-0.684117
H184	H	0.864372	-0.316691	-0.725443
C185	C	0.876425	-0.218400	-0.826804
C186	C	0.909296	-0.213981	-0.763776
H187	H	0.870901	-0.170143	-0.844287
H188	H	0.904533	-0.249250	-0.860405
H189	H	0.831534	-0.238801	-0.818470
H190	H	0.954189	-0.193590	-0.772113
H191	H	0.881195	-0.183126	-0.730178
O192	O	1.131855	-0.526872	-0.647503
C193	C	1.173558	-0.572684	-0.697373
H194	H	1.178140	-0.544675	-0.749957
H195	H	1.148023	-0.628283	-0.704157
C196	C	1.241792	-0.619857	-0.607067
C197	C	1.247424	-0.585453	-0.671650
H198	H	1.287354	-0.627738	-0.591199
H199	H	1.213694	-0.588995	-0.573468
H200	H	1.220509	-0.666186	-0.612729
H201	H	1.268698	-0.539122	-0.665985
H202	H	1.275527	-0.616308	-0.705248
H203	H	0.912435	-0.957266	-0.343931
O204	O	0.927191	-0.302009	-0.969400
C205	C	0.889384	-0.260433	-1.016085
H206	H	0.889038	-0.293046	-1.068460
H207	H	0.915552	-0.205521	-1.024967
C208	C	0.813630	-0.205084	-0.920003
C209	C	0.813200	-0.245142	-0.984329
H210	H	0.766637	-0.195648	-0.900414
H211	H	0.839103	-0.233092	-0.888549
H212	H	0.835440	-0.159328	-0.927414
H213	H	0.791398	-0.290900	-0.976916
H214	H	0.787721	-0.217141	-1.015781
O215	O	0.933028	-0.308504	-1.114459
C216	C	0.889204	-0.350640	-1.155219
H217	H	0.883925	-0.407964	-1.132846
H218	H	0.913248	-0.356608	-1.211893
C219	C	0.822465	-0.240763	-1.180884
C220	C	0.815978	-0.311167	-1.153402
H221	H	0.777297	-0.216414	-1.179767
H222	H	0.851992	-0.212375	-1.153426
H223	H	0.842505	-0.245747	-1.228110
H224	H	0.795946	-0.306183	-1.106174
H225	H	0.786446	-0.339554	-1.180852
