data_functionalizedCrystal
_audit_creation_method	'MofGen! by Chris Wilmer'
_symmetry_space_group_name_H-M	'P1'
_symmetry_Int_Tables_number	1
_symmetry_cell_setting	triclinic
loop_
_symmetry_equiv_pos_as_xyz
  x,y,z
_cell_length_a	16.109295
_cell_length_b	10.654550
_cell_length_c	9.730223
_cell_angle_alpha	89.999957
_cell_angle_beta	89.998717
_cell_angle_gamma	83.972059
loop_
_atom_site_label
_atom_site_type_symbol
_atom_site_fract_x
_atom_site_fract_y
_atom_site_fract_z
O1	O	-0.116774	-1.666251	0.114177
O2	O	-0.127900	-1.300622	0.114201
O3	O	-0.001365	-1.493484	0.114190
O4	O	-0.243308	-1.473389	0.114188
O5	O	-0.001362	-1.493472	-0.114390
O6	O	-0.127896	-1.300609	-0.114379
O7	O	-0.116771	-1.666239	-0.114403
Zn8	Zn	-0.122333	-1.483422	-0.150683
Zn9	Zn	-0.122337	-1.483438	0.150481
O10	O	-0.243305	-1.473376	-0.114392
C11	C	0.029616	-1.492665	-0.000096
C12	C	0.121926	-1.490229	-0.000086
C13	C	-0.127081	-1.253829	-0.000086
C14	C	-0.124637	-1.114418	-0.000076
C15	C	-0.117589	-1.713032	-0.000113
C16	C	-0.120033	-1.852442	-0.000114
C17	C	0.343553	-1.599001	-0.000043
C18	C	0.430287	-1.596702	-0.000020
C19	C	0.411773	-1.367881	-0.000012
C20	C	0.325040	-1.370182	-0.000025
C21	C	0.290933	-1.485746	-0.000047
C22	C	0.464400	-1.481145	-0.000011
C23	C	0.558441	-1.478651	0.000013
C24	C	0.196886	-1.488240	-0.000069
C25	C	0.725714	-1.474203	-0.000070
C26	C	0.633406	-1.476662	0.000027
N27	N	-0.122329	-1.483420	-0.356219
C28	C	-0.199138	-1.033920	-0.000081
C29	C	-0.196837	-0.902930	-0.000104
C30	C	-0.045526	-0.932951	-0.000113
C31	C	-0.047828	-1.063938	-0.000099
C32	C	-0.066324	-1.568849	-0.428150
C33	C	-0.066324	-1.568861	-0.572033
C34	C	-0.178343	-1.398013	-0.572042
C35	C	-0.178338	-1.397995	-0.428161
N36	N	-0.122335	-1.483450	0.356017
H37	H	0.315785	-1.693101	-0.000058
N38	N	-0.281982	-1.088357	-0.000071
H39	H	-0.286310	-1.142044	-0.084799
H40	H	-0.286264	-1.141962	0.084726
N41	N	-0.238759	-1.305898	-0.649642
H42	H	-0.274238	-1.251776	-0.582237
H43	H	-0.206592	-1.250408	-0.709357
H44	H	0.012843	-1.129484	-0.000099
N45	N	0.448564	-1.243245	-0.000015
H46	H	0.402066	-1.171846	-0.000019
H47	H	0.484144	-1.237303	0.084724
N48	N	0.487042	-1.718856	-0.000014
H49	H	0.452271	-1.792409	-0.000031
H50	H	0.523438	-1.722880	-0.084745
H51	H	-0.020717	-1.638405	-0.369578
N52	N	-0.277192	-0.816105	-0.000186
H53	H	-0.326195	-0.867966	-0.000194
H54	H	-0.279561	-0.761060	0.084519
H55	H	0.017009	-0.891833	-0.000141
H56	H	-0.223944	-1.328423	-0.369591
N57	N	0.268272	-1.248027	-0.000030
H58	H	0.279311	-1.197608	0.084707
H59	H	0.279346	-1.197704	-0.084818
N60	N	-0.005930	-1.661019	-0.649617
H61	H	0.029545	-1.715134	-0.582205
H62	H	-0.038119	-1.716511	-0.709292
