data_functionalizedCrystal
_audit_creation_method	'MofGen! by Chris Wilmer'
_symmetry_space_group_name_H-M	'P1'
_symmetry_Int_Tables_number	1
_symmetry_cell_setting	triclinic
loop_
_symmetry_equiv_pos_as_xyz
  x,y,z
_cell_length_a	13.339070
_cell_length_b	19.188930
_cell_length_c	12.376457
_cell_angle_alpha	78.732154
_cell_angle_beta	104.398083
_cell_angle_gamma	99.387037
loop_
_atom_site_label
_atom_site_type_symbol
_atom_site_fract_x
_atom_site_fract_y
_atom_site_fract_z
O1	O	0.106678	0.960520	-0.094379
O2	O	0.123681	0.760527	-0.094302
O3	O	-0.031980	0.837571	-0.094328
O4	O	0.262339	0.883477	-0.094352
O5	O	0.006883	0.818309	0.093691
O6	O	0.162544	0.741266	0.093717
O7	O	0.145541	0.941258	0.093640
Zn8	Zn	0.160213	0.838204	0.123530
Zn9	Zn	0.109010	0.863582	-0.124192
O10	O	0.301202	0.864215	0.093666
C11	C	0.142565	0.724777	-0.000283
C12	C	0.140919	0.646946	-0.000253
C13	C	-0.050203	0.820186	-0.000317
C14	C	-0.162402	0.797072	-0.000313
C15	C	-0.528004	0.976793	-0.000381
C16	C	-0.422587	0.998510	-0.000379
C17	C	-0.357535	0.948153	-0.000363
C18	C	-0.397911	0.876074	-0.000348
C19	C	-0.503337	0.854353	-0.000342
C20	C	-0.332869	0.825713	-0.000323
C21	C	-0.373244	0.753634	-0.000309
C22	C	-0.478660	0.731917	-0.000303
C23	C	-0.543711	0.782275	-0.000319
C24	C	-0.227443	0.847434	-0.000330
C25	C	-0.202776	0.724994	-0.000290
C26	C	-0.308193	0.703276	-0.000293
C27	C	0.232248	0.619911	-0.000278
C28	C	0.230694	0.546784	-0.000290
C29	C	0.137802	0.500698	-0.000300
C30	C	0.046463	0.527740	-0.000268
C31	C	0.048021	0.600864	-0.000245
N32	N	0.053564	0.385373	-0.064331
N33	N	0.052089	0.315909	-0.064356
C34	C	0.133100	0.280378	-0.000369
N35	N	0.215654	0.316939	0.063629
N36	N	0.217131	0.386410	0.063649
C37	C	0.136101	0.421406	-0.000325
C38	C	0.222750	0.174051	-0.000406
C39	C	0.221193	0.100923	-0.000411
C40	C	0.036957	0.081881	-0.000401
C41	C	0.038519	0.155007	-0.000384
C42	C	0.131416	0.201089	-0.000392
C43	C	0.319425	0.881600	-0.000347
C44	C	0.431622	0.904714	-0.000359
C45	C	0.126657	0.977009	-0.000382
C46	C	0.128301	1.054841	-0.000419
N47	N	0.195156	0.820889	0.292595
N48	N	0.074058	0.880901	-0.293257
C49	C	-0.007078	0.921090	0.647546
C50	C	-0.031536	0.933205	0.529202
C51	C	0.025135	0.905126	0.470044
C52	C	0.106268	0.864932	0.529242
C53	C	0.130733	0.852821	0.647598
C54	C	0.162946	0.836858	0.470096
C55	C	0.244079	0.796663	0.529294
C56	C	0.268540	0.784554	0.647638
C57	C	0.211869	0.812632	0.706796
C58	C	0.138481	0.848969	0.351740
C59	C	0.276292	0.780700	0.351793
C60	C	0.300750	0.768585	0.470136
H61	H	-0.194580	0.906121	-0.000341
F62	F	0.327902	0.518004	-0.000314
F63	F	-0.597236	1.030376	-0.000381
F64	F	-0.133547	0.671395	-0.000267
H65	H	0.307892	0.657427	-0.000287
H66	H	-0.097592	0.965931	0.481007
H67	H	-0.029174	0.490213	-0.000292
H68	H	-0.053207	0.943952	0.695719
F69	F	0.237895	0.799735	0.832753
F70	F	-0.379627	1.075221	-0.000413
H71	H	0.298396	0.211572	-0.000396
F72	F	-0.655933	0.759175	-0.000428
F73	F	0.052137	0.891745	0.288751
H74	H	-0.026352	0.622875	-0.000225
H75	H	0.295569	0.078912	-0.000425
F76	F	-0.061904	0.032836	-0.000400
H77	H	-0.035852	0.177019	-0.000370
H78	H	0.005218	0.914992	0.373683
H79	H	-0.271701	0.965840	-0.000361
H80	H	-0.511528	0.673225	-0.000283
F81	F	-0.351177	0.626566	-0.000279
F82	F	0.354898	0.741784	0.710641
H83	H	0.366810	0.735858	0.518350
H84	H	0.322441	0.757838	0.303627
