data_functionalizedCrystal
_audit_creation_method	'MofGen! by Chris Wilmer'
_symmetry_space_group_name_H-M	'P1'
_symmetry_Int_Tables_number	1
_symmetry_cell_setting	triclinic
loop_
_symmetry_equiv_pos_as_xyz
  x,y,z
_cell_length_a	15.995350
_cell_length_b	11.792254
_cell_length_c	10.268362
_cell_angle_alpha	89.995475
_cell_angle_beta	90.001163
_cell_angle_gamma	96.154514
loop_
_atom_site_label
_atom_site_type_symbol
_atom_site_fract_x
_atom_site_fract_y
_atom_site_fract_z
O1	O	-0.114814	1.505943	-0.108286
O2	O	-0.126630	1.175505	-0.108288
O3	O	0.001124	1.349756	-0.108292
O4	O	-0.242568	1.331691	-0.108282
O5	O	0.001130	1.349741	0.108309
O6	O	-0.126625	1.175490	0.108313
O7	O	-0.114809	1.505927	0.108314
Cu8	Cu	-0.120716	1.340707	0.128091
Cu9	Cu	-0.120723	1.340725	-0.128064
O10	O	-0.242563	1.331676	0.108319
C11	C	-0.125883	1.133213	0.000012
C12	C	-0.123655	1.007218	0.000011
C13	C	-0.121845	0.904897	0.000005
C14	C	-0.119581	0.776529	0.000004
C15	C	-0.273764	1.332430	0.000019
C16	C	-0.366725	1.334669	0.000023
C17	C	-0.704509	1.342710	0.000003
C18	C	-0.657642	1.466809	-0.000480
C19	C	-0.560942	1.464570	0.000015
C20	C	-0.536930	1.338722	0.000012
C21	C	-0.577730	1.277503	0.123697
C22	C	-0.674380	1.280621	0.123793
C23	C	-0.674722	1.278074	-0.122522
C24	C	-0.577776	1.278104	-0.124150
C25	C	-0.442222	1.336461	0.000022
C26	C	-0.799217	1.344967	0.000002
C27	C	0.032325	1.349002	0.000004
C28	C	0.125286	1.346763	-0.000008
C29	C	-0.115556	1.548220	0.000012
C30	C	-0.117784	1.674214	0.000004
N31	N	-0.120711	1.340703	0.308257
N32	N	-0.120721	1.340738	-0.308230
C33	C	-0.120721	1.340719	0.573927
C34	C	-0.120718	1.340707	0.426089
H35	H	-0.532738	1.512697	-0.088642
H36	H	-0.533301	1.512998	0.088835
Cl37	Cl	-0.702957	1.349524	0.266543
Cl38	Cl	-0.555272	1.134755	0.130802
H39	H	-0.706211	1.189510	0.129414
Cl40	Cl	-0.723107	1.136808	-0.123812
Cl41	Cl	-0.534225	1.343137	0.265818
Cl42	Cl	-0.706725	1.340718	-0.267265
Cl43	Cl	-0.535940	1.347112	-0.265425
H44	H	-0.676389	1.516410	-0.089191
Cl45	Cl	-0.553325	1.136455	-0.135777
H46	H	-0.677541	1.516229	0.087637
