data_functionalizedCrystal
_audit_creation_method	'MofGen! by Chris Wilmer'
_symmetry_space_group_name_H-M	'P1'
_symmetry_Int_Tables_number	1
_symmetry_cell_setting	triclinic
loop_
_symmetry_equiv_pos_as_xyz
  x,y,z
_cell_length_a	12.759400
_cell_length_b	17.077404
_cell_length_c	17.077396
_cell_angle_alpha	90.019501
_cell_angle_beta	89.974414
_cell_angle_gamma	89.985090
loop_
_atom_site_label
_atom_site_type_symbol
_atom_site_fract_x
_atom_site_fract_y
_atom_site_fract_z
Zn1	Zn	-0.418260	-1.200099	-0.443859
Zn2	Zn	-0.593961	-1.200025	-0.312599
Zn3	Zn	-0.418297	-1.068831	-0.312606
Zn4	Zn	-0.593898	-1.068818	-0.443823
O5	O	-0.506104	-1.134443	-0.378222
O6	O	-0.441578	-1.309936	-0.426459
O7	O	-0.570700	-1.182597	-0.202753
O8	O	-0.271271	-1.086281	-0.330035
O9	O	-0.570664	-1.309882	-0.330023
O10	O	-0.271244	-1.182723	-0.426466
O11	O	-0.441641	-1.086209	-0.202759
O12	O	-0.441580	-0.958983	-0.330001
O13	O	-0.570558	-1.086258	-0.553674
O14	O	-0.570594	-0.958973	-0.426405
O15	O	-0.441517	-1.182710	-0.553701
O16	O	-0.740973	-1.182584	-0.329988
O17	O	-0.740927	-1.086186	-0.426398
C18	C	-0.506085	-0.930496	-0.378200
C19	C	-0.506102	-0.843246	-0.378209
C20	C	-0.779071	-1.134397	-0.378205
C21	C	-0.895848	-1.134449	-0.378225
C22	C	-0.506026	-1.134491	-0.582966
C23	C	-0.505993	-1.134511	-0.670216
C24	C	-0.950699	-1.184699	-0.328080
C25	C	-1.060423	-1.184747	-0.328104
C26	C	-1.060435	-1.084289	-0.428420
C27	C	-0.950713	-1.084245	-0.428399
C28	C	-0.895833	-1.234902	-0.277905
C29	C	-0.950685	-1.285156	-0.227755
C30	C	-1.060409	-1.285204	-0.227780
C31	C	-1.115282	-1.234999	-0.277954
C32	C	-0.232071	-1.134512	-0.378255
C33	C	-0.115294	-1.134541	-0.378270
C34	C	-0.506124	-1.339188	-0.378244
C35	C	-0.506132	-1.426437	-0.378253
C36	C	-0.573381	-0.802271	-0.428326
C37	C	-0.573383	-0.720291	-0.428339
C38	C	-0.506111	-0.679286	-0.378230
C39	C	-0.438825	-0.720267	-0.328111
C40	C	-0.438818	-0.802246	-0.328103
C41	C	-0.438846	-0.549397	-0.328130
C42	C	-0.438854	-0.467412	-0.328136
C43	C	-0.573410	-0.467442	-0.428366
C44	C	-0.573404	-0.549421	-0.428358
C45	C	-0.506119	-0.590395	-0.378237
C46	C	-0.438796	-1.184735	-0.711221
C47	C	-0.438761	-1.184745	-0.793202
C48	C	-0.505930	-1.134533	-0.834175
C49	C	-0.573130	-1.084304	-0.793165
C50	C	-0.573159	-1.084291	-0.711186
C51	C	-0.573066	-1.084335	-0.964035
C52	C	-0.573039	-1.084349	-1.046019
C53	C	-0.438669	-1.184789	-1.046051
C54	C	-0.438698	-1.184777	-0.964072
C55	C	-0.505900	-1.134547	-0.923066
C56	C	-0.506105	-1.134441	-0.174274
C57	C	-0.505842	-1.134573	-0.087025
H58	H	-0.806491	-1.234867	-0.277878
F59	F	-0.892333	-1.030765	-0.481770
H60	H	-0.627815	-1.043418	-0.826532
H61	H	-0.628165	-0.835651	-0.469129
H62	H	-0.628193	-0.434076	-0.469178
H63	H	-1.105122	-1.043413	-0.469268
H64	H	-0.906001	-1.326036	-0.186910
H65	H	-0.384062	-0.434029	-0.287342
F66	F	-0.367222	-0.676625	-0.274786
F67	F	-0.367209	-0.845854	-0.274763
F68	F	-0.644588	-1.030874	-0.920396
H69	H	-0.384103	-1.225626	-0.677866
F70	F	-1.232060	-1.234799	-0.277723
H71	H	-0.628169	-0.686933	-0.469149
F72	F	-0.367277	-1.238228	-0.836839
F73	F	-0.367232	-0.593003	-0.274786
H74	H	-0.628188	-0.582804	-0.469157
F75	F	-0.367217	-1.238222	-0.920466
H76	H	-1.105065	-1.326128	-0.186951
F77	F	-0.644676	-1.030833	-0.667545
F78	F	-0.367149	-1.238248	-1.089692
H79	H	-0.627731	-1.043460	-1.079378
