data_functionalizedCrystal
_audit_creation_method	'MofGen! by Chris Wilmer'
_symmetry_space_group_name_H-M	'P1'
_symmetry_Int_Tables_number	1
_symmetry_cell_setting	triclinic
loop_
_symmetry_equiv_pos_as_xyz
  x,y,z
_cell_length_a	10.654537
_cell_length_b	16.098678
_cell_length_c	17.038272
_cell_angle_alpha	92.929250
_cell_angle_beta	92.203233
_cell_angle_gamma	92.750391
loop_
_atom_site_label
_atom_site_type_symbol
_atom_site_fract_x
_atom_site_fract_y
_atom_site_fract_z
O1	O	-1.672808	0.069239	0.113315
O2	O	-1.172808	0.569239	0.613315
O3	O	-1.308300	0.069245	0.123789
O4	O	-0.808300	0.569245	0.623789
O5	O	-1.488388	0.069235	0.004724
O6	O	-0.988388	0.569235	0.504724
O7	O	-1.492720	0.069248	0.232380
O8	O	-0.992720	0.569248	0.732380
O9	O	-1.498853	-0.069275	-0.002208
O10	O	-0.998853	0.430725	0.497792
O11	O	-1.318765	-0.069266	0.116857
O12	O	-0.818765	0.430734	0.616857
O13	O	-1.683273	-0.069271	0.106382
O14	O	-1.183273	0.430729	0.606382
Zn15	Zn	-1.502680	-0.091260	0.110519
Zn16	Zn	-1.002680	0.408740	0.610519
Zn17	Zn	-1.488893	0.091233	0.119653
Zn18	Zn	-0.988893	0.591233	0.619653
O19	O	-1.503185	-0.069262	0.225447
O20	O	-1.003185	0.430738	0.725447
C21	C	-1.266663	-0.000010	0.119555
C22	C	-0.766663	0.499990	0.619555
C23	C	-1.127006	-0.000008	0.117258
C24	C	-0.627006	0.499992	0.617258
C25	C	-1.112253	0.000010	0.259631
C26	C	-0.612253	0.500010	0.759631
C27	C	-1.039268	0.000023	0.329735
C28	C	-0.539268	0.500023	0.829735
C29	C	-0.908048	0.000023	0.327571
C30	C	-0.408048	0.500023	0.827571
C31	C	-0.849813	0.000008	0.255296
C32	C	-0.349813	0.500008	0.755296
C33	C	-0.922799	-0.000004	0.185192
C34	C	-0.422799	0.499996	0.685192
C35	C	-1.054020	-0.000002	0.187363
C36	C	-0.554020	0.499998	0.687363
C37	C	-0.937552	-0.000029	0.042820
C38	C	-0.437552	0.499971	0.542820
C39	C	-1.068771	-0.000023	0.044982
C40	C	-0.568771	0.499977	0.544982
C41	C	-0.879316	-0.000043	-0.029455
C42	C	-0.379316	0.499957	0.470545
C43	C	-0.952302	-0.000050	-0.099560
C44	C	-0.452302	0.499950	0.400440
C45	C	-1.083529	-0.000049	-0.097394
C46	C	-0.583529	0.499951	0.402606
C47	C	-1.141757	-0.000035	-0.025121
C48	C	-0.641757	0.499965	0.474879
N49	N	-1.512099	-0.215807	0.104285
N50	N	-1.012099	0.284193	0.604285
C51	C	-1.489680	-0.000020	-0.027892
C52	C	-0.989680	0.499980	0.472108
C53	C	-1.477923	-0.000019	-0.114751
C54	C	-0.977923	0.499981	0.385249
C55	C	-0.724909	-0.000016	0.110619
C56	C	-0.224909	0.499984	0.610619
C57	C	-0.864566	-0.000016	0.112924
C58	C	-0.364566	0.499984	0.612924
C59	C	-1.435645	-0.259409	0.154802
C60	C	-0.935645	0.240591	0.654802
C61	C	-1.442270	-0.346597	0.150438
C62	C	-0.942270	0.153403	0.650438
C63	C	-1.525344	-0.390181	0.095552
C64	C	-1.025344	0.109819	0.595552
C65	C	-1.601806	-0.346573	0.045033
C66	C	-1.101806	0.153427	0.545033
C67	C	-1.595187	-0.259387	0.049402
C68	C	-1.095187	0.240613	0.549402
C69	C	-1.549327	-0.653426	0.079730
C70	C	-1.049327	-0.153426	0.579730
C71	C	-1.555938	-0.740618	0.075363
C72	C	-1.055938	-0.240618	0.575363
C73	C	-1.396402	-0.740635	0.180770
C74	C	-0.896402	-0.240635	0.680770
C75	C	-1.389784	-0.653447	0.185130
C76	C	-0.889784	-0.153447	0.685130
C77	C	-1.466252	-0.609847	0.134613
C78	C	-0.966252	-0.109847	0.634613
C79	C	-1.532115	-0.479301	0.091089
C80	C	-1.032115	0.020699	0.591089
C81	C	-1.459486	-0.520729	0.139082
C82	C	-0.959486	-0.020729	0.639082
N83	N	-1.479483	0.215781	0.125880
N84	N	-0.979483	0.715781	0.625880
C85	C	-1.585867	-0.000022	-0.164264
C86	C	-1.085867	0.499978	0.335736
C87	C	-1.574812	-0.000014	-0.245875
C88	C	-1.074812	0.499986	0.254125
C89	C	-1.455812	-0.000009	-0.277973
C90	C	-0.955812	0.499991	0.222027
C91	C	-1.347859	-0.000004	-0.228453
C92	C	-0.847859	0.499996	0.271547
C93	C	-1.358915	-0.000006	-0.146843
C94	C	-0.858915	0.499994	0.353157
C95	C	-1.416753	0.000003	-0.523948
C96	C	-0.916753	0.500003	-0.023948
C97	C	-1.405705	0.000002	-0.605565
C98	C	-0.905705	0.500002	-0.105565
C99	C	-1.632660	-0.000006	-0.622981
C100	C	-1.132660	0.499994	-0.122981
C101	C	-1.643705	-0.000013	-0.541369
C102	C	-1.143705	0.499987	-0.041369
C103	C	-1.535752	-0.000003	-0.491856
C104	C	-1.035752	0.499997	0.008144
C105	C	-1.444509	-0.000004	-0.361393
C106	C	-0.944509	0.499996	0.138607
C107	C	-1.547056	-0.000003	-0.408437
C108	C	-1.047056	0.499997	0.091563
C109	C	-1.501893	-0.000005	0.258064
C110	C	-1.001893	0.499995	0.758064
C111	C	-1.513650	-0.000000	0.344922
C112	C	-1.013650	0.500000	0.844922
H113	H	-0.772471	-0.000048	-0.031212
H114	H	-0.272471	0.499952	0.468788
H115	H	-1.662713	-0.000018	-0.286186
H116	H	-1.162713	0.499982	0.213814
H117	H	-1.720548	-0.000012	-0.663303
H118	H	-1.220548	0.499988	-0.163303
Cl119	Cl	-1.175272	-0.000071	-0.185531
Cl120	Cl	-0.675272	0.499929	0.314469
H121	H	-1.219097	0.000029	0.261400
H122	H	-0.719097	0.500029	0.761400
H123	H	-1.308797	-0.000007	-0.631695
H124	H	-0.808797	0.499993	-0.131695
Cl125	Cl	-1.281038	0.000017	-0.461714
Cl126	Cl	-0.781038	0.500017	0.038286
Cl127	Cl	-1.793310	0.000008	-0.501023
Cl128	Cl	-1.293310	0.500008	-0.001023
H129	H	-1.334147	-0.776142	0.221899
H130	H	-0.834147	-0.276142	0.721899
H131	H	-1.623590	-0.776100	0.030666
H132	H	-1.123590	-0.276100	0.530666
H133	H	-1.250965	0.000005	-0.254593
H134	H	-0.750965	0.500005	0.245407
H135	H	-1.643944	0.000012	-0.382299
H136	H	-1.143944	0.500012	0.117701
H137	H	-1.271014	-0.000004	-0.106529
H138	H	-0.771014	0.499996	0.393471
H139	H	-1.669454	-0.382065	0.000347
H140	H	-1.169454	0.117935	0.500347
Cl141	Cl	-1.645449	-0.598620	0.016222
Cl142	Cl	-1.145449	-0.098620	0.516222
H143	H	-1.391852	-0.485240	0.183772
H144	H	-0.891852	0.014760	0.683772
H145	H	-1.347618	-0.000002	-0.387536
H146	H	-0.847618	0.499998	0.112464
Cl147	Cl	-1.331197	-0.204626	0.223801
Cl148	Cl	-0.831197	0.295374	0.723801
Cl149	Cl	-1.112483	0.000042	0.420590
Cl150	Cl	-0.612483	0.500042	0.920590
Cl151	Cl	-1.306718	-0.000029	-0.022392
Cl152	Cl	-0.806718	0.499971	0.477608
H153	H	-0.904876	-0.000061	-0.158401
H154	H	-0.404876	0.499939	0.341599
H155	H	-0.848623	0.000027	0.384656
H156	H	-0.348623	0.500027	0.884656
H157	H	-0.742968	-0.000002	0.253540
H158	H	-0.242968	0.499998	0.753540
Cl159	Cl	-1.735476	-0.000036	-0.123922
Cl160	Cl	-1.235476	0.499964	0.376078
H161	H	-1.380015	-0.382097	0.191573
H162	H	-0.880015	0.117903	0.691573
H163	H	-1.322139	-0.617963	0.229822
H164	H	-0.822139	-0.117963	0.729822
H165	H	-1.599753	-0.514794	0.046398
H166	H	-1.099753	-0.014794	0.546398
Cl167	Cl	-1.691311	-0.204575	-0.014106
Cl168	Cl	-1.191311	0.295425	0.485894
