data_functionalizedCrystal
_audit_creation_method	'MofGen! by Chris Wilmer'
_symmetry_space_group_name_H-M	'P1'
_symmetry_Int_Tables_number	1
_symmetry_cell_setting	triclinic
loop_
_symmetry_equiv_pos_as_xyz
  x,y,z
_cell_length_a	12.759395
_cell_length_b	16.120484
_cell_length_c	12.759387
_cell_angle_alpha	92.862335
_cell_angle_beta	89.982262
_cell_angle_gamma	92.925231
loop_
_atom_site_label
_atom_site_type_symbol
_atom_site_fract_x
_atom_site_fract_y
_atom_site_fract_z
Zn1	Zn	1.584967	-0.331855	-0.615139
Zn2	Zn	1.575920	-0.471294	-0.448352
Zn3	Zn	1.409268	-0.331900	-0.439482
Zn4	Zn	1.400319	-0.471228	-0.623990
O5	O	1.492618	-0.401569	-0.531740
O6	O	1.730788	-0.350362	-0.593022
O7	O	1.553772	-0.452850	-0.300157
O8	O	1.440106	-0.215229	-0.455366
O9	O	1.724141	-0.452807	-0.470484
O10	O	1.569192	-0.215196	-0.584421
O11	O	1.431333	-0.350437	-0.293640
O12	O	1.261060	-0.350373	-0.463949
O13	O	1.424854	-0.452694	-0.769834
O14	O	1.254485	-0.452737	-0.599506
O15	O	1.560514	-0.350297	-0.763331
O16	O	1.545095	-0.587951	-0.479067
O17	O	1.416081	-0.587902	-0.608107
C18	C	1.219652	-0.401553	-0.531726
C19	C	1.102874	-0.401566	-0.531747
C20	C	1.109766	-0.295062	-0.659573
C21	C	1.058350	-0.241820	-0.723496
C22	C	0.948627	-0.241835	-0.723510
C23	C	0.890318	-0.295096	-0.659592
C24	C	0.941734	-0.348337	-0.595670
C25	C	1.051459	-0.348319	-0.595665
C26	C	0.934843	-0.454836	-0.467839
C27	C	1.044565	-0.454826	-0.467829
C28	C	0.876533	-0.508096	-0.403921
C29	C	0.927949	-0.561343	-0.340003
C30	C	1.037678	-0.561327	-0.339992
C31	C	1.095981	-0.508068	-0.403907
C32	C	1.478664	-0.618176	-0.545533
C33	C	1.472790	-0.710842	-0.551468
C34	C	1.462072	-0.880502	-0.562327
C35	C	1.523353	-0.921796	-0.501171
C36	C	1.517390	-1.016201	-0.507213
C37	C	1.468034	-0.786089	-0.556287
C38	C	1.766651	-0.401587	-0.531755
C39	C	1.883427	-0.401594	-0.531761
C40	C	1.492695	-0.401483	-0.805768
C41	C	1.492728	-0.401447	-0.922543
C42	C	1.506656	-0.184117	-0.517917
C43	C	1.512638	-0.091451	-0.512026
C44	C	1.365242	-0.294797	-0.915775
C45	C	1.301519	-0.241456	-0.967251
C46	C	1.301552	-0.241426	-1.076971
C47	C	1.365313	-0.294744	-1.135218
C48	C	1.429036	-0.348086	-1.083742
C49	C	1.428998	-0.348108	-0.974019
C50	C	1.556515	-0.454738	-1.090510
C51	C	1.556489	-0.454765	-0.980790
C52	C	1.620276	-0.508057	-1.148756
C53	C	1.684006	-0.561395	-1.097280
C54	C	1.683970	-0.561423	-0.987553
C55	C	1.620211	-0.508107	-0.929314
C56	C	1.492606	-0.401595	-0.258774
C57	C	1.492792	-0.401397	-0.141986
H58	H	0.906765	-0.198476	-0.775554
H59	H	1.735865	-0.604857	-0.945648
H60	H	1.249662	-0.197992	-1.118883
H61	H	1.365325	-0.294722	-1.224558
C62	C	1.754130	-0.620041	-1.161355
C63	C	1.704383	-0.685467	-1.240934
C64	C	1.774508	-0.744113	-1.305016
C65	C	1.894381	-0.737333	-1.289519
C66	C	1.944135	-0.671904	-1.209937
C67	C	1.874009	-0.613258	-1.145855
H68	H	1.615640	-0.690488	-1.252408
H69	H	1.737676	-0.792547	-1.363927
H70	H	1.946292	-0.780746	-1.336957
H71	H	2.032877	-0.666882	-1.198463
H72	H	1.910841	-0.564823	-1.086943
H73	H	1.620180	-0.508121	-0.839973
H74	H	1.405133	-0.916048	-0.619217
H75	H	1.580295	-0.886248	-0.444275
C76	C	1.094232	-0.619895	-0.269675
C77	C	1.079541	-0.612972	-0.149815
C78	C	1.136090	-0.671540	-0.079495
C79	C	1.207331	-0.737032	-0.129036
C80	C	1.222026	-0.743958	-0.248903
C81	C	1.165476	-0.685389	-0.319222
H82	H	1.026801	-0.564489	-0.113136
H83	H	1.125212	-0.666413	0.009238
H84	H	1.249193	-0.780388	-0.076982
H85	H	1.274766	-0.792441	-0.285581
H86	H	1.176355	-0.690516	-0.407955
H87	H	1.365217	-0.294810	-0.826435
H88	H	1.620293	-0.508033	-1.238096
H89	H	0.787192	-0.508102	-0.403934
H90	H	1.249604	-0.198047	-0.919815
H91	H	1.105837	-0.198455	-0.775534
H92	H	1.199108	-0.295041	-0.659563
H93	H	0.800977	-0.295096	-0.659600
H94	H	0.880465	-0.604700	-0.287962
H95	H	1.185323	-0.508046	-0.403899
