data_functionalizedCrystal
_audit_creation_method	'MofGen! by Chris Wilmer'
_symmetry_space_group_name_H-M	'P1'
_symmetry_Int_Tables_number	1
_symmetry_cell_setting	triclinic
loop_
_symmetry_equiv_pos_as_xyz
  x,y,z
_cell_length_a	19.077105
_cell_length_b	21.295417
_cell_length_c	19.077174
_cell_angle_alpha	92.269360
_cell_angle_beta	85.483752
_cell_angle_gamma	87.725910
loop_
_atom_site_label
_atom_site_type_symbol
_atom_site_fract_x
_atom_site_fract_y
_atom_site_fract_z
Zn1	Zn	1.093674	-0.305857	-0.441820
Zn2	Zn	1.088849	-0.406717	-0.323924
Zn3	Zn	0.971060	-0.297057	-0.319218
Zn4	Zn	0.975743	-0.406676	-0.437042
O5	O	1.032332	-0.354077	-0.380501
O6	O	1.191684	-0.322936	-0.430150
O7	O	1.069245	-0.388505	-0.224651
O8	O	0.987385	-0.210138	-0.335511
O9	O	1.188139	-0.397038	-0.343533
O10	O	1.077469	-0.216603	-0.425586
O11	O	0.982706	-0.307938	-0.221193
O12	O	0.873032	-0.307898	-0.330879
O13	O	0.995366	-0.396967	-0.536325
O14	O	0.876472	-0.388435	-0.417444
O15	O	1.082010	-0.322896	-0.539836
O16	O	1.073785	-0.494798	-0.338900
O17	O	0.990687	-0.494767	-0.422007
C18	C	0.849173	-0.347208	-0.373132
C19	C	0.770818	-0.344285	-0.369997
C20	C	0.735813	-0.384901	-0.413522
C21	C	0.662190	-0.382146	-0.410579
C22	C	0.623573	-0.338779	-0.364107
C23	C	0.658583	-0.298159	-0.320579
C24	C	0.732205	-0.300910	-0.323526
C25	C	0.403193	-0.326043	-0.350471
C26	C	0.329566	-0.323296	-0.347526
C27	C	0.333179	-0.407283	-0.437527
C28	C	0.406802	-0.410034	-0.440467
C29	C	0.441805	-0.369411	-0.396942
N30	N	0.548318	-0.335964	-0.361096
N31	N	0.517059	-0.372224	-0.399957
C32	C	1.032240	-0.517624	-0.380462
C33	C	1.032267	-0.587593	-0.380471
C34	C	1.079149	-0.623769	-0.427404
C35	C	1.079175	-0.689513	-0.427423
C36	C	1.032325	-0.719078	-0.380496
C37	C	0.985434	-0.682894	-0.333559
C38	C	0.985405	-0.617151	-0.333547
N39	N	1.024526	-0.819835	-0.318587
N40	N	1.024558	-0.882288	-0.318601
C41	C	1.032408	-0.917157	-0.380531
N42	N	1.040240	-0.887215	-0.442448
N43	N	1.040212	-0.824756	-0.442434
C44	C	1.032351	-0.790365	-0.380504
C45	C	1.079321	-1.024621	-0.427488
C46	C	1.079342	-1.090366	-0.427507
C47	C	0.985604	-1.083746	-0.333637
C48	C	0.985580	-1.018002	-0.333624
C49	C	1.032442	-0.988444	-0.380549
C50	C	1.216205	-0.360973	-0.387899
C51	C	1.294561	-0.363912	-0.391052
C52	C	1.039748	-0.360909	-0.564374
C53	C	1.042909	-0.363820	-0.642730
C54	C	1.032443	-0.189892	-0.380557
C55	C	1.032491	-0.119927	-0.380581
C56	C	0.999340	-0.323242	-0.677741
C57	C	1.002307	-0.325982	-0.751365
C58	C	1.048847	-0.369299	-0.789976
C59	C	1.092418	-0.409881	-0.754960
C60	C	1.089447	-0.407143	-0.681338
C61	C	1.062560	-0.381988	-1.010356
C62	C	1.065530	-0.384722	-1.083984
C63	C	0.975417	-0.300824	-1.080384
C64	C	0.972453	-0.298087	-1.006760
C65	C	1.016021	-0.338672	-0.971750
N66	N	1.051882	-0.372100	-0.865231
N67	N	1.012982	-0.335873	-0.896496
C68	C	1.024984	-0.347227	-0.197345
C69	C	1.021960	-0.344144	-0.118995
H70	H	0.767250	-0.420218	-0.451363
C71	C	0.933899	-0.715413	-0.281937
C72	C	0.933931	-0.787727	-0.281945
C73	C	0.882392	-0.820245	-0.230324
C74	C	0.830820	-0.780448	-0.178696
C75	C	0.830785	-0.708129	-0.178686
C76	C	0.882325	-0.675612	-0.230307
H77	H	0.972110	-0.817191	-0.320166
H78	H	0.882418	-0.873780	-0.230332
H79	H	0.792667	-0.804519	-0.140483
H80	H	0.792607	-0.678666	-0.140465
H81	H	0.882299	-0.622077	-0.230299
C82	C	0.294674	-0.451960	-0.485409
C83	C	0.213693	-0.448936	-0.482175
C84	C	0.175189	-0.493613	-0.530061
C85	C	0.217666	-0.541314	-0.581181
C86	C	0.298652	-0.544341	-0.584417
C87	C	0.337156	-0.499664	-0.536531
H88	H	0.182245	-0.413623	-0.444330
H89	H	0.115238	-0.491372	-0.527665
H90	H	0.189163	-0.574387	-0.616630
H91	H	0.330100	-0.579654	-0.622262
H92	H	0.397107	-0.501904	-0.538927
C93	C	1.116724	-0.432384	-1.126445
C94	C	1.174144	-0.409084	-1.179292
C95	C	1.225336	-0.456747	-1.221747
C96	C	1.219107	-0.527710	-1.211356
C97	C	1.161684	-0.551014	-1.158506
C98	C	1.110492	-0.503351	-1.116051
H99	H	1.178758	-0.356550	-1.186987
H100	H	1.267845	-0.439495	-1.260870
H101	H	1.257002	-0.562993	-1.242784
H102	H	1.157071	-0.603548	-1.150812
H103	H	1.067984	-0.520603	-1.076929
C104	C	0.623688	-0.426828	-0.458458
C105	C	0.633535	-0.498538	-0.452955
C106	C	0.595035	-0.543222	-0.500838
C107	C	0.546687	-0.516195	-0.554223
C108	C	0.536838	-0.444480	-0.559728
C109	C	0.575338	-0.399797	-0.511846
H110	H	0.669326	-0.518549	-0.413434
H111	H	0.602326	-0.596309	-0.496763
H112	H	0.518187	-0.549272	-0.589669
H113	H	0.501047	-0.424470	-0.599249
H114	H	0.568047	-0.346709	-0.515921
H115	H	0.298126	-0.287973	-0.309687
H116	H	0.438239	-0.445350	-0.478309
C117	C	1.110504	-0.426626	-0.971868
C118	C	1.191053	-0.424856	-0.985239
C119	C	1.239007	-0.469495	-0.946755
C120	C	1.206412	-0.515904	-0.894899
C121	C	1.125859	-0.517677	-0.881525
C122	C	1.077905	-0.473037	-0.920010
H123	H	1.215186	-0.390499	-1.023628
H124	H	1.298638	-0.468183	-0.956655
H125	H	1.241910	-0.548949	-0.866410
H126	H	1.101726	-0.552033	-0.843136
H127	H	1.018274	-0.474350	-0.910109
C128	C	0.616106	-0.250453	-0.269458
C129	C	0.535125	-0.247427	-0.266210
C130	C	0.492650	-0.199722	-0.215085
C131	C	0.531157	-0.155044	-0.167209
C132	C	0.612143	-0.158069	-0.170455
C133	C	0.654617	-0.205774	-0.221579
H134	H	0.506616	-0.280501	-0.301653
H135	H	0.432699	-0.197483	-0.212683
H136	H	0.499714	-0.119730	-0.129363
H137	H	0.640652	-0.124994	-0.135012
H138	H	0.714569	-0.208013	-0.223982
H139	H	0.947454	-1.107817	-0.295433
H140	H	0.431684	-0.292970	-0.315025
H141	H	0.947407	-0.988545	-0.295404
C142	C	0.770714	-0.256232	-0.275649
C143	C	0.760866	-0.184522	-0.281148
C144	C	0.799375	-0.139839	-0.233273
C145	C	0.847734	-0.166868	-0.179898
C146	C	0.857585	-0.238582	-0.174397
C147	C	0.819075	-0.283264	-0.222272
H148	H	0.725066	-0.164510	-0.320661
H149	H	0.792083	-0.086752	-0.237346
H150	H	0.876241	-0.133791	-0.144458
H151	H	0.893384	-0.258593	-0.134884
H152	H	0.826367	-0.336352	-0.218199
H153	H	1.117305	-0.599705	-0.465615
H154	H	0.961445	-0.287966	-0.646309
H155	H	1.117346	-0.718973	-0.465650
C156	C	0.933835	-0.577354	-0.281913
C157	C	0.936424	-0.583661	-0.202013
C158	C	0.884855	-0.543863	-0.150377
C159	C	0.830696	-0.497757	-0.178641
C160	C	0.828104	-0.491447	-0.258545
C161	C	0.879674	-0.531246	-0.310180
H162	H	0.976518	-0.617793	-0.181087
H163	H	0.886774	-0.548533	-0.091227
H164	H	0.792522	-0.468295	-0.140417
H165	H	0.788011	-0.457315	-0.279471
H166	H	0.877755	-0.526575	-0.369330
C167	C	1.130864	-0.992101	-0.479105
C168	C	1.182430	-1.031898	-0.530739
C169	C	1.233974	-0.999380	-0.582356
C170	C	1.233952	-0.927066	-0.582338
C171	C	1.182383	-0.887265	-0.530702
C172	C	1.130839	-0.919783	-0.479086
H173	H	1.182449	-1.085433	-0.530754
H174	H	1.272149	-1.028844	-0.620580
H175	H	1.272108	-0.902995	-0.620548
H176	H	1.182365	-0.833730	-0.530688
H177	H	1.092665	-0.890319	-0.440862
C178	C	0.954384	-0.281339	-0.789874
C179	C	0.873831	-0.283082	-0.776520
C180	C	0.825906	-0.238436	-0.815027
C181	C	0.858533	-0.192046	-0.866888
C182	C	0.939090	-0.190301	-0.880243
C183	C	0.987015	-0.234948	-0.841737
H184	H	0.849674	-0.317424	-0.738128
H185	H	0.766272	-0.239727	-0.805140
H186	H	0.823056	-0.158996	-0.895393
H187	H	0.963247	-0.155959	-0.918636
H188	H	1.046649	-0.233656	-0.851624
H189	H	1.117519	-1.119820	-0.465729
H190	H	0.934553	-0.262816	-0.975327
H191	H	0.939945	-0.267783	-1.108897
H192	H	1.130308	-0.445153	-0.786403
H193	H	1.124931	-0.440182	-0.652833
