data_functionalizedCrystal
_audit_creation_method	'MofGen! by Chris Wilmer'
_symmetry_space_group_name_H-M	'P1'
_symmetry_Int_Tables_number	1
_symmetry_cell_setting	triclinic
loop_
_symmetry_equiv_pos_as_xyz
  x,y,z
_cell_length_a	21.395362
_cell_length_b	15.297327
_cell_length_c	21.395355
_cell_angle_alpha	99.659679
_cell_angle_beta	89.956060
_cell_angle_gamma	99.725883
loop_
_atom_site_label
_atom_site_type_symbol
_atom_site_fract_x
_atom_site_fract_y
_atom_site_fract_z
Zn1	Zn	0.914743	-0.358918	-0.397693
Zn2	Zn	1.248076	-0.025585	-0.064360
Zn3	Zn	1.581410	0.307749	0.268974
Zn4	Zn	0.896524	-0.509774	-0.311034
Zn5	Zn	1.229857	-0.176441	0.022300
Zn6	Zn	1.563190	0.156893	0.355633
Zn7	Zn	0.809953	-0.358960	-0.292899
Zn8	Zn	1.143286	-0.025627	0.040434
Zn9	Zn	1.476620	0.307707	0.373767
Zn10	Zn	0.791803	-0.509792	-0.415741
Zn11	Zn	1.125136	-0.176459	-0.082407
Zn12	Zn	1.458470	0.156874	0.250926
O13	O	0.853256	-0.434361	-0.354342
O14	O	1.186589	-0.101028	-0.021008
O15	O	1.519922	0.232306	0.312325
O16	O	1.000007	-0.378904	-0.386234
O17	O	1.333341	-0.045571	-0.052900
O18	O	1.666674	0.287763	0.280433
O19	O	0.885011	-0.489778	-0.220951
O20	O	1.218344	-0.156445	0.112382
O21	O	1.551677	0.176889	0.445715
O22	O	0.839075	-0.232697	-0.291658
O23	O	1.172408	0.100637	0.041675
O24	O	1.505741	0.433970	0.375009
O25	O	0.986621	-0.489737	-0.322566
O26	O	1.319955	-0.156404	0.010768
O27	O	1.653288	0.176930	0.344101
O28	O	0.916063	-0.232666	-0.368649
O29	O	1.249397	0.100668	-0.035316
O30	O	1.582730	0.434001	0.298017
O31	O	0.821408	-0.378975	-0.207628
O32	O	1.154741	-0.045642	0.125705
O33	O	1.488074	0.287691	0.459039
O34	O	0.719864	-0.378993	-0.309158
O35	O	1.053198	-0.045660	0.024175
O36	O	1.386531	0.287673	0.357509
O37	O	0.808140	-0.489769	-0.501023
O38	O	1.141474	-0.156435	-0.167690
O39	O	1.474807	0.176898	0.165643
O40	O	0.706530	-0.489810	-0.399409
O41	O	1.039863	-0.156476	-0.066076
O42	O	1.373196	0.176857	0.267258
O43	O	0.898464	-0.378922	-0.487764
O44	O	1.231797	-0.045589	-0.154430
O45	O	1.565131	0.287745	0.178903
O46	O	0.867411	-0.636034	-0.340066
O47	O	1.200745	-0.302701	-0.006732
O48	O	1.534078	0.030633	0.326601
O49	O	0.790473	-0.636048	-0.416993
O50	O	1.123807	-0.302714	-0.083660
O51	O	1.457140	0.030619	0.249673
C52	C	0.690462	-0.434409	-0.354275
C53	C	1.023796	-0.101075	-0.020941
C54	C	1.357129	0.232258	0.312392
C55	C	0.620816	-0.434451	-0.354263
C56	C	0.954149	-0.101118	-0.020930
C57	C	1.287483	0.232216	0.312403
C58	C	0.581167	-0.492229	-0.401206
C59	C	0.914500	-0.158896	-0.067873
C60	C	1.247833	0.174437	0.265460
C61	C	0.515734	-0.492207	-0.401232
C62	C	0.849067	-0.158874	-0.067898
C63	C	1.182400	0.174460	0.265435
C64	C	0.489952	-0.434416	-0.354304
C65	C	0.823285	-0.101083	-0.020971
C66	C	1.156618	0.232251	0.312363
C67	C	0.529610	-0.376627	-0.307357
C68	C	0.862944	-0.043293	0.025976
C69	C	1.196277	0.290040	0.359310
C70	C	0.595042	-0.376644	-0.307337
C71	C	0.928376	-0.043311	0.025997
C72	C	1.261709	0.290023	0.359330
C73	C	0.387100	-0.427148	-0.297026
C74	C	0.720434	-0.093814	0.036308
C75	C	1.053767	0.239519	0.369641
C76	C	0.321669	-0.427137	-0.297046
C77	C	0.655002	-0.093803	0.036288
C78	C	0.988335	0.239530	0.369621
C79	C	0.288138	-0.434357	-0.354366
C80	C	0.621472	-0.101024	-0.021033
C81	C	0.954805	0.232309	0.312301
C82	C	0.320045	-0.441608	-0.411670
C83	C	0.653378	-0.108275	-0.078337
C84	C	0.986712	0.225059	0.254996
C85	C	0.385477	-0.441625	-0.411650
C86	C	0.718811	-0.108292	-0.078317
C87	C	1.052144	0.225041	0.255016
C88	C	0.419003	-0.434390	-0.354321
C89	C	0.752336	-0.101057	-0.020988
C90	C	1.085669	0.232276	0.312346
C91	C	0.177539	-0.492115	-0.401340
C92	C	0.510872	-0.158781	-0.068007
C93	C	0.844205	0.174552	0.265327
C94	C	0.112106	-0.492086	-0.401366
C95	C	0.445439	-0.158753	-0.068032
C96	C	0.778772	0.174580	0.265301
C97	C	0.125983	-0.376510	-0.307486
C98	C	0.459316	-0.043177	0.025847
C99	C	0.792650	0.290156	0.359181
C100	C	0.191415	-0.376534	-0.307465
C101	C	0.524749	-0.043201	0.025868
C102	C	0.858082	0.290133	0.359201
C103	C	0.217189	-0.434341	-0.354392
C104	C	0.550522	-0.101008	-0.021059
C105	C	0.883856	0.232326	0.312275
C106	C	0.825013	-0.668778	-0.382470
C107	C	1.158346	-0.335445	-0.049136
C108	C	1.491679	-0.002111	0.284197
C109	C	0.812988	-0.769063	-0.394524
C110	C	1.146321	-0.435729	-0.061190
C111	C	1.479654	-0.102396	0.272143
C112	C	0.939459	-1.051594	-0.268402
C113	C	1.272793	-0.718261	0.064931
C114	C	1.606126	-0.384928	0.398265
C115	C	0.950757	-0.957372	-0.257073
C116	C	1.284091	-0.624039	0.076260
C117	C	1.617424	-0.290705	0.409593
C118	C	0.916316	-0.910290	-0.291435
C119	C	1.249649	-0.576957	0.041898
C120	C	1.582983	-0.243623	0.375232
C121	C	0.870575	-0.957440	-0.337127
C122	C	1.203908	-0.624106	-0.003794
C123	C	1.537241	-0.290773	0.329539
C124	C	0.859272	-1.051671	-0.348454
C125	C	1.192605	-0.718338	-0.015120
C126	C	1.525939	-0.385005	0.318213
C127	C	0.836129	-0.910367	-0.371487
C128	C	1.169462	-0.577034	-0.038153
C129	C	1.502795	-0.243700	0.295180
C130	C	0.790387	-0.957517	-0.417179
C131	C	1.123721	-0.624183	-0.083845
C132	C	1.457054	-0.290850	0.249488
C133	C	0.779087	-1.051739	-0.428503
C134	C	1.112421	-0.718406	-0.095170
C135	C	1.445754	-0.385072	0.238163
C136	C	0.813528	-1.098821	-0.394142
C137	C	1.146862	-0.765487	-0.060808
C138	C	1.480195	-0.432154	0.272525
C139	C	0.847431	-0.816135	-0.360160
C140	C	1.180765	-0.482802	-0.026827
C141	C	1.514098	-0.149469	0.306506
C142	C	0.767244	-0.816212	-0.440212
C143	C	1.100577	-0.482879	-0.106878
C144	C	1.433911	-0.149546	0.226455
C145	C	0.755946	-0.910435	-0.451540
C146	C	1.089279	-0.577101	-0.118207
C147	C	1.422613	-0.243768	0.215126
C148	C	1.016685	-0.434314	-0.354409
C149	C	1.350018	-0.100980	-0.021076
C150	C	1.683351	0.232353	0.312257
C151	C	1.086328	-0.434294	-0.354438
C152	C	1.419662	-0.100960	-0.021105
C153	C	1.752995	0.232373	0.312229
C154	C	0.853310	-0.434343	-0.517763
C155	C	1.186643	-0.101009	-0.184429
C156	C	1.519977	0.232324	0.148904
C157	C	0.853333	-0.434335	-0.587403
C158	C	1.186666	-0.101002	-0.254070
C159	C	1.520000	0.232332	0.079264
C160	C	0.881626	-0.199029	-0.326118
C161	C	1.214959	0.134305	0.007216
C162	C	1.548293	0.467638	0.340549
C163	C	0.893716	-0.098744	-0.314090
C164	C	1.227049	0.234589	0.019243
C165	C	1.560382	0.567923	0.352576
C166	C	0.900363	-0.376615	-0.613213
C167	C	1.233696	-0.043281	-0.279879
C168	C	1.567030	0.290052	0.053454
C169	C	0.900367	-0.376576	-0.678643
C170	C	1.233700	-0.043242	-0.345310
C171	C	1.567034	0.290091	-0.011977
C172	C	0.853345	-0.434273	-0.718264
C173	C	1.186679	-0.100940	-0.384931
C174	C	1.520012	0.232393	-0.051597
C175	C	0.806307	-0.491998	-0.692447
C176	C	1.139640	-0.158665	-0.359114
C177	C	1.472974	0.174669	-0.025780
C178	C	0.806301	-0.492029	-0.627017
C179	C	1.139634	-0.158695	-0.293683
C180	C	1.472967	0.174638	0.039650
C181	C	0.838610	-0.515514	-0.831685
C182	C	1.171943	-0.182181	-0.498352
C183	C	1.505277	0.151152	-0.165019
C184	C	0.838620	-0.515485	-0.897115
C185	C	1.171954	-0.182152	-0.563781
C186	C	1.505287	0.151181	-0.230448
C187	C	0.853361	-0.434178	-0.920074
C188	C	1.186694	-0.100845	-0.586740
C189	C	1.520027	0.232489	-0.253407
C190	C	0.868104	-0.352898	-0.877594
C191	C	1.201437	-0.019564	-0.544261
C192	C	1.534771	0.313769	-0.210928
C193	C	0.868098	-0.352928	-0.812164
C194	C	1.201431	-0.019595	-0.478831
C195	C	1.534765	0.313738	-0.145497
C196	C	0.853346	-0.434246	-0.789213
C197	C	1.186680	-0.100913	-0.455880
C198	C	1.520013	0.232421	-0.122547
C199	C	0.900398	-0.376411	-1.016830
C200	C	1.233731	-0.043077	-0.683497
C201	C	1.567064	0.290256	-0.350163
C202	C	0.900397	-0.376370	-1.082262
C203	C	1.233730	-0.043037	-0.748929
C204	C	1.567064	0.290296	-0.415595
C205	C	0.806339	-0.491801	-1.096065
C206	C	1.139673	-0.158467	-0.762732
C207	C	1.473006	0.174866	-0.429399
C208	C	0.806338	-0.491833	-1.030634
C209	C	1.139671	-0.158500	-0.697300
C210	C	1.473004	0.174834	-0.363967
C211	C	0.853370	-0.434139	-0.991020
C212	C	1.186703	-0.100806	-0.657687
C213	C	1.520036	0.232527	-0.324354
C214	C	0.853246	-0.434314	-0.191548
C215	C	1.186579	-0.100981	0.141785
C216	C	1.519912	0.232353	0.475118
C217	C	0.853374	-0.434068	-0.121878
C218	C	1.186708	-0.100734	0.211455
C219	C	1.520041	0.232599	0.544789
H220	H	0.411453	-0.447526	-0.458309
H221	H	0.744787	-0.114193	-0.124976
H222	H	1.078120	0.219140	0.208357
H223	H	0.884674	-0.777754	-0.322957
H224	H	1.218007	-0.444421	0.010376
H225	H	1.551341	-0.111088	0.343709
H226	H	0.292746	-0.447486	-0.458346
H227	H	0.626080	-0.114153	-0.125013
H228	H	0.959413	0.219181	0.208320
F229	F	0.730583	-0.766109	-0.476781
F230	F	1.063917	-0.432776	-0.143448
F231	F	1.397250	-0.099442	0.189885
H232	H	0.198525	-0.539180	-0.439553
H233	H	0.531858	-0.205847	-0.106220
H234	H	0.865192	0.127487	0.227113
H235	H	0.938660	-0.329635	-0.580963
H236	H	1.271993	0.003699	-0.247629
H237	H	1.605326	0.337032	0.085704
H238	H	0.768044	-0.538841	-1.009621
H239	H	1.101377	-0.205507	-0.676287
H240	H	1.434710	0.127826	-0.342954
H241	H	0.768020	-0.538973	-0.724710
H242	H	1.101353	-0.205640	-0.391377
H243	H	1.434687	0.127694	-0.058044
H244	H	0.295694	-0.421238	-0.250386
H245	H	0.629028	-0.087905	0.082948
H246	H	0.962361	0.245428	0.416281
H247	H	0.987999	-0.918986	-0.219871
H248	H	1.321332	-0.585653	0.113463
H249	H	1.654665	-0.252320	0.446796
F250	F	0.069908	-0.553581	-0.451334
F251	F	0.403241	-0.220247	-0.118001
F252	F	0.736574	0.113086	0.215332
H253	H	0.967493	-1.089937	-0.240426
H254	H	1.300826	-0.756604	0.092907
H255	H	1.634159	-0.423270	0.426241
F256	F	0.883785	-0.266427	-0.766957
F257	F	1.217119	0.066907	-0.433624
F258	F	1.550452	0.400240	-0.100291
H259	H	0.741834	-1.090126	-0.465702
H260	H	1.075167	-0.756792	-0.132368
H261	H	1.408501	-0.423459	0.200965
H262	H	0.768048	-0.538770	-1.128323
H263	H	1.101382	-0.205437	-0.794989
H264	H	1.434715	0.127897	-0.461656
F265	F	0.801307	-1.199104	-0.405997
F266	F	1.134641	-0.865771	-0.072664
F267	F	1.467974	-0.532437	0.260670
H268	H	0.826619	-0.581669	-0.931697
H269	H	1.159952	-0.248335	-0.598363
H270	H	1.493286	0.084998	-0.265030
F271	F	0.707266	-0.960626	-0.500168
F272	F	1.040599	-0.627292	-0.166835
F273	F	1.373933	-0.293959	0.166499
H274	H	0.938691	-0.329428	-0.984574
H275	H	1.272024	0.003905	-0.651241
H276	H	1.605358	0.337239	-0.317908
H277	H	0.483445	-0.539257	-0.439461
H278	H	0.816779	-0.205923	-0.106127
H279	H	1.150112	0.127410	0.227206
H280	H	0.880108	-0.286690	-0.896285
H281	H	1.213441	0.046644	-0.562952
H282	H	1.546775	0.379977	-0.229618
F283	F	0.950416	-0.315124	-0.706116
F284	F	1.283750	0.018209	-0.372783
F285	F	1.617083	0.351542	-0.039450
H286	H	0.938694	-0.329362	-1.103273
H287	H	1.272028	0.003971	-0.769940
H288	H	1.605361	0.337304	-0.436607
F289	F	0.822934	-0.602060	-0.807259
F290	F	1.156268	-0.268727	-0.473925
F291	F	1.489601	0.064606	-0.140592
F292	F	0.756243	-0.553465	-0.599548
F293	F	1.089576	-0.220132	-0.266215
F294	F	1.422909	0.113201	0.067119
H295	H	0.602147	-0.539299	-0.439419
H296	H	0.935480	-0.205966	-0.106085
H297	H	1.268814	0.127368	0.227248
F298	F	0.098549	-0.315000	-0.257544
F299	F	0.431882	0.018334	0.075789
F300	F	0.765215	0.351667	0.409123
H301	H	0.223698	-0.329489	-0.269237
H302	H	0.557032	0.003844	0.064097
H303	H	0.890365	0.337177	0.397430
F304	F	0.502171	-0.315118	-0.257415
F305	F	0.835504	0.018216	0.075918
F306	F	1.168838	0.351549	0.409252
H307	H	0.414396	-0.421264	-0.250345
H308	H	0.747729	-0.087931	0.082988
H309	H	1.081062	0.245403	0.416322
F310	F	0.637242	-0.315145	-0.257371
F311	F	0.970575	0.018188	0.075962
F312	F	1.303909	0.351522	0.409295
F313	F	0.928476	-0.810010	-0.279511
F314	F	1.261809	-0.476677	0.053822
F315	F	1.595142	-0.143343	0.387155
