data_functionalizedCrystal
_audit_creation_method	'MofGen! by Chris Wilmer'
_symmetry_space_group_name_H-M	'P1'
_symmetry_Int_Tables_number	1
_symmetry_cell_setting	triclinic
loop_
_symmetry_equiv_pos_as_xyz
  x,y,z
_cell_length_a	16.625546
_cell_length_b	19.077105
_cell_length_c	19.076919
_cell_angle_alpha	90.076224
_cell_angle_beta	87.730083
_cell_angle_gamma	92.281241
loop_
_atom_site_label
_atom_site_type_symbol
_atom_site_fract_x
_atom_site_fract_y
_atom_site_fract_z
Zn1	Zn	-0.390077	-1.058283	0.440407
Zn2	Zn	-0.519720	-1.062927	0.322896
Zn3	Zn	-0.379275	-0.945500	0.318200
Zn4	Zn	-0.519234	-0.940748	0.435649
O5	O	-0.452076	-1.001864	0.379288
O6	O	-0.411998	-1.157231	0.428775
O7	O	-0.496773	-1.051282	0.223942
O8	O	-0.267879	-0.960506	0.334437
O9	O	-0.507246	-1.160642	0.342441
O10	O	-0.275815	-1.043367	0.424222
O11	O	-0.393589	-0.965009	0.220492
O12	O	-0.393117	-0.846538	0.329824
O13	O	-0.506418	-0.952407	0.534611
O14	O	-0.495944	-0.843047	0.416113
O15	O	-0.411527	-1.038759	0.538107
O16	O	-0.632485	-1.046674	0.337827
O17	O	-0.632127	-0.956910	0.420666
C18	C	-0.661563	-1.001799	0.379256
C19	C	-0.751186	-1.001834	0.379268
C20	C	-0.443306	-0.819296	0.371943
C21	C	-0.439575	-0.741192	0.368817
C22	C	-0.460881	-1.185146	0.386662
C23	C	-0.464634	-1.263249	0.389805
C24	C	-1.079371	-1.001954	0.379346
C25	C	-0.988060	-1.001918	0.379327
C26	C	-0.915281	-1.001894	0.379307
C27	C	-0.823965	-1.001859	0.379288
C28	C	-0.241774	-1.001948	0.379336
C29	C	-0.152155	-1.001984	0.379357
C30	C	-0.460123	-0.994535	0.562568
C31	C	-0.463552	-0.991412	0.640671
C32	C	-0.491432	-0.702702	0.412204
C33	C	-0.487916	-0.629314	0.409270
C34	C	-0.432544	-0.594418	0.362946
C35	C	-0.380681	-0.632913	0.319557
C36	C	-0.384194	-0.706299	0.322495
C37	C	-0.416284	-0.375130	0.349354
C38	C	-0.412776	-0.301739	0.346418
C39	C	-0.520010	-0.298145	0.436133
C40	C	-0.523522	-0.371533	0.439063
C41	C	-0.471655	-0.410021	0.395677
N42	N	-0.428950	-0.519405	0.359945
N43	N	-0.475247	-0.485034	0.398682
C44	C	-0.444005	-1.009205	0.196723
C45	C	-0.440356	-1.012465	0.118626
C46	C	-0.415760	-1.034901	0.679185
C47	C	-0.418978	-1.031958	0.752571
C48	C	-0.469993	-0.985529	0.787441
C49	C	-0.517786	-0.942035	0.748922
C50	C	-0.514563	-0.944975	0.675537
C51	C	-0.484926	-0.971911	1.006722
C52	C	-0.488147	-0.968976	1.080112
C53	C	-0.389338	-1.058898	1.083755
C54	C	-0.386123	-1.061837	1.010369
C55	C	-0.433913	-1.018341	0.971856
N56	N	-0.473286	-0.982521	0.862453
N57	N	-0.430616	-1.021346	0.896846
H58	H	-0.530145	-0.597979	0.444600
C59	C	-0.573902	-0.890964	0.787278
H60	H	-0.568984	-0.895446	0.836499
H61	H	-0.559308	-0.844237	0.773352
H62	H	-0.628044	-0.901714	0.775650
C63	C	-0.544263	-0.917899	1.118468
H64	H	-0.572259	-0.892411	1.085021
H65	H	-0.581944	-0.943618	1.148169
H66	H	-0.513199	-0.886150	1.145870
C67	C	-0.330007	-1.112910	0.972017
H68	H	-0.302001	-1.138387	1.005465
H69	H	-0.361067	-1.144659	0.944617
H70	H	-0.292324	-1.087189	0.942314
C71	C	-0.351872	-0.263352	0.295454
H72	H	-0.357220	-0.214134	0.299912
H73	H	-0.298743	-0.274973	0.306299
H74	H	-0.362100	-0.277259	0.248704
C75	C	-0.359238	-0.417462	0.301630
H76	H	-0.369250	-0.466166	0.310016
H77	H	-0.368303	-0.407311	0.253917
H78	H	-0.304960	-0.405034	0.311524
H79	H	-0.335593	-0.604495	0.281842
C80	C	-0.537476	-0.924052	0.964366
H81	H	-0.568318	-0.895981	0.995646
H82	H	-0.503888	-0.894599	0.934523
H83	H	-0.572651	-0.952050	0.936804
C84	C	-0.327150	-0.748638	0.274771
H85	H	-0.293673	-0.717346	0.246757
H86	H	-0.294622	-0.776203	0.302855
H87	H	-0.357963	-0.778478	0.245247
C88	C	-0.336767	-1.106735	1.126120
H89	H	-0.345986	-1.098332	1.174820
H90	H	-0.350304	-1.154425	1.115994
H91	H	-0.281569	-1.096947	1.113691
C92	C	-0.366430	-1.079812	0.794937
H93	H	-0.375653	-1.071412	0.843636
H94	H	-0.379989	-1.127497	0.784803
H95	H	-0.311226	-1.070045	0.782515
C96	C	-0.359639	-1.085971	0.640834
H97	H	-0.331631	-1.111444	0.674284
H98	H	-0.390690	-1.117724	0.613431
H99	H	-0.321958	-1.060244	0.611134
H100	H	-0.568613	-0.399940	0.476784
H101	H	-0.562235	-0.266800	0.471456
C102	C	-0.567155	-0.897154	0.633173
H103	H	-0.598010	-0.869090	0.664450
H104	H	-0.533600	-0.867692	0.603311
H105	H	-0.602318	-0.925185	0.605630
C106	C	-0.552340	-0.741081	0.463162
H107	H	-0.582715	-0.707644	0.488586
H108	H	-0.587613	-0.770771	0.437376
H109	H	-0.524262	-0.768496	0.494976
