data_functionalizedCrystal
_audit_creation_method	'MofGen! by Chris Wilmer'
_symmetry_space_group_name_H-M	'P1'
_symmetry_Int_Tables_number	1
_symmetry_cell_setting	triclinic
loop_
_symmetry_equiv_pos_as_xyz
  x,y,z
_cell_length_a	14.853568
_cell_length_b	13.930277
_cell_length_c	14.853567
_cell_angle_alpha	90.000555
_cell_angle_beta	83.635059
_cell_angle_gamma	90.005027
loop_
_atom_site_label
_atom_site_type_symbol
_atom_site_fract_x
_atom_site_fract_y
_atom_site_fract_z
O1	O	-1.196369	-0.079760	-0.117706
O2	O	-0.696369	0.420240	0.382294
O3	O	-0.933909	-0.079775	-0.131727
O4	O	-0.433909	0.420225	0.368273
O5	O	-1.072150	-0.079770	0.006513
O6	O	-0.572150	0.420230	0.506513
O7	O	-1.058128	-0.079765	-0.255946
O8	O	-0.558128	0.420235	0.244054
O9	O	-1.072129	0.079892	0.006516
O10	O	-0.572129	0.579892	0.506516
O11	O	-0.933889	0.079887	-0.131724
O12	O	-0.433889	0.579887	0.368276
O13	O	-1.196348	0.079902	-0.117704
O14	O	-0.696348	0.579902	0.382296
Zn15	Zn	-1.065115	0.105244	-0.124714
Zn16	Zn	-0.565115	0.605244	0.375286
Zn17	Zn	-1.065142	-0.105117	-0.124717
Zn18	Zn	-0.565142	0.394883	0.375283
O19	O	-1.058108	0.079897	-0.255944
O20	O	-0.558108	0.579897	0.244056
C21	C	-0.900310	0.000054	-0.131090
C22	C	-0.400310	0.500054	0.368910
C23	C	-0.800227	0.000048	-0.129186
C24	C	-0.300227	0.500048	0.370814
N25	N	-1.065103	0.248810	-0.124711
N26	N	-0.565103	0.748810	0.375289
C27	C	-1.071504	0.000058	0.040103
C28	C	-0.571504	0.500058	0.540103
C29	C	-1.069600	0.000050	0.140187
C30	C	-0.569600	0.500050	0.640187
C31	C	-0.387693	0.000069	-0.039019
C32	C	0.112307	0.500069	0.460981
C33	C	-0.366412	0.000072	-0.203252
C34	C	0.133588	0.500072	0.296748
C35	C	-0.460446	0.000068	-0.205043
C36	C	0.039554	0.500068	0.294957
C37	C	-0.518107	0.000064	-0.123820
C38	C	-0.018107	0.500064	0.376180
C39	C	-0.481736	0.000063	-0.040807
C40	C	0.018264	0.500063	0.459193
C41	C	-0.496825	0.000059	-0.288054
C42	C	0.003175	0.500059	0.211946
C43	C	-0.590864	0.000055	-0.289848
C44	C	-0.090864	0.500055	0.210152
C45	C	-0.648527	0.000058	-0.208624
C46	C	-0.148527	0.500058	0.291376
C47	C	-0.612150	0.000058	-0.125608
C48	C	-0.112150	0.500058	0.374392
C49	C	-0.669812	0.000054	-0.044385
C50	C	-0.169812	0.500054	0.455615
C51	C	-0.633437	0.000061	0.038632
C52	C	-0.133437	0.500061	0.538632
C53	C	-0.539399	0.000066	0.040416
C54	C	-0.039399	0.500066	0.540416
C55	C	-0.742565	0.000052	-0.210409
C56	C	-0.242565	0.500052	0.289591
C57	C	-0.763855	0.000047	-0.046173
C58	C	-0.263855	0.500047	0.453827
C59	C	-0.229947	0.000072	-0.118340
C60	C	0.270053	0.500072	0.381660
C61	C	-0.330031	0.000073	-0.120242
C62	C	0.169969	0.500073	0.379758
C63	C	-1.003919	0.701077	-0.185909
C64	C	-0.503919	1.201077	0.314091
C65	C	-1.126374	0.701051	-0.063525
C66	C	-0.626374	1.201051	0.436475
C67	C	-1.126364	0.600555	-0.063521
C68	C	-0.626364	1.100555	0.436479
C69	C	-1.065132	0.550316	-0.124714
C70	C	-0.565132	1.050316	0.375286
C71	C	-1.003909	0.600572	-0.185909
C72	C	-0.503909	1.100572	0.314091
C73	C	-1.187592	0.550291	-0.002333
C74	C	-0.687592	1.050291	0.497667
C75	C	-1.187586	0.449790	-0.002328
C76	C	-0.687586	0.949790	0.497672
C77	C	-1.126348	0.399548	-0.063517
C78	C	-0.626348	0.899548	0.436483
C79	C	-1.065122	0.449811	-0.124714
C80	C	-0.565122	0.949811	0.375286
C81	C	-1.003890	0.399572	-0.185906
C82	C	-0.503890	0.899572	0.314094
C83	C	-0.942659	0.449832	-0.247100
C84	C	-0.442659	0.949832	0.252900
C85	C	-0.942671	0.550331	-0.247098
C86	C	-0.442671	1.050331	0.252902
C87	C	-1.126335	0.299050	-0.063519
C88	C	-0.626335	0.799050	0.436481
C89	C	-1.003880	0.299067	-0.185907
C90	C	-0.503880	0.799067	0.314093
N91	N	-1.065151	0.751317	-0.124717
N92	N	-0.565151	1.251317	0.375283
C93	C	-1.058753	0.000067	-0.289534
C94	C	-0.558753	0.500067	0.210466
C95	C	-1.060657	0.000069	-0.389617
C96	C	-0.560657	0.500069	0.110383
C97	C	-0.979435	0.000063	0.552721
C98	C	-0.479435	0.500063	1.052721
C99	C	-1.143667	0.000072	0.574002
C100	C	-0.643667	0.500072	1.074002
C101	C	-1.145457	0.000067	0.479968
C102	C	-0.645457	0.500067	0.979968
C103	C	-1.064235	0.000061	0.422306
C104	C	-0.564235	0.500061	0.922306
C105	C	-0.981222	0.000060	0.458678
C106	C	-0.481222	0.500060	0.958678
C107	C	-1.228469	0.000077	0.443589
C108	C	-0.728469	0.500077	0.943589
C109	C	-1.230262	0.000072	0.349550
C110	C	-0.730262	0.500072	0.849550
C111	C	-1.149039	0.000059	0.291886
C112	C	-0.649039	0.500059	0.791886
C113	C	-1.066023	0.000058	0.328263
C114	C	-0.566023	0.500058	0.828263
C115	C	-0.984800	0.000052	0.270602
C116	C	-0.484800	0.500052	0.770602
C117	C	-0.901783	0.000044	0.306977
C118	C	-0.401783	0.500044	0.806977
C119	C	-0.899999	0.000048	0.401015
C120	C	-0.399999	0.500048	0.901015
C121	C	-1.150823	0.000056	0.197849
C122	C	-0.650823	0.500056	0.697849
C123	C	-0.986588	0.000049	0.176559
C124	C	-0.486588	0.500049	0.676559
H125	H	-0.810798	0.000048	0.019969
H126	H	-0.310798	0.500048	0.519969
C127	C	-1.193724	0.756311	0.003781
C128	C	-0.693724	1.256311	0.503781
H129	H	-1.184958	0.823363	-0.004981
H130	H	-0.684958	1.323363	0.495019
H131	H	-1.253900	0.739827	-0.006116
H132	H	-0.753900	1.239827	0.493884
H133	H	-1.183851	0.739848	0.063971
H134	H	-0.683851	1.239848	0.563971
C135	C	-1.317807	0.000082	0.507011
C136	C	-0.817807	0.500082	1.007011
H137	H	-1.367503	0.000095	0.471881
H138	H	-0.867503	0.500095	0.971881
H139	H	-1.320529	-0.055596	0.544136
H140	H	-0.820529	0.444404	1.044136
H141	H	-1.320512	0.055766	0.544137
H142	H	-0.820512	0.555766	1.044137
H143	H	-0.509774	0.000094	0.108004
H144	H	-0.009774	0.500094	0.608004
H145	H	-0.680397	0.000051	0.104763
H146	H	-0.180397	0.500051	0.604763
H147	H	-0.358072	0.000079	0.028571
H148	H	0.141928	0.500079	0.528571
C149	C	-0.888121	0.000049	0.592724
C150	C	-0.388121	0.500049	1.092724
H151	H	-0.840007	0.000037	0.544913
H152	H	-0.340007	0.500037	1.044913
H153	H	-0.883995	0.055722	0.628970
H154	H	-0.383995	0.555722	1.128970
H155	H	-0.884021	-0.055640	0.628961
H156	H	-0.384021	0.444360	1.128961
H157	H	-1.218414	0.000069	0.168236
H158	H	-0.718414	0.500069	0.668236
C159	C	-1.233004	0.000081	0.637426
C160	C	-0.733004	0.500081	1.137426
H161	H	-1.220050	0.000078	0.698640
H162	H	-0.720050	0.500078	1.198640
H163	H	-1.267033	0.055757	0.626384
H164	H	-0.767033	0.555757	1.126384
H165	H	-1.267041	-0.055605	0.626392
H166	H	-0.767041	0.444395	1.126392
C167	C	-0.302992	0.000066	-0.292592
C168	C	0.197008	0.500066	0.207408
H169	H	-0.338124	0.000058	-0.342286
H170	H	0.161876	0.500058	0.157714
H171	H	-0.265857	0.055741	-0.295310
H172	H	0.234143	0.555741	0.204690
H173	H	-0.265875	-0.055621	-0.295303
H174	H	0.234125	0.444379	0.204697
C175	C	-0.433403	0.000051	-0.377392
C176	C	0.066597	0.500051	0.122608
H177	H	-0.468533	0.000033	-0.427088
H178	H	0.031467	0.500033	0.072912
H179	H	-0.396272	0.055729	-0.380115
H180	H	0.103728	0.555729	0.119885
H181	H	-0.396281	-0.055633	-0.380097
H182	H	0.103719	0.444367	0.119903
H183	H	-1.237450	0.591200	0.047484
H184	H	-0.737450	1.091200	0.547484
C185	C	-1.321572	0.000078	0.309539
C186	C	-0.821572	0.500078	0.809539
H187	H	-1.311007	0.000080	0.245276
H188	H	-0.811007	0.500080	0.745276
H189	H	-1.355030	-0.055595	0.329328
H190	H	-0.855030	0.444405	0.829328
H191	H	-1.355008	0.055768	0.329320
H192	H	-0.855008	0.555768	0.829320
C193	C	-1.193680	0.243762	0.003782
C194	C	-0.693680	0.743762	0.503782
H195	H	-1.184908	0.176713	-0.004984
H196	H	-0.684908	0.676713	0.495016
H197	H	-1.183827	0.260238	0.063971
H198	H	-0.683827	0.760238	0.563971
H199	H	-1.253860	0.260218	-0.006132
H200	H	-0.753860	0.760218	0.493868
H201	H	-1.237442	0.408874	0.047500
H202	H	-0.737442	0.908874	0.547500
C203	C	-0.808689	0.000040	0.441026
C204	C	-0.308689	0.500040	0.941026
H205	H	-0.760570	0.000025	0.393219
H206	H	-0.260570	0.500025	0.893219
H207	H	-0.804569	0.055718	0.477266
H208	H	-0.304569	0.555718	0.977266
H209	H	-0.804591	-0.055645	0.477269
H210	H	-0.304591	0.444355	0.977269
H211	H	-0.620472	0.000049	-0.357445
H212	H	-0.120472	0.500049	0.142555
H213	H	-0.920445	0.000040	0.129616
H214	H	-0.420445	0.500040	0.629616
C215	C	-0.812441	0.000039	0.243548
C216	C	-0.312441	0.500039	0.743548
H217	H	-0.762743	0.000040	0.278675
H218	H	-0.262743	0.500040	0.778675
H219	H	-0.809738	-0.055636	0.206418
H220	H	-0.309738	0.444364	0.706418
H221	H	-0.809722	0.055726	0.206426
H222	H	-0.309722	0.555726	0.706426
C223	C	-0.782580	0.000042	-0.301712
C224	C	-0.282580	0.500042	0.198288
H225	H	-0.846843	0.000033	-0.291146
H226	H	-0.346843	0.500033	0.208854
H227	H	-0.762792	0.055716	-0.335166
H228	H	-0.262792	0.555716	0.164834
H229	H	-0.762800	-0.055647	-0.335153
H230	H	-0.262800	0.444353	0.164847
C231	C	-0.936524	0.243811	-0.253222
C232	C	-0.436524	0.743811	0.246778
H233	H	-0.900067	0.288140	-0.289667
H234	H	-0.400067	0.788140	0.210333
H235	H	-0.898957	0.204609	-0.220724
H236	H	-0.398957	0.704609	0.279276
H237	H	-0.969002	0.204605	-0.290817
H238	H	-0.469002	0.704605	0.209183
C239	C	-0.875308	0.394567	-0.314412
C240	C	-0.375308	0.894567	0.185588
H241	H	-0.838846	0.438888	-0.350862
H242	H	-0.338846	0.938888	0.149138
H243	H	-0.837745	0.355363	-0.281912
H244	H	-0.337745	0.855363	0.218088
H245	H	-0.907791	0.355362	-0.352004
H246	H	-0.407791	0.855362	0.147996
H247	H	-0.892820	0.591260	-0.296921
H248	H	-0.392820	1.091260	0.203079
H249	H	-0.954063	0.742002	-0.235730
H250	H	-0.454063	1.242002	0.264270
