data_functionalizedCrystal
_audit_creation_method	'MofGen! by Chris Wilmer'
_symmetry_space_group_name_H-M	'P1'
_symmetry_Int_Tables_number	1
_symmetry_cell_setting	triclinic
loop_
_symmetry_equiv_pos_as_xyz
  x,y,z
_cell_length_a	18.050591
_cell_length_b	25.639240
_cell_length_c	18.050583
_cell_angle_alpha	89.954476
_cell_angle_beta	89.979141
_cell_angle_gamma	90.029204
loop_
_atom_site_label
_atom_site_type_symbol
_atom_site_fract_x
_atom_site_fract_y
_atom_site_fract_z
Zn1	Zn	1.135277	-0.208163	-0.419961
Zn2	Zn	1.468611	0.125171	-0.086627
Zn3	Zn	1.801944	0.458504	0.246706
Zn4	Zn	1.135176	-0.295612	-0.295751
Zn5	Zn	1.468509	0.037722	0.037583
Zn6	Zn	1.801842	0.371055	0.370916
Zn7	Zn	1.011094	-0.208186	-0.295774
Zn8	Zn	1.344427	0.125147	0.037559
Zn9	Zn	1.677761	0.458480	0.370892
Zn10	Zn	1.011035	-0.295564	-0.419889
Zn11	Zn	1.344368	0.037770	-0.086555
Zn12	Zn	1.677701	0.371103	0.246778
O13	O	1.073145	-0.251881	-0.357844
O14	O	1.406479	0.081452	-0.024510
O15	O	1.739812	0.414786	0.308823
O16	O	1.239188	-0.219773	-0.403504
O17	O	1.572522	0.113560	-0.070171
O18	O	1.905855	0.446893	0.263162
O19	O	1.118698	-0.284044	-0.191829
O20	O	1.452032	0.049289	0.141504
O21	O	1.785365	0.382622	0.474838
O22	O	1.027635	-0.135018	-0.312288
O23	O	1.360968	0.198315	0.021045
O24	O	1.694301	0.531649	0.354379
O25	O	1.239114	-0.284021	-0.312248
O26	O	1.572447	0.049312	0.021086
O27	O	1.905780	0.382645	0.354419
O28	O	1.118871	-0.135001	-0.403527
O29	O	1.452205	0.198333	-0.070194
O30	O	1.785538	0.531666	0.263140
O31	O	1.027536	-0.219814	-0.191846
O32	O	1.360869	0.113520	0.141487
O33	O	1.694203	0.446853	0.474820
O34	O	0.907162	-0.219767	-0.312218
O35	O	1.240495	0.113566	0.021115
O36	O	1.573828	0.446900	0.354449
O37	O	1.027533	-0.283940	-0.523823
O38	O	1.360867	0.049394	-0.190490
O39	O	1.694200	0.382727	0.142844
O40	O	0.907118	-0.283963	-0.403404
O41	O	1.240451	0.049371	-0.070071
O42	O	1.573785	0.382704	0.263262
O43	O	1.118814	-0.219727	-0.523876
O44	O	1.452147	0.113607	-0.190542
O45	O	1.785480	0.446940	0.142791
O46	O	1.118641	-0.368770	-0.312178
O47	O	1.451974	-0.035437	0.021156
O48	O	1.785307	0.297896	0.354489
O49	O	1.027435	-0.368735	-0.403381
O50	O	1.360768	-0.035402	-0.070048
O51	O	1.694101	0.297931	0.263285
C52	C	0.880193	-0.251863	-0.357806
C53	C	1.213527	0.081471	-0.024473
C54	C	1.546860	0.414804	0.308860
C55	C	0.797647	-0.251867	-0.357808
C56	C	1.130981	0.081466	-0.024475
C57	C	1.464314	0.414799	0.308859
C58	C	0.548824	-0.216922	-0.308338
C59	C	0.882157	0.116412	0.024995
C60	C	1.215491	0.449745	0.358328
C61	C	0.598259	-0.204181	-0.376117
C62	C	0.931592	0.129153	-0.042784
C63	C	1.264925	0.462486	0.290549
C64	C	0.500527	-0.251894	-0.357869
C65	C	0.833860	0.081439	-0.024536
C66	C	1.167194	0.414773	0.308798
C67	C	0.598174	-0.264597	-0.290064
C68	C	0.931507	0.068736	0.043270
C69	C	1.264841	0.402069	0.376603
C70	C	0.646512	-0.251880	-0.357835
C71	C	0.979845	0.081454	-0.024502
C72	C	1.313179	0.414787	0.308831
C73	C	0.548875	-0.239129	-0.425684
C74	C	0.882208	0.094205	-0.092351
C75	C	1.215541	0.427538	0.240983
C76	C	0.548785	-0.299567	-0.339585
C77	C	0.882119	0.033766	-0.006251
C78	C	1.215452	0.367099	0.327082
C79	C	0.598198	-0.286844	-0.407410
C80	C	0.931531	0.046489	-0.074077
C81	C	1.264865	0.379822	0.259256
C82	C	0.416429	-0.251901	-0.357887
C83	C	0.749762	0.081432	-0.024554
C84	C	1.083095	0.414766	0.308779
C85	C	0.730609	-0.251873	-0.357825
C86	C	1.063942	0.081461	-0.024491
C87	C	1.397275	0.414794	0.308842
C88	C	1.073040	-0.387724	-0.357785
C89	C	1.406374	-0.054390	-0.024452
C90	C	1.739707	0.278943	0.308881
C91	C	1.073063	-0.445838	-0.357785
C92	C	1.406397	-0.112504	-0.024452
C93	C	1.739730	0.220829	0.308881
C94	C	1.120676	-0.806153	-0.405438
C95	C	1.454009	-0.472820	-0.072104
C96	C	1.787343	-0.139487	0.261229
C97	C	1.120698	-0.860758	-0.405453
C98	C	1.454031	-0.527424	-0.072119
C99	C	1.787365	-0.194091	0.261214
O100	O	1.161055	-0.888954	-0.445908
O101	O	1.494388	-0.555621	-0.112575
O102	O	1.827722	-0.222287	0.220758
N103	N	1.073248	-0.888120	-0.357915
N104	N	1.406582	-0.554787	-0.024582
N105	N	1.739915	-0.221453	0.308751
C106	C	1.025769	-0.860876	-0.310365
C107	C	1.359102	-0.527542	0.022968
C108	C	1.692435	-0.194209	0.356301
O109	O	0.985411	-0.889164	-0.269933
O110	O	1.318744	-0.555830	0.063400
O111	O	1.652077	-0.222497	0.396734
C112	C	1.025743	-0.806272	-0.310354
C113	C	1.359077	-0.472939	0.022979
C114	C	1.692410	-0.139606	0.356312
C115	C	1.073201	-0.778913	-0.357889
C116	C	1.406535	-0.445579	-0.024556
C117	C	1.739868	-0.112246	0.308777
C118	C	1.168129	-0.778793	-0.452969
C119	C	1.501463	-0.445460	-0.119636
C120	C	1.834796	-0.112127	0.213697
C121	C	1.168108	-0.724193	-0.452953
C122	C	1.501442	-0.390860	-0.119620
C123	C	1.834775	-0.057526	0.213714
C124	C	1.120634	-0.696952	-0.405405
C125	C	1.453967	-0.363619	-0.072072
C126	C	1.787300	-0.030285	0.261262
C127	C	1.073180	-0.724312	-0.357873
C128	C	1.406514	-0.390979	-0.024540
C129	C	1.739847	-0.057645	0.308793
C130	C	0.978260	-0.779029	-0.262809
C131	C	1.311594	-0.445695	0.070525
C132	C	1.644927	-0.112362	0.403858
C133	C	0.978239	-0.724422	-0.262802
C134	C	1.311572	-0.391088	0.070531
C135	C	1.644906	-0.057755	0.403864
C136	C	1.025697	-0.697062	-0.310337
C137	C	1.359030	-0.363729	0.022996
C138	C	1.692364	-0.030395	0.356329
C139	C	1.025685	-0.642471	-0.310309
C140	C	1.359018	-0.309137	0.023024
C141	C	1.692351	0.024196	0.356358
N142	N	1.073134	-0.615108	-0.357846
N143	N	1.406467	-0.281775	-0.024513
N144	N	1.739801	0.051559	0.308821
C145	C	1.120609	-0.642349	-0.405394
C146	C	1.453942	-0.309016	-0.072061
C147	C	1.787275	0.024318	0.261272
C148	C	1.025824	-0.975546	-0.310392
C149	C	1.359157	-0.642213	0.022941
C150	C	1.692491	-0.308880	0.356274
C151	C	1.025852	-1.030149	-0.310399
C152	C	1.359186	-0.696815	0.022934
C153	C	1.692519	-0.363482	0.356268
C154	C	1.120781	-1.030027	-0.405487
C155	C	1.454114	-0.696693	-0.072154
C156	C	1.787447	-0.363360	0.261179
C157	C	1.120756	-0.975423	-0.405477
C158	C	1.454089	-0.642090	-0.072143
C159	C	1.787422	-0.308757	0.261190
C160	C	1.073273	-0.948184	-0.357930
C161	C	1.406607	-0.614850	-0.024596
C162	C	1.739940	-0.281517	0.308737
C163	C	1.120561	-0.527684	-0.405356
C164	C	1.453895	-0.194350	-0.072023
C165	C	1.787228	0.138983	0.261311
C166	C	1.120538	-0.473078	-0.405333
C167	C	1.453871	-0.139745	-0.072000
C168	C	1.787205	0.193588	0.261333
C169	C	1.025607	-0.473205	-0.310248
C170	C	1.358940	-0.139872	0.023085
C171	C	1.692274	0.193462	0.356419
C172	C	1.025633	-0.527806	-0.310267
C173	C	1.358966	-0.194472	0.023066
C174	C	1.692299	0.138861	0.356399
C175	C	1.073112	-0.555044	-0.357828
C176	C	1.406446	-0.221710	-0.024494
C177	C	1.739779	0.111623	0.308839
O178	O	0.985346	-0.614240	-0.269876
O179	O	1.318679	-0.280906	0.063457
O180	O	1.652013	0.052427	0.396791
O181	O	1.160953	-0.614054	-0.445827
O182	O	1.494286	-0.280721	-0.112493
O183	O	1.827620	0.052612	0.220840
C184	C	1.266851	-0.251900	-0.357881
C185	C	1.600184	0.081433	-0.024548
C186	C	1.933518	0.414767	0.308785
C187	C	1.349397	-0.251908	-0.357897
C188	C	1.682730	0.081425	-0.024564
C189	C	2.016063	0.414759	0.308769
C190	C	1.073178	-0.251825	-0.551549
C191	C	1.406512	0.081508	-0.218216
C192	C	1.739845	0.414841	0.115117
C193	C	1.073192	-0.251802	-0.634095
C194	C	1.406525	0.081532	-0.300762
C195	C	1.739859	0.414865	0.032572
C196	C	1.073271	-0.115508	-0.357918
C197	C	1.406604	0.217825	-0.024585
C198	C	1.739938	0.551159	0.308748
C199	C	1.073324	-0.057394	-0.357950
C200	C	1.406658	0.275939	-0.024617
C201	C	1.739991	0.609273	0.308717
C202	C	1.122880	-0.216866	-0.833575
C203	C	1.456214	0.116468	-0.500241
C204	C	1.789547	0.449801	-0.166908
C205	C	1.055148	-0.204066	-0.882967
C206	C	1.388481	0.129267	-0.549633
C207	C	1.721815	0.462600	-0.216300
C208	C	1.073222	-0.251793	-0.785226
C209	C	1.406555	0.081541	-0.451892
C210	C	1.739889	0.414874	-0.118559
C211	C	1.140981	-0.264559	-0.882915
C212	C	1.474315	0.068774	-0.549582
C213	C	1.807648	0.402108	-0.216249
C214	C	1.073257	-0.251783	-0.931211
C215	C	1.406590	0.081550	-0.597877
C216	C	1.739923	0.414884	-0.264544
C217	C	1.005454	-0.238969	-0.833530
C218	C	1.338787	0.094365	-0.500197
C219	C	1.672120	0.427698	-0.166864
C220	C	1.091333	-0.299483	-0.833475
C221	C	1.424666	0.033850	-0.500141
C222	C	1.758000	0.367183	-0.166808
C223	C	1.023554	-0.286702	-0.882844
C224	C	1.356887	0.046631	-0.549511
C225	C	1.690221	0.379965	-0.216178
C226	C	1.073203	-0.251797	-0.701127
C227	C	1.406536	0.081537	-0.367794
C228	C	1.739870	0.414870	-0.034461
C229	C	1.073268	-0.251779	-1.015307
C230	C	1.406601	0.081555	-0.681974
C231	C	1.739935	0.414888	-0.348641
C232	C	1.073155	-0.251899	-0.164891
C233	C	1.406489	0.081434	0.168442
C234	C	1.739822	0.414768	0.501775
C235	C	1.073285	-0.251775	-0.082346
C236	C	1.406619	0.081558	0.250987
C237	C	1.739952	0.414891	0.584321
H238	H	0.527039	-0.339878	-0.324109
H239	H	0.860372	-0.006545	0.009224
H240	H	1.193706	0.326789	0.342557
H241	H	1.159218	-0.549855	-0.444089
H242	H	1.492552	-0.216521	-0.110756
H243	H	1.825885	0.116812	0.222578
C244	C	0.973589	-0.945587	-0.258081
C245	C	1.306923	-0.612254	0.075253
C246	C	1.640256	-0.278921	0.408586
N247	N	0.934244	-0.923025	-0.218681
N248	N	1.267578	-0.589692	0.114652
N249	N	1.600911	-0.256358	0.447986
C250	C	0.519530	-0.176946	-0.251845
C251	C	0.852863	0.156387	0.081488
C252	C	1.186196	0.489721	0.414821
N253	N	0.497463	-0.146835	-0.209299
N254	N	0.830796	0.186498	0.124034
N255	N	1.164130	0.519832	0.457368
H256	H	0.986995	-0.550083	-0.271555
H257	H	1.320328	-0.216750	0.061779
H258	H	1.653661	0.116583	0.395112
C259	C	1.179519	-0.176939	-0.804340
C260	C	1.512852	0.156394	-0.471006
C261	C	1.846185	0.489728	-0.137673
N262	N	1.222174	-0.146865	-0.782318
N263	N	1.555508	0.186468	-0.448985
N264	N	1.888841	0.519802	-0.115651
H265	H	0.986956	-0.451017	-0.271532
H266	H	1.320289	-0.117684	0.061801
H267	H	1.653623	0.215649	0.395134
C268	C	1.220319	-0.694104	-0.505243
C269	C	1.553652	-0.360771	-0.171910
C270	C	1.886985	-0.027438	0.161423
N271	N	1.259647	-0.671445	-0.544631
N272	N	1.592981	-0.338111	-0.211297
N273	N	1.926314	-0.004778	0.122036
H274	H	0.939571	-0.702246	-0.224085
H275	H	1.272904	-0.368912	0.109249
H276	H	1.606238	-0.035579	0.442582
C277	C	1.034472	-0.149577	-0.912343
C278	C	1.367805	0.183757	-0.579010
C279	C	1.701139	0.517090	-0.245677
N280	N	1.018905	-0.108535	-0.934470
N281	N	1.352239	0.224799	-0.601137
N282	N	1.685572	0.558132	-0.267804
H283	H	0.948149	-0.228120	-0.811928
H284	H	1.281482	0.105213	-0.478595
H285	H	1.614815	0.438547	-0.145262
H286	H	1.198270	-0.275360	-0.904611
H287	H	1.531603	0.057974	-0.571277
H288	H	1.864937	0.391307	-0.237944
H289	H	0.981526	-0.316234	-0.904342
H290	H	1.314859	0.017099	-0.571009
H291	H	1.648193	0.350432	-0.237675
C292	C	1.112045	-0.353956	-0.804075
C293	C	1.445379	-0.020623	-0.470742
C294	C	1.778712	0.312710	-0.137409
N295	N	1.127655	-0.394985	-0.781928
N296	N	1.460988	-0.061652	-0.448595
N297	N	1.794322	0.271682	-0.115261
H298	H	0.987215	-1.052420	-0.271683
H299	H	1.320549	-0.719087	0.061650
H300	H	1.653882	-0.385754	0.394984
C301	C	0.926047	-0.809112	-0.210520
C302	C	1.259380	-0.475779	0.122813
C303	C	1.592714	-0.142446	0.456146
N304	N	0.886714	-0.831771	-0.171136
N305	N	1.220048	-0.498437	0.162198
N306	N	1.553381	-0.165104	0.495531
H307	H	0.619976	-0.163857	-0.391582
H308	H	0.953309	0.169477	-0.058249
H309	H	1.286643	0.502810	0.275085
H310	H	0.619739	-0.316414	-0.449331
H311	H	0.953073	0.016920	-0.115998
H312	H	1.286406	0.350253	0.217336
C313	C	0.519743	-0.224538	-0.503153
C314	C	0.853076	0.108795	-0.169820
C315	C	1.186409	0.442128	0.163513
N316	N	0.497799	-0.213547	-0.561501
N317	N	0.831132	0.119787	-0.228167
N318	N	1.164466	0.453120	0.105166
C319	C	1.172750	-0.442986	-0.457626
C320	C	1.506083	-0.109653	-0.124292
C321	C	1.839416	0.223681	0.209041
N322	N	1.212074	-0.420322	-0.497011
N323	N	1.545408	-0.086989	-0.163678
N324	N	1.878741	0.246345	0.169655
C325	C	0.627428	-0.279123	-0.212616
C326	C	0.960762	0.054211	0.120717
C327	C	1.294095	0.387544	0.454051
N328	N	0.649460	-0.290060	-0.154281
N329	N	0.982793	0.043274	0.179053
N330	N	1.316126	0.376607	0.512386
H331	H	1.206789	-0.800967	-0.491693
H332	H	1.540122	-0.467634	-0.158360
H333	H	1.873455	-0.134300	0.174974
H334	H	1.159399	-0.953150	-0.444184
H335	H	1.492733	-0.619817	-0.110851
H336	H	1.826066	-0.286484	0.222483
H337	H	1.159436	-1.052216	-0.444205
H338	H	1.492769	-0.718883	-0.110872
H339	H	1.826103	-0.385549	0.222462
