data_functionalizedCrystal
_audit_creation_method	'MofGen! by Chris Wilmer'
_symmetry_space_group_name_H-M	'P1'
_symmetry_Int_Tables_number	1
_symmetry_cell_setting	triclinic
loop_
_symmetry_equiv_pos_as_xyz
  x,y,z
_cell_length_a	15.297475
_cell_length_b	12.594516
_cell_length_c	15.296720
_cell_angle_alpha	80.350397
_cell_angle_beta	88.382886
_cell_angle_gamma	80.315126
loop_
_atom_site_label
_atom_site_type_symbol
_atom_site_fract_x
_atom_site_fract_y
_atom_site_fract_z
Zn1	Zn	1.253520	-0.828411	0.726651
Zn2	Zn	1.278805	-0.981681	0.580176
Zn3	Zn	1.132389	-0.768614	0.554888
Zn4	Zn	1.107029	-0.971218	0.701304
O5	O	1.192936	-0.887481	0.640755
O6	O	1.379456	-0.878146	0.728412
O7	O	1.280577	-0.932770	0.454246
O8	O	1.148489	-0.627612	0.577697
O9	O	1.398033	-0.990753	0.620797
O10	O	1.237483	-0.671544	0.703891
O11	O	1.173006	-0.776231	0.435666
O12	O	1.006443	-0.766086	0.553119
O13	O	1.105267	-0.972920	0.827242
O14	O	0.987811	-0.914938	0.660691
O15	O	1.212893	-0.868001	0.845864
O16	O	1.255987	-1.129227	0.596219
O17	O	1.129784	-1.121540	0.685212
C18	C	0.965343	-0.832888	0.601411
C19	C	0.867974	-0.809563	0.584600
C20	C	0.554863	-1.054200	0.760906
C21	C	0.646346	-1.076123	0.776698
C22	C	0.701757	-1.009485	0.728675
C23	C	0.665677	-0.920920	0.664857
C24	C	0.574185	-0.899000	0.649058
C25	C	0.721080	-0.854285	0.616828
C26	C	0.684999	-0.765720	0.553010
C27	C	0.593516	-0.743803	0.537214
C28	C	0.538105	-0.810441	0.585237
C29	C	0.812571	-0.876205	0.632626
C30	C	0.831894	-0.721004	0.520779
C31	C	0.740410	-0.699081	0.504987
C32	C	1.192898	-1.164009	0.640732
C33	C	1.192957	-1.282334	0.640766
C34	C	1.261655	-1.355756	0.592437
C35	C	1.269218	-1.445079	0.676082
C36	C	1.185495	-1.403844	0.557192
C37	C	1.200553	-1.370115	0.724459
C38	C	1.116802	-1.328856	0.605509
C39	C	1.124325	-1.418150	0.689203
C40	C	1.421417	-0.942287	0.680253
C41	C	1.518783	-0.965642	0.697084
C42	C	1.153430	-0.925964	0.869224
C43	C	1.136596	-0.942363	0.966585
C44	C	1.192994	-0.609881	0.640800
C45	C	1.193019	-0.491585	0.640820
C46	C	1.232338	-0.849083	0.413182
C47	C	1.249342	-0.832424	0.315852
C48	C	1.313289	-0.770095	1.279811
C49	C	1.329112	-0.754690	1.188337
C50	C	1.280984	-0.801606	1.132895
C51	C	1.217031	-0.863931	1.168935
C52	C	1.201212	-0.879344	1.260418
C53	C	1.168907	-0.910856	1.113502
C54	C	1.104954	-0.973181	1.149542
C55	C	1.089137	-0.988590	1.241017
C56	C	1.137265	-0.941674	1.296459
C57	C	1.184726	-0.895443	1.022018
C58	C	1.072649	-1.004692	1.002626
C59	C	1.056826	-1.020097	1.094100
H60	H	0.877010	-0.666743	0.481673
H61	H	1.381184	-0.703948	1.159000
C62	C	1.136907	-1.070343	1.431349
C63	C	1.119874	-0.958609	1.397013
H64	H	1.126166	-1.080794	1.493426
H65	H	1.197005	-1.098810	1.420427
H66	H	1.099088	-1.107201	1.403488
H67	H	1.157697	-0.921752	1.424869
H68	H	1.059766	-0.930129	1.407943
H69	H	1.004755	-1.070842	1.123457
C70	C	1.099760	-1.468616	0.454379
C71	C	1.176931	-1.424684	0.461751
H72	H	1.094483	-1.481487	0.395459
H73	H	1.049640	-1.418655	0.468260
H74	H	1.102830	-1.535513	0.494412
H75	H	1.173858	-1.357783	0.421723
H76	H	1.227064	-1.474648	0.447860
C77	C	0.957902	-1.293617	0.614940
C78	C	1.029859	-1.260912	0.565190
H79	H	0.904229	-1.251672	0.590037
H80	H	0.963143	-1.282559	0.674356
H81	H	0.957528	-1.368799	0.614156
H82	H	1.030237	-1.185731	0.565980
H83	H	1.024616	-1.271961	0.505759
H84	H	1.236796	-0.844697	0.992684
C85	C	0.944227	-0.978722	0.706504
C86	C	0.852226	-0.973546	0.702776
H87	H	0.968705	-1.038824	0.749812
H88	H	0.956989	-0.913011	0.722017
H89	H	0.969382	-0.987860	0.650213
H90	H	0.827070	-0.964400	0.759066
H91	H	0.839457	-1.039274	0.687268
C92	C	1.286009	-1.304732	0.827123
C93	C	1.209220	-1.349500	0.819950
H94	H	1.291364	-1.292011	0.886075
H95	H	1.282384	-1.237672	0.787229
H96	H	1.336359	-1.354163	0.812942
H97	H	1.158869	-1.300064	0.834124
H98	H	1.212838	-1.416569	0.859856
H99	H	0.509741	-1.108453	0.799993
H100	H	1.293871	-0.789060	1.058413
C101	C	1.338799	-0.745230	1.428656
C102	C	1.366189	-0.718535	1.340753
H103	H	1.371458	-0.713392	1.466278
H104	H	1.349009	-0.822332	1.445839
H105	H	1.277353	-0.718053	1.433467
H106	H	1.427633	-0.745720	1.335941
H107	H	1.355985	-0.641417	1.323566
H108	H	0.711020	-0.626971	0.453025
H109	H	0.675717	-1.148235	0.828656
H110	H	1.037069	-1.039350	1.270359
C111	C	1.078232	-1.127593	0.897616
C112	C	1.019741	-1.056266	0.941689
H113	H	1.045572	-1.159425	0.859990
H114	H	1.110208	-1.183469	0.939892
H115	H	1.118575	-1.088251	0.863065
H116	H	0.979402	-1.095609	0.976246
H117	H	0.987750	-1.000382	0.899408
C118	C	0.621806	-0.592589	0.428249
C119	C	0.553855	-0.646456	0.467062
H120	H	0.597319	-0.532488	0.384945
H121	H	0.663282	-0.641789	0.400837
H122	H	0.650891	-0.566944	0.472645
H123	H	0.524775	-0.672108	0.422668
H124	H	0.512364	-0.597247	0.494475
C125	C	1.419780	-1.378155	0.574486
C126	C	1.340078	-1.318607	0.537327
H127	H	1.468193	-1.355214	0.540469
H128	H	1.420643	-1.453753	0.574556
H129	H	1.424562	-1.365865	0.633634
H130	H	1.335293	-1.330904	0.478181
H131	H	1.339214	-1.242991	0.537248
C132	C	1.337106	-1.585504	0.791569
C133	C	1.356189	-1.512972	0.716394
H134	H	1.390803	-1.627401	0.816459
H135	H	1.300503	-1.632861	0.775215
H136	H	1.307083	-1.545434	0.834024
H137	H	1.386206	-1.553042	0.673937
H138	H	1.392808	-1.465609	0.732747
C139	C	0.403160	-0.681641	0.585093
C140	C	0.437540	-0.786363	0.567884
H141	H	0.341074	-0.666789	0.574387
H142	H	0.430978	-0.629283	0.547350
H143	H	0.414102	-0.677837	0.645220
H144	H	0.426605	-0.790165	0.507755
H145	H	0.409714	-0.838735	0.605627
H146	H	1.066245	-1.445490	0.730153
H147	H	0.776247	-1.027340	0.741537
