data_functionalizedCrystal
_audit_creation_method	'MofGen! by Chris Wilmer'
_symmetry_space_group_name_H-M	'P1'
_symmetry_Int_Tables_number	1
_symmetry_cell_setting	triclinic
loop_
_symmetry_equiv_pos_as_xyz
  x,y,z
_cell_length_a	25.639243
_cell_length_b	25.639240
_cell_length_c	12.759401
_cell_angle_alpha	90.022218
_cell_angle_beta	90.008873
_cell_angle_gamma	90.035481
loop_
_atom_site_label
_atom_site_type_symbol
_atom_site_fract_x
_atom_site_fract_y
_atom_site_fract_z
Zn1	Zn	0.799210	-0.208196	0.594050
Zn2	Zn	1.299210	0.291804	1.094050
Zn3	Zn	0.799153	-0.295609	0.418331
Zn4	Zn	1.299153	0.204391	0.918331
Zn5	Zn	0.711797	-0.208193	0.418371
Zn6	Zn	1.211797	0.291807	0.918371
Zn7	Zn	0.711740	-0.295606	0.593955
Zn8	Zn	1.211740	0.204394	1.093955
O9	O	0.755475	-0.251901	0.506177
O10	O	1.255475	0.248099	1.006177
O11	O	0.872368	-0.219793	0.570763
O12	O	1.372368	0.280207	1.070763
O13	O	0.787565	-0.284013	0.271315
O14	O	1.287565	0.215987	0.771315
O15	O	0.723440	-0.135028	0.441732
O16	O	1.223440	0.364972	0.941732
O17	O	0.872326	-0.284015	0.441663
O18	O	1.372326	0.215985	0.941663
O19	O	0.787662	-0.135030	0.570802
O20	O	1.287662	0.364970	1.070802
O21	O	0.723385	-0.219789	0.271345
O22	O	1.223385	0.280211	0.771345
O23	O	0.638624	-0.219787	0.441640
O24	O	1.138624	0.280213	0.941640
O25	O	0.723344	-0.284011	0.740988
O26	O	1.223344	0.215989	1.240988
O27	O	0.638583	-0.284008	0.570640
O28	O	1.138583	0.215992	1.070640
O29	O	0.787607	-0.219791	0.741058
O30	O	1.287607	0.280209	1.241058
O31	O	0.787510	-0.368774	0.441571
O32	O	1.287510	0.131226	0.941571
O33	O	0.723289	-0.368772	0.570601
O34	O	1.223289	0.131228	1.070601
C35	C	0.755401	-0.387743	0.506094
C36	C	1.255401	0.112257	1.006094
C37	C	0.755418	-0.445857	0.506094
C38	C	1.255418	0.054143	1.006094
C39	C	0.619633	-0.251897	0.506135
C40	C	1.119633	0.248103	1.006135
C41	C	0.561519	-0.251908	0.506142
C42	C	1.061519	0.248092	1.006142
C43	C	0.788932	-0.806183	0.573505
C44	C	1.288932	-0.306183	1.073505
C45	C	0.788948	-0.860787	0.573526
C46	C	1.288948	-0.360787	1.073526
O47	O	0.817355	-0.888992	0.630756
O48	O	1.317355	-0.388992	1.130756
N49	N	0.755548	-0.888140	0.506278
N50	N	1.255548	-0.388140	1.006278
C51	C	0.722127	-0.860885	0.439012
C52	C	1.222127	-0.360885	0.939012
O53	O	0.693719	-0.889165	0.381815
O54	O	1.193719	-0.389165	0.881815
C55	C	0.722109	-0.806282	0.438997
C56	C	1.222109	-0.306282	0.938997
C57	C	0.755515	-0.778932	0.506242
C58	C	1.255515	-0.278932	1.006242
C59	C	0.822335	-0.778833	0.640745
C60	C	1.322335	-0.278833	1.140745
C61	C	0.822320	-0.724233	0.640722
C62	C	1.322320	-0.224233	1.140722
C63	C	0.788902	-0.696982	0.573459
C64	C	1.288902	-0.196982	1.073459
C65	C	0.755500	-0.724332	0.506219
C66	C	1.255500	-0.224332	1.006219
C67	C	0.688686	-0.779029	0.371737
C68	C	1.188686	-0.279029	0.871737
C69	C	0.688671	-0.724422	0.371728
C70	C	1.188671	-0.224422	0.871728
C71	C	0.722076	-0.697072	0.438973
C72	C	1.222076	-0.197072	0.938973
C73	C	0.722068	-0.642481	0.438933
C74	C	1.222068	-0.142481	0.938933
N75	N	0.755467	-0.615128	0.506180
N76	N	1.255467	-0.115128	1.006180
C77	C	0.788885	-0.642379	0.573443
C78	C	1.288885	-0.142379	1.073443
C79	C	0.722166	-0.975556	0.439051
C80	C	1.222166	-0.475556	0.939051
C81	C	0.722186	-1.030158	0.439060
C82	C	1.222186	-0.530158	0.939060
C83	C	0.789006	-1.030056	0.573575
C84	C	1.289006	-0.530056	1.073575
C85	C	0.788988	-0.975453	0.573560
C86	C	1.288988	-0.475453	1.073560
C87	C	0.755565	-0.948203	0.506299
C88	C	1.255565	-0.448203	1.006299
C89	C	0.788851	-0.527713	0.573389
C90	C	1.288851	-0.027713	1.073389
C91	C	0.788835	-0.473108	0.573357
C92	C	1.288835	0.026892	1.073357
C93	C	0.722013	-0.473215	0.438846
C94	C	1.222013	0.026785	0.938846
C95	C	0.722031	-0.527815	0.438874
C96	C	1.222031	-0.027815	0.938874
C97	C	0.755452	-0.555063	0.506154
C98	C	1.255452	-0.055063	1.006154
O99	O	0.693673	-0.614241	0.381735
O100	O	1.193673	-0.114241	0.881735
O101	O	0.817283	-0.614092	0.630640
O102	O	1.317283	-0.114092	1.130640
C103	C	0.201172	-0.218513	0.573511
C104	C	0.701172	0.281487	1.073511
C105	C	0.146567	-0.218513	0.573517
C106	C	0.646567	0.281487	1.073517
O107	O	0.118344	-0.190109	0.630745
O108	O	0.618344	0.309891	1.130745
N109	N	0.119236	-0.251899	0.506206
N110	N	0.619236	0.248101	1.006206
C111	C	0.146512	-0.285285	0.438875
C112	C	0.646512	0.214715	0.938875
O113	O	0.118251	-0.313683	0.381621
O114	O	0.618251	0.186317	0.881621
C115	C	0.201115	-0.285282	0.438864
C116	C	0.701115	0.214718	0.938864
C117	C	0.228444	-0.251897	0.506188
C118	C	0.728444	0.248103	1.006188
C119	C	0.228500	-0.185130	0.640828
C120	C	0.728500	0.314870	1.140828
C121	C	0.283101	-0.185131	0.640823
C122	C	0.783101	0.314869	1.140823
C123	C	0.310373	-0.218516	0.573500
C124	C	0.810373	0.281484	1.073500
C125	C	0.283044	-0.251898	0.506183
C126	C	0.783044	0.248102	1.006183
C127	C	0.228390	-0.318665	0.371529
C128	C	0.728390	0.181335	0.871529
C129	C	0.282997	-0.318659	0.371524
C130	C	0.782997	0.181341	0.871524
C131	C	0.310326	-0.285274	0.438847
C132	C	0.810326	0.214726	0.938847
C133	C	0.364917	-0.285284	0.438854
C134	C	0.864917	0.214716	0.938854
N135	N	0.392248	-0.251897	0.506166
N136	N	0.892248	0.248103	1.006166
C137	C	0.364976	-0.218513	0.573489
C138	C	0.864976	0.281487	1.073489
C139	C	0.031842	-0.285287	0.438902
C140	C	0.531842	0.214713	0.938902
C141	C	-0.022761	-0.285293	0.438918
C142	C	0.477239	0.214707	0.938918
C143	C	-0.022702	-0.218520	0.573559
C144	C	0.477298	0.281480	1.073559
C145	C	0.031901	-0.218517	0.573548
C146	C	0.531901	0.281483	1.073548
C147	C	0.059173	-0.251900	0.506214
C148	C	0.559173	0.248100	1.006214
C149	C	0.479641	-0.218518	0.573473
C150	C	0.979641	0.281482	1.073473
C151	C	0.534247	-0.218524	0.573465
C152	C	1.034247	0.281476	1.073465
C153	C	0.534183	-0.285295	0.438820
C154	C	1.034183	0.214705	0.938820
C155	C	0.479582	-0.285292	0.438832
C156	C	0.979582	0.214708	0.938832
C157	C	0.452313	-0.251899	0.506162
C158	C	0.952313	0.248101	1.006162
O159	O	0.393175	-0.313672	0.381653
O160	O	0.893175	0.186328	0.881653
O161	O	0.393244	-0.190115	0.630724
O162	O	0.893244	0.309885	1.130724
C163	C	0.891848	-0.251905	0.506219
C164	C	1.391848	0.248095	1.006219
C165	C	0.949962	-0.251906	0.506237
C166	C	1.449962	0.248094	1.006237
C167	C	0.755475	-0.251901	0.780210
C168	C	1.255475	0.248099	1.280210
C169	C	0.755475	-0.251900	0.896987
C170	C	1.255475	0.248100	1.396987
C171	C	0.755564	-0.115528	0.506282
C172	C	1.255564	0.384472	1.006282
C173	C	0.755601	-0.057414	0.506327
C174	C	1.255601	0.442586	1.006327
C175	C	0.788935	-0.218468	0.951887
C176	C	1.288935	0.281532	1.451887
C177	C	0.788932	-0.218470	1.061611
C178	C	1.288932	0.281530	1.561611
C179	C	0.722010	-0.285341	1.061525
C180	C	1.222010	0.214659	1.561525
C181	C	0.722010	-0.285336	0.951803
C182	C	1.222010	0.214664	1.451803
C183	C	0.822400	-0.185033	0.897070
C184	C	1.322400	0.314967	1.397070
C185	C	0.855862	-0.151598	0.951970
C186	C	1.355862	0.348402	1.451970
C187	C	0.855860	-0.151600	1.061694
C188	C	1.355860	0.348400	1.561694
C189	C	0.822395	-0.185037	1.116518
C190	C	1.322395	0.314963	1.616518
C191	C	0.755472	-0.251912	1.233209
C192	C	1.255472	0.248088	1.733209
C193	C	0.755473	-0.251908	1.116433
C194	C	1.255473	0.248092	1.616433
H195	H	0.816040	-0.450842	0.628116
H196	H	1.316040	0.049158	1.128116
H197	H	0.883105	-0.124372	0.907325
H198	H	1.383105	0.375628	1.407325
H199	H	0.883103	-0.124373	1.106391
H200	H	1.383103	0.375627	1.606391
H201	H	0.822406	-0.185028	0.807727
H202	H	1.322406	0.314972	1.307727
H203	H	0.206149	-0.345850	0.316706
H204	H	0.706149	0.154150	0.816706
H205	H	0.305199	-0.345844	0.316689
H206	H	0.805199	0.154156	0.816689
H207	H	0.822390	-0.185030	1.205863
H208	H	1.322390	0.314970	1.705863
H209	H	0.206301	-0.157942	0.695651
H210	H	0.706301	0.342058	1.195651
H211	H	0.694806	-0.451019	0.384078
H212	H	1.194806	0.048981	0.884078
H213	H	0.556398	-0.312477	0.384010
H214	H	1.056398	0.187523	0.884010
H215	H	0.694765	-0.312563	1.106171
H216	H	1.194765	0.187437	1.606171
H217	H	0.694756	-0.312551	0.907102
H218	H	1.194756	0.187449	1.407102
H219	H	0.457330	-0.312483	0.384024
H220	H	0.957330	0.187517	0.884024
H221	H	0.054149	-0.191331	0.628367
H222	H	0.554149	0.308669	1.128367
H223	H	-0.044917	-0.191335	0.628374
H224	H	0.455083	0.308665	1.128374
H225	H	0.694950	-0.953372	0.384270
H226	H	1.194950	-0.453372	0.884270
H227	H	0.816062	-0.549892	0.628182
H228	H	1.316062	-0.049892	1.128182
H229	H	0.849520	-0.701967	0.695481
H230	H	1.349520	-0.201967	1.195481
H231	H	0.849547	-0.801015	0.695524
H232	H	1.349547	-0.301015	1.195524
H233	H	0.816215	-1.052254	0.628346
H234	H	1.316215	-0.552254	1.128346
H235	H	0.816190	-0.953188	0.628317
H236	H	1.316190	-0.453188	1.128317
H237	H	0.694989	-1.052422	0.384291
H238	H	1.194989	-0.552422	0.884291
H239	H	0.661483	-0.801288	0.316979
H240	H	1.161483	-0.301288	0.816979
H241	H	0.661452	-0.702238	0.316957
H242	H	1.161452	-0.202238	0.816957
H243	H	0.054042	-0.312477	0.384074
H244	H	0.554042	0.187523	0.884074
H245	H	-0.045007	-0.312484	0.384108
H246	H	0.454993	0.187516	0.884108
H247	H	0.694833	-0.550085	0.384110
H248	H	1.194833	-0.050085	0.884110
H249	H	0.556495	-0.191337	0.628292
H250	H	1.056495	0.308663	1.128292
H251	H	0.305347	-0.157945	0.695643
H252	H	0.805347	0.342055	1.195643
H253	H	0.457445	-0.191325	0.628297
H254	H	0.957445	0.308675	1.128297
