data_functionalizedCrystal
_audit_creation_method	'MofGen! by Chris Wilmer'
_symmetry_space_group_name_H-M	'P1'
_symmetry_Int_Tables_number	1
_symmetry_cell_setting	triclinic
loop_
_symmetry_equiv_pos_as_xyz
  x,y,z
_cell_length_a	10.654556
_cell_length_b	14.421503
_cell_length_c	10.654550
_cell_angle_alpha	89.991812
_cell_angle_beta	84.486156
_cell_angle_gamma	90.005173
loop_
_atom_site_label
_atom_site_type_symbol
_atom_site_fract_x
_atom_site_fract_y
_atom_site_fract_z
O1	O	1.667817	-0.077118	0.176446
O2	O	1.302340	-0.077118	0.193244
O3	O	1.493482	-0.077115	0.002106
O4	O	1.476676	-0.077122	0.367584
O5	O	1.493504	0.077109	0.002079
O6	O	1.302362	0.077105	0.193217
O7	O	1.667839	0.077105	0.176419
Cu8	Cu	1.485103	0.091187	0.184816
Cu9	Cu	1.485077	-0.091200	0.184847
O10	O	1.476698	0.077102	0.367557
C11	C	1.255553	-0.000006	0.191995
C12	C	1.116110	-0.000006	0.188300
C13	C	0.919568	-0.084081	0.183115
C14	C	1.050590	-0.084077	0.186580
C15	C	1.050603	0.084066	0.186543
C16	C	0.919584	0.084061	0.183070
C17	C	0.919561	-0.181157	0.183141
C18	C	1.050584	-0.181153	0.186606
N19	N	1.485059	-0.219481	0.184860
C20	C	1.396505	-0.469131	0.273062
C21	C	1.371432	-0.530933	0.159275
C22	C	1.485083	-0.408643	0.184835
C23	C	1.510119	-0.530934	0.298597
C24	C	1.485103	-0.591364	0.184820
C25	C	1.459954	-0.469085	0.070989
C26	C	1.598690	-0.469080	0.210387
C27	C	1.573665	-0.530855	0.096518
C28	C	1.485068	-0.303382	0.184845
C29	C	1.485118	-0.696623	0.184797
C30	C	1.714626	-0.000009	0.177667
C31	C	1.854069	-0.000015	0.181362
C32	C	1.492259	-0.000004	-0.044706
C33	C	1.488567	-0.000007	-0.184149
N34	N	1.485130	0.219468	0.184793
C35	C	1.601108	-0.000005	-0.263632
C36	C	1.597631	-0.000011	-0.394653
C37	C	1.369063	-0.000019	-0.366695
C38	C	1.372540	-0.000019	-0.235676
C39	C	1.733071	0.000004	-0.279775
C40	C	1.729594	-0.000003	-0.410796
C41	C	1.477921	-0.000011	0.414368
C42	C	1.481612	-0.000014	0.553812
H43	H	1.103961	0.152518	0.187934
Cl44	Cl	1.231054	-0.000046	-0.135758
Cl45	Cl	1.088927	-0.238690	0.323526
Cl46	Cl	1.806367	0.099641	-0.475295
H47	H	1.321539	-0.442028	0.347592
Cl48	Cl	1.223117	-0.572886	0.125883
H49	H	0.867852	-0.211280	0.272590
H50	H	1.694725	-0.441888	0.232052
H51	H	0.894732	-0.218432	0.094474
Cl52	Cl	1.223209	-0.000036	-0.431482
H53	H	1.102286	-0.211274	0.097164
Cl54	Cl	1.812743	-0.099635	-0.234419
H55	H	1.769465	-0.066592	-0.456427
H56	H	0.866263	0.152515	0.181617
H57	H	1.438673	-0.442031	-0.025247
Cl58	Cl	1.542805	-0.572879	0.447141
Cl59	Cl	1.797942	0.102819	-0.224773
H60	H	1.648586	-0.557786	0.021818
