data_functionalizedCrystal
_audit_creation_method	'MofGen! by Chris Wilmer'
_symmetry_space_group_name_H-M	'P1'
_symmetry_Int_Tables_number	1
_symmetry_cell_setting	triclinic
loop_
_symmetry_equiv_pos_as_xyz
  x,y,z
_cell_length_a	17.077404
_cell_length_b	15.298852
_cell_length_c	17.077396
_cell_angle_alpha	99.698732
_cell_angle_beta	90.018362
_cell_angle_gamma	80.331075
loop_
_atom_site_label
_atom_site_type_symbol
_atom_site_fract_x
_atom_site_fract_y
_atom_site_fract_z
Zn1	Zn	1.254196	-0.359194	0.389781
Zn2	Zn	1.587530	-0.025861	0.723115
Zn3	Zn	1.920863	0.307473	1.056448
Zn4	Zn	1.276844	-0.510059	0.235819
Zn5	Zn	1.610177	-0.176726	0.569152
Zn6	Zn	1.943510	0.156607	0.902485
Zn7	Zn	1.122932	-0.359220	0.258528
Zn8	Zn	1.456265	-0.025886	0.591861
Zn9	Zn	1.789599	0.307447	0.925195
Zn10	Zn	1.145627	-0.510000	0.367054
Zn11	Zn	1.478961	-0.176667	0.700387
Zn12	Zn	1.812294	0.156667	1.033721
O13	O	1.199900	-0.434618	0.312795
O14	O	1.533233	-0.101285	0.646129
O15	O	1.866567	0.232048	0.979462
O16	O	1.367050	-0.379221	0.369365
O17	O	1.700383	-0.045887	0.702699
O18	O	2.033716	0.287446	1.036032
O19	O	1.256407	-0.490086	0.128979
O20	O	1.589740	-0.156752	0.462312
O21	O	1.923074	0.176581	0.795645
O22	O	1.121369	-0.232976	0.294954
O23	O	1.454702	0.100357	0.628288
O24	O	1.788035	0.433690	0.961621
O25	O	1.383688	-0.490061	0.256250
O26	O	1.717022	-0.156728	0.589583
O27	O	2.050355	0.176606	0.922916
O28	O	1.217808	-0.232957	0.391385
O29	O	1.551141	0.100376	0.724719
O30	O	1.884475	0.433709	1.058052
O31	O	1.143329	-0.379264	0.145663
O32	O	1.476662	-0.045931	0.478996
O33	O	1.809995	0.287402	0.812330
O34	O	1.016094	-0.379207	0.272916
O35	O	1.349427	-0.045873	0.606250
O36	O	1.682760	0.287460	0.939583
O37	O	1.160049	-0.489960	0.479921
O38	O	1.493383	-0.156626	0.813254
O39	O	1.826716	0.176707	1.146588
O40	O	1.032768	-0.489984	0.352650
O41	O	1.366101	-0.156651	0.685983
O42	O	1.699434	0.176682	1.019317
O43	O	1.239815	-0.379163	0.496619
O44	O	1.573148	-0.045830	0.829952
O45	O	1.906481	0.287504	1.163285
O46	O	1.278414	-0.636291	0.234212
O47	O	1.611747	-0.302958	0.567545
O48	O	1.945080	0.030375	0.900879
O49	O	1.182010	-0.636248	0.330630
O50	O	1.515343	-0.302914	0.663963
O51	O	1.848676	0.030419	0.997297
C52	C	0.995948	-0.434593	0.312782
C53	C	1.329281	-0.101259	0.646115
C54	C	1.662615	0.232074	0.979448
C55	C	0.908700	-0.434603	0.312791
C56	C	1.242033	-0.101270	0.646124
C57	C	1.575367	0.232063	0.979458
C58	C	0.859062	-0.376991	0.371752
C59	C	1.192396	-0.043658	0.705085
C60	C	1.525729	0.289675	1.038418
C61	C	0.777083	-0.376997	0.371754
C62	C	1.110416	-0.043664	0.705088
C63	C	1.443749	0.289669	1.038421
C64	C	0.744743	-0.434620	0.312799
C65	C	1.078076	-0.101287	0.646133
C66	C	1.411410	0.232046	0.979466
C67	C	0.794387	-0.492235	0.253833
C68	C	1.127720	-0.158901	0.587166
C69	C	1.461054	0.174432	0.920499
C70	C	0.876364	-0.492224	0.253827
C71	C	1.209698	-0.158890	0.587161
C72	C	1.543031	0.174443	0.920494
C73	C	0.623520	-0.492255	0.253849
C74	C	0.956853	-0.158922	0.587183
C75	C	1.290187	0.174411	0.920516
C76	C	0.541537	-0.492268	0.253855
C77	C	0.874871	-0.158934	0.587188
C78	C	1.208204	0.174399	0.920522
C79	C	0.524238	-0.377029	0.371776
C80	C	0.857572	-0.043695	0.705109
C81	C	1.190905	0.289638	1.038443
C82	C	0.606216	-0.377018	0.371771
C83	C	0.939549	-0.043684	0.705104
C84	C	1.272882	0.289649	1.038437
C85	C	0.655854	-0.434634	0.312805
C86	C	0.989187	-0.101300	0.646138
C87	C	1.322521	0.232033	0.979472
C88	C	1.235153	-0.669002	0.277508
C89	C	1.568486	-0.335669	0.610841
C90	C	1.901820	-0.002335	0.944174
C91	C	1.250306	-0.769272	0.262438
C92	C	1.583640	-0.435939	0.595771
C93	C	1.916973	-0.102606	0.929104
C94	C	1.092111	-1.051953	0.420578
C95	C	1.425444	-0.718619	0.753912
C96	C	1.758777	-0.385286	1.087245
C97	C	1.077875	-0.957744	0.434743
C98	C	1.411209	-0.624410	0.768076
C99	C	1.744542	-0.291077	1.101410
C100	C	1.120981	-0.910621	0.391668
C101	C	1.454315	-0.577288	0.725001
C102	C	1.787648	-0.243955	1.058334
C103	C	1.178326	-0.957717	0.334426
C104	C	1.511659	-0.624384	0.667759
C105	C	1.844993	-0.291050	1.001092
C106	C	1.192567	-1.051935	0.320264
C107	C	1.525901	-0.718602	0.653598
C108	C	1.859234	-0.385269	0.986931
C109	C	1.221438	-0.910604	0.291354
C110	C	1.554772	-0.577271	0.624687
C111	C	1.888105	-0.243937	0.958020
C112	C	1.278783	-0.957700	0.234112
C113	C	1.612116	-0.624366	0.567445
C114	C	1.945450	-0.291033	0.900778
C115	C	1.293021	-1.051909	0.219952
C116	C	1.626354	-0.718575	0.553286
C117	C	1.959688	-0.385242	0.886619
C118	C	1.249915	-1.099031	0.263027
C119	C	1.583248	-0.765698	0.596361
C120	C	1.916581	-0.432365	0.929694
C121	C	1.207197	-0.816386	0.305515
C122	C	1.540530	-0.483052	0.638848
C123	C	1.873864	-0.149719	0.972182
C124	C	1.307654	-0.816368	0.205201
C125	C	1.640987	-0.483035	0.538534
C126	C	1.974320	-0.149702	0.871868
C127	C	1.321889	-0.910577	0.191036
C128	C	1.655222	-0.577244	0.524370
C129	C	1.988556	-0.243911	0.857703
C130	C	1.404648	-0.434645	0.312810
C131	C	1.737981	-0.101311	0.646143
C132	C	2.071315	0.232022	0.979476
C133	C	1.491900	-0.434656	0.312816
C134	C	1.825233	-0.101322	0.646149
C135	C	2.158566	0.232011	0.979482
C136	C	1.199937	-0.434552	0.517550
C137	C	1.533271	-0.101218	0.850883
C138	C	1.866604	0.232115	1.184216
C139	C	1.199953	-0.434523	0.604804
C140	C	1.533287	-0.101190	0.938137
C141	C	1.866620	0.232143	1.271471
C142	C	1.164530	-0.199319	0.348238
C143	C	1.497864	0.134014	0.681571
C144	C	1.831197	0.467348	1.014905
C145	C	1.149458	-0.099049	0.363342
C146	C	1.482791	0.234285	0.696675
C147	C	1.816125	0.567618	1.030008
C148	C	1.199898	-0.434619	0.108847
C149	C	1.533231	-0.101286	0.442181
C150	C	1.866565	0.232047	0.775514
C151	C	1.199996	-0.434393	0.021632
C152	C	1.533329	-0.101060	0.354965
C153	C	1.866662	0.232273	0.688299
C154	C	1.241488	-0.376827	0.654491
C155	C	1.574821	-0.043494	0.987824
C156	C	1.908155	0.289840	1.321157
C157	C	1.241493	-0.376797	0.736476
C158	C	1.574826	-0.043463	1.069809
C159	C	1.908160	0.289870	1.403142
C160	C	1.199967	-0.434469	0.768772
C161	C	1.533301	-0.101135	1.102105
C162	C	1.866634	0.232198	1.435438
C163	C	1.158427	-0.492168	0.719079
C164	C	1.491761	-0.158834	1.052412
C165	C	1.825094	0.174499	1.385746
C166	C	1.158418	-0.492192	0.637096
C167	C	1.491752	-0.158859	0.970430
C168	C	1.825085	0.174474	1.303763
C169	C	1.158451	-0.492113	0.889957
C170	C	1.491784	-0.158780	1.223291
C171	C	1.825117	0.174553	1.556624
C172	C	1.158461	-0.492090	0.971945
C173	C	1.491794	-0.158757	1.305279
C174	C	1.825128	0.174577	1.638612
C175	C	1.241526	-0.376718	0.989337
C176	C	1.574859	-0.043384	1.322670
C177	C	1.908192	0.289949	1.656003
C178	C	1.241517	-0.376743	0.907354
C179	C	1.574850	-0.043409	1.240687
C180	C	1.908183	0.289924	1.574020
C181	C	1.199978	-0.434443	0.857667
C182	C	1.533311	-0.101110	1.191000
C183	C	1.866644	0.232224	1.524333
H184	H	0.483818	-0.330114	0.419787
H185	H	0.817152	0.003219	0.753120
H186	H	1.150485	0.336553	1.086454
H187	H	1.261497	-1.175744	0.251493
H188	H	1.594831	-0.842411	0.584826
H189	H	1.928164	-0.509077	0.918160
H190	H	1.275306	-0.329866	0.628201
H191	H	1.608639	0.003467	0.961535
H192	H	1.941973	0.336800	1.294868
H193	H	1.124613	-0.539122	0.745381
H194	H	1.457946	-0.205788	1.078715
H195	H	1.791280	0.127545	1.412048
H196	H	1.275347	-0.329734	1.029796
H197	H	1.608680	0.003599	1.363130
H198	H	1.942013	0.336932	1.696463
H199	H	1.057024	-1.090328	0.455648
H200	H	1.390357	-0.756995	0.788982
H201	H	1.723690	-0.423662	1.122315
H202	H	1.124587	-0.539166	0.596643
H203	H	1.457920	-0.205833	0.929976
H204	H	1.791254	0.127501	1.263310
H205	H	1.275317	-0.329817	0.776927
H206	H	1.608650	0.003517	1.110261
H207	H	1.941984	0.336850	1.443594
H208	H	1.339721	-1.090252	0.173348
H209	H	1.673054	-0.756918	0.506681
H210	H	2.006387	-0.423585	0.840014
H211	H	0.515210	-0.539190	0.205849
H212	H	0.848543	-0.205857	0.539182
H213	H	1.181876	0.127477	0.872516
H214	H	0.916779	-0.539137	0.205815
H215	H	1.250113	-0.205803	0.539149
H216	H	1.583446	0.127530	0.872482
H217	H	1.031187	-0.919402	0.481350
H218	H	1.364520	-0.586068	0.814683
H219	H	1.697853	-0.252735	1.148016
H220	H	0.663934	-0.539170	0.205831
H221	H	0.997267	-0.205837	0.539165
H222	H	1.330600	0.127497	0.872498
H223	H	1.368580	-0.948936	0.144430
H224	H	1.701914	-0.615603	0.477763
H225	H	2.035247	-0.282269	0.811097
H226	H	0.768049	-0.539148	0.205827
H227	H	1.101383	-0.205815	0.539161
H228	H	1.434716	0.127519	0.872494
H229	H	1.342756	-0.778002	0.170127
H230	H	1.676090	-0.444668	0.503460
H231	H	2.009423	-0.111335	0.836793
H232	H	0.632544	-0.330101	0.419781
H233	H	0.965878	0.003232	0.753114
H234	H	1.299211	0.336565	1.086448
H235	H	1.275336	-0.329786	0.881061
H236	H	1.608669	0.003547	1.214394
H237	H	1.942002	0.336880	1.547727
H238	H	1.124645	-0.539050	0.998238
H239	H	1.457978	-0.205716	1.331572
H240	H	1.791312	0.127617	1.664905
H241	H	0.885387	-0.330070	0.419762
H242	H	1.218720	0.003263	0.753095
H243	H	1.552053	0.336596	1.086428
H244	H	1.124611	-0.539085	0.849506
H245	H	1.457944	-0.205752	1.182839
H246	H	1.791278	0.127581	1.516172
H247	H	1.109387	-0.833912	0.403204
H248	H	1.442721	-0.500579	0.736537
H249	H	1.776054	-0.167245	1.069871
H250	H	0.736671	-0.330086	0.419767
H251	H	1.070004	0.003248	0.753100
H252	H	1.403337	0.336581	1.086434
H253	H	1.160507	-0.778049	0.352122
H254	H	1.493840	-0.444715	0.685456
H255	H	1.827174	-0.111382	1.018789
