data_functionalizedCrystal
_audit_creation_method	'MofGen! by Chris Wilmer'
_symmetry_space_group_name_H-M	'P1'
_symmetry_Int_Tables_number	1
_symmetry_cell_setting	triclinic
loop_
_symmetry_equiv_pos_as_xyz
  x,y,z
_cell_length_a	19.805407
_cell_length_b	15.297327
_cell_length_c	19.805399
_cell_angle_alpha	99.649417
_cell_angle_beta	89.980427
_cell_angle_gamma	99.707092
loop_
_atom_site_label
_atom_site_type_symbol
_atom_site_fract_x
_atom_site_fract_y
_atom_site_fract_z
Zn1	Zn	0.988098	-0.359189	-0.429336
Zn2	Zn	0.968423	-0.510058	-0.335728
Zn3	Zn	0.874909	-0.359214	-0.316164
Zn4	Zn	0.855293	-0.510010	-0.448869
O5	O	0.921681	-0.434618	-0.382524
O6	O	1.080203	-0.379212	-0.416932
O7	O	0.955994	-0.490079	-0.238420
O8	O	0.906367	-0.232963	-0.314814
O9	O	1.065749	-0.490055	-0.348159
O10	O	0.989526	-0.232945	-0.397962
O11	O	0.887290	-0.379254	-0.224047
O12	O	0.777592	-0.379208	-0.333754
O13	O	0.872934	-0.489973	-0.540990
O14	O	0.763180	-0.489997	-0.431252
O15	O	0.970505	-0.379166	-0.526640
O16	O	0.936973	-0.636300	-0.367099
O17	O	0.853857	-0.636265	-0.450222
C18	C	0.745827	-0.434601	-0.382500
C19	C	0.670593	-0.434615	-0.382509
C20	C	0.627751	-0.492390	-0.433217
C21	C	0.557063	-0.492392	-0.433227
C22	C	0.529217	-0.434622	-0.382525
C23	C	0.572065	-0.376841	-0.331814
C24	C	0.642752	-0.376835	-0.331808
C25	C	0.286989	-0.376861	-0.331839
C26	C	0.216295	-0.376873	-0.331848
C27	C	0.201299	-0.492417	-0.433258
C28	C	0.271987	-0.492412	-0.433252
C29	C	0.314829	-0.434627	-0.382543
C30	C	0.391477	-0.434625	-0.382534
C31	C	0.452569	-0.434628	-0.382531
C32	C	0.891170	-0.669017	-0.412918
C33	C	0.878179	-0.769294	-0.425943
C34	C	1.014807	-1.051906	-0.289663
C35	C	1.027012	-0.957691	-0.277422
C36	C	0.989805	-0.910587	-0.314551
C37	C	0.940391	-0.957708	-0.363923
C38	C	0.928180	-1.051932	-0.376162
C39	C	0.903178	-0.910613	-0.401050
C40	C	0.853764	-0.957734	-0.450423
C41	C	0.841556	-1.051949	-0.462659
C42	C	0.878763	-1.099053	-0.425530
C43	C	0.915389	-0.816389	-0.388812
C44	C	0.828762	-0.816415	-0.475311
C45	C	0.816557	-0.910630	-0.487552
C46	C	1.098221	-0.434636	-0.382549
C47	C	1.173452	-0.434644	-0.382559
C48	C	0.921726	-0.434561	-0.559060
C49	C	0.921746	-0.434537	-0.634289
C50	C	0.952329	-0.199304	-0.352027
C51	C	0.965390	-0.099027	-0.339031
C52	C	0.972552	-0.376837	-0.662161
C53	C	0.972562	-0.376810	-0.732846
C54	C	0.921768	-0.434490	-0.775658
C55	C	0.870957	-0.492193	-0.747781
C56	C	0.870944	-0.492214	-0.677096
C57	C	0.871006	-0.492109	-1.032843
C58	C	0.871024	-0.492085	-1.103533
C59	C	0.972624	-0.376705	-1.088593
C60	C	0.972612	-0.376726	-1.017909
C61	C	0.921798	-0.434426	-0.990037
C62	C	0.921787	-0.434452	-0.913392
C63	C	0.921782	-0.434469	-0.852303
C64	C	0.921683	-0.434610	-0.206667
C65	C	0.921828	-0.434380	-0.131406
H66	H	0.522183	-0.539439	-0.474518
C67	C	0.815071	-0.555706	-0.646439
H68	H	0.784828	-0.590067	-0.682061
H69	H	0.790063	-0.521219	-0.614381
H70	H	0.835856	-0.595023	-0.623973
H71	H	1.013936	-0.329827	-0.755537
H72	H	0.829658	-0.539057	-1.138389
C73	C	1.028483	-0.313276	-0.970819
H74	H	1.058740	-0.278901	-0.997542
H75	H	1.053474	-0.347794	-0.947721
H76	H	1.007699	-0.273971	-0.938148
H77	H	0.321862	-0.329816	-0.290545
H78	H	1.045092	-1.090267	-0.259433
H79	H	1.013997	-0.329721	-1.111294
C80	C	1.028424	-0.313384	-0.615074
H81	H	1.058679	-0.279009	-0.641799
H82	H	1.053417	-0.347900	-0.591975
H83	H	1.007640	-0.274078	-0.582403
H84	H	0.650417	-0.539436	-0.474502
H85	H	0.955622	-0.778031	-0.348612
H86	H	0.294654	-0.539456	-0.474536
H87	H	0.166408	-0.539464	-0.474549
C88	C	1.003236	-0.806953	-0.301092
H89	H	1.037999	-0.785636	-0.266375
H90	H	0.962321	-0.785689	-0.286591
H91	H	1.017692	-0.785597	-0.342010
C92	C	0.541436	-0.313299	-0.276041
H93	H	0.493199	-0.321583	-0.283302
H94	H	0.560909	-0.252697	-0.278159
H95	H	0.551295	-0.326431	-0.232248
C96	C	0.815102	-0.555557	-1.002191
H97	H	0.784855	-0.589903	-1.037813
H98	H	0.790108	-0.521031	-0.970146
H99	H	0.835852	-0.594889	-0.979709
H100	H	0.829597	-0.539153	-0.782644
C101	C	0.689879	-0.313282	-0.276030
H102	H	0.663171	-0.278881	-0.245831
H103	H	0.722573	-0.274018	-0.296879
H104	H	0.712958	-0.347740	-0.250958
H105	H	1.067245	-0.919329	-0.237222
C106	C	0.185667	-0.313316	-0.276078
H107	H	0.221306	-0.278894	-0.245881
H108	H	0.153595	-0.347774	-0.251013
H109	H	0.163212	-0.274059	-0.296940
C110	C	0.787831	-0.764615	-0.516158
H111	H	0.756646	-0.806171	-0.547308
H112	H	0.818475	-0.727807	-0.540892
H113	H	0.763109	-0.727914	-0.485467
C114	C	0.865336	-1.202690	-0.438991
H115	H	0.894571	-1.223990	-0.409805
H116	H	0.874257	-1.223958	-0.485442
H117	H	0.818893	-1.224060	-0.430015
H118	H	0.801311	-1.090312	-0.502854
C119	C	0.762199	-0.962469	-0.541854
H120	H	0.760256	-1.025327	-0.543819
H121	H	0.774083	-0.946982	-0.585329
H122	H	0.718718	-0.947088	-0.529904
