data_functionalizedCrystal
_audit_creation_method	'MofGen! by Chris Wilmer'
_symmetry_space_group_name_H-M	'P1'
_symmetry_Int_Tables_number	1
_symmetry_cell_setting	triclinic
loop_
_symmetry_equiv_pos_as_xyz
  x,y,z
_cell_length_a	15.297475
_cell_length_b	29.839131
_cell_length_c	15.296720
_cell_angle_alpha	99.631078
_cell_angle_beta	91.617114
_cell_angle_gamma	80.335685
loop_
_atom_site_label
_atom_site_type_symbol
_atom_site_fract_x
_atom_site_fract_y
_atom_site_fract_z
Zn1	Zn	1.253272	-0.349615	-0.726427
Zn2	Zn	1.278510	-0.414300	-0.579911
Zn3	Zn	1.132159	-0.324379	-0.554680
Zn4	Zn	1.106738	-0.409884	-0.701042
O5	O	1.192670	-0.374545	-0.640515
O6	O	1.379193	-0.370605	-0.728175
O7	O	1.280298	-0.393658	-0.453994
O8	O	1.148301	-0.264872	-0.577528
O9	O	1.397736	-0.418129	-0.620530
O10	O	1.237282	-0.283413	-0.703709
O11	O	1.172774	-0.327594	-0.435457
O12	O	1.006213	-0.323312	-0.552912
O13	O	1.104975	-0.410603	-0.826979
O14	O	0.987537	-0.386133	-0.660443
O15	O	1.212633	-0.366324	-0.845630
O16	O	1.255648	-0.476569	-0.595915
O17	O	1.129448	-0.473325	-0.684909
C18	C	0.965093	-0.351505	-0.601186
C19	C	0.867731	-0.341661	-0.584381
C20	C	0.554547	-0.444906	-0.760621
C21	C	0.646024	-0.454158	-0.776407
C22	C	0.701455	-0.426035	-0.728402
C23	C	0.665401	-0.388657	-0.664608
C24	C	0.573916	-0.379406	-0.648816
C25	C	0.720824	-0.360535	-0.616597
C26	C	0.684770	-0.323158	-0.552803
C27	C	0.593293	-0.313908	-0.537014
C28	C	0.537862	-0.342032	-0.585018
C29	C	0.812309	-0.369786	-0.632390
C30	C	0.831678	-0.304287	-0.520584
C31	C	0.740201	-0.295034	-0.504798
C32	C	1.192549	-0.491249	-0.640418
C33	C	1.192572	-0.541185	-0.640420
C34	C	1.238976	-0.860469	-0.706296
C35	C	1.239062	-1.048155	-0.706365
O36	O	1.278395	-1.080600	-0.762297
N37	N	1.192802	-1.062009	-0.640638
C38	C	1.146512	-1.028937	-0.574893
O39	O	1.107159	-1.045027	-0.518995
C40	C	1.146421	-0.841251	-0.574828
C41	C	1.192692	-0.827401	-0.640554
C42	C	1.285242	-0.846618	-0.772017
C43	C	1.285224	-0.799699	-0.771996
C44	C	1.238940	-0.766631	-0.706254
C45	C	1.192674	-0.780482	-0.640533
C46	C	1.100126	-0.808180	-0.509087
C47	C	1.100106	-0.761257	-0.509078
C48	C	1.146377	-0.747407	-0.574804
C49	C	1.146372	-0.700496	-0.574771
N50	N	1.192632	-0.686642	-0.640497
C51	C	1.238916	-0.719710	-0.706239
C52	C	1.146564	-1.127475	-0.574930
C53	C	1.146588	-1.174396	-0.574945
C54	C	1.239137	-1.193612	-0.706418
C55	C	1.239118	-1.146690	-0.706399
C56	C	1.192824	-1.113622	-0.640657
C57	C	1.238876	-0.621177	-0.706190
C58	C	1.238857	-0.574253	-0.706162
C59	C	1.146304	-0.555042	-0.574692
C60	C	1.146326	-0.601962	-0.574717
C61	C	1.192614	-0.635029	-0.640474
O62	O	1.107051	-0.668027	-0.518873
O63	O	1.278247	-0.703611	-0.762140
C64	C	1.238994	-0.907388	-0.706316
C65	C	1.192728	-0.921239	-0.640595
C66	C	1.146444	-0.888171	-0.574854
C67	C	1.192752	-0.968160	-0.640610
C68	C	1.239036	-1.001228	-0.706352
C69	C	1.285296	-0.987374	-0.772079
C70	C	1.285278	-0.940456	-0.772058
C71	C	1.100183	-0.902024	-0.509127
C72	C	1.100206	-0.948944	-0.509152
C73	C	1.146490	-0.982012	-0.574894
C74	C	1.421135	-0.397675	-0.679998
C75	C	1.518493	-0.407531	-0.696824
C76	C	1.153153	-0.390786	-0.868974
C77	C	1.136313	-0.397707	-0.966330
C78	C	1.192812	-0.257389	-0.640636
C79	C	1.192872	-0.207464	-0.640687
C80	C	1.313058	-0.325004	-1.279603
C81	C	1.328886	-0.318503	-1.188133
C82	C	1.280744	-0.338303	-1.132678
C83	C	1.216772	-0.364606	-1.168701
C84	C	1.200948	-0.371111	-1.260181
C85	C	1.168634	-0.384410	-1.113256
C86	C	1.104662	-0.410713	-1.149279
C87	C	1.088841	-0.417216	-1.240750
C88	C	1.136983	-0.397416	-1.296205
C89	C	1.184458	-0.377905	-1.021777
C90	C	1.072348	-0.424012	-1.002355
C91	C	1.056520	-0.430513	-1.093824
C92	C	1.232083	-0.358340	-0.412953
C93	C	1.249093	-0.351309	-0.315627
H94	H	1.276539	-0.562979	-0.759684
H95	H	1.004434	-0.451929	-1.123168
H96	H	0.841655	-0.400219	-0.684332
O97	O	0.800120	-0.436011	-0.745424
H98	H	0.815879	-0.466724	-0.797852
H99	H	1.352253	-0.308889	-1.324763
H100	H	0.463373	-0.334500	-0.572170
H101	H	1.124100	-0.402708	-1.370688
O102	O	1.297802	-0.331288	-1.034019
H103	H	1.350365	-0.309668	-1.018284
O104	O	1.397879	-0.290137	-1.149278
H105	H	1.428693	-0.277458	-1.203203
O106	O	1.019844	-0.445585	-1.279609
H107	H	0.989018	-0.458256	-1.225683
H108	H	1.062492	-0.875103	-0.455593
H109	H	1.062529	-0.960215	-0.455622
O110	O	1.096647	-1.091811	-0.504007
H111	H	1.064500	-1.109333	-0.458304
O112	O	1.288805	-0.656839	-0.777106
H113	H	1.320977	-0.639318	-0.822792
O114	O	1.335219	-1.023045	-0.842988
H115	H	1.308249	-1.017385	-0.909110
O116	O	1.253450	-0.349537	-0.982924
H117	H	1.235433	-0.314012	-0.997918
H118	H	1.276825	-1.220544	-0.759947
O119	O	1.020411	-0.445368	-0.942554
H120	H	1.042153	-0.436421	-0.872894
H121	H	1.062405	-0.734334	-0.455543
O122	O	0.684911	-0.494465	-0.845215
H123	H	0.631000	-0.512464	-0.875951
H124	H	0.509408	-0.467802	-0.799694
H125	H	1.108623	-0.528111	-0.521163
O126	O	0.554401	-0.273597	-0.468206
H127	H	0.608310	-0.255592	-0.437483
O128	O	0.701295	-0.254728	-0.435986
H129	H	0.716251	-0.222333	-0.454177
O130	O	0.891450	-0.273947	-0.468804
H131	H	0.961117	-0.286656	-0.490510
O132	O	1.335193	-0.925526	-0.842950
H133	H	1.288254	-0.903346	-0.880700
H134	H	1.108657	-0.613239	-0.521192
H135	H	1.322899	-0.788426	-0.825518
H136	H	1.276795	-1.135416	-0.759919
O137	O	1.335171	-0.882282	-0.842927
H138	H	1.367339	-0.864759	-0.888613
H139	H	1.108920	-1.185669	-0.521417
H140	H	1.062448	-0.819448	-0.455566
