data_functionalizedCrystal
_audit_creation_method	'MofGen! by Chris Wilmer'
_symmetry_space_group_name_H-M	'P1'
_symmetry_Int_Tables_number	1
_symmetry_cell_setting	triclinic
loop_
_symmetry_equiv_pos_as_xyz
  x,y,z
_cell_length_a	6.817900
_cell_length_b	16.418049
_cell_length_c	19.453114
_cell_angle_alpha	95.881320
_cell_angle_beta	101.709288
_cell_angle_gamma	103.389670
loop_
_atom_site_label
_atom_site_type_symbol
_atom_site_fract_x
_atom_site_fract_y
_atom_site_fract_z
V1	V	-4.006364	-0.116759	-0.219248
O2	O	-3.994760	0.004713	-0.214820
O3	O	-3.957546	-0.230651	-0.217993
O4	O	-3.949285	-0.115357	-0.314758
O5	O	-4.003078	-0.111378	-0.117385
V6	V	-4.491171	-0.102183	-0.207035
O7	O	-4.264806	-0.148733	-0.246039
O8	O	-4.682926	-0.070209	-0.180244
O9	O	-4.316783	0.011708	-0.208290
O10	O	-4.620172	-0.223655	-0.211463
O11	O	-4.611854	-0.107564	-0.308898
O12	O	-4.325044	-0.103585	-0.111525
C13	C	-3.802725	-0.258403	-0.214598
C14	C	-3.844039	-0.351513	-0.214209
C15	C	-4.120832	-0.570013	-0.216840
C16	C	-4.159639	-0.657501	-0.216480
C17	C	-3.796061	-0.648929	-0.209448
C18	C	-3.757260	-0.561443	-0.209812
C19	C	-3.919651	-0.521987	-0.213505
C20	C	-3.997258	-0.696960	-0.212781
C21	C	-4.039333	-0.791818	-0.212391
C22	C	-3.877575	-0.427123	-0.213896
C23	C	-3.792187	-0.111333	-0.338030
C24	C	-3.826798	-0.110940	-0.416112
C25	C	-4.024826	-0.114960	-0.456377
C26	C	-4.057348	-0.114591	-0.529743
C27	C	-3.891839	-0.110219	-0.562843
C28	C	-3.693782	-0.106194	-0.522567
C29	C	-3.661261	-0.106554	-0.449201
N30	N	-3.831933	-0.154452	-0.681726
N31	N	-3.862840	-0.154112	-0.751421
C32	C	-3.989809	-0.109130	-0.783889
N33	N	-4.084741	-0.064513	-0.744031
N34	N	-4.053840	-0.064857	-0.674330
C35	C	-3.927082	-0.109827	-0.642395
C36	C	-4.223112	-0.112748	-0.903706
C37	C	-4.255625	-0.112374	-0.977073
C38	C	-3.892057	-0.103985	-0.969896
C39	C	-3.859546	-0.104352	-0.896530
C40	C	-4.025084	-0.108737	-0.863440
C41	C	-4.134946	0.039456	-0.211683
C42	C	-4.072870	0.132565	-0.212077
C43	C	-4.145485	-0.107612	-0.088249
C44	C	-4.090112	-0.108001	-0.010167
H45	H	-4.323459	-0.696600	-0.219197
H46	H	-3.698297	-0.101087	-0.863746
H47	H	-3.499998	-0.103275	-0.416416
H48	H	-3.757293	-0.100418	-0.996844
H49	H	-3.663853	-0.681064	-0.206440
H50	H	-3.593427	-0.522340	-0.207099
O51	O	-4.185636	-0.119363	-0.424224
C52	C	-4.214696	-0.192728	-0.391668
H53	H	-4.147205	-0.241200	-0.418504
H54	H	-4.387527	-0.220921	-0.397263
H55	H	-4.132858	-0.175388	-0.332911
O56	O	-4.278826	-0.531824	-0.220464
C57	C	-4.464705	-0.592975	-0.223311
H58	H	-4.450997	-0.658322	-0.244373
H59	H	-4.598927	-0.577200	-0.260147
H60	H	-4.494500	-0.592849	-0.167719
H61	H	-4.218613	-0.117868	-0.562535
O62	O	-3.533112	-0.101838	-0.554782
C63	C	-3.503995	-0.028453	-0.587311
H64	H	-3.654352	-0.007734	-0.598189
H65	H	-3.458260	-0.042825	-0.639562
H66	H	-3.375833	0.024539	-0.550489
H67	H	-4.357901	-0.116316	-0.876763
H68	H	-4.416883	-0.115641	-1.009856
