data_functionalizedCrystal
_audit_creation_method	'MofGen! by Chris Wilmer'
_symmetry_space_group_name_H-M	'P1'
_symmetry_Int_Tables_number	1
_symmetry_cell_setting	triclinic
loop_
_symmetry_equiv_pos_as_xyz
  x,y,z
_cell_length_a	14.853567
_cell_length_b	18.366186
_cell_length_c	19.288865
_cell_angle_alpha	90.011479
_cell_angle_beta	96.614411
_cell_angle_gamma	89.993927
loop_
_atom_site_label
_atom_site_type_symbol
_atom_site_fract_x
_atom_site_fract_y
_atom_site_fract_z
O1	O	1.195855	-0.060508	-0.090685
O2	O	0.933334	-0.060522	-0.101488
O3	O	1.072180	-0.060500	0.005018
O4	O	1.057009	-0.060530	-0.197191
O5	O	1.072157	0.060599	0.005024
O6	O	0.933310	0.060578	-0.101482
O7	O	1.195831	0.060591	-0.090680
Zn8	Zn	1.064567	0.079812	-0.096080
Zn9	Zn	1.064598	-0.079742	-0.096087
O10	O	1.056985	0.060570	-0.197186
C11	C	0.899736	0.000027	-0.100996
C12	C	0.799661	0.000022	-0.099529
N13	N	1.064553	0.188703	-0.096075
N14	N	1.064620	-0.188633	-0.096087
C15	C	0.387522	0.000048	-0.030061
C16	C	0.365522	0.000029	-0.156593
C17	C	0.459547	0.000027	-0.157972
C18	C	0.517565	0.000034	-0.095395
C19	C	0.481557	0.000044	-0.031439
C20	C	0.495563	0.000009	-0.221927
C21	C	0.589594	0.000006	-0.223309
C22	C	0.647614	0.000019	-0.160731
C23	C	0.611600	0.000029	-0.096772
C24	C	0.669618	0.000037	-0.034195
C25	C	0.633606	0.000052	0.029764
C26	C	0.539577	0.000056	0.031139
C27	C	0.741643	0.000015	-0.162106
C28	C	0.763653	0.000032	-0.035572
C29	C	1.229429	0.000041	-0.091172
C30	C	1.329504	0.000041	-0.092639
C31	C	1.071680	0.000052	0.030899
C32	C	1.070215	0.000058	0.108008
C33	C	1.126054	0.226813	-0.048937
C34	C	1.126059	0.303041	-0.048934
C35	C	1.064573	0.341155	-0.096081
C36	C	1.003060	0.303036	-0.143222
C37	C	1.003050	0.226810	-0.143219
C38	C	1.052504	0.461906	-0.159328
C39	C	1.052520	0.538131	-0.159332
C40	C	1.064598	0.576263	-0.096090
C41	C	1.076679	0.538161	-0.032841
C42	C	1.076669	0.461934	-0.032838
C43	C	1.064576	0.423810	-0.096089
C44	C	1.126109	0.697028	-0.048945
C45	C	1.126108	0.773257	-0.048941
C46	C	1.003113	0.773251	-0.143234
C47	C	1.003109	0.697024	-0.143232
C48	C	1.064612	0.658916	-0.096088
C49	C	1.057485	0.000016	-0.223067
C50	C	1.058951	0.000005	-0.300175
C51	C	1.151683	0.000066	0.152429
C52	C	1.150307	0.000054	0.224881
C53	C	1.067457	0.000050	0.252908
C54	C	0.985977	0.000038	0.208477
C55	C	0.987356	0.000042	0.136027
C56	C	1.002319	0.042465	0.361417
C57	C	1.000943	0.042465	0.433866
C58	C	1.063200	0.000033	0.476368
C59	C	1.126848	-0.042390	0.446413
C60	C	1.128227	-0.042385	0.373963
C61	C	1.065952	0.000044	0.331467
C62	C	1.143181	0.000027	0.599350
C63	C	1.141801	0.000011	0.671803
C64	C	0.977470	0.000002	0.655397
C65	C	0.978852	0.000011	0.582946
C66	C	1.061710	0.000027	0.554927
H67	H	0.680856	0.000053	0.080715
H68	H	0.510247	0.000086	0.083212
C69	C	1.039224	0.419968	-0.228899
H70	H	1.032047	0.453576	-0.266566
H71	H	0.986725	0.390238	-0.230234
H72	H	1.090725	0.390226	-0.232820
H73	H	1.216650	0.000058	0.261055
C74	C	0.347914	0.000063	0.040289
H75	H	0.283604	0.000061	0.032150
H76	H	0.367847	0.042294	0.066061
H77	H	0.367846	-0.042171	0.066053
C78	C	0.933831	0.089142	0.314671
H79	H	0.895738	0.114413	0.342887
H80	H	0.897973	0.058556	0.282767
H81	H	0.965536	0.123264	0.289529
H82	H	0.810886	0.000041	0.015386
H83	H	0.770960	0.000003	-0.214181
H84	H	0.912511	0.000008	0.546777
C85	C	0.301706	0.000023	-0.225422
H86	H	0.240548	0.000031	-0.215442
H87	H	0.312597	-0.042209	-0.251648
H88	H	0.312592	0.042256	-0.251636
H89	H	1.219153	0.000076	0.129621
C90	C	0.431746	0.000005	-0.290755
H91	H	0.370588	0.000020	-0.280773
H92	H	0.442629	-0.042230	-0.316981
H93	H	0.442636	0.042236	-0.316972
C94	C	0.629200	-0.000001	-0.293660
H95	H	0.581178	0.000001	-0.330730
H96	H	0.665431	-0.042230	-0.296834
H97	H	0.665414	0.042236	-0.296822
H98	H	1.176131	0.195788	-0.010548
C99	C	1.198224	-0.089054	0.341013
H100	H	1.235103	-0.114331	0.376697
H101	H	1.235157	-0.058466	0.316388
H102	H	1.167588	-0.123170	0.309634
H103	H	1.176143	0.334075	-0.010548
C104	C	1.234320	0.000037	0.568526
H105	H	1.282644	0.000029	0.605361
H106	H	1.238267	0.042270	0.540615
H107	H	1.238280	-0.042196	0.540593
C108	C	1.195329	-0.089072	0.493155
H109	H	1.185387	-0.083008	0.540593
H110	H	1.255201	-0.074154	0.487242
H111	H	1.187632	-0.138859	0.480473
H112	H	1.086503	0.430914	0.018661
C113	C	0.935429	0.344959	-0.195084
H114	H	0.944249	0.395816	-0.188340
H115	H	0.875293	0.332482	-0.187456
H116	H	0.945032	0.332451	-0.241456
H117	H	0.952967	0.195780	-0.181605
H118	H	0.953033	0.665993	-0.181619
C119	C	1.089958	0.580095	0.036729
H120	H	1.088222	0.630949	0.027672
H121	H	1.146914	0.567603	0.061421
H122	H	1.042914	0.567613	0.064009
H123	H	1.176185	0.666000	-0.010555
C124	C	1.039239	0.580037	-0.228901
H125	H	1.032029	0.546411	-0.266565
H126	H	1.090738	0.609760	-0.232832
H127	H	0.986741	0.609783	-0.230231
C128	C	1.193765	0.815178	0.002912
H129	H	1.230395	0.781563	0.030983
H130	H	1.161466	0.844927	0.031876
H131	H	1.231189	0.844901	-0.022137
H132	H	0.953046	0.804284	-0.181619
H133	H	1.208146	0.000013	0.707971
C134	C	0.886336	-0.000006	0.686218
H135	H	0.897182	-0.000004	0.735730
H136	H	0.852812	-0.042237	0.670964
H137	H	0.852796	0.042229	0.670986
H138	H	0.949114	0.077004	0.458249
C139	C	0.894845	0.000035	0.239304
H140	H	0.905691	0.000041	0.288815
H141	H	0.861319	-0.042196	0.224053
H142	H	0.861306	0.042269	0.224068
H143	H	0.921013	0.000036	0.099858
