data_functionalizedCrystal
_audit_creation_method	'MofGen! by Chris Wilmer'
_symmetry_space_group_name_H-M	'P1'
_symmetry_Int_Tables_number	1
_symmetry_cell_setting	triclinic
loop_
_symmetry_equiv_pos_as_xyz
  x,y,z
_cell_length_a	11.026607
_cell_length_b	15.500227
_cell_length_c	10.967953
_cell_angle_alpha	75.033629
_cell_angle_beta	96.379953
_cell_angle_gamma	93.466421
loop_
_atom_site_label
_atom_site_type_symbol
_atom_site_fract_x
_atom_site_fract_y
_atom_site_fract_z
O1	O	1.614027	-0.006162	0.523881
O2	O	1.260925	0.002810	0.463706
O3	O	1.447751	0.025383	0.312278
O4	O	1.427201	-0.028735	0.675309
O5	O	1.436414	-0.119869	0.321421
O6	O	1.249589	-0.142441	0.472849
O7	O	1.602690	-0.151414	0.533024
Cu8	Cu	1.425104	-0.160190	0.503771
Cu9	Cu	1.438511	0.011587	0.492959
O10	O	1.415864	-0.173986	0.684452
C11	C	1.210084	-0.068160	0.457176
C12	C	1.075482	-0.063226	0.424083
N13	N	1.415683	-0.281009	0.511377
C14	C	1.001366	-0.076847	0.515459
C15	C	0.862248	-0.071747	0.481257
C16	C	1.494875	-0.316726	0.447249
C17	C	1.487761	-0.408159	0.453015
C18	C	1.401460	-0.463873	0.522919
C19	C	1.322260	-0.428150	0.587049
C20	C	1.329369	-0.336718	0.581274
C21	C	1.375851	-0.740438	0.543700
C22	C	1.368750	-0.831876	0.549473
C23	C	1.534250	-0.811878	0.415437
C24	C	1.541357	-0.720447	0.409675
C25	C	1.462152	-0.684730	0.473800
C26	C	1.394189	-0.557333	0.528818
C27	C	1.469418	-0.591271	0.467892
C28	C	1.653532	-0.080442	0.539554
C29	C	1.788134	-0.085370	0.572647
C30	C	1.441445	-0.040205	0.269651
C31	C	1.439529	-0.019234	0.129012
N32	N	1.447942	0.132406	0.485345
C33	C	1.430816	-0.063467	-0.074313
C34	C	1.432800	-0.085139	0.071046
C35	C	1.422171	-0.108396	0.727078
C36	C	1.424087	-0.129362	0.867717
H37	H	0.822716	-0.056287	0.377699
H38	H	1.443826	0.053230	0.071036
H39	H	1.251986	-0.473517	0.643960
H40	H	1.264881	-0.307638	0.633493
C41	C	1.299222	-0.618610	0.605659
H42	H	1.253054	-0.584244	0.643009
H43	H	1.339841	-0.663602	0.670390
H44	H	1.246149	-0.645777	0.550951
C45	C	0.841527	-0.106220	0.712544
H46	H	0.928026	-0.106905	0.717182
H47	H	0.810802	-0.162957	0.756572
H48	H	0.818709	-0.061644	0.750178
H49	H	1.419802	-0.201821	-0.074300
H50	H	1.035945	-0.047767	0.320531
C51	C	1.427001	-0.183033	0.149353
H52	H	1.422531	-0.221564	0.094134
H53	H	1.356755	-0.193006	0.194674
H54	H	1.498162	-0.194924	0.207549
H55	H	1.611629	-0.675085	0.352754
H56	H	1.565155	-0.271369	0.390332
H57	H	1.435114	0.008992	-0.132294
H58	H	1.552244	-0.437239	0.400796
C59	C	1.054768	-0.097699	0.655348
H60	H	1.141266	-0.098385	0.659983
H61	H	1.024043	-0.154437	0.699374
H62	H	1.031953	-0.053125	0.692988
H63	H	1.598734	-0.840967	0.363228
H64	H	1.298470	-0.877237	0.606402
H65	H	1.539680	-0.545905	0.410971
H66	H	1.311361	-0.711366	0.595916
