data_functionalizedCrystal
_audit_creation_method	'MofGen! by Chris Wilmer'
_symmetry_space_group_name_H-M	'P1'
_symmetry_Int_Tables_number	1
_symmetry_cell_setting	triclinic
loop_
_symmetry_equiv_pos_as_xyz
  x,y,z
_cell_length_a	13.897449
_cell_length_b	21.295417
_cell_length_c	13.897441
_cell_angle_alpha	89.965596
_cell_angle_beta	89.981404
_cell_angle_gamma	90.030982
loop_
_atom_site_label
_atom_site_type_symbol
_atom_site_fract_x
_atom_site_fract_y
_atom_site_fract_z
Zn1	Zn	1.474602	-0.250574	-0.545349
Zn2	Zn	1.807935	0.082760	-0.212016
Zn3	Zn	2.141268	0.416093	0.121318
Zn4	Zn	1.474468	-0.355851	-0.384037
Zn5	Zn	1.807801	-0.022518	-0.050704
Zn6	Zn	2.141135	0.310816	0.282630
Zn7	Zn	1.313297	-0.250602	-0.384068
Zn8	Zn	1.646630	0.082731	-0.050734
Zn9	Zn	1.979964	0.416065	0.282599
Zn10	Zn	1.313239	-0.355811	-0.545290
Zn11	Zn	1.646572	-0.022478	-0.211956
Zn12	Zn	1.979905	0.310855	0.121377
O13	O	1.393901	-0.303209	-0.464686
O14	O	1.727235	0.030124	-0.131353
O15	O	2.060568	0.363457	0.201981
O16	O	1.609566	-0.264544	-0.523963
O17	O	1.942899	0.068790	-0.190630
O18	O	2.276232	0.402123	0.142704
O19	O	1.453057	-0.341918	-0.249059
O20	O	1.786390	-0.008584	0.084274
O21	O	2.119723	0.324749	0.417607
O22	O	1.334775	-0.162509	-0.405499
O23	O	1.668108	0.170825	-0.072166
O24	O	2.001441	0.504158	0.261167
O25	O	1.609467	-0.341890	-0.405448
O26	O	1.942801	-0.008557	-0.072114
O27	O	2.276134	0.324776	0.261219
O28	O	1.453285	-0.162488	-0.523992
O29	O	1.786618	0.170845	-0.190659
O30	O	2.119951	0.504179	0.142674
O31	O	1.334645	-0.264592	-0.249082
O32	O	1.667978	0.068742	0.084252
O33	O	2.001312	0.402075	0.417585
O34	O	1.178308	-0.264553	-0.405442
O35	O	1.511641	0.068780	-0.072108
O36	O	1.844974	0.402113	0.261225
O37	O	1.334676	-0.341823	-0.680279
O38	O	1.668009	-0.008490	-0.346946
O39	O	2.001342	0.324844	-0.013613
O40	O	1.178265	-0.341850	-0.523891
O41	O	1.511598	-0.008517	-0.190558
O42	O	1.844932	0.324816	0.142776
O43	O	1.453228	-0.264505	-0.680323
O44	O	1.786562	0.068828	-0.346990
O45	O	2.119895	0.402161	-0.013656
O46	O	1.453000	-0.443935	-0.405390
O47	O	1.786334	-0.110602	-0.072057
O48	O	2.119667	0.222732	0.261277
O49	O	1.334546	-0.443906	-0.523862
O50	O	1.667879	-0.110573	-0.190528
O51	O	2.001213	0.222761	0.142805
C52	C	1.143287	-0.303201	-0.464664
C53	C	1.476620	0.030132	-0.131331
C54	C	1.809954	0.363466	0.202003
C55	C	1.036073	-0.303213	-0.464677
C56	C	1.369406	0.030121	-0.131344
C57	C	1.702740	0.363454	0.201989
C58	C	1.393778	-0.466761	-0.464637
C59	C	1.727112	-0.133428	-0.131304
C60	C	2.060445	0.199906	0.202030
C61	C	1.393814	-0.536729	-0.464648
C62	C	1.727147	-0.203396	-0.131315
C63	C	2.060481	0.129937	0.202018
C64	C	0.839778	-0.303215	-0.464703
C65	C	1.173111	0.030119	-0.131369
C66	C	1.506445	0.363452	0.201964
C67	C	0.949010	-0.303212	-0.464686
C68	C	1.282344	0.030122	-0.131353
C69	C	1.615677	0.363455	0.201981
C70	C	1.455487	-0.569528	-0.526392
C71	C	1.788820	-0.236195	-0.193058
C72	C	2.122154	0.097139	0.140275
C73	C	1.455521	-0.635270	-0.526416
C74	C	1.788854	-0.301937	-0.193082
C75	C	2.122188	0.031396	0.140251
C76	C	1.393892	-0.668212	-0.464679
C77	C	1.727226	-0.334878	-0.131345
C78	C	2.060559	-0.001545	0.201988
C79	C	1.332207	-0.635405	-0.402931
C80	C	1.665541	-0.302072	-0.069598
C81	C	1.998874	0.031262	0.263736
C82	C	1.332168	-0.569664	-0.402916
C83	C	1.665502	-0.236330	-0.069583
C84	C	1.998835	0.097003	0.263751
N85	N	1.386606	-0.771477	-0.380261
N86	N	1.719940	-0.438144	-0.046928
N87	N	2.053273	-0.104811	0.286405
N88	N	1.386649	-0.833929	-0.380279
N89	N	1.719982	-0.500595	-0.046945
N90	N	2.053316	-0.167262	0.286388
C91	C	1.394005	-0.866286	-0.464722
C92	C	1.727338	-0.532953	-0.131389
C93	C	2.060672	-0.199620	0.201944
N94	N	1.401335	-0.833833	-0.549150
N95	N	1.734669	-0.500500	-0.215817
N96	N	2.068002	-0.167167	0.117517
N97	N	1.401297	-0.771376	-0.549132
N98	N	1.734631	-0.438043	-0.215798
N99	N	2.067964	-0.104709	0.117535
C100	C	1.393927	-0.739497	-0.464689
C101	C	1.727261	-0.406164	-0.131355
C102	C	2.060594	-0.072830	0.201978
C103	C	1.455718	-0.970371	-0.526497
C104	C	1.789051	-0.637037	-0.193163
C105	C	2.122385	-0.303704	0.140170
C106	C	1.455745	-1.036114	-0.526522
C107	C	1.789079	-0.702781	-0.193189
C108	C	2.122412	-0.369448	0.140145
C109	C	1.332437	-1.036248	-0.403029
C110	C	1.665770	-0.702914	-0.069696
C111	C	1.999104	-0.369581	0.263638
C112	C	1.332405	-0.970505	-0.403012
C113	C	1.665738	-0.637172	-0.069679
C114	C	1.999071	-0.303839	0.263654
C115	C	1.394050	-0.937571	-0.464745
C116	C	1.727384	-0.604237	-0.131411
C117	C	2.060717	-0.270904	0.201922
C118	C	1.645494	-0.303218	-0.464708
C119	C	1.978828	0.030115	-0.131375
C120	C	2.312161	0.363448	0.201958
C121	C	1.752708	-0.303222	-0.464718
C122	C	2.086042	0.030111	-0.131385
C123	C	2.419375	0.363445	0.201949
C124	C	1.393960	-0.303157	-0.716279
C125	C	1.727294	0.030177	-0.382946
C126	C	2.060627	0.363510	-0.049612
C127	C	1.393986	-0.303134	-0.823493
C128	C	1.727319	0.030199	-0.490160
C129	C	2.060652	0.363533	-0.156826
C130	C	1.394051	-0.139019	-0.464756
C131	C	1.727384	0.194314	-0.131423
C132	C	2.060718	0.527648	0.201911
C133	C	1.394115	-0.069051	-0.464786
C134	C	1.727448	0.264282	-0.131453
C135	C	2.060782	0.597616	0.201881
C136	C	1.394005	-0.303116	-0.910563
C137	C	1.727339	0.030217	-0.577229
C138	C	2.060672	0.363550	-0.243896
C139	C	1.394033	-0.303088	-1.019795
C140	C	1.727366	0.030245	-0.686462
C141	C	2.060700	0.363579	-0.353129
C142	C	1.393898	-0.303217	-0.214072
C143	C	1.727231	0.030117	0.119262
C144	C	2.060565	0.363450	0.452595
C145	C	1.394060	-0.303062	-0.106858
C146	C	1.727393	0.030271	0.226475
C147	C	2.060726	0.363605	0.559809
H148	H	1.505680	-0.542714	-0.576660
H149	H	1.839013	-0.209381	-0.243327
H150	H	2.172347	0.123952	0.090006
Br151	Br	1.539437	-1.080628	-0.610340
Br152	Br	1.872770	-0.747295	-0.277006
Br153	Br	2.206103	-0.413962	0.056327
Br154	Br	1.539230	-0.679793	-0.610211
Br155	Br	1.872564	-0.346460	-0.276878
Br156	Br	2.205897	-0.013126	0.056455
H157	H	1.282252	-1.063068	-0.352768
H158	H	1.615585	-0.729734	-0.019434
H159	H	1.948918	-0.396401	0.313899
H160	H	1.282027	-0.662230	-0.352667
H161	H	1.615360	-0.328897	-0.019333
H162	H	1.948694	0.004437	0.314000
Br163	Br	1.248460	-0.525148	-0.319118
Br164	Br	1.581793	-0.191815	0.014216
Br165	Br	1.915126	0.141519	0.347549
Br166	Br	1.539375	-0.925670	-0.610276
Br167	Br	1.872709	-0.592336	-0.276943
Br168	Br	2.206042	-0.259003	0.056390
Br169	Br	1.248698	-0.925989	-0.319215
Br170	Br	1.582032	-0.592656	0.014118
Br171	Br	1.915365	-0.259323	0.347451
