data_functionalizedCrystal
_audit_creation_method	'MofGen! by Chris Wilmer'
_symmetry_space_group_name_H-M	'P1'
_symmetry_Int_Tables_number	1
_symmetry_cell_setting	triclinic
loop_
_symmetry_equiv_pos_as_xyz
  x,y,z
_cell_length_a	23.532355
_cell_length_b	14.853567
_cell_length_c	13.930277
_cell_angle_alpha	89.998141
_cell_angle_beta	89.997955
_cell_angle_gamma	96.768786
loop_
_atom_site_label
_atom_site_type_symbol
_atom_site_fract_x
_atom_site_fract_y
_atom_site_fract_z
O1	O	0.755758	-0.109211	-0.079693
O2	O	0.589960	-0.125095	-0.079722
O3	O	0.677288	0.014127	-0.079710
O4	O	0.668431	-0.248432	-0.079705
O5	O	0.677274	0.014122	0.079952
O6	O	0.589946	-0.125099	0.079940
O7	O	0.755745	-0.109215	0.079969
Zn8	Zn	0.672843	-0.117158	0.105304
Zn9	Zn	0.672862	-0.117152	-0.105057
O10	O	0.668417	-0.248437	0.079956
C11	C	0.568735	-0.124700	0.000105
C12	C	0.505511	-0.123506	0.000093
C13	C	0.113457	-0.116008	0.087165
C14	C	0.054053	-0.114873	0.087169
O15	O	0.023325	-0.114257	0.161185
N16	N	0.024349	-0.114307	0.000137
C17	C	0.054054	-0.114868	-0.086903
O18	O	0.023334	-0.114282	-0.160930
C19	C	0.113458	-0.115997	-0.086906
C20	C	0.143158	-0.116572	0.000131
C21	C	0.143157	-0.116582	0.174195
C22	C	0.202557	-0.117719	0.174191
C23	C	0.232257	-0.118283	0.087157
C24	C	0.202558	-0.117709	0.000127
C25	C	0.143162	-0.116552	-0.173946
C26	C	0.202570	-0.117681	-0.173941
C27	C	0.232270	-0.118255	-0.086904
C28	C	0.291658	-0.119410	-0.086911
N29	N	0.321362	-0.119976	0.000120
C30	C	0.291661	-0.119412	0.087154
C31	C	-0.070698	-0.112495	-0.086891
C32	C	-0.130101	-0.111372	-0.086889
C33	C	-0.130098	-0.111375	0.087183
C34	C	-0.070694	-0.112504	0.087180
C35	C	-0.040994	-0.113061	0.000140
C36	C	0.416406	-0.121801	0.087139
C37	C	0.475811	-0.122942	0.087127
C38	C	0.475803	-0.122935	-0.086945
C39	C	0.416403	-0.121799	-0.086933
C40	C	0.386706	-0.121229	0.000116
O41	O	0.322424	-0.120023	-0.160890
O42	O	0.322389	-0.119986	0.161168
C43	C	0.676880	0.047709	0.000118
C44	C	0.675677	0.147779	0.000110
C45	C	0.776970	-0.109610	0.000140
C46	C	0.840194	-0.110804	0.000145
C47	C	0.668825	-0.282019	0.000126
C48	C	0.670028	-0.382089	0.000129
N49	N	0.672835	-0.117161	0.248870
C50	C	0.618719	0.559673	0.000118
C51	C	0.722466	0.582119	0.000136
C52	C	0.723597	0.488098	0.000131
C53	C	0.672288	0.429860	0.000121
C54	C	0.619848	0.465643	0.000116
C55	C	0.776036	0.452308	0.000146
C56	C	0.777169	0.358282	0.000141
C57	C	0.725859	0.300042	0.000124
C58	C	0.673417	0.335830	0.000118
C59	C	0.622108	0.277592	0.000107
C60	C	0.569665	0.313378	0.000095
C61	C	0.568538	0.407403	0.000098
C62	C	0.726986	0.206017	0.000120
C63	C	0.623237	0.183562	0.000105
C64	C	0.638255	-0.062770	0.299126
C65	C	0.707422	-0.171548	0.299120
C66	C	0.707429	-0.171548	0.399615
C67	C	0.672848	-0.117158	0.449871
C68	C	0.638262	-0.062767	0.399631
C69	C	0.742019	-0.225931	0.449863
C70	C	0.742027	-0.225933	0.550365
C71	C	0.707443	-0.171546	0.600622
C72	C	0.672855	-0.117154	0.550376
C73	C	0.638275	-0.062763	0.600632
C74	C	0.603683	-0.008375	0.550387
C75	C	0.603678	-0.008380	0.449888
C76	C	0.707448	-0.171541	0.701121
C77	C	0.638281	-0.062760	0.701137
N78	N	0.672868	-0.117151	0.751377
H79	H	0.392233	-0.121345	0.158023
C80	C	0.227179	-0.040549	0.322551
C81	C	0.235199	-0.118336	0.269866
H82	H	0.247331	-0.040926	0.381618
H83	H	0.187552	-0.039803	0.334993
H84	H	0.241224	0.011836	0.286777
H85	H	0.221149	-0.170722	0.305638
H86	H	0.274833	-0.119090	0.257427
H87	H	0.576021	0.588815	0.000104
H88	H	-0.046517	-0.112973	0.158054
C89	C	0.536274	-0.201708	-0.187919
C90	C	0.508461	-0.123551	-0.182607
H91	H	0.556440	-0.202079	-0.246974
H92	H	0.508796	-0.253837	-0.184318
H93	H	0.562457	-0.202203	-0.136073
H94	H	0.482275	-0.123059	-0.234449
H95	H	0.535943	-0.071409	-0.186217
H96	H	0.118991	-0.116083	-0.244821
C97	C	0.500446	-0.045782	0.235498
C98	C	0.508457	-0.123567	0.182804
H99	H	0.520603	-0.046165	0.294559
H100	H	0.460821	-0.045031	0.247949
H101	H	0.514492	0.006605	0.199724
H102	H	0.494408	-0.175954	0.218575
H103	H	0.548091	-0.124326	0.170355
C104	C	0.864124	0.500399	-0.081910
C105	C	0.832432	0.516324	0.000157
H106	H	0.898943	0.539921	-0.081899
H107	H	0.842630	0.511197	-0.137582
H108	H	0.872302	0.439279	-0.081895
H109	H	0.824250	0.577442	0.000138
H110	H	0.853930	0.505533	0.055843
C111	C	0.082710	-0.037801	0.275213
C112	C	0.110520	-0.115960	0.269877
H113	H	0.062568	-0.037420	0.334291
H114	H	0.056513	-0.037308	0.223401
H115	H	0.110193	0.014332	0.271583
H116	H	0.083036	-0.168093	0.273500
H117	H	0.136720	-0.116462	0.321704
H118	H	0.527890	0.265948	0.000093
H119	H	0.735579	-0.215825	0.258195
H120	H	0.819871	0.329153	0.000151
H121	H	0.769684	0.176884	0.000137
H122	H	0.525842	0.436549	0.000089
C123	C	0.766798	0.736218	0.000153
C124	C	0.778863	0.646132	0.000150
H125	H	0.801617	0.775737	0.000155
H126	H	0.745298	0.747002	0.055826
H127	H	0.745302	0.747011	-0.055530
H128	H	0.800355	0.635337	0.055837
H129	H	0.800371	0.635343	-0.055529
H130	H	0.610119	-0.018472	0.742048
H131	H	0.575516	0.035901	0.408970
H132	H	0.581454	0.136149	0.000092
C133	C	0.572943	0.039858	0.704454
C134	C	0.565672	0.051410	0.605633
H135	H	0.549474	0.076763	0.738560
H136	H	0.611889	0.056901	0.720950
H137	H	0.562388	-0.021924	0.720871
H138	H	0.576231	0.113192	0.589214
H139	H	0.526717	0.034373	0.589131
C140	C	0.810392	-0.333465	0.540253
C141	C	0.780043	-0.285724	0.605588
H142	H	0.833857	-0.370383	0.574349
H143	H	0.833694	-0.291780	0.501054
H144	H	0.784205	-0.370623	0.501055
H145	H	0.806231	-0.248561	0.644781
H146	H	0.756739	-0.327414	0.644804
H147	H	0.735615	-0.215820	0.742026
C148	C	0.615765	0.088065	0.268191
C149	C	0.600232	-0.002986	0.243907
H150	H	0.592288	0.124972	0.234105
H151	H	0.654709	0.105137	0.251699
H152	H	0.610822	0.095839	0.335240
H153	H	0.605179	-0.010761	0.176859
H154	H	0.561279	-0.020064	0.260393
C155	C	-0.221161	-0.109611	0.164467
C156	C	-0.162751	-0.110735	0.182855
H157	H	-0.241319	-0.109208	0.223529
H158	H	-0.235199	-0.162006	0.128723
H159	H	-0.226579	-0.056847	0.128692
H160	H	-0.157333	-0.163504	0.218624
H161	H	-0.148709	-0.058335	0.218615
C162	C	-0.124122	-0.111484	-0.258950
C163	C	-0.162744	-0.110750	-0.182563
H164	H	-0.144273	-0.111090	-0.318016
H165	H	-0.105261	-0.164504	-0.255326
H166	H	-0.096645	-0.059344	-0.255318
H167	H	-0.190218	-0.162893	-0.186191
H168	H	-0.181614	-0.057724	-0.186189
C169	C	-0.010243	-0.191282	-0.187889
C170	C	-0.038054	-0.113123	-0.182573
H171	H	0.009910	-0.191665	-0.246956
H172	H	-0.037722	-0.243409	-0.184265
H173	H	0.015950	-0.191769	-0.136058
H174	H	-0.064251	-0.112639	-0.234400
H175	H	-0.010572	-0.060982	-0.186207
C176	C	0.196596	-0.117565	-0.346006
C177	C	0.235214	-0.118303	-0.269621
H178	H	0.216748	-0.117958	-0.405073
H179	H	0.177736	-0.064543	-0.342384
H180	H	0.169117	-0.169703	-0.342372
H181	H	0.262690	-0.066161	-0.273252
H182	H	0.254084	-0.171330	-0.273245
C183	C	0.343245	-0.198030	-0.187914
C184	C	0.383750	-0.121178	-0.182602
H185	H	0.323092	-0.197642	-0.246980
H186	H	0.317058	-0.197520	-0.136085
H187	H	0.362116	-0.251049	-0.184297
H188	H	0.364878	-0.068158	-0.186212
H189	H	0.409941	-0.121680	-0.234446
H190	H	0.770176	-0.270207	0.408937
