data_functionalizedCrystal
_audit_creation_method	'MofGen! by Chris Wilmer'
_symmetry_space_group_name_H-M	'P1'
_symmetry_Int_Tables_number	1
_symmetry_cell_setting	triclinic
loop_
_symmetry_equiv_pos_as_xyz
  x,y,z
_cell_length_a	12.645330
_cell_length_b	19.077105
_cell_length_c	19.077174
_cell_angle_alpha	94.516248
_cell_angle_beta	92.276947
_cell_angle_gamma	92.285767
loop_
_atom_site_label
_atom_site_type_symbol
_atom_site_fract_x
_atom_site_fract_y
_atom_site_fract_z
Zn1	Zn	-0.515087	-1.093748	-0.441871
Zn2	Zn	-0.015087	-0.593748	0.058129
Zn3	Zn	-0.684943	-1.088947	-0.323992
Zn4	Zn	-0.184943	-0.588947	0.176008
Zn5	Zn	-0.500268	-0.971132	-0.319268
Zn6	Zn	-0.000268	-0.471132	0.180732
Zn7	Zn	-0.684874	-0.975841	-0.437110
Zn8	Zn	-0.184874	-0.475841	0.062890
O9	O	-0.596293	-1.032417	-0.380560
O10	O	-0.096293	-0.532417	0.119440
O11	O	-0.543849	-1.191762	-0.430204
O12	O	-0.043849	-0.691762	0.069796
O13	O	-0.654273	-1.069339	-0.224716
O14	O	-0.154273	-0.569339	0.275284
O15	O	-0.353889	-0.987436	-0.335547
O16	O	0.146111	-0.487436	0.164453
O17	O	-0.668642	-1.188235	-0.343599
O18	O	-0.168642	-0.688235	0.156401
O19	O	-0.364777	-1.077521	-0.425623
O20	O	0.135223	-0.577521	0.074377
O21	O	-0.518592	-0.982780	-0.221244
O22	O	-0.018592	-0.482780	0.278756
O23	O	-0.518525	-0.873106	-0.330930
O24	O	-0.018525	-0.373106	0.169070
O25	O	-0.668524	-0.995462	-0.536392
O26	O	-0.168524	-0.495462	-0.036392
O27	O	-0.654155	-0.876566	-0.417509
O28	O	-0.154155	-0.376566	0.082491
O29	O	-0.543782	-1.082087	-0.539890
O30	O	-0.043782	-0.582087	-0.039890
O31	O	-0.833278	-1.073905	-0.338983
O32	O	-0.333278	-0.573905	0.161017
O33	O	-0.833227	-0.990806	-0.422090
O34	O	-0.333227	-0.490806	0.077910
C35	C	-0.584725	-0.849257	-0.373190
C36	C	-0.084725	-0.349257	0.126810
C37	C	-0.579803	-0.770901	-0.370054
C38	C	-0.079803	-0.270901	0.129946
C39	C	-0.871719	-1.032365	-0.380548
C40	C	-0.371719	-0.532365	0.119452
C41	C	-0.989553	-1.032408	-0.380570
C42	C	-0.489553	-0.532408	0.119430
C43	C	-0.607798	-1.039835	-0.564435
C44	C	-0.107798	-0.539835	-0.064435
C45	C	-0.612701	-1.042997	-0.642791
C46	C	-0.112701	-0.542997	-0.142791
C47	C	-1.157153	-0.980362	-0.433029
C48	C	-0.657153	-0.480362	0.066971
C49	C	-1.034565	-0.980078	-0.432842
C50	C	-0.534565	-0.480078	0.067158
C51	C	-1.028198	-1.009319	-0.305469
C52	C	-0.528198	-0.509319	0.194531
C53	C	-1.150797	-1.009001	-0.305787
C54	C	-0.650797	-0.509001	0.194213
C55	C	-1.162550	-1.107851	-0.402621
C56	C	-0.662550	-0.607851	0.097379
C57	C	-1.040017	-1.107459	-0.404227
C58	C	-0.540017	-0.607459	0.095773
C59	C	-0.319794	-1.032489	-0.380589
C60	C	0.180206	-0.532489	0.119411
C61	C	-0.201966	-1.032519	-0.380601
C62	C	0.298034	-0.532519	0.119399
C63	C	-0.607907	-1.216292	-0.387960
C64	C	-0.107907	-0.716292	0.112040
C65	C	-0.612856	-1.294649	-0.391113
C66	C	-0.112856	-0.794649	0.108887
C67	C	-0.648203	-0.735906	-0.413587
C68	C	-0.148203	-0.235906	0.086413
C69	C	-0.643565	-0.662282	-0.410643
C70	C	-0.143565	-0.162282	0.089357
C71	C	-0.570530	-0.623654	-0.364164
C72	C	-0.070530	-0.123654	0.135836
C73	C	-0.502122	-0.658655	-0.320629
C74	C	-0.002122	-0.158655	0.179371
C75	C	-0.506757	-0.732277	-0.323577
C76	C	-0.006757	-0.232277	0.176423
C77	C	-0.549082	-0.403272	-0.350526
C78	C	-0.049082	0.096728	0.149474
C79	C	-0.544455	-0.329644	-0.347580
C80	C	-0.044455	0.170356	0.152420
C81	C	-0.685897	-0.333277	-0.437596
C82	C	-0.185897	0.166723	0.062404
C83	C	-0.690529	-0.406900	-0.440536
C84	C	-0.190529	0.093100	0.059464
C85	C	-0.622118	-0.441894	-0.397004
C86	C	-0.122118	0.058106	0.102996
N87	N	-0.565789	-0.548399	-0.361152
N88	N	-0.065789	-0.048399	0.138848
N89	N	-0.626854	-0.517148	-0.400020
N90	N	-0.126854	-0.017148	0.099980
C91	C	-0.544365	-0.999417	-0.677795
C92	C	-0.044365	-0.499417	-0.177795
C93	C	-0.548980	-1.002385	-0.751419
C94	C	-0.048980	-0.502385	-0.251419
C95	C	-0.621928	-1.048936	-0.790038
C96	C	-0.121928	-0.548936	-0.290038
C97	C	-0.690272	-1.092517	-0.755029
C98	C	-0.190272	-0.592517	-0.255029
C99	C	-0.685661	-1.089545	-0.681406
C100	C	-0.185661	-0.589545	-0.181406
C101	C	-0.643298	-1.062653	-1.010420
C102	C	-0.143298	-0.562653	-0.510420
C103	C	-0.647902	-1.065622	-1.084048
C104	C	-0.147902	-0.565622	-0.584048
C105	C	-0.506611	-0.975490	-1.080434
C106	C	-0.006611	-0.475490	-0.580434
C107	C	-0.502002	-0.972525	-1.006810
C108	C	-0.002002	-0.472525	-0.506810
C109	C	-0.570350	-1.016103	-0.971807
C110	C	-0.070350	-0.516103	-0.471807
N111	N	-0.626645	-1.051972	-0.865294
N112	N	-0.126645	-0.551972	-0.365294
N113	N	-0.565637	-1.013063	-0.896553
N114	N	-0.065637	-0.513063	-0.396553
C115	C	-0.584758	-1.025068	-0.197403
C116	C	-0.084758	-0.525068	0.302597
C117	C	-0.579565	-1.022043	-0.119053
C118	C	-0.079565	-0.522043	0.380947
H119	H	-1.008675	-0.994869	-0.488436
H120	H	-0.508675	-0.494869	0.011564
F121	F	-0.767915	-1.142056	-0.796131
F122	F	-0.267915	-0.642056	-0.296131
H123	H	-1.191585	-1.146746	-0.364472
H124	H	-0.691585	-0.646746	0.135528
H125	H	-0.998823	-1.045972	-0.265207
H126	H	-0.498823	-0.545972	0.234793
F127	F	-0.725943	-0.777009	-0.463054
F128	F	-0.225943	-0.277009	0.036946
H129	H	-1.190833	-0.995045	-0.488798
H130	H	-0.690833	-0.495045	0.011202
F131	F	-0.433954	-0.769521	-0.277245
F132	F	0.066046	-0.269521	0.222755
H133	H	-1.015267	-1.124817	-0.459512
H134	H	-0.515267	-0.624817	0.040488
F135	F	-0.758398	-1.135926	-0.644152
F136	F	-0.258398	-0.635926	-0.144152
H137	H	-0.993153	-0.954719	-0.286893
H138	H	-0.493153	-0.454719	0.213107
H139	H	-0.750004	-0.438346	-0.478383
H140	H	-0.250004	0.061654	0.021617
F141	F	-1.192011	-0.907906	-0.413893
F142	F	-0.692011	-0.407906	0.086107
F143	F	-0.466724	-0.288535	-0.298103
F144	F	0.033276	0.211465	0.201897
H145	H	-1.197906	-1.128332	-0.456612
H146	H	-0.697906	-0.628332	0.043388
F147	F	-0.476270	-0.440505	-0.304197
F148	F	0.023730	0.059495	0.195803
F149	F	-0.758701	-0.296028	-0.483920
F150	F	-0.258701	0.203972	0.016080
F151	F	-0.466718	-0.949875	-0.636701
F152	F	0.033282	-0.449875	-0.136701
H153	H	-1.001052	-0.924290	-0.418018
H154	H	-0.501052	-0.424290	0.081982
F155	F	-0.424387	-0.617542	-0.271166
F156	F	0.075613	-0.117542	0.228834
F157	F	-0.476284	-0.955976	-0.788669
F158	F	0.023716	-0.455976	-0.288669
H159	H	-0.442603	-0.934616	-0.975371
H160	H	0.057397	-0.434616	-0.475371
H161	H	-0.450967	-0.940010	-1.108941
H162	H	0.049033	-0.440010	-0.608941
H163	H	-0.707306	-1.103533	-1.115490
H164	H	-0.207306	-0.603533	-0.615490
F165	F	-0.716035	-1.109037	-0.973177
F166	F	-0.216035	-0.609037	-0.473177
H167	H	-1.175036	-0.953844	-0.287480
H168	H	-0.675036	-0.453844	0.212520
H169	H	-1.180190	-1.045180	-0.265231
H170	H	-0.680190	-0.545180	0.234769
F171	F	-1.000424	-1.161241	-0.358265
F172	F	-0.500424	-0.661241	0.141735
F173	F	-0.716366	-0.625041	-0.456977
F174	F	-0.216366	-0.125041	0.043023
