data_functionalizedCrystal
_audit_creation_method	'MofGen! by Chris Wilmer'
_symmetry_space_group_name_H-M	'P1'
_symmetry_Int_Tables_number	1
_symmetry_cell_setting	triclinic
loop_
_symmetry_equiv_pos_as_xyz
  x,y,z
_cell_length_a	21.295417
_cell_length_b	18.050591
_cell_length_c	18.050582
_cell_angle_alpha	89.979078
_cell_angle_beta	90.026755
_cell_angle_gamma	89.973488
loop_
_atom_site_label
_atom_site_type_symbol
_atom_site_fract_x
_atom_site_fract_y
_atom_site_fract_z
Zn1	Zn	-0.250716	-1.135281	0.420010
Zn2	Zn	0.082617	-0.801947	0.753343
Zn3	Zn	0.415950	-0.468614	1.086676
Zn4	Zn	-0.355977	-1.135186	0.295811
Zn5	Zn	-0.022644	-0.801853	0.629144
Zn6	Zn	0.310689	-0.468520	0.962477
Zn7	Zn	-0.250719	-1.011100	0.295821
Zn8	Zn	0.082615	-0.677767	0.629154
Zn9	Zn	0.415948	-0.344433	0.962488
Zn10	Zn	-0.355944	-1.011043	0.419946
Zn11	Zn	-0.022611	-0.677710	0.753280
Zn12	Zn	0.310722	-0.344376	1.086613
O13	O	-0.303339	-1.073153	0.357897
O14	O	0.029994	-0.739819	0.691230
O15	O	0.363327	-0.406486	1.024564
O16	O	-0.264692	-1.239193	0.403557
O17	O	0.068641	-0.905859	0.736890
O18	O	0.401974	-0.572526	1.070224
O19	O	-0.342030	-1.118710	0.191887
O20	O	-0.008696	-0.785377	0.525221
O21	O	0.324637	-0.452044	0.858554
O22	O	-0.162629	-1.027636	0.312326
O23	O	0.170704	-0.694303	0.645659
O24	O	0.504038	-0.360969	0.978992
O25	O	-0.342027	-1.239124	0.312308
O26	O	-0.008694	-0.905790	0.645642
O27	O	0.324639	-0.572457	0.978975
O28	O	-0.162627	-1.118871	0.403567
O29	O	0.170706	-0.785538	0.736900
O30	O	0.504039	-0.452204	1.070233
O31	O	-0.264697	-1.027545	0.191895
O32	O	0.068637	-0.694211	0.525228
O33	O	0.401970	-0.360878	0.858562
O34	O	-0.264664	-0.907168	0.312264
O35	O	0.068669	-0.573834	0.645597
O36	O	0.402002	-0.240501	0.978931
O37	O	-0.341971	-1.027539	0.523879
O38	O	-0.008637	-0.694206	0.857213
O39	O	0.324696	-0.360872	1.190546
O40	O	-0.341973	-0.907126	0.403458
O41	O	-0.008640	-0.573793	0.736792
O42	O	0.324694	-0.240459	1.070125
O43	O	-0.264660	-1.118816	0.523926
O44	O	0.068673	-0.785483	0.857259
O45	O	0.402007	-0.452149	1.190593
O46	O	-0.444062	-1.118655	0.312247
O47	O	-0.110729	-0.785322	0.645580
O48	O	0.222604	-0.451989	0.978913
O49	O	-0.444038	-1.027448	0.403449
O50	O	-0.110705	-0.694114	0.736782
O51	O	0.222629	-0.360781	1.070115
C52	C	-0.303316	-0.880200	0.357856
C53	C	0.030018	-0.546867	0.691189
C54	C	0.363351	-0.213534	1.024523
C55	C	-0.303321	-0.797655	0.357856
C56	C	0.030012	-0.464321	0.691189
C57	C	0.363346	-0.130988	1.024523
C58	C	-0.466891	-1.073055	0.357856
C59	C	-0.133557	-0.739722	0.691189
C60	C	0.199776	-0.406388	1.024522
C61	C	-0.536859	-1.073081	0.357863
C62	C	-0.203526	-0.739748	0.691196
C63	C	0.129808	-0.406415	1.024530
C64	C	-0.303311	-1.073182	0.551603
C65	C	0.030022	-0.739848	0.884936
C66	C	0.363355	-0.406515	1.218269
C67	C	-0.303299	-1.073194	0.634148
C68	C	0.030034	-0.739861	0.967482
C69	C	0.363367	-0.406527	1.300815
C70	C	-0.569717	-1.120615	0.310423
C71	C	-0.236384	-0.787282	0.643756
C72	C	0.096949	-0.453949	0.977090
C73	C	-0.635460	-1.120650	0.310440
C74	C	-0.302127	-0.787317	0.643773
C75	C	0.031207	-0.453984	0.977106
C76	C	-0.668341	-1.073138	0.357889
C77	C	-0.335008	-0.739804	0.691222
C78	C	-0.001675	-0.406471	1.024555
C79	C	-0.635475	-1.025600	0.405338
C80	C	-0.302142	-0.692267	0.738671
C81	C	0.031192	-0.358934	1.072005
C82	C	-0.569734	-1.025572	0.405325
C83	C	-0.236400	-0.692239	0.738659
C84	C	0.096933	-0.358906	1.071992
N85	N	-0.771604	-1.008171	0.363536
N86	N	-0.438270	-0.674837	0.696870
N87	N	-0.104937	-0.341504	1.030203
N88	N	-0.834055	-1.008200	0.363544
N89	N	-0.500722	-0.674866	0.696878
N90	N	-0.167389	-0.341533	1.030211
C91	C	-0.866416	-1.073221	0.357931
C92	C	-0.533083	-0.739888	0.691265
C93	C	-0.199749	-0.406554	1.024598
N94	N	-0.833966	-1.138214	0.352296
N95	N	-0.500633	-0.804880	0.685629
N96	N	-0.167300	-0.471547	1.018962
N97	N	-0.771509	-1.138184	0.352284
N98	N	-0.438176	-0.804851	0.685617
N99	N	-0.104842	-0.471517	1.018951
C100	C	-0.739627	-1.073163	0.357908
C101	C	-0.406293	-0.739830	0.691241
C102	C	-0.072960	-0.406497	1.024575
C103	C	-0.970560	-1.120797	0.310507
C104	C	-0.637227	-0.787463	0.643840
C105	C	-0.303893	-0.454130	0.977173
C106	C	-1.036304	-1.120833	0.310529
C107	C	-0.702970	-0.787499	0.643862
C108	C	-0.369637	-0.454166	0.977195
C109	C	-1.036318	-1.025776	0.405423
C110	C	-0.702984	-0.692443	0.738756
C111	C	-0.369651	-0.359110	1.072090
C112	C	-0.970575	-1.025747	0.405405
C113	C	-0.637242	-0.692414	0.738738
C114	C	-0.303909	-0.359080	1.072072
C115	C	-0.937700	-1.073256	0.357943
C116	C	-0.604367	-0.739923	0.691276
C117	C	-0.271034	-0.406589	1.024610
C118	C	-0.139149	-1.073270	0.357954
C119	C	0.194184	-0.739937	0.691288
C120	C	0.527518	-0.406604	1.024621
C121	C	-0.069181	-1.073321	0.357979
C122	C	0.264153	-0.739987	0.691312
C123	C	0.597486	-0.406654	1.024646
C124	C	-0.303363	-1.266858	0.357939
C125	C	0.029970	-0.933525	0.691272
C126	C	0.363304	-0.600191	1.024605
C127	C	-0.303373	-1.349404	0.357956
C128	C	0.029960	-1.016071	0.691290
C129	C	0.363293	-0.682737	1.024623
C130	C	-0.261232	-0.598205	0.308379
C131	C	0.072102	-0.264872	0.641712
C132	C	0.405435	0.068461	0.975045
C133	C	-0.318646	-0.548783	0.290098
C134	C	0.014687	-0.215449	0.623431
C135	C	0.348020	0.117884	0.956764
C136	C	-0.303340	-0.646524	0.357889
C137	C	0.029993	-0.313191	0.691223
C138	C	0.363327	0.020142	1.024556
C139	C	-0.245945	-0.548865	0.376169
C140	C	0.087388	-0.215532	0.709502
C141	C	0.420722	0.117802	1.042835
C142	C	-0.303353	-0.500539	0.357920
C143	C	0.029980	-0.167206	0.691254
C144	C	0.363313	0.166128	1.024587
C145	C	-0.360785	-0.598189	0.339573
C146	C	-0.027452	-0.264856	0.672906
C147	C	0.305882	0.068478	1.006240
C148	C	-0.288045	-0.598276	0.425676
C149	C	0.045289	-0.264942	0.759009
C150	C	0.378622	0.068391	1.092342
C151	C	-0.345499	-0.548875	0.407420
C152	C	-0.012166	-0.215542	0.740754
C153	C	0.321167	0.117791	1.074087
C154	C	-0.303331	-0.730623	0.357870
C155	C	0.030002	-0.397289	0.691203
C156	C	0.363335	-0.063956	1.024536
C157	C	-0.303368	-0.416443	0.357940
C158	C	0.029965	-0.083109	0.691274
C159	C	0.363298	0.250224	1.024607
C160	C	-0.303322	-1.073166	0.164945
C161	C	0.030012	-0.739833	0.498278
C162	C	0.363345	-0.406500	0.831611
C163	C	-0.303156	-1.073298	0.082399
C164	C	0.030177	-0.739964	0.415733
C165	C	0.363511	-0.406631	0.749066
C166	C	-0.345283	-1.023596	0.833574
C167	C	-0.011950	-0.690262	1.166907
C168	C	0.321383	-0.356929	1.500240
C169	C	-0.360675	-1.091350	0.882971
C170	C	-0.027341	-0.758017	1.216304
C171	C	0.305992	-0.424683	1.549638
C172	C	-0.303251	-1.073231	0.785279
C173	C	0.030082	-0.739897	1.118612
C174	C	0.363415	-0.406564	1.451946
C175	C	-0.287842	-1.005513	0.882964
C176	C	0.045491	-0.672180	1.216297
C177	C	0.378824	-0.338847	1.549630
C178	C	-0.303206	-1.073260	0.931264
C179	C	0.030127	-0.739927	1.264597
C180	C	0.363461	-0.406593	1.597931
C181	C	-0.318673	-1.141021	0.833589
C182	C	0.014661	-0.807687	1.166922
C183	C	0.347994	-0.474354	1.500255
C184	C	-0.245814	-1.055138	0.833577
C185	C	0.087520	-0.721805	1.166910
C186	C	0.420853	-0.388472	1.500244
C187	C	-0.261183	-1.122940	0.882952
C188	C	0.072150	-0.789606	1.216285
C189	C	0.405483	-0.456273	1.549619
C190	C	-0.303279	-1.073213	0.701181
C191	C	0.030054	-0.739879	1.034514
C192	C	0.363388	-0.406546	1.367847
C193	C	-0.303178	-1.073286	1.015361
C194	C	0.030155	-0.739952	1.348694
C195	C	0.363488	-0.406619	1.682027
H196	H	-0.542953	-1.159302	0.271778
H197	H	-0.209619	-0.825969	0.605112
H198	H	0.123714	-0.492635	0.938445
H199	H	-0.381156	-0.527352	0.449303
H200	H	-0.047822	-0.194019	0.782636
H201	H	0.285511	0.139314	1.115970
C202	C	-0.671612	-1.172940	0.258246
C203	C	-0.338278	-0.839606	0.591579
C204	C	-0.004945	-0.506273	0.924912
N205	N	-0.698839	-1.212322	0.218931
N206	N	-0.365506	-0.878989	0.552265
N207	N	-0.032172	-0.545656	0.885598
C208	C	-0.533588	-0.973288	0.457525
C209	C	-0.200255	-0.639955	0.790858
C210	C	0.133078	-0.306621	1.124191
N211	N	-0.506363	-0.933910	0.496845
N212	N	-0.173029	-0.600576	0.830178
N213	N	0.160304	-0.267243	1.163512
H214	H	-1.063089	-0.987094	0.444060
H215	H	-0.729756	-0.653761	0.777394
H216	H	-0.396422	-0.320427	1.110727
H217	H	-0.274828	-0.948233	0.904653
H218	H	0.058505	-0.614900	1.237986
H219	H	0.391838	-0.281567	1.571319
C220	C	-0.180364	-0.519597	0.397041
C221	C	0.152969	-0.186264	0.730374
C222	C	0.486302	0.147070	1.063708
N223	N	-0.130968	-0.497556	0.412757
N224	N	0.202366	-0.164222	0.746091
N225	N	0.535699	0.169111	1.079424
C226	C	-0.426383	-0.627335	0.318609
C227	C	-0.093050	-0.294002	0.651942
C228	C	0.240283	0.039332	0.985276
N229	N	-0.475790	-0.649289	0.302815
N230	N	-0.142457	-0.315956	0.636149
N231	N	0.190876	0.017377	0.969482
H232	H	-0.662251	-0.986917	0.443973
H233	H	-0.328918	-0.653583	0.777306
H234	H	0.004415	-0.320250	1.110639
H235	H	-0.409229	-1.106671	0.904667
H236	H	-0.075896	-0.773337	1.238001
H237	H	0.257437	-0.440004	1.571334
C238	C	-0.180239	-1.034412	0.804238
C239	C	0.153095	-0.701079	1.137571
C240	C	0.486428	-0.367745	1.470905
N241	N	-0.130848	-1.018792	0.782137
N242	N	0.202486	-0.685459	1.115471
N243	N	0.535819	-0.352126	1.448804
H244	H	-0.380875	-0.981660	0.811894
H245	H	-0.047542	-0.648327	1.145227
H246	H	0.285792	-0.314994	1.478561
C247	C	-0.336335	-1.218425	0.804414
C248	C	-0.003002	-0.885091	1.137747
C249	C	0.330332	-0.551758	1.471081
N250	N	-0.349641	-1.276723	0.782438
N251	N	-0.016307	-0.943390	1.115771
N252	N	0.317026	-0.610057	1.449104
H253	H	-0.331593	-0.527044	0.232786
H254	H	0.001740	-0.193711	0.566119
H255	H	0.335073	0.139622	0.899452
H256	H	-0.225619	-1.164975	0.904496
H257	H	0.107714	-0.831642	1.237829
H258	H	0.441048	-0.498309	1.571162
H259	H	-0.943792	-1.159484	0.271862
H260	H	-0.610459	-0.826151	0.605196
H261	H	-0.277126	-0.492817	0.938529
C262	C	-0.270528	-0.627675	0.503076
C263	C	0.062805	-0.294342	0.836409
C264	C	0.396139	0.038991	1.169743
N265	N	-0.257326	-0.649823	0.561374
N266	N	0.076007	-0.316489	0.894707
N267	N	0.409340	0.016844	1.228040
H268	H	-1.063056	-1.159545	0.271899
H269	H	-0.729723	-0.826212	0.605232
H270	H	-0.396389	-0.492879	0.938565
C271	C	-0.934429	-0.973470	0.457609
C272	C	-0.601096	-0.640137	0.790942
C273	C	-0.267763	-0.306803	1.124275
N274	N	-0.907205	-0.934101	0.496940
N275	N	-0.573871	-0.600768	0.830273
N276	N	-0.240538	-0.267434	1.163606
H277	H	-0.225660	-0.619865	0.266464
H278	H	0.107673	-0.286531	0.599797
H279	H	0.441006	0.046802	0.933130
