data_functionalizedCrystal
_audit_creation_method	'MofGen! by Chris Wilmer'
_symmetry_space_group_name_H-M	'P1'
_symmetry_Int_Tables_number	1
_symmetry_cell_setting	triclinic
loop_
_symmetry_equiv_pos_as_xyz
  x,y,z
_cell_length_a	17.000371
_cell_length_b	14.519709
_cell_length_c	13.596369
_cell_angle_alpha	90.006934
_cell_angle_beta	89.994129
_cell_angle_gamma	100.360304
loop_
_atom_site_label
_atom_site_type_symbol
_atom_site_fract_x
_atom_site_fract_y
_atom_site_fract_z
O1	O	1.056151	-0.033229	-0.081796
O2	O	0.824466	-0.066696	-0.081798
O3	O	0.946451	0.084786	-0.081788
O4	O	0.934165	-0.184711	-0.081806
O5	O	0.946439	0.084792	0.081795
O6	O	0.824453	-0.066690	0.081785
O7	O	1.056139	-0.033222	0.081787
Zn8	Zn	0.940294	-0.049955	0.107758
Zn9	Zn	0.940310	-0.049963	-0.107769
O10	O	0.934153	-0.184704	0.081777
C11	C	0.794808	-0.068490	-0.000006
C12	C	0.706457	-0.073836	-0.000007
C13	C	0.674315	0.008422	0.000000
C14	C	0.591299	0.003394	-0.000007
C15	C	0.540427	-0.083893	-0.000015
C16	C	0.572575	-0.166156	-0.000025
C17	C	0.655589	-0.161127	-0.000024
C18	C	0.289309	-0.103318	-0.000023
C19	C	0.206289	-0.108340	-0.000020
C20	C	0.225019	0.061210	-0.000004
C21	C	0.308034	0.066232	0.000002
C22	C	0.340175	-0.016032	-0.000013
C23	C	0.455571	-0.089034	-0.000019
C24	C	0.425029	-0.010890	-0.000016
C25	C	0.945872	0.119101	0.000004
C26	C	0.944157	0.221340	0.000004
C27	C	1.085796	-0.031428	-0.000007
C28	C	1.174147	-0.026083	-0.000013
C29	C	0.934732	-0.219020	-0.000017
C30	C	0.936448	-0.321259	-0.000024
N31	N	0.940289	-0.049948	0.254850
C32	C	0.937840	0.595712	-0.000021
C33	C	0.939594	0.491549	-0.000014
C34	C	0.940998	0.408529	-0.000008
C35	C	0.942753	0.304360	-0.000002
N36	N	0.940322	-0.049963	-0.254861
C37	C	0.940309	-0.049965	0.656141
C38	C	0.940301	-0.049963	0.544490
C39	C	0.940299	-0.049957	0.455499
C40	C	0.940291	-0.049954	0.343841
H41	H	0.715730	0.079500	0.000011
O42	O	0.320391	-0.183316	0.000016
C43	C	0.293046	-0.352017	-0.000047
C44	C	0.257735	-0.261488	-0.000070
H45	H	0.242406	-0.415242	-0.000138
H46	H	0.331409	-0.353965	0.068427
H47	H	0.331474	-0.353857	-0.068491
H48	H	0.219271	-0.259587	0.068327
H49	H	0.219418	-0.259576	-0.068590
O50	O	0.156840	-0.193115	0.000143
C51	C	0.052210	-0.297168	0.084855
C52	C	0.108176	-0.201146	0.084800
H53	H	0.012839	-0.303684	0.153283
H54	H	0.089404	-0.355137	0.084906
H55	H	0.012915	-0.303743	0.016368
H56	H	0.147482	-0.194479	0.153277
H57	H	0.070934	-0.143223	0.084698
O58	O	0.474523	0.073843	-0.000139
C59	C	0.579097	0.177932	-0.084903
C60	C	0.523095	0.081935	-0.084879
H61	H	0.618370	0.184513	-0.153418
H62	H	0.618480	0.184534	-0.016490
H63	H	0.541853	0.235851	-0.084846
H64	H	0.560276	0.023959	-0.084971
H65	H	0.483709	0.075414	-0.153286
H66	H	0.565133	0.070377	-0.000002
O67	O	0.523079	-0.250892	-0.000163
C68	C	0.418523	-0.354994	-0.084944
C69	C	0.474517	-0.258990	-0.084902
H70	H	0.379258	-0.361580	-0.153457
H71	H	0.379132	-0.361600	-0.016530
H72	H	0.455774	-0.412906	-0.084902
H73	H	0.437329	-0.201021	-0.084977
H74	H	0.513911	-0.252465	-0.153310
H75	H	0.349450	0.137309	0.000013
H76	H	0.681758	-0.228110	-0.000026
H77	H	0.198841	0.128185	-0.000003
H78	H	0.414142	-0.160103	-0.000024
