data_functionalizedCrystal
_audit_creation_method	'MofGen! by Chris Wilmer'
_symmetry_space_group_name_H-M	'P1'
_symmetry_Int_Tables_number	1
_symmetry_cell_setting	triclinic
loop_
_symmetry_equiv_pos_as_xyz
  x,y,z
_cell_length_a	18.050590
_cell_length_b	18.050589
_cell_length_c	18.050582
_cell_angle_alpha	89.981795
_cell_angle_beta	90.000767
_cell_angle_gamma	90.017386
loop_
_atom_site_label
_atom_site_type_symbol
_atom_site_fract_x
_atom_site_fract_y
_atom_site_fract_z
Zn1	Zn	1.135292	-0.295921	-0.419624
Zn2	Zn	1.385292	-0.045921	-0.169624
Zn3	Zn	1.635292	0.204079	0.080376
Zn4	Zn	1.885292	0.454079	0.330376
Zn5	Zn	1.135203	-0.420105	-0.295444
Zn6	Zn	1.385203	-0.170105	-0.045444
Zn7	Zn	1.635203	0.079895	0.204556
Zn8	Zn	1.885203	0.329895	0.454556
Zn9	Zn	1.011112	-0.295910	-0.295482
Zn10	Zn	1.261112	-0.045910	-0.045482
Zn11	Zn	1.511112	0.204090	0.204518
Zn12	Zn	1.761112	0.454090	0.454518
Zn13	Zn	1.011060	-0.420051	-0.419626
Zn14	Zn	1.261060	-0.170051	-0.169626
Zn15	Zn	1.511060	0.079949	0.080374
Zn16	Zn	1.761060	0.329949	0.330374
O17	O	1.073167	-0.357997	-0.357544
O18	O	1.323167	-0.107997	-0.107544
O19	O	1.573167	0.142003	0.142456
O20	O	1.823167	0.392003	0.392456
O21	O	1.239205	-0.312422	-0.403134
O22	O	1.489205	-0.062422	-0.153134
O23	O	1.739205	0.187578	0.096866
O24	O	1.989205	0.437578	0.346866
O25	O	1.118727	-0.403648	-0.191524
O26	O	1.368727	-0.153648	0.058476
O27	O	1.618727	0.096352	0.308476
O28	O	1.868727	0.346352	0.558476
O29	O	1.027644	-0.191987	-0.311965
O30	O	1.277644	0.058013	-0.061965
O31	O	1.527644	0.308013	0.188035
O32	O	1.777644	0.558013	0.438035
O33	O	1.239140	-0.403659	-0.311899
O34	O	1.489140	-0.153659	-0.061899
O35	O	1.739140	0.096341	0.188101
O36	O	1.989140	0.346341	0.438101
O37	O	1.118879	-0.191995	-0.403172
O38	O	1.368879	0.058005	-0.153172
O39	O	1.618879	0.308005	0.096828
O40	O	1.868879	0.558005	0.346828
O41	O	1.027557	-0.312402	-0.191553
O42	O	1.277557	-0.062402	0.058447
O43	O	1.527557	0.187598	0.308447
O44	O	1.777557	0.437598	0.558447
O45	O	0.907180	-0.312350	-0.311967
O46	O	1.157180	-0.062350	-0.061967
O47	O	1.407180	0.187650	0.188033
O48	O	1.657180	0.437650	0.438033
O49	O	1.027555	-0.403567	-0.523550
O50	O	1.277555	-0.153567	-0.273550
O51	O	1.527555	0.096433	-0.023550
O52	O	1.777555	0.346433	0.226450
O53	O	0.907142	-0.403555	-0.403175
O54	O	1.157142	-0.153555	-0.153175
O55	O	1.407142	0.096445	0.096825
O56	O	1.657142	0.346445	0.346825
O57	O	1.118828	-0.312370	-0.523549
O58	O	1.368828	-0.062370	-0.273549
O59	O	1.618828	0.187630	-0.023549
O60	O	1.868828	0.437630	0.226451
O61	O	1.118676	-0.524022	-0.311901
O62	O	1.368676	-0.274022	-0.061901
O63	O	1.618676	-0.024022	0.188099
O64	O	1.868676	0.225978	0.438099
O65	O	1.027468	-0.523982	-0.403138
O66	O	1.277468	-0.273982	-0.153138
O67	O	1.527468	-0.023982	0.096862
O68	O	1.777468	0.226018	0.346862
C69	C	0.880215	-0.357946	-0.357576
C70	C	1.130215	-0.107946	-0.107576
C71	C	1.380215	0.142054	0.142424
C72	C	1.630215	0.392054	0.392424
C73	C	0.797669	-0.357942	-0.357607
C74	C	1.047669	-0.107942	-0.107607
C75	C	1.297669	0.142058	0.142393
C76	C	1.547669	0.392058	0.392393
C77	C	1.073077	-0.550949	-0.357532
C78	C	1.323077	-0.300949	-0.107532
C79	C	1.573077	-0.050949	0.142468
C80	C	1.823077	0.199051	0.392468
C81	C	1.073107	-0.633494	-0.357551
C82	C	1.323107	-0.383494	-0.107551
C83	C	1.573107	-0.133494	0.142449
C84	C	1.823107	0.116506	0.392449
C85	C	0.598219	-0.407682	-0.407088
C86	C	0.848219	-0.157682	-0.157088
C87	C	1.098219	0.092318	0.092912
C88	C	1.348219	0.342318	0.342912
C89	C	0.548826	-0.339967	-0.425358
C90	C	0.798826	-0.089967	-0.175358
C91	C	1.048826	0.160033	0.074642
C92	C	1.298826	0.410033	0.324642
C93	C	0.646538	-0.357984	-0.357571
C94	C	0.896538	-0.107984	-0.107571
C95	C	1.146538	0.142016	0.142429
C96	C	1.396538	0.392016	0.392429
C97	C	0.548850	-0.425737	-0.339300
C98	C	0.798850	-0.175737	-0.089300
C99	C	1.048850	0.074263	0.160700
C100	C	1.298850	0.324263	0.410700
C101	C	0.500553	-0.358030	-0.357537
C102	C	0.750553	-0.108030	-0.107537
C103	C	1.000553	0.141970	0.142463
C104	C	1.250553	0.391970	0.392463
C105	C	0.598233	-0.290233	-0.375876
C106	C	0.848233	-0.040233	-0.125876
C107	C	1.098233	0.209767	0.124124
C108	C	1.348233	0.459767	0.374124
C109	C	0.598261	-0.376049	-0.289787
C110	C	0.848261	-0.126049	-0.039787
C111	C	1.098261	0.123951	0.210213
C112	C	1.348261	0.373951	0.460213
C113	C	0.548890	-0.308287	-0.308031
C114	C	0.798890	-0.058287	-0.058031
C115	C	1.048890	0.191713	0.191969
C116	C	1.298890	0.441713	0.441969
C117	C	0.730637	-0.357958	-0.357592
C118	C	0.980637	-0.107958	-0.107592
C119	C	1.230637	0.142042	0.142408
C120	C	1.480637	0.392042	0.392408
C121	C	0.416457	-0.358047	-0.357516
C122	C	0.666457	-0.108047	-0.107516
C123	C	0.916457	0.141953	0.142484
C124	C	1.166457	0.391953	0.392484
C125	C	1.023557	-0.832950	-0.407148
C126	C	1.273557	-0.582950	-0.157148
C127	C	1.523557	-0.332950	0.092852
C128	C	1.773557	-0.082950	0.342852
C129	C	1.005459	-0.882381	-0.339386
C130	C	1.255459	-0.632381	-0.089386
C131	C	1.505459	-0.382381	0.160614
C132	C	1.755459	-0.132381	0.410614
C133	C	1.073180	-0.784625	-0.357561
C134	C	1.323180	-0.534625	-0.107561
C135	C	1.573180	-0.284625	0.142439
C136	C	1.823180	-0.034625	0.392439
C137	C	1.091314	-0.882276	-0.425331
C138	C	1.341314	-0.632276	-0.175331
C139	C	1.591314	-0.382276	0.074669
C140	C	1.841314	-0.132276	0.324669
C141	C	1.073249	-0.930610	-0.357576
C142	C	1.323249	-0.680610	-0.107576
C143	C	1.573249	-0.430610	0.142424
C144	C	1.823249	-0.180610	0.392424
C145	C	1.055046	-0.832968	-0.289763
C146	C	1.305046	-0.582968	-0.039763
C147	C	1.555046	-0.332968	0.210237
C148	C	1.805046	-0.082968	0.460237
C149	C	1.140933	-0.832859	-0.375754
C150	C	1.390933	-0.582859	-0.125754
C151	C	1.640933	-0.332859	0.124246
C152	C	1.890933	-0.082859	0.374246
C153	C	1.122861	-0.882267	-0.307945
C154	C	1.372861	-0.632267	-0.057945
C155	C	1.622861	-0.382267	0.192055
C156	C	1.872861	-0.132267	0.442055
C157	C	1.073138	-0.700527	-0.357553
C158	C	1.323138	-0.450527	-0.107553
C159	C	1.573138	-0.200527	0.142447
C160	C	1.823138	0.049473	0.392447
C161	C	1.073290	-1.014706	-0.357576
C162	C	1.323290	-0.764706	-0.107576
C163	C	1.573290	-0.514706	0.142424
C164	C	1.823290	-0.264706	0.392424
C165	C	1.266872	-0.358048	-0.357512
C166	C	1.516872	-0.108048	-0.107512
C167	C	1.766872	0.141952	0.142488
C168	C	2.016872	0.391952	0.392488
C169	C	1.349418	-0.358070	-0.357499
C170	C	1.599418	-0.108070	-0.107499
C171	C	1.849418	0.141930	0.142501
C172	C	2.099418	0.391930	0.392501
C173	C	1.073196	-0.357964	-0.551250
C174	C	1.323196	-0.107964	-0.301250
C175	C	1.573196	0.142036	-0.051250
C176	C	1.823196	0.392036	0.198750
C177	C	1.073208	-0.357950	-0.633796
C178	C	1.323208	-0.107950	-0.383796
C179	C	1.573208	0.142050	-0.133796
C180	C	1.823208	0.392050	0.116204
C181	C	1.073277	-0.164291	-0.357573
C182	C	1.323277	0.085709	-0.107573
C183	C	1.573277	0.335709	0.142427
C184	C	1.823277	0.585709	0.392427
C185	C	1.073324	-0.081745	-0.357585
C186	C	1.323324	0.168255	-0.107585
C187	C	1.573324	0.418255	0.142415
C188	C	1.823324	0.668255	0.392415
C189	C	1.023612	-0.407475	-0.833247
C190	C	1.273612	-0.157475	-0.583247
C191	C	1.523612	0.092525	-0.333247
C192	C	1.773612	0.342525	-0.083247
C193	C	1.091367	-0.425641	-0.882621
C194	C	1.341367	-0.175641	-0.632621
C195	C	1.591367	0.074359	-0.382621
C196	C	1.841367	0.324359	-0.132621
C197	C	1.073245	-0.357893	-0.784926
C198	C	1.323245	-0.107893	-0.534926
C199	C	1.573245	0.142107	-0.284926
C200	C	1.823245	0.392107	-0.034926
C201	C	1.005527	-0.339706	-0.882634
C202	C	1.255527	-0.089706	-0.632634
C203	C	1.505527	0.160294	-0.382634
C204	C	1.755527	0.410294	-0.132634
C205	C	1.073274	-0.357840	-0.930911
C206	C	1.323274	-0.107840	-0.680911
C207	C	1.573274	0.142160	-0.430911
C208	C	1.823274	0.392160	-0.180911
C209	C	1.141036	-0.376095	-0.833213
C210	C	1.391036	-0.126095	-0.583213
C211	C	1.641036	0.123905	-0.333213
C212	C	1.891036	0.373905	-0.083213
C213	C	1.055150	-0.290128	-0.833221
C214	C	1.305150	-0.040128	-0.583221
C215	C	1.555150	0.209872	-0.333221
C216	C	1.805150	0.459872	-0.083221
C217	C	1.122952	-0.308269	-0.882573
C218	C	1.372952	-0.058269	-0.632573
C219	C	1.622952	0.191731	-0.382573
C220	C	1.872952	0.441731	-0.132573
C221	C	1.073227	-0.357926	-0.700828
C222	C	1.323227	-0.107926	-0.450828
C223	C	1.573227	0.142074	-0.200828
C224	C	1.823227	0.392074	0.049172
C225	C	1.073300	-0.357807	-1.015008
C226	C	1.323300	-0.107807	-0.765008
C227	C	1.573300	0.142193	-0.515008
C228	C	1.823300	0.392193	-0.265008
C229	C	1.073180	-0.357976	-0.164592
C230	C	1.323180	-0.107976	0.085408
C231	C	1.573180	0.142024	0.335408
C232	C	1.823180	0.392024	0.585408
C233	C	1.073312	-0.357781	-0.082047
C234	C	1.323312	-0.107781	0.167953
C235	C	1.573312	0.142219	0.417953
C236	C	1.823312	0.392219	0.667953
H237	H	0.527112	-0.324702	-0.482668
H238	H	0.777112	-0.074702	-0.232668
H239	H	1.027112	0.175298	0.017332
H240	H	1.277112	0.425298	0.267332
N241	N	0.520124	-0.501609	-0.318840
N242	N	0.770124	-0.251609	-0.068840
N243	N	1.020124	-0.001609	0.181160
N244	N	1.270124	0.248391	0.431160
H245	H	0.489347	-0.498019	-0.272251
H246	H	0.739347	-0.248019	-0.022251
H247	H	0.989347	0.001981	0.227749
H248	H	1.239347	0.251981	0.477749
H249	H	0.488570	-0.521445	-0.360569
H250	H	0.738570	-0.271445	-0.110569
H251	H	0.988570	-0.021445	0.139431
H252	H	1.238570	0.228555	0.389431
H253	H	0.948195	-0.904150	-0.324012
H254	H	1.198195	-0.654150	-0.074012
H255	H	1.448195	-0.404150	0.175988
H256	H	1.698195	-0.154150	0.425988
N257	N	1.216929	-0.396589	-0.804618
N258	N	1.466929	-0.146589	-0.554618
N259	N	1.716929	0.103411	-0.304618
N260	N	1.966929	0.353411	-0.054618
H261	H	1.254498	-0.359394	-0.822980
H262	H	1.504498	-0.109394	-0.572980
H263	H	1.754498	0.140606	-0.322980
H264	H	2.004498	0.390606	-0.072980
H265	H	1.216401	-0.396541	-0.748669
H266	H	1.466401	-0.146541	-0.498669
H267	H	1.716401	0.103459	-0.248669
H268	H	1.966401	0.353459	0.001331
H269	H	0.981530	-0.811296	-0.449023
H270	H	1.231530	-0.561296	-0.199023
H271	H	1.481530	-0.311296	0.050977
H272	H	1.731530	-0.061296	0.300977
N273	N	1.034681	-0.804406	-0.213830
N274	N	1.284681	-0.554406	0.036170
N275	N	1.534681	-0.304406	0.286170
N276	N	1.784681	-0.054406	0.536170
H277	H	1.034759	-0.748455	-0.214298
H278	H	1.284759	-0.498455	0.035702
H279	H	1.534759	-0.248455	0.285702
H280	H	1.784759	0.001545	0.535702
H281	H	0.983707	-0.822912	-0.200027
H282	H	1.233707	-0.572912	0.049973
H283	H	1.483707	-0.322912	0.299973
H284	H	1.733707	-0.072912	0.549973
H285	H	1.164855	-0.903785	-0.265968
H286	H	1.414855	-0.653785	-0.015968
H287	H	1.664855	-0.403785	0.234032
H288	H	1.914855	-0.153785	0.484032
H289	H	1.164986	-0.266316	-0.904094
H290	H	1.414986	-0.016316	-0.654094
H291	H	1.664986	0.233684	-0.404094
H292	H	1.914986	0.483684	-0.154094
N293	N	1.111659	-0.501516	-0.911378
N294	N	1.361659	-0.251516	-0.661378
N295	N	1.611659	-0.001516	-0.411378
N296	N	1.861659	0.248484	-0.161378
H297	H	1.158254	-0.497967	-0.942156
H298	H	1.408254	-0.247967	-0.692156
H299	H	1.658254	0.002033	-0.442156
H300	H	1.908254	0.252033	-0.192156
H301	H	1.120350	-0.536077	-0.868235
H302	H	1.370350	-0.286077	-0.618235
H303	H	1.620350	-0.036077	-0.368235
H304	H	1.870350	0.213923	-0.118235
N305	N	1.034829	-0.214274	-0.804444
N306	N	1.284829	0.035726	-0.554444
N307	N	1.534829	0.285726	-0.304444
N308	N	1.784829	0.535726	-0.054444
H309	H	0.983627	-0.200601	-0.822386
H310	H	1.233627	0.049399	-0.572386
H311	H	1.483627	0.299399	-0.322386
H312	H	1.733627	0.549399	-0.072386
H313	H	1.035492	-0.214806	-0.748498
H314	H	1.285492	0.035194	-0.498498
H315	H	1.535492	0.285194	-0.248498
H316	H	1.785492	0.535194	0.001502
N317	N	0.626915	-0.463253	-0.462618
N318	N	0.876915	-0.213253	-0.212618
N319	N	1.126915	0.036747	0.037382
N320	N	1.376915	0.286747	0.287382
H321	H	0.682864	-0.463176	-0.461906
H322	H	0.932864	-0.213176	-0.211906
H323	H	1.182864	0.036824	0.038094
H324	H	1.432864	0.286824	0.288094
H325	H	0.608127	-0.514261	-0.449325
H326	H	0.858127	-0.264261	-0.199325
H327	H	1.108127	-0.014261	0.050675
H328	H	1.358127	0.235739	0.300675
H329	H	1.198184	-0.811091	-0.391160
H330	H	1.448184	-0.561091	-0.141160
H331	H	1.698184	-0.311091	0.108840
H332	H	1.948184	-0.061091	0.358840
N333	N	1.111597	-0.910974	-0.501235
N334	N	1.361597	-0.660974	-0.251235
N335	N	1.611597	-0.410974	-0.001235
N336	N	1.861597	-0.160974	0.248765
H337	H	1.074050	-0.893035	-0.538642
H338	H	1.324050	-0.643035	-0.288642
H339	H	1.574050	-0.393035	-0.038642
H340	H	1.824050	-0.143035	0.211358
H341	H	1.162396	-0.892181	-0.515292
H342	H	1.412396	-0.642181	-0.265292
H343	H	1.662396	-0.392181	-0.015292
H344	H	1.912396	-0.142181	0.234708
H345	H	0.948246	-0.324346	-0.904342
H346	H	1.198246	-0.074346	-0.654342
H347	H	1.448246	0.175654	-0.404342
H348	H	1.698246	0.425654	-0.154342
N349	N	0.626836	-0.214335	-0.396413
N350	N	0.876836	0.035665	-0.146413
N351	N	1.126836	0.285665	0.103587
N352	N	1.376836	0.535665	0.353587
H353	H	0.682788	-0.214791	-0.396320
H354	H	0.932788	0.035209	-0.146320
H355	H	1.182788	0.285209	0.103680
H356	H	1.432788	0.535209	0.353680
H357	H	0.608364	-0.200638	-0.447423
H358	H	0.858364	0.049362	-0.197423
H359	H	1.108364	0.299362	0.052577
H360	H	1.358364	0.549362	0.302577
N361	N	0.520380	-0.252580	-0.252543
N362	N	0.770380	-0.002580	-0.002543
N363	N	1.020380	0.247420	0.247457
N364	N	1.270380	0.497420	0.497457
H365	H	0.488862	-0.214528	-0.278800
H366	H	0.738862	0.035472	-0.028800
H367	H	0.988862	0.285472	0.221200
H368	H	1.238862	0.535472	0.471200
H369	H	0.489615	-0.278869	-0.213890
H370	H	0.739615	-0.028869	0.036110
H371	H	0.989615	0.221131	0.286110
H372	H	1.239615	0.471131	0.536110
N373	N	0.627041	-0.396285	-0.213891
N374	N	0.877041	-0.146285	0.036109
N375	N	1.127041	0.103715	0.286109
N376	N	1.377041	0.353715	0.536109
H377	H	0.609107	-0.447482	-0.200144
H378	H	0.859107	-0.197482	0.049856
H379	H	1.109107	0.052518	0.299856
H380	H	1.359107	0.302518	0.549856
H381	H	0.682986	-0.395594	-0.214399
H382	H	0.932986	-0.145594	0.035601
H383	H	1.182986	0.104406	0.285601
H384	H	1.432986	0.354406	0.535601
N385	N	0.968066	-0.463081	-0.804550
N386	N	1.218066	-0.213081	-0.554550
N387	N	1.468066	0.036919	-0.304550
N388	N	1.718066	0.286919	-0.054550
H389	H	0.981847	-0.514238	-0.822520
H390	H	1.231847	-0.264238	-0.572520
H391	H	1.481847	-0.014238	-0.322520
H392	H	1.731847	0.235762	-0.072520
H393	H	0.968139	-0.462309	-0.748604
H394	H	1.218139	-0.212309	-0.498604
H395	H	1.468139	0.037691	-0.248604
H396	H	1.718139	0.287691	0.001396
