data_functionalizedCrystal
_audit_creation_method	'MofGen! by Chris Wilmer'
_symmetry_space_group_name_H-M	'P1'
_symmetry_Int_Tables_number	1
_symmetry_cell_setting	triclinic
loop_
_symmetry_equiv_pos_as_xyz
  x,y,z
_cell_length_a	18.050589
_cell_length_b	18.050591
_cell_length_c	13.897441
_cell_angle_alpha	90.027901
_cell_angle_beta	90.027873
_cell_angle_gamma	90.024227
loop_
_atom_site_label
_atom_site_type_symbol
_atom_site_fract_x
_atom_site_fract_y
_atom_site_fract_z
Zn1	Zn	-0.295715	1.135344	0.545584
Zn2	Zn	-0.419919	1.135239	0.384293
Zn3	Zn	-0.295739	1.011148	0.384282
Zn4	Zn	-0.419859	1.011111	0.545525
O5	O	-0.357808	1.073210	0.464921
O6	O	-0.312206	1.239254	0.524217
O7	O	-0.403482	1.118750	0.249310
O8	O	-0.191811	1.027682	0.405699
O9	O	-0.403458	1.239178	0.405717
O10	O	-0.191793	1.118928	0.524207
O11	O	-0.312247	1.027581	0.249302
O12	O	-0.312188	0.907218	0.405642
O13	O	-0.403356	1.027619	0.680515
O14	O	-0.403379	0.907191	0.524107
O15	O	-0.312148	1.118892	0.680558
O16	O	-0.523836	1.118714	0.405661
O17	O	-0.523791	1.027518	0.524118
C18	C	-0.357780	0.880258	0.464868
C19	C	-0.357786	0.797713	0.464868
C20	C	-0.308139	0.598255	0.400595
C21	C	-0.375878	0.548833	0.376864
C22	C	-0.357809	0.646582	0.464911
C23	C	-0.290093	0.548922	0.488640
C24	C	-0.357825	0.500597	0.464952
C25	C	-0.425583	0.598247	0.441134
C26	C	-0.339753	0.598341	0.552951
C27	C	-0.407538	0.548941	0.529254
C28	C	-0.357799	0.730680	0.464886
C29	C	-0.357842	0.416501	0.464977
C30	C	-0.550760	1.073121	0.464905
C31	C	-0.633306	1.073150	0.464930
C32	C	-0.832759	1.023606	0.529325
C33	C	-0.882203	1.005500	0.441303
C34	C	-0.784436	1.073223	0.464943
C35	C	-0.882074	1.091366	0.552975
C36	C	-0.930421	1.073292	0.464963
C37	C	-0.832793	1.055082	0.376875
C38	C	-0.832659	1.140979	0.488606
C39	C	-0.882081	1.122898	0.400523
C40	C	-0.700338	1.073182	0.464933
C41	C	-1.014518	1.073334	0.464963
C42	C	-0.164102	1.073321	0.464958
C43	C	-0.081556	1.073368	0.464974
C44	C	-0.357742	1.073263	0.716514
C45	C	-0.357714	1.073286	0.823728
C46	C	-0.357836	1.266916	0.464975
C47	C	-0.357848	1.349462	0.464998
C48	C	-0.357820	1.073201	0.214307
C49	C	-0.357638	1.073322	0.107093
C50	C	-0.357664	1.073306	1.020023
C51	C	-0.357694	1.073292	0.910791
H52	H	-0.391162	0.527088	0.302427
O53	O	-0.221713	0.523161	0.512458
C54	C	-0.169523	0.548271	0.444420
H55	H	-0.191487	0.600246	0.407614
H56	H	-0.159763	0.503256	0.388276
C57	C	-0.069051	0.502463	0.540862
C58	C	-0.096025	0.566303	0.495663
H59	H	-0.023712	0.513583	0.572469
H60	H	-0.104212	0.485543	0.586699
H61	H	-0.060924	0.464957	0.494068
H62	H	-0.104160	0.603805	0.542458
H63	H	-0.060863	0.583230	0.449835
H64	H	-0.482873	0.619824	0.420999
O65	O	-0.457811	0.523299	0.594052
C66	C	-0.529090	0.548583	0.568712
H67	H	-0.530426	0.562329	0.488677
H68	H	-0.542919	0.600352	0.612148
C69	C	-0.584827	0.470820	0.688771
C70	C	-0.586469	0.487697	0.590468
H71	H	-0.620222	0.433264	0.702195
H72	H	-0.536805	0.453787	0.705846
H73	H	-0.596348	0.513965	0.724956
H74	H	-0.574938	0.444554	0.554286
H75	H	-0.634490	0.504721	0.573388
O76	O	-0.321368	0.624275	0.641697
C77	C	-0.249898	0.599173	0.666427
H78	H	-0.217796	0.585274	0.598149
H79	H	-0.254635	0.547536	0.713228
C80	C	-0.248224	0.677355	0.806316
C81	C	-0.208793	0.660289	0.722454
H82	H	-0.222869	0.715052	0.840879
H83	H	-0.296376	0.694264	0.789657
H84	H	-0.252168	0.634318	0.845305
H85	H	-0.204858	0.703322	0.683461
H86	H	-0.160640	0.643388	0.739107
H87	H	-0.903982	0.948234	0.421307
O88	O	-0.806798	1.209315	0.512565
C89	C	-0.867022	1.257140	0.530206
H90	H	-0.917926	1.223045	0.550118
H91	H	-0.879208	1.290926	0.462747
C92	C	-0.785061	1.351675	0.589247
C93	C	-0.847581	1.309799	0.613712
H94	H	-0.773069	1.384160	0.640755
H95	H	-0.744486	1.319456	0.577360
H96	H	-0.795224	1.379823	0.533030
H97	H	-0.837414	1.281645	0.669920
H98	H	-0.888154	1.342014	0.625611
H99	H	-0.903721	1.106683	0.627414
O100	O	-0.806951	0.973379	0.594077
C101	C	-0.832216	0.902055	0.568785
H102	H	-0.846107	0.900694	0.488775
H103	H	-0.883892	0.888136	0.612316
C104	C	-0.754181	0.846458	0.688703
C105	C	-0.771236	0.844785	0.590431
H106	H	-0.716568	0.811129	0.702059
H107	H	-0.737161	0.894510	0.705746
H108	H	-0.797249	0.834860	0.724967
H109	H	-0.728171	0.856391	0.554170
H110	H	-0.788247	0.796733	0.573383
O111	O	-0.807046	1.036602	0.288104
C112	C	-0.763627	0.971895	0.294797
H113	H	-0.780044	0.939602	0.361964
H114	H	-0.702584	0.987739	0.299445
C115	C	-0.756318	0.963099	0.122605
C116	C	-0.776486	0.923432	0.205096
H117	H	-0.764246	0.933206	0.067272
H118	H	-0.785568	1.006695	0.118095
H119	H	-0.705450	0.976299	0.126492
H120	H	-0.827355	0.910241	0.201214
H121	H	-0.747244	0.879833	0.209603
O122	O	-0.258166	0.624057	0.335512
C123	C	-0.277483	0.598810	0.242809
H124	H	-0.339084	0.584939	0.240856
H125	H	-0.243950	0.547126	0.224814
C126	C	-0.185010	0.676825	0.170893
C127	C	-0.260671	0.659794	0.168491
H128	H	-0.174637	0.714440	0.125049
H129	H	-0.171993	0.693832	0.233349
H130	H	-0.157074	0.633749	0.155899
H131	H	-0.288605	0.702866	0.183496
H132	H	-0.273692	0.642795	0.106036
O133	O	-0.907726	1.172907	0.335380
C134	C	-0.882465	1.153551	0.242736
H135	H	-0.868733	1.091930	0.240818
H136	H	-0.830694	1.187010	0.224859
C137	C	-0.960225	1.246132	0.170634
C138	C	-0.943364	1.170447	0.168276
H139	H	-0.997788	1.256557	0.124702
H140	H	-0.977242	1.259175	0.233050
H141	H	-0.917077	1.274006	0.155739
H142	H	-0.986509	1.142575	0.183183
H143	H	-0.926356	1.157399	0.105861
