data_functionalizedCrystal
_audit_creation_method	'MofGen! by Chris Wilmer'
_symmetry_space_group_name_H-M	'P1'
_symmetry_Int_Tables_number	1
_symmetry_cell_setting	triclinic
loop_
_symmetry_equiv_pos_as_xyz
  x,y,z
_cell_length_a	12.837943
_cell_length_b	9.016244
_cell_length_c	12.784905
_cell_angle_alpha	90.001434
_cell_angle_beta	83.968130
_cell_angle_gamma	90.006412
loop_
_atom_site_label
_atom_site_type_symbol
_atom_site_fract_x
_atom_site_fract_y
_atom_site_fract_z
O1	O	1.350778	0.123305	0.273811
O2	O	1.850778	0.623305	0.773811
O3	O	1.050191	0.123314	0.260285
O4	O	1.550191	0.623314	0.760285
O5	O	1.222481	0.123305	0.114549
O6	O	1.722481	0.623305	0.614549
O7	O	1.178488	0.123314	0.419548
O8	O	1.678488	0.623314	0.919548
O9	O	1.222457	-0.123376	0.114550
O10	O	1.722457	0.376624	0.614550
O11	O	1.050168	-0.123367	0.260287
O12	O	1.550168	0.376633	0.760287
O13	O	1.350754	-0.123376	0.273813
O14	O	1.850754	0.376624	0.773813
Cu15	Cu	1.200459	-0.145895	0.267050
Cu16	Cu	1.700459	0.354105	0.767050
Cu17	Cu	1.200487	0.145834	0.267048
Cu18	Cu	1.700487	0.645834	0.767048
O19	O	1.178465	-0.123366	0.419549
O20	O	1.678465	0.376634	0.919549
C21	C	1.011971	-0.000025	0.255717
C22	C	1.511971	0.499975	0.755717
C23	C	0.898122	-0.000021	0.242089
C24	C	1.398122	0.499979	0.742089
N25	N	1.200447	-0.351081	0.267051
N26	N	1.700447	0.148919	0.767051
C27	C	0.642396	-0.000037	0.405920
C28	C	1.142396	0.499963	0.905920
C29	C	0.535424	-0.000035	0.393121
C30	C	1.035424	0.499965	0.893121
C31	C	0.577204	-0.000025	0.203691
C32	C	1.077204	0.499975	0.703691
C33	C	0.684176	-0.000028	0.216491
C34	C	1.184176	0.499972	0.716491
C35	C	0.716768	-0.000031	0.317609
C36	C	1.216768	0.499969	0.817609
C37	C	0.823742	-0.000023	0.330407
C38	C	1.323742	0.499977	0.830407
C39	C	0.865519	-0.000024	0.140978
C40	C	1.365519	0.499976	0.640978
C41	C	0.758547	-0.000022	0.128179
C42	C	1.258547	0.499978	0.628179
C43	C	1.108055	-0.586109	0.344700
C44	C	1.608055	-0.086109	0.844700
C45	C	1.108209	-0.414218	0.345037
C46	C	1.608209	0.085782	0.845037
C47	C	1.305470	-0.413422	0.301913
C48	C	1.805470	0.086578	0.801913
C49	C	1.304952	-0.585367	0.302476
C50	C	1.804952	-0.085367	0.802476
C51	C	1.188911	-0.585627	0.154359
C52	C	1.688911	-0.085627	0.654359
C53	C	1.186374	-0.413673	0.154850
C54	C	1.686374	0.086327	0.654850
C55	C	1.388975	-0.000033	0.278381
C56	C	1.888975	0.499967	0.778381
C57	C	1.502823	-0.000027	0.292009
C58	C	2.002823	0.499973	0.792009
C59	C	1.225330	-0.000034	0.075240
C60	C	1.725330	0.499966	0.575240
C61	C	1.233843	-0.000028	-0.041892
C62	C	1.733843	0.499972	0.458108
N63	N	1.200507	0.351020	0.267039
N64	N	1.700507	0.851020	0.767039
C65	C	1.060400	-0.000037	-0.255843
C66	C	1.560400	0.499963	0.244157
C67	C	1.068394	-0.000031	-0.365898
C68	C	1.568394	0.499969	0.134102
C69	C	1.257824	-0.000021	-0.372060
C70	C	1.757824	0.499979	0.127940
C71	C	1.249830	-0.000027	-0.262004
C72	C	1.749830	0.499973	0.237996
C73	C	1.151115	-0.000032	-0.203899
C74	C	1.651115	0.499968	0.296101
C75	C	1.143122	-0.000027	-0.093842
C76	C	1.643122	0.499973	0.406158
C77	C	1.332550	-0.000028	-0.100006
C78	C	1.832550	0.499972	0.399994
C79	C	1.340544	-0.000022	-0.210061
C80	C	1.840544	0.499978	0.289939
C81	C	1.175616	-0.000025	0.458858
C82	C	1.675616	0.499975	0.958858
C83	C	1.167103	-0.000021	0.575990
C84	C	1.667103	0.499979	1.075990
H85	H	0.850275	-0.000029	0.412743
H86	H	1.350275	0.499971	0.912743
H87	H	1.338192	-0.000034	-0.419387
H88	H	1.838192	0.499966	0.080613
H89	H	1.316683	-0.625454	0.384984
H90	H	1.816683	-0.125454	0.884984
Cl91	Cl	0.683373	-0.000022	0.533036
Cl92	Cl	1.183373	0.499978	1.033036
Cl93	Cl	1.446598	-0.000011	-0.034700
Cl94	Cl	1.946598	0.499989	0.465300
H95	H	1.109169	-0.372929	0.128646
H96	H	1.609169	0.127071	0.628646
Cl97	Cl	0.954348	-0.000041	-0.431195
Cl98	Cl	1.454348	0.499959	0.068805
H99	H	1.114281	-0.629300	0.427611
H100	H	1.614281	-0.129300	0.927611
H101	H	1.375492	-0.372521	0.247309
H102	H	1.875492	0.127479	0.747309
Cl103	Cl	0.441931	-0.000047	0.504147
Cl104	Cl	0.941931	0.499953	1.004147
Cl105	Cl	1.019025	-0.000031	-0.020797
Cl106	Cl	1.519025	0.499969	0.479203
H107	H	0.550648	-0.000145	0.121365
H108	H	1.050648	0.499855	0.621365
H109	H	0.731995	-0.000035	0.045851
H110	H	1.231995	0.499965	0.545851
Cl111	Cl	0.936306	-0.000025	-0.182793
Cl112	Cl	1.436306	0.499975	0.317207
Cl113	Cl	1.117999	-0.350676	0.473797
Cl114	Cl	1.617999	0.149324	0.973797
H115	H	1.250093	-0.370701	0.093512
H116	H	1.750093	0.129299	0.593512
H117	H	0.926085	-0.000009	0.069068
H118	H	1.426085	0.499991	0.569068
H119	H	1.029825	-0.372072	0.322664
H120	H	1.529825	0.127928	0.822664
H121	H	1.420915	-0.000024	-0.257385
H122	H	1.920915	0.499976	0.242615
Cl123	Cl	0.986607	-0.649978	0.310465
Cl124	Cl	1.486607	-0.149978	0.810465
H125	H	1.375369	-0.626953	0.248723
H126	H	1.875369	-0.126953	0.748723
Cl127	Cl	1.293180	-0.648397	0.064934
Cl128	Cl	1.793180	-0.148397	0.564934
H129	H	1.114536	-0.629073	0.123531
H130	H	1.614536	-0.129073	0.623531
Cl131	Cl	1.324405	-0.346916	0.427955
Cl132	Cl	1.824405	0.153084	0.927955
