data_functionalizedCrystal
_audit_creation_method	'MofGen! by Chris Wilmer'
_symmetry_space_group_name_H-M	'P1'
_symmetry_Int_Tables_number	1
_symmetry_cell_setting	triclinic
loop_
_symmetry_equiv_pos_as_xyz
  x,y,z
_cell_length_a	15.995343
_cell_length_b	15.995350
_cell_length_c	14.472311
_cell_angle_alpha	89.992572
_cell_angle_beta	89.999810
_cell_angle_gamma	96.509221
loop_
_atom_site_label
_atom_site_type_symbol
_atom_site_fract_x
_atom_site_fract_y
_atom_site_fract_z
O1	O	1.110988	-0.107902	0.076744
O2	O	0.867212	-0.121236	0.076765
O3	O	0.995764	0.007319	0.076753
O4	O	0.982437	-0.236457	0.076756
O5	O	0.995755	0.007335	-0.076929
O6	O	0.867203	-0.121220	-0.076917
O7	O	1.110980	-0.107885	-0.076938
Cu8	Cu	0.989091	-0.114551	-0.090960
Cu9	Cu	0.989101	-0.114570	0.090787
O10	O	0.982428	-0.236440	-0.076926
C11	C	0.836013	-0.120678	-0.000073
C12	C	0.743062	-0.119028	-0.000065
C13	C	0.572876	-0.116035	-0.000077
C14	C	0.549530	-0.023238	-0.000078
C15	C	0.452852	-0.021492	-0.000432
C16	C	0.405316	-0.113086	-0.000088
C17	C	0.434403	-0.159737	-0.087673
C18	C	0.531195	-0.160838	-0.087741
C19	C	0.531116	-0.162215	0.087030
C20	C	0.434621	-0.158789	0.088176
C21	C	0.310618	-0.111425	-0.000098
C22	C	0.667574	-0.117699	-0.000074
C23	C	0.995209	0.038522	-0.000086
C24	C	0.993557	0.131472	-0.000081
C25	C	1.142179	-0.108444	-0.000098
C26	C	1.235130	-0.110093	-0.000101
N27	N	0.989090	-0.114537	-0.218791
C28	C	0.982983	-0.267643	-0.000085
C29	C	0.984635	-0.360594	-0.000084
C30	C	0.987625	0.469220	-0.000083
C31	C	0.896072	0.421783	0.000269
C32	C	0.897725	0.325093	-0.000077
C33	C	0.990567	0.301659	-0.000082
C34	C	1.035719	0.342747	-0.087844
C35	C	1.033419	0.439383	-0.087917
C36	C	1.035320	0.439723	0.086848
C37	C	1.035299	0.342777	0.088008
C38	C	0.992235	0.206962	-0.000084
C39	C	0.985960	0.563917	-0.000088
C40	C	0.989102	-0.114564	-0.592882
C41	C	1.058111	-0.046007	-0.553694
C42	C	1.057931	-0.045754	-0.446606
C43	C	0.989097	-0.114551	-0.407291
C44	C	0.901739	-0.095472	-0.446174
C45	C	0.902148	-0.094987	-0.553296
C46	C	1.006664	-0.202402	-0.553388
C47	C	1.008647	-0.201814	-0.446260
C48	C	0.989088	-0.114545	-0.302403
C49	C	0.989105	-0.114568	-0.697770
N50	N	0.989109	-0.114577	0.218618
H51	H	0.577541	0.012724	0.062720
C52	C	0.846850	0.448247	-0.084275
C53	C	0.755060	0.410272	-0.099561
C54	C	0.705840	0.436736	-0.184108
C55	C	0.748411	0.501175	-0.253369
C56	C	0.840206	0.539154	-0.238085
C57	C	0.889425	0.512690	-0.153538
H58	H	0.723542	0.362567	-0.048289
H59	H	0.637887	0.408621	-0.195422
H60	H	0.711975	0.520765	-0.315956
H61	H	0.871723	0.586859	-0.289357
H62	H	0.957378	0.540805	-0.142224
H63	H	0.402556	-0.227147	-0.090683
H64	H	0.578511	0.012152	-0.062793
C65	C	0.849626	0.287472	-0.085327
C66	C	0.841653	0.191915	-0.102668
C67	C	0.793638	0.154306	-0.187981
C68	C	0.753596	0.212254	-0.255952
C69	C	0.761569	0.307817	-0.238612
C70	C	0.809584	0.345426	-0.153300
H71	H	0.871295	0.149013	-0.052351
H72	H	0.787736	0.083563	-0.200817
H73	H	0.718053	0.184414	-0.319106
H74	H	0.731927	0.350719	-0.288930
H75	H	0.815485	0.416169	-0.140464
H76	H	1.103928	0.328624	-0.091111
C77	C	1.124218	0.482958	-0.093325
C78	C	1.198588	0.429792	-0.097566
C79	C	1.289384	0.473362	-0.102984
C80	C	1.305812	0.570099	-0.104160
C81	C	1.231441	0.623270	-0.099918
C82	C	1.140644	0.579700	-0.094501
H83	H	1.186429	0.358177	-0.096696
H84	H	1.344439	0.434001	-0.106124
H85	H	1.373025	0.602352	-0.108171
H86	H	1.243599	0.694886	-0.100789
H87	H	1.085590	0.619062	-0.091361
C88	C	0.569342	-0.122660	0.176722
C89	C	0.512755	-0.084116	0.247371
C90	C	0.551002	-0.044545	0.337045
C91	C	0.645835	-0.043518	0.356072
C92	C	0.702427	-0.082063	0.285422
C93	C	0.664180	-0.121634	0.195747
H94	H	0.442549	-0.084875	0.233288
H95	H	0.509108	-0.016012	0.389345
H96	H	0.674148	-0.014225	0.422455
H97	H	0.772633	-0.081304	0.299505
H98	H	0.706074	-0.150167	0.143448
H99	H	0.862232	0.296663	0.062835
H100	H	1.103004	0.327416	0.093303
C101	C	0.407266	-0.116479	-0.176068
C102	C	0.358752	-0.038889	-0.168961
C103	C	0.331618	0.004375	-0.257354
C104	C	0.352998	-0.029951	-0.352854
C105	C	0.401514	-0.107545	-0.359965
C106	C	0.428648	-0.150809	-0.271572
H107	H	0.342924	-0.013475	-0.098263
H108	H	0.295703	0.061815	-0.252089
H109	H	0.332912	0.002075	-0.418287
H110	H	0.417343	-0.132959	-0.430663
H111	H	0.464563	-0.208249	-0.276837
C112	C	0.427157	0.027850	0.084361
C113	C	0.333954	0.039114	0.100642
C114	C	0.308265	0.088464	0.185434
C115	C	0.375778	0.126549	0.253945
C116	C	0.468986	0.115286	0.237666
C117	C	0.494676	0.065936	0.152874
H118	H	0.283972	0.010921	0.049924
H119	H	0.239266	0.096802	0.197484
H120	H	0.356761	0.163081	0.316713
H121	H	0.518969	0.143479	0.288384
H122	H	0.563675	0.057598	0.140823
H123	H	1.069003	-0.220739	-0.580402
C124	C	0.993343	0.304425	-0.176073
C125	C	0.990358	0.209319	-0.194523
C126	C	0.947977	0.170999	-0.282750
C127	C	0.908580	0.227783	-0.352526
C128	C	0.911563	0.322894	-0.334078
C129	C	0.953945	0.361215	-0.245852
H130	H	1.019524	0.167279	-0.142869
H131	H	0.945768	0.100591	-0.296406
H132	H	0.877206	0.199416	-0.417837
H133	H	0.882398	0.364934	-0.385733
H134	H	0.956153	0.431622	-0.232196
C135	C	0.880312	-0.009915	-0.409954
C136	C	0.938935	0.070821	-0.431703
C137	C	0.917514	0.156381	-0.395485
C138	C	0.837471	0.161205	-0.337517
C139	C	0.778843	0.080466	-0.315765
C140	C	0.800264	-0.005094	-0.351983
H141	H	0.998193	0.067253	-0.474617
H142	H	0.960915	0.216149	-0.411588
H143	H	0.821613	0.224541	-0.310706
H144	H	0.719585	0.084035	-0.272851
H145	H	0.756863	-0.064862	-0.335880
H146	H	1.005391	0.460254	0.153366
C147	C	0.881245	-0.008447	-0.587069
C148	C	0.864298	0.059740	-0.516569
C149	C	0.843398	0.146283	-0.550337
C150	C	0.839445	0.164640	-0.654605
C151	C	0.856393	0.096451	-0.725112
C152	C	0.877293	0.009908	-0.691344
H153	H	0.867224	0.046153	-0.439378
H154	H	0.830852	0.196761	-0.498143
H155	H	0.823974	0.228704	-0.679602
H156	H	0.853467	0.110038	-0.802303
H157	H	0.889839	-0.040570	-0.743538
H158	H	1.102822	0.471485	0.087434
H159	H	0.859484	0.440307	0.063206
C160	C	0.990769	0.305886	0.175724
C161	C	0.914151	0.238742	0.167444
C162	C	0.869620	0.201844	0.255158
C163	C	0.901708	0.232091	0.351152
C164	C	0.978331	0.299239	0.359435
C165	C	1.022861	0.336136	0.271721
H166	H	0.890393	0.216348	0.096381
H167	H	0.812899	0.152137	0.249026
H168	H	0.868744	0.204777	0.416083
H169	H	1.002088	0.321632	0.430499
H170	H	1.079583	0.385844	0.277853
H171	H	0.956341	-0.253421	-0.578735
H172	H	0.434412	0.014868	-0.063585
H173	H	1.122868	-0.057114	-0.420316
H174	H	1.123265	-0.057183	-0.579454
C175	C	0.830659	-0.159837	-0.588326
C176	C	0.773380	-0.211900	-0.518825
C177	C	0.701875	-0.276727	-0.553850
C178	C	0.687647	-0.289492	-0.658376
C179	C	0.744927	-0.237428	-0.727883
C180	C	0.816433	-0.172601	-0.692858
H181	H	0.783911	-0.202452	-0.441442
H182	H	0.659472	-0.315268	-0.502395
H183	H	0.634714	-0.337481	-0.684303
H184	H	0.734397	-0.246876	-0.805266
H185	H	0.858836	-0.134060	-0.744313
C186	C	0.390124	-0.249088	0.095678
C187	C	0.326115	-0.283060	0.021456
C188	C	0.281619	-0.373364	0.028950
C189	C	0.301131	-0.429696	0.110666
C190	C	0.365143	-0.395725	0.184894
C191	C	0.409639	-0.305421	0.177401
H192	H	0.311668	-0.241359	-0.039041
H193	H	0.234233	-0.398511	-0.026000
H194	H	0.268192	-0.496544	0.116213
H195	H	0.379590	-0.437426	0.245391
H196	H	0.457025	-0.280274	0.232350
C197	C	0.830688	-0.161127	-0.411773
C198	C	0.851214	-0.233001	-0.347822
C199	C	0.780164	-0.298657	-0.313420
C200	C	0.688588	-0.292440	-0.342970
C201	C	0.668058	-0.220563	-0.406925
C202	C	0.739108	-0.154906	-0.441327
H203	H	0.919007	-0.237607	-0.325944
H204	H	0.795362	-0.351866	-0.266076
H205	H	0.635993	-0.341042	-0.317504
H206	H	0.600265	-0.215957	-0.428802
H207	H	0.723910	-0.101698	-0.488670
C208	C	1.095456	-0.221385	-0.411920
C209	C	1.148367	-0.158450	-0.348792
C210	C	1.235174	-0.178020	-0.314443
C211	C	1.269071	-0.260525	-0.343222
C212	C	1.216159	-0.323465	-0.406353
C213	C	1.129352	-0.303895	-0.440702
H214	H	1.123275	-0.097371	-0.327485
H215	H	1.274343	-0.131428	-0.267709
H216	H	1.333331	-0.275012	-0.317794
H217	H	1.241251	-0.384545	-0.427659
H218	H	1.090183	-0.350488	-0.487436
H219	H	0.557977	-0.128894	-0.153462
H220	H	0.545768	-0.228888	-0.091485
H221	H	0.416067	-0.124816	0.152972
H222	H	0.961641	-0.255220	-0.419495
H223	H	0.545129	-0.230519	0.087875
H224	H	1.000487	0.457690	-0.153518
H225	H	1.047054	0.018809	-0.580624
H226	H	1.046710	0.019432	-0.420988
