data_functionalizedCrystal
_audit_creation_method	'MofGen! by Chris Wilmer'
_symmetry_space_group_name_H-M	'P1'
_symmetry_Int_Tables_number	1
_symmetry_cell_setting	triclinic
loop_
_symmetry_equiv_pos_as_xyz
  x,y,z
_cell_length_a	16.974800
_cell_length_b	10.723023
_cell_length_c	16.053802
_cell_angle_alpha	92.591082
_cell_angle_beta	91.074188
_cell_angle_gamma	83.927595
loop_
_atom_site_label
_atom_site_type_symbol
_atom_site_fract_x
_atom_site_fract_y
_atom_site_fract_z
O1	O	1.049937	0.159066	0.001541
O2	O	0.820579	0.178168	-0.013963
O3	O	0.940548	-0.013013	-0.005850
O4	O	0.929967	0.350247	-0.006572
O5	O	0.933945	-0.002533	0.132562
O6	O	0.813975	0.188648	0.124449
O7	O	1.043333	0.169546	0.139954
Zn8	Zn	0.927606	0.180761	0.154177
Zn9	Zn	0.936306	0.166953	-0.028187
O10	O	0.923363	0.360727	0.131840
C11	C	0.787909	0.182490	0.053258
C12	C	0.700401	0.179738	0.047342
C13	C	0.655695	0.184155	0.120013
C14	C	0.573474	0.181550	0.114458
C15	C	0.535960	0.174537	0.036230
C16	C	0.580672	0.170116	-0.036447
C17	C	0.662893	0.172712	-0.030890
C18	C	0.290444	0.166151	0.011521
C19	C	0.208217	0.163559	0.005969
C20	C	0.201025	0.174990	0.156875
C21	C	0.283246	0.177594	0.162425
C22	C	0.327952	0.173166	0.089748
N23	N	0.451916	0.171877	0.030549
N24	N	0.411995	0.175816	0.095430
C25	C	0.936477	-0.054265	0.063303
C26	C	0.934173	-0.192796	0.063145
C27	C	0.936567	-0.259980	-0.008627
C28	C	0.934187	-0.403159	-0.008793
C29	C	1.076003	0.165224	0.072731
C30	C	1.163511	0.167975	0.078641
C31	C	0.927435	0.401979	0.062685
C32	C	0.929739	0.540509	0.062838
N33	N	0.921673	0.190183	0.278636
N34	N	0.942245	0.157521	-0.152646
C35	C	0.972740	0.108864	0.325784
C36	C	0.968597	0.115467	0.412910
C37	C	0.913392	0.203396	0.452888
C38	C	0.862320	0.284718	0.405734
C39	C	0.866459	0.278109	0.318609
C40	C	0.895312	0.232233	0.713075
C41	C	0.891178	0.238840	0.800207
C42	C	0.997455	0.069586	0.807377
C43	C	1.001592	0.062989	0.720250
C44	C	0.950518	0.144307	0.673103
N45	N	0.909158	0.210150	0.541946
N46	N	0.954748	0.137546	0.584047
H47	H	0.313785	0.183298	0.226126
Br48	Br	0.926338	-0.363245	0.165265
Br49	Br	0.937606	-0.499416	-0.111215
Br50	Br	1.047671	-0.010465	0.271538
Br51	Br	0.706598	0.193686	0.226185
H52	H	0.853726	0.298448	0.674695
Br53	Br	1.037900	0.005100	0.476899
Br54	Br	0.787391	0.404044	0.459986
Br55	Br	1.076517	-0.056338	0.665993
Br56	Br	1.066765	-0.040771	0.871364
Br57	Br	0.816253	0.358188	0.854457
H58	H	0.537079	0.185125	0.173635
H59	H	0.326834	0.162541	-0.047658
Br60	Br	0.797147	0.388467	0.254622
H61	H	0.550122	0.164397	-0.100142
H62	H	0.164617	0.178593	0.216044
H63	H	0.177676	0.157851	-0.057736
Br64	Br	0.723568	0.166706	-0.129520
H65	H	0.940376	-0.211499	-0.069952
H66	H	0.930356	-0.241276	0.124469
