data_functionalizedCrystal
_audit_creation_method	'MofGen! by Chris Wilmer'
_symmetry_space_group_name_H-M	'P1'
_symmetry_Int_Tables_number	1
_symmetry_cell_setting	triclinic
loop_
_symmetry_equiv_pos_as_xyz
  x,y,z
_cell_length_a	29.839134
_cell_length_b	29.839131
_cell_length_c	29.839125
_cell_angle_alpha	89.974637
_cell_angle_beta	89.978020
_cell_angle_gamma	90.030088
loop_
_atom_site_label
_atom_site_type_symbol
_atom_site_fract_x
_atom_site_fract_y
_atom_site_fract_z
Zn1	Zn	0.686739	-0.178978	-0.254101
Zn2	Zn	1.186739	0.321022	0.245899
Zn3	Zn	0.686679	-0.254090	-0.178961
Zn4	Zn	1.186679	0.245910	0.321039
Zn5	Zn	0.611622	-0.178968	-0.178971
Zn6	Zn	1.111622	0.321032	0.321029
Zn7	Zn	0.611578	-0.254075	-0.254049
Zn8	Zn	1.111578	0.245925	0.245951
O9	O	0.649154	-0.216528	-0.216521
O10	O	1.149154	0.283472	0.283479
O11	O	0.749598	-0.188952	-0.244151
O12	O	1.249598	0.311048	0.255849
O13	O	0.676716	-0.244127	-0.116095
O14	O	1.176716	0.255873	0.383905
O15	O	0.621630	-0.116102	-0.188963
O16	O	1.121630	0.383898	0.311037
O17	O	0.749554	-0.244137	-0.188946
O18	O	1.249554	0.255863	0.311054
O19	O	0.676818	-0.116109	-0.244161
O20	O	1.176818	0.383891	0.255839
O21	O	0.621572	-0.188935	-0.116102
O22	O	1.121572	0.311065	0.383898
O23	O	0.548749	-0.188921	-0.188912
O24	O	1.048749	0.311079	0.311088
O25	O	0.621554	-0.244111	-0.316923
O26	O	1.121554	0.255889	0.183077
O27	O	0.548716	-0.244101	-0.244072
O28	O	1.048716	0.255899	0.255928
O29	O	0.676775	-0.188937	-0.316961
O30	O	1.176775	0.311063	0.183039
O31	O	0.676673	-0.316955	-0.188896
O32	O	1.176673	0.183045	0.311104
O33	O	0.621497	-0.316944	-0.244063
O34	O	1.121497	0.183056	0.255937
C35	C	0.532432	-0.216509	-0.216488
C36	C	1.032432	0.283491	0.283512
C37	C	0.482497	-0.216511	-0.216485
C38	C	0.982497	0.283489	0.283515
C39	C	0.649086	-0.333250	-0.216483
C40	C	1.149086	0.166750	0.283517
C41	C	0.649098	-0.383185	-0.216482
C42	C	1.149098	0.116815	0.283518
C43	C	0.172847	-0.245303	-0.245207
C44	C	0.672847	0.254697	0.254793
C45	C	-0.014827	-0.245315	-0.245227
C46	C	0.485173	0.254685	0.254773
O47	O	-0.039098	-0.269774	-0.269629
O48	O	0.460902	0.230226	0.230371
N49	N	-0.038288	-0.216544	-0.216554
N50	N	0.461712	0.283456	0.283446
C51	C	-0.014828	-0.187766	-0.187877
C52	C	0.485172	0.312234	0.312123
O53	O	-0.039089	-0.163291	-0.163492
O54	O	0.460911	0.336709	0.336508
C55	C	0.172844	-0.187751	-0.187859
C56	C	0.672844	0.312249	0.312141
C57	C	0.196303	-0.216527	-0.216531
C58	C	0.696303	0.283473	0.283469
C59	C	0.196305	-0.274076	-0.273877
C60	C	0.696305	0.225924	0.226123
C61	C	0.243221	-0.274075	-0.273870
C62	C	0.743221	0.225925	0.226130
C63	C	0.266677	-0.245299	-0.245193
C64	C	0.766677	0.254701	0.254807
C65	C	0.243219	-0.216526	-0.216524
C66	C	0.743219	0.283474	0.283476
C67	C	0.196303	-0.158971	-0.159184
C68	C	0.696303	0.341029	0.340816
C69	C	0.243224	-0.158969	-0.159183
C70	C	0.743224	0.341031	0.340817
C71	C	0.266683	-0.187745	-0.187855
C72	C	0.766683	0.312255	0.312145
C73	C	0.313591	-0.187749	-0.187840
C74	C	0.813591	0.312251	0.312160
N75	N	0.337052	-0.216520	-0.216513
N76	N	0.837052	0.283480	0.283487
C77	C	0.313595	-0.245295	-0.245189
C78	C	0.813595	0.254705	0.254811
C79	C	-0.113358	-0.187776	-0.187887
C80	C	0.386642	0.312224	0.312113
C81	C	-0.160276	-0.187780	-0.187891
C82	C	0.339724	0.312220	0.312109
C83	C	-0.160272	-0.245329	-0.245242
C84	C	0.339728	0.254671	0.254758
C85	C	-0.113353	-0.245327	-0.245236
C86	C	0.386647	0.254673	0.254764
C87	C	-0.089897	-0.216547	-0.216560
C88	C	0.410103	0.283453	0.283440
C89	C	0.412121	-0.245290	-0.245172
C90	C	0.912121	0.254710	0.254828
C91	C	0.459041	-0.245287	-0.245161
C92	C	0.959041	0.254713	0.254839
C93	C	0.459032	-0.187736	-0.187812
C94	C	0.959032	0.312264	0.312188
C95	C	0.412117	-0.187740	-0.187821
C96	C	0.912117	0.312260	0.312179
C97	C	0.388662	-0.216519	-0.216505
C98	C	0.888662	0.283481	0.283495
O99	O	0.337891	-0.163299	-0.163455
O100	O	0.837891	0.336701	0.336545
O101	O	0.337865	-0.269759	-0.269577
O102	O	0.837865	0.230241	0.230423
C103	C	0.125931	-0.245304	-0.245214
C104	C	0.625931	0.254696	0.254786
C105	C	0.102472	-0.216531	-0.216545
C106	C	0.602472	0.283469	0.283455
C107	C	0.125929	-0.187755	-0.187868
C108	C	0.625929	0.312245	0.312132
C109	C	0.055554	-0.216535	-0.216548
C110	C	0.555554	0.283465	0.283452
C111	C	0.032098	-0.245310	-0.245225
C112	C	0.532098	0.254690	0.254775
C113	C	0.055559	-0.274082	-0.273898
C114	C	0.555559	0.225918	0.226102
C115	C	0.102474	-0.274080	-0.273891
C116	C	0.602474	0.225920	0.226109
C117	C	0.102468	-0.158984	-0.159196
C118	C	0.602468	0.341016	0.340804
C119	C	0.055552	-0.158989	-0.159205
C120	C	0.555552	0.341011	0.340795
C121	C	0.032096	-0.187764	-0.187881
C122	C	0.532096	0.312236	0.312119
C123	C	0.677885	-0.692797	-0.245303
C124	C	1.177885	-0.192797	0.254697
C125	C	0.677933	-0.880470	-0.245330
C126	C	1.177933	-0.380470	0.254670
O127	O	0.702342	-0.904708	-0.269807
O128	O	1.202342	-0.404708	0.230193
N129	N	0.649231	-0.903970	-0.216570
N130	N	1.149231	-0.403970	0.283430
C131	C	0.620512	-0.880548	-0.187804
C132	C	1.120512	-0.380548	0.312196
O133	O	0.596096	-0.904843	-0.163346
O134	O	1.096096	-0.404843	0.336654
C135	C	0.620461	-0.692876	-0.187780
C136	C	1.120461	-0.192876	0.312220
C137	C	0.649169	-0.669379	-0.216538
C138	C	1.149169	-0.169379	0.283462
C139	C	0.706590	-0.669300	-0.274059
C140	C	1.206590	-0.169300	0.225941
C141	C	0.706579	-0.622384	-0.274051
C142	C	1.206579	-0.122384	0.225949
C143	C	0.677863	-0.598966	-0.245286
C144	C	1.177863	-0.098966	0.254714
C145	C	0.649158	-0.622463	-0.216529
C146	C	1.149158	-0.122463	0.283471
C147	C	0.591740	-0.669456	-0.159016
C148	C	1.091740	-0.169456	0.340984
C149	C	0.591729	-0.622535	-0.159013
C150	C	1.091729	-0.122535	0.340987
C151	C	0.620437	-0.599037	-0.187771
C152	C	1.120437	-0.099037	0.312229
C153	C	0.620431	-0.552130	-0.187755
C154	C	1.120431	-0.052130	0.312245
N155	N	0.649134	-0.528630	-0.216515
N156	N	1.149134	-0.028630	0.283485
C157	C	0.677850	-0.552048	-0.245280
C158	C	1.177850	-0.052048	0.254720
C159	C	0.620541	-0.979079	-0.187818
C160	C	1.120541	-0.479079	0.312182
C161	C	0.620554	-1.025997	-0.187824
C162	C	1.120554	-0.525997	0.312176
C163	C	0.677975	-1.025915	-0.245351
C164	C	1.177975	-0.525915	0.254649
C165	C	0.677964	-0.978996	-0.245342
C166	C	1.177964	-0.478996	0.254658
C167	C	0.649244	-0.955579	-0.216578
C168	C	1.149244	-0.455579	0.283422
C169	C	0.677826	-0.453522	-0.245259
C170	C	1.177826	0.046478	0.254741
C171	C	0.677814	-0.406603	-0.245247
C172	C	1.177814	0.093397	0.254753
C173	C	0.620391	-0.406688	-0.187722
C174	C	1.120391	0.093312	0.312278
C175	C	0.620404	-0.453604	-0.187732
C176	C	1.120404	0.046396	0.312268
C177	C	0.649123	-0.477020	-0.216505
C178	C	1.149123	0.022980	0.283495
O179	O	0.596032	-0.527863	-0.163295
O180	O	1.096032	-0.027863	0.336705
O181	O	0.702255	-0.527746	-0.269742
O182	O	1.202255	-0.027746	0.230258
C183	C	0.677895	-0.739712	-0.245312
C184	C	1.177895	-0.239712	0.254688
C185	C	0.649190	-0.763210	-0.216556
C186	C	1.149190	-0.263210	0.283444
C187	C	0.620474	-0.739792	-0.187790
C188	C	1.120474	-0.239792	0.312210
C189	C	0.649203	-0.810128	-0.216561
C190	C	1.149203	-0.310128	0.283439
C191	C	0.677919	-0.833546	-0.245326
C192	C	1.177919	-0.333546	0.254674
C193	C	0.706622	-0.810046	-0.274086
C194	C	1.206622	-0.310046	0.225914
C195	C	0.706611	-0.763130	-0.274077
C196	C	1.206611	-0.263130	0.225923
C197	C	0.591772	-0.763291	-0.159031
C198	C	1.091772	-0.263291	0.340969
C199	C	0.591785	-0.810207	-0.159041
C200	C	1.091785	-0.310207	0.340959
C201	C	0.620501	-0.833625	-0.187807
C202	C	1.120501	-0.333625	0.312193
C203	C	0.766333	-0.216547	-0.216553
C204	C	1.266333	0.283453	0.283447
C205	C	0.816267	-0.216555	-0.216567
C206	C	1.316267	0.283445	0.283433
C207	C	0.649167	-0.216524	-0.333699
C208	C	1.149167	0.283476	0.166301
C209	C	0.649172	-0.216522	-0.383633
C210	C	1.149172	0.283478	0.116367
C211	C	0.649235	-0.099349	-0.216568
C212	C	1.149235	0.400651	0.283432
C213	C	0.649270	-0.049415	-0.216589
C214	C	1.149270	0.450585	0.283411
C215	C	0.677955	-0.187718	-0.693300
C216	C	1.177955	0.312282	-0.193300
C217	C	0.677978	-0.187680	-0.880973
C218	C	1.177978	0.312320	-0.380973
O219	O	0.702417	-0.163232	-0.905257
O220	O	1.202417	0.336768	-0.405257
N221	N	0.649231	-0.216402	-0.904419
N222	N	1.149231	0.283598	-0.404419
C223	C	0.620475	-0.245133	-0.880943
C224	C	1.120475	0.254867	-0.380943
O225	O	0.596022	-0.269559	-0.905192
O226	O	1.096022	0.230441	-0.405192
C227	C	0.620451	-0.245169	-0.693271
C228	C	1.120451	0.254831	-0.193271
C229	C	0.649202	-0.216448	-0.669828
C230	C	1.149202	0.283552	-0.169828
C231	C	0.706704	-0.158999	-0.669856
C232	C	1.206704	0.341001	-0.169856
C233	C	0.706700	-0.159011	-0.622941
C234	C	1.206700	0.340989	-0.122941
C235	C	0.677947	-0.187741	-0.599469
C236	C	1.177947	0.312259	-0.099469
C237	C	0.649198	-0.216460	-0.622912
C238	C	1.149198	0.283540	-0.122912
C239	C	0.591693	-0.273898	-0.669797
C240	C	1.091693	0.226102	-0.169797
C241	C	0.591689	-0.273903	-0.622876
C242	C	1.091689	0.226097	-0.122876
C243	C	0.620440	-0.245183	-0.599432
C244	C	1.120440	0.254817	-0.099432
C245	C	0.620441	-0.245202	-0.552525
C246	C	1.120441	0.254798	-0.052525
N247	N	0.649188	-0.216480	-0.529079
N248	N	1.149188	0.283520	-0.029079
C249	C	0.677941	-0.187749	-0.552551
C250	C	1.177941	0.312251	-0.052551
C251	C	0.620491	-0.245113	-0.979474
C252	C	1.120491	0.254887	-0.479474
C253	C	0.620497	-0.245105	-1.026392
C254	C	1.120497	0.254895	-0.526392
C255	C	0.677999	-0.187650	-1.026418
C256	C	1.177999	0.312350	-0.526418
C257	C	0.677994	-0.187661	-0.979499
C258	C	1.177994	0.312339	-0.479499
C259	C	0.649237	-0.216391	-0.956028
C260	C	1.149237	0.283609	-0.456028
C261	C	0.677930	-0.187776	-0.454025
C262	C	1.177930	0.312224	0.045975
C263	C	0.677925	-0.187792	-0.407105
C264	C	1.177925	0.312208	0.092895
C265	C	0.620421	-0.245244	-0.407083
C266	C	1.120421	0.254756	0.092917
C267	C	0.620428	-0.245230	-0.453999
C268	C	1.120428	0.254770	0.046001
C269	C	0.649184	-0.216493	-0.477469
C270	C	1.149184	0.283507	0.022531
O271	O	0.596011	-0.269633	-0.528212
O272	O	1.096011	0.230367	-0.028212
O273	O	0.702383	-0.163320	-0.528294
O274	O	1.202383	0.336680	-0.028294
C275	C	0.677959	-0.187706	-0.740215
C276	C	1.177959	0.312294	-0.240215
C277	C	0.649211	-0.216425	-0.763659
C278	C	1.149211	0.283575	-0.263659
C279	C	0.620458	-0.245155	-0.740187
C280	C	1.120458	0.254845	-0.240187
C281	C	0.649217	-0.216417	-0.810577
C282	C	1.149217	0.283583	-0.310577
C283	C	0.677970	-0.187686	-0.834049
C284	C	1.177970	0.312314	-0.334049
C285	C	0.706717	-0.158964	-0.810603
C286	C	1.206717	0.341036	-0.310603
C287	C	0.706712	-0.158976	-0.763687
C288	C	1.206712	0.341024	-0.263687
C289	C	0.591711	-0.273877	-0.763633
C290	C	1.091711	0.226123	-0.263633
C291	C	0.591718	-0.273864	-0.810548
C292	C	1.091718	0.226136	-0.310548
C293	C	0.620471	-0.245133	-0.834020
C294	C	1.120471	0.254867	-0.334020
C295	C	0.649168	-0.216499	-0.099798
C296	C	1.149168	0.283501	0.400202
C297	C	0.649250	-0.216374	-0.049864
C298	C	1.149250	0.283626	0.450136
H299	H	0.393030	-0.268723	-0.268530
H300	H	0.893030	0.231277	0.231470
H301	H	0.568387	-0.744228	-0.135607
H302	H	1.068387	-0.244228	0.364393
N303	N	0.735916	-0.598397	-0.303424
N304	N	1.235916	-0.098397	0.196576
N305	N	0.777371	-0.603624	-0.300482
N306	N	1.277371	-0.103624	0.199518
H307	H	0.798095	-0.586689	-0.321228
H308	H	1.298095	-0.086689	0.178772
H309	H	0.730125	-0.135588	-0.744604
H310	H	1.230125	0.364412	-0.244604
N311	N	0.126433	-0.303480	-0.303174
N312	N	0.626433	0.196520	0.196826
N313	N	0.121167	-0.344929	-0.300111
N314	N	0.621167	0.155071	0.199889
H315	H	0.138084	-0.365695	-0.320793
H316	H	0.638084	0.134305	0.179207
N317	N	0.591077	-0.477601	-0.158355
N318	N	1.091077	0.022399	0.341645
N319	N	0.562436	-0.503789	-0.174128
N320	N	1.062436	-0.003789	0.325872
H321	H	0.541720	-0.520732	-0.153381
H322	H	1.041720	-0.020732	0.346619
N323	N	0.483010	-0.274676	-0.274450
N324	N	0.983010	0.225324	0.225550
N325	N	0.524900	-0.274674	-0.274443
N326	N	1.024900	0.225326	0.225557
H327	H	0.541828	-0.295429	-0.295128
H328	H	1.041828	0.204571	0.204872
H329	H	-0.179372	-0.164352	-0.164539
H330	H	0.320628	0.335648	0.335461
N331	N	0.031587	-0.303476	-0.303184
N332	N	0.531587	0.196524	0.196816
N333	N	-0.010304	-0.303470	-0.303180
N334	N	0.489696	0.196530	0.196820
H335	H	-0.027237	-0.324228	-0.323863
H336	H	0.472763	0.175772	0.176137
H337	H	0.730118	-0.135601	-0.688962
H338	H	1.230118	0.364399	-0.188962
N339	N	0.031600	-0.129593	-0.129908
N340	N	0.531600	0.370407	0.370092
N341	N	0.052554	-0.103904	-0.104308
N342	N	0.552554	0.396096	0.395692
H343	H	0.035640	-0.083141	-0.083620
H344	H	0.535640	0.416859	0.416380
H345	H	-0.094265	-0.164339	-0.164534
H346	H	0.405735	0.335661	0.335466
N347	N	0.267173	-0.303471	-0.303161
N348	N	0.767173	0.196529	0.196839
N349	N	0.246216	-0.329158	-0.328761
N350	N	0.746216	0.170842	0.171239
H351	H	0.263129	-0.349920	-0.349451
H352	H	0.763129	0.150080	0.150549
N353	N	0.562313	-0.303246	-0.598894
N354	N	1.062313	0.196754	-0.098894
N355	N	0.533695	-0.287440	-0.572709
N356	N	1.033695	0.212560	-0.072709
H357	H	0.512949	-0.308163	-0.555771
H358	H	1.012949	0.191837	-0.055771
N359	N	0.707362	-0.158300	-1.050406
N360	N	1.207362	0.341700	-0.550406
N361	N	0.691569	-0.129670	-1.076590
N362	N	1.191569	0.370330	-0.576590
H363	H	0.712302	-0.108941	-1.093534
H364	H	1.212302	0.391059	-0.593534
N365	N	0.483006	-0.158343	-0.158529
N366	N	0.983006	0.341657	0.341471
N367	N	0.509209	-0.129744	-0.174399
N368	N	1.009209	0.370256	0.325601
H369	H	0.526143	-0.108982	-0.153721
H370	H	1.026143	0.391018	0.346279
N371	N	0.591052	-0.274583	-0.383094
N372	N	1.091052	0.225417	0.116906
N373	N	0.562438	-0.258770	-0.356908
N374	N	1.062438	0.241230	0.143092
H375	H	0.541694	-0.279489	-0.339963
H376	H	1.041694	0.220511	0.160037
H377	H	0.701339	-0.164403	-0.388020
H378	H	1.201339	0.335597	0.111980
N379	N	0.172357	-0.129567	-0.129898
N380	N	0.672357	0.370433	0.370102
N381	N	0.177629	-0.088118	-0.132966
N382	N	0.677629	0.411882	0.367034
H383	H	0.160718	-0.067348	-0.112282
H384	H	0.660718	0.432652	0.387718
H385	H	-0.094256	-0.268759	-0.268583
H386	H	0.405744	0.231241	0.231417
N387	N	0.126417	-0.129585	-0.129900
N388	N	0.626417	0.370415	0.370100
N389	N	0.105459	-0.103901	-0.104304
N390	N	0.605459	0.396099	0.395696
H391	H	0.122371	-0.083137	-0.083610
H392	H	0.622371	0.416863	0.416390
N393	N	0.707294	-0.954998	-0.274714
N394	N	1.207294	-0.454998	0.225286
N395	N	0.748751	-0.960211	-0.271776
N396	N	1.248751	-0.460211	0.228224
H397	H	0.769467	-0.943265	-0.292520
H398	H	1.269467	-0.443265	0.207480
N399	N	0.707308	-1.049848	-0.274729
N400	N	1.207308	-0.549848	0.225271
N401	N	0.707312	-1.091738	-0.274725
N402	N	1.207312	-0.591738	0.225275
H403	H	0.728026	-1.108643	-0.295474
H404	H	1.228026	-0.608643	0.204526
N405	N	0.736087	-0.129622	-0.834591
N406	N	1.236087	0.370378	-0.334591
N407	N	0.736083	-0.129622	-0.876481
N408	N	1.236083	0.370378	-0.376481
H409	H	0.756824	-0.108899	-0.893425
H410	H	1.256824	0.391101	-0.393425
H411	H	0.597182	-1.045124	-0.164401
H412	H	1.097182	-0.545124	0.335599
H413	H	0.729988	-0.744002	-0.297495
H414	H	1.229988	-0.244002	0.202505
N415	N	0.591067	-0.382756	-0.158338
N416	N	1.091067	0.117244	0.341662
N417	N	0.591066	-0.340865	-0.158338
N418	N	1.091066	0.159135	0.341662
H419	H	0.570355	-0.323961	-0.137586
H420	H	1.070355	0.176039	0.362414
H421	H	0.701406	-0.164274	-0.960415
H422	H	1.201406	0.335726	-0.460415
N423	N	0.735955	-0.833979	-0.303463
N424	N	1.235955	-0.333979	0.196537
N425	N	0.735958	-0.875869	-0.303461
N426	N	1.235958	-0.375869	0.196539
H427	H	0.756672	-0.892775	-0.324208
H428	H	1.256672	-0.392775	0.175792
N429	N	0.707303	-0.158417	-0.477987
N430	N	1.207303	0.341583	0.022013
N431	N	0.732967	-0.132778	-0.457042
N432	N	1.232967	0.367222	0.042958
H433	H	0.753713	-0.112044	-0.473965
H434	H	1.253713	0.387956	0.026035
H435	H	0.701208	-0.472582	-0.268692
H436	H	1.201208	0.027418	0.231308
H437	H	0.597073	-0.268511	-0.960368
H438	H	1.097073	0.231489	-0.460368
N439	N	0.267176	-0.129563	-0.129892
N440	N	0.767176	0.370437	0.370108
N441	N	0.246221	-0.103872	-0.104299
N442	N	0.746221	0.396128	0.395701
H443	H	0.263136	-0.083104	-0.083612
H444	H	0.763136	0.416896	0.416388
H445	H	0.729974	-0.688362	-0.297486
H446	H	1.229974	-0.188362	0.202514
H447	H	0.730112	-0.135623	-0.603857
H448	H	1.230112	0.364377	-0.103857
N449	N	0.562348	-0.303210	-0.834485
N450	N	1.062348	0.196790	-0.334485
N451	N	0.536679	-0.328859	-0.813517
N452	N	1.036679	0.171141	-0.313517
H453	H	0.515935	-0.349582	-0.830420
H454	H	1.015935	0.150418	-0.330420
H455	H	0.568297	-0.297274	-0.744526
H456	H	1.068297	0.202726	-0.244526
N457	N	0.562459	-0.834199	-0.129657
N458	N	1.062459	-0.334199	0.370343
N459	N	0.536823	-0.813278	-0.103977
N460	N	1.036823	-0.313278	0.396023
H461	H	0.516110	-0.830221	-0.083227
H462	H	1.016110	-0.330221	0.416773
H463	H	0.568280	-0.297285	-0.688876
H464	H	1.068280	0.202715	-0.188876
N465	N	0.172357	-0.303473	-0.303177
N466	N	0.672357	0.196527	0.196823
N467	N	0.193317	-0.329158	-0.328771
N468	N	0.693317	0.170842	0.171229
H469	H	0.176406	-0.349923	-0.349464
H470	H	0.676406	0.150077	0.150536
H471	H	0.597090	-0.268497	-1.045476
H472	H	1.097090	0.231503	-0.545476
H473	H	0.597153	-0.960016	-0.164394
H474	H	1.097153	-0.460016	0.335606
H475	H	0.597020	-0.268621	-0.473087
H476	H	1.097020	0.231379	0.026913
N477	N	0.562407	-0.693443	-0.129642
N478	N	1.062407	-0.193443	0.370358
N479	N	0.536766	-0.672519	-0.103970
N480	N	1.036766	-0.172519	0.396030
H481	H	0.516044	-0.689459	-0.083226
H482	H	1.016044	-0.189459	0.416774
H483	H	0.701192	-0.387473	-0.268665
H484	H	1.201192	0.112527	0.231335
N485	N	-0.184236	-0.274729	-0.274530
N486	N	0.315764	0.225271	0.225470
N487	N	-0.210436	-0.303335	-0.258669
N488	N	0.289564	0.196665	0.241331
H489	H	-0.227362	-0.324097	-0.279354
H490	H	0.272638	0.175903	0.220646
N491	N	0.388158	-0.158349	-0.158527
N492	N	0.888158	0.341651	0.341473
N493	N	0.409110	-0.132660	-0.132924
N494	N	0.909110	0.367340	0.367076
H495	H	0.392192	-0.111898	-0.112237
H496	H	0.892192	0.388102	0.387763
N497	N	0.562385	-0.598622	-0.129630
N498	N	1.062385	-0.098622	0.370370
N499	N	0.536757	-0.619611	-0.103958
N500	N	1.036757	-0.119611	0.396042
H501	H	0.516033	-0.602724	-0.083206
H502	H	1.016033	-0.102724	0.416794
