data_functionalizedCrystal
_audit_creation_method	'MofGen! by Chris Wilmer'
_symmetry_space_group_name_H-M	'P1'
_symmetry_Int_Tables_number	1
_symmetry_cell_setting	triclinic
loop_
_symmetry_equiv_pos_as_xyz
  x,y,z
_cell_length_a	19.077105
_cell_length_b	18.215405
_cell_length_c	18.215399
_cell_angle_alpha	90.030551
_cell_angle_beta	87.683200
_cell_angle_gamma	92.278881
loop_
_atom_site_label
_atom_site_type_symbol
_atom_site_fract_x
_atom_site_fract_y
_atom_site_fract_z
Zn1	Zn	1.075983	0.338265	-0.461243
Zn2	Zn	1.409317	0.671599	-0.127910
Zn3	Zn	1.742650	1.004932	0.205424
Zn4	Zn	1.075896	0.461333	-0.338167
Zn5	Zn	1.409229	0.794666	-0.004834
Zn6	Zn	1.742562	1.127999	0.328499
Zn7	Zn	0.958286	0.333336	-0.333253
Zn8	Zn	1.291619	0.666669	0.000081
Zn9	Zn	1.624952	1.000003	0.333414
Zn10	Zn	0.958253	0.456341	-0.456257
Zn11	Zn	1.291586	0.789674	-0.122924
Zn12	Zn	1.624920	1.123008	0.210410
O13	O	1.017104	0.397319	-0.397230
O14	O	1.350438	0.730652	-0.063897
O15	O	1.683771	1.063985	0.269437
O16	O	1.174463	0.358742	-0.449060
O17	O	1.507796	0.692076	-0.115727
O18	O	1.841129	1.025409	0.217606
O19	O	1.060272	0.444380	-0.234530
O20	O	1.393605	0.777713	0.098803
O21	O	1.726938	1.111047	0.432136
O22	O	0.973949	0.231008	-0.350261
O23	O	1.307282	0.564341	-0.016927
O24	O	1.640615	0.897674	0.316406
O25	O	1.174398	0.449160	-0.358637
O26	O	1.507732	0.782493	-0.025304
O27	O	1.841065	1.115826	0.308029
O28	O	1.060421	0.234629	-0.444295
O29	O	1.393754	0.567963	-0.110961
O30	O	1.727088	0.901296	0.222372
O31	O	0.973864	0.350341	-0.230919
O32	O	1.307197	0.683675	0.102414
O33	O	1.640530	1.017008	0.435747
O34	O	0.859790	0.345501	-0.345426
O35	O	1.193124	0.678834	-0.012093
O36	O	1.526457	1.012168	0.321241
O37	O	0.973893	0.440652	-0.559904
O38	O	1.307226	0.773985	-0.226570
O39	O	1.640560	1.107318	0.106763
O40	O	0.859766	0.435872	-0.435797
O41	O	1.193100	0.769205	-0.102463
O42	O	1.526433	1.102539	0.230870
O43	O	1.060389	0.353902	-0.563567
O44	O	1.393723	0.687235	-0.230234
O45	O	1.727056	1.020569	0.103100
O46	O	1.060240	0.563653	-0.353802
O47	O	1.393573	0.896986	-0.020469
O48	O	1.726907	1.230319	0.312864
O49	O	0.973808	0.559985	-0.440562
O50	O	1.307142	0.893319	-0.107229
O51	O	1.640475	1.226652	0.226104
C52	C	0.834241	0.389610	-0.389537
C53	C	1.167574	0.722944	-0.056204
C54	C	1.500907	1.056277	0.277129
C55	C	0.756011	0.386331	-0.386264
C56	C	1.089344	0.719664	-0.052930
C57	C	1.422678	1.052997	0.280403
C58	C	1.017030	0.588522	-0.397192
C59	C	1.350363	0.921855	-0.063858
C60	C	1.683697	1.255189	0.269475
C61	C	1.017063	0.670322	-0.397202
C62	C	1.350396	1.003656	-0.063869
C63	C	1.683729	1.336989	0.269464
C64	C	1.017147	0.397270	-0.589185
C65	C	1.350481	0.730603	-0.255851
C66	C	1.683814	1.063937	0.077482
C67	C	1.017166	0.397249	-0.670985
C68	C	1.350499	0.730582	-0.337651
C69	C	1.683832	1.063916	-0.004318
C70	C	0.719264	0.431912	-0.431703
C71	C	1.052598	0.765245	-0.098370
C72	C	1.385931	1.098579	0.234964
C73	C	0.645759	0.428820	-0.428631
C74	C	0.979092	0.762154	-0.095297
C75	C	1.312426	1.095487	0.238036
C76	C	0.609002	0.380151	-0.380115
C77	C	0.942335	0.713484	-0.046782
C78	C	1.275668	1.046817	0.286552
C79	C	0.645753	0.334564	-0.334674
C80	C	0.979087	0.667898	-0.001340
C81	C	1.312420	1.001231	0.331993
C82	C	0.719257	0.337653	-0.337750
C83	C	1.052591	0.670986	-0.004417
C84	C	1.385924	1.004319	0.328916
C85	C	0.389168	0.365857	-0.365880
C86	C	0.722501	0.699191	-0.032546
C87	C	1.055834	1.032524	0.300787
C88	C	0.315659	0.362774	-0.362805
C89	C	0.648992	0.696107	-0.029472
C90	C	0.982325	1.029441	0.303862
C91	C	0.315669	0.457030	-0.456763
C92	C	0.649003	0.790363	-0.123430
C93	C	0.982336	1.123696	0.209903
C94	C	0.389175	0.460117	-0.459833
C95	C	0.722508	0.793450	-0.126499
C96	C	1.055841	1.126784	0.206834
C97	C	0.425920	0.414528	-0.414394
C98	C	0.759253	0.747861	-0.081061
C99	C	1.092587	1.081194	0.252272
N100	N	0.533867	0.376991	-0.376972
N101	N	0.867201	0.710324	-0.043638
N102	N	1.200534	1.043658	0.289695
N103	N	0.501053	0.417684	-0.417542
N104	N	0.834386	0.751018	-0.084208
N105	N	1.167720	1.084351	0.249125
C106	C	1.200682	0.405058	-0.404953
C107	C	1.534015	0.738391	-0.071620
C108	C	1.867349	1.071724	0.261713
C109	C	1.278912	0.408356	-0.408244
C110	C	1.612245	0.741689	-0.074911
C111	C	1.945579	1.075022	0.258422
C112	C	1.017198	0.205370	-0.397286
C113	C	1.350532	0.538703	-0.063952
C114	C	1.683865	0.872036	0.269381
C115	C	1.017238	0.123573	-0.397309
C116	C	1.350572	0.456906	-0.063976
C117	C	1.683905	0.790239	0.269357
C118	C	1.062173	0.860406	-0.352118
C119	C	1.395507	1.193739	-0.018784
C120	C	1.728840	1.527072	0.314549
C121	C	1.062205	0.937266	-0.352137
C122	C	1.395538	1.270599	-0.018803
C123	C	1.728872	1.603932	0.314530
C124	C	0.972126	0.933483	-0.442399
C125	C	1.305459	1.266817	-0.109066
C126	C	1.638792	1.600150	0.224267
C127	C	0.972098	0.856625	-0.442383
C128	C	1.305431	1.189958	-0.109050
C129	C	1.638765	1.523292	0.224283
C130	C	1.017121	0.820088	-0.397238
C131	C	1.350454	1.153421	-0.063905
C132	C	1.683788	1.486755	0.269428
C133	C	1.017180	0.973807	-0.397273
C134	C	1.350513	1.307140	-0.063940
C135	C	1.683847	1.640473	0.269393
C136	C	1.017214	1.057142	-0.397294
C137	C	1.350547	1.390475	-0.063961
C138	C	1.683880	1.723808	0.269372
C139	C	1.017088	0.736748	-0.397218
C140	C	1.350422	1.070081	-0.063885
C141	C	1.683755	1.403414	0.269449
C142	C	1.062220	0.352035	-0.861088
C143	C	1.395554	0.685368	-0.527755
C144	C	1.728887	1.018702	-0.194421
C145	C	1.062229	0.352014	-0.937947
C146	C	1.395562	0.685347	-0.604614
C147	C	1.728895	1.018681	-0.271280
C148	C	0.972161	0.442351	-0.934121
C149	C	1.305494	0.775684	-0.600788
C150	C	1.638827	1.109018	-0.267455
C151	C	0.972149	0.442368	-0.857263
C152	C	1.305483	0.775701	-0.523930
C153	C	1.638816	1.109035	-0.190597
C154	C	1.017183	0.397211	-0.820749
C155	C	1.350516	0.730544	-0.487416
C156	C	1.683850	1.063878	-0.154082
C157	C	1.017203	0.397173	-0.974466
C158	C	1.350536	0.730507	-0.641133
C159	C	1.683870	1.063840	-0.307799
C160	C	1.017212	0.397151	-1.057800
C161	C	1.350545	0.730484	-0.724467
C162	C	1.683878	1.063817	-0.391133
C163	C	1.017174	0.397232	-0.737409
C164	C	1.350507	0.730566	-0.404076
C165	C	1.683840	1.063899	-0.070743
C166	C	1.017102	0.397316	-0.206024
C167	C	1.350436	0.730649	0.127310
C168	C	1.683769	1.063983	0.460643
C169	C	1.017220	0.397135	-0.124230
C170	C	1.350554	0.730469	0.209103
C171	C	1.683887	1.063802	0.542436
H172	H	0.749187	0.471547	-0.471207
H173	H	1.082520	0.804880	-0.137874
H174	H	1.415853	1.138213	0.195459
H175	H	1.098835	0.830659	-0.315359
H176	H	1.432168	1.163993	0.017975
H177	H	1.765501	1.497326	0.351308
H178	H	1.098888	0.315263	-0.831360
H179	H	1.432221	0.648597	-0.498027
H180	H	1.765554	0.981930	-0.164693
H181	H	0.935497	0.479118	-0.963861
H182	H	1.268831	0.812451	-0.630527
H183	H	1.602164	1.145785	-0.297194
H184	H	1.098892	0.970089	-0.315396
H185	H	1.432225	1.303423	0.017937
H186	H	1.765559	1.636756	0.351271
H187	H	0.419097	0.499751	-0.499338
H188	H	0.752431	0.833084	-0.166004
H189	H	1.085764	1.166417	0.167329
H190	H	0.749176	0.300531	-0.300753
H191	H	1.082509	0.633865	0.032581
H192	H	1.415842	0.967198	0.365914
H193	H	1.098901	0.315226	-0.970788
H194	H	1.432235	0.648559	-0.637454
H195	H	1.765568	0.981893	-0.304121
H196	H	0.935470	0.479155	-0.824418
H197	H	1.268803	0.812488	-0.491085
H198	H	1.602136	1.145821	-0.157751
H199	H	0.935469	0.963241	-0.479154
H200	H	1.268802	1.296575	-0.145820
H201	H	1.602135	1.629908	0.187513
H202	H	0.419077	0.328741	-0.328875
H203	H	0.752410	0.662074	0.004458
H204	H	1.085744	0.995408	0.337792
H205	H	0.935411	0.823796	-0.479130
H206	H	1.268744	1.157129	-0.145796
H207	H	1.602078	1.490463	0.187537
H208	H	0.615843	0.465938	-0.465632
H209	H	0.949176	0.799272	-0.132298
H210	H	1.282510	1.132605	0.201035
H211	H	0.285743	0.494145	-0.493758
H212	H	0.619077	0.827478	-0.160424
H213	H	0.952410	1.160811	0.172909
H214	H	0.615820	0.294933	-0.295174
H215	H	0.949153	0.628266	0.038159
H216	H	1.282486	0.961600	0.371492
H217	H	0.285733	0.323133	-0.323302
H218	H	0.619066	0.656466	0.010031
H219	H	0.952400	0.989800	0.343365
