data_functionalizedCrystal
_audit_creation_method	'MofGen! by Chris Wilmer'
_symmetry_space_group_name_H-M	'P1'
_symmetry_Int_Tables_number	1
_symmetry_cell_setting	triclinic
loop_
_symmetry_equiv_pos_as_xyz
  x,y,z
_cell_length_a	29.839131
_cell_length_b	29.839135
_cell_length_c	21.395355
_cell_angle_alpha	89.971956
_cell_angle_beta	90.027826
_cell_angle_gamma	89.962946
loop_
_atom_site_label
_atom_site_type_symbol
_atom_site_fract_x
_atom_site_fract_y
_atom_site_fract_z
Zn1	Zn	-0.178883	-0.686793	0.354279
Zn2	Zn	0.154450	-0.353460	0.687613
Zn3	Zn	0.487783	-0.020127	1.020946
Zn4	Zn	-0.253999	-0.686718	0.249485
Zn5	Zn	0.079335	-0.353384	0.582818
Zn6	Zn	0.412668	-0.020051	0.916151
Zn7	Zn	-0.178886	-0.611660	0.249510
Zn8	Zn	0.154447	-0.278327	0.582843
Zn9	Zn	0.487781	0.055007	0.916176
Zn10	Zn	-0.253990	-0.611632	0.354219
Zn11	Zn	0.079344	-0.278299	0.687552
Zn12	Zn	0.412677	0.055035	1.020885
O13	O	-0.216439	-0.649201	0.301873
O14	O	0.116894	-0.315867	0.635206
O15	O	0.450227	0.017466	0.968540
O16	O	-0.188850	-0.749650	0.340393
O17	O	0.144483	-0.416317	0.673726
O18	O	0.477816	-0.082984	1.007060
O19	O	-0.244040	-0.676741	0.161810
O20	O	0.089294	-0.343408	0.495143
O21	O	0.422627	-0.010074	0.828477
O22	O	-0.116018	-0.621670	0.263443
O23	O	0.217315	-0.288337	0.596777
O24	O	0.550648	0.044996	0.930110
O25	O	-0.244037	-0.749595	0.263401
O26	O	0.089296	-0.416261	0.596734
O27	O	0.422629	-0.082928	0.930068
O28	O	-0.116017	-0.676870	0.340417
O29	O	0.217317	-0.343537	0.673750
O30	O	0.550650	-0.010204	1.007084
O31	O	-0.188855	-0.621597	0.161828
O32	O	0.144479	-0.288263	0.495162
O33	O	0.477812	0.045070	0.828495
O34	O	-0.188846	-0.548789	0.263384
O35	O	0.144488	-0.215456	0.596718
O36	O	0.477821	0.117877	0.930051
O37	O	-0.244022	-0.621622	0.441904
O38	O	0.089312	-0.288289	0.775238
O39	O	0.422645	0.045044	1.108571
O40	O	-0.244024	-0.548769	0.340314
O41	O	0.089309	-0.215435	0.673647
O42	O	0.422643	0.117898	1.006980
O43	O	-0.188842	-0.676843	0.441949
O44	O	0.144492	-0.343510	0.775282
O45	O	0.477825	-0.010176	1.108616
O46	O	-0.316865	-0.676714	0.263342
O47	O	0.016469	-0.343381	0.596675
O48	O	0.349802	-0.010047	0.930009
O49	O	-0.316858	-0.621549	0.340290
O50	O	0.016475	-0.288216	0.673623
O51	O	0.349809	0.045118	1.006956
C52	C	-0.216435	-0.532478	0.301846
C53	C	0.116899	-0.199145	0.635179
C54	C	0.450232	0.134188	0.968512
C55	C	-0.216443	-0.482544	0.301849
C56	C	0.116890	-0.149210	0.635182
C57	C	0.450223	0.184123	0.968515
C58	C	-0.187741	-0.172926	0.342019
C59	C	0.145592	0.160407	0.675352
C60	C	0.478925	0.493740	1.008685
C61	C	-0.187742	0.014747	0.342035
C62	C	0.145591	0.348080	0.675369
C63	C	0.478925	0.681413	1.008702
O64	O	-0.163331	0.038989	0.376161
O65	O	0.170002	0.372323	0.709495
O66	O	0.503335	0.705656	1.042828
N67	N	-0.216431	0.038241	0.301892
N68	N	0.116902	0.371575	0.635225
N69	N	0.450235	0.704908	0.968558
C70	C	-0.245121	0.014815	0.261738
C71	C	0.088213	0.348148	0.595071
C72	C	0.421546	0.681481	0.928405
O73	O	-0.269519	0.039105	0.227589
O74	O	0.063814	0.372438	0.560922
O75	O	0.397147	0.705771	0.894256
C76	C	-0.245117	-0.172857	0.261719
C77	C	0.088216	0.160476	0.595052
C78	C	0.421549	0.493809	0.928385
C79	C	-0.216429	-0.196350	0.301869
C80	C	0.116904	0.136984	0.635203
C81	C	0.450237	0.470317	0.968536
C82	C	-0.159055	-0.196419	0.382166
C83	C	0.174278	0.136915	0.715499
C84	C	0.507611	0.470248	1.048833
C85	C	-0.159057	-0.243334	0.382164
C86	C	0.174276	0.089999	0.715497
C87	C	0.507610	0.423332	1.048830
C88	C	-0.187745	-0.266757	0.342014
C89	C	0.145588	0.066576	0.675348
C90	C	0.478922	0.399909	1.008681
C91	C	-0.216431	-0.243265	0.301867
C92	C	0.116902	0.090068	0.635201
C93	C	0.450236	0.423402	0.968534
C94	C	-0.273804	-0.196283	0.221562
C95	C	0.059530	0.137050	0.554896
C96	C	0.392863	0.470384	0.888229
C97	C	-0.273799	-0.243204	0.221560
C98	C	0.059534	0.090129	0.554893
C99	C	0.392867	0.423463	0.888226
C100	C	-0.245111	-0.266696	0.261711
C101	C	0.088222	0.066637	0.595044
C102	C	0.421555	0.399970	0.928377
C103	C	-0.245121	-0.313604	0.261716
C104	C	0.088213	0.019730	0.595049
C105	C	0.421546	0.353063	0.928383
N106	N	-0.216431	-0.337098	0.301860
N107	N	0.116902	-0.003765	0.635193
N108	N	0.450235	0.329568	0.968526
C109	C	-0.187743	-0.313675	0.342009
C110	C	0.145590	0.019658	0.675342
C111	C	0.478923	0.352991	1.008676
C112	C	-0.245121	0.113345	0.261752
C113	C	0.088212	0.446679	0.595085
C114	C	0.421546	0.780012	0.928418
C115	C	-0.245122	0.160263	0.261757
C116	C	0.088211	0.493597	0.595091
C117	C	0.421544	0.826930	0.928424
C118	C	-0.187743	0.160192	0.342054
C119	C	0.145590	0.493525	0.675387
C120	C	0.478923	0.826858	1.008721
C121	C	-0.187744	0.113273	0.342051
C122	C	0.145589	0.446606	0.675385
C123	C	0.478922	0.779940	1.008718
C124	C	-0.216432	0.089851	0.301896
C125	C	0.116902	0.423184	0.635229
C126	C	0.450235	0.756517	0.968562
C127	C	-0.187750	-0.412201	0.342002
C128	C	0.145584	-0.078868	0.675335
C129	C	0.478917	0.254466	1.008668
C130	C	-0.187755	-0.459121	0.341998
C131	C	0.145578	-0.125787	0.675331
C132	C	0.478911	0.207546	1.008665
C133	C	-0.245133	-0.459045	0.261699
C134	C	0.088201	-0.125712	0.595032
C135	C	0.421534	0.207622	0.928366
C136	C	-0.245129	-0.412130	0.261705
C137	C	0.088204	-0.078796	0.595038
C138	C	0.421538	0.254537	0.928372
C139	C	-0.216434	-0.388709	0.301858
C140	C	0.116900	-0.055375	0.635192
C141	C	0.450233	0.277958	0.968525
O142	O	-0.269515	-0.337875	0.227603
O143	O	0.063818	-0.004542	0.560936
O144	O	0.397152	0.328791	0.894270
O145	O	-0.163341	-0.337973	0.376143
O146	O	0.169992	-0.004640	0.709476
O147	O	0.503325	0.328693	1.042810
C148	C	-0.187739	-0.126011	0.342021
C149	C	0.145594	0.207322	0.675354
C150	C	0.478927	0.540656	1.008688
C151	C	-0.216426	-0.102519	0.301874
C152	C	0.116908	0.230815	0.635207
C153	C	0.450241	0.564148	0.968540
C154	C	-0.245113	-0.125942	0.261725
C155	C	0.088220	0.207391	0.595058
C156	C	0.421553	0.540725	0.928391
C157	C	-0.216427	-0.055601	0.301879
C158	C	0.116906	0.277732	0.635213
C159	C	0.450240	0.611066	0.968546
C160	C	-0.187739	-0.032178	0.342029
C161	C	0.145594	0.301156	0.675362
C162	C	0.478927	0.634489	1.008695
C163	C	-0.159050	-0.055672	0.382172
C164	C	0.174284	0.277661	0.715506
C165	C	0.507617	0.610994	1.048839
C166	C	-0.159052	-0.102588	0.382170
C167	C	0.174282	0.230745	0.715504
C168	C	0.507615	0.564079	1.048837
C169	C	-0.273803	-0.102447	0.221581
C170	C	0.059531	0.230886	0.554914
C171	C	0.392864	0.564219	0.888247
C172	C	-0.273799	-0.055532	0.221587
C173	C	0.059534	0.277802	0.554920
C174	C	0.392868	0.611135	0.888253
C175	C	-0.245111	-0.032109	0.261736
C176	C	0.088222	0.301225	0.595069
C177	C	0.421556	0.634558	0.928403
C178	C	-0.333162	-0.649132	0.301820
C179	C	0.000171	-0.315799	0.635154
C180	C	0.333505	0.017534	0.968487
C181	C	-0.383096	-0.649144	0.301819
C182	C	-0.049763	-0.315811	0.635152
C183	C	0.283570	0.017523	0.968485
C184	C	-0.692704	-0.677937	0.342010
C185	C	-0.359371	-0.344604	0.675344
C186	C	-0.026037	-0.011271	1.008677
C187	C	-0.880377	-0.677986	0.342048
C188	C	-0.547044	-0.344653	0.675381
C189	C	-0.213710	-0.011319	1.008715
O190	O	-0.904611	-0.702400	0.376181
O191	O	-0.571278	-0.369067	0.709515
O192	O	-0.237945	-0.035733	1.042848
N193	N	-0.903881	-0.649277	0.301943
N194	N	-0.570548	-0.315944	0.635276
N195	N	-0.237215	0.017390	0.968609
C196	C	-0.880465	-0.620552	0.261828
C197	C	-0.547131	-0.287219	0.595161
C198	C	-0.213798	0.046115	0.928494
O199	O	-0.904763	-0.596131	0.227721
O200	O	-0.571430	-0.262798	0.561054
O201	O	-0.238096	0.070536	0.894388
C202	C	-0.692793	-0.620501	0.261794
C203	C	-0.359459	-0.287168	0.595127
C204	C	-0.026126	0.046165	0.928460
C205	C	-0.669291	-0.649215	0.301897
C206	C	-0.335957	-0.315882	0.635231
C207	C	-0.002624	0.017451	0.968564
C208	C	-0.669202	-0.706649	0.382111
C209	C	-0.335869	-0.373315	0.715445
C210	C	-0.002535	-0.039982	1.048778
C211	C	-0.622286	-0.706638	0.382099
C212	C	-0.288953	-0.373304	0.715432
C213	C	0.044380	-0.039971	1.048766
C214	C	-0.598873	-0.677916	0.341986
C215	C	-0.265540	-0.344582	0.675319
C216	C	0.067794	-0.011249	1.008653
C217	C	-0.622375	-0.649204	0.301885
C218	C	-0.289042	-0.315871	0.635218
C219	C	0.044292	0.017462	0.968552
C220	C	-0.669377	-0.591774	0.221682
C221	C	-0.336043	-0.258441	0.555016
C222	C	-0.002710	0.074893	0.888349
C223	C	-0.622456	-0.591763	0.221679
C224	C	-0.289122	-0.258430	0.555012
C225	C	0.044211	0.074904	0.888345
C226	C	-0.598954	-0.620477	0.261782
C227	C	-0.265620	-0.287144	0.595116
C228	C	0.067713	0.046190	0.928449
C229	C	-0.552046	-0.620472	0.261760
C230	C	-0.218713	-0.287138	0.595093
C231	C	0.114620	0.046195	0.928426
N232	N	-0.528542	-0.649181	0.301865
N233	N	-0.195209	-0.315847	0.635199
N234	N	0.138125	0.017486	0.968532
C235	C	-0.551955	-0.677903	0.341978
C236	C	-0.218622	-0.344569	0.675312
C237	C	0.114711	-0.011236	1.008645
C238	C	-0.978995	-0.620581	0.261848
C239	C	-0.645662	-0.287248	0.595181
C240	C	-0.312329	0.046086	0.928514
C241	C	-1.025913	-0.620594	0.261855
C242	C	-0.692580	-0.287261	0.595188
C243	C	-0.359247	0.046072	0.928522
C244	C	-1.025822	-0.678028	0.342076
C245	C	-0.692489	-0.344695	0.675410
C246	C	-0.359156	-0.011361	1.008743
C247	C	-0.978903	-0.678017	0.342065
C248	C	-0.645570	-0.344683	0.675399
C249	C	-0.312237	-0.011350	1.008732
C250	C	-0.955491	-0.649290	0.301953
C251	C	-0.622158	-0.315957	0.635286
C252	C	-0.288824	0.017377	0.968620
C253	C	-0.453429	-0.677878	0.341949
C254	C	-0.120096	-0.344545	0.675283
C255	C	0.213237	-0.011211	1.008616
C256	C	-0.406510	-0.677866	0.341932
C257	C	-0.073176	-0.344533	0.675265
C258	C	0.260157	-0.011199	1.008598
C259	C	-0.406605	-0.620431	0.261713
C260	C	-0.073272	-0.287098	0.595046
C261	C	0.260062	0.046236	0.928380
C262	C	-0.453520	-0.620444	0.261728
C263	C	-0.120187	-0.287111	0.595061
C264	C	0.213146	0.046222	0.928395
C265	C	-0.476932	-0.649170	0.301851
C266	C	-0.143598	-0.315836	0.635185
C267	C	0.189735	0.017497	0.968518
O268	O	-0.527783	-0.596067	0.227649
O269	O	-0.194450	-0.262734	0.560983
O270	O	0.138884	0.070600	0.894316
O271	O	-0.527649	-0.702313	0.376090
O272	O	-0.194316	-0.368979	0.709423
O273	O	0.139018	-0.035646	1.042756
C274	C	-0.739619	-0.677948	0.342023
C275	C	-0.406286	-0.344615	0.675356
C276	C	-0.072953	-0.011281	1.008689
C277	C	-0.763121	-0.649237	0.301922
C278	C	-0.429788	-0.315903	0.635255
C279	C	-0.096455	0.017430	0.968588
C280	C	-0.739708	-0.620515	0.261809
C281	C	-0.406375	-0.287181	0.595142
C282	C	-0.073041	0.046152	0.928475
C283	C	-0.810039	-0.649250	0.301929
C284	C	-0.476706	-0.315917	0.635263
C285	C	-0.143373	0.017417	0.968596
C286	C	-0.833453	-0.677972	0.342042
C287	C	-0.500119	-0.344639	0.675376
C288	C	-0.166786	-0.011305	1.008709
C289	C	-0.809948	-0.706681	0.382148
C290	C	-0.476615	-0.373347	0.715481
C291	C	-0.143282	-0.040014	1.048815
C292	C	-0.763033	-0.706670	0.382136
C293	C	-0.429699	-0.373337	0.715469
C294	C	-0.096366	-0.040003	1.048802
C295	C	-0.763213	-0.591806	0.221703
C296	C	-0.429879	-0.258472	0.555037
C297	C	-0.096546	0.074861	0.888370
C298	C	-0.810128	-0.591819	0.221718
C299	C	-0.476795	-0.258486	0.555052
C300	C	-0.143461	0.074847	0.888385
C301	C	-0.833541	-0.620541	0.261831
C302	C	-0.500208	-0.287208	0.595165
C303	C	-0.166875	0.046125	0.928498
C304	C	-0.099261	-0.649282	0.301940
C305	C	0.234072	-0.315949	0.635273
C306	C	0.567406	0.017385	0.968606
C307	C	-0.049327	-0.649316	0.301968
C308	C	0.284007	-0.315983	0.635302
C309	C	0.617340	0.017350	0.968635
C310	C	-0.216430	-0.649238	0.465296
C311	C	0.116903	-0.315905	0.798630
C312	C	0.450236	0.017429	1.131963
C313	C	-0.216426	-0.649254	0.534938
C314	C	0.116907	-0.315921	0.868271
C315	C	0.450240	0.017413	1.201604
C316	C	-0.216442	0.233621	0.301899
C317	C	0.116892	0.566954	0.635233
C318	C	0.450225	0.900288	0.968566
C319	C	-0.216435	0.183686	0.301907
C320	C	0.116899	0.517020	0.635240
C321	C	0.450232	0.850353	0.968573
C322	C	-0.216416	-0.649190	0.139085
C323	C	0.116917	-0.315856	0.472419
C324	C	0.450251	0.017477	0.805752
C325	C	-0.216293	-0.649261	0.069445
C326	C	0.117040	-0.315927	0.402778
C327	C	0.450373	0.017406	0.736111
C328	C	-0.187693	-0.678006	0.567675
C329	C	0.145640	-0.344673	0.901008
C330	C	0.478974	-0.011340	1.234342
C331	C	-0.187674	-0.678006	0.633110
C332	C	0.145660	-0.344672	0.966444
C333	C	0.478993	-0.011339	1.299777
C334	C	-0.216396	-0.649258	0.665806
C335	C	0.116937	-0.315924	0.999139
C336	C	0.450271	0.017409	1.332473
C337	C	-0.245131	-0.620500	0.633061
C338	C	0.088202	-0.287166	0.966394
C339	C	0.421535	0.046167	1.299727
C340	C	-0.245147	-0.620498	0.567627
C341	C	0.088187	-0.287165	0.900960
C342	C	0.421520	0.046169	1.234293
C343	C	-0.256847	-0.645686	0.769462
C344	C	0.076486	-0.312353	1.102795
C345	C	0.409820	0.020980	1.436129
C346	C	-0.256833	-0.645691	0.834895
C347	C	0.076501	-0.312358	1.168228
C348	C	0.409834	0.020975	1.501562
C349	C	-0.216348	-0.649260	0.867627
C350	C	0.116985	-0.315927	1.200960
C351	C	0.450318	0.017406	1.534294
C352	C	-0.175878	-0.652834	0.834918
C353	C	0.157456	-0.319500	1.168251
C354	C	0.490789	0.013833	1.501584
C355	C	-0.175893	-0.652832	0.769483
C356	C	0.157441	-0.319499	1.102817
C357	C	0.490774	0.013835	1.436150
C358	C	-0.216382	-0.649256	0.736758
C359	C	0.116951	-0.315923	1.070092
C360	C	0.450284	0.017411	1.403425
C361	C	-0.187591	-0.678013	0.971317
C362	C	0.145742	-0.344680	1.304650
C363	C	0.479075	-0.011347	1.637984
C364	C	-0.187571	-0.678010	1.036754
C365	C	0.145762	-0.344676	1.370087
C366	C	0.479095	-0.011343	1.703420
C367	C	-0.245033	-0.620506	1.036703
C368	C	0.088300	-0.287173	1.370036
C369	C	0.421634	0.046161	1.703369
C370	C	-0.245049	-0.620508	0.971267
C371	C	0.088284	-0.287174	1.304601
C372	C	0.421617	0.046159	1.637934
C373	C	-0.216329	-0.649264	0.938578
C374	C	0.117004	-0.315930	1.271912
C375	C	0.450338	0.017403	1.605245
H376	H	-0.164382	-0.393137	0.374697
H377	H	0.168951	-0.059804	0.708030
H378	H	0.502285	0.273529	1.041363
O379	O	-0.156807	-0.484455	0.385303
O380	O	0.176526	-0.151122	0.718636
O381	O	0.509859	0.182211	1.051970
H382	H	-0.176946	-0.505827	0.417132
H383	H	0.156387	-0.172493	0.750465
H384	H	0.489721	0.160840	1.083798
H385	H	-0.164171	-0.701422	1.063407
H386	H	0.169163	-0.368089	1.396741
H387	H	0.502496	-0.034756	1.730074
O388	O	-0.737692	-0.737644	0.425391
O389	O	-0.404359	-0.404311	0.758724
O390	O	-0.071025	-0.070978	1.092058
H391	H	-0.716316	-0.717527	0.457240
H392	H	-0.382983	-0.384194	0.790573
H393	H	-0.049649	-0.050861	1.123907
O394	O	-0.835206	-0.737661	0.425414
O395	O	-0.501872	-0.404327	0.758747
O396	O	-0.168539	-0.070994	1.092081
H397	H	-0.826183	-0.729936	0.474575
H398	H	-0.492850	-0.396603	0.807908
H399	H	-0.159517	-0.063270	1.141242
O400	O	-1.051080	-0.709006	0.385345
O401	O	-0.717747	-0.375673	0.718678
O402	O	-0.384413	-0.042339	1.052011
H403	H	-1.042058	-0.701278	0.434505
H404	H	-0.708725	-0.367945	0.767839
H405	H	-0.375392	-0.034611	1.101172
O406	O	-0.694450	-0.737629	0.425382
O407	O	-0.361117	-0.404296	0.758716
O408	O	-0.027783	-0.070962	1.092049
H409	H	-0.715819	-0.760502	0.397377
H410	H	-0.382485	-0.427168	0.730711
H411	H	-0.049152	-0.093835	1.064044
O412	O	-0.128111	-0.171162	0.425477
O413	O	0.205223	0.162171	0.758810
O414	O	0.538556	0.495504	1.092144
H415	H	-0.105218	-0.149792	0.397506
H416	H	0.228115	0.183542	0.730840
H417	H	0.561449	0.516875	1.064173
O418	O	-0.381160	-0.708838	0.385187
O419	O	-0.047827	-0.375504	0.718521
O420	O	0.285506	-0.042171	1.051854
H421	H	-0.359782	-0.731701	0.357166
H422	H	-0.026449	-0.398368	0.690500
H423	H	0.306884	-0.065034	1.023833
H424	H	-0.164203	-0.701426	0.944700
H425	H	0.169130	-0.368092	1.278033
H426	H	0.502463	-0.034759	1.611367
H427	H	-0.289806	-0.642660	0.742817
H428	H	0.043528	-0.309327	1.076151
H429	H	0.376861	0.024007	1.409484
O430	O	-0.276110	-0.589491	0.668319
O431	O	0.057223	-0.256157	1.001653
O432	O	0.390556	0.077176	1.334986
H433	H	-0.271275	-0.594325	0.719321
H434	H	0.062058	-0.260991	1.052654
H435	H	0.395391	0.072342	1.385987
H436	H	-0.603396	-0.568369	0.189015
H437	H	-0.270062	-0.235036	0.522348
H438	H	0.063271	0.098298	0.855682
O439	O	-0.300482	-0.641840	0.870168
O440	O	0.032851	-0.308507	1.203502
O441	O	0.366184	0.024827	1.536835
H442	H	-0.293672	-0.642448	0.921167
H443	H	0.039661	-0.309114	1.254501
H444	H	0.372995	0.024219	1.587834
O445	O	-0.276129	-0.589476	0.532311
O446	O	0.057204	-0.256142	0.865644
O447	O	0.390538	0.077191	1.198977
H448	H	-0.296096	-0.569481	0.566036
H449	H	0.037238	-0.236148	0.899369
H450	H	0.370571	0.097186	1.232703
O451	O	-0.128103	-0.030405	0.425473
O452	O	0.205230	0.302928	0.758806
O453	O	0.538564	0.636261	1.092140
H454	H	-0.132922	0.006166	0.418720
H455	H	0.200411	0.339499	0.752053
H456	H	0.533745	0.672832	1.085386
H457	H	-0.297164	-0.036408	0.188892
H458	H	0.036169	0.296925	0.522225
H459	H	0.369502	0.630258	0.855559
H460	H	-0.959936	-0.597188	0.229182
H461	H	-0.626603	-0.263854	0.562515
H462	H	-0.293269	0.069479	0.895848
H463	H	-0.268494	-0.393001	0.229018
H464	H	0.064839	-0.059668	0.562351
H465	H	0.398172	0.273665	0.895685
H466	H	-1.045045	-0.597217	0.229192
H467	H	-0.711711	-0.263884	0.562525
H468	H	-0.378378	0.069449	0.895859
H469	H	-0.472657	-0.597067	0.229067
H470	H	-0.139323	-0.263733	0.562401
H471	H	0.194010	0.069600	0.895734
O472	O	-0.478677	-0.708862	0.385219
O473	O	-0.145344	-0.375529	0.718553
O474	O	0.187989	-0.042195	1.051886
H475	H	-0.454446	-0.728826	0.413094
H476	H	-0.121113	-0.395492	0.746427
H477	H	0.212220	-0.062159	1.079761
H478	H	-0.164383	0.094149	0.374744
H479	H	0.168950	0.427482	0.708078
H480	H	0.502284	0.760815	1.041411
H481	H	-0.829259	-0.568437	0.189055
H482	H	-0.495926	-0.235104	0.522388
H483	H	-0.162593	0.098229	0.855722
O484	O	-0.381348	-0.589452	0.218450
O485	O	-0.048015	-0.256118	0.551783
O486	O	0.285318	0.077215	0.885117
H487	H	-0.344776	-0.594267	0.225189
H488	H	-0.011442	-0.260934	0.558522
H489	H	0.321891	0.072400	0.891855
H490	H	-0.268450	-0.597097	0.944612
H491	H	0.064883	-0.263764	1.277945
H492	H	0.398217	0.069570	1.611279
H493	H	-0.688504	-0.568392	0.189025
H494	H	-0.355171	-0.235059	0.522359
H495	H	-0.021837	0.098275	0.855692
O496	O	-0.737962	-0.560832	0.178427
O497	O	-0.404629	-0.227499	0.511761
O498	O	-0.071295	0.105835	0.845094
H499	H	-0.762192	-0.540877	0.150540
H500	H	-0.428859	-0.207544	0.483873
H501	H	-0.095526	0.125789	0.817206
O502	O	-0.276070	-0.484312	0.218390
O503	O	0.057263	-0.150979	0.551723
O504	O	0.390597	0.182354	0.885057
H505	H	-0.271244	-0.520883	0.225131
H506	H	0.062090	-0.187550	0.558464
H507	H	0.395423	0.145783	0.891797
O508	O	-0.276011	-0.589498	1.071962
O509	O	0.057323	-0.256165	1.405296
O510	O	0.390656	0.077168	1.738629
H511	H	-0.268303	-0.554245	1.059385
H512	H	0.065031	-0.220911	1.392718
H513	H	0.398364	0.112422	1.726052
H514	H	-0.164306	-0.701421	0.541064
H515	H	0.169027	-0.368088	0.874397
H516	H	0.502361	-0.034754	1.207730
O517	O	-0.156799	0.185460	0.385356
O518	O	0.176535	0.518794	0.718689
O519	O	0.509868	0.852127	1.052023
H520	H	-0.121529	0.176436	0.374701
H521	H	0.211804	0.509769	0.708034
H522	H	0.545137	0.843103	1.041368
H523	H	-0.135696	-0.262458	0.414858
H524	H	0.197638	0.070876	0.748191
H525	H	0.530971	0.404209	1.081524
O526	O	-0.156686	-0.709022	0.668433
O527	O	0.176648	-0.375688	1.001766
O528	O	0.509981	-0.042355	1.335099
H529	H	-0.136720	-0.729019	0.634709
H530	H	0.196613	-0.395686	0.968042
H531	H	0.529947	-0.062352	1.301375
O532	O	-0.128104	-0.127924	0.425467
O533	O	0.205230	0.205409	0.758801
O534	O	0.538563	0.538743	1.092134
H535	H	-0.108154	-0.103748	0.453377
H536	H	0.225180	0.229586	0.786710
H537	H	0.558513	0.562919	1.120043
H538	H	-0.268488	0.179387	0.229069
H539	H	0.064845	0.512720	0.562403
H540	H	0.398179	0.846053	0.895736
O541	O	-0.276064	0.088085	0.218439
O542	O	0.057269	0.421418	0.551772
O543	O	0.390602	0.754751	0.885106
H544	H	-0.296013	0.112309	0.190533
H545	H	0.037320	0.445642	0.523866
H546	H	0.370653	0.778975	0.857199
O547	O	-0.132247	-0.656684	0.734201
O548	O	0.201087	-0.323350	1.067535
O549	O	0.534420	0.009983	1.400868
H550	H	-0.104091	-0.659164	0.767949
H551	H	0.229243	-0.325831	1.101283
H552	H	0.562576	0.007502	1.434616
O553	O	-0.132206	-0.656671	0.870209
O554	O	0.201127	-0.323338	1.203542
O555	O	0.534461	0.009995	1.536876
H556	H	-0.138991	-0.656063	0.921205
H557	H	0.194342	-0.322729	1.254538
H558	H	0.527675	0.010604	1.587871
H559	H	-0.297160	-0.262272	0.188858
H560	H	0.036173	0.071061	0.522192
H561	H	0.369507	0.404395	0.855525
O562	O	-0.304740	-0.170951	0.178247
O563	O	0.028594	0.162382	0.511581
O564	O	0.361927	0.495715	0.844914
H565	H	-0.324679	-0.195128	0.150325
H566	H	0.008655	0.138205	0.483658
H567	H	0.341988	0.471538	0.816991
O568	O	-0.304745	-0.127707	0.178272
O569	O	0.028588	0.205626	0.511605
O570	O	0.361922	0.538960	0.844938
H571	H	-0.340014	-0.118682	0.188927
H572	H	-0.006681	0.214652	0.522260
H573	H	0.326652	0.547985	0.855593
O574	O	-0.596946	-0.737616	0.425349
O575	O	-0.263613	-0.404283	0.758683
O576	O	0.069721	-0.070949	1.092016
H577	H	-0.605936	-0.729898	0.474515
H578	H	-0.272602	-0.396565	0.807849
H579	H	0.060731	-0.063231	1.141182
O580	O	-0.953555	-0.708988	0.385317
O581	O	-0.620222	-0.375654	0.718650
O582	O	-0.286889	-0.042321	1.051983
H583	H	-0.977723	-0.728961	0.413208
H584	H	-0.644390	-0.395627	0.746542
H585	H	-0.311056	-0.062294	1.079875
