data_functionalizedCrystal
_audit_creation_method	'MofGen! by Chris Wilmer'
_symmetry_space_group_name_H-M	'P1'
_symmetry_Int_Tables_number	1
_symmetry_cell_setting	triclinic
loop_
_symmetry_equiv_pos_as_xyz
  x,y,z
_cell_length_a	15.297475
_cell_length_b	18.101395
_cell_length_c	15.298159
_cell_angle_alpha	80.337941
_cell_angle_beta	88.367350
_cell_angle_gamma	80.333681
loop_
_atom_site_label
_atom_site_type_symbol
_atom_site_fract_x
_atom_site_fract_y
_atom_site_fract_z
Zn1	Zn	1.253133	-0.576523	0.726551
Zn2	Zn	1.278409	-0.683121	0.580069
Zn3	Zn	1.132057	-0.534879	0.554800
Zn4	Zn	1.106609	-0.675871	0.701193
O5	O	1.192552	-0.617598	0.640653
O6	O	1.379055	-0.611125	0.728307
O7	O	1.280223	-0.649062	0.454148
O8	O	1.148189	-0.436786	0.577620
O9	O	1.397625	-0.689443	0.620688
O10	O	1.237144	-0.467381	0.703805
O11	O	1.172699	-0.540149	0.435582
O12	O	1.006112	-0.533120	0.553031
O13	O	1.104818	-0.677086	0.827126
O14	O	0.987415	-0.636706	0.660586
O15	O	1.212468	-0.604095	0.845756
O16	O	1.255548	-0.785777	0.596099
O17	O	1.129327	-0.780450	0.685088
C18	C	0.964983	-0.579608	0.601315
C19	C	0.867624	-0.563375	0.584507
C20	C	1.192439	-0.809986	0.640607
C21	C	1.192466	-0.892308	0.640630
C22	C	0.554407	-0.733619	0.760785
C23	C	0.645881	-0.748875	0.776574
C24	C	0.701321	-0.702501	0.728559
C25	C	0.665278	-0.640869	0.664751
C26	C	0.573796	-0.625615	0.648955
C27	C	0.720710	-0.594497	0.616730
C28	C	0.684668	-0.532865	0.552922
C29	C	0.593195	-0.517613	0.537129
C30	C	0.537755	-0.563987	0.585144
C31	C	0.812192	-0.609752	0.632526
C32	C	0.831582	-0.501747	0.520696
C33	C	0.740108	-0.486491	0.504907
C34	C	1.192650	-1.191436	0.640711
C35	C	1.113363	-1.156836	0.696896
C36	C	1.113079	-1.071140	0.696628
C37	C	1.192559	-1.043035	0.640672
C38	C	1.183576	-1.059157	0.544047
C39	C	1.183070	-1.144778	0.544378
C40	C	1.281208	-1.178023	0.680364
C41	C	1.280312	-1.092519	0.682294
C42	C	1.192509	-0.959165	0.640644
C43	C	1.192698	-1.275305	0.640732
C44	C	1.421010	-0.655738	0.680145
C45	C	1.518365	-0.671991	0.696974
C46	C	1.152985	-0.644427	0.869110
C47	C	1.136124	-0.655860	0.966465
C48	C	1.192686	-0.424465	0.640722
C49	C	1.192743	-0.342164	0.640752
C50	C	1.072151	-0.699233	1.002500
C51	C	1.056310	-0.709979	1.093970
C52	C	1.104436	-0.677349	1.149414
C53	C	1.168406	-0.633971	1.113379
C54	C	1.184253	-0.623229	1.021901
C55	C	1.216538	-0.601345	1.168815
C56	C	1.280508	-0.557968	1.132780
C57	C	1.296352	-0.547227	1.041311
C58	C	1.248226	-0.579857	0.985867
C59	C	1.200691	-0.612088	1.260293
C60	C	1.312793	-0.536084	1.279694
C61	C	1.328633	-0.525338	1.188224
C62	C	1.231959	-0.590889	1.413083
C63	C	1.248820	-0.579457	1.315728
H64	H	0.841529	-0.659933	0.684479
H65	H	1.116845	-1.060737	0.767774
H66	H	1.380719	-0.490020	1.158871
Br67	Br	1.119309	-1.208853	0.815806
Br68	Br	0.479170	-0.796564	0.825917
Br69	Br	0.544283	-0.433976	0.450523
Br70	Br	1.004055	-1.170820	0.651488
Br71	Br	0.413604	-0.543278	0.563726
Br72	Br	0.969507	-0.768855	1.142870
H73	H	1.091534	-0.686101	1.223892
Br74	Br	0.694791	-0.832517	0.863163
Br75	Br	1.006852	-0.743517	0.927254
Br76	Br	0.691182	-0.402848	0.418315
H77	H	1.240213	-1.040626	0.500344
H78	H	1.239182	-1.167195	0.500229
H79	H	1.120096	-1.024191	0.512081
Br80	Br	0.825466	-0.723206	0.749990
H81	H	0.876722	-0.463987	0.481597
Br82	Br	1.003131	-1.014921	0.650753
H83	H	1.118811	-1.151162	0.512646
H84	H	1.292518	-1.211156	0.750463
H85	H	1.261115	-0.571104	0.911382
Br86	Br	1.292091	-1.077145	0.800949
H87	H	1.148606	-0.647406	1.289623
H88	H	1.351982	-0.509515	1.324837
Br89	Br	1.379339	-1.216092	0.612499
Br90	Br	1.381843	-1.062574	0.621192
H91	H	1.348448	-0.511914	1.011976
