data_functionalizedCrystal
_audit_creation_method	'MofGen! by Chris Wilmer'
_symmetry_space_group_name_H-M	'P1'
_symmetry_Int_Tables_number	1
_symmetry_cell_setting	triclinic
loop_
_symmetry_equiv_pos_as_xyz
  x,y,z
_cell_length_a	31.640172
_cell_length_b	15.698487
_cell_length_c	31.640172
_cell_angle_alpha	60.007873
_cell_angle_beta	90.008445
_cell_angle_gamma	59.997715
loop_
_atom_site_label
_atom_site_type_symbol
_atom_site_fract_x
_atom_site_fract_y
_atom_site_fract_z
Zr1	Zr	0.407181	0.932280	-0.055396
O2	O	0.339690	1.109991	-0.122884
O3	O	0.427870	0.754570	-0.034709
O4	O	0.427869	0.932258	-0.122874
O5	O	0.339692	0.932320	0.034830
O6	O	0.497426	0.932240	-0.122865
O7	O	0.339691	0.932303	-0.034718
O8	O	0.497428	0.614388	0.034847
O9	O	0.339690	1.250172	-0.122883
O10	O	0.488604	0.827651	-0.025877
O11	O	0.436695	0.827678	0.026019
O12	O	0.436693	1.036883	-0.077785
O13	O	0.384784	1.036909	-0.025889
Zr14	Zr	0.518118	0.932280	0.055540
Zr15	Zr	0.518116	0.932252	-0.055381
Zr16	Zr	0.407182	0.932309	0.055526
Zr17	Zr	0.407180	1.155853	-0.055393
Zr18	Zr	0.518118	0.708707	0.055538
O19	O	0.497428	1.109991	0.034853
O20	O	0.497426	1.109951	-0.122863
O21	O	0.339692	1.110031	0.034832
O22	O	0.585608	0.754570	0.123028
O23	O	0.585606	0.754530	-0.034688
O24	O	0.427872	0.754610	0.123007
O25	O	0.585606	0.932240	-0.034686
O26	O	0.497429	0.932303	0.123019
O27	O	0.427872	0.932320	0.123009
O28	O	0.585607	0.932258	0.034863
O29	O	0.427869	1.250150	-0.122871
O30	O	0.497430	0.614411	0.123015
O31	O	0.585608	0.614388	0.123027
O32	O	0.585607	0.614366	0.034859
O33	O	0.339691	1.250195	-0.034715
O34	O	0.427870	1.250172	-0.034703
O35	O	0.488605	0.827678	0.077929
O36	O	0.540514	0.827651	0.026033
O37	O	0.488603	1.036883	-0.025875
O38	O	0.436695	1.036909	0.026021
C39	C	0.462649	0.652625	0.000069
C40	C	0.462649	0.557712	0.000068
C41	C	0.462648	0.383929	0.000077
C42	C	0.462648	0.480634	0.000073
C43	C	0.323886	0.932316	0.000054
C44	C	0.276791	0.932328	0.000047
C45	C	0.011882	0.823052	0.027178
C46	C	-0.165104	0.823031	0.027188
O47	O	-0.164945	0.730146	0.050251
N48	N	-0.214330	0.932247	0.000092
C49	C	-0.219309	1.041476	-0.027005
O50	O	-0.265241	1.134370	-0.050048
C51	C	-0.042325	1.041496	-0.027012
C52	C	0.006901	0.932273	0.000081
C53	C	0.061105	0.713838	0.054270
C54	C	0.105349	0.713845	0.054264
C55	C	0.100368	0.823065	0.027168
C56	C	0.051144	0.932279	0.000076
C57	C	-0.047305	1.150723	-0.054107
C58	C	-0.003053	1.150719	-0.054105
C59	C	0.046173	1.041496	-0.027011
C60	C	0.090407	1.041506	-0.027026
N61	N	0.139634	0.932290	0.000070
C62	C	0.144614	0.823070	0.027167
C63	C	-0.312227	1.041458	-0.027001
C64	C	-0.356473	1.041454	-0.027000
C65	C	-0.302264	0.823008	0.027195
C66	C	-0.258017	0.823014	0.027190
C67	C	-0.263001	0.932242	0.000095
C68	C	0.237526	0.823091	0.027154
C69	C	0.281771	0.823107	0.027144
C70	C	0.227559	1.041551	-0.027048
C71	C	0.183317	1.041536	-0.027041
C72	C	0.188305	0.932296	0.000064
O73	O	0.090288	1.134343	-0.050072
O74	O	0.190550	0.730189	0.050215
C75	C	-0.032362	0.823046	0.027183
C76	C	-0.081586	0.932260	0.000091
C77	C	-0.086566	1.041481	-0.027005
C78	C	-0.125832	0.932256	0.000092
C79	C	-0.120851	0.823035	0.027189
C80	C	-0.071625	0.713819	0.054285
C81	C	-0.027381	0.713826	0.054280
C82	C	-0.135792	1.150696	-0.054101
C83	C	-0.180034	1.150681	-0.054095
C84	C	-0.175053	1.041461	-0.026998
C85	C	0.601412	0.932245	0.000091
C86	C	0.648507	0.932233	0.000097
C87	C	0.462647	0.932245	-0.138674
C88	C	0.462646	0.932233	-0.185763
C89	C	0.462649	1.211936	0.000075
C90	C	0.462649	1.306849	0.000076
C91	C	0.435557	1.041508	-0.504893
C92	C	0.435558	1.041529	-0.681888
O93	O	0.412532	1.134415	-0.727818
N94	N	0.462653	0.932313	-0.676923
C95	C	0.489754	0.823085	-0.627705
O96	O	0.512805	0.730190	-0.627543
C97	C	0.489756	0.823065	-0.450710
C98	C	0.462654	0.932288	-0.455680
C99	C	0.408458	1.150722	-0.509860
C100	C	0.408456	1.150716	-0.465614
C101	C	0.435553	1.041496	-0.416400
C102	C	0.462652	0.932282	-0.411433
C103	C	0.516859	0.713837	-0.401493
C104	C	0.516858	0.713842	-0.357244
C105	C	0.489756	0.823065	-0.362213
C106	C	0.489747	0.823055	-0.317973
N107	N	0.462651	0.932271	-0.322938
C108	C	0.435554	1.041491	-0.372152
C109	C	0.489750	0.823103	-0.720631
C110	C	0.489749	0.823107	-0.764879
C111	C	0.435553	1.041552	-0.819060
C112	C	0.435552	1.041546	-0.774811
C113	C	0.462654	0.932318	-0.725596
C114	C	0.435551	1.041470	-0.279229
C115	C	0.435550	1.041454	-0.234976
C116	C	0.489747	0.823009	-0.180799
C117	C	0.489746	0.823024	-0.225048
C118	C	0.462647	0.932264	-0.274264
O119	O	0.512765	0.730218	-0.272028
O120	O	0.412516	1.134372	-0.372303
C121	C	0.435559	1.041515	-0.549140
C122	C	0.462658	0.932301	-0.544173
C123	C	0.489755	0.823080	-0.494959
C124	C	0.462657	0.932305	-0.588421
C125	C	0.435560	1.041526	-0.637634
C126	C	0.408465	1.150741	-0.642599
C127	C	0.408462	1.150735	-0.598353
C128	C	0.516851	0.713864	-0.489994
C129	C	0.516851	0.713880	-0.534243
C130	C	0.489754	0.823100	-0.583456
C131	C	0.462651	0.932316	0.138818
C132	C	0.462652	0.932328	0.185907
C133	C	0.601413	0.652589	0.000088
C134	C	0.648508	0.557665	0.000093
C135	C	0.462651	0.652660	0.138815
C136	C	0.462652	0.557759	0.185903
C137	C	0.601415	0.652625	0.138833
C138	C	0.648510	0.557712	0.185928
C139	C	0.323884	1.211936	-0.138689
C140	C	0.276788	1.306849	-0.185783
C141	C	0.323886	1.211971	0.000057
C142	C	0.276791	1.306896	0.000052
C143	C	0.462647	1.211901	-0.138670
C144	C	0.462646	1.306801	-0.185758
C145	C	0.643527	0.513087	-0.027006
C146	C	0.687774	0.423908	-0.027011
C147	C	0.737000	0.379302	0.000085
C148	C	0.741980	0.423888	0.027185
C149	C	0.697734	0.513072	0.027187
C150	C	0.489749	0.513193	0.235117
C151	C	0.489748	0.424036	0.279365
C152	C	0.462652	0.379441	0.274399
C153	C	0.435552	0.424016	0.225179
C154	C	0.435550	0.513178	0.180932
C155	C	0.697728	0.513126	0.180954
C156	C	0.741983	0.423958	0.225200
C157	C	0.737021	0.379372	0.274419
C158	C	0.687798	0.423966	0.279391
C159	C	0.643544	0.513139	0.235146
C160	C	0.227571	1.351445	-0.180810
C161	C	0.183315	1.440641	-0.225056
C162	C	0.188278	1.485232	-0.274274
C163	C	0.237500	1.440632	-0.279247
C164	C	0.281755	1.351444	-0.235001
C165	C	0.281771	1.351483	0.027146
C166	C	0.237524	1.440687	0.027139
C167	C	0.188298	1.485296	0.000041
C168	C	0.183319	1.440706	-0.027057
C169	C	0.227565	1.351509	-0.027053
C170	C	0.489747	1.351368	-0.180775
C171	C	0.489757	1.440525	-0.225015
C172	C	0.462662	1.485121	-0.274238
C173	C	0.435560	1.440545	-0.279220
C174	C	0.435554	1.351383	-0.234981
H175	H	0.321853	0.734161	0.049209
H176	H	0.511811	1.315072	-0.140699
H177	H	0.603449	0.549405	-0.049078
C178	C	0.546658	0.593706	-0.435861
N179	N	0.569108	0.503195	-0.395089
C180	C	0.682285	0.374869	-0.056819
N181	N	0.678149	0.337932	-0.079268
C182	C	0.462664	0.281349	0.323077
N183	N	0.462678	0.207461	0.359744
H184	H	0.223502	1.315209	-0.049114
C185	C	0.519569	1.489547	-0.219523
N186	N	0.542023	1.526469	-0.215384
C187	C	0.462673	1.583204	-0.322898
N188	N	0.462682	1.657082	-0.359547
H189	H	-0.298215	0.734077	0.049255
H190	H	0.773024	0.306681	0.000080
H191	H	0.782066	0.387557	0.049245
H192	H	0.143240	1.476939	-0.220997
H193	H	0.413500	1.476869	-0.319304
C194	C	0.405731	1.302386	-0.240472
N195	N	0.383265	1.265489	-0.244611
C196	C	0.026764	0.593670	0.084088
N197	N	0.067545	0.503163	0.106542
H198	H	0.511814	0.549492	0.239171
C199	C	-0.410619	1.161607	-0.056811
N200	N	-0.451401	1.252112	-0.079263
H201	H	0.241589	1.476977	0.049207
C202	C	-0.234181	1.270844	-0.083903
N203	N	-0.274964	1.361348	-0.106350
C204	C	0.242950	1.489685	-0.333392
N205	N	0.247054	1.526626	-0.374176
C206	C	0.243020	0.702922	0.056966
N207	N	0.247159	0.612410	0.079417
C208	C	-0.317718	1.161626	-0.056817
N209	N	-0.321856	1.252137	-0.079278
H210	H	0.145427	0.624904	0.076325
H211	H	0.065170	0.624893	0.076338
H212	H	0.511818	0.387754	0.319438
C213	C	-0.203871	0.702862	0.056999
N214	N	-0.163089	0.612357	0.079453
C215	C	0.796123	0.374910	0.219719
N216	N	0.836900	0.337966	0.215589
C217	C	-0.101446	1.270880	-0.083910
N218	N	-0.142227	1.361389	-0.106360
H219	H	-0.139856	1.239639	-0.076168
C220	C	0.546672	0.593679	-0.303108
N221	N	0.569126	0.503173	-0.262333
C222	C	0.589405	0.562170	0.240625
N223	N	0.548629	0.599099	0.244756
H224	H	0.413491	0.387694	0.221143
H225	H	0.413486	0.549452	0.140861
H226	H	0.701778	0.549416	0.140882
H227	H	0.701796	0.549356	0.049257
C228	C	0.519562	0.702935	-0.666497
N229	N	0.542014	0.612423	-0.625724
C230	C	0.519558	0.702875	-0.219582
N231	N	0.542018	0.612375	-0.215461
H232	H	0.321828	1.315134	-0.239057
H233	H	0.773060	0.306761	0.310442
H234	H	0.152274	1.557925	0.000042
H235	H	0.321850	1.315169	0.049216
H236	H	0.143233	1.477040	-0.049119
C237	C	0.222099	1.302419	-0.126673
N238	N	0.217974	1.265505	-0.085899
H239	H	-0.007117	1.239667	-0.076163
C240	C	0.519642	0.702873	-0.126658
N241	N	0.542195	0.612385	-0.085877
H242	H	0.538929	0.624896	-0.397436
H243	H	0.683765	0.387650	0.319471
H244	H	0.386393	1.239676	-0.602406
H245	H	0.143234	1.130474	-0.049109
C246	C	-0.066155	0.593676	0.084093
N247	N	-0.062038	0.503190	0.106545
H248	H	0.223512	1.130476	-0.049111
H249	H	0.413485	1.130423	-0.319298
C250	C	0.378635	1.270885	-0.563993
N251	N	0.356164	1.361398	-0.604764
C252	C	0.378649	1.270871	-0.471088
N253	N	0.356199	1.361379	-0.475215
H254	H	0.413483	1.130486	-0.778862
C255	C	0.378659	1.270884	-0.696743
N256	N	0.356214	1.361371	-0.737525
C257	C	0.405750	1.161696	-0.873204
N258	N	0.383307	1.252183	-0.913985
H259	H	0.152239	1.557855	-0.310298
H260	H	0.413478	1.130400	-0.239028
H261	H	0.511811	0.734167	-0.760827
H262	H	0.538918	0.624930	-0.530188
