data_functionalizedCrystal
_audit_creation_method	'MofGen! by Chris Wilmer'
_symmetry_space_group_name_H-M	'P1'
_symmetry_Int_Tables_number	1
_symmetry_cell_setting	triclinic
loop_
_symmetry_equiv_pos_as_xyz
  x,y,z
_cell_length_a	13.635800
_cell_length_b	8.749630
_cell_length_c	9.170709
_cell_angle_alpha	84.483388
_cell_angle_beta	67.539355
_cell_angle_gamma	74.818015
loop_
_atom_site_label
_atom_site_type_symbol
_atom_site_fract_x
_atom_site_fract_y
_atom_site_fract_z
V1	V	2.057154	-0.151134	-0.484959
O2	O	2.046299	0.077188	-0.477814
O3	O	2.036247	-0.366925	-0.479636
O4	O	2.050387	-0.118128	-0.697382
O5	O	2.032061	-0.173332	-0.258560
V6	V	2.296282	-0.127450	-0.458124
O7	O	2.193559	-0.203089	-0.543825
O8	O	2.384976	-0.075495	-0.399258
O9	O	2.205586	0.088341	-0.463448
O10	O	2.365835	-0.355772	-0.465269
O11	O	2.380074	-0.105252	-0.684523
O12	O	2.191446	-0.160456	-0.245701
V13	V	2.557154	-0.151134	-0.484959
O14	O	2.546299	0.077188	-0.477814
O15	O	2.536247	-0.366925	-0.479636
O16	O	2.550387	-0.118128	-0.697382
O17	O	2.532061	-0.173332	-0.258560
V18	V	2.796282	-0.127450	-0.458124
O19	O	2.693559	-0.203089	-0.543825
O20	O	2.884976	-0.075495	-0.399258
O21	O	2.705586	0.088341	-0.463448
O22	O	2.865835	-0.355772	-0.465269
O23	O	2.880074	-0.105252	-0.684523
O24	O	2.691446	-0.160456	-0.245701
C25	C	1.958984	-0.420489	-0.471467
C26	C	1.982649	-0.596704	-0.468531
C27	C	2.114520	0.141896	-0.471611
C28	C	2.080474	0.318110	-0.474558
C29	C	1.977021	-0.103121	-0.749223
C30	C	2.012151	-0.077563	-0.922867
C31	C	2.096483	-0.175469	-0.193852
C32	C	2.050971	-0.201020	-0.020207
C33	C	2.458984	-0.420489	-0.471467
C34	C	2.482649	-0.596704	-0.468531
C35	C	2.477021	-0.103121	-0.749223
C36	C	2.512151	-0.077563	-0.922867
C37	C	2.614520	0.141896	-0.471611
C38	C	2.580474	0.318110	-0.474558
C39	C	2.596483	-0.175469	-0.193852
C40	C	2.550971	-0.201020	-0.020207
C41	C	2.620501	-0.072344	-1.012300
C42	C	2.653521	-0.048308	-1.175455
C43	C	2.578191	-0.029503	-1.249175
C44	C	2.469831	-0.034718	-1.159729
C45	C	2.436811	-0.058742	-0.996576
C46	C	2.444074	-0.219802	0.053473
C47	C	2.401292	-0.243791	0.216633
C48	C	2.465413	-0.249009	0.306108
C49	C	2.572319	-0.230221	0.232418
C50	C	2.615096	-0.206221	0.069263
H51	H	2.146124	-0.620012	-0.481973
H52	H	2.417000	-0.658589	-0.461132
H53	H	2.057336	-0.326276	-0.970702
H54	H	2.005797	0.047701	-0.972379
C55	C	2.668060	-0.599596	-0.484187
C56	C	2.698441	-0.641498	-0.353394
C57	C	2.779131	-0.565725	-0.362219
H58	H	2.640109	-0.488138	-0.484846
H59	H	2.730153	-0.631257	-0.578237
H60	H	2.636361	-0.609826	-0.259369
H61	H	2.726412	-0.752942	-0.352710
H62	H	2.841223	-0.597386	-0.456268
H63	H	2.751170	-0.454270	-0.362881
H64	H	2.799762	-0.594156	-0.273487
C65	C	2.702143	-0.092529	-0.932042
C66	C	2.665538	0.027189	-0.819016
C67	C	2.740717	0.008645	-0.745048
H68	H	2.771431	-0.085920	-1.008506
H69	H	2.708667	-0.192926	-0.882044
H70	H	2.659027	0.127562	-0.869013
H71	H	2.596261	0.020603	-0.742520
H72	H	2.747241	-0.091753	-0.695050
H73	H	2.810000	0.015251	-0.821524
H74	H	2.715886	0.089860	-0.668342
H75	H	1.917000	-0.658589	-0.461132
H76	H	2.314243	-0.259086	0.276607
C77	C	2.771236	-0.042801	-1.272287
C78	C	2.830140	-0.064480	-1.172803
C79	C	2.938583	-0.059444	-1.261946
H80	H	2.772511	0.057028	-1.322866
H81	H	2.803573	-0.124537	-1.349653
H82	H	2.797811	0.017250	-1.095465
H83	H	2.828895	-0.164306	-1.122222
H84	H	2.970921	-0.141179	-1.339312
H85	H	2.939848	0.040387	-1.312521
H86	H	2.978566	-0.074166	-1.194462
C87	C	2.642112	-0.236116	0.329347
C88	C	2.736288	-0.360099	0.274622
C89	C	2.800613	-0.365579	0.363864
H90	H	2.601463	-0.253182	0.437088
H91	H	2.662529	-0.138661	0.319241
H92	H	2.715869	-0.457531	0.284743
H93	H	2.776965	-0.343061	0.166894
H94	H	2.821030	-0.268124	0.353758
H95	H	2.759955	-0.382641	0.471600
H96	H	2.864523	-0.449691	0.326737
H97	H	2.430573	-0.268572	0.438956
H98	H	2.605093	-0.009943	-1.382026
H99	H	2.408506	-0.019404	-1.219777
H100	H	2.348583	-0.062992	-0.923771
H101	H	2.391847	-0.215556	-0.019358
H102	H	2.702144	-0.190939	0.009285
