data_functionalizedCrystal
_audit_creation_method	'MofGen! by Chris Wilmer'
_symmetry_space_group_name_H-M	'P1'
_symmetry_Int_Tables_number	1
_symmetry_cell_setting	triclinic
loop_
_symmetry_equiv_pos_as_xyz
  x,y,z
_cell_length_a	12.759401
_cell_length_b	16.959454
_cell_length_c	12.759393
_cell_angle_alpha	89.969286
_cell_angle_beta	89.981504
_cell_angle_gamma	90.020236
loop_
_atom_site_label
_atom_site_type_symbol
_atom_site_fract_x
_atom_site_fract_y
_atom_site_fract_z
Zn1	Zn	1.606216	-0.314632	-0.593988
Zn2	Zn	1.606094	-0.446833	-0.418310
Zn3	Zn	1.430518	-0.314673	-0.418327
Zn4	Zn	1.430490	-0.446772	-0.593952
O5	O	1.518330	-0.380727	-0.506144
O6	O	1.753221	-0.332177	-0.570692
O7	O	1.582764	-0.429345	-0.271291
O8	O	1.453888	-0.204057	-0.441651
O9	O	1.753131	-0.429304	-0.441622
O10	O	1.582972	-0.204026	-0.570708
O11	O	1.453769	-0.332247	-0.271304
O12	O	1.283493	-0.332188	-0.441616
O13	O	1.453840	-0.429201	-0.740978
O14	O	1.283473	-0.429241	-0.570647
O15	O	1.582945	-0.332118	-0.741004
O16	O	1.582737	-0.557436	-0.441588
O17	O	1.453722	-0.557391	-0.570631
C18	C	1.245362	-0.380713	-0.506130
C19	C	1.128586	-0.380726	-0.506149
C20	C	1.073740	-0.431342	-0.573224
C21	C	0.964016	-0.431352	-0.573235
C22	C	0.963992	-0.330127	-0.439087
C23	C	1.073714	-0.330114	-0.439082
C24	C	1.073753	-0.489786	-0.650670
C25	C	0.964029	-0.489796	-0.650681
C26	C	1.518242	-0.586094	-0.506126
C27	C	1.518300	-0.673950	-0.506154
C28	C	1.451249	-1.045433	-0.573330
C29	C	1.585703	-1.045419	-0.439066
C30	C	1.585666	-0.962873	-0.439056
C31	C	1.518419	-0.921603	-0.506183
C32	C	1.451208	-0.962879	-0.573320
C33	C	1.652869	-0.921591	-0.371913
C34	C	1.652834	-0.839040	-0.371900
C35	C	1.585591	-0.797769	-0.439033
C36	C	1.518378	-0.839050	-0.506173
C37	C	1.451130	-0.797780	-0.573300
C38	C	1.383922	-0.839059	-0.640447
C39	C	1.383965	-0.921607	-0.640453
C40	C	1.585548	-0.715220	-0.439027
C41	C	1.451089	-0.715226	-0.573291
C42	C	1.792363	-0.380743	-0.506159
C43	C	1.909140	-0.380749	-0.506165
C44	C	1.518403	-0.380648	-0.780178
C45	C	1.518435	-0.380614	-0.896954
C46	C	1.518447	-0.174559	-0.506185
C47	C	1.518496	-0.086703	-0.506203
C48	C	1.585669	-0.330058	-0.951832
C49	C	1.585694	-0.330029	-1.061556
C50	C	1.451247	-0.431119	-1.061516
C51	C	1.451218	-0.431143	-0.951793
C52	C	1.663294	-0.271696	-0.951856
C53	C	1.663319	-0.271668	-1.061580
C54	C	1.518317	-0.380750	-0.233177
C55	C	1.518489	-0.380561	-0.116401
H56	H	1.103564	-0.473461	-0.732076
H57	H	1.107760	-0.547906	-0.621387
H58	H	1.641533	-0.210482	-0.922099
H59	H	1.396533	-1.079046	-0.628001
C60	C	0.918487	-0.460651	-0.753721
C61	C	0.808910	-0.462202	-0.748202
C62	C	0.766918	-0.435349	-0.843093
H63	H	0.941372	-0.493816	-0.809154
H64	H	0.941435	-0.408206	-0.766392
H65	H	0.785970	-0.514639	-0.735544
H66	H	0.785995	-0.429035	-0.692790
H67	H	0.789867	-0.382904	-0.855764
H68	H	0.789811	-0.468517	-0.898518
H69	H	0.692567	-0.436391	-0.839358
C70	C	1.658579	-1.090164	-0.365990
C71	C	1.635713	-1.070137	-0.262029
C72	C	1.702818	-1.111343	-0.194671
H73	H	1.729192	-1.076621	-0.381282
H74	H	1.648981	-1.145250	-0.375517
H75	H	1.645319	-1.015063	-0.252507
H76	H	1.565111	-1.083682	-0.246704
H77	H	1.693221	-1.166429	-0.204198
H78	H	1.773428	-1.097797	-0.209973
H79	H	1.687307	-1.097766	-0.124126
C80	C	1.771863	-0.293589	-1.101092
C81	C	1.838233	-0.307025	-1.015567
C82	C	1.938221	-0.327231	-1.051924
H83	H	1.799074	-0.251725	-1.142441
H84	H	1.767458	-0.340058	-1.142409
H85	H	1.842641	-0.260561	-0.974267
H86	H	1.811055	-0.348892	-0.974209
H87	H	1.933816	-0.373701	-1.093241
H88	H	1.965422	-0.285364	-1.093274
H89	H	1.983263	-0.336357	-0.993902
C90	C	1.378190	-0.670279	-0.646135
C91	C	1.392550	-0.589150	-0.631774
C92	C	1.325424	-0.547721	-0.698869
H93	H	1.307571	-0.683761	-0.630770
H94	H	1.393548	-0.683718	-0.716763
H95	H	1.377183	-0.575716	-0.561162
H96	H	1.463154	-0.575645	-0.647147
H97	H	1.340783	-0.561161	-0.769498
H98	H	1.254810	-0.561209	-0.683499
H99	H	1.335165	-0.492671	-0.689142
H100	H	1.707610	-0.955199	-0.317254
H101	H	1.707559	-0.805436	-0.317227
H102	H	1.640263	-0.681615	-0.384352
H103	H	1.740563	-0.293641	-0.917820
C104	C	0.904605	-0.275097	-0.366230
C105	C	0.976125	-0.230753	-0.307504
C106	C	0.921458	-0.180043	-0.240385
H107	H	0.861770	-0.305208	-0.320294
H108	H	0.861852	-0.240654	-0.406480
H109	H	1.018860	-0.265191	-0.267257
H110	H	1.018962	-0.200626	-0.353412
H111	H	0.878705	-0.145601	-0.280635
H112	H	0.878626	-0.210161	-0.194456
H113	H	0.969976	-0.149945	-0.200538
C114	C	0.924485	-0.571441	-0.621364
C115	C	1.009990	-0.621371	-0.603420
C116	C	0.973602	-0.696581	-0.576400
H117	H	0.883168	-0.591938	-0.676957
H118	H	0.883129	-0.568092	-0.559596
H119	H	1.051329	-0.624722	-0.665181
H120	H	1.051315	-0.600899	-0.547823
H121	H	0.932246	-0.693233	-0.514632
H122	H	0.932285	-0.717071	-0.631996
H123	H	1.031611	-0.730466	-0.564212
H124	H	1.396466	-0.472308	-0.907116
H125	H	1.118365	-0.288892	-0.384470
H126	H	1.396520	-0.472257	-1.106179
H127	H	1.634212	-0.213504	-1.095627
C128	C	1.310801	-0.794389	-0.713371
C129	C	1.251937	-0.848201	-0.772164
C130	C	1.184562	-0.807077	-0.839341
H131	H	1.350841	-0.762138	-0.759262
H132	H	1.264972	-0.762249	-0.673160
H133	H	1.297760	-0.880327	-0.812371
H134	H	1.211876	-0.880454	-0.726300
H135	H	1.138733	-0.774937	-0.799131
H136	H	1.224610	-0.774828	-0.885226
H137	H	1.144608	-0.843582	-0.879233
C138	C	1.311032	-0.966568	-0.713225
C139	C	1.325439	-1.047693	-0.698839
C140	C	1.258260	-1.089138	-0.765844
H141	H	1.326291	-0.953099	-0.783874
H142	H	1.240422	-0.953128	-0.697772
H143	H	1.396033	-1.061127	-0.714300
H144	H	1.310173	-1.061185	-0.628205
H145	H	1.187650	-1.075698	-0.750391
H146	H	1.273524	-1.075662	-0.836488
H147	H	1.268019	-1.144185	-0.756085
