data_functionalizedCrystal
_audit_creation_method	'MofGen! by Chris Wilmer'
_symmetry_space_group_name_H-M	'P1'
_symmetry_Int_Tables_number	1
_symmetry_cell_setting	triclinic
loop_
_symmetry_equiv_pos_as_xyz
  x,y,z
_cell_length_a	31.640172
_cell_length_b	14.809577
_cell_length_c	14.809374
_cell_angle_alpha	73.426528
_cell_angle_beta	90.004769
_cell_angle_gamma	65.408182
loop_
_atom_site_label
_atom_site_type_symbol
_atom_site_fract_x
_atom_site_fract_y
_atom_site_fract_z
Zr1	Zr	0.469567	0.867201	0.015078
O2	O	0.418239	1.010597	-0.095945
O3	O	0.477604	0.705793	0.032467
O4	O	0.495316	0.841211	-0.119930
O5	O	0.395311	0.901962	0.195599
O6	O	0.564872	0.841197	-0.119914
O7	O	0.400527	0.875180	0.056451
O8	O	0.533188	0.598960	0.152696
O9	O	0.426995	1.144199	-0.077010
O10	O	0.542240	0.778843	0.060006
O11	O	0.486439	0.798840	0.163839
O12	O	0.507292	0.958277	-0.015588
O13	O	0.451491	0.978274	0.088245
Zr14	Zr	0.572180	0.909894	0.237029
Zr15	Zr	0.580499	0.867179	0.015104
Zr16	Zr	0.461247	0.909915	0.237004
Zr17	Zr	0.483530	1.080280	0.045278
Zr18	Zr	0.558216	0.696814	0.206830
O19	O	0.564142	1.071301	0.219641
O20	O	0.575971	1.010567	-0.095909
O21	O	0.406410	1.071331	0.219604
O22	O	0.623507	0.766497	0.348053
O23	O	0.635336	0.705763	0.032503
O24	O	0.465775	0.766527	0.348016
O25	O	0.646436	0.875133	0.056508
O26	O	0.546430	0.935884	0.372037
O27	O	0.476875	0.935897	0.372021
O28	O	0.641219	0.901915	0.195656
O29	O	0.515171	1.144182	-0.076990
O30	O	0.526575	0.632912	0.329097
O31	O	0.614752	0.632895	0.329117
O32	O	0.621365	0.598943	0.152716
O33	O	0.420382	1.178151	0.099391
O34	O	0.508559	1.178134	0.099412
O35	O	0.534454	0.818817	0.267696
O36	O	0.590255	0.798820	0.163863
O37	O	0.555308	0.978254	0.088269
O38	O	0.499507	0.998251	0.192101
C39	C	0.503407	0.622017	0.088278
C40	C	0.497479	0.531559	0.075458
C41	C	0.517811	0.341801	0.119426
C42	C	0.523939	0.435288	0.132689
C43	C	0.382114	0.888574	0.126022
C44	C	0.335020	0.888583	0.126011
C45	C	0.061250	0.794878	0.165533
C46	C	-0.115738	0.794862	0.165550
O47	O	-0.123111	0.715212	0.199147
N48	N	-0.156109	0.888523	0.126089
C49	C	-0.152233	0.982197	0.086627
O50	O	-0.190633	1.061863	0.053072
C51	C	0.024753	0.982213	0.086616
C52	C	0.065124	0.888543	0.126070
C53	C	0.101619	0.701216	0.204985
C54	C	0.145863	0.701220	0.204976
C55	C	0.149738	0.794886	0.165514
C56	C	0.109368	0.888547	0.126061
C57	C	0.028628	1.075886	0.047159
C58	C	0.072879	1.075882	0.047162
C59	C	0.113250	0.982213	0.086617
C60	C	0.157487	0.982217	0.086590
N61	N	0.197859	0.888555	0.126051
C62	C	0.193984	0.794890	0.165513
C63	C	-0.245152	0.982181	0.086634
C64	C	-0.289399	0.982177	0.086635
C65	C	-0.252900	0.794842	0.165560
C66	C	-0.208653	0.794846	0.165552
C67	C	-0.204780	0.888520	0.126095
C68	C	0.286899	0.794905	0.165489
C69	C	0.331145	0.794917	0.165473
C70	C	0.294643	0.982252	0.086552
C71	C	0.250400	0.982240	0.086564
C72	C	0.246531	0.888559	0.126039
O73	O	0.164895	1.061827	0.053020
O74	O	0.232389	0.715239	0.199081
C75	C	0.017005	0.794874	0.165542
C76	C	-0.023364	0.888535	0.126089
C77	C	-0.019490	0.982201	0.086627
C78	C	-0.067611	0.888531	0.126090
C79	C	-0.071485	0.794866	0.165553
C80	C	-0.031113	0.701204	0.205014
C81	C	0.013131	0.701208	0.205004
C82	C	-0.059862	1.075862	0.047166
C83	C	-0.104104	1.075851	0.047178
C84	C	-0.107979	0.982185	0.086640
C85	C	0.659633	0.888521	0.126086
C86	C	0.706727	0.888512	0.126097
C87	C	0.531279	0.835118	-0.151541
C88	C	0.534811	0.816985	-0.245754
C89	C	0.538340	1.155077	0.163829
C90	C	0.544268	1.245535	0.176650
C91	C	0.519049	0.897912	-0.325258
C92	C	0.522699	0.879172	-0.422633
C93	C	0.510467	0.941976	0.403649
C94	C	0.506935	0.960110	0.497862
C95	C	0.642166	0.621991	0.088311
C96	C	0.683332	0.531524	0.075501
C97	C	0.493000	0.675446	0.365873
C98	C	0.483541	0.603122	0.447266
C99	C	0.631760	0.675420	0.365906
C100	C	0.669394	0.603086	0.447309
C101	C	0.409986	1.101674	-0.113798
C102	C	0.372352	1.174008	-0.195202
C103	C	0.399580	1.155104	0.163797
C104	C	0.358414	1.245570	0.176606
C105	C	0.548746	1.101648	-0.113766
C106	C	0.558206	1.173972	-0.195159
C107	C	0.677601	0.478610	0.015264
C108	C	0.716278	0.393615	0.003209
C109	C	0.760685	0.361530	0.051397
C110	C	0.766416	0.414453	0.111637
C111	C	0.727740	0.499451	0.123686
C112	C	0.504162	0.579587	0.539710
C113	C	0.495272	0.511644	0.616198
C114	C	0.465763	0.467231	0.600238
C115	C	0.445140	0.490772	0.507784
C116	C	0.454028	0.558720	0.431300
C117	C	0.716200	0.558680	0.431338
C118	C	0.751566	0.490725	0.507818
C119	C	0.740126	0.467173	0.600269
C120	C	0.693316	0.511587	0.616239
C121	C	0.657951	0.579547	0.539761
C122	C	0.325547	1.218425	-0.179229
C123	C	0.290183	1.286406	-0.255705
C124	C	0.301623	1.309963	-0.348155
C125	C	0.348433	1.265543	-0.364127
C126	C	0.383797	1.197569	-0.287650
C127	C	0.364147	1.298491	0.236836
C128	C	0.325472	1.383506	0.248870
C129	C	0.281065	1.415592	0.200679
C130	C	0.275334	1.362667	0.140442
C131	C	0.314009	1.277659	0.128404
C132	C	0.587716	1.218365	-0.179169
C133	C	0.596614	1.286312	-0.255639
C134	C	0.575998	1.309871	-0.348097
C135	C	0.546486	1.265470	-0.364086
C136	C	0.537591	1.197519	-0.287617
H137	H	0.364016	0.718637	0.197604
F138	F	0.535570	0.626841	0.556717
H139	H	0.490622	0.355008	0.060619
F140	F	0.240367	1.333667	-0.238688
F141	F	0.517226	0.486601	0.714585
H142	H	0.732412	0.542525	0.172742
F143	F	0.559476	0.418014	0.209570
H144	H	0.272823	1.365313	-0.410419
F145	F	0.681147	0.486511	0.714639
H146	H	0.513560	1.161381	-0.300649
H147	H	0.309334	1.234572	0.079362
H148	H	0.619840	0.615694	0.552778
F149	F	0.801843	0.271063	0.038565
F150	F	0.461938	0.548838	-0.001416
F151	F	0.543874	0.770469	-0.427880
F152	F	0.555984	0.708288	-0.251008
F153	F	0.524544	1.290560	-0.462492
H154	H	0.316223	1.199249	-0.103958
H155	H	0.490739	1.043274	-0.498121
H156	H	0.620644	1.322458	-0.242602
H157	H	0.458530	0.411906	0.662524
F158	F	0.579803	0.228268	0.253526
H159	H	0.178732	0.624944	0.237100
F160	F	0.411405	1.264361	0.288131
H161	H	0.641446	0.504729	-0.023990
F162	F	0.282788	0.695199	0.207502
F163	F	0.433610	1.150296	-0.304666
H164	H	0.768927	0.411834	0.662534
F165	F	0.360602	1.290622	-0.462526
H166	H	0.098472	0.624939	0.237125
F167	F	0.813681	0.380291	0.162919
H168	H	-0.175784	0.718574	0.197689
F169	F	0.413736	0.443495	0.490812
H170	H	0.502856	0.981069	-0.321233
H171	H	0.330148	1.426585	0.297922
F172	F	0.585467	1.382195	-0.429473
F173	F	0.239908	1.506067	0.213502
F174	F	0.710168	0.337302	-0.060903
F175	F	0.228069	1.396826	0.089162
H176	H	0.604506	1.199196	-0.103891
H177	H	0.437236	0.577870	0.356029
H178	H	-0.256061	0.718575	0.197686
H179	H	0.725524	0.577844	0.356065
H180	H	0.789678	0.454567	0.494797
H181	H	-0.322266	1.058450	0.054493
H182	H	-0.242006	1.058465	0.054496
H183	H	-0.004236	1.152162	0.015032
H184	H	0.076027	1.152167	0.015044
H185	H	0.217528	1.058511	0.054423
H186	H	0.045999	0.624933	0.237135
F187	F	0.298774	1.081935	0.044568
H188	H	-0.034275	0.624937	0.237139
H189	H	-0.136974	1.152132	0.015040
H190	H	-0.056714	1.152138	0.015029
