data_functionalizedCrystal
_audit_creation_method	'MofGen! by Chris Wilmer'
_symmetry_space_group_name_H-M	'P1'
_symmetry_Int_Tables_number	1
_symmetry_cell_setting	triclinic
loop_
_symmetry_equiv_pos_as_xyz
  x,y,z
_cell_length_a	12.837932
_cell_length_b	11.792241
_cell_length_c	11.295483
_cell_angle_alpha	94.123059
_cell_angle_beta	85.460332
_cell_angle_gamma	89.511559
loop_
_atom_site_label
_atom_site_type_symbol
_atom_site_fract_x
_atom_site_fract_y
_atom_site_fract_z
O1	O	1.384058	0.288349	-0.099029
O2	O	1.082171	0.273763	-0.099031
O3	O	1.240440	0.116629	-0.099021
O4	O	1.225789	0.445483	-0.099038
O5	O	1.226538	0.130407	0.099029
O6	O	1.068269	0.287541	0.099019
O7	O	1.370157	0.302127	0.099021
Cu8	Cu	1.217944	0.296092	0.117104
Cu9	Cu	1.234384	0.279798	-0.117113
O10	O	1.211888	0.459261	0.099012
C11	C	1.036572	0.275725	-0.000006
C12	C	0.921412	0.261030	-0.000006
C13	C	0.770878	0.138212	0.000002
C14	C	0.879082	0.152011	0.000001
C15	C	0.855529	0.356257	-0.000009
C16	C	0.747325	0.342458	-0.000008
C17	C	0.705004	0.233432	-0.000004
C18	C	0.596799	0.219632	-0.000011
C19	C	0.573248	0.423878	-0.000013
C20	C	0.681451	0.437677	-0.000014
C21	C	1.232569	0.081134	0.000003
C22	C	1.229814	-0.045159	0.000002
C23	C	1.224750	-0.276387	-0.000018
C24	C	1.227564	-0.147715	-0.000007
C25	C	1.415756	0.300165	-0.000006
C26	C	1.530916	0.314859	-0.000014
C27	C	1.219759	0.494756	-0.000015
C28	C	1.222514	0.621049	-0.000022
N29	N	1.206388	0.307553	0.281839
N30	N	1.245947	0.268330	-0.281849
C31	C	1.329129	0.185768	0.531136
C32	C	1.320404	0.194438	0.655799
C33	C	1.180209	0.333554	0.655831
C34	C	1.188934	0.324885	0.531168
C35	C	1.263397	0.250991	0.468825
C36	C	1.272127	0.242328	0.344159
C37	C	1.131928	0.381438	0.344194
C38	C	1.123203	0.390107	0.468857
H39	H	0.932714	0.074473	0.000007
N40	N	0.727657	0.026844	0.000012
N41	N	0.741771	-0.034190	0.083494
H42	H	0.711248	-0.112847	0.083502
H43	H	1.062573	0.450268	0.519631
N44	N	1.387529	0.127806	0.719462
N45	N	1.349344	0.058571	0.789028
H46	H	1.396750	0.011504	0.833990
N47	N	1.104147	0.409011	0.719543
N48	N	1.096365	0.416728	0.830848
H49	H	1.042645	0.470018	0.875847
N50	N	0.898767	0.467617	-0.000024
N51	N	0.884666	0.528653	-0.083508
H52	H	0.915201	0.607303	-0.083517
N53	N	0.505942	0.521139	-0.000011
N54	N	0.409334	0.508807	-0.000006
H55	H	0.361797	0.577495	-0.000003
H56	H	0.715924	0.526444	-0.000012
H57	H	1.389766	0.125609	0.480375
N58	N	0.553583	0.108262	-0.000016
N59	N	0.612417	0.023255	-0.000009
H60	H	0.581899	-0.055405	-0.000010
N61	N	1.348133	0.166776	0.280493
N62	N	1.406772	0.108497	0.336149
H63	H	1.460429	0.055105	0.291188
H64	H	1.078408	0.434550	0.293446
