data_functionalizedCrystal
_audit_creation_method	'MofGen! by Chris Wilmer'
_symmetry_space_group_name_H-M	'P1'
_symmetry_Int_Tables_number	1
_symmetry_cell_setting	triclinic
loop_
_symmetry_equiv_pos_as_xyz
  x,y,z
_cell_length_a	12.645331
_cell_length_b	13.033915
_cell_length_c	12.645323
_cell_angle_alpha	82.797311
_cell_angle_beta	89.984262
_cell_angle_gamma	82.826123
loop_
_atom_site_label
_atom_site_type_symbol
_atom_site_fract_x
_atom_site_fract_y
_atom_site_fract_z
Zn1	Zn	1.674392	-0.416034	-0.545683
Zn2	Zn	1.696815	-0.590794	-0.345921
Zn3	Zn	1.497112	-0.416070	-0.368444
Zn4	Zn	1.519621	-0.590726	-0.523167
O5	O	1.596985	-0.503406	-0.445804
O6	O	1.825716	-0.439229	-0.519181
O7	O	1.670288	-0.567659	-0.200556
O8	O	1.501824	-0.269833	-0.410804
O9	O	1.842190	-0.567625	-0.372417
O10	O	1.632071	-0.269807	-0.541020
O11	O	1.523566	-0.439291	-0.217103
O12	O	1.351749	-0.439225	-0.388971
O13	O	1.540188	-0.567509	-0.674507
O14	O	1.368286	-0.567544	-0.502645
O15	O	1.653898	-0.439164	-0.691049
O16	O	1.692114	-0.737016	-0.350585
O17	O	1.561930	-0.736967	-0.480806
C18	C	1.631927	-0.774908	-0.410831
C19	C	1.646972	-0.891058	-0.395905
C20	C	1.321552	-0.503382	-0.445809
C21	C	1.203724	-0.503397	-0.445834
C22	C	1.604754	-1.062898	-0.438193
C23	C	1.589210	-0.942851	-0.453628
C24	C	1.046656	-0.584565	-0.516862
C25	C	1.169183	-0.584303	-0.517237
C26	C	1.145050	-0.393335	-0.490527
C27	C	1.022516	-0.393830	-0.491037
C28	C	1.040091	-0.531405	-0.329968
C29	C	1.163007	-0.533812	-0.330264
C30	C	1.873493	-0.503430	-0.445798
C31	C	1.991325	-0.503441	-0.445796
C32	C	1.597053	-0.503325	-0.722320
C33	C	1.597081	-0.503291	-0.840154
C34	C	1.561936	-0.230844	-0.480936
C35	C	1.547000	-0.114694	-0.495907
C36	C	1.525245	-0.583652	-0.997360
C37	C	1.525511	-0.584050	-0.874749
C38	C	1.712636	-0.533178	-0.880812
C39	C	1.712250	-0.533682	-1.003346
C40	C	1.554362	-0.392592	-1.021609
C41	C	1.551955	-0.393255	-0.898917
C42	C	1.596969	-0.503411	-0.170373
C43	C	1.597107	-0.503151	-0.052577
H44	H	1.665703	-1.107427	-0.377349
F45	F	1.726640	-0.949249	-0.316368
F46	F	1.509527	-0.884657	-0.533150
H47	H	1.746820	-0.614503	-1.021547
H48	H	1.202536	-0.614802	-0.296816
H49	H	1.470815	-0.365349	-1.056030
H50	H	1.440270	-0.565347	-0.847065
F51	F	1.193779	-0.462180	-0.255845
F52	F	1.467322	-1.056496	-0.575425
F53	F	1.222253	-0.690991	-0.478533
F54	F	1.440707	-0.363797	-0.864700
F55	F	1.563956	-0.691170	-0.822633
F56	F	1.785556	-0.460325	-1.051576
H57	H	1.003452	-0.472314	-0.276843
F58	F	1.785311	-0.458965	-0.852279
H59	H	1.027727	-0.666454	-0.487401
H60	H	1.019345	-0.610294	-0.292069
H61	H	1.013509	-0.566298	-0.601887
F62	F	1.413532	-0.559437	-1.039005
F63	F	1.204429	-0.560113	-0.629043
F64	F	0.981165	-0.362830	-0.602264
F65	F	1.563264	-0.690102	-1.023995
F66	F	0.973181	-0.312148	-0.427341
F67	F	1.172662	-0.312179	-0.425805
F68	F	1.181134	-0.361764	-0.600666
F69	F	1.758222	-0.637710	-0.827239
H70	H	1.599338	-0.330106	-0.876420
H71	H	1.606530	-0.332615	-1.058337
