data_functionalizedCrystal
_audit_creation_method	'MofGen! by Chris Wilmer'
_symmetry_space_group_name_H-M	'P1'
_symmetry_Int_Tables_number	1
_symmetry_cell_setting	triclinic
loop_
_symmetry_equiv_pos_as_xyz
  x,y,z
_cell_length_a	12.811457
_cell_length_b	12.811415
_cell_length_c	9.130313
_cell_angle_alpha	84.564622
_cell_angle_beta	95.428428
_cell_angle_gamma	84.559489
loop_
_atom_site_label
_atom_site_type_symbol
_atom_site_fract_x
_atom_site_fract_y
_atom_site_fract_z
O1	O	1.393277	0.141365	0.044495
O2	O	1.087763	0.156740	0.001869
O3	O	1.248206	-0.003707	0.044500
O4	O	1.232834	0.301811	0.001865
O5	O	1.248195	-0.003712	0.288098
O6	O	1.087752	0.156735	0.245467
O7	O	1.393266	0.141360	0.288093
Cu8	Cu	1.240508	0.149047	0.289023
Cu9	Cu	1.240521	0.149053	0.000940
O10	O	1.232823	0.301807	0.245463
C11	C	1.048650	0.155876	0.118588
C12	C	0.932122	0.153298	0.103451
C13	C	0.713142	0.148427	0.340610
C14	C	0.603654	0.146004	0.326395
C15	C	0.603656	0.146020	0.060808
C16	C	0.713144	0.148444	0.075023
C17	C	0.767883	0.149648	0.214929
C18	C	0.877373	0.152079	0.229141
C19	C	0.877373	0.152088	-0.036443
C20	C	0.767885	0.149665	-0.050658
C21	C	1.247339	-0.042817	0.171377
C22	C	1.244759	-0.159347	0.186508
C23	C	1.239904	-0.378302	-0.050663
C24	C	1.237480	-0.487792	-0.036453
C25	C	1.237480	-0.487818	0.229135
C26	C	1.239903	-0.378328	0.214925
C27	C	1.241117	-0.323574	0.075022
C28	C	1.243549	-0.214083	0.060815
C29	C	1.243540	-0.214110	0.326400
C30	C	1.241116	-0.323600	0.340610
C31	C	1.432379	0.142223	0.171372
C32	C	1.548907	0.144802	0.186499
C33	C	1.233690	0.340917	0.118582
C34	C	1.236270	0.457446	0.103441
N35	N	1.240506	0.149043	0.491646
N36	N	1.240530	0.149049	-0.201681
C37	C	1.311574	0.078027	0.587173
C38	C	1.311584	0.078027	0.740512
C39	C	1.169455	0.220068	0.702779
C40	C	1.169441	0.220062	0.549444
H41	H	0.559070	0.145022	-0.053093
H42	H	1.369453	0.020198	0.818288
H43	H	1.111596	0.277892	0.749854
H44	H	1.111563	0.277892	0.471658
H45	H	1.369439	0.020197	0.540119
H46	H	0.757710	0.149422	0.454524
H47	H	0.921939	0.153067	0.343058
H48	H	0.723302	0.148679	-0.164564
H49	H	0.559087	0.145015	0.428738
H50	H	0.921954	0.153089	-0.138784
H51	H	1.244540	-0.169504	-0.053101
H52	H	1.240902	-0.333721	-0.164576
H53	H	1.236483	-0.532416	0.343036
H54	H	1.236489	-0.532346	-0.138800
H55	H	1.244532	-0.169539	0.428743
H56	H	1.240124	-0.368195	0.454515
