data_functionalizedCrystal
_audit_creation_method	'MofGen! by Chris Wilmer'
_symmetry_space_group_name_H-M	'P1'
_symmetry_Int_Tables_number	1
_symmetry_cell_setting	triclinic
loop_
_symmetry_equiv_pos_as_xyz
  x,y,z
_cell_length_a	12.759395
_cell_length_b	12.759394
_cell_length_c	12.759393
_cell_angle_alpha	89.967655
_cell_angle_beta	89.981822
_cell_angle_gamma	90.014682
loop_
_atom_site_label
_atom_site_type_symbol
_atom_site_fract_x
_atom_site_fract_y
_atom_site_fract_z
Zn1	Zn	1.606255	-0.418208	-0.593968
Zn2	Zn	1.606149	-0.593927	-0.418286
Zn3	Zn	1.430557	-0.418263	-0.418309
Zn4	Zn	1.430545	-0.593845	-0.593929
O5	O	1.518376	-0.506061	-0.506123
O6	O	1.753262	-0.441530	-0.570671
O7	O	1.582817	-0.570682	-0.271268
O8	O	1.453913	-0.271234	-0.441636
O9	O	1.753184	-0.570630	-0.441598
O10	O	1.582997	-0.271194	-0.570693
O11	O	1.453810	-0.441622	-0.271284
O12	O	1.283534	-0.441542	-0.441598
O13	O	1.453892	-0.570490	-0.740955
O14	O	1.283525	-0.570542	-0.570625
O15	O	1.582986	-0.441450	-0.740984
O16	O	1.582805	-0.740938	-0.441560
O17	O	1.453790	-0.740877	-0.570603
C18	C	1.245409	-0.506040	-0.506110
C19	C	1.128632	-0.506056	-0.506129
C20	C	1.128694	-0.371842	-0.640750
C21	C	1.073864	-0.304747	-0.708069
C22	C	0.964142	-0.304766	-0.708082
C23	C	0.909248	-0.371884	-0.640767
C24	C	0.964078	-0.438979	-0.573448
C25	C	1.073802	-0.438955	-0.573444
C26	C	0.964016	-0.573186	-0.438824
C27	C	1.073738	-0.573175	-0.438814
C28	C	0.909122	-0.640305	-0.371508
C29	C	0.963952	-0.707406	-0.304193
C30	C	1.073680	-0.707386	-0.304184
C31	C	1.128568	-0.640269	-0.371495
C32	C	1.518313	-0.779028	-0.506098
C33	C	1.518382	-0.895805	-0.506122
C34	C	1.652827	-0.895815	-0.371849
C35	C	1.720077	-0.950680	-0.304725
C36	C	1.720138	-1.060402	-0.304754
C37	C	1.652945	-1.115260	-0.371916
C38	C	1.585695	-1.060395	-0.439040
C39	C	1.585639	-0.950671	-0.439002
C40	C	1.451258	-1.060385	-0.573316
C41	C	1.451189	-0.950664	-0.573284
C42	C	1.384065	-1.115244	-0.640478
C43	C	1.316808	-1.060378	-0.707598
C44	C	1.316748	-0.950650	-0.707566
C45	C	1.383940	-0.895798	-0.640408
C46	C	1.792410	-0.506083	-0.506137
C47	C	1.909186	-0.506092	-0.506142
C48	C	1.518450	-0.505955	-0.780156
C49	C	1.518481	-0.505909	-0.896933
C50	C	1.518468	-0.232028	-0.506171
C51	C	1.518507	-0.115251	-0.506192
C52	C	1.451331	-0.438696	-0.951803
C53	C	1.451356	-0.438663	-1.061527
C54	C	1.585688	-0.573062	-1.061502
C55	C	1.585658	-0.573098	-0.951780
C56	C	1.518364	-0.506091	-0.233156
C57	C	1.518536	-0.505840	-0.116379
H58	H	0.919500	-0.250125	-0.762893
C59	C	1.383885	-0.775102	-0.640371
N60	N	1.383853	-0.684191	-0.640345
H61	H	1.640382	-0.627764	-1.106171
C62	C	1.133984	-0.781196	-0.230126
N63	N	1.179402	-0.836793	-0.174344
C64	C	0.903562	-0.781226	-0.230153
N65	N	0.858072	-0.836830	-0.174386
C66	C	1.377492	-0.364716	-1.121879
N67	N	1.321855	-0.309015	-1.167336
H68	H	1.640342	-0.627836	-0.907103
H69	H	1.261990	-0.905984	-0.762230
H70	H	0.819907	-0.371885	-0.640775
H71	H	1.384124	-1.204585	-0.640501
H72	H	1.218035	-0.371815	-0.640742
C73	C	1.249265	-0.640238	-0.371489
N74	N	1.340175	-0.640208	-0.371484
C75	C	1.134255	-0.230919	-0.782110
N76	N	1.179740	-0.175310	-0.837877
H77	H	0.819781	-0.640312	-0.371521
C78	C	1.794115	-1.120755	-0.230914
N79	N	1.849833	-1.166213	-0.175297
H80	H	1.396631	-0.383986	-0.907150
C81	C	1.652756	-0.775118	-0.371802
N82	N	1.652704	-0.684207	-0.371765
C83	C	1.653022	-1.235957	-0.371948
N84	N	1.653078	-1.326867	-0.371972
H85	H	1.774787	-0.906005	-0.250045
H86	H	1.262110	-1.105053	-0.762281
