data_functionalizedCrystal
_audit_creation_method	'MofGen! by Chris Wilmer'
_symmetry_space_group_name_H-M	'P1'
_symmetry_Int_Tables_number	1
_symmetry_cell_setting	triclinic
loop_
_symmetry_equiv_pos_as_xyz
  x,y,z
_cell_length_a	19.077236
_cell_length_b	16.625545
_cell_length_c	19.076919
_cell_angle_alpha	92.272080
_cell_angle_beta	89.887323
_cell_angle_gamma	92.318364
loop_
_atom_site_label
_atom_site_type_symbol
_atom_site_fract_x
_atom_site_fract_y
_atom_site_fract_z
Zn1	Zn	1.058286	-0.292691	-0.440544
Zn2	Zn	1.558286	0.207309	0.059456
Zn3	Zn	1.062924	-0.421908	-0.323038
Zn4	Zn	1.562924	0.078092	0.176962
Zn5	Zn	0.945502	-0.292269	-0.318324
Zn6	Zn	1.445502	0.207731	0.181676
Zn7	Zn	0.940743	-0.432665	-0.435777
Zn8	Zn	1.440743	0.067335	0.064223
O9	O	1.001864	-0.359883	-0.379421
O10	O	1.501864	0.140117	0.120579
O11	O	1.157235	-0.305507	-0.428925
O12	O	1.657235	0.194493	0.071075
O13	O	1.051280	-0.400032	-0.224082
O14	O	1.551280	0.099968	0.275918
O15	O	0.960514	-0.179491	-0.334559
O16	O	1.460514	0.320509	0.165441
O17	O	1.160643	-0.400442	-0.342594
O18	O	1.660643	0.099558	0.157406
O19	O	1.043376	-0.179802	-0.424354
O20	O	1.543376	0.320198	0.075646
O21	O	0.965011	-0.304787	-0.220619
O22	O	1.465011	0.195213	0.279381
O23	O	0.846537	-0.315217	-0.329936
O24	O	1.346537	0.184783	0.170064
O25	O	0.952403	-0.418776	-0.534740
O26	O	1.452403	0.081224	-0.034740
O27	O	0.843041	-0.418366	-0.416228
O28	O	1.343041	0.081634	0.083772
O29	O	1.038762	-0.315938	-0.538242
O30	O	1.538762	0.184062	-0.038242
O31	O	1.046666	-0.536168	-0.337971
O32	O	1.546666	-0.036168	0.162029
O33	O	0.956900	-0.544071	-0.420799
O34	O	1.456900	-0.044071	0.079201
C35	C	0.819292	-0.367914	-0.372054
C36	C	1.319292	0.132086	0.127946
C37	C	0.741186	-0.371369	-0.368919
C38	C	1.241186	0.128631	0.131081
C39	C	0.702716	-0.323651	-0.412462
C40	C	1.202716	0.176349	0.087538
C41	C	0.629327	-0.326893	-0.409511
C42	C	1.129327	0.173107	0.090489
C43	C	0.594410	-0.377860	-0.363018
C44	C	1.094410	0.122140	0.136982
C45	C	0.632886	-0.425580	-0.319470
C46	C	1.132886	0.074420	0.180530
C47	C	0.706273	-0.422333	-0.322419
C48	C	1.206273	0.077667	0.177581
C49	C	0.375117	-0.392860	-0.349369
C50	C	0.875117	0.107140	0.150631
C51	C	0.301724	-0.396105	-0.346425
C52	C	0.801724	0.103895	0.153575
C53	C	0.298171	-0.297417	-0.436465
C54	C	0.798171	0.202583	0.063535
C55	C	0.371559	-0.294177	-0.439413
C56	C	0.871559	0.205823	0.060587
C57	C	0.410029	-0.341895	-0.395862
C58	C	0.910029	0.158105	0.104138
N59	N	0.519396	-0.381177	-0.360002
N60	N	1.019396	0.118823	0.139998
N61	N	0.485042	-0.338572	-0.398876
N62	N	0.985042	0.161428	0.101124
C63	C	1.001788	-0.569376	-0.379396
C64	C	1.501788	-0.069376	0.120604
C65	C	1.001820	-0.658997	-0.379411
C66	C	1.501820	-0.158997	0.120589
C67	C	1.001846	-0.731779	-0.379426
C68	C	1.501846	-0.231779	0.120574
C69	C	1.001887	-0.823086	-0.379443
C70	C	1.501887	-0.323086	0.120557
C71	C	1.001923	-0.895861	-0.379453
C72	C	1.501923	-0.395861	0.120547
C73	C	1.001962	-0.987174	-0.379470
C74	C	1.501962	-0.487174	0.120530
C75	C	1.185149	-0.351822	-0.386817
C76	C	1.685149	0.148178	0.113183
C77	C	1.263254	-0.348387	-0.389969
C78	C	1.763254	0.151613	0.110031
C79	C	0.994534	-0.368604	-0.562700
C80	C	1.494534	0.131396	-0.062700
C81	C	0.991411	-0.372320	-0.640803
C82	C	1.491411	0.127680	-0.140803
C83	C	1.001958	-0.149572	-0.379462
C84	C	1.501958	0.350428	0.120538
C85	C	1.001998	-0.059950	-0.379480
C86	C	1.501998	0.440050	0.120520
C87	C	1.034903	-0.320526	-0.679320
C88	C	1.534903	0.179474	-0.179320
C89	C	1.031960	-0.324016	-0.752706
C90	C	1.531960	0.175984	-0.252706
C91	C	0.985527	-0.379303	-0.787573
C92	C	1.485527	0.120697	-0.287573
C93	C	0.942030	-0.431099	-0.749050
C94	C	1.442030	0.068901	-0.249050
C95	C	0.944970	-0.427605	-0.675665
C96	C	1.444970	0.072395	-0.175665
C97	C	0.971908	-0.395489	-1.006852
C98	C	1.471908	0.104511	-0.506852
C99	C	0.968973	-0.398981	-1.080242
C100	C	1.468973	0.101019	-0.580242
C101	C	1.058902	-0.291896	-1.083893
C102	C	1.558902	0.208104	-0.583893
C103	C	1.061841	-0.288410	-1.010507
C104	C	1.561841	0.211590	-0.510507
C105	C	1.018342	-0.340203	-0.971990
C106	C	1.518342	0.159797	-0.471990
N107	N	0.982519	-0.382873	-0.862584
N108	N	1.482519	0.117127	-0.362584
N109	N	1.021347	-0.336629	-0.896980
N110	N	1.521347	0.163371	-0.396980
C111	C	1.009206	-0.351136	-0.196856
C112	C	1.509206	0.148864	0.303144
C113	C	1.012465	-0.347187	-0.118759
C114	C	1.512465	0.152813	0.381241
H115	H	0.731139	-0.282150	-0.450323
H116	H	1.231139	0.217850	0.049677
N117	N	0.924985	-0.451361	-0.965334
N118	N	1.424985	0.048639	-0.465334
H119	H	0.954733	-0.486031	-0.936030
H120	H	1.454733	0.013969	-0.436030
H121	H	0.893654	-0.418526	-0.933623
H122	H	1.393654	0.081474	-0.433623
H123	H	1.094316	-0.249728	-1.115261
H124	H	1.594316	0.250272	-0.615261
N125	N	0.409218	-0.239210	-0.489560
N126	N	0.909218	0.260790	0.010440
H127	H	0.373711	-0.209471	-0.516698
H128	H	0.873711	0.290529	-0.016698
H129	H	0.440815	-0.199139	-0.462240
H130	H	0.940815	0.300861	0.037760
N131	N	0.264072	-0.451074	-0.296267
N132	N	0.764072	0.048926	0.203733
H133	H	0.234925	-0.418044	-0.262536
H134	H	0.734925	0.081956	0.237464
H135	H	0.232519	-0.491191	-0.323589
H136	H	0.732519	0.008809	0.176411
N137	N	0.898059	-0.483474	-0.634126
N138	N	1.398059	0.016526	-0.134126
H139	H	0.927816	-0.518136	-0.604824
H140	H	1.427816	-0.018136	-0.104824
H141	H	0.866735	-0.450633	-0.602413
H142	H	1.366735	0.049367	-0.102413
N143	N	0.256680	-0.245951	-0.483434
N144	N	0.756680	0.254049	0.016566
H145	H	0.204891	-0.255739	-0.474514
H146	H	0.704891	0.244261	0.025486
H147	H	0.269956	-0.187262	-0.473100
H148	H	0.769956	0.312738	0.026900
H149	H	1.099654	-0.243392	-0.982124
H150	H	1.599654	0.256608	-0.482124
N151	N	1.084993	-0.260900	-0.641721
N152	N	1.584993	0.239100	-0.141721
H153	H	1.118762	-0.290793	-0.612589
H154	H	1.618762	0.209207	-0.112589
H155	H	1.112048	-0.228639	-0.677306
H156	H	1.612048	0.271361	-0.177306
H157	H	0.604451	-0.467074	-0.281611
H158	H	1.104451	0.032926	0.218389
N159	N	0.416604	-0.444321	-0.302397
N160	N	0.916604	0.055679	0.197603
H161	H	0.383346	-0.477101	-0.272499
H162	H	0.883346	0.022899	0.227501
H163	H	0.445910	-0.481699	-0.332160
H164	H	0.945910	0.018301	0.167840
H165	H	1.067378	-0.281841	-0.784064
H166	H	1.567378	0.218159	-0.284064
N167	N	0.918875	-0.458587	-1.117863
N168	N	1.418875	0.041413	-0.617863
H169	H	0.946186	-0.496150	-1.149462
H170	H	1.446186	0.003850	-0.649462
H171	H	0.891762	-0.490813	-1.082295
H172	H	1.391762	0.009187	-0.582295
N173	N	0.587834	-0.275409	-0.456462
N174	N	1.087834	0.224591	0.043538
H175	H	0.621089	-0.242629	-0.486360
H176	H	1.121089	0.257371	0.013640
H177	H	0.556075	-0.311167	-0.487708
H178	H	1.056075	0.188833	0.012292
N179	N	0.747770	-0.473796	-0.275451
N180	N	1.247770	0.026204	0.224549
H181	H	0.714516	-0.506577	-0.245550
H182	H	1.214516	-0.006577	0.254450
H183	H	0.777076	-0.511172	-0.305217
H184	H	1.277076	-0.011172	0.194783
N185	N	0.891932	-0.490714	-0.786651
N186	N	1.391932	0.009286	-0.286651
H187	H	0.896665	-0.485066	-0.838985
H188	H	1.396665	0.014934	-0.338985
H189	H	0.903343	-0.547214	-0.774259
H190	H	1.403343	-0.047214	-0.274259
