data_functionalizedCrystal
_audit_creation_method	'MofGen! by Chris Wilmer'
_symmetry_space_group_name_H-M	'P1'
_symmetry_Int_Tables_number	1
_symmetry_cell_setting	triclinic
loop_
_symmetry_equiv_pos_as_xyz
  x,y,z
_cell_length_a	16.109318
_cell_length_b	10.489716
_cell_length_c	14.586319
_cell_angle_alpha	90.000245
_cell_angle_beta	90.000075
_cell_angle_gamma	83.998849
loop_
_atom_site_label
_atom_site_type_symbol
_atom_site_fract_x
_atom_site_fract_y
_atom_site_fract_z
O1	O	1.104124	0.164054	-0.076156
O2	O	0.862188	0.184434	-0.076173
O3	O	0.988672	-0.011435	-0.076167
O4	O	0.977640	0.359924	-0.076162
O5	O	0.988663	-0.011438	0.076313
O6	O	0.862179	0.184431	0.076308
O7	O	1.104115	0.164051	0.076325
Cu8	Cu	0.983146	0.174241	0.090239
Cu9	Cu	0.983157	0.174244	-0.090087
O10	O	0.977631	0.359921	0.076319
C11	C	0.831204	0.183603	0.000065
C12	C	0.738894	0.181117	0.000058
C13	C	0.439776	0.173087	-0.083044
C14	C	0.526512	0.175415	-0.083049
C15	C	0.526521	0.175394	0.083194
C16	C	0.439788	0.173057	0.083198
C17	C	0.396417	0.171910	0.000077
C18	C	0.569886	0.176575	0.000067
C19	C	0.663928	0.179099	0.000061
C20	C	0.302369	0.169384	0.000082
C21	C	0.987838	-0.058957	0.000070
C22	C	0.985358	-0.200552	0.000062
C23	C	1.062922	-0.299344	0.000076
C24	C	1.021940	-0.376112	-0.075106
C25	C	1.021913	-0.376079	0.075228
C26	C	0.944409	-0.275456	-0.075182
C27	C	0.944394	-0.275417	0.075220
C28	C	0.903355	-0.352136	0.000020
C29	C	1.135099	0.164882	0.000085
C30	C	1.227409	0.167369	0.000086
C31	C	0.978464	0.407442	0.000080
C32	C	0.980944	0.549038	0.000082
N33	N	0.983145	0.174238	0.217071
N34	N	0.983164	0.174238	-0.216919
C35	C	1.039171	0.087536	0.452080
C36	C	1.039173	0.087533	0.548061
C37	C	0.927133	0.260944	0.548065
C38	C	0.927127	0.260940	0.452086
C39	C	0.983151	0.174237	0.404096
C40	C	0.983159	0.174238	0.596056
C41	C	0.983161	0.174235	0.700123
C42	C	0.983148	0.174238	0.300022
H43	H	0.404484	0.172098	0.150889
C44	C	1.100788	-0.007844	0.399290
C45	C	1.164665	0.042018	0.333303
C46	C	1.226283	-0.053367	0.280517
C47	C	1.224024	-0.198616	0.293717
C48	C	1.160145	-0.248485	0.359707
C49	C	1.098527	-0.153099	0.412494
H50	H	1.166339	0.149546	0.323528
H51	H	1.273570	-0.016450	0.231666
H52	H	1.269637	-0.269226	0.254642
H53	H	1.158471	-0.356013	0.369482
H54	H	1.051240	-0.190017	0.461344
C55	C	0.865502	0.356318	0.399294
C56	C	0.803909	0.451736	0.452076
C57	C	0.742284	0.547105	0.399284
C58	C	0.742254	0.547056	0.293710
C59	C	0.803849	0.451634	0.240923
C60	C	0.865473	0.356265	0.293715
H61	H	0.803929	0.451775	0.530233
H62	H	0.696687	0.617742	0.438361
H63	H	0.696636	0.617653	0.254630
H64	H	0.803828	0.451594	0.162765
H65	H	0.911070	0.285628	0.254638
H66	H	1.130389	-0.275640	0.000004
C67	C	1.066172	-0.435513	-0.160968
C68	C	1.159094	-0.420720	-0.177482
C69	C	1.203331	-0.480114	-0.263341
C70	C	1.154647	-0.554301	-0.332687
C71	C	1.061720	-0.569097	-0.316175
C72	C	1.017483	-0.509703	-0.230316
H73	H	1.195138	-0.365800	-0.126147
H74	H	1.272122	-0.469161	-0.275564
H75	H	1.187394	-0.598267	-0.396245
H76	H	1.025677	-0.624017	-0.367510
H77	H	0.948692	-0.520656	-0.218093
H78	H	0.911688	-0.231679	-0.138813
C79	C	0.812146	-0.383840	-0.000040
C80	C	0.779919	-0.463024	-0.078860
C81	C	0.688712	-0.494732	-0.078926
C82	C	0.629732	-0.447257	-0.000172
C83	C	0.661958	-0.368068	0.078653
C84	C	0.753165	-0.336360	0.078720
H85	H	0.823581	-0.498173	-0.137163
H86	H	0.664857	-0.553353	-0.137278
H87	H	0.562215	-0.470729	-0.000221
H88	H	0.618296	-0.332919	0.136957
H89	H	0.777020	-0.277739	0.137072
H90	H	0.404467	0.172151	-0.150726
C91	C	0.574206	0.176716	-0.174484
C92	C	0.526497	0.175453	-0.265909
C93	C	0.574192	0.176752	-0.357348
C94	C	0.669595	0.179314	-0.357361
C95	C	0.717310	0.180577	-0.265932
C96	C	0.669616	0.179278	-0.174493
H97	H	0.455869	0.173556	-0.265903
H98	H	0.538870	0.175817	-0.425030
H99	H	0.704902	0.180275	-0.425049
H100	H	0.787938	0.182473	-0.265938
H101	H	0.704938	0.180213	-0.106811
C102	C	1.066156	-0.435439	0.161098
C103	C	1.017484	-0.509610	0.230463
C104	C	1.061733	-0.568968	0.316327
C105	C	1.154654	-0.554154	0.332825
C106	C	1.203331	-0.479980	0.263458
C107	C	1.159082	-0.420622	0.177594
H108	H	0.948693	-0.520579	0.218252
H109	H	1.025698	-0.623877	0.367678
H110	H	1.187410	-0.598094	0.396387
H111	H	1.272122	-0.469011	0.275669
H112	H	1.195117	-0.365714	0.126243
H113	H	1.084788	0.016931	0.587127
C114	C	0.574229	0.176671	0.174624
C115	C	0.669632	0.179249	0.174624
C116	C	0.717338	0.180530	0.266056
C117	C	0.669641	0.179232	0.357488
C118	C	0.574234	0.176653	0.357492
C119	C	0.526528	0.175372	0.266059
H120	H	0.704944	0.180210	0.106937
H121	H	0.787965	0.182439	0.266054
H122	H	0.704956	0.180180	0.425172
H123	H	0.538921	0.175692	0.425178
H124	H	0.455900	0.173463	0.266062
H125	H	0.911676	-0.231429	0.138779
H126	H	0.881521	0.331537	0.587149
