data_functionalizedCrystal
_audit_creation_method	'MofGen! by Chris Wilmer'
_symmetry_space_group_name_H-M	'P1'
_symmetry_Int_Tables_number	1
_symmetry_cell_setting	triclinic
loop_
_symmetry_equiv_pos_as_xyz
  x,y,z
_cell_length_a	19.805407
_cell_length_b	18.101396
_cell_length_c	19.805399
_cell_angle_alpha	89.975513
_cell_angle_beta	90.017803
_cell_angle_gamma	89.965660
loop_
_atom_site_label
_atom_site_type_symbol
_atom_site_fract_x
_atom_site_fract_y
_atom_site_fract_z
Zn1	Zn	1.034686	0.294900	0.382702
Zn2	Zn	1.534686	0.794900	0.882702
Zn3	Zn	1.034580	0.418743	0.269520
Zn4	Zn	1.534580	0.918743	0.769520
Zn5	Zn	0.921500	0.294914	0.269530
Zn6	Zn	1.421500	0.794914	0.769530
Zn7	Zn	0.921443	0.418698	0.382670
Zn8	Zn	1.421443	0.918698	0.882670
O9	O	0.978052	0.356814	0.326106
O10	O	1.478052	0.856814	0.826106
O11	O	1.129388	0.311341	0.367697
O12	O	1.629388	0.811341	0.867697
O13	O	1.019559	0.402342	0.174805
O14	O	1.519559	0.902342	0.674805
O15	O	0.936583	0.191280	0.284560
O16	O	1.436583	0.691280	0.784560
O17	O	1.129310	0.402328	0.284543
O18	O	1.629310	0.902328	0.784543
O19	O	1.019740	0.191269	0.367707
O20	O	1.519740	0.691269	0.867707
O21	O	0.936480	0.311366	0.174812
O22	O	1.436480	0.811366	0.674812
O23	O	0.826776	0.311322	0.284529
O24	O	1.326776	0.811322	0.784529
O25	O	0.936485	0.402251	0.477391
O26	O	1.436485	0.902251	0.977391
O27	O	0.826734	0.402265	0.367653
O28	O	1.326734	0.902265	0.867653
O29	O	1.019684	0.311297	0.477415
O30	O	1.519684	0.811297	0.977415
O31	O	1.019503	0.522370	0.284512
O32	O	1.519503	1.022370	0.784512
O33	O	0.936382	0.522337	0.367643
O34	O	1.436382	1.022337	0.867643
C35	C	0.802196	0.356791	0.326089
C36	C	1.302196	0.856791	0.826089
C37	C	0.726964	0.356799	0.326098
C38	C	1.226964	0.856799	0.826098
C39	C	0.691661	0.309505	0.369463
C40	C	1.191661	0.809505	0.869463
C41	C	0.620973	0.309509	0.369465
C42	C	1.120973	0.809509	0.869465
C43	C	0.585589	0.356811	0.326106
C44	C	1.085589	0.856811	0.826106
C45	C	0.620896	0.404106	0.282737
C46	C	1.120896	0.904106	0.782737
C47	C	0.691584	0.404098	0.282732
C48	C	1.191584	0.904098	0.782732
C49	C	0.335823	0.404139	0.282758
C50	C	0.835823	0.904139	0.782758
C51	C	0.265131	0.404146	0.282768
C52	C	0.765131	0.904146	0.782768
C53	C	0.265212	0.309551	0.369492
C54	C	0.765212	0.809551	0.869492
C55	C	0.335899	0.309543	0.369486
C56	C	0.835899	0.809543	0.869486
C57	C	0.371201	0.356835	0.326115
C58	C	0.871201	0.856835	0.826115
C59	C	0.447850	0.356829	0.326111
C60	C	0.947850	0.856829	0.826111
C61	C	0.508941	0.356821	0.326113
C62	C	1.008941	0.856821	0.826113
C63	C	0.977943	0.549225	0.326088
C64	C	1.477943	1.049225	0.826088
C65	C	0.977959	0.631539	0.326103
C66	C	1.477959	1.131539	0.826103
C67	C	0.978079	0.930630	0.326142
C68	C	1.478079	1.430630	0.826142
C69	C	0.925906	0.899314	0.378575
C70	C	1.425906	1.399314	0.878575
C71	C	0.925666	0.813696	0.378411
C72	C	1.425666	1.313696	0.878411
C73	C	0.978019	0.782247	0.326123
C74	C	1.478019	1.282247	0.826123
C75	C	0.958706	0.813394	0.254789
C76	C	1.458706	1.313394	0.754789
C77	C	0.958361	0.899040	0.255104
C78	C	1.458361	1.399040	0.755104
C79	C	1.049683	0.898978	0.344414
C80	C	1.549683	1.398978	0.844414
C81	C	1.049270	0.813327	0.345978
C82	C	1.549270	1.313327	0.845978
C83	C	0.977987	0.698388	0.326108
C84	C	1.477987	1.198388	0.826108
C85	C	0.978110	1.014489	0.326152
C86	C	1.478110	1.514489	0.826152
C87	C	1.154595	0.356838	0.326123
C88	C	1.654595	0.856838	0.826123
C89	C	1.229827	0.356848	0.326130
C90	C	1.729827	0.856848	0.826130
C91	C	0.978090	0.356767	0.502648
C92	C	1.478090	0.856767	1.002648
C93	C	0.978106	0.356747	0.577881
C94	C	1.478106	0.856747	1.077881
C95	C	0.978156	1.163652	0.326141
C96	C	1.478156	1.663652	0.826141
C97	C	0.978140	1.081338	0.326163
C98	C	1.478140	1.581338	0.826163
C99	C	0.978053	0.356807	0.150250
C100	C	1.478053	0.856807	0.650250
C101	C	0.978168	0.356618	0.075018
C102	C	1.478168	0.856618	0.575018
C103	C	1.021429	0.309385	0.613238
C104	C	1.521429	0.809385	1.113238
C105	C	1.021436	0.309364	0.683926
C106	C	1.521436	0.809364	1.183926
C107	C	0.978123	0.356709	0.719256
C108	C	1.478123	0.856709	1.219256
C109	C	0.934796	0.404073	0.683894
C110	C	1.434796	0.904073	1.183894
C111	C	0.934786	0.404090	0.613207
C112	C	1.434786	0.904090	1.113207
C113	C	0.934834	0.404004	0.968967
C114	C	1.434834	0.904004	1.468967
C115	C	0.934849	0.403985	1.039659
C116	C	1.434849	0.903985	1.539659
C117	C	1.021484	0.309278	1.039687
C118	C	1.521484	0.809278	1.539687
C119	C	1.021474	0.309295	0.969000
C120	C	1.521474	0.809295	1.469000
C121	C	0.978145	0.356656	0.933644
C122	C	1.478145	0.856656	1.433644
C123	C	0.978137	0.356678	0.856995
C124	C	1.478137	0.856678	1.356995
C125	C	0.978134	0.356691	0.795903
C126	C	1.478134	0.856691	1.295903
H127	H	0.937750	0.792635	0.431304
H128	H	1.437750	1.292635	0.931304
N129	N	0.374059	0.258522	0.416253
N130	N	0.874059	0.758522	0.916253
H131	H	0.403392	0.224162	0.388798
H132	H	0.903392	0.724162	0.888798
H133	H	0.403346	0.288712	0.447561
H134	H	0.903346	0.788712	0.947561
N135	N	1.006488	0.926487	0.201572
N136	N	1.506488	1.426487	0.701572
H137	H	1.006634	0.982283	0.201354
H138	H	1.506634	1.482283	0.701354
H139	H	1.053467	0.907732	0.211618
H140	H	1.553467	1.407732	0.711618
H141	H	0.720466	0.270989	0.404772
H142	H	1.220466	0.770989	0.904772
H143	H	1.056702	0.270834	0.584478
H144	H	1.556702	0.770834	1.084478
N145	N	0.582733	0.455129	0.235976
N146	N	1.082733	0.955129	0.735976
H147	H	0.615826	0.485088	0.208503
H148	H	1.115826	0.985088	0.708503
H149	H	0.553404	0.424945	0.204703
H150	H	1.053404	0.924945	0.704703
N151	N	0.227142	0.258532	0.416269
N152	N	0.727142	0.758532	0.916269
H153	H	0.197811	0.288674	0.447590
H154	H	0.697811	0.788674	0.947590
H155	H	0.197860	0.224181	0.388775
H156	H	0.697860	0.724181	0.888775
H157	H	1.056746	0.270744	0.940238
H158	H	1.556746	0.770744	1.440238
N159	N	1.068218	0.258191	1.077821
N160	N	1.568218	0.758191	1.577821
H161	H	1.061653	0.265359	1.127962
H162	H	1.561653	0.765359	1.627962
H163	H	1.057720	0.205302	1.065471
H164	H	1.557720	0.705302	1.565471
N165	N	0.888072	0.455122	0.722007
N166	N	1.388072	0.955122	1.222007
H167	H	0.915555	0.489439	0.751337
H168	H	1.415555	0.989439	1.251337
H169	H	0.860626	0.485079	0.688844
H170	H	1.360626	0.985079	1.188844
N171	N	0.729661	0.455112	0.235963
N172	N	1.229661	0.955112	0.735963
H173	H	0.779810	0.447927	0.242536
H174	H	1.279810	0.947927	0.742536
H175	H	0.717290	0.443515	0.187643
H176	H	1.217290	0.943515	0.687643
H177	H	0.364557	0.442648	0.247443
H178	H	0.864557	0.942648	0.747443
H179	H	0.236323	0.442666	0.247458
H180	H	0.736323	0.942666	0.747458
H181	H	1.063835	0.792967	0.398476
H182	H	1.563835	1.292967	0.898476
N183	N	0.888065	0.455175	0.575063
N184	N	1.388065	0.955175	1.075063
H185	H	0.856716	0.425078	0.545737
H186	H	1.356716	0.925078	1.045737
H187	H	0.860672	0.485159	0.608208
H188	H	1.360672	0.985159	1.108208
H189	H	0.873154	0.920898	0.366624
H190	H	1.373154	1.420898	0.866624
H191	H	0.899575	0.442540	1.068423
H192	H	1.399575	0.942540	1.568423
N193	N	0.941738	0.926537	0.448868
N194	N	1.441738	1.426537	0.948868
H195	H	0.982883	0.959435	0.447410
H196	H	1.482883	1.459435	0.947410
H197	H	0.901989	0.955429	0.466858
H198	H	1.401989	1.455429	0.966858
H199	H	1.090203	0.791915	0.310571
H200	H	1.590203	1.291915	0.810571
H201	H	0.872595	0.793270	0.366307
H202	H	1.372595	1.293270	0.866307
H203	H	0.906019	0.919079	0.239626
H204	H	1.406019	1.419079	0.739626
N205	N	1.007459	0.786418	0.201624
N206	N	1.507459	1.286418	0.701624
H207	H	1.042618	0.753667	0.223320
H208	H	1.542618	1.253667	0.723320
H209	H	0.982024	0.757431	0.166261
H210	H	1.482024	1.257431	0.666261
N211	N	0.890114	0.785067	0.233911
N212	N	1.390114	1.285067	0.733911
H213	H	0.871453	0.752066	0.270551
H214	H	1.371453	1.252066	0.770551
H215	H	0.858576	0.828197	0.226581
H216	H	1.358576	1.328197	0.726581
H217	H	1.088555	0.919228	0.306225
H218	H	1.588555	1.419228	0.806225
H219	H	0.899562	0.442579	0.940189
H220	H	1.399562	0.942579	1.440189
N221	N	1.073008	0.927522	0.412141
N222	N	1.573008	1.427522	0.912141
H223	H	1.037390	0.961265	0.431665
H224	H	1.537390	1.461265	0.931665
H225	H	1.080719	0.884536	0.443748
H226	H	1.580719	1.384536	0.943748
H227	H	0.592232	0.271000	0.404778
H228	H	1.092232	0.771000	0.904778
N229	N	1.068149	0.258266	0.722063
N230	N	1.568149	0.758266	1.222063
H231	H	1.095585	0.228275	0.688956
H232	H	1.595585	0.728275	1.188956
H233	H	1.099458	0.288395	0.751400
H234	H	1.599458	0.788395	1.251400
