data_functionalizedCrystal
_audit_creation_method	'MofGen! by Chris Wilmer'
_symmetry_space_group_name_H-M	'P1'
_symmetry_Int_Tables_number	1
_symmetry_cell_setting	triclinic
loop_
_symmetry_equiv_pos_as_xyz
  x,y,z
_cell_length_a	17.699083
_cell_length_b	11.026607
_cell_length_c	16.176319
_cell_angle_alpha	89.996049
_cell_angle_beta	89.998611
_cell_angle_gamma	95.934516
loop_
_atom_site_label
_atom_site_type_symbol
_atom_site_fract_x
_atom_site_fract_y
_atom_site_fract_z
O1	O	1.025155	0.153399	-0.068626
O2	O	0.807518	0.173357	-0.068652
O3	O	0.898299	-0.013222	-0.068638
O4	O	0.934374	0.339978	-0.068640
O5	O	0.898282	-0.013234	0.068855
O6	O	0.807501	0.173345	0.068841
O7	O	1.025137	0.153387	0.068867
Cu8	Cu	0.916317	0.163365	0.081408
Cu9	Cu	0.916338	0.163379	-0.081193
O10	O	0.934357	0.339966	0.068853
C11	C	0.779214	0.172636	0.000091
C12	C	0.694902	0.170490	0.000080
C13	C	0.661328	0.280008	0.000080
C14	C	0.582106	0.277985	0.000091
C15	C	0.536460	0.166443	0.000096
C16	C	0.570039	0.056917	0.000099
C17	C	0.649259	0.058941	0.000094
C18	C	0.250554	0.048751	0.000119
C19	C	0.171329	0.046735	0.000121
C20	C	0.183402	0.267794	0.000116
C21	C	0.262621	0.269819	0.000111
C22	C	0.296194	0.160293	0.000118
C23	C	0.382094	0.162488	0.000108
C24	C	0.450561	0.164247	0.000100
C25	C	0.891635	-0.058419	0.000106
C26	C	0.871796	-0.193075	0.000101
C27	C	0.926576	-0.267042	0.000107
C28	C	0.906072	-0.406216	0.000101
C29	C	1.053441	0.154108	0.000122
C30	C	1.137754	0.156254	0.000127
C31	C	0.941021	0.385163	0.000107
C32	C	0.960860	0.519819	0.000106
N33	N	0.916308	0.163354	0.195773
N34	N	0.916352	0.163380	-0.195559
C35	C	0.956526	0.080771	0.239044
C36	C	0.956530	0.080770	0.325591
C37	C	0.916320	0.163358	0.368866
C38	C	0.876097	0.245946	0.325590
C39	C	0.876089	0.245940	0.239044
C40	C	0.876126	0.245969	0.674618
C41	C	0.876138	0.245970	0.761169
C42	C	0.956566	0.080798	0.761165
C43	C	0.956559	0.080792	0.674619
C44	C	0.916333	0.163375	0.631350
C45	C	0.916328	0.163374	0.537506
C46	C	0.916328	0.163366	0.462709
H47	H	0.277879	-0.040432	0.000126
H48	H	0.532868	-0.033903	0.000115
C49	C	0.266595	0.488132	0.000117
C50	C	0.312795	0.392429	0.000110
H51	H	0.297571	0.563826	0.000124
H52	H	0.235448	0.482755	-0.047826
H53	H	0.235443	0.482729	0.048068
H54	H	0.343943	0.397827	-0.047844
H55	H	0.343955	0.397809	0.048058
C56	C	0.067324	0.362869	0.000132
C57	C	0.146497	0.388191	0.000120
H58	H	0.044544	0.437196	0.000137
H59	H	0.051862	0.317132	-0.047809
H60	H	0.051871	0.317121	0.048085
H61	H	0.161950	0.433932	-0.047837
H62	H	0.161965	0.433947	0.048066
H63	H	0.134166	-0.044102	0.000127
H64	H	0.554775	0.367165	0.000090
H65	H	0.843392	0.313226	0.796403
H66	H	0.843990	-0.445918	0.000088
C67	C	1.048764	-0.299101	0.000122
C68	C	1.044671	-0.426599	0.000119
H69	H	1.100505	-0.266024	0.000135
H70	H	1.024296	-0.272397	-0.047825
H71	H	1.024276	-0.272414	0.048070
H72	H	1.069155	-0.453286	-0.047832
H73	H	1.069150	-0.453313	0.048071
C74	C	0.665295	0.498319	0.000084
C75	C	0.711498	0.402621	0.000077
H76	H	0.696269	0.574016	0.000088
H77	H	0.634147	0.492938	-0.047859
H78	H	0.634144	0.492915	0.048035
H79	H	0.742646	0.408020	-0.047879
H80	H	0.742660	0.408005	0.048024
C81	C	0.776725	0.272477	0.422937
C82	C	0.831897	0.336727	0.373160
H83	H	0.749443	0.328527	0.452308
H84	H	0.742630	0.222049	0.389184
H85	H	0.800689	0.223297	0.461090
H86	H	0.807932	0.385901	0.335003
H87	H	0.865997	0.387177	0.406917
C88	C	0.796633	0.409247	0.683328
C89	C	0.831918	0.336752	0.627064
H90	H	0.769344	0.465300	0.653966
H91	H	0.762545	0.358809	0.717090
H92	H	0.834085	0.452813	0.717076
H93	H	0.794465	0.293178	0.593319
H94	H	0.866009	0.387196	0.593287
C95	C	0.796596	0.409222	0.247736
C96	C	0.831885	0.336724	0.191478
H97	H	0.769308	0.465272	0.218369
H98	H	0.762506	0.358786	0.281498
H99	H	0.834045	0.452792	0.281485
H100	H	0.794435	0.293147	0.157732
H101	H	0.865977	0.387167	0.157702
C102	C	1.055918	0.054267	0.422916
C103	C	1.000740	-0.009998	0.373161
H104	H	1.083208	-0.001773	0.452288
H105	H	1.090005	0.104695	0.389146
H106	H	1.031957	0.103449	0.461067
H107	H	1.024702	-0.059174	0.335007
H108	H	0.966648	-0.060447	0.406934
H109	H	0.809717	-0.232783	0.000088
C110	C	1.036022	-0.082508	0.247741
C111	C	1.000725	-0.010017	0.191480
H112	H	1.063304	-0.138564	0.218377
H113	H	1.070119	-0.032067	0.281487
H114	H	0.998578	-0.126070	0.281507
H115	H	1.038170	0.033552	0.157718
H116	H	0.966626	-0.060465	0.157720
H117	H	0.676594	-0.030240	0.000094
H118	H	0.988654	-0.227333	0.000119
H119	H	0.989305	0.013545	0.639387
H120	H	0.989318	0.013551	0.796403
