data_functionalizedCrystal
_audit_creation_method	'MofGen! by Chris Wilmer'
_symmetry_space_group_name_H-M	'P1'
_symmetry_Int_Tables_number	1
_symmetry_cell_setting	triclinic
loop_
_symmetry_equiv_pos_as_xyz
  x,y,z
_cell_length_a	18.215407
_cell_length_b	29.839131
_cell_length_c	18.215399
_cell_angle_alpha	89.969127
_cell_angle_beta	89.980167
_cell_angle_gamma	90.041868
loop_
_atom_site_label
_atom_site_type_symbol
_atom_site_fract_x
_atom_site_fract_y
_atom_site_fract_z
Zn1	Zn	1.124987	-0.178853	-0.416101
Zn2	Zn	1.124860	-0.253982	-0.293028
Zn3	Zn	1.001920	-0.178867	-0.293048
Zn4	Zn	1.001850	-0.253957	-0.416053
O5	O	1.063404	-0.216415	-0.354558
O6	O	1.227955	-0.188823	-0.399787
O7	O	1.108528	-0.244034	-0.190047
O8	O	1.018327	-0.115998	-0.309400
O9	O	1.227861	-0.244020	-0.309366
O10	O	1.108745	-0.115987	-0.399806
O11	O	1.018204	-0.188848	-0.190061
O12	O	0.898926	-0.188824	-0.309354
O13	O	1.018209	-0.243978	-0.519044
O14	O	0.898875	-0.243992	-0.399725
O15	O	1.108677	-0.188799	-0.519079
O16	O	1.108460	-0.316846	-0.309320
O17	O	1.018086	-0.316827	-0.399705
C18	C	0.872198	-0.216407	-0.354537
C19	C	0.790399	-0.216414	-0.354545
C20	C	0.602198	-0.245186	-0.401542
C21	C	0.525339	-0.245187	-0.401551
C22	C	0.525363	-0.187652	-0.307589
C23	C	0.602220	-0.187648	-0.307584
C24	C	0.640636	-0.216418	-0.354560
C25	C	0.486920	-0.216423	-0.354574
C26	C	0.403586	-0.216424	-0.354583
C27	C	0.723975	-0.216416	-0.354551
C28	C	1.063272	-0.333137	-0.354521
C29	C	1.063282	-0.383072	-0.354530
C30	C	1.110548	-0.692712	-0.307563
C31	C	1.110639	-0.880385	-0.307591
O32	O	1.150721	-0.904647	-0.267629
N33	N	1.063557	-0.903857	-0.354613
C34	C	1.016452	-0.880407	-0.401635
O35	O	0.976414	-0.904678	-0.441636
C36	C	1.016366	-0.692735	-0.401609
C37	C	1.063446	-0.669266	-0.354579
C38	C	1.157625	-0.669243	-0.260536
C39	C	1.157599	-0.622327	-0.260527
C40	C	1.110496	-0.598881	-0.307544
C41	C	1.063420	-0.622350	-0.354570
C42	C	0.969265	-0.669287	-0.448634
C43	C	0.969249	-0.622365	-0.448625
C44	C	1.016329	-0.598896	-0.401595
C45	C	1.016291	-0.551989	-0.401577
N46	N	1.063373	-0.528517	-0.354554
C47	C	1.110476	-0.551963	-0.307538
C48	C	1.016500	-0.978938	-0.401644
C49	C	1.016521	-1.025856	-0.401649
C50	C	1.110709	-1.025830	-0.307606
C51	C	1.110684	-0.978911	-0.307598
C52	C	1.063582	-0.955466	-0.354622
C53	C	1.110417	-0.453437	-0.307521
C54	C	1.110385	-0.406518	-0.307514
C55	C	1.016200	-0.406547	-0.401559
C56	C	1.016229	-0.453463	-0.401564
C57	C	1.063344	-0.476907	-0.354543
O58	O	0.976236	-0.527698	-0.441523
O59	O	1.150520	-0.527685	-0.267554
C60	C	1.110574	-0.739627	-0.307572
C61	C	1.063498	-0.763097	-0.354598
C62	C	1.016395	-0.739651	-0.401615
C63	C	1.063518	-0.810015	-0.354604
C64	C	1.110621	-0.833461	-0.307587
C65	C	1.157703	-0.809989	-0.260565
C66	C	1.157677	-0.763074	-0.260555
C67	C	0.969313	-0.763122	-0.448637
C68	C	0.969342	-0.810038	-0.448642
C69	C	1.016445	-0.833484	-0.401625
C70	C	1.255357	-0.216423	-0.354579
C71	C	1.337156	-0.216426	-0.354589
C72	C	1.063449	-0.216384	-0.546511
C73	C	1.063468	-0.216370	-0.628310
C74	C	1.063558	-0.099236	-0.354610
C75	C	1.063623	-0.049302	-0.354633
C76	C	1.110592	-0.187612	-0.816523
C77	C	1.110601	-0.187599	-0.893382
C78	C	1.016397	-0.245059	-0.893334
C79	C	1.016385	-0.245070	-0.816477
C80	C	1.063487	-0.216347	-0.778073
C81	C	1.063507	-0.216323	-0.931789
C82	C	1.063517	-0.216309	-1.015123
C83	C	1.063477	-0.216360	-0.694734
C84	C	1.063402	-0.216413	-0.163351
C85	C	1.063526	-0.216300	-0.081553
H86	H	1.148723	-0.387411	-0.269213
H87	H	1.149062	-1.044928	-0.269324
H88	H	1.195937	-0.603221	-0.222233
C89	C	1.162477	-0.953098	-0.255869
C90	C	1.220228	-0.920798	-0.287805
C91	C	1.272025	-0.894987	-0.236076
C92	C	1.266072	-0.901476	-0.152410
C93	C	1.208319	-0.933777	-0.120469
C94	C	1.156522	-0.959588	-0.172199
H95	H	1.224636	-0.915994	-0.349744
H96	H	1.314778	-0.871076	-0.259721
H97	H	1.304416	-0.882369	-0.114117
H98	H	1.203911	-0.938582	-0.058531
H99	H	1.113769	-0.983499	-0.148553
C100	C	0.964563	-0.276681	-0.774179
C101	C	0.880908	-0.273010	-0.784736
C102	C	0.829085	-0.304618	-0.742440
C103	C	0.860917	-0.339896	-0.689587
C104	C	0.944577	-0.343568	-0.679027
C105	C	0.996399	-0.311960	-0.721323
H106	H	0.857340	-0.246894	-0.823864
H107	H	0.767155	-0.301899	-0.750257
H108	H	0.822555	-0.363294	-0.658276
H109	H	0.968145	-0.369684	-0.639899
H110	H	1.058330	-0.314679	-0.713506
C111	C	0.644456	-0.276828	-0.453219
C112	C	0.602171	-0.308470	-0.504902
C113	C	0.644427	-0.340111	-0.556582
C114	C	0.728967	-0.340111	-0.556580
C115	C	0.771256	-0.308468	-0.504895
C116	C	0.729001	-0.276826	-0.453215
H117	H	0.539585	-0.308471	-0.504906
H118	H	0.613121	-0.363536	-0.594843
H119	H	0.760247	-0.363535	-0.594837
H120	H	0.833842	-0.308467	-0.504891
H121	H	0.760307	-0.253402	-0.414954
H122	H	0.494047	-0.268612	-0.439810
C123	C	0.483104	-0.156010	-0.255912
C124	C	0.398564	-0.156014	-0.255911
C125	C	0.356307	-0.124373	-0.204230
C126	C	0.398590	-0.092728	-0.152551
C127	C	0.483135	-0.092723	-0.152550
C128	C	0.525392	-0.124364	-0.204231
H129	H	0.367259	-0.179441	-0.294169
H130	H	0.293721	-0.124377	-0.204231
H131	H	0.367309	-0.069306	-0.114294
H132	H	0.514439	-0.069297	-0.114292
H133	H	0.587978	-0.124360	-0.204230
C134	C	1.162397	-0.156014	-0.774278
C135	C	1.130543	-0.120751	-0.721451
C136	C	1.182347	-0.089152	-0.679208
C137	C	1.266006	-0.092815	-0.689792
C138	C	1.297865	-0.128080	-0.742621
C139	C	1.246060	-0.159679	-0.784864
H140	H	1.068610	-0.118038	-0.713614
H141	H	1.158763	-0.063047	-0.640100
H142	H	1.304355	-0.069423	-0.658521
H143	H	1.359798	-0.130793	-0.750458
H144	H	1.269645	-0.185784	-0.823972
H145	H	0.977895	-0.472573	-0.439862
H146	H	0.978177	-1.044960	-0.439939
H147	H	0.978050	-0.268446	-0.924612
C148	C	0.964390	-0.380750	-0.453274
C149	C	0.880733	-0.387248	-0.447199
C150	C	0.828926	-0.361449	-0.498917
C151	C	0.860776	-0.329150	-0.556712
C152	C	0.944437	-0.322649	-0.562790
C153	C	0.996244	-0.348449	-0.511071
H154	H	0.857151	-0.411159	-0.404414
H155	H	0.766994	-0.366261	-0.494418
H156	H	0.822426	-0.310051	-0.594997
H157	H	0.968019	-0.298739	-0.605575
H158	H	1.058176	-0.343637	-0.515571
H159	H	1.148958	-0.164199	-0.924684
C160	C	0.917433	-0.596577	-0.500352
C161	C	0.949269	-0.564280	-0.558157
C162	C	0.897451	-0.538493	-0.609881
C163	C	0.813797	-0.545002	-0.603801
C164	C	0.781956	-0.577301	-0.545994
C165	C	0.833774	-0.603088	-0.494270
H166	H	1.011199	-0.559460	-0.562660
H167	H	0.921023	-0.514583	-0.652674
H168	H	0.775438	-0.525913	-0.642091
H169	H	0.720026	-0.582121	-0.541491
H170	H	0.810202	-0.626998	-0.451477
H171	H	0.930998	-0.829142	-0.486939
C172	C	1.162238	-0.479221	-0.255794
C173	C	1.156267	-0.472802	-0.172127
C174	C	1.208082	-0.498585	-0.120396
C175	C	1.265868	-0.530789	-0.152331
C176	C	1.271841	-0.537211	-0.236001
C177	C	1.220026	-0.511427	-0.287733
H178	H	1.113488	-0.448961	-0.148483
H179	H	1.203660	-0.493832	-0.058457
H180	H	1.304225	-0.549876	-0.114036
H181	H	1.314620	-0.561051	-0.259646
H182	H	1.224448	-0.516180	-0.349672
C183	C	0.644506	-0.156002	-0.255898
C184	C	0.697393	-0.120753	-0.287888
C185	C	0.739679	-0.089107	-0.236207
C186	C	0.729077	-0.092710	-0.152534
C187	C	0.676187	-0.127961	-0.120540
C188	C	0.633902	-0.159607	-0.172221
H189	H	0.705244	-0.118084	-0.349831
H190	H	0.778831	-0.063012	-0.259892
H191	H	0.760379	-0.069284	-0.114276
H192	H	0.668337	-0.130629	-0.058597
H193	H	0.594750	-0.185702	-0.148536
C194	C	1.209442	-0.695027	-0.208811
C195	C	1.203474	-0.688602	-0.125145
C196	C	1.255291	-0.714383	-0.073410
C197	C	1.313076	-0.746588	-0.105342
C198	C	1.319047	-0.753015	-0.189012
C199	C	1.267230	-0.727234	-0.240746
H200	H	1.160695	-0.664760	-0.101504
H201	H	1.250870	-0.709625	-0.011472
H202	H	1.351434	-0.765672	-0.067045
H203	H	1.361825	-0.776857	-0.212653
H204	H	1.271650	-0.731992	-0.302684
H205	H	0.978143	-0.959852	-0.439938
H206	H	0.930924	-0.688387	-0.486928
H207	H	1.196014	-0.743968	-0.222259
H208	H	1.196053	-0.829087	-0.222280
C209	C	0.917494	-0.737337	-0.500358
C210	C	0.833841	-0.743851	-0.494271
C211	C	0.782015	-0.718069	-0.545994
C212	C	0.813842	-0.685773	-0.603804
C213	C	0.897500	-0.679257	-0.609895
C214	C	0.949325	-0.705039	-0.558171
H215	H	0.810277	-0.767760	-0.451473
H216	H	0.720086	-0.722893	-0.541485
H217	H	0.775478	-0.666687	-0.642093
H218	H	0.921064	-0.655348	-0.652692
H219	H	1.011254	-0.700216	-0.562680
