data_functionalizedCrystal
_audit_creation_method	'MofGen! by Chris Wilmer'
_symmetry_space_group_name_H-M	'P1'
_symmetry_Int_Tables_number	1
_symmetry_cell_setting	triclinic
loop_
_symmetry_equiv_pos_as_xyz
  x,y,z
_cell_length_a	16.120444
_cell_length_b	16.120530
_cell_length_c	16.120297
_cell_angle_alpha	90.128140
_cell_angle_beta	84.384883
_cell_angle_gamma	89.831599
loop_
_atom_site_label
_atom_site_type_symbol
_atom_site_fract_x
_atom_site_fract_y
_atom_site_fract_z
Zn1	Zn	-0.422266	-1.224979	0.554818
Zn2	Zn	0.077734	-0.724979	1.054818
Zn3	Zn	-0.554951	-1.224872	0.422125
Zn4	Zn	-0.054951	-0.724872	0.922125
Zn5	Zn	-0.408182	-1.093719	0.408061
Zn6	Zn	0.091818	-0.593719	0.908061
Zn7	Zn	-0.554183	-1.078869	0.554057
Zn8	Zn	-0.054183	-0.578869	1.054057
O9	O	-0.484895	-1.155610	0.484765
O10	O	0.015105	-0.655610	0.984765
O11	O	-0.446082	-1.341001	0.543421
O12	O	0.053918	-0.841001	1.043421
O13	O	-0.529908	-1.213644	0.303627
O14	O	-0.029908	-0.713644	0.803627
O15	O	-0.293419	-1.117390	0.421961
O16	O	0.206581	-0.617390	0.921961
O17	O	-0.543565	-1.340922	0.445931
O18	O	-0.043565	-0.840922	0.945931
O19	O	-0.303767	-1.213826	0.529783
O20	O	0.196233	-0.713826	1.029783
O21	O	-0.422078	-1.117286	0.293294
O22	O	0.077922	-0.617286	0.793294
O23	O	-0.421333	-0.975713	0.421223
O24	O	0.078667	-0.475713	0.921223
O25	O	-0.542257	-1.092082	0.670791
O26	O	-0.042257	-0.592082	1.170791
O27	O	-0.528600	-0.964804	0.528486
O28	O	-0.028600	-0.464804	1.028486
O29	O	-0.445338	-1.199428	0.671350
O30	O	0.054662	-0.699428	1.171350
O31	O	-0.671480	-1.199245	0.445193
O32	O	-0.171480	-0.699245	0.945193
O33	O	-0.670916	-1.091978	0.542124
O34	O	-0.170916	-0.591978	1.042124
C35	C	-0.473356	-0.940172	0.473247
C36	C	0.026644	-0.440172	0.973247
C37	C	-0.468440	-0.848004	0.468340
C38	C	0.031560	-0.348004	0.968340
C39	C	-0.701441	-1.144010	0.495121
C40	C	-0.201441	-0.644010	0.995121
C41	C	-0.794086	-1.139122	0.499584
C42	C	-0.294086	-0.639122	0.999584
C43	C	-1.005244	-1.181160	0.461807
C44	C	-0.505244	-0.681160	0.961807
C45	C	-0.963704	-1.130213	0.507740
C46	C	-0.463704	-0.630213	1.007740
C47	C	-0.869320	-1.135171	0.503201
C48	C	-0.369320	-0.635171	1.003201
C49	C	-1.099637	-1.176203	0.466346
C50	C	-0.599637	-0.676203	0.966346
C51	C	-0.495283	-1.144110	0.702158
C52	C	0.004717	-0.644110	1.202158
C53	C	-0.499710	-1.139210	0.794797
C54	C	0.000290	-0.639210	1.294797
C55	C	-0.267506	-1.167277	0.474388
C56	C	0.232494	-0.667277	0.974388
C57	C	-0.174868	-1.172248	0.469966
C58	C	0.325132	-0.672248	0.969966
C59	C	-0.496481	-1.371889	0.496330
C60	C	0.003519	-0.871889	0.996330
C61	C	-0.501417	-1.464055	0.501258
C62	C	-0.001417	-0.964055	1.001258
C63	C	-0.459446	-0.679253	0.459387
C64	C	0.040554	-0.179253	0.959387
C65	C	-0.510409	-0.632801	0.510208
C66	C	-0.010409	-0.132801	1.010208
C67	C	-0.505404	-0.538902	0.505226
C68	C	-0.005404	-0.038902	1.005226
C69	C	-0.464449	-0.773160	0.464367
C70	C	0.035551	-0.273160	0.964367
C71	C	-0.474490	-1.167116	0.268218
C72	C	0.025510	-0.667116	0.768218
C73	C	-0.469838	-1.172189	0.175577
C74	C	0.030162	-0.672189	0.675577
C75	C	-0.507771	-1.130233	0.964409
C76	C	-0.007771	-0.630233	1.464409
C77	C	-0.461778	-1.181163	1.005971
C78	C	0.038222	-0.681163	1.505971
C79	C	-0.466264	-1.176169	1.100348
C80	C	0.033736	-0.676169	1.600348
C81	C	-0.503287	-1.135227	0.870023
C82	C	-0.003287	-0.635227	1.370023
H83	H	-0.999026	-1.082871	0.550474
H84	H	-0.499026	-0.582871	1.050474
H85	H	-0.969926	-1.228498	0.419075
H86	H	-0.469926	-0.728498	0.919075
N87	N	-0.396696	-0.638528	0.396782
N88	N	0.103304	-0.138528	0.896782
H89	H	-0.401984	-0.576250	0.402047
H90	H	0.098016	-0.076250	0.902047
H91	H	-0.407543	-0.656067	0.338644
H92	H	0.092457	-0.156067	0.838644
N93	N	-0.573187	-0.673535	0.572787
N94	N	-0.073187	-0.173535	1.072787
H95	H	-0.631307	-0.656011	0.561803
H96	H	-0.131307	-0.156011	1.061803
H97	H	-0.562334	-0.656059	0.630942
H98	H	-0.062334	-0.156059	1.130942
N99	N	-0.564378	-1.067508	1.011168
N100	N	-0.064378	-0.567508	1.511168
H101	H	-0.606485	-1.097261	1.050946
H102	H	-0.106485	-0.597261	1.550946
H103	H	-0.594397	-1.034221	0.970237
H104	H	-0.094397	-0.534221	1.470237
N105	N	-0.405156	-1.243891	0.959224
N106	N	0.094844	-0.743891	1.459224
H107	H	-0.409938	-1.238614	0.897453
H108	H	0.090062	-0.738614	1.397453
H109	H	-0.422012	-1.301626	0.978185
H110	H	0.077988	-0.801626	1.478185
