data_functionalizedCrystal
_audit_creation_method	'MofGen! by Chris Wilmer'
_symmetry_space_group_name_H-M	'P1'
_symmetry_Int_Tables_number	1
_symmetry_cell_setting	triclinic
loop_
_symmetry_equiv_pos_as_xyz
  x,y,z
_cell_length_a	19.188905
_cell_length_b	14.044220
_cell_length_c	17.666332
_cell_angle_alpha	90.010611
_cell_angle_beta	89.998485
_cell_angle_gamma	88.161716
loop_
_atom_site_label
_atom_site_type_symbol
_atom_site_fract_x
_atom_site_fract_y
_atom_site_fract_z
O1	O	0.933770	0.118202	0.063076
O2	O	1.267103	0.451535	0.396410
O3	O	1.600436	0.784868	0.729743
O4	O	0.731485	0.134153	0.063051
O5	O	1.064819	0.467486	0.396384
O6	O	1.398152	0.800819	0.729717
O7	O	0.829591	-0.011794	0.063056
O8	O	1.162925	0.321539	0.396389
O9	O	1.496258	0.654872	0.729722
O10	O	0.835664	0.264149	0.063071
O11	O	1.168997	0.597482	0.396405
O12	O	1.502330	0.930815	0.729738
O13	O	0.829609	-0.011814	-0.062841
O14	O	1.162942	0.321520	0.270492
O15	O	1.496275	0.654853	0.603826
O16	O	0.731503	0.134133	-0.062846
O17	O	1.064836	0.467467	0.270487
O18	O	1.398169	0.800800	0.603821
O19	O	0.933787	0.118182	-0.062821
O20	O	1.267120	0.451516	0.270513
O21	O	1.600454	0.784849	0.603846
Cu22	Cu	0.832646	0.126156	-0.074329
Cu23	Cu	1.165980	0.459489	0.259005
Cu24	Cu	1.499313	0.792823	0.592338
Cu25	Cu	0.832626	0.126179	0.074559
Cu26	Cu	1.165959	0.459512	0.407892
Cu27	Cu	1.499293	0.792846	0.741225
O28	O	0.835681	0.264130	-0.062825
O29	O	1.169014	0.597463	0.270508
O30	O	1.502348	0.930796	0.603841
C31	C	0.705450	0.133630	0.000099
C32	C	1.038783	0.466964	0.333432
C33	C	1.372116	0.800297	0.666766
C34	C	0.627845	0.132092	0.000089
C35	C	0.961178	0.465425	0.333422
C36	C	1.294511	0.798758	0.666756
C37	C	0.826942	-0.047107	0.000107
C38	C	1.160275	0.286226	0.333440
C39	C	1.493608	0.619559	0.666773
C40	C	0.819013	-0.152299	0.000105
C41	C	1.152346	0.181034	0.333438
C42	C	1.485680	0.514367	0.666771
C43	C	0.804517	-0.344899	0.000114
C44	C	1.137851	-0.011565	0.333447
C45	C	1.471184	0.321768	0.666780
C46	C	0.860752	-0.402772	0.000123
C47	C	1.194085	-0.069439	0.333456
C48	C	1.527419	0.263895	0.666790
C49	C	0.852686	-0.509941	0.000128
C50	C	1.186020	-0.176608	0.333461
C51	C	1.519353	0.156726	0.666795
C52	C	0.812582	-0.237720	0.000109
C53	C	1.145915	0.095614	0.333442
C54	C	1.479248	0.428947	0.666775
C55	C	0.591396	0.131363	0.068717
C56	C	0.924729	0.464696	0.402051
C57	C	1.258063	0.798030	0.735384
C58	C	0.518478	0.129907	0.068727
C59	C	0.851812	0.463240	0.402060
C60	C	1.185145	0.796573	0.735393
C61	C	0.482013	0.129160	0.000104
C62	C	0.815346	0.462493	0.333437
C63	C	1.148680	0.795827	0.666770
C64	C	0.518471	0.129894	-0.068534
C65	C	0.851804	0.463227	0.264800
C66	C	1.185137	0.796561	0.598133
C67	C	0.591387	0.131360	-0.068541
C68	C	0.924720	0.464693	0.264792
C69	C	1.258053	0.798027	0.598126
N70	N	0.369371	0.072924	-0.050969
N71	N	0.702705	0.406257	0.282365
N72	N	1.036038	0.739590	0.615698
N73	N	0.300104	0.071529	-0.050957
N74	N	0.633438	0.404862	0.282376
N75	N	0.966771	0.738196	0.615710
C76	C	0.262322	0.124745	0.000122
C77	C	0.595655	0.458079	0.333455
C78	C	0.928988	0.791412	0.666788
N79	N	0.296423	0.179397	0.051200
N80	N	0.629756	0.512730	0.384533
N81	N	0.963089	0.846064	0.717867
N82	N	0.365696	0.180787	0.051191
N83	N	0.699030	0.514121	0.384524
N84	N	1.032363	0.847454	0.717857
C85	C	0.402948	0.127571	0.000104
C86	C	0.736281	0.460904	0.333437
C87	C	1.069615	0.794238	0.666771
C88	C	0.146807	0.122439	0.068765
C89	C	0.480140	0.455772	0.402098
C90	C	0.813474	0.789106	0.735432
C91	C	0.073888	0.120989	0.068771
C92	C	0.407221	0.454322	0.402105
C93	C	0.740554	0.787655	0.735438
C94	C	0.073882	0.120966	-0.068491
C95	C	0.407215	0.454300	0.264843
C96	C	0.740549	0.787633	0.598176
C97	C	0.146799	0.122426	-0.068495
C98	C	0.480133	0.455760	0.264838
C99	C	0.813466	0.789093	0.598171
C100	C	0.183258	0.123158	0.000135
C101	C	0.516591	0.456491	0.333468
C102	C	0.849924	0.789825	0.666801
C103	C	0.959823	0.118705	0.000133
C104	C	1.293156	0.452038	0.333466
C105	C	1.626489	0.785371	0.666799
C106	C	1.037428	0.120243	0.000148
C107	C	1.370761	0.453577	0.333481
C108	C	1.704094	0.786910	0.666814
C109	C	0.838331	0.299442	0.000125
C110	C	1.171664	0.632776	0.333459
C111	C	1.504997	0.966109	0.666792
C112	C	0.846259	0.404634	0.000132
C113	C	1.179593	0.737968	0.333465
C114	C	1.512926	1.071301	0.666799
N115	N	0.832611	0.126188	0.179278
N116	N	1.165945	0.459521	0.512612
N117	N	1.499278	0.792855	0.845945
N118	N	0.832666	0.126139	-0.179048
N119	N	1.165999	0.459473	0.154285
N120	N	1.499333	0.792806	0.487619
C121	C	0.878447	0.183626	0.218901
C122	C	1.211780	0.516960	0.552235
C123	C	1.545114	0.850293	0.885568
C124	C	0.878452	0.183627	0.298149
C125	C	1.211785	0.516961	0.631482
C126	C	1.545118	0.850294	0.964816
C127	C	0.832628	0.126172	0.337770
C128	C	1.165961	0.459506	0.671104
C129	C	1.499294	0.792839	1.004437
C130	C	0.786783	0.068730	0.298138
C131	C	1.120117	0.402064	0.631471
C132	C	1.453450	0.735397	0.964804
C133	C	0.786775	0.068738	0.218892
C134	C	1.120108	0.402072	0.552225
C135	C	1.453442	0.735405	0.885558
N136	N	0.825715	0.043126	0.462178
N137	N	1.159048	0.376460	0.795511
N138	N	1.492381	0.709793	1.128845
N139	N	0.825727	0.043121	0.537458
N140	N	1.159060	0.376455	0.870792
N141	N	1.492393	0.709788	1.204125
C142	C	0.832648	0.126147	0.576534
C143	C	1.165982	0.459480	0.909868
C144	C	1.499315	0.792813	1.243201
N145	N	0.839571	0.209178	0.537486
N146	N	1.172905	0.542511	0.870819
N147	N	1.506238	0.875845	1.204153
N148	N	0.839563	0.209182	0.462199
N149	N	1.172897	0.542515	0.795532
N150	N	1.506230	0.875848	1.128865
C151	C	0.832631	0.126158	0.423700
C152	C	1.165964	0.459491	0.757033
C153	C	1.499298	0.792824	1.090366
C154	C	0.878492	0.183591	0.702087
C155	C	1.211825	0.516924	1.035420
C156	C	1.545158	0.850257	1.368753
C157	C	0.878491	0.183594	0.781336
C158	C	1.211825	0.516927	1.114669
C159	C	1.545158	0.850260	1.448003
C160	C	0.786826	0.068688	0.781323
C161	C	1.120160	0.402022	1.114657
C162	C	1.453493	0.735355	1.447990
C163	C	0.786823	0.068694	0.702076
C164	C	1.120156	0.402027	1.035409
C165	C	1.453490	0.735361	1.368742
C166	C	0.832659	0.126144	0.662462
C167	C	1.165993	0.459477	0.995796
C168	C	1.499326	0.792810	1.329129
H169	H	0.914954	-0.371832	0.000181
H170	H	1.248287	-0.038499	0.333514
H171	H	1.581620	0.294835	0.666847
H172	H	0.488796	0.129315	0.124614
H173	H	0.822129	0.462648	0.457947
H174	H	1.155462	0.795982	0.791280
F175	F	0.927246	0.244752	0.340327
F176	F	1.260579	0.578085	0.673661
F177	F	1.593913	0.911418	1.006994
H178	H	0.750320	-0.375837	0.000109
H179	H	1.083653	-0.042503	0.333442
H180	H	1.416987	0.290830	0.666775
H181	H	0.176477	0.123013	-0.124380
H182	H	0.509810	0.456347	0.208953
H183	H	0.843143	0.789680	0.542287
H184	H	0.749512	0.021913	0.813582
H185	H	1.082845	0.355246	1.146916
H186	H	1.416178	0.688580	1.480249
H187	H	0.621076	0.131959	0.124601
H188	H	0.954409	0.465292	0.457935
H189	H	1.287742	0.798626	0.791268
F190	F	0.479661	0.129104	-0.141567
F191	F	0.812994	0.462437	0.191766
F192	F	1.146327	0.795771	0.525100
H193	H	0.621063	0.131954	-0.124428
H194	H	0.954396	0.465287	0.208905
H195	H	1.287730	0.798621	0.542239
F196	F	0.738012	0.007587	0.340307
F197	F	1.071345	0.340920	0.673640
F198	F	1.404678	0.674253	1.006973
H199	H	0.915769	0.230408	0.186653
H200	H	1.249103	0.563742	0.519986
H201	H	1.582436	0.897075	0.853320
H202	H	0.176492	0.123045	0.124647
H203	H	0.509826	0.456378	0.457981
H204	H	0.843159	0.789712	0.791314
F205	F	0.738040	0.007556	0.659904
F206	F	1.071374	0.340889	0.993238
F207	F	1.404707	0.674223	1.326571
F208	F	0.035077	0.120179	-0.141525
F209	F	0.368411	0.453513	0.191808
F210	F	0.701744	0.786846	0.525142
F211	F	0.035096	0.120221	0.141819
F212	F	0.368429	0.453554	0.475152
F213	F	0.701763	0.786887	0.808486
F214	F	0.737988	0.007602	0.176721
F215	F	1.071322	0.340935	0.510054
F216	F	1.404655	0.674269	0.843387
F217	F	0.927272	0.244736	0.659924
F218	F	1.260605	0.578069	0.993258
F219	F	1.593938	0.911402	1.326591
F220	F	0.927267	0.244749	0.823505
F221	F	1.260600	0.578082	1.156839
F222	F	1.593933	0.911415	1.490172
