data_functionalizedCrystal
_audit_creation_method	'MofGen! by Chris Wilmer'
_symmetry_space_group_name_H-M	'P1'
_symmetry_Int_Tables_number	1
_symmetry_cell_setting	triclinic
loop_
_symmetry_equiv_pos_as_xyz
  x,y,z
_cell_length_a	15.944551
_cell_length_b	15.021413
_cell_length_c	15.944551
_cell_angle_alpha	90.003065
_cell_angle_beta	96.501262
_cell_angle_gamma	90.002826
loop_
_atom_site_label
_atom_site_type_symbol
_atom_site_fract_x
_atom_site_fract_y
_atom_site_fract_z
O1	O	1.114529	0.073941	-0.108321
O2	O	1.614529	0.573941	0.391679
O3	O	0.869979	0.073964	-0.121677
O4	O	1.369979	0.573964	0.378323
O5	O	0.998932	0.073944	0.007276
O6	O	1.498932	0.573944	0.507276
O7	O	0.985576	0.073961	-0.237274
O8	O	1.485576	0.573961	0.262726
O9	O	0.998912	-0.074121	0.007257
O10	O	1.498912	0.425879	0.507257
O11	O	0.869959	-0.074101	-0.121695
O12	O	1.369959	0.425899	0.378305
O13	O	1.114508	-0.074123	-0.108339
O14	O	1.614508	0.425877	0.391661
Zn15	Zn	0.992230	-0.097620	-0.115020
Zn16	Zn	1.492230	0.402380	0.384980
Zn17	Zn	0.992257	0.097461	-0.114996
Zn18	Zn	1.492257	0.597461	0.385004
O19	O	0.985555	-0.074103	-0.237292
O20	O	1.485555	0.425897	0.262708
C21	C	0.838675	-0.000066	-0.121132
C22	C	1.338675	0.499934	0.378868
C23	C	0.745429	-0.000057	-0.119470
C24	C	1.245429	0.499943	0.380530
N25	N	0.992218	-0.230758	-0.115036
N26	N	1.492218	0.269242	0.384964
C27	C	0.530572	-0.000081	-0.035565
C28	C	1.030572	0.499919	0.464435
C29	C	0.469562	0.072926	-0.074518
C30	C	0.969562	0.572926	0.425482
C31	C	0.574703	-0.000068	-0.116462
C32	C	1.074703	0.499932	0.383538
C33	C	0.469564	-0.073054	-0.074556
C34	C	0.969564	0.426946	0.425444
C35	C	0.409790	-0.000083	-0.113551
C36	C	0.909790	0.499917	0.386449
C37	C	0.514921	0.072998	-0.155438
C38	C	1.014921	0.572998	0.344562
C39	C	0.514930	-0.073047	-0.155464
C40	C	1.014930	0.426953	0.344536
C41	C	0.453937	-0.000023	-0.194476
C42	C	0.953937	0.499977	0.305524
C43	C	0.669705	-0.000059	-0.118137
C44	C	1.169705	0.499941	0.381863
C45	C	0.314789	-0.000085	-0.111883
C46	C	0.814789	0.499915	0.388117
C47	C	0.932581	-0.470432	-0.174636
C48	C	1.432581	0.029568	0.325364
C49	C	1.008481	-0.529772	-0.190943
C50	C	1.508481	-0.029772	0.309057
C51	C	0.992239	-0.412365	-0.115015
C52	C	1.492239	0.087635	0.384985
C53	C	0.916360	-0.529766	-0.098727
C54	C	1.416360	-0.029766	0.401273
C55	C	0.992253	-0.587789	-0.114997
C56	C	1.492253	-0.087789	0.385003
C57	C	1.068178	-0.470398	-0.131360
C58	C	1.568178	0.029602	0.368640
C59	C	0.976006	-0.470387	-0.039111
C60	C	1.476006	0.029613	0.460889
C61	C	1.051962	-0.529701	-0.055386
C62	C	1.551962	-0.029701	0.444614
C63	C	0.992230	-0.311307	-0.115028
C64	C	1.492230	0.188693	0.384972
C65	C	0.992271	-0.688844	-0.114984
C66	C	1.492271	-0.188844	0.385016
C67	C	1.145813	-0.000092	-0.108885
C68	C	1.645813	0.499908	0.391115
C69	C	1.239059	-0.000094	-0.110547
C70	C	1.739059	0.499906	0.389453
C71	C	0.998367	-0.000089	0.038561
C72	C	1.498367	0.499911	0.538561
C73	C	0.996705	-0.000089	0.131807
C74	C	1.496705	0.499911	0.631807
N75	N	0.992276	0.230598	-0.114973
N76	N	1.492276	0.730598	0.385027
C77	C	0.986120	-0.000069	-0.268577
C78	C	1.486120	0.499931	0.231423
C79	C	0.987782	-0.000063	-0.361823
C80	C	1.487782	0.499937	0.138177
C81	C	0.912801	-0.000069	0.346663
C82	C	1.412801	0.499931	0.846663
C83	C	0.951753	-0.073077	0.407672
C84	C	1.451753	0.426923	0.907672
C85	C	0.993698	-0.000082	0.302533
C86	C	1.493698	0.499918	0.802533
C87	C	0.951792	0.072903	0.407673
C88	C	1.451792	0.572903	0.907673
C89	C	0.990787	-0.000071	0.467445
C90	C	1.490787	0.499929	0.967445
C91	C	1.032672	-0.073150	0.362313
C92	C	1.532672	0.426850	0.862313
C93	C	1.032700	0.072895	0.362308
C94	C	1.532700	0.572895	0.862308
C95	C	1.071711	-0.000131	0.423298
C96	C	1.571711	0.499869	0.923298
C97	C	0.995372	-0.000089	0.207530
C98	C	1.495372	0.499911	0.707530
C99	C	0.989119	-0.000070	0.562446
C100	C	1.489119	0.499930	1.062446
H101	H	0.449461	0.134642	-0.040295
H102	H	0.949461	0.634642	0.459705
H103	H	0.962240	-0.444283	0.025051
H104	H	1.462240	0.055717	0.525051
H105	H	0.420779	0.000023	-0.261683
H106	H	0.920779	0.500023	0.238317
C107	C	1.154891	-0.435325	-0.150074
C108	C	1.654891	0.064675	0.349926
H109	H	1.154346	-0.372082	-0.149997
H110	H	1.654346	0.127918	0.350003
H111	H	1.197293	-0.456091	-0.107969
H112	H	1.697293	0.043909	0.392031
H113	H	1.166517	-0.456153	-0.203817
H114	H	1.666517	0.043847	0.296183
C115	C	0.575574	0.000003	0.055141
C116	C	1.075574	0.500003	0.555141
H117	H	0.609498	-0.051894	0.063827
H118	H	1.109498	0.448106	0.563827
H119	H	0.610265	0.051378	0.063434
H120	H	1.110265	0.551378	0.563434
H121	H	0.534716	0.000563	0.094124
H122	H	1.034716	0.500563	0.594124
H123	H	1.102474	-0.555561	-0.004956
H124	H	1.602474	-0.055561	0.495044
C125	C	0.864500	-0.435263	-0.242798
C126	C	1.364500	0.064737	0.257202
H127	H	0.876182	-0.455597	-0.296690
H128	H	1.376182	0.044403	0.203310
H129	H	0.810699	-0.456461	-0.231766
H130	H	1.310699	0.043539	0.268234
H131	H	0.864634	-0.372026	-0.242001
H132	H	1.364634	0.127974	0.257999
H133	H	0.852184	-0.555847	-0.084959
H134	H	1.352184	-0.055847	0.415041
H135	H	0.535052	-0.134767	-0.189659
H136	H	1.035052	0.365233	0.310341
C137	C	0.822095	-0.000156	0.301661
C138	C	1.322095	0.499844	0.801661
H139	H	0.793480	-0.052091	0.317077
H140	H	1.293480	0.447909	0.817077
H141	H	0.793075	0.051181	0.317839
H142	H	1.293075	0.551181	0.817839
H143	H	0.823775	0.000367	0.242295
H144	H	1.323775	0.500367	0.742295
C145	C	0.905522	-0.156448	0.434832
C146	C	1.405522	0.343552	0.934832
H147	H	0.849071	-0.156355	0.408331
H148	H	1.349071	0.343645	0.908331
H149	H	0.933709	-0.208291	0.418542
H150	H	1.433709	0.291709	0.918542
H151	H	0.905248	-0.156117	0.494381
H152	H	1.405248	0.343883	0.994381
H153	H	0.534918	0.134787	-0.189621
H154	H	1.034918	0.634787	0.310379
H155	H	1.022224	-0.555856	-0.255126
H156	H	1.522224	-0.055856	0.244874
C157	C	1.078838	-0.156628	0.335303
C158	C	1.578838	0.343372	0.835303
H159	H	1.079582	-0.156139	0.275810
H160	H	1.579582	0.343861	0.775810
H161	H	1.135118	-0.156849	0.362232
H162	H	1.635118	0.343151	0.862232
H163	H	1.050278	-0.208402	0.351191
H164	H	1.550278	0.291598	0.851191
H165	H	1.138919	-0.000178	0.456457
H166	H	1.638919	0.499822	0.956457
C167	C	1.078893	0.156270	0.335114
C168	C	1.578893	0.656270	0.835114
H169	H	1.050075	0.208096	0.350463
H170	H	1.550075	0.708096	0.850463
H171	H	1.135028	0.156790	0.362409
H172	H	1.635028	0.656790	0.862409
H173	H	1.080053	0.155371	0.275681
H174	H	1.580053	0.655371	0.775681
C175	C	0.905570	0.156283	0.434823
C176	C	1.405570	0.656283	0.934823
H177	H	0.943004	0.190660	0.472501
H178	H	1.443004	0.690660	0.972501
H179	H	0.886830	0.190887	0.386444
H180	H	1.386830	0.690887	0.886444
H181	H	0.858361	0.138733	0.462287
H182	H	1.358361	0.638733	0.962287
C183	C	0.442420	-0.156433	-0.028329
C184	C	0.942420	0.343567	0.471671
H185	H	0.468936	-0.156340	0.028116
H186	H	0.968936	0.343660	0.528116
H187	H	0.382876	-0.156126	-0.028052
H188	H	0.882876	0.343874	0.471948
H189	H	0.458721	-0.208274	-0.056524
H190	H	0.958721	0.291726	0.443476
