data_functionalizedCrystal
_audit_creation_method	'MofGen! by Chris Wilmer'
_symmetry_space_group_name_H-M	'P1'
_symmetry_Int_Tables_number	1
_symmetry_cell_setting	triclinic
loop_
_symmetry_equiv_pos_as_xyz
  x,y,z
_cell_length_a	17.699083
_cell_length_b	23.532357
_cell_length_c	16.776229
_cell_angle_alpha	89.987808
_cell_angle_beta	89.998886
_cell_angle_gamma	83.055654
loop_
_atom_site_label
_atom_site_type_symbol
_atom_site_fract_x
_atom_site_fract_y
_atom_site_fract_z
O1	O	1.003696	0.072022	-0.066186
O2	O	1.337029	0.405355	0.267147
O3	O	1.670363	0.738688	0.600480
O4	O	0.783268	0.081392	-0.066214
O5	O	1.116601	0.414725	0.267120
O6	O	1.449934	0.748058	0.600453
O7	O	0.900149	-0.006208	-0.066183
O8	O	1.233482	0.327125	0.267151
O9	O	1.566815	0.660459	0.600484
O10	O	0.886815	0.159621	-0.066217
O11	O	1.220148	0.492955	0.267116
O12	O	1.553482	0.826288	0.600450
O13	O	0.900133	-0.006213	0.066394
O14	O	1.233466	0.327120	0.399727
O15	O	1.566800	0.660453	0.733060
O16	O	0.783252	0.081386	0.066363
O17	O	1.116586	0.414720	0.399696
O18	O	1.449919	0.748053	0.733030
O19	O	1.003680	0.072016	0.066390
O20	O	1.337014	0.405350	0.399724
O21	O	1.670347	0.738683	0.733057
Zn22	Zn	0.893464	0.076700	0.087426
Zn23	Zn	1.226797	0.410034	0.420759
Zn24	Zn	1.560131	0.743367	0.754093
Zn25	Zn	0.893484	0.076708	-0.087249
Zn26	Zn	1.226818	0.410041	0.246084
Zn27	Zn	1.560151	0.743374	0.579417
O28	O	0.886800	0.159616	0.066359
O29	O	1.220133	0.492949	0.399693
O30	O	1.553466	0.826283	0.733026
C31	C	0.755065	0.081053	0.000071
C32	C	1.088398	0.414387	0.333405
C33	C	1.421731	0.747720	0.666738
C34	C	0.671052	0.080046	0.000062
C35	C	1.004385	0.413379	0.333395
C36	C	1.337719	0.746713	0.666728
C37	C	0.899807	-0.027428	0.000108
C38	C	1.233141	0.305905	0.333441
C39	C	1.566474	0.639239	0.666775
C40	C	0.898805	-0.090650	0.000115
C41	C	1.232138	0.242684	0.333449
C42	C	1.565471	0.576017	0.666782
C43	C	0.622158	0.131465	0.000051
C44	C	0.955491	0.464799	0.333385
C45	C	1.288825	0.798132	0.666718
C46	C	0.543220	0.130515	0.000062
C47	C	0.876553	0.463849	0.333395
C48	C	1.209886	0.797182	0.666728
C49	C	0.513177	0.078146	0.000077
C50	C	0.846510	0.411479	0.333410
C51	C	1.179844	0.744812	0.666744
C52	C	0.562077	0.026723	0.000090
C53	C	0.895411	0.360056	0.333423
C54	C	1.228744	0.693389	0.666756
C55	C	0.641014	0.027673	0.000085
C56	C	0.974348	0.361006	0.333418
C57	C	1.307681	0.694340	0.666752
C58	C	0.243735	0.022889	0.000110
C59	C	0.577068	0.356222	0.333444
C60	C	0.910401	0.689555	0.666777
C61	C	0.164792	0.021942	0.000113
C62	C	0.498125	0.355275	0.333446
C63	C	0.831458	0.688609	0.666779
C64	C	0.145940	0.125731	0.000087
C65	C	0.479274	0.459064	0.333420
C66	C	0.812607	0.792398	0.666754
C67	C	0.224877	0.126681	0.000082
C68	C	0.558210	0.460015	0.333416
C69	C	0.891544	0.793348	0.666749
C70	C	0.273770	0.075259	0.000099
C71	C	0.607104	0.408592	0.333433
C72	C	0.940437	0.741925	0.666766
C73	C	0.359364	0.076289	0.000089
C74	C	0.692697	0.409622	0.333423
C75	C	1.026031	0.742956	0.666756
C76	C	0.427585	0.077115	0.000081
C77	C	0.760918	0.410448	0.333415
C78	C	1.094252	0.743781	0.666748
C79	C	0.892518	-0.482676	-0.072196
C80	C	1.225851	-0.149343	0.261137
C81	C	1.559185	0.183991	0.594471
C82	C	0.891565	-0.542078	-0.072201
C83	C	1.224898	-0.208745	0.261133
C84	C	1.558232	0.124588	0.594466
O85	O	0.891053	-0.572794	-0.133661
O86	O	1.224387	-0.239460	0.199672
O87	O	1.557720	0.093873	0.533005
N88	N	0.891084	-0.571794	0.000066
N89	N	1.224417	-0.238460	0.333399
N90	N	1.557750	0.094873	0.666732
C91	C	0.891548	-0.542103	0.072342
C92	C	1.224882	-0.208770	0.405675
C93	C	1.558215	0.124564	0.739008
O94	O	0.891051	-0.572833	0.133809
O95	O	1.224384	-0.239500	0.467143
O96	O	1.557718	0.093834	0.800476
C97	C	0.892496	-0.482701	0.072345
C98	C	1.225829	-0.149368	0.405679
C99	C	1.559163	0.183965	0.739012
C100	C	0.892985	-0.452990	0.000074
C101	C	1.226318	-0.119657	0.333408
C102	C	1.559651	0.213677	0.666741
C103	C	0.893006	-0.452964	-0.144461
C104	C	1.226339	-0.119631	0.188872
C105	C	1.559673	0.213702	0.522206
C106	C	0.893960	-0.393566	-0.144456
C107	C	1.227294	-0.060233	0.188877
C108	C	1.560627	0.273100	0.522210
C109	C	0.894427	-0.363880	-0.072186
C110	C	1.227760	-0.030547	0.261147
C111	C	1.561094	0.302787	0.594481
C112	C	0.893939	-0.393592	0.000079
C113	C	1.227273	-0.060259	0.333413
C114	C	1.560606	0.273075	0.666746
C115	C	0.892955	-0.453011	0.144620
C116	C	1.226288	-0.119678	0.477954
C117	C	1.559622	0.213655	0.811287
C118	C	0.893902	-0.393606	0.144618
C119	C	1.227236	-0.060272	0.477951
C120	C	1.560569	0.273061	0.811285
C121	C	0.894391	-0.363894	0.072347
C122	C	1.227724	-0.030561	0.405680
C123	C	1.561058	0.302773	0.739014
C124	C	0.895360	-0.304508	0.072354
C125	C	1.228694	0.028826	0.405688
C126	C	1.562027	0.362159	0.739021
N127	N	0.895842	-0.274792	0.000088
N128	N	1.229175	0.058541	0.333421
N129	N	1.562508	0.391874	0.666755
C130	C	0.895375	-0.304479	-0.072182
C131	C	1.228708	0.028855	0.261151
C132	C	1.562042	0.362188	0.594485
C133	C	0.889557	-0.666850	0.072328
C134	C	1.222890	-0.333517	0.405661
C135	C	1.556223	-0.000184	0.738995
C136	C	0.888614	-0.726252	0.072325
C137	C	1.221948	-0.392918	0.405658
C138	C	1.555281	-0.059585	0.738992
C139	C	0.888630	-0.726222	-0.072217
C140	C	1.221963	-0.392889	0.261116
C141	C	1.555296	-0.059556	0.594449
C142	C	0.889577	-0.666821	-0.072214
C143	C	1.222911	-0.333487	0.261120
C144	C	1.556244	-0.000154	0.594453
C145	C	0.890038	-0.637135	0.000062
C146	C	1.223371	-0.303802	0.333395
C147	C	1.556704	0.029532	0.666728
C148	C	0.897380	-0.179739	-0.072166
C149	C	1.230713	0.153595	0.261167
C150	C	1.564047	0.486928	0.594500
C151	C	0.898338	-0.120336	-0.072155
C152	C	1.231671	0.212998	0.261178
C153	C	1.565005	0.546331	0.594512
C154	C	0.898319	-0.120370	0.072387
C155	C	1.231652	0.212964	0.405720
C156	C	1.564985	0.546297	0.739054
C157	C	0.897365	-0.179768	0.072376
C158	C	1.230698	0.153566	0.405710
C159	C	1.564032	0.486899	0.739043
C160	C	0.896893	-0.209451	0.000093
C161	C	1.230226	0.123883	0.333426
C162	C	1.563560	0.457216	0.666760
O163	O	0.895869	-0.273754	0.133784
O164	O	1.229203	0.059579	0.467117
O165	O	1.562536	0.392912	0.800450
O166	O	0.895862	-0.273740	-0.133640
O167	O	1.229196	0.059593	0.199694
O168	O	1.562529	0.392926	0.533027
C169	C	1.031883	0.072355	0.000104
C170	C	1.365217	0.405688	0.333437
C171	C	1.698550	0.739021	0.666770
C172	C	1.115896	0.073362	0.000108
C173	C	1.449229	0.406695	0.333441
C174	C	1.782563	0.740029	0.666775
C175	C	0.887141	0.180836	0.000067
C176	C	1.220474	0.514169	0.333400
C177	C	1.553808	0.847503	0.666734
C178	C	0.888144	0.244058	0.000054
C179	C	1.221477	0.577391	0.333388
C180	C	1.554810	0.910724	0.666721
N181	N	0.893456	0.076695	0.206637
N182	N	1.226789	0.410029	0.539971
N183	N	1.560122	0.743362	0.873304
N184	N	0.893499	0.076708	-0.206461
N185	N	1.226832	0.410041	0.126873
N186	N	1.560165	0.743375	0.460206
C187	C	0.945226	0.037922	0.248368
C188	C	1.278559	0.371255	0.581701
C189	C	1.611893	0.704589	0.915035
C190	C	0.945230	0.037922	0.331820
C191	C	1.278564	0.371255	0.665153
C192	C	1.611897	0.704588	0.998487
C193	C	0.893467	0.076697	0.373540
C194	C	1.226800	0.410031	0.706873
C195	C	1.560134	0.743364	1.040207
C196	C	0.841691	0.115473	0.331803
C197	C	1.175025	0.448806	0.665137
C198	C	1.508358	0.782139	0.998470
C199	C	0.841684	0.115470	0.248353
C200	C	1.175017	0.448803	0.581686
C201	C	1.508351	0.782137	0.915019
C202	C	0.841718	0.115484	0.668351
C203	C	1.175052	0.448817	1.001684
C204	C	1.508385	0.782150	1.335017
C205	C	0.841731	0.115485	0.751807
C206	C	1.175065	0.448818	1.085141
C207	C	1.508398	0.782151	1.418474
C208	C	0.945265	0.037935	0.751818
C209	C	1.278598	0.371269	1.085151
C210	C	1.611931	0.704602	1.418485
C211	C	0.945258	0.037933	0.668367
C212	C	1.278591	0.371266	1.001701
C213	C	1.611924	0.704599	1.335034
C214	C	0.893479	0.076706	0.626638
C215	C	1.226813	0.410039	0.959971
C216	C	1.560146	0.743372	1.293305
C217	C	0.893474	0.076705	0.536150
C218	C	1.226808	0.410038	0.869483
C219	C	1.560141	0.743372	1.202816
C220	C	0.893475	0.076701	0.464027
C221	C	1.226808	0.410035	0.797360
C222	C	1.560142	0.743368	1.130694
H223	H	0.646612	0.174111	0.000038
H224	H	0.979945	0.507444	0.333372
H225	H	1.313279	0.840777	0.666705
H226	H	0.987381	0.006349	0.214405
H227	H	1.320714	0.339682	0.547738
H228	H	1.654047	0.673015	0.881072
N229	N	0.785889	0.157305	0.796803
N230	N	1.119223	0.490639	1.130136
N231	N	1.452556	0.823972	1.463470
H232	H	0.752562	0.135568	0.831441
H233	H	1.085895	0.468901	1.164774
H234	H	1.419229	0.802234	1.498107
H235	H	0.814667	0.182489	0.831367
H236	H	1.148000	0.515823	1.164700
H237	H	1.481333	0.849156	1.498034
N238	N	0.896855	-0.211816	0.150326
N239	N	1.230188	0.121517	0.483659
N240	N	1.563521	0.454850	0.816992
H241	H	0.943385	-0.241147	0.153548
H242	H	1.276718	0.092186	0.486882
H243	H	1.610052	0.425519	0.820215
H244	H	0.897274	-0.183953	0.196059
H245	H	1.230608	0.149380	0.529392
H246	H	1.563941	0.482714	0.862725
H247	H	0.503413	0.172386	0.000052
H248	H	0.836746	0.505719	0.333386
H249	H	1.170079	0.839053	0.666719
H250	H	0.987423	0.006363	0.785803
H251	H	1.320757	0.339696	1.119136
H252	H	1.654090	0.673029	1.452470
N253	N	1.001079	-0.003893	0.623365
N254	N	1.334413	0.329441	0.956698
N255	N	1.667746	0.662774	1.290032
H256	H	1.034416	0.017837	0.588727
H257	H	1.367749	0.351170	0.922060
H258	H	1.701083	0.684503	1.255394
H259	H	1.033825	-0.028449	0.662512
H260	H	1.367159	0.304884	0.995845
H261	H	1.700492	0.638217	1.329179
H262	H	0.249333	0.169326	0.000066
H263	H	0.582666	0.502659	0.333400
H264	H	0.915999	0.835993	0.666733
H265	H	0.106121	0.167602	0.000077
H266	H	0.439455	0.500935	0.333411
H267	H	0.772788	0.834268	0.666744
H268	H	0.892623	-0.477128	-0.203316
H269	H	1.225956	-0.143795	0.130018
H270	H	1.559290	0.189539	0.463351
N271	N	0.890070	-0.634841	0.150291
N272	N	1.223403	-0.301507	0.483624
N273	N	1.556736	0.031826	0.816958
H274	H	0.937389	-0.614881	0.153521
H275	H	1.270722	-0.281548	0.486854
H276	H	1.604056	0.051785	0.820188
H277	H	0.843508	-0.605540	0.153473
H278	H	1.176842	-0.272207	0.486806
H279	H	1.510175	0.061126	0.820140
H280	H	0.987385	0.006349	0.365797
H281	H	1.320718	0.339682	0.699130
H282	H	1.654052	0.673016	1.032464
N283	N	0.785871	0.157298	0.623349
N284	N	1.119204	0.490631	0.956682
N285	N	1.452538	0.823965	1.290015
H286	H	0.753083	0.181862	0.662443
H287	H	1.086416	0.515195	0.995777
H288	H	1.419750	0.848528	1.329110
H289	H	0.814637	0.182450	0.588706
H290	H	1.147970	0.515784	0.922040
H291	H	1.481304	0.849117	1.255373
N292	N	0.693749	-0.027788	0.000101
N293	N	1.027082	0.305545	0.333434
N294	N	1.360416	0.638879	0.666767
H295	H	0.684135	-0.050641	-0.049039
H296	H	1.017468	0.282692	0.284295
H297	H	1.350801	0.616025	0.617628
H298	H	0.748292	-0.019194	0.000129
H299	H	1.081625	0.314139	0.333462
H300	H	1.414958	0.647472	0.666796
H301	H	0.889974	-0.642633	-0.131063
H302	H	1.223307	-0.309300	0.202270
H303	H	1.556641	0.024033	0.535603
N304	N	0.898829	-0.088346	0.150333
N305	N	1.232162	0.244987	0.483666
N306	N	1.565496	0.578321	0.817000
H307	H	0.899505	-0.046208	0.139363
H308	H	1.232839	0.287125	0.472696
H309	H	1.566172	0.620459	0.806030
H310	H	0.851732	-0.094046	0.181885
H311	H	1.185065	0.239288	0.515218
H312	H	1.518398	0.572621	0.848552
H313	H	0.140335	-0.020706	0.000126
H314	H	0.473668	0.312627	0.333460
H315	H	0.807002	0.645961	0.666793
N316	N	0.785854	0.157292	0.376797
N317	N	1.119188	0.490626	0.710130
N318	N	1.452521	0.823959	1.043463
H319	H	0.793715	0.151412	0.435995
H320	H	1.127048	0.484746	0.769329
H321	H	1.460381	0.818079	1.102662
H322	H	0.794277	0.197687	0.362193
H323	H	1.127610	0.531020	0.695526
H324	H	1.460944	0.864354	1.028860
N325	N	0.785842	0.157286	0.203339
N326	N	1.119176	0.490620	0.536672
N327	N	1.452509	0.823953	0.870006
H328	H	0.753052	0.181852	0.242430
H329	H	1.086385	0.515185	0.575763
H330	H	1.419718	0.848518	0.909096
H331	H	0.814613	0.182437	0.168699
H332	H	1.147946	0.515770	0.502032
H333	H	1.481279	0.849104	0.835365
H334	H	0.283535	-0.018983	0.000125
H335	H	0.616868	0.314350	0.333458
H336	H	0.950202	0.647684	0.666792
H337	H	0.894266	-0.369438	0.203475
H338	H	1.227599	-0.036104	0.536808
H339	H	1.560932	0.297229	0.870141
N340	N	0.892429	-0.485048	0.222571
N341	N	1.225763	-0.151715	0.555904
N342	N	1.559096	0.181619	0.889238
H343	H	0.892864	-0.457219	0.268347
H344	H	1.226198	-0.123886	0.601680
H345	H	1.559531	0.209447	0.935013
H346	H	0.845107	-0.505008	0.225713
H347	H	1.178440	-0.171675	0.559046
H348	H	1.511774	0.161659	0.892379
H349	H	0.537611	-0.015918	0.000114
H350	H	0.870944	0.317416	0.333447
H351	H	1.204277	0.650749	0.666780
N352	N	0.898857	-0.088278	-0.150098
N353	N	1.232190	0.245056	0.183235
N354	N	1.565524	0.578389	0.516569
H355	H	0.945616	-0.103291	-0.181696
H356	H	1.278949	0.230043	0.151637
H357	H	1.612283	0.563376	0.484970
H358	H	0.851736	-0.093930	-0.181634
H359	H	1.185069	0.239404	0.151699
H360	H	1.518402	0.572737	0.485033
N361	N	0.896893	-0.211751	-0.150126
N362	N	1.230226	0.121583	0.183207
N363	N	1.563559	0.454916	0.516540
H364	H	0.897355	-0.183909	-0.195899
H365	H	1.230688	0.149425	0.137434
H366	H	1.564022	0.482758	0.470767
H367	H	0.943431	-0.241076	-0.153257
H368	H	1.276765	0.092258	0.180076
H369	H	1.610098	0.425591	0.513410
H370	H	0.894356	-0.369380	-0.203307
H371	H	1.227689	-0.036047	0.130026
H372	H	1.561022	0.297287	0.463360
H373	H	0.888228	-0.750439	0.131176
H374	H	1.221561	-0.417106	0.464509
H375	H	1.554895	-0.083772	0.797842
N376	N	0.888126	-0.758247	-0.150169
N377	N	1.221459	-0.424913	0.183164
N378	N	1.554793	-0.091580	0.516497
H379	H	0.887449	-0.800385	-0.139199
H380	H	1.220782	-0.467051	0.194134
H381	H	1.554115	-0.133718	0.527467
H382	H	0.841369	-0.743175	-0.181734
H383	H	1.174702	-0.409842	0.151599
H384	H	1.508035	-0.076508	0.484933
