data_functionalizedCrystal
_audit_creation_method	'MofGen! by Chris Wilmer'
_symmetry_space_group_name_H-M	'P1'
_symmetry_Int_Tables_number	1
_symmetry_cell_setting	triclinic
loop_
_symmetry_equiv_pos_as_xyz
  x,y,z
_cell_length_a	19.805407
_cell_length_b	19.805404
_cell_length_c	19.805399
_cell_angle_alpha	90.025147
_cell_angle_beta	89.982197
_cell_angle_gamma	89.971921
loop_
_atom_site_label
_atom_site_type_symbol
_atom_site_fract_x
_atom_site_fract_y
_atom_site_fract_z
Zn1	Zn	1.034715	0.269527	-0.382699
Zn2	Zn	1.368049	0.602861	-0.049366
Zn3	Zn	1.701382	0.936194	0.283968
Zn4	Zn	1.034621	0.382716	-0.269516
Zn5	Zn	1.367955	0.716049	0.063818
Zn6	Zn	1.701288	1.049382	0.397151
Zn7	Zn	0.921530	0.269541	-0.269527
Zn8	Zn	1.254863	0.602874	0.063806
Zn9	Zn	1.588196	0.936207	0.397139
Zn10	Zn	0.921485	0.382674	-0.382666
Zn11	Zn	1.254818	0.716008	-0.049333
Zn12	Zn	1.588151	1.049341	0.284001
O13	O	0.978088	0.326115	-0.326102
O14	O	1.311421	0.659448	0.007231
O15	O	1.644754	0.992781	0.340565
O16	O	1.129419	0.284554	-0.367694
O17	O	1.462753	0.617887	-0.034361
O18	O	1.796086	0.951220	0.298973
O19	O	1.019599	0.367726	-0.174801
O20	O	1.352933	0.701059	0.158533
O21	O	1.686266	1.034392	0.491866
O22	O	0.936602	0.174822	-0.284558
O23	O	1.269936	0.508156	0.048775
O24	O	1.603269	0.841489	0.382108
O25	O	1.129350	0.367713	-0.284539
O26	O	1.462684	0.701046	0.048795
O27	O	1.796017	1.034379	0.382128
O28	O	1.019759	0.174813	-0.367705
O29	O	1.353092	0.508146	-0.034372
O30	O	1.686426	0.841479	0.298961
O31	O	0.936511	0.284576	-0.174809
O32	O	1.269845	0.617910	0.158524
O33	O	1.603178	0.951243	0.491858
O34	O	0.826807	0.284536	-0.284526
O35	O	1.160141	0.617870	0.048807
O36	O	1.493474	0.951203	0.382140
O37	O	0.936525	0.367642	-0.477387
O38	O	1.269859	0.700976	-0.144054
O39	O	1.603192	1.034309	0.189280
O40	O	0.826774	0.367655	-0.367649
O41	O	1.160107	0.700989	-0.034315
O42	O	1.493441	1.034322	0.299018
O43	O	1.019715	0.284514	-0.477411
O44	O	1.353049	0.617847	-0.144078
O45	O	1.686382	0.951180	0.189255
O46	O	1.019555	0.477427	-0.284507
O47	O	1.352889	0.810760	0.048827
O48	O	1.686222	1.144094	0.382160
O49	O	0.936434	0.477397	-0.367638
O50	O	1.269768	0.810730	-0.034304
O51	O	1.603101	1.144063	0.299029
C52	C	0.802232	0.326093	-0.326086
C53	C	1.135565	0.659427	0.007248
C54	C	1.468898	0.992760	0.340581
C55	C	0.727000	0.326101	-0.326095
C56	C	1.060333	0.659434	0.007239
C57	C	1.393666	0.992767	0.340572
C58	C	0.691692	0.282876	-0.369459
C59	C	1.025025	0.616210	-0.036126
C60	C	1.358359	0.949543	0.297207
C61	C	0.621004	0.282880	-0.369462
C62	C	0.954337	0.616213	-0.036129
C63	C	1.287670	0.949547	0.297205
C64	C	0.585624	0.326112	-0.326103
C65	C	0.918958	0.659445	0.007231
C66	C	1.252291	0.992778	0.340564
C67	C	0.620937	0.369338	-0.282733
C68	C	0.954270	0.702671	0.050600
C69	C	1.287603	1.036005	0.383934
C70	C	0.691624	0.369330	-0.282728
C71	C	1.024957	0.702664	0.050606
C72	C	1.358291	1.035997	0.383939
C73	C	0.335864	0.369368	-0.282754
C74	C	0.669197	0.702702	0.050580
C75	C	1.002530	1.036035	0.383913
C76	C	0.265171	0.369374	-0.282764
C77	C	0.598505	0.702707	0.050569
C78	C	0.931838	1.036041	0.383903
C79	C	0.265243	0.282918	-0.369488
C80	C	0.598577	0.616251	-0.036155
C81	C	0.931910	0.949584	0.297178
C82	C	0.335930	0.282910	-0.369483
C83	C	0.669264	0.616244	-0.036149
C84	C	1.002597	0.949577	0.297184
C85	C	0.371237	0.326134	-0.326111
C86	C	0.704570	0.659467	0.007222
C87	C	1.037903	0.992800	0.340556
C88	C	0.447885	0.326128	-0.326108
C89	C	0.781219	0.659462	0.007226
C90	C	1.114552	0.992795	0.340559
C91	C	0.508977	0.326121	-0.326109
C92	C	0.842310	0.659454	0.007224
C93	C	1.175644	0.992787	0.340558
C94	C	0.977998	0.501971	-0.326082
C95	C	1.311332	0.835304	0.007251
C96	C	1.644665	1.168637	0.340585
C97	C	0.978022	0.577203	-0.326096
C98	C	1.311355	0.910536	0.007237
C99	C	1.644689	1.243869	0.340571
C100	C	1.021521	1.038987	-0.282935
C101	C	1.354854	1.372320	0.050398
C102	C	1.688187	1.705653	0.383732
C103	C	1.021490	0.968298	-0.282919
C104	C	1.354824	1.301632	0.050414
C105	C	1.688157	1.634965	0.383747
C106	C	0.978164	0.932964	-0.326159
C107	C	1.311498	1.266298	0.007175
C108	C	1.644831	1.599631	0.340508
C109	C	0.934861	0.968322	-0.369412
C110	C	1.268194	1.301656	-0.036078
C111	C	1.601527	1.634989	0.297255
C112	C	0.934888	1.039009	-0.369423
C113	C	1.268221	1.372343	-0.036090
C114	C	1.601555	1.705676	0.297243
C115	C	0.934749	0.683249	-0.369365
C116	C	1.268082	1.016582	-0.036031
C117	C	1.601415	1.349916	0.297302
C118	C	0.934726	0.612557	-0.369351
C119	C	1.268059	0.945890	-0.036018
C120	C	1.601393	1.279224	0.297316
C121	C	1.021351	0.612538	-0.282861
C122	C	1.354684	0.945871	0.050473
C123	C	1.688018	1.279205	0.383806
C124	C	1.021378	0.683225	-0.282872
C125	C	1.354712	1.016558	0.050461
C126	C	1.688045	1.349892	0.383794
C127	C	0.978073	0.718577	-0.326122
C128	C	1.311406	1.051910	0.007211
C129	C	1.644739	1.385244	0.340544
C130	C	0.978105	0.795225	-0.326138
C131	C	1.311438	1.128559	0.007195
C132	C	1.644772	1.461892	0.340529
C133	C	0.978135	0.856317	-0.326147
C134	C	1.311468	1.189650	0.007186
C135	C	1.644801	1.522984	0.340520
C136	C	1.154630	0.326136	-0.326119
C137	C	1.487964	0.659470	0.007214
C138	C	1.821297	0.992803	0.340548
C139	C	1.229862	0.326146	-0.326126
C140	C	1.563196	0.659479	0.007207
C141	C	1.896529	0.992812	0.340541
C142	C	0.978126	0.326072	-0.502645
C143	C	1.311459	0.659405	-0.169311
C144	C	1.644792	0.992739	0.164022
C145	C	0.978142	0.326054	-0.577877
C146	C	1.311475	0.659387	-0.244543
C147	C	1.644809	0.992720	0.088790
C148	C	0.978191	1.149572	-0.326145
C149	C	1.311524	1.482905	0.007188
C150	C	1.644858	1.816238	0.340521
C151	C	0.978222	1.074340	-0.326186
C152	C	1.311555	1.407673	0.007147
C153	C	1.644889	1.741006	0.340481
C154	C	1.021460	0.282767	-0.613235
C155	C	1.354793	0.616100	-0.279901
C156	C	1.688127	0.949433	0.053432
C157	C	1.021467	0.282747	-0.683923
C158	C	1.354800	0.616080	-0.350590
C159	C	1.688134	0.949414	-0.017257
C160	C	0.978159	0.326018	-0.719252
C161	C	1.311492	0.659352	-0.385919
C162	C	1.644825	0.992685	-0.052586
C163	C	0.934836	0.369308	-0.683890
C164	C	1.268169	0.702641	-0.350556
C165	C	1.601503	1.035974	-0.017223
C166	C	0.934826	0.369323	-0.613202
C167	C	1.268159	0.702657	-0.279869
C168	C	1.601493	1.035990	0.053464
C169	C	0.934874	0.369244	-0.968963
C170	C	1.268208	0.702578	-0.635630
C171	C	1.601541	1.035911	-0.302296
C172	C	0.934889	0.369227	-1.039655
C173	C	1.268222	0.702560	-0.706322
C174	C	1.601556	1.035894	-0.372988
C175	C	1.021515	0.282668	-1.039684
C176	C	1.354848	0.616001	-0.706351
C177	C	1.688182	0.949335	-0.373017
C178	C	1.021505	0.282684	-0.968997
C179	C	1.354838	0.616017	-0.635663
C180	C	1.688172	0.949350	-0.302330
C181	C	0.978180	0.325970	-0.933640
C182	C	1.311513	0.659303	-0.600307
C183	C	1.644847	0.992637	-0.266973
C184	C	0.978172	0.325990	-0.856991
C185	C	1.311506	0.659323	-0.523658
C186	C	1.644839	0.992657	-0.190325
C187	C	0.978170	0.326002	-0.795900
C188	C	1.311503	0.659336	-0.462566
C189	C	1.644836	0.992669	-0.129233
C190	C	0.978089	0.326108	-0.150246
C191	C	1.311422	0.659442	0.183087
C192	C	1.644756	0.992775	0.516421
C193	C	0.978204	0.325936	-0.075014
C194	C	1.311537	0.659269	0.258319
C195	C	1.644871	0.992602	0.591652
H196	H	0.720493	0.247674	-0.404769
H197	H	1.053826	0.581007	-0.071436
H198	H	1.387160	0.914340	0.261897
H199	H	0.899580	0.939549	-0.404616
H200	H	1.232913	1.272882	-0.071282
H201	H	1.566247	1.606216	0.262051
H202	H	1.056661	0.711991	-0.247665
H203	H	1.389995	1.045324	0.085669
H204	H	1.723328	1.378657	0.419002
H205	H	1.056729	0.247532	-0.584475
H206	H	1.390062	0.580865	-0.251141
H207	H	1.723395	0.914198	0.082192
H208	H	0.899633	1.067793	-0.404646
H209	H	1.232966	1.401126	-0.071313
H210	H	1.566300	1.734459	0.262020
H211	H	1.056806	1.067751	-0.247728
H212	H	1.390139	1.401084	0.085606
H213	H	1.723472	1.734417	0.418939
H214	H	1.056773	0.247450	-0.940235
H215	H	1.390107	0.580783	-0.606902
H216	H	1.723440	0.914117	-0.273568
H217	H	1.056790	0.247420	-1.068480
H218	H	1.390123	0.580753	-0.735146
H219	H	1.723457	0.914086	-0.401813
H220	H	1.056747	0.939514	-0.247700
H221	H	1.390080	1.272848	0.085633
H222	H	1.723414	1.606181	0.418966
H223	H	1.056611	0.583747	-0.247642
H224	H	1.389944	0.917080	0.085692
H225	H	1.723278	1.250414	0.419025
H226	H	1.056742	0.247500	-0.712709
H227	H	1.390076	0.580833	-0.379375
H228	H	1.723409	0.914166	-0.046042
H229	H	0.899442	0.583789	-0.404563
H230	H	1.232775	0.917122	-0.071230
H231	H	1.566109	1.250456	0.262104
H232	H	0.592259	0.247684	-0.404775
H233	H	0.925593	0.581017	-0.071442
H234	H	1.258926	0.914350	0.261891
H235	H	0.899619	0.404465	-1.068418
H236	H	1.232953	0.737798	-0.735085
H237	H	1.566286	1.071132	-0.401752
H238	H	0.899571	0.404538	-0.712660
H239	H	1.232905	0.737871	-0.379327
H240	H	1.566238	1.071204	-0.045994
H241	H	0.899481	0.712024	-0.404577
H242	H	1.232815	1.045357	-0.071243
H243	H	1.566148	1.378691	0.262090
H244	H	0.899545	0.404565	-0.584415
H245	H	1.232879	0.737899	-0.251081
H246	H	1.566212	1.071232	0.082252
H247	H	0.236488	0.247721	-0.404801
H248	H	0.569822	0.581054	-0.071468
H249	H	0.903155	0.914387	0.261865
H250	H	0.364733	0.247709	-0.404793
H251	H	0.698066	0.581042	-0.071459
H252	H	1.031400	0.914375	0.261874
H253	H	0.236367	0.404580	-0.247453
H254	H	0.569701	0.737913	0.085880
H255	H	0.903034	1.071247	0.419213
H256	H	0.364601	0.404564	-0.247438
H257	H	0.697935	0.737897	0.085895
H258	H	1.031268	1.071231	0.419228
H259	H	0.592125	0.404535	-0.247426
H260	H	0.925459	0.737868	0.085907
H261	H	1.258792	1.071201	0.419241
H262	H	0.720371	0.404528	-0.247415
H263	H	1.053704	0.737861	0.085918
H264	H	1.387037	1.071194	0.419252
H265	H	0.899606	0.404501	-0.940184
H266	H	1.232940	0.737834	-0.606851
H267	H	1.566273	1.071167	-0.273517
