data_functionalizedCrystal
_audit_creation_method	'MofGen! by Chris Wilmer'
_symmetry_space_group_name_H-M	'P1'
_symmetry_Int_Tables_number	1
_symmetry_cell_setting	triclinic
loop_
_symmetry_equiv_pos_as_xyz
  x,y,z
_cell_length_a	19.077236
_cell_length_b	14.908178
_cell_length_c	19.076919
_cell_angle_alpha	91.159747
_cell_angle_beta	90.112677
_cell_angle_gamma	95.467067
loop_
_atom_site_label
_atom_site_type_symbol
_atom_site_fract_x
_atom_site_fract_y
_atom_site_fract_z
Zn1	Zn	1.044195	-0.327444	0.425224
Zn2	Zn	1.042613	-0.472002	0.300956
Zn3	Zn	0.931431	-0.326971	0.303027
Zn4	Zn	0.919914	-0.484036	0.413131
O5	O	0.984538	-0.402613	0.360584
O6	O	1.142528	-0.341781	0.412934
O7	O	1.032022	-0.447529	0.203144
O8	O	0.951872	-0.200803	0.325164
O9	O	1.141364	-0.447988	0.321635
O10	O	1.034720	-0.201150	0.414943
O11	O	0.950338	-0.340975	0.204666
O12	O	0.831362	-0.352644	0.313438
O13	O	0.932242	-0.468498	0.512821
O14	O	0.822900	-0.468040	0.394331
O15	O	1.023552	-0.353450	0.521706
O16	O	1.020854	-0.599829	0.309908
O17	O	0.930707	-0.608671	0.392322
C18	C	0.801580	-0.411597	0.352797
C19	C	0.723308	-0.415463	0.349481
C20	C	0.687134	-0.362079	0.395522
C21	C	0.613590	-0.365706	0.392401
C22	C	0.576219	-0.422724	0.343241
C23	C	0.612398	-0.476111	0.297195
C24	C	0.685941	-0.472478	0.300314
C25	C	0.356204	-0.439505	0.328807
C26	C	0.282655	-0.443136	0.325693
C27	C	0.283852	-0.332730	0.420898
C28	C	0.357397	-0.329106	0.424015
C29	C	0.393569	-0.382489	0.377967
N30	N	0.501045	-0.426436	0.340051
N31	N	0.468742	-0.378772	0.381155
C32	C	0.974377	-0.636980	0.349594
C33	C	0.970094	-0.737241	0.344919
C34	C	1.048241	-0.925863	0.429712
C35	C	1.044219	-1.020068	0.425322
C36	C	0.958023	-1.019857	0.331751
C37	C	0.962046	-0.925652	0.336142
C38	C	1.007157	-0.878659	0.385123
C39	C	1.011183	-0.784452	0.389510
C40	C	0.924984	-0.784243	0.295943
C41	C	0.920962	-0.878448	0.291552
C42	C	1.168211	-0.393595	0.368402
C43	C	1.246482	-0.389752	0.371734
C44	C	0.976789	-0.412369	0.543407
C45	C	0.973486	-0.416527	0.621315
C46	C	0.994757	-0.167331	0.371634
C47	C	0.999112	-0.067068	0.376342
C48	C	0.992301	-0.392828	0.178477
C49	C	0.995751	-0.388409	0.100587
C50	C	1.019472	-0.358584	0.662544
C51	C	1.016361	-0.362487	0.735747
C52	C	0.967266	-0.424339	0.767720
C53	C	0.921276	-0.482285	0.726486
C54	C	0.924384	-0.478376	0.653284
C55	C	0.952869	-0.442447	0.986152
C56	C	0.949765	-0.446353	1.059359
C57	C	1.044850	-0.326553	1.068615
C58	C	1.047957	-0.322654	0.995411
C59	C	1.001964	-0.380597	0.954184
N60	N	0.964086	-0.428332	0.842545
N61	N	1.005141	-0.376598	0.879361
H62	H	0.584141	-0.322237	0.429894
H63	H	0.387819	-0.282680	0.464049
H64	H	1.077670	-1.058498	0.461634
O65	O	0.721154	-0.524383	0.255690
C66	C	0.799293	-0.641573	0.243915
C67	C	0.759467	-0.582836	0.294533
H68	H	0.830267	-0.688859	0.275299
H69	H	0.837108	-0.596477	0.210733
H70	H	0.759942	-0.682909	0.208229
H71	H	0.798765	-0.541491	0.330263
H72	H	0.721641	-0.627981	0.327665
H73	H	1.053809	-0.315305	0.769312
O74	O	0.248607	-0.280902	0.465551
C75	C	0.135838	-0.237601	0.502970
C76	C	0.175664	-0.296334	0.452349
H77	H	0.076855	-0.250071	0.492323
H78	H	0.153911	-0.163457	0.494774
H79	H	0.147266	-0.255840	0.559329
H80	H	0.164254	-0.278174	0.395970
H81	H	0.157586	-0.370462	0.460605
O82	O	0.885150	-0.738418	0.252526
C83	C	0.857332	-0.705054	0.133152
C84	C	0.902494	-0.756985	0.182242
H85	H	0.871327	-0.720062	0.076316
H86	H	0.867963	-0.629637	0.144641
H87	H	0.799228	-0.727068	0.142162
H88	H	0.960612	-0.735047	0.173259
H89	H	0.891802	-0.832392	0.170742
O90	O	0.879790	-0.534796	0.613257
C91	C	0.839882	-0.688723	0.582217
C92	C	0.890433	-0.624929	0.627578
H93	H	0.848459	-0.761608	0.593790
H94	H	0.850542	-0.675379	0.524396
H95	H	0.783181	-0.676400	0.594920
H96	H	0.947152	-0.637214	0.614936
H97	H	0.879712	-0.638287	0.685386
O98	O	1.095667	-0.262488	0.964469
C99	C	1.189677	-0.144112	0.981376
C100	C	1.135666	-0.212189	1.016510
H101	H	1.222041	-0.103440	1.023435
H102	H	1.160887	-0.096641	0.947965
H103	H	1.226123	-0.181906	0.946709
H104	H	1.099206	-0.174470	1.051211
H105	H	1.164502	-0.259658	1.049878
H106	H	1.082294	-0.279379	1.102190
H107	H	0.909784	-0.496722	1.085389
O108	O	0.873646	-0.542340	0.757655
C109	C	0.826688	-0.601419	0.866321
C110	C	0.880673	-0.533376	0.831116
H111	H	0.832341	-0.594182	0.925720
H112	H	0.836502	-0.672803	0.849089
H113	H	0.771216	-0.587602	0.850210
H114	H	0.936167	-0.547110	0.847210
H115	H	0.870798	-0.462014	0.848348
H116	H	0.252230	-0.489571	0.285660
O117	O	0.391223	-0.491451	0.284048
C118	C	0.382271	-0.601300	0.189259
C119	C	0.342519	-0.542533	0.239921
H120	H	0.342912	-0.642600	0.153559
H121	H	0.413286	-0.648605	0.220582
H122	H	0.420057	-0.556143	0.156096
H123	H	0.304697	-0.587620	0.273095
H124	H	0.311550	-0.495221	0.208556
H125	H	0.717556	-0.315651	0.435556
O126	O	1.091978	-0.880256	0.477384
C127	C	1.122264	-0.856048	0.599438
C128	C	1.072674	-0.907745	0.545525
H129	H	1.106685	-0.878268	0.654541
H130	H	1.118074	-0.780603	0.594977
H131	H	1.178787	-0.871047	0.588699
H132	H	1.016130	-0.892821	0.556229
H133	H	1.076926	-0.983176	0.549998
O134	O	1.067185	-0.298420	0.631602
C135	C	1.161192	-0.180041	0.648517
C136	C	1.107181	-0.248123	0.683646
H137	H	1.193553	-0.139370	0.690578
H138	H	1.132402	-0.132570	0.615106
H139	H	1.197640	-0.217831	0.613849
H140	H	1.070718	-0.210407	0.718347
H141	H	1.136017	-0.295591	0.717014
H142	H	0.915427	-0.489641	0.952593
H143	H	1.047916	-0.746191	0.429391
H144	H	0.884232	-0.916723	0.251675
O145	O	0.914268	-1.065651	0.284191
C146	C	0.869847	-1.210694	0.235991
C147	C	0.919439	-1.158943	0.289875
H148	H	0.874000	-1.286130	0.240578
H149	H	0.885451	-1.188632	0.180855
H150	H	0.813332	-1.195625	0.246682
H151	H	0.975969	-1.173987	0.279249
H152	H	0.903775	-1.181011	0.344993
H153	H	0.581965	-0.522531	0.257165
