data_functionalizedCrystal
_audit_creation_method	'MofGen! by Chris Wilmer'
_symmetry_space_group_name_H-M	'P1'
_symmetry_Int_Tables_number	1
_symmetry_cell_setting	triclinic
loop_
_symmetry_equiv_pos_as_xyz
  x,y,z
_cell_length_a	14.908520
_cell_length_b	14.908779
_cell_length_c	14.908308
_cell_angle_alpha	96.758236
_cell_angle_beta	83.639235
_cell_angle_gamma	90.163414
loop_
_atom_site_label
_atom_site_type_symbol
_atom_site_fract_x
_atom_site_fract_y
_atom_site_fract_z
Zn1	Zn	-0.462183	-1.325899	0.460117
Zn2	Zn	0.037817	-0.825899	0.960117
Zn3	Zn	-0.604822	-1.325796	0.317493
Zn4	Zn	-0.104822	-0.825796	0.817493
Zn5	Zn	-0.445762	-1.184281	0.316513
Zn6	Zn	0.054238	-0.684281	0.816513
Zn7	Zn	-0.604768	-1.165773	0.477546
Zn8	Zn	-0.104768	-0.665773	0.977546
O9	O	-0.529384	-1.250437	0.392918
O10	O	-0.029384	-0.750437	0.892918
O11	O	-0.487999	-1.452123	0.434314
O12	O	0.012001	-0.952123	0.934314
O13	O	-0.576873	-1.314727	0.190282
O14	O	-0.076873	-0.814727	0.690282
O15	O	-0.321700	-1.210855	0.327859
O16	O	0.178300	-0.710855	0.827859
O17	O	-0.592796	-1.452048	0.329529
O18	O	-0.092796	-0.952048	0.829529
O19	O	-0.333764	-1.314901	0.433364
O20	O	0.166236	-0.814901	0.933364
O21	O	-0.460012	-1.210755	0.189562
O22	O	0.039988	-0.710755	0.689562
O23	O	-0.459960	-1.055588	0.344759
O24	O	0.040040	-0.555588	0.844759
O25	O	-0.592704	-1.179312	0.602316
O26	O	-0.092704	-0.679312	1.102316
O27	O	-0.576781	-1.041990	0.463069
O28	O	-0.076781	-0.541990	0.963069
O29	O	-0.487946	-1.296955	0.589511
O30	O	0.012054	-0.796955	1.089511
O31	O	-0.731055	-1.296781	0.346429
O32	O	-0.231055	-0.796781	0.846429
O33	O	-0.731015	-1.179212	0.464019
O34	O	-0.231015	-0.679212	0.964019
C35	C	-0.516583	-1.016057	0.405699
C36	C	-0.016583	-0.516057	0.905699
C37	C	-0.511130	-0.915785	0.411190
C38	C	-0.011130	-0.415785	0.911190
C39	C	-0.609840	-0.727304	0.312209
C40	C	-0.109840	-0.227304	0.812209
C41	C	-0.604719	-0.633090	0.317365
C42	C	-0.104719	-0.133090	0.817365
C43	C	-0.495773	-0.633140	0.426665
C44	C	0.004227	-0.133140	0.926665
C45	C	-0.500894	-0.727354	0.421508
C46	C	-0.000894	-0.227354	0.921508
C47	C	-0.557928	-0.774433	0.364277
C48	C	-0.057928	-0.274433	0.864277
C49	C	-0.563044	-0.868650	0.359116
C50	C	-0.063044	-0.368650	0.859116
C51	C	-0.454103	-0.868697	0.468420
C52	C	0.045897	-0.368697	0.968420
C53	C	-0.448982	-0.774483	0.473576
C54	C	0.051018	-0.274483	0.973576
C55	C	-0.763770	-1.236000	0.407240
C56	C	-0.263770	-0.736000	0.907240
C57	C	-0.864048	-1.229905	0.413393
C58	C	-0.364048	-0.729905	0.913393
C59	C	-1.052472	-1.340988	0.302596
C60	C	-0.552472	-0.840988	0.802596
C61	C	-1.146692	-1.335264	0.308374
C62	C	-0.646692	-0.835264	0.808374
C63	C	-1.146710	-1.212738	0.430731
C64	C	-0.646710	-0.712738	0.930731
C65	C	-1.052490	-1.218462	0.424953
C66	C	-0.552490	-0.718462	0.924953
C67	C	-1.005374	-1.282588	0.360882
C68	C	-0.505374	-0.782588	0.860882
C69	C	-0.911152	-1.288307	0.355100
C70	C	-0.411152	-0.788307	0.855100
C71	C	-0.911172	-1.165786	0.477461
C72	C	-0.411172	-0.665786	0.977461
C73	C	-1.005392	-1.160062	0.483240
C74	C	-0.505392	-0.660062	0.983240
C75	C	-0.294084	-1.264954	0.378558
C76	C	0.205916	-0.764954	0.878558
C77	C	-0.193814	-1.271140	0.372439
C78	C	0.306186	-0.771140	0.872439
C79	C	-0.542151	-1.236080	0.629785
C80	C	-0.042151	-0.736080	1.129785
C81	C	-0.547591	-1.229962	0.730724
C82	C	-0.047591	-0.729962	1.230724
C83	C	-0.542229	-0.485734	0.380079
C84	C	-0.042229	0.014266	0.880079
C85	C	-0.547686	-0.586005	0.374590
C86	C	-0.047686	-0.086005	0.874590
C87	C	-0.516604	-1.264794	0.156964
C88	C	-0.016604	-0.764794	0.656964
C89	C	-0.510919	-1.271102	0.056001
C90	C	-0.010919	-0.771102	0.556001
C91	C	-0.448710	-1.340967	0.907066
C92	C	0.051290	-0.840967	1.407066
C93	C	-0.453819	-1.335222	1.001907
C94	C	0.046181	-0.835222	1.501907
C95	C	-0.562913	-1.212723	1.015248
C96	C	-0.062913	-0.712723	1.515248
C97	C	-0.557804	-1.218468	0.920407
C98	C	-0.057804	-0.718468	1.420407
C99	C	-0.500701	-1.282593	0.866319
C100	C	-0.000701	-0.782593	1.366319
C101	C	-0.495598	-1.288342	0.771477
C102	C	0.004402	-0.788342	1.271477
C103	C	-0.604686	-1.165840	0.784820
C104	C	-0.104686	-0.665840	1.284820
C105	C	-0.609795	-1.160094	0.879661
C106	C	-0.109795	-0.660094	1.379661
H107	H	-0.402549	-0.736138	0.520175
H108	H	0.097451	-0.236138	1.020175
C109	C	-0.661878	-1.101625	0.739997
C110	C	-0.161878	-0.601625	1.239997
H111	H	-0.650656	-1.114226	0.675767
H112	H	-0.150656	-0.614226	1.175767
H113	H	-0.724048	-1.110149	0.758524
H114	H	-0.224048	-0.610149	1.258524
H115	H	-0.646200	-1.040882	0.758039
H116	H	-0.146200	-0.540882	1.258039
H117	H	-1.185088	-1.160535	0.482900
H118	H	-0.685088	-0.660535	0.982900
H119	H	-0.646993	-0.594721	0.274967
H120	H	-0.146993	-0.094721	0.774967
C121	C	-1.057223	-1.089525	0.553707
C122	C	-0.557223	-0.589525	1.053707
H123	H	-1.120083	-1.094475	0.548798
H124	H	-0.620083	-0.594475	1.048798
H125	H	-1.045755	-1.099908	0.613071
H126	H	-0.545755	-0.599908	1.113071
H127	H	-1.037815	-1.030667	0.542712
H128	H	-0.537815	-0.530667	1.042712
C129	C	-0.433042	-0.581343	0.489611
C130	C	0.066958	-0.081343	0.989611
H131	H	-0.437427	-0.518484	0.485219
H132	H	0.062573	-0.018484	0.985219
H133	H	-0.450458	-0.592281	0.550574
H134	H	0.049542	-0.092281	1.050574
H135	H	-0.372532	-0.601302	0.471860
H136	H	0.127468	-0.101302	0.971860
H137	H	-0.411828	-0.907080	0.510813
H138	H	0.088172	-0.407080	1.010813
H139	H	-0.449104	-1.340558	0.727440
H140	H	0.050896	-0.840558	1.227440
H141	H	-1.014109	-1.393196	0.250420
H142	H	-0.514109	-0.893196	0.750420
C143	C	-0.625786	-0.920435	0.296173
C144	C	-0.125786	-0.420435	0.796173
H145	H	-0.655977	-0.878868	0.265911
H146	H	-0.155977	-0.378868	0.765911
H147	H	-0.591094	-0.961703	0.252533
H148	H	-0.091094	-0.461703	0.752533
H149	H	-0.669012	-0.952669	0.331255
H150	H	-0.169012	-0.452669	0.831255
C151	C	-0.859326	-1.358845	0.284630
C152	C	-0.359326	-0.858845	0.784630
H153	H	-0.900875	-1.392812	0.250751
H154	H	-0.400875	-0.892812	0.750751
H155	H	-0.818600	-1.329007	0.244657
H156	H	-0.318600	-0.829007	0.744657
H157	H	-0.826544	-1.398250	0.315013
H158	H	-0.326544	-0.898250	0.815013
C159	C	-0.859363	-1.101546	0.541582
C160	C	-0.359363	-0.601546	1.041582
H161	H	-0.796501	-1.114141	0.528970
H162	H	-0.296501	-0.614141	1.028970
H163	H	-0.870840	-1.040813	0.532496
H164	H	-0.370840	-0.540813	1.032496
H165	H	-0.878777	-1.110068	0.602841
H166	H	-0.378777	-0.610068	1.102841
C167	C	-1.198496	-1.399499	0.244255
C168	C	-0.698496	-0.899499	0.744255
H169	H	-1.156938	-1.438503	0.205267
H170	H	-0.656938	-0.938503	0.705267
H171	H	-1.239223	-1.434437	0.279134
H172	H	-0.739223	-0.934437	0.779134
H173	H	-1.231277	-1.365182	0.208789
H174	H	-0.731277	-0.865182	0.708789
C175	C	-0.385901	-1.411498	0.847567
C176	C	0.114099	-0.911498	1.347567
H177	H	-0.355664	-1.445439	0.885419
H178	H	0.144336	-0.945439	1.385419
H179	H	-0.420559	-1.450916	0.810528
H180	H	0.079441	-0.950916	1.310528
H181	H	-0.342714	-1.381645	0.810058
H182	H	0.157286	-0.881645	1.310058
C183	C	-0.625716	-1.142189	1.074750
C184	C	-0.125716	-0.642189	1.574750
H185	H	-0.655947	-1.108239	1.036902
H186	H	-0.155947	-0.608239	1.536902
H187	H	-0.668894	-1.172031	1.112270
H188	H	-0.168894	-0.672031	1.612270
H189	H	-0.591044	-1.102767	1.111779
H190	H	-0.091044	-0.602767	1.611779
H191	H	-0.656274	-0.765638	0.265603
H192	H	-0.156274	-0.265638	0.765603
C193	C	-0.396633	-1.399437	1.046725
C194	C	0.103367	-0.899437	1.546725
H195	H	-0.361901	-1.438452	1.000926
H196	H	0.138099	-0.938452	1.500926
H197	H	-0.357437	-1.365113	1.083208
H198	H	0.142563	-0.865113	1.583208
H199	H	-0.435287	-1.434378	1.083682
H200	H	0.064713	-0.934378	1.583682
C201	C	-0.672606	-1.089563	0.939158
C202	C	-0.172606	-0.589563	1.439158
H203	H	-0.702835	-1.055618	0.901304
H204	H	-0.202835	-0.555618	1.401304
H205	H	-0.715785	-1.119408	0.976674
H206	H	-0.215785	-0.619408	1.476674
H207	H	-0.637941	-1.050136	0.976190
H208	H	-0.137941	-0.550136	1.476190
