data_functionalizedCrystal
_audit_creation_method	'MofGen! by Chris Wilmer'
_symmetry_space_group_name_H-M	'P1'
_symmetry_Int_Tables_number	1
_symmetry_cell_setting	triclinic
loop_
_symmetry_equiv_pos_as_xyz
  x,y,z
_cell_length_a	11.026607
_cell_length_b	10.540539
_cell_length_c	10.065875
_cell_angle_alpha	98.880198
_cell_angle_beta	79.302338
_cell_angle_gamma	96.555754
loop_
_atom_site_label
_atom_site_type_symbol
_atom_site_fract_x
_atom_site_fract_y
_atom_site_fract_z
O1	O	1.632406	0.517971	-0.113482
O2	O	1.278575	0.457324	-0.113485
O3	O	1.463562	0.304709	-0.113482
O4	O	1.447418	0.670585	-0.113485
O5	O	1.428289	0.333960	0.113506
O6	O	1.243301	0.486575	0.113503
O7	O	1.597132	0.547222	0.113506
Zn8	Zn	1.414616	0.521543	0.149544
Zn9	Zn	1.461091	0.483003	-0.149523
O10	O	1.412145	0.699836	0.113503
C11	C	1.215630	0.460761	0.000009
C12	C	1.080627	0.427408	0.000007
C13	C	1.444715	0.271766	0.000010
C14	C	1.441094	0.130024	0.000002
C15	C	1.007620	0.519500	0.000005
C16	C	0.868087	0.485031	0.000004
C17	C	1.302369	-0.083873	-0.000508
C18	C	1.305961	0.063616	0.000003
C19	C	1.485983	0.099314	0.129624
C20	C	1.481354	-0.048226	0.129734
C21	C	1.524215	-0.081406	-0.128394
C22	C	1.525726	0.065627	-0.130108
C23	C	1.660077	0.543784	0.000010
C24	C	1.795082	0.577136	0.000002
C25	C	1.430992	0.732779	0.000008
C26	C	1.434615	0.874520	0.000007
N27	N	1.382908	0.547846	0.353649
N28	N	1.492809	0.456692	-0.353628
C29	C	1.450050	0.492145	0.421429
C30	C	1.425656	0.512401	0.578596
H31	H	1.048415	0.623863	0.000012
H32	H	1.039837	0.323041	-0.000027
C33	C	1.552104	0.407461	0.342655
H34	H	1.591060	0.375134	0.405560
H35	H	1.611854	0.457529	0.286896
H36	H	1.516349	0.337454	0.286927
H37	H	1.621956	-0.107365	-0.129265
H38	H	1.269230	0.083037	-0.092915
C39	C	1.594867	0.372003	0.567607
H40	H	1.633821	0.339677	0.630514
H41	H	1.654619	0.422069	0.511847
H42	H	1.559113	0.301995	0.511879
H43	H	0.835869	0.681507	0.000010
C44	C	1.249753	-0.154498	-0.126066
H45	H	1.307960	-0.209999	-0.179298
H46	H	1.234237	-0.093177	-0.179447
H47	H	1.174605	-0.203921	-0.096908
H48	H	1.307360	0.610524	0.411974
C49	C	1.211144	-0.124301	0.124364
H50	H	1.253302	-0.166422	0.176814
H51	H	1.145459	-0.181419	0.094563
H52	H	1.178409	-0.049988	0.178773
H53	H	1.418236	-0.074467	0.226628
H54	H	1.350104	0.575083	0.636915
H55	H	1.239969	0.106079	0.093075
H56	H	1.495746	-0.135199	-0.226639
C57	C	1.660467	0.126127	-0.140684
H58	H	1.666902	0.191738	-0.065546
H59	H	1.684010	0.162395	-0.223414
H60	H	1.713618	0.061567	-0.139582
C61	C	0.812994	0.344036	-0.000002
H62	H	0.726442	0.339363	-0.000014
H63	H	0.826969	0.313076	0.079150
H64	H	0.851573	0.292689	-0.079172
H65	H	1.577626	-0.074149	0.135615
H66	H	1.584472	0.144027	0.134445
C67	C	1.404699	0.160263	0.259936
H68	H	1.343373	0.204447	0.235626
H69	H	1.454954	0.219388	0.312385
H70	H	1.365594	0.094538	0.312180
H71	H	1.493044	0.083706	-0.225999
