data_functionalizedCrystal
_audit_creation_method	'MofGen! by Chris Wilmer'
_symmetry_space_group_name_H-M	'P1'
_symmetry_Int_Tables_number	1
_symmetry_cell_setting	triclinic
loop_
_symmetry_equiv_pos_as_xyz
  x,y,z
_cell_length_a	18.101395
_cell_length_b	17.639504
_cell_length_c	17.640968
_cell_angle_alpha	109.667320
_cell_angle_beta	78.768302
_cell_angle_gamma	78.786041
loop_
_atom_site_label
_atom_site_type_symbol
_atom_site_fract_x
_atom_site_fract_y
_atom_site_fract_z
Zn1	Zn	0.097907	-1.354409	-0.721271
Zn2	Zn	-0.057352	-1.326408	-0.583410
Zn3	Zn	0.035148	-1.188685	-0.555533
Zn4	Zn	-0.057276	-1.216498	-0.693291
O5	O	0.004607	-1.271500	-0.638376
O6	O	0.103544	-1.466049	-0.726360
O7	O	-0.071378	-1.284781	-0.464364
O8	O	0.147129	-1.210748	-0.577562
O9	O	-0.010524	-1.445477	-0.625074
O10	O	0.193238	-1.332505	-0.699329
O11	O	-0.003419	-1.183597	-0.443883
O12	O	-0.003344	-1.077021	-0.550431
O13	O	-0.010394	-1.258150	-0.812351
O14	O	-0.071248	-1.097454	-0.651641
O15	O	0.103618	-1.359473	-0.832908
O16	O	-0.160998	-1.311750	-0.597943
O17	O	-0.160942	-1.230999	-0.678672
C18	C	-0.044098	-1.057327	-0.594975
C19	C	-0.064948	-0.965707	-0.576427
C20	C	-0.187838	-1.271380	-0.638319
C21	C	-0.270143	-1.271409	-0.638337
C22	C	-0.420822	-1.271510	-0.638389
C23	C	-0.452190	-1.220661	-0.689126
C24	C	-0.537692	-1.220956	-0.689443
C25	C	-0.569176	-1.271609	-0.638440
C26	C	-0.512906	-1.363240	-0.679409
C27	C	-0.427256	-1.362907	-0.679767
C28	C	-0.477401	-1.231477	-0.546687
C29	C	-0.563367	-1.229711	-0.546792
C30	C	-0.653019	-1.271669	-0.638468
C31	C	-0.336978	-1.271456	-0.638363
C32	C	0.163112	-0.717981	-0.779471
C33	C	0.143498	-0.631887	-0.762026
C34	C	0.024842	-0.610456	-0.656405
C35	C	0.044444	-0.696551	-0.673844
C36	C	0.113580	-0.750307	-0.735377
C37	C	-0.005088	-0.728877	-0.629750
C38	C	0.014515	-0.814964	-0.647185
C39	C	0.083649	-0.868725	-0.708714
C40	C	0.133183	-0.836394	-0.752812
C41	C	-0.074221	-0.675119	-0.568213
C42	C	-0.123753	-0.707445	-0.524119
C43	C	-0.104153	-0.793534	-0.541557
C44	C	-0.035019	-0.847295	-0.603086
C45	C	-0.153687	-0.825864	-0.497459
C46	C	-0.134085	-0.911951	-0.514894
C47	C	-0.015416	-0.933381	-0.620521
C48	C	0.197812	-1.271647	-0.638457
C49	C	0.280144	-1.271710	-0.638491
C50	C	0.053621	-1.315037	-0.853374
C51	C	0.074508	-1.333590	-0.944993
C52	C	0.053512	-0.486509	-0.681945
C53	C	0.074378	-0.578131	-0.700503
C54	C	-0.153595	-1.130872	-1.192808
C55	C	-0.133955	-1.148323	-1.278902
C56	C	-0.015245	-1.253822	-1.300296
C57	C	-0.034873	-1.236377	-1.214202
C58	C	-0.104049	-1.174902	-1.160464
C59	C	0.014673	-1.280407	-1.181858
C60	C	-0.004956	-1.262966	-1.095772
C61	C	-0.074131	-1.201496	-1.042030
C62	C	-0.123678	-1.157462	-1.074378
C63	C	0.083846	-1.341886	-1.235597
C64	C	0.133392	-1.385915	-1.203253
C65	C	0.113766	-1.368471	-1.117165
C66	C	0.044592	-1.307001	-1.063423
C67	C	0.163314	-1.412506	-1.084816
C68	C	0.143685	-1.395065	-0.998730
C69	C	0.024963	-1.289560	-0.977337
C70	C	-0.044153	-1.228180	-0.424225
C71	C	-0.064795	-1.209787	-0.332639
H72	H	-0.576762	-1.153569	-0.661786
C73	C	0.198189	-1.443499	-0.963149
N74	N	0.239241	-1.479982	-0.936350
H75	H	-0.586334	-1.262641	-0.505575
C76	C	0.209234	-0.895532	-0.820507
N77	N	0.266514	-0.940074	-0.871492
H78	H	-0.405429	-1.403047	-0.645364
C79	C	-0.199776	-1.089835	-1.015262
N80	N	-0.257091	-1.038903	-0.970736
C81	C	-0.450316	-1.281215	-0.495327
N82	N	-0.429909	-1.318681	-0.456650
C83	C	0.239163	-0.777119	-0.847166
N84	N	0.296443	-0.821661	-0.898151
C85	C	-0.199802	-0.648304	-0.456434
N86	N	-0.257084	-0.603761	-0.405456
H87	H	-0.209912	-1.080793	-1.149048
H88	H	0.040880	-0.977154	-0.670631
H89	H	-0.474899	-1.164848	-0.512745
C90	C	0.105212	-0.963424	-0.727893
N91	N	0.121452	-1.034751	-0.742341
H92	H	0.183841	-0.605571	-0.797933
C93	C	-0.448767	-1.129360	-0.651933
N94	N	-0.446182	-1.060590	-0.623919
H95	H	-0.209974	-0.782083	-0.447353
C96	C	-0.095722	-1.182310	-0.947332
N97	N	-0.111984	-1.167858	-0.876005
H98	H	-0.031447	-0.566676	-0.606302
H99	H	-0.412662	-1.248318	-0.756315
H100	H	-0.090167	-0.605018	-0.554001
C101	C	0.209489	-1.453529	-1.262372
N102	N	0.266809	-1.504452	-1.306898
H103	H	-0.515558	-1.395303	-0.746342
H104	H	-0.532366	-1.402954	-0.644373
C105	C	-0.188574	-0.947513	-0.466391
N106	N	-0.229617	-0.974297	-0.429857
C107	C	-0.540860	-1.258737	-0.780776
N108	N	-0.543241	-1.287211	-0.849572
C109	C	-0.615980	-1.138488	-0.505482
N110	N	-0.655608	-1.069777	-0.474371
C111	C	-0.188464	-1.099879	-1.314475
N112	N	-0.229519	-1.063392	-1.341269
H113	H	0.041077	-1.303877	-1.344060
C114	C	0.105437	-1.361068	-1.330294
N115	N	0.121700	-1.375514	-1.401620
H116	H	-0.031354	-1.239482	-0.933576
C117	C	0.239406	-1.480125	-1.143938
N118	N	0.296721	-1.531054	-1.188468
H119	H	-0.388406	-1.394756	-0.747319
