data_functionalizedCrystal
_audit_creation_method	'MofGen! by Chris Wilmer'
_symmetry_space_group_name_H-M	'P1'
_symmetry_Int_Tables_number	1
_symmetry_cell_setting	triclinic
loop_
_symmetry_equiv_pos_as_xyz
  x,y,z
_cell_length_a	10.540539
_cell_length_b	10.540539
_cell_length_c	9.616153
_cell_angle_alpha	89.999906
_cell_angle_beta	89.995174
_cell_angle_gamma	84.525492
loop_
_atom_site_label
_atom_site_type_symbol
_atom_site_fract_x
_atom_site_fract_y
_atom_site_fract_z
O1	O	1.685892	0.178895	-0.115573
O2	O	1.316479	0.195751	-0.115589
O3	O	1.509614	0.002617	-0.115579
O4	O	1.492758	0.372030	-0.115583
O5	O	1.509587	0.002621	0.115712
O6	O	1.316452	0.195755	0.115702
O7	O	1.685865	0.178899	0.115718
Zn8	Zn	1.501155	0.187328	0.152433
Zn9	Zn	1.501190	0.187323	-0.152304
O10	O	1.492731	0.372034	0.115708
C11	C	1.269163	0.194489	0.000054
C12	C	1.128215	0.190707	0.000048
C13	C	0.944788	0.045790	0.000589
C14	C	1.091406	0.049624	0.000054
C15	C	1.066557	0.258600	-0.132027
C16	C	0.920013	0.253785	-0.132123
C17	C	0.919494	0.256660	0.130899
C18	C	1.066476	0.257959	0.132630
C19	C	1.508336	-0.044684	0.000064
C20	C	1.504554	-0.185632	0.000056
C21	C	1.359637	-0.369059	-0.000469
C22	C	1.363471	-0.222441	0.000052
C23	C	1.572435	-0.247288	0.132138
C24	C	1.567620	-0.393832	0.132249
C25	C	1.570519	-0.394355	-0.130772
C26	C	1.571819	-0.247373	-0.132518
C27	C	1.733182	0.180161	0.000072
C28	C	1.874130	0.183943	0.000069
C29	C	1.494008	0.419335	0.000062
C30	C	1.497790	0.560283	0.000060
N31	N	1.501140	0.187331	0.360407
N32	N	1.501215	0.187310	-0.360278
C33	C	1.397510	0.290298	0.580772
C34	C	1.397739	0.290684	0.419604
C35	C	1.633864	0.217464	0.418862
C36	C	1.633299	0.218193	0.580080
C37	C	1.473368	0.053892	0.580319
C38	C	1.470321	0.054757	0.419092
H39	H	0.916192	-0.009944	0.095307
N40	N	0.906885	-0.023834	-0.117561
N41	N	0.828061	0.027851	-0.202145
H42	H	0.801289	-0.021318	-0.285592
N43	N	1.273819	0.268376	0.370294
N44	N	1.226992	0.167593	0.401540
H45	H	1.139387	0.152009	0.366826
H46	H	1.090701	0.360819	0.140603
H47	H	1.657654	0.315531	0.617668
N48	N	1.733042	0.125927	0.370779
N49	N	1.729819	0.010544	0.399121
H50	H	1.799862	-0.054108	0.365162
H51	H	1.658761	0.313702	0.378472
N52	N	1.700857	-0.216980	-0.142496
N53	N	1.778299	-0.249459	-0.047634
H54	H	1.869436	-0.227989	-0.054667
N55	N	0.860246	0.384494	0.132002
N56	N	0.784923	0.422031	0.036956
H57	H	0.743072	0.512310	0.037725
N58	N	1.289745	-0.404963	-0.119290
N59	N	1.270524	-0.519006	-0.137280
H60	H	1.221164	-0.544373	-0.221203
H61	H	1.378631	0.025213	0.621052
H62	H	1.133162	-0.004177	-0.094786
H63	H	1.712941	0.146204	0.619073
H64	H	1.107427	0.208361	0.230338
H65	H	1.109157	0.211434	-0.230318
N66	N	1.568210	-0.042266	0.628170
N67	N	1.582739	-0.062048	0.755600
H68	H	1.649723	-0.129952	0.789406
H69	H	1.309662	-0.180683	0.094886
H70	H	0.887936	0.211004	0.231010
N71	N	1.513252	-0.433958	-0.256350
N72	N	1.418129	-0.496106	-0.250942
H73	H	1.377673	-0.524080	-0.339624
N74	N	1.513246	-0.193841	0.255431
N75	N	1.421086	-0.110360	0.246366
H76	H	1.379276	-0.072614	0.333438
H77	H	1.310058	-0.179839	-0.094630
N78	N	1.347831	0.026117	0.371165
N79	N	1.283403	0.102990	0.294071
H80	H	1.196893	0.082767	0.260214
H81	H	1.676042	-0.224933	0.137054
H82	H	1.540848	-0.025564	0.378801
N83	N	1.509583	-0.196020	-0.255091
N84	N	1.416037	-0.114250	-0.244955
H85	H	1.372079	-0.077974	-0.331519
H86	H	1.134009	-0.003797	0.094731
H87	H	1.304122	-0.399265	0.093714
N88	N	1.698354	-0.453601	-0.131925
N89	N	1.772530	-0.430060	-0.227951
H90	H	1.862810	-0.471909	-0.228759
N91	N	0.884648	0.190834	-0.255979
N92	N	0.968159	0.150753	-0.341744
H93	H	0.943190	0.106291	-0.429221
H94	H	1.415638	0.389668	0.381024
H95	H	0.872044	0.355250	-0.138119
H96	H	1.517430	-0.422030	0.230979
N97	N	1.094600	0.388575	-0.138181
N98	N	1.160501	0.432721	-0.045074
H99	H	1.180308	0.524517	-0.049415
N100	N	1.694907	-0.453998	0.139791
N101	N	1.787010	-0.387719	0.144965
H102	H	1.876906	-0.430205	0.150301
N103	N	1.273416	0.267936	0.629505
N104	N	1.209670	0.351133	0.699609
H105	H	1.122028	0.335340	0.734046
H106	H	1.415178	0.388722	0.621270
