data_functionalizedCrystal
_audit_creation_method	'MofGen! by Chris Wilmer'
_symmetry_space_group_name_H-M	'P1'
_symmetry_Int_Tables_number	1
_symmetry_cell_setting	triclinic
loop_
_symmetry_equiv_pos_as_xyz
  x,y,z
_cell_length_a	16.992694
_cell_length_b	12.837942
_cell_length_c	16.053802
_cell_angle_alpha	92.838962
_cell_angle_beta	87.249047
_cell_angle_gamma	92.748582
loop_
_atom_site_label
_atom_site_type_symbol
_atom_site_fract_x
_atom_site_fract_y
_atom_site_fract_z
O1	O	1.059913	0.217066	-0.069322
O2	O	1.559913	0.717066	0.430678
O3	O	0.831447	0.214638	-0.069347
O4	O	1.331447	0.714638	0.430653
O5	O	0.940614	0.064530	-0.069330
O6	O	1.440614	0.564530	0.430670
O7	O	0.950746	0.367174	-0.069339
O8	O	1.450746	0.867174	0.430661
O9	O	0.934602	0.072756	0.069528
O10	O	1.434602	0.572756	0.569528
O11	O	0.825435	0.222864	0.069511
O12	O	1.325435	0.722864	0.569511
O13	O	1.053901	0.225292	0.069536
O14	O	1.553901	0.725292	0.569536
Zn15	Zn	0.938714	0.225384	0.091570
Zn16	Zn	1.438714	0.725384	0.591570
Zn17	Zn	0.946634	0.214546	-0.091381
Zn18	Zn	1.446634	0.714546	0.408619
O19	O	0.944734	0.375400	0.069519
O20	O	1.444734	0.875400	0.569519
C21	C	0.798996	0.215629	0.000079
C22	C	1.298996	0.715629	0.500079
C23	C	0.711256	0.206315	0.000070
C24	C	1.211256	0.706315	0.500070
C25	C	0.934185	0.029738	0.000098
C26	C	1.434185	0.529738	0.500098
C27	C	0.923977	-0.086184	0.000096
C28	C	1.423977	0.413816	0.500096
C29	C	0.667730	0.296178	0.000068
C30	C	1.167730	0.796178	0.500068
C31	C	0.585288	0.287422	0.000079
C32	C	1.085288	0.787422	0.500079
C33	C	0.546375	0.188801	0.000087
C34	C	1.046375	0.688801	0.500087
C35	C	0.589907	0.098931	0.000092
C36	C	1.089907	0.598931	0.500092
C37	C	0.672346	0.107689	0.000086
C38	C	1.172346	0.607689	0.500086
C39	C	0.300064	0.152502	0.000111
C40	C	0.800064	0.652502	0.500111
C41	C	0.217618	0.143751	0.000114
C42	C	0.717618	0.643751	0.500114
C43	C	0.213006	0.332243	0.000103
C44	C	0.713006	0.832243	0.500103
C45	C	0.295447	0.340992	0.000092
C46	C	0.795447	0.840992	0.500092
C47	C	0.338972	0.251122	0.000101
C48	C	0.838972	0.751122	0.500101
N49	N	0.462107	0.179847	0.000097
N50	N	0.962107	0.679847	0.500097
N51	N	0.423238	0.260077	0.000098
N52	N	0.923238	0.760077	0.500098
C53	C	1.046699	-0.316977	0.000092
C54	C	1.546699	0.183023	0.500092
C55	C	1.037111	-0.425897	0.000089
C56	C	1.537111	0.074103	0.500089
C57	C	0.895215	-0.412948	0.000082
C58	C	1.395215	0.087052	0.500082
C59	C	0.904802	-0.304027	0.000085
C60	C	1.404802	0.195973	0.500085
C61	C	0.980547	-0.256046	0.000091
C62	C	1.480547	0.243954	0.500091
C63	C	0.990134	-0.147123	0.000099
C64	C	1.490134	0.352877	0.500099
C65	C	0.848238	-0.134176	0.000086
C66	C	1.348238	0.365824	0.500086
C67	C	0.838650	-0.243097	0.000084
C68	C	1.338650	0.256903	0.500084
C69	C	1.086353	0.224300	0.000108
C70	C	1.586353	0.724300	0.500108
C71	C	1.174092	0.233614	0.000112
C72	C	1.674092	0.733614	0.500112
C73	C	0.951163	0.410191	0.000089
C74	C	1.451163	0.910191	0.500089
C75	C	0.961371	0.526114	0.000086
C76	C	1.461371	1.026114	0.500086
N77	N	0.933314	0.232780	0.216430
N78	N	1.433314	0.732780	0.716430
N79	N	0.952040	0.207141	-0.216241
N80	N	1.452040	0.707141	0.283759
C81	C	0.979785	0.168935	0.260131
C82	C	1.479785	0.668935	0.760131
C83	C	0.976016	0.174120	0.347537
C84	C	1.476016	0.674120	0.847537
C85	C	0.925779	0.243156	0.391240
C86	C	1.425779	0.743156	0.891240
C87	C	0.879303	0.307004	0.347533
C88	C	1.379303	0.807004	0.847533
C89	C	0.883068	0.301813	0.260129
C90	C	1.383068	0.801813	0.760129
C91	C	0.909329	0.265799	0.652647
C92	C	1.409329	0.765799	1.152647
C93	C	0.905569	0.270987	0.740058
C94	C	1.405569	0.770987	1.240058
C95	C	1.002281	0.138101	0.740056
C96	C	1.502281	0.638101	1.240056
C97	C	1.006046	0.132921	0.652650
C98	C	1.506046	0.632921	1.152650
C99	C	0.959566	0.196765	0.608950
C100	C	1.459566	0.696765	1.108950
N101	N	0.921927	0.248459	0.480584
N102	N	1.421927	0.748459	0.980584
N103	N	0.963414	0.191455	0.519608
N104	N	1.463414	0.691455	1.019608
H105	H	0.699407	0.376486	0.000061
H106	H	1.199407	0.876486	0.500061
F107	F	0.825832	0.380473	0.394046
F108	F	1.325832	0.880473	0.894046
H109	H	0.864658	0.327208	0.775638
H110	H	1.364658	0.827208	1.275638
F111	F	1.070746	-0.096059	0.000111
F112	F	1.570746	0.403941	0.500111
F113	F	0.814609	-0.464032	0.000056
F114	F	1.314609	0.035968	0.500056
F115	F	0.859865	0.333749	0.606146
F116	F	1.359865	0.833749	1.106146
F117	F	1.127310	-0.265908	0.000115
F118	F	1.627310	0.234092	0.500115
H119	H	1.090979	-0.475503	0.000087
H120	H	1.590979	0.024497	0.500087
H121	H	1.020697	0.112723	0.224553
H122	H	1.520697	0.612723	0.724553
F123	F	1.051742	0.070155	0.786569
F124	F	1.551742	0.570155	1.286569
H125	H	0.794372	-0.084554	0.000092
H126	H	1.294372	0.415446	0.500092
F127	F	0.538968	0.383067	0.000074
F128	F	1.038968	0.883067	0.500074
F129	F	0.336856	0.445957	0.000079
F130	F	0.836856	0.945957	0.500079
F131	F	1.025475	0.106167	0.394047
F132	F	1.525475	0.606167	0.894047
H133	H	0.845226	0.353801	0.224548
H134	H	1.345226	0.853801	0.724548
F135	F	0.758042	-0.294174	0.000071
F136	F	1.258042	0.205826	0.500071
H137	H	1.046952	0.076706	0.617068
H138	H	1.546952	0.576706	1.117068
H139	H	0.177559	0.405409	0.000097
H140	H	0.677559	0.905409	0.500097
F141	F	0.346376	0.056854	0.000120
F142	F	0.846376	0.556854	0.500120
F143	F	0.176205	0.038781	0.000137
F144	F	0.676205	0.538781	0.500137
H145	H	0.707785	0.034512	0.000087
H146	H	1.207785	0.534512	0.500087
F147	F	0.548490	-0.006029	0.000106
F148	F	1.048490	0.493971	0.500106
