data_functionalizedCrystal
_audit_creation_method	'MofGen! by Chris Wilmer'
_symmetry_space_group_name_H-M	'P1'
_symmetry_Int_Tables_number	1
_symmetry_cell_setting	triclinic
loop_
_symmetry_equiv_pos_as_xyz
  x,y,z
_cell_length_a	9.065215
_cell_length_b	17.038272
_cell_length_c	7.540329
_cell_angle_alpha	89.996089
_cell_angle_beta	89.997574
_cell_angle_gamma	88.063127
loop_
_atom_site_label
_atom_site_type_symbol
_atom_site_fract_x
_atom_site_fract_y
_atom_site_fract_z
O1	O	1.971910	0.114731	-0.147464
O2	O	1.543569	0.124145	-0.147472
O3	O	1.755194	0.005604	-0.147454
O4	O	1.760285	0.233272	-0.147482
O5	O	1.755180	0.005603	0.147511
O6	O	1.543555	0.124143	0.147493
O7	O	1.971896	0.114729	0.147501
Cu8	Cu	1.757724	0.119436	0.174429
Cu9	Cu	1.757741	0.119438	-0.174401
O10	O	1.760271	0.233270	0.147483
C11	C	1.488485	0.123240	0.000009
C12	C	1.324370	0.120536	0.000006
C13	C	1.750556	-0.023558	0.000028
C14	C	1.736740	-0.110451	0.000027
C15	C	1.863588	-0.159650	0.000031
C16	C	1.850597	-0.241294	0.000014
C17	C	1.710758	-0.273738	0.000006
C18	C	1.583900	-0.224532	-0.000004
C19	C	1.596892	-0.142890	0.000000
C20	C	1.664860	-0.519827	-0.000019
C21	C	1.651877	-0.601476	-0.000019
C22	C	1.918576	-0.618232	-0.000004
C23	C	1.931556	-0.536587	0.000011
C24	C	1.804698	-0.487389	-0.000007
C25	C	1.697476	-0.357191	-0.000006
C26	C	1.817981	-0.403937	-0.000008
C27	C	2.026980	0.115634	0.000015
C28	C	2.191095	0.118338	0.000006
N29	N	1.757724	0.119435	0.419778
C30	C	1.764909	0.262433	-0.000003
C31	C	1.778725	0.349325	-0.000014
N32	N	1.757752	0.119434	-0.419749
H33	H	1.977460	-0.133241	0.000049
H34	H	1.537997	-0.627888	0.000003
H35	H	1.470039	-0.250954	-0.000022
C36	C	1.525314	-0.465720	-0.000008
C37	C	1.413512	-0.470033	-0.153162
C38	C	1.273957	-0.415924	-0.153142
C39	C	1.246203	-0.357500	0.000034
C40	C	1.358008	-0.353184	0.153199
C41	C	1.497564	-0.407294	0.153179
H42	H	1.434054	-0.513284	-0.266562
H43	H	1.191191	-0.419119	-0.266526
H44	H	1.142896	-0.317445	0.000049
H45	H	1.337466	-0.309934	0.266599
H46	H	1.580329	-0.404099	0.266563
H47	H	2.045428	-0.510178	0.000019
C48	C	1.457358	-0.088767	-0.000001
C49	C	1.345573	-0.093075	-0.153175
C50	C	1.206035	-0.038952	-0.153187
C51	C	1.178282	0.019479	-0.000027
C52	C	1.290070	0.023789	0.153158
C53	C	1.429608	-0.030334	0.153171
H54	H	1.366115	-0.136331	-0.266564
H55	H	1.123283	-0.042143	-0.266586
H56	H	1.074988	0.059544	-0.000036
H57	H	1.269529	0.067045	0.266548
H58	H	1.512361	-0.027142	0.266569
H59	H	1.953891	-0.281349	0.000022
H60	H	2.021856	-0.658297	0.000008
H61	H	1.931838	-0.377518	-0.000040
H62	H	1.583617	-0.383616	-0.000009
