data_functionalizedCrystal
_audit_creation_method	'MofGen! by Chris Wilmer'
_symmetry_space_group_name_H-M	'P1'
_symmetry_Int_Tables_number	1
_symmetry_cell_setting	triclinic
loop_
_symmetry_equiv_pos_as_xyz
  x,y,z
_cell_length_a	15.944556
_cell_length_b	14.519710
_cell_length_c	13.596369
_cell_angle_alpha	89.995619
_cell_angle_beta	90.017613
_cell_angle_gamma	96.409243
loop_
_atom_site_label
_atom_site_type_symbol
_atom_site_fract_x
_atom_site_fract_y
_atom_site_fract_z
O1	O	-0.110109	1.223679	-0.081796
O2	O	0.389891	1.723679	0.418204
O3	O	-0.123075	0.955179	-0.081806
O4	O	0.376925	1.455179	0.418194
O5	O	0.005672	1.096758	-0.081765
O6	O	0.505672	1.596758	0.418235
O7	O	-0.238856	1.082100	-0.081837
O8	O	0.261144	1.582100	0.418163
O9	O	0.005679	1.096744	0.081818
O10	O	0.505679	1.596744	0.581818
O11	O	-0.123068	0.955165	0.081777
O12	O	0.376932	1.455165	0.581777
O13	O	-0.110102	1.223665	0.081787
O14	O	0.389898	1.723665	0.581787
Zn15	Zn	-0.116584	1.089413	0.107754
Zn16	Zn	0.383416	1.589413	0.607754
Zn17	Zn	-0.116593	1.089431	-0.107773
Zn18	Zn	0.383407	1.589431	0.392227
O19	O	-0.238849	1.082086	0.081746
O20	O	0.261151	1.582086	0.581746
C21	C	0.036970	1.096141	0.000033
C22	C	0.536970	1.596141	0.500033
C23	C	0.130218	1.094314	0.000054
C24	C	0.630218	1.594314	0.500054
C25	C	-0.122467	0.920814	-0.000015
C26	C	0.377533	1.420814	0.499985
C27	C	-0.120657	0.818435	-0.000017
C28	C	0.379343	1.318435	0.499983
C29	C	-0.110710	1.258030	-0.000006
C30	C	0.389290	1.758030	0.499994
C31	C	-0.112520	1.360408	-0.000011
C32	C	0.387480	1.860408	0.499989
C33	C	0.400985	1.001093	0.000084
C34	C	0.900985	1.501093	0.500084
C35	C	0.350331	1.046040	-0.080580
C36	C	0.850331	1.546040	0.419420
C37	C	0.465870	1.087797	0.000091
C38	C	0.965870	1.587797	0.500091
C39	C	0.350365	1.046049	0.080700
C40	C	0.850365	1.546049	0.580700
C41	C	0.300953	1.090994	0.000075
C42	C	0.800953	1.590994	0.500075
C43	C	0.416444	1.132720	-0.080639
C44	C	0.916444	1.632720	0.419361
C45	C	0.416482	1.132717	0.080713
C46	C	0.916482	1.632717	0.580713
C47	C	0.365861	1.177727	0.000030
C48	C	0.865861	1.677727	0.500030
C49	C	0.560874	1.085952	0.000100
C50	C	1.060874	1.585952	0.500100
C51	C	0.205951	1.092845	0.000059
C52	C	0.705951	1.592845	0.500059
C53	C	0.729851	1.082690	-0.000005
C54	C	1.229851	1.582690	0.499995
C55	C	0.636599	1.084480	0.000113
C56	C	1.136599	1.584480	0.500113
N57	N	-0.116577	1.089407	0.254846
N58	N	0.383423	1.589407	0.754846
C59	C	-0.119187	1.735293	-0.000013
C60	C	0.380813	2.235293	0.499987
C61	C	-0.117336	1.630988	-0.000013
C62	C	0.382664	2.130988	0.499987
C63	C	-0.115854	1.547854	-0.000013
C64	C	0.384146	2.047854	0.499987
C65	C	-0.114002	1.443543	-0.000011
C66	C	0.385998	1.943543	0.499989
N67	N	-0.116593	1.089444	-0.254865
N68	N	0.383407	1.589444	0.245135
C69	C	-0.116594	1.089430	0.656137
C70	C	0.383406	1.589430	1.156137
C71	C	-0.116592	1.089421	0.544486
C72	C	0.383408	1.589421	1.044486
C73	C	-0.116586	1.089419	0.455495
C74	C	0.383414	1.589419	0.955495
C75	C	-0.116583	1.089409	0.343837
C76	C	0.383417	1.589409	0.843837
H77	H	0.416746	0.926419	0.000007
H78	H	0.916746	1.426419	0.500007
O79	O	0.316033	1.002222	0.162019
O80	O	0.816033	1.502222	0.662019
C81	C	0.333559	0.909168	0.161701
C82	C	0.833559	1.409168	0.661701
H83	H	0.391635	0.902473	0.114482
H84	H	0.891635	1.402473	0.614482
H85	H	0.345992	0.886480	0.240140
H86	H	0.845992	1.386480	0.740140
H87	H	0.277224	0.863304	0.130225
H88	H	0.777224	1.363304	0.630225
O89	O	0.347149	1.266844	-0.000151
O90	O	0.847149	1.766844	0.499849
C91	C	0.299195	1.282312	-0.084497
C92	C	0.799195	1.782312	0.415503
H93	H	0.266414	1.213423	-0.112277
H94	H	0.766414	1.713423	0.387723
H95	H	0.249798	1.330374	-0.065119
H96	H	0.749798	1.830374	0.434881
H97	H	0.342596	1.315646	-0.144296
H98	H	0.842596	1.815646	0.355704
H99	H	0.321447	1.009428	-0.148775
H100	H	0.821447	1.509428	0.351225
H101	H	0.445381	1.169296	0.148911
H102	H	0.945381	1.669296	0.648911
H103	H	0.445194	1.169316	-0.148896
H104	H	0.945194	1.669316	0.351104
