data_functionalizedCrystal
_audit_creation_method	'MofGen! by Chris Wilmer'
_symmetry_space_group_name_H-M	'P1'
_symmetry_Int_Tables_number	1
_symmetry_cell_setting	triclinic
loop_
_symmetry_equiv_pos_as_xyz
  x,y,z
_cell_length_a	17.699077
_cell_length_b	10.489716
_cell_length_c	16.176319
_cell_angle_alpha	89.997268
_cell_angle_beta	89.993140
_cell_angle_gamma	83.904856
loop_
_atom_site_label
_atom_site_type_symbol
_atom_site_fract_x
_atom_site_fract_y
_atom_site_fract_z
O1	O	1.005128	0.161261	-0.068728
O2	O	0.784885	0.182255	-0.068731
O3	O	0.900028	-0.013935	-0.068733
O4	O	0.889986	0.357451	-0.068727
O5	O	0.900012	-0.013948	0.068760
O6	O	0.784869	0.182242	0.068762
O7	O	1.005112	0.161249	0.068765
Cu8	Cu	0.894989	0.171744	0.081318
Cu9	Cu	0.895008	0.171759	-0.081284
O10	O	0.889969	0.357439	0.068766
C11	C	0.756675	0.181497	0.000015
C12	C	0.672642	0.179245	0.000013
C13	C	0.633159	0.178176	0.074962
C14	C	0.554203	0.176039	0.074962
C15	C	0.514730	0.174980	0.000014
C16	C	0.554219	0.176044	-0.074940
C17	C	0.633175	0.178172	-0.074940
C18	C	0.235800	0.167461	-0.074942
C19	C	0.156839	0.165336	-0.074936
C20	C	0.156828	0.165328	0.074961
C21	C	0.235784	0.167456	0.074961
C22	C	0.275266	0.168513	0.000007
C23	C	0.360880	0.170828	0.000007
C24	C	0.429118	0.172674	0.000013
C25	C	0.899265	-0.061460	0.000011
C26	C	0.897008	-0.203049	0.000004
C27	C	0.967617	-0.302037	0.000012
C28	C	0.930313	-0.378697	-0.067777
C29	C	0.930281	-0.378673	0.067780
C30	C	0.859734	-0.277844	-0.067842
C31	C	0.859712	-0.277814	0.067777
C32	C	0.822357	-0.354424	-0.000030
C33	C	1.033322	0.162006	0.000017
C34	C	1.117355	0.164259	0.000013
C35	C	0.890732	0.404963	0.000020
C36	C	0.892989	0.546552	0.000022
N37	N	0.894981	0.171733	0.195683
N38	N	0.895022	0.171760	-0.195649
C39	C	0.945982	0.084896	0.238946
C40	C	0.945986	0.084894	0.325494
C41	C	0.894992	0.171738	0.368775
C42	C	0.843986	0.258579	0.325506
C43	C	0.843979	0.258573	0.238960
C44	C	0.844012	0.258603	0.674534
C45	C	0.844024	0.258605	0.761086
C46	C	0.946019	0.084924	0.761067
C47	C	0.946012	0.084918	0.674522
C48	C	0.895003	0.171755	0.631260
C49	C	0.894999	0.171754	0.537416
C50	C	0.895000	0.171746	0.462618
H51	H	1.029035	-0.278504	-0.000056
H52	H	0.124673	0.164461	0.135992
H53	H	0.960127	-0.422742	-0.125089
O54	O	0.794374	0.342982	0.367419
C55	C	0.693230	0.515298	0.358296
C56	C	0.749364	0.419759	0.310729
H57	H	0.656835	0.577415	0.312483
H58	H	0.655080	0.460373	0.398803
H59	H	0.726260	0.578897	0.398826
H60	H	0.716395	0.356135	0.270154
H61	H	0.787513	0.474763	0.270274
H62	H	0.665321	0.179044	-0.135971
H63	H	0.987539	0.014207	0.639284
H64	H	0.760893	-0.377711	-0.000067
H65	H	0.522061	0.175148	0.135993
O66	O	0.671596	0.179036	0.147715
C67	C	0.768679	0.070929	0.234732
C68	C	0.725224	0.069818	0.152299
H69	H	0.812036	-0.017378	0.238473
H70	H	0.799251	0.161092	0.238496
H71	H	0.726875	0.069856	0.288286
H72	H	0.766977	0.070844	0.098699
H73	H	0.694640	-0.020338	0.148608
H74	H	0.522075	0.175172	-0.135965
H75	H	0.987551	0.014213	0.796300
O76	O	0.824271	-0.225328	-0.136274
C77	C	0.786606	-0.032126	-0.213035
C78	C	0.826795	-0.091436	-0.135509
H79	H	0.788619	0.076136	-0.212434
H80	H	0.816502	-0.074533	-0.270759
H81	H	0.724889	-0.054076	-0.213279
H82	H	0.888513	-0.069507	-0.135185
H83	H	0.796840	-0.049027	-0.077821
O84	O	0.824285	-0.225315	0.136234
C85	C	0.821438	-0.217428	0.285088
C86	C	0.861633	-0.276962	0.207621
H87	H	0.851607	-0.259180	0.342824
H88	H	0.823067	-0.109082	0.284153
H89	H	0.759840	-0.240012	0.285632
H90	H	0.923246	-0.254476	0.207027
H91	H	0.859942	-0.385293	0.208587
O92	O	0.965950	-0.431070	0.136131
C93	C	1.082808	-0.464518	0.213323
C94	C	1.042495	-0.405093	0.135899
H95	H	1.144704	-0.443560	0.213152
H96	H	1.053378	-0.421440	0.271124
H97	H	1.080192	-0.572639	0.212982
H98	H	1.045098	-0.296972	0.136160
H99	H	1.071935	-0.448270	0.078132
O100	O	0.274093	0.168720	-0.147772
C101	C	0.290236	0.279790	-0.275920
C102	C	0.246821	0.278539	-0.193456
H103	H	0.268192	0.368555	-0.312886
H104	H	0.353453	0.281568	-0.263106
H105	H	0.281168	0.190107	-0.312842
H106	H	0.255827	0.368205	-0.156492
H107	H	0.183620	0.276694	-0.206327
H108	H	0.802448	0.329284	0.203736
H109	H	0.987510	0.014183	0.203712
O110	O	0.794400	0.342790	0.632475
C111	C	0.691215	0.370190	0.534741
C112	C	0.747342	0.274698	0.582343
H113	H	0.653165	0.315175	0.494186
H114	H	0.654719	0.432253	0.580503
H115	H	0.724253	0.433850	0.494251
H116	H	0.714365	0.210954	0.622835
H117	H	0.783839	0.212724	0.536538
O118	O	0.274240	0.168539	0.147692
C119	C	0.395877	0.171715	0.214123
C120	C	0.352419	0.170531	0.131696
H121	H	0.459094	0.173299	0.201219
H122	H	0.373959	0.260540	0.251102
H123	H	0.386750	0.082082	0.251078
H124	H	0.361527	0.260103	0.094675
H125	H	0.374345	0.081648	0.094780
O126	O	0.118444	0.164524	-0.147724
C127	C	0.021291	0.272538	-0.234696
C128	C	0.064727	0.273629	-0.152250
H129	H	-0.022160	0.360726	-0.238374
H130	H	0.063031	0.273737	-0.288301
H131	H	-0.009191	0.182277	-0.238423
H132	H	0.095211	0.363875	-0.148442
H133	H	0.022950	0.272362	-0.098684
H134	H	0.987514	0.014184	0.360718
H135	H	0.802496	0.329325	0.796324
