data_functionalizedCrystal
_audit_creation_method	'MofGen! by Chris Wilmer'
_symmetry_space_group_name_H-M	'P1'
_symmetry_Int_Tables_number	1
_symmetry_cell_setting	triclinic
loop_
_symmetry_equiv_pos_as_xyz
  x,y,z
_cell_length_a	19.121725
_cell_length_b	16.120566
_cell_length_c	16.120297
_cell_angle_alpha	89.874982
_cell_angle_beta	95.429393
_cell_angle_gamma	95.185145
loop_
_atom_site_label
_atom_site_type_symbol
_atom_site_fract_x
_atom_site_fract_y
_atom_site_fract_z
Zn1	Zn	-0.357336	-1.264532	-0.553588
Zn2	Zn	0.142664	-0.764532	-0.053588
Zn3	Zn	-0.469621	-1.276854	-0.420487
Zn4	Zn	0.030379	-0.776854	0.079513
Zn5	Zn	-0.345418	-1.131952	-0.406866
Zn6	Zn	0.154582	-0.631952	0.093134
Zn7	Zn	-0.468972	-1.130780	-0.552414
Zn8	Zn	0.031028	-0.630780	-0.052414
O9	O	-0.410337	-1.201030	-0.483339
O10	O	0.089663	-0.701030	0.016661
O11	O	-0.377490	-1.382784	-0.542123
O12	O	0.122510	-0.882784	-0.042123
O13	O	-0.448429	-1.263280	-0.302065
O14	O	0.051571	-0.763280	0.197935
O15	O	-0.248299	-1.144873	-0.421120
O16	O	0.251701	-0.644873	0.078880
O17	O	-0.459985	-1.391837	-0.444334
O18	O	0.040015	-0.891837	0.055666
O19	O	-0.257056	-1.242279	-0.528916
O20	O	0.242944	-0.742279	-0.028916
O21	O	-0.357177	-1.156822	-0.292058
O22	O	0.142823	-0.656822	0.207942
O23	O	-0.356548	-1.015179	-0.419982
O24	O	0.143452	-0.515179	0.080018
O25	O	-0.458880	-1.142875	-0.669185
O26	O	0.041120	-0.642875	-0.169185
O27	O	-0.447323	-1.014318	-0.526915
O28	O	0.052677	-0.514318	-0.026915
O29	O	-0.376861	-1.241142	-0.670047
O30	O	0.123139	-0.741142	-0.170047
O31	O	-0.568234	-1.262144	-0.443196
O32	O	-0.068234	-0.762144	0.056804
O33	O	-0.567758	-1.154824	-0.540122
O34	O	-0.067758	-0.654824	-0.040122
C35	C	-0.400573	-0.984511	-0.471844
C36	C	0.099427	-0.484511	0.028156
C37	C	-0.396413	-0.891883	-0.466947
C38	C	0.103587	-0.391883	0.033053
C39	C	-0.593589	-1.209715	-0.493029
C40	C	-0.093589	-0.709715	0.006971
C41	C	-0.671990	-1.213506	-0.497207
C42	C	-0.171990	-0.713506	0.002793
C43	C	-0.388803	-0.722290	-0.458012
C44	C	0.111197	-0.222290	0.041988
C45	C	-0.431931	-0.680612	-0.508675
C46	C	0.068069	-0.180612	-0.008675
C47	C	-0.427697	-0.586245	-0.503704
C48	C	0.072303	-0.086245	-0.003704
C49	C	-0.393037	-0.816666	-0.462982
C50	C	0.106963	-0.316666	0.037018
C51	C	-0.704327	-1.164623	-0.443014
C52	C	-0.204327	-0.664623	0.056986
C53	C	-0.777994	-1.168193	-0.446943
C54	C	-0.277994	-0.668193	0.053057
C55	C	-0.819322	-1.220642	-0.505070
C56	C	-0.319322	-0.720642	-0.005070
C57	C	-0.786979	-1.269530	-0.559265
C58	C	-0.286979	-0.769530	-0.059265
C59	C	-0.713314	-1.265964	-0.555331
C60	C	-0.213314	-0.765964	-0.055331
C61	C	-1.041967	-1.233948	-0.519754
C62	C	-0.541967	-0.733948	-0.019754
C63	C	-1.115637	-1.237508	-0.523685
C64	C	-0.615637	-0.737508	-0.023685
C65	C	-1.106647	-1.136172	-0.411362
C66	C	-0.606647	-0.636172	0.088638
C67	C	-1.032981	-1.132607	-0.407436
C68	C	-0.532981	-0.632607	0.092564
C69	C	-1.000645	-1.181498	-0.461629
C70	C	-0.500645	-0.681498	0.038371
C71	C	-0.894621	-1.224290	-0.509089
C72	C	-0.394621	-0.724290	-0.009089
C73	C	-0.925347	-1.177854	-0.457604
C74	C	-0.425347	-0.677854	0.042396
C75	C	-0.226370	-1.192332	-0.473630
C76	C	0.273630	-0.692332	0.026370
C77	C	-0.147975	-1.188626	-0.469492
C78	C	0.352025	-0.688626	0.030508
C79	C	-0.419127	-1.190503	-0.700698
C80	C	0.080873	-0.690503	-0.200698
C81	C	-0.422874	-1.186017	-0.793324
C82	C	0.077126	-0.686017	-0.293324
C83	C	-0.420141	-0.418395	-0.494865
C84	C	0.079859	0.081605	0.005135
C85	C	-0.424323	-0.511024	-0.499743
C86	C	0.075677	-0.011024	0.000257
C87	C	-0.429696	-1.177796	-0.962910
C88	C	0.070304	-0.677796	-0.462910
C89	C	-0.390774	-1.224418	-1.004616
C90	C	0.109226	-0.724418	-0.504616
C91	C	-0.394570	-1.219843	-1.098980
C92	C	0.105430	-0.719843	-0.598980
C93	C	-0.425901	-1.182369	-0.868538
C94	C	0.074099	-0.682369	-0.368538
C95	C	-0.401531	-1.211561	-0.266824
C96	C	0.098469	-0.711561	0.233176
C97	C	-0.397594	-1.216199	-0.174197
C98	C	0.102406	-0.716199	0.325803
H99	H	-0.472032	-0.715803	-0.555782
H100	H	0.027968	-0.215803	-0.055782
O101	O	-0.335689	-0.675680	-0.395615
O102	O	0.164311	-0.175680	0.104385
H103	H	-0.304743	-0.720766	-0.359268
H104	H	0.195257	-0.220766	0.140732
O105	O	-0.659753	-1.108059	-0.380315
O106	O	-0.159753	-0.608059	0.119685
H107	H	-0.694619	-1.074676	-0.343285
H108	H	-0.194619	-0.574676	0.156715
O109	O	-0.477609	-1.120377	-1.009484
O110	O	0.022391	-0.620377	-0.509484
H111	H	-0.532953	-1.138075	-0.996527
H112	H	-0.032953	-0.638075	-0.496527
O113	O	-0.342867	-1.281852	-0.958043
O114	O	0.157133	-0.781852	-0.458043
H115	H	-0.287519	-1.264159	-0.970989
H116	H	0.212481	-0.764159	-0.470989
O117	O	-0.812875	-1.115467	-0.388496
O118	O	-0.312875	-0.615467	0.111504
H119	H	-0.771762	-1.078388	-0.347425
H120	H	-0.271762	-0.578388	0.152575
O121	O	-0.988405	-1.076052	-0.344729
O122	O	-0.488405	-0.576052	0.155271
H123	H	-1.023268	-1.042669	-0.307696
H124	H	-0.523268	-0.542669	0.192304
H125	H	-1.132983	-1.096368	-0.367241
H126	H	-0.632983	-0.596368	0.132759
H127	H	-1.015645	-1.273756	-0.563880
H128	H	-0.515645	-0.773756	-0.063880
O129	O	-1.160217	-1.294087	-0.586375
O130	O	-0.660217	-0.794087	-0.086375
H131	H	-1.125357	-1.327493	-0.623392
H132	H	-0.625357	-0.827493	-0.123392
H133	H	-0.686986	-1.305771	-0.599459
H134	H	-0.186986	-0.805771	-0.099459
O135	O	-0.831554	-1.326092	-0.621966
O136	O	-0.331554	-0.826092	-0.121966
H137	H	-0.865511	-1.371945	-0.588751
H138	H	-0.365511	-0.871945	-0.088751
O139	O	-0.880779	-1.121286	-0.394908
O140	O	-0.380779	-0.621286	0.105092
H141	H	-0.846835	-1.075429	-0.428132
H142	H	-0.346835	-0.575429	0.071868
O143	O	-0.939201	-1.280844	-0.571794
O144	O	-0.439201	-0.780844	-0.071794
H145	H	-0.973155	-1.326697	-0.538577
H146	H	-0.473155	-0.826697	-0.038577
