data_functionalizedCrystal
_audit_creation_method	'MofGen! by Chris Wilmer'
_symmetry_space_group_name_H-M	'P1'
_symmetry_Int_Tables_number	1
_symmetry_cell_setting	triclinic
loop_
_symmetry_equiv_pos_as_xyz
  x,y,z
_cell_length_a	16.625539
_cell_length_b	19.077105
_cell_length_c	19.077068
_cell_angle_alpha	90.115316
_cell_angle_beta	92.266981
_cell_angle_gamma	87.682252
loop_
_atom_site_label
_atom_site_type_symbol
_atom_site_fract_x
_atom_site_fract_y
_atom_site_fract_z
Zn1	Zn	-0.519613	1.063000	-0.322975
Zn2	Zn	-0.389957	1.058185	-0.440485
Zn3	Zn	-0.379175	0.945490	-0.318271
Zn4	Zn	-0.519129	0.940735	-0.435716
O5	O	-0.451969	1.001852	-0.379362
O6	O	-0.507129	1.160693	-0.342527
O7	O	-0.275694	1.043210	-0.424300
O8	O	-0.393495	0.965083	-0.220565
O9	O	-0.411871	1.157155	-0.428861
O10	O	-0.496674	1.051417	-0.224021
O11	O	-0.267773	0.960413	-0.334510
O12	O	-0.393026	0.846528	-0.329886
O13	O	-0.632025	0.956980	-0.420734
O14	O	-0.495849	0.843034	-0.416173
O15	O	-0.632381	1.046807	-0.337903
O16	O	-0.411401	1.038599	-0.538182
O17	O	-0.506303	0.952310	-0.534679
C18	C	-0.443215	0.819285	-0.372002
C19	C	-0.439490	0.741181	-0.368870
C20	C	-0.491197	0.702684	-0.412391
C21	C	-0.487700	0.629298	-0.409440
C22	C	-0.432493	0.594409	-0.362970
C23	C	-0.380784	0.632910	-0.319443
C24	C	-0.384285	0.706296	-0.322392
C25	C	-0.416294	0.375123	-0.349322
C26	C	-0.412795	0.301733	-0.346378
C27	C	-0.519713	0.298125	-0.436374
C28	C	-0.523205	0.371512	-0.439322
C29	C	-0.471500	0.410007	-0.395793
N30	N	-0.428916	0.519396	-0.359953
N31	N	-0.475081	0.485019	-0.398807
C32	C	-0.662277	1.001900	-0.379311
C33	C	-0.751898	1.001921	-0.379290
C34	C	-1.080072	1.001956	-0.379212
C35	C	-0.988764	1.001944	-0.379236
C36	C	-0.915988	1.001939	-0.379252
C37	C	-0.824675	1.001926	-0.379274
C38	C	-0.242478	1.001847	-0.379363
C39	C	-0.152855	1.001971	-0.379192
C40	C	-0.459988	0.994435	-0.561927
C41	C	-0.463449	0.991327	-0.640032
C42	C	-0.460757	1.185133	-0.386751
C43	C	-0.464502	1.263236	-0.389900
C44	C	-0.415709	1.034827	-0.678528
C45	C	-0.418969	1.031907	-0.751916
C46	C	-0.469965	0.985483	-0.786806
C47	C	-0.517711	0.941980	-0.748305
C48	C	-0.514454	0.944904	-0.674919
C49	C	-0.485002	0.971920	-1.006095
C50	C	-0.488253	0.968998	-1.079486
C51	C	-0.389512	1.058927	-1.083092
C52	C	-0.386257	1.061843	-1.009704
C53	C	-0.434005	1.018343	-0.971209
N54	N	-0.473297	0.982496	-0.861820
N55	N	-0.430677	1.021335	-0.896197
C56	C	-0.443936	1.009318	-0.196084
C57	C	-0.440513	1.012499	-0.117982
H58	H	-0.561810	0.266774	-0.471812
Cl59	Cl	-0.581826	0.883622	-0.792167
H60	H	-0.374179	1.072628	-0.650125
Cl61	Cl	-0.574476	0.890218	-0.626523
H62	H	-0.367843	0.273329	-0.308529
H63	H	-0.374185	0.406458	-0.313884
Cl64	Cl	-0.552706	0.580905	-0.464155
H65	H	-0.523879	0.936500	-0.974758
Cl66	Cl	-0.311385	0.589050	-0.261019
H67	H	-0.536150	0.731085	-0.450235
H68	H	-0.342184	0.737639	-0.286949
Cl69	Cl	-0.322156	1.120218	-0.965848
Cl70	Cl	-0.358953	1.086599	-0.800308
H71	H	-0.350640	1.094343	-1.114442
H72	H	-0.568159	0.399913	-0.477164
Cl73	Cl	-0.552357	0.910622	-1.123347
