data_functionalizedCrystal
_audit_creation_method	'MofGen! by Chris Wilmer'
_symmetry_space_group_name_H-M	'P1'
_symmetry_Int_Tables_number	1
_symmetry_cell_setting	triclinic
loop_
_symmetry_equiv_pos_as_xyz
  x,y,z
_cell_length_a	23.532407
_cell_length_b	8.597304
_cell_length_c	7.088929
_cell_angle_alpha	76.027438
_cell_angle_beta	96.167054
_cell_angle_gamma	84.099478
loop_
_atom_site_label
_atom_site_type_symbol
_atom_site_fract_x
_atom_site_fract_y
_atom_site_fract_z
O1	O	0.749706	0.210246	-0.193493
O2	O	0.583885	0.238284	-0.198141
O3	O	0.671442	-0.008160	-0.157527
O4	O	0.662150	0.456691	-0.234108
O5	O	0.683143	-0.041169	0.165888
O6	O	0.595586	0.205275	0.125274
O7	O	0.761408	0.177237	0.129922
Cu8	Cu	0.679565	0.188242	0.157128
Cu9	Cu	0.665727	0.227279	-0.225348
O10	O	0.673851	0.423682	0.089307
C11	C	0.568518	0.221066	-0.036320
C12	C	0.505298	0.218921	-0.035978
C13	C	0.238895	0.064224	-0.010441
C14	C	0.298299	0.066218	-0.010770
O15	O	0.334858	-0.056504	0.009514
N16	N	0.321148	0.212730	-0.034919
C17	C	0.284592	0.357255	-0.058722
O18	O	0.309483	0.482057	-0.079291
C19	C	0.225191	0.355258	-0.058379
C20	C	0.202344	0.208739	-0.034247
C21	C	0.216048	-0.082283	0.013691
C22	C	0.156648	-0.084276	0.014016
C23	C	0.120097	0.060238	-0.009790
C24	C	0.142944	0.206746	-0.033922
C25	C	0.188636	0.499779	-0.082167
C26	C	0.129231	0.497770	-0.081820
C27	C	0.106384	0.351251	-0.057689
C28	C	0.046993	0.349267	-0.057403
N29	N	0.024143	0.202756	-0.033253
C30	C	0.060695	0.058241	-0.009447
C31	C	0.409340	0.361437	-0.059437
C32	C	0.468740	0.363437	-0.059795
C33	C	0.482443	0.072400	-0.011839
C34	C	0.423041	0.070403	-0.011496
C35	C	0.386490	0.214926	-0.035288
C36	C	-0.064048	0.054067	-0.008767
C37	C	-0.123454	0.052088	-0.008452
C38	C	-0.137151	0.343124	-0.056398
C39	C	-0.077751	0.345105	-0.056723
C40	C	-0.041200	0.200563	-0.032899
O41	O	0.010400	0.471924	-0.077668
O42	O	0.035797	-0.066543	0.011145
C43	C	0.676946	-0.084124	0.013972
C44	C	0.675909	-0.261296	0.043146
C45	C	0.776774	0.194456	-0.031904
C46	C	0.839994	0.196602	-0.032259
N47	N	0.689302	0.160785	0.426141
C48	C	0.668346	0.499646	-0.082196
C49	C	0.669383	0.676819	-0.111383
N50	N	0.655995	0.254724	-0.494359
H51	H	0.379583	0.479134	-0.078827
H52	H	0.723828	0.063442	0.523839
H53	H	-0.142053	-0.067230	0.011194
H54	H	-0.034295	-0.063633	0.010632
C55	C	0.662912	-0.211649	-0.320288
N56	N	0.658040	-0.127633	-0.477639
H57	H	0.138052	-0.203588	0.033675
C58	C	0.682380	-0.372835	0.252062
N59	N	0.687254	-0.456848	0.409415
H60	H	0.621476	0.352072	0.407952
H61	H	0.487336	0.482750	-0.079472
H62	H	0.404443	-0.048906	0.008156
C63	C	0.213755	0.660961	-0.108682
N64	N	0.232674	0.782372	-0.128642
H65	H	0.245803	-0.199972	0.033085
H66	H	0.099474	0.615460	-0.101186
C67	C	-0.052619	0.506284	-0.083291
N68	N	-0.033693	0.627686	-0.103284
C69	C	-0.177368	0.502080	-0.082571
N70	N	-0.207661	0.621806	-0.102267
C71	C	0.522662	-0.086572	0.014368
N72	N	0.552956	-0.206302	0.034108
