data_functionalizedCrystal
_audit_creation_method	'MofGen! by Chris Wilmer'
_symmetry_space_group_name_H-M	'P1'
_symmetry_Int_Tables_number	1
_symmetry_cell_setting	triclinic
loop_
_symmetry_equiv_pos_as_xyz
  x,y,z
_cell_length_a	10.967874
_cell_length_b	14.519731
_cell_length_c	10.065875
_cell_angle_alpha	98.805316
_cell_angle_beta	69.229500
_cell_angle_gamma	84.210075
loop_
_atom_site_label
_atom_site_type_symbol
_atom_site_fract_x
_atom_site_fract_y
_atom_site_fract_z
O1	O	1.739958	0.067451	-0.522704
O2	O	2.239958	0.567451	-0.022704
O3	O	1.362428	0.090346	-0.433918
O4	O	1.862428	0.590346	0.066082
O5	O	1.561186	-0.055566	-0.480649
O6	O	2.061186	0.444434	0.019351
O7	O	1.541199	0.213363	-0.475973
O8	O	2.041199	0.713363	0.024027
O9	O	1.523286	-0.027634	-0.244749
O10	O	2.023286	0.472366	0.255251
O11	O	1.324527	0.118278	-0.198019
O12	O	1.824527	0.618278	0.301981
O13	O	1.702058	0.095383	-0.286804
O14	O	2.202058	0.595383	0.213196
Zn15	Zn	1.507275	0.111265	-0.204957
Zn16	Zn	2.007275	0.611265	0.295043
Zn17	Zn	1.557210	0.074464	-0.515765
Zn18	Zn	2.057210	0.574464	-0.015765
O19	O	1.503299	0.241295	-0.240074
O20	O	2.003299	0.741295	0.259926
C21	C	1.295161	0.104756	-0.304606
C22	C	1.795161	0.604756	0.195394
C23	C	1.151192	0.106070	-0.270747
C24	C	1.651192	0.606070	0.229253
C25	C	1.541299	-0.075938	-0.362478
C26	C	2.041299	0.424062	0.137522
C27	C	1.538492	-0.178254	-0.361817
C28	C	2.038492	0.321746	0.138183
C29	C	1.106640	0.092186	-0.377855
C30	C	1.606640	0.592186	0.122145
C31	C	0.957841	0.093543	-0.342864
C32	C	1.457841	0.593543	0.157136
C33	C	1.536212	-0.261346	-0.361284
C34	C	2.036212	0.238654	0.138716
C35	C	1.533364	-0.365591	-0.360625
C36	C	2.033364	0.134409	0.139375
C37	C	1.531104	-0.448679	-0.360102
C38	C	2.031104	0.051321	0.139898
C39	C	1.528255	-0.552930	-0.359440
C40	C	2.028255	-0.052930	0.140560
C41	C	1.769325	0.080972	-0.416120
C42	C	2.269325	0.580972	0.083880
C43	C	1.913295	0.079658	-0.449987
C44	C	2.413295	0.579658	0.050013
C45	C	1.523187	0.261667	-0.358247
C46	C	2.023187	0.761667	0.141753
C47	C	1.525995	0.363982	-0.358917
C48	C	2.025995	0.863982	0.141083
N49	N	1.473205	0.136380	0.007159
N50	N	1.973205	0.636380	0.507159
N51	N	1.591290	0.049341	-0.727883
N52	N	2.091290	0.549341	-0.227883
C53	C	1.545348	0.083197	0.057976
C54	C	2.045348	0.583197	0.557976
C55	C	1.519137	0.102533	0.221306
C56	C	2.019137	0.602533	0.721306
H57	H	0.885827	0.106441	-0.225252
H58	H	1.385827	0.606441	0.274748
C59	C	1.287562	0.167324	0.320074
C60	C	1.787562	0.667324	0.820074
C61	C	1.409549	0.183329	0.325794
C62	C	1.909549	0.683329	0.825794
H63	H	1.219909	0.217200	0.384590
H64	H	1.719909	0.717200	0.884590
H65	H	1.290807	0.164937	0.224032
H66	H	1.790807	0.664937	0.724032
H67	H	1.269231	0.108986	0.347747
H68	H	1.769231	0.608986	0.847747
H69	H	1.427884	0.241664	0.298111
H70	H	1.927884	0.741664	0.798111
H71	H	1.406305	0.185726	0.421857
H72	H	1.906305	0.685726	0.921857
C73	C	1.390685	0.303153	0.070827
C74	C	1.890685	0.803153	0.570827
C75	C	1.363621	0.217175	0.111643
C76	C	1.863621	0.717175	0.611643
H77	H	1.323024	0.353031	0.135326
H78	H	1.823024	0.853031	0.635326
H79	H	1.473436	0.313995	0.074708
H80	H	1.973436	0.813995	0.574708
H81	H	1.393925	0.300746	-0.025229
H82	H	1.893925	0.800746	0.474771
H83	H	1.360391	0.219579	0.207697
H84	H	1.860391	0.719579	0.707697
H85	H	1.280847	0.206330	0.107777
H86	H	1.780847	0.706330	0.607777
C87	C	1.705221	-0.035259	0.026155
C88	C	2.205221	0.464741	0.526155
C89	C	1.700590	-0.031653	0.167702
C90	C	2.200590	0.468347	0.667702
H91	H	1.772618	-0.085315	-0.038284
H92	H	2.272618	0.414685	0.461716
H93	H	1.622319	-0.045876	0.022496
H94	H	2.122319	0.454124	0.522496
H95	H	1.723890	0.022967	-0.001750
H96	H	2.223890	0.522967	0.498250
H97	H	1.681911	-0.089876	0.195611
H98	H	2.181911	0.410124	0.695611
H99	H	1.783511	-0.021043	0.171365
H100	H	2.283511	0.478957	0.671365
H101	H	1.178656	0.079300	-0.495459
H102	H	1.678656	0.579300	0.004541
C103	C	1.139090	0.064275	-0.612701
C104	C	1.639090	0.564275	-0.112701
C105	C	1.010498	0.062252	-0.608764
C106	C	1.510498	0.562252	-0.108764
H107	H	1.199096	0.053524	-0.710722
H108	H	1.699096	0.553524	-0.210722
H109	H	1.142939	0.124286	-0.562752
H110	H	1.642939	0.624286	-0.062752
H111	H	1.162449	0.016373	-0.567318
H112	H	1.662449	0.516373	-0.067318
H113	H	0.987135	0.110158	-0.654138
H114	H	1.487135	0.610158	-0.154138
H115	H	1.006645	0.002233	-0.658734
H116	H	1.506645	0.502233	-0.158734
H117	H	1.079174	0.118966	-0.153143
H118	H	1.579174	0.618966	0.346857
H119	H	1.626513	0.023345	-0.019431
H120	H	2.126513	0.523345	0.480569
