data_functionalizedCrystal
_audit_creation_method	'MofGen! by Chris Wilmer'
_symmetry_space_group_name_H-M	'P1'
_symmetry_Int_Tables_number	1
_symmetry_cell_setting	triclinic
loop_
_symmetry_equiv_pos_as_xyz
  x,y,z
_cell_length_a	8.559649
_cell_length_b	8.559649
_cell_length_c	7.088929
_cell_angle_alpha	95.325015
_cell_angle_beta	84.655815
_cell_angle_gamma	69.778664
loop_
_atom_site_label
_atom_site_type_symbol
_atom_site_fract_x
_atom_site_fract_y
_atom_site_fract_z
O1	O	-0.036318	2.108185	-0.158958
O2	O	0.463682	2.608185	0.341042
O3	O	0.047464	1.632699	-0.158965
O4	O	0.547464	2.132699	0.341035
O5	O	-0.232170	1.912333	-0.158959
O6	O	0.267830	2.412333	0.341041
O7	O	0.243315	1.828551	-0.158964
O8	O	0.743315	2.328551	0.341036
O9	O	-0.269616	1.949712	0.159017
O10	O	0.230384	2.449712	0.659017
O11	O	0.010018	1.670079	0.159011
O12	O	0.510018	2.170079	0.659011
O13	O	-0.073764	2.145564	0.159018
O14	O	0.426236	2.645564	0.659018
Cu15	Cu	-0.035292	1.911235	0.188048
Cu16	Cu	0.464708	2.411235	0.688048
Cu17	Cu	0.008992	1.867029	-0.187995
Cu18	Cu	0.508992	2.367029	0.312005
O19	O	0.205870	1.865931	0.159012
O20	O	0.705870	2.365931	0.659012
C21	C	0.035090	1.591080	0.000022
C22	C	0.535090	2.091080	0.500022
C23	C	0.053990	1.411380	0.000019
C24	C	0.553990	1.911380	0.500019
C25	C	-0.311201	1.937372	0.000026
C26	C	0.188799	2.437372	0.500026
C27	C	-0.490899	1.956269	0.000015
C28	C	0.009101	2.456269	0.500015
C29	C	0.284902	1.840892	0.000023
C30	C	0.784902	2.340892	0.500023
C31	C	0.464601	1.821992	0.000021
C32	C	0.964601	2.321992	0.500021
C33	C	-0.061390	2.187183	0.000027
C34	C	0.438610	2.687183	0.500027
C35	C	-0.080288	2.366881	0.000017
C36	C	0.419712	2.866881	0.500017
N37	N	-0.066441	1.942338	0.452537
N38	N	0.433559	2.442338	0.952537
N39	N	0.040127	1.835940	-0.452484
N40	N	0.540127	2.335940	0.047516
H41	H	-0.209706	1.466259	0.000009
H42	H	0.290294	1.966259	0.500009
H43	H	0.183419	1.311991	0.000007
H44	H	0.683419	1.811991	0.500007
H45	H	-0.436021	1.692573	0.000025
H46	H	0.063979	2.192573	0.500025
Br47	Br	-0.656545	2.172001	0.000053
Br48	Br	-0.156545	2.672001	0.500053
Br49	Br	0.224203	1.652147	0.411434
Br50	Br	0.724203	2.152147	0.911434
Br51	Br	-0.250503	2.126162	0.588626
Br52	Br	0.249497	2.626162	1.088626
