data_functionalizedCrystal
_audit_creation_method	'MofGen! by Chris Wilmer'
_symmetry_space_group_name_H-M	'P1'
_symmetry_Int_Tables_number	1
_symmetry_cell_setting	triclinic
loop_
_symmetry_equiv_pos_as_xyz
  x,y,z
_cell_length_a	12.811438
_cell_length_b	14.044220
_cell_length_c	11.295483
_cell_angle_alpha	85.531368
_cell_angle_beta	88.710055
_cell_angle_gamma	88.596945
loop_
_atom_site_label
_atom_site_type_symbol
_atom_site_fract_x
_atom_site_fract_y
_atom_site_fract_z
O1	O	1.401198	0.131094	-0.052310
O2	O	1.099051	0.142883	-0.019674
O3	O	1.245588	-0.001045	-0.035514
O4	O	1.254660	0.275022	-0.036470
O5	O	1.232716	0.011577	-0.232173
O6	O	1.086178	0.155505	-0.216333
O7	O	1.388325	0.143716	-0.248970
Cu8	Cu	1.236076	0.150763	-0.250608
Cu9	Cu	1.251300	0.135836	-0.018035
O10	O	1.241788	0.287644	-0.233129
C11	C	1.053713	0.148145	-0.113801
C12	C	0.937796	0.145010	-0.101281
C13	C	0.781431	0.133711	0.023551
C14	C	0.890345	0.136656	0.011797
C15	C	0.876326	0.150416	-0.202613
C16	C	0.767411	0.147472	-0.190859
C17	C	0.719968	0.139120	-0.077773
C18	C	0.611051	0.136182	-0.066020
C19	C	0.597034	0.149936	-0.280429
C20	C	0.705948	0.152881	-0.292183
C21	C	1.235182	-0.030092	-0.133415
C22	C	1.223338	-0.135447	-0.132137
C23	C	1.201688	-0.328345	-0.129782
C24	C	1.285684	-0.385062	-0.138851
C25	C	1.273638	-0.492397	-0.137540
C26	C	1.213733	-0.221000	-0.131092
C27	C	1.433664	0.138454	-0.154839
C28	C	1.549580	0.141589	-0.167352
C29	C	1.252195	0.316690	-0.135226
C30	C	1.264038	0.422045	-0.136496
N31	N	1.225377	0.161261	-0.414188
C32	C	1.339024	0.049706	-0.675762
C33	C	1.330946	0.057646	-0.799552
C34	C	1.201138	0.185077	-0.785561
C35	C	1.209216	0.177137	-0.661770
C36	C	1.278163	0.109450	-0.606876
C37	C	1.286245	0.101515	-0.483083
C38	C	1.156432	0.228940	-0.469093
C39	C	1.148355	0.236880	-0.592884
N40	N	1.262007	0.125331	0.145543
H41	H	0.742801	0.126921	0.115630
H42	H	1.366649	-0.353012	-0.147516
H43	H	1.092217	0.291987	-0.637593
C44	C	1.092321	-0.371648	-0.117984
N45	N	1.009946	-0.404273	-0.109107
C46	C	1.362084	0.027056	-0.422701
N47	N	1.419204	-0.029031	-0.377224
C48	C	1.397896	-0.008080	-0.875323
N49	N	1.448323	-0.057589	-0.932394
H50	H	1.395170	-0.005401	-0.631067
H51	H	1.106878	0.277590	-0.412992
C52	C	0.558865	0.126991	0.058376
N53	N	0.519563	0.120063	0.152074
C54	C	1.125277	0.259503	-0.845964
N55	N	1.068129	0.315556	-0.891461
H56	H	0.914974	0.157205	-0.294682
C57	C	0.957951	0.130705	0.123263
N58	N	1.008872	0.126222	0.207223
H59	H	0.744592	0.159677	-0.384255
H60	H	0.546979	0.154345	-0.362935
