data_functionalizedCrystal
_audit_creation_method	'MofGen! by Chris Wilmer'
_symmetry_space_group_name_H-M	'P1'
_symmetry_Int_Tables_number	1
_symmetry_cell_setting	triclinic
loop_
_symmetry_equiv_pos_as_xyz
  x,y,z
_cell_length_a	23.532407
_cell_length_b	14.519709
_cell_length_c	12.996460
_cell_angle_alpha	90.007090
_cell_angle_beta	90.000251
_cell_angle_gamma	83.264411
loop_
_atom_site_label
_atom_site_type_symbol
_atom_site_fract_x
_atom_site_fract_y
_atom_site_fract_z
O1	O	0.755765	0.111951	0.085441
O2	O	1.005765	0.361951	0.335441
O3	O	1.255765	0.611951	0.585441
O4	O	1.505765	0.861951	0.835441
O5	O	0.589975	0.128149	0.085471
O6	O	0.839975	0.378149	0.335471
O7	O	1.089975	0.628149	0.585471
O8	O	1.339975	0.878149	0.835471
O9	O	0.677266	-0.014240	0.085446
O10	O	0.927266	0.235760	0.335446
O11	O	1.177266	0.485760	0.585446
O12	O	1.427266	0.735760	0.835446
O13	O	0.668475	0.254341	0.085466
O14	O	0.918475	0.504341	0.335466
O15	O	1.168475	0.754341	0.585466
O16	O	1.418475	1.004341	0.835466
O17	O	0.677257	-0.014248	-0.085688
O18	O	0.927257	0.235752	0.164312
O19	O	1.177257	0.485752	0.414312
O20	O	1.427257	0.735752	0.664312
O21	O	0.589966	0.128141	-0.085663
O22	O	0.839966	0.378141	0.164337
O23	O	1.089966	0.628141	0.414337
O24	O	1.339966	0.878141	0.664337
O25	O	0.755756	0.111943	-0.085693
O26	O	1.005756	0.361943	0.164307
O27	O	1.255756	0.611943	0.414307
O28	O	1.505756	0.861943	0.664307
Cu29	Cu	0.672860	0.120042	-0.101304
Cu30	Cu	0.922860	0.370042	0.148696
Cu31	Cu	1.172860	0.620042	0.398696
Cu32	Cu	1.422860	0.870042	0.648696
Cu33	Cu	0.672871	0.120051	0.101082
Cu34	Cu	0.922871	0.370051	0.351082
Cu35	Cu	1.172871	0.620051	0.601082
Cu36	Cu	1.422871	0.870051	0.851082
O37	O	0.668465	0.254333	-0.085668
O38	O	0.918465	0.504333	0.164332
O39	O	1.168465	0.754333	0.414332
O40	O	1.418465	1.004333	0.664332
C41	C	0.568753	0.127733	-0.000092
C42	C	0.818753	0.377733	0.249908
C43	C	1.068753	0.627733	0.499908
C44	C	1.318753	0.877733	0.749908
C45	C	0.505530	0.126493	-0.000081
C46	C	0.755530	0.376493	0.249919
C47	C	1.005530	0.626493	0.499919
C48	C	1.255530	0.876493	0.749919
C49	C	0.676852	-0.048599	-0.000121
C50	C	0.926852	0.201401	0.249879
C51	C	1.176852	0.451401	0.499879
C52	C	1.426852	0.701401	0.749879
C53	C	0.675624	-0.150966	-0.000121
C54	C	0.925624	0.099034	0.249879
C55	C	1.175624	0.349034	0.499879
C56	C	1.425624	0.599034	0.749879
C57	C	0.671104	-0.525808	-0.000094
C58	C	0.921104	-0.275808	0.249906
C59	C	1.171104	-0.025808	0.499906
C60	C	1.421104	0.224192	0.749906
C61	C	0.672359	-0.421515	-0.000102
C62	C	0.922359	-0.171515	0.249898
C63	C	1.172359	0.078485	0.499898
C64	C	1.422359	0.328485	0.749898
C65	C	0.673364	-0.338390	-0.000109
C66	C	0.923364	-0.088390	0.249891
C67	C	1.173364	0.161610	0.499891
C68	C	1.423364	0.411610	0.749891
C69	C	0.674619	-0.234091	-0.000115
C70	C	0.924619	0.015909	0.249885
C71	C	1.174619	0.265909	0.499885
C72	C	1.424619	0.515909	0.749885
C73	C	0.106772	0.202977	-0.000121
C74	C	0.356772	0.452977	0.249879
C75	C	0.606772	0.702977	0.499879
C76	C	0.856772	0.952977	0.749879
C77	C	0.047367	0.201825	-0.000128
C78	C	0.297367	0.451825	0.249872
C79	C	0.547367	0.701825	0.499872
C80	C	0.797367	0.951825	0.749872
O81	O	0.010942	0.272727	-0.000160
O82	O	0.260942	0.522727	0.249840
O83	O	0.510942	0.772727	0.499840
O84	O	0.760942	1.022727	0.749840
N85	N	0.024358	0.117175	-0.000132
N86	N	0.274358	0.367175	0.249868
N87	N	0.524358	0.617175	0.499868
N88	N	0.774358	0.867175	0.749868
C89	C	0.060759	0.033671	-0.000141
C90	C	0.310759	0.283671	0.249859
C91	C	0.560759	0.533671	0.499859
C92	C	0.810759	0.783671	0.749859
O93	O	0.035734	-0.038437	-0.000147
O94	O	0.285734	0.211563	0.249853
O95	O	0.535734	0.461563	0.499853
O96	O	0.785734	0.711563	0.749853
C97	C	0.120164	0.034824	-0.000142
C98	C	0.370164	0.284824	0.249858
C99	C	0.620164	0.534824	0.499858
C100	C	0.870164	0.784824	0.749858
C101	C	0.143168	0.119480	-0.000127
C102	C	0.393168	0.369480	0.249873
C103	C	0.643168	0.619480	0.499873
C104	C	0.893168	0.869480	0.749873
C105	C	0.129777	0.287626	-0.000107
C106	C	0.379777	0.537626	0.249893
C107	C	0.629777	0.787626	0.499893
C108	C	0.879777	1.037626	0.749893
C109	C	0.189179	0.288778	-0.000099
C110	C	0.439179	0.538778	0.249901
C111	C	0.689179	0.788778	0.499901
C112	C	0.939179	1.038778	0.749901
C113	C	0.225575	0.205281	-0.000105
C114	C	0.475575	0.455281	0.249895
C115	C	0.725575	0.705281	0.499895
C116	C	0.975575	0.955281	0.749895
C117	C	0.202570	0.120631	-0.000119
C118	C	0.452570	0.370631	0.249881
C119	C	0.702570	0.620631	0.499881
C120	C	0.952570	0.870631	0.749881
C121	C	0.156563	-0.048679	-0.000158
C122	C	0.406563	0.201321	0.249842
C123	C	0.656563	0.451321	0.499842
C124	C	0.906563	0.701321	0.749842
C125	C	0.215971	-0.047519	-0.000160
C126	C	0.465971	0.202481	0.249840
C127	C	0.715971	0.452481	0.499840
C128	C	0.965971	0.702481	0.749840
C129	C	0.238976	0.037137	-0.000145
C130	C	0.488976	0.287137	0.249855
C131	C	0.738976	0.537137	0.499855
C132	C	0.988976	0.787137	0.749855
C133	C	0.298367	0.038286	-0.000116
C134	C	0.548367	0.288286	0.249884
C135	C	0.798367	0.538286	0.499884
C136	C	1.048367	0.788286	0.749884
N137	N	0.321375	0.122936	-0.000111
N138	N	0.571375	0.372936	0.249889
N139	N	0.821375	0.622936	0.499889
N140	N	1.071375	0.872936	0.749889
C141	C	0.284979	0.206434	-0.000106
C142	C	0.534979	0.456434	0.249894
C143	C	0.784979	0.706434	0.499894
C144	C	1.034979	0.956434	0.749894
C145	C	-0.063994	0.031256	-0.000141
C146	C	0.186006	0.281256	0.249859
C147	C	0.436006	0.531256	0.499859
C148	C	0.686006	0.781256	0.749859
C149	C	-0.123397	0.030102	-0.000133
C150	C	0.126603	0.280102	0.249867
C151	C	0.376603	0.530102	0.499867
C152	C	0.626603	0.780102	0.749867
C153	C	-0.136786	0.198257	-0.000121
C154	C	0.113214	0.448257	0.249879
C155	C	0.363214	0.698257	0.499879
C156	C	0.613214	0.948257	0.749879
C157	C	-0.077382	0.199410	-0.000122
C158	C	0.172618	0.449410	0.249878
C159	C	0.422618	0.699410	0.499878
C160	C	0.672618	0.949410	0.749878
C161	C	-0.040986	0.115906	-0.000136
C162	C	0.209014	0.365906	0.249864
C163	C	0.459014	0.615906	0.499864
C164	C	0.709014	0.865906	0.749864
C165	C	0.409727	0.208846	-0.000087
C166	C	0.659727	0.458846	0.249913
C167	C	0.909727	0.708846	0.499913
C168	C	1.159727	0.958846	0.749913
C169	C	0.469134	0.209990	-0.000075
C170	C	0.719134	0.459990	0.249925
C171	C	0.969134	0.709990	0.499925
C172	C	1.219134	0.959990	0.749925
C173	C	0.482517	0.041836	-0.000092
C174	C	0.732517	0.291836	0.249908
C175	C	0.982517	0.541836	0.499908
C176	C	1.232517	0.791836	0.749908
C177	C	0.423115	0.040691	-0.000099
C178	C	0.673115	0.290691	0.249901
C179	C	0.923115	0.540691	0.499901
C180	C	1.173115	0.790691	0.749901
C181	C	0.386721	0.124204	-0.000100
C182	C	0.636721	0.374204	0.249900
C183	C	0.886721	0.624204	0.499900
C184	C	1.136721	0.874204	0.749900
O185	O	0.334827	-0.032579	-0.000088
O186	O	0.584827	0.217421	0.249912
O187	O	0.834827	0.467421	0.499912
O188	O	1.084827	0.717421	0.749912
O189	O	0.310012	0.278529	-0.000114
O190	O	0.560012	0.528529	0.249886
O191	O	0.810012	0.778529	0.499886
O192	O	1.060012	1.028529	0.749886
C193	C	0.776979	0.112360	-0.000128
C194	C	1.026979	0.362360	0.249872
C195	C	1.276979	0.612360	0.499872
C196	C	1.526979	0.862360	0.749872
C197	C	0.840201	0.113600	-0.000132
C198	C	1.090201	0.363600	0.249868
C199	C	1.340201	0.613600	0.499868
C200	C	1.590201	0.863600	0.749868
C201	C	0.668880	0.288692	-0.000099
C202	C	0.918880	0.538692	0.249901
C203	C	1.168880	0.788692	0.499901
C204	C	1.418880	1.038692	0.749901
C205	C	0.670107	0.391058	-0.000091
C206	C	0.920107	0.641058	0.249909
C207	C	1.170107	0.891058	0.499909
C208	C	1.420107	1.141058	0.749909
N209	N	0.672857	0.120035	-0.243651
N210	N	0.922857	0.370035	0.006349
N211	N	1.172857	0.620035	0.256349
N212	N	1.422857	0.870035	0.506349
C213	C	0.672870	0.120052	-0.663465
C214	C	0.922870	0.370052	-0.413465
C215	C	1.172870	0.620052	-0.163465
C216	C	1.422870	0.870052	0.086535
C217	C	0.672865	0.120050	-0.546660
C218	C	0.922865	0.370050	-0.296660
C219	C	1.172865	0.620050	-0.046660
C220	C	1.422865	0.870050	0.203340
C221	C	0.672864	0.120044	-0.453562
C222	C	0.922864	0.370044	-0.203562
C223	C	1.172864	0.620044	0.046438
C224	C	1.422864	0.870044	0.296438
C225	C	0.672858	0.120041	-0.336749
C226	C	0.922858	0.370041	-0.086749
C227	C	1.172858	0.620041	0.163251
C228	C	1.422858	0.870041	0.413251
N229	N	0.672879	0.120050	0.243429
N230	N	0.922879	0.370050	0.493429
N231	N	1.172879	0.620050	0.743429
N232	N	1.422879	0.870050	0.993429
H233	H	0.487860	0.278930	-0.000062
H234	H	0.737860	0.528930	0.249938
H235	H	0.987860	0.778930	0.499938
H236	H	1.237860	1.028930	0.749938
Br237	Br	0.080392	0.400961	-0.000100
Br238	Br	0.330392	0.650961	0.249900
Br239	Br	0.580392	0.900961	0.499900
Br240	Br	0.830392	1.150961	0.749900
Br241	Br	0.360343	0.322185	-0.000091
Br242	Br	0.610343	0.572185	0.249909
Br243	Br	0.860343	0.822185	0.499909
Br244	Br	1.110343	1.072185	0.749909
Br245	Br	0.220389	0.403674	-0.000083
Br246	Br	0.470389	0.653674	0.249917
Br247	Br	0.720389	0.903674	0.499917
Br248	Br	0.970389	1.153674	0.749917
Br249	Br	-0.186192	0.311576	-0.000116
Br250	Br	0.063808	0.561576	0.249884
Br251	Br	0.313808	0.811576	0.499884
Br252	Br	0.563808	1.061576	0.749884
H253	H	-0.058656	0.268344	-0.000116
H254	H	0.191344	0.518344	0.249884
H255	H	0.441344	0.768344	0.499884
H256	H	0.691344	1.018344	0.749884
Br257	Br	0.265362	-0.160852	-0.000185
Br258	Br	0.515362	0.089148	0.249815
Br259	Br	0.765362	0.339148	0.499815
Br260	Br	1.015362	0.589148	0.749815
H261	H	-0.142122	-0.038834	-0.000129
H262	H	0.107878	0.211166	0.249871
H263	H	0.357878	0.461166	0.499871
H264	H	0.607878	0.711166	0.749871
H265	H	-0.034363	-0.036747	-0.000143
H266	H	0.215637	0.213253	0.249857
H267	H	0.465637	0.463253	0.499857
H268	H	0.715637	0.713253	0.749857
Br269	Br	0.125358	-0.163577	-0.000156
Br270	Br	0.375358	0.086423	0.249844
Br271	Br	0.625358	0.336423	0.499844
Br272	Br	0.875358	0.586423	0.749844
H273	H	0.404384	-0.028243	-0.000096
H274	H	0.654384	0.221757	0.249904
H275	H	0.904384	0.471757	0.499904
H276	H	1.154384	0.721757	0.749904
H277	H	0.512162	-0.026146	-0.000092
H278	H	0.762162	0.223854	0.249908
H279	H	1.012162	0.473854	0.499908
H280	H	1.262162	0.723854	0.749908
