data_functionalizedCrystal
_audit_creation_method	'MofGen! by Chris Wilmer'
_symmetry_space_group_name_H-M	'P1'
_symmetry_Int_Tables_number	1
_symmetry_cell_setting	triclinic
loop_
_symmetry_equiv_pos_as_xyz
  x,y,z
_cell_length_a	14.446369
_cell_length_b	20.919309
_cell_length_c	20.919309
_cell_angle_alpha	60.101124
_cell_angle_beta	89.999790
_cell_angle_gamma	62.592764
loop_
_atom_site_label
_atom_site_type_symbol
_atom_site_fract_x
_atom_site_fract_y
_atom_site_fract_z
Zr1	Zr	0.936766	0.692470	-0.106868
O2	O	0.801844	0.817992	-0.209962
O3	O	0.972727	0.561642	-0.071801
O4	O	0.987169	0.684825	-0.204975
O5	O	0.782153	0.702690	0.024321
O6	O	1.139498	0.684830	-0.204980
O7	O	0.787403	0.694809	-0.076789
O8	O	1.113665	0.464479	0.033243
O9	O	0.807987	0.923041	-0.213902
O10	O	1.108269	0.617423	-0.061034
O11	O	0.990670	0.623300	0.014427
O12	O	1.007673	0.768332	-0.142368
O13	O	0.890074	0.774209	-0.066906
Zr14	Zr	1.171341	0.705048	0.054381
Zr15	Zr	1.179714	0.692479	-0.106877
Zr16	Zr	0.928394	0.705039	0.054390
Zr17	Zr	0.946562	0.860012	-0.113152
Zr18	Zr	1.161545	0.537506	0.060665
O19	O	1.135380	0.835875	0.019313
O20	O	1.147285	0.818004	-0.209975
O21	O	0.789940	0.835863	0.019326
O22	O	1.306263	0.579526	0.157475
O23	O	1.318168	0.561654	-0.071814
O24	O	0.960823	0.579514	0.157488
O25	O	1.325954	0.694828	-0.076809
O26	O	1.120939	0.712692	0.152487
O27	O	0.968609	0.712687	0.152493
O28	O	1.320705	0.702709	0.024301
O29	O	1.001098	0.923048	-0.213909
O30	O	1.107010	0.474470	0.161422
O31	O	1.300121	0.474476	0.161415
O32	O	1.306776	0.464486	0.033236
O33	O	0.801332	0.933032	-0.085723
O34	O	0.994443	0.933039	-0.085731
O35	O	1.100434	0.629186	0.089880
O36	O	1.218033	0.623308	0.014419
O37	O	1.117437	0.774217	-0.066915
O38	O	0.999838	0.780095	0.008546
C39	C	1.041800	0.489190	-0.018384
C40	C	1.037641	0.418064	-0.015716
C41	C	0.750163	0.698748	-0.026233
C42	C	0.647025	0.698745	-0.026229
C43	C	0.563804	0.603557	0.024821
C44	C	0.671114	0.603512	0.025095
C45	C	0.573535	0.750568	0.006643
C46	C	0.466622	0.749967	0.007008
C47	C	0.471252	0.742870	-0.110255
C48	C	0.579807	0.741017	-0.110051
C49	C	1.097070	0.381581	-0.053853
C50	C	1.093165	0.314746	-0.051339
C51	C	1.029824	0.284400	-0.010692
C52	C	0.970393	0.320886	0.027449
C53	C	0.974305	0.387715	0.024939
C54	C	1.014947	0.082769	-0.001140
C55	C	1.011037	0.015937	0.001365
C56	C	1.133811	0.009800	-0.077422
C57	C	1.137712	0.076635	-0.079932
C58	C	1.078286	0.113112	-0.041787
C59	C	1.025828	0.216086	-0.008124
C60	C	1.082289	0.181420	-0.044351
C61	C	1.357944	0.698769	-0.026255
C62	C	1.461082	0.698773	-0.026259
C63	C	1.064526	0.683037	-0.227953
C64	C	1.068081	0.677701	-0.296412
C65	C	1.066307	0.908328	-0.034104
C66	C	1.070466	0.979454	-0.036772
C67	C	1.017242	0.753965	-0.371029
C68	C	1.020596	0.748947	-0.435350
C69	C	1.074782	0.667663	-0.425052
C70	C	1.125628	0.591393	-0.350427
C71	C	1.122280	0.596413	-0.286108
C72	C	1.087524	0.648566	-0.617131
C73	C	1.090865	0.643552	-0.681459
C74	C	0.985835	0.801107	-0.766377
C75	C	0.982486	0.806119	-0.702052
C76	C	1.033336	0.729849	-0.627433
C77	C	1.078209	0.662531	-0.490798
C78	C	1.029916	0.734982	-0.561690
C79	C	1.043581	0.714481	0.175466
C80	C	1.040027	0.719816	0.243924
C81	C	1.345691	0.489200	-0.018395
C82	C	1.444670	0.418078	-0.015731
C83	C	1.031327	0.504911	0.183326
C84	C	1.023614	0.439121	0.254452
C85	C	1.335218	0.504922	0.183315
C86	C	1.430643	0.439136	0.254437
C87	C	0.772889	0.892596	-0.235802
C88	C	0.677465	0.958382	-0.306924
C89	C	0.762417	0.908317	-0.034093
C90	C	0.663438	0.979440	-0.036757
C91	C	1.076780	0.892606	-0.235813
C92	C	1.084493	0.958396	-0.306939
C93	C	1.433856	0.381606	-0.053872
C94	C	1.526849	0.314787	-0.051385
C95	C	1.630655	0.284437	-0.010751
C96	C	1.641467	0.320916	0.027391
C97	C	1.548475	0.387738	0.024899
C98	C	1.077287	0.411298	0.327246
C99	C	1.070036	0.349491	0.394082
C100	C	1.009118	0.315504	0.388123
C101	C	0.955438	0.343333	0.315321
C102	C	0.962683	0.405143	0.248487
C103	C	1.536851	0.405174	0.248447
C104	C	1.626523	0.343369	0.315267
C105	C	1.609984	0.315523	0.388077
C106	C	1.503764	0.349491	0.394066
C107	C	1.414095	0.411299	0.327246
C108	C	0.571257	0.992352	-0.300935
C109	C	0.481586	1.054177	-0.367756
C110	C	0.498126	1.082027	-0.440566
C111	C	0.604345	1.048054	-0.446554
C112	C	0.694013	0.986235	-0.379734
C113	C	0.674252	1.015919	0.001378
C114	C	0.581261	1.082754	-0.001128
C115	C	0.477456	1.113106	-0.041764
C116	C	0.466643	1.076624	-0.079904
C117	C	0.559634	1.009794	-0.077402
C118	C	1.145421	0.992364	-0.300955
C119	C	1.152689	1.054173	-0.367779
C120	C	1.099023	1.082016	-0.440587
C121	C	1.038093	1.048042	-0.446569
C122	C	1.030832	0.986230	-0.379746
H123	H	0.724335	0.563172	0.003244
H124	H	0.401745	1.167524	-0.043795
C125	C	0.373830	0.837570	-0.161852
N126	N	0.300448	0.908895	-0.200708
H127	H	1.134989	0.577358	-0.673065
H128	H	0.590085	1.112447	0.029933
C129	C	0.963786	0.948884	-0.386342
N130	N	0.913282	0.920760	-0.391316
H131	H	0.617799	1.070737	-0.505844
H132	H	0.393961	0.820019	-0.027986
H133	H	0.552263	0.820759	-0.028924
H134	H	1.713003	0.315718	0.310377
H135	H	1.202302	1.081829	-0.362893
C136	C	0.903647	0.435732	0.168415
N137	N	0.859179	0.458767	0.108106
C138	C	1.514931	0.274664	-0.093339
N139	N	1.505951	0.244444	-0.124936
C140	C	0.364755	1.091535	-0.361151
N141	N	0.276760	1.119671	-0.356174
C142	C	1.708634	0.247525	0.461574
N143	N	1.782942	0.196305	0.516930
H144	H	0.905838	0.315651	0.310481
C145	C	0.788430	0.982549	0.046079
N146	N	0.874427	0.957423	0.079746
H147	H	1.706366	0.230025	-0.008727
H148	H	1.490314	0.326810	0.453356
H149	H	0.382113	1.101347	-0.112989
C150	C	0.956146	0.182705	0.036580
N151	N	0.903662	0.157560	0.070251
C152	C	1.166751	0.414955	-0.098567
N153	N	1.219241	0.440087	-0.132245
H154	H	0.425102	1.132365	-0.494969
H155	H	0.719557	0.569339	0.087127
H156	H	1.126894	0.438964	0.332113
H157	H	0.557769	0.969681	-0.241655
C158	C	1.151947	0.214813	-0.089072
N159	N	1.204405	0.239976	-0.122763
C160	C	0.547718	0.969664	-0.119345
N161	N	0.538735	0.939441	-0.150938
C162	C	1.755663	0.287516	0.072093
N163	N	1.841677	0.262351	0.105767
C164	C	1.297267	0.448649	0.333848
N165	N	1.209272	0.476780	0.338827
H166	H	1.163678	0.534310	-0.225351
C167	C	1.204471	0.961743	-0.220873
N168	N	1.248958	0.938679	-0.160557
C169	C	1.560388	0.427843	0.066869
N170	N	1.569368	0.458045	0.098485
H171	H	0.944437	0.863201	-0.827137
H172	H	0.994400	1.070722	-0.505858
H173	H	0.918826	0.296169	0.060549
C174	C	0.636350	0.710778	0.089223
N175	N	0.683663	0.680801	0.151425
C176	C	1.107020	1.150014	-0.514088
N177	N	1.113044	1.201231	-0.569446
C178	C	0.970317	0.824392	-0.573014
N179	N	0.925424	0.891735	-0.581537
C180	C	1.129104	0.318882	0.474157
N181	N	1.173599	0.295827	0.534467
H182	H	1.003227	0.265174	0.442550
C183	C	0.922885	0.895538	-0.713388
N184	N	0.877993	0.962889	-0.721927
H185	H	0.780490	0.958576	-0.384620
H186	H	0.559452	0.569622	0.086470
C187	C	0.459994	0.709164	0.090398
N188	N	0.455009	0.678426	0.153210
C189	C	0.565517	0.548668	-0.004504
N190	N	0.566801	0.507324	-0.026591
H191	H	0.466787	0.708960	-0.138069
H192	H	0.979200	0.811049	-0.496105
H193	H	0.973110	0.820156	-0.379423
C194	C	1.185231	0.501980	-0.339102
N195	N	1.230120	0.434632	-0.330570
C196	C	0.553721	0.834507	-0.165402
N197	N	0.534075	0.904926	-0.207090
C198	C	1.207396	0.110007	-0.124643
N199	N	1.259881	0.135145	-0.158322
C200	C	0.648262	0.689901	-0.143271
N201	N	0.699829	0.651397	-0.168289
H202	H	1.349342	0.406314	-0.086970
C203	C	1.143450	0.564666	-0.535058
N204	N	1.185573	0.501469	-0.473235
H205	H	1.182194	-0.019906	-0.108477
H206	H	1.141557	0.285041	-0.082392
H207	H	0.959452	-0.008767	0.034464
H208	H	1.550338	0.427836	0.189167
H209	H	0.966562	0.112458	0.029924
H210	H	0.925909	0.417421	0.055992
H211	H	1.122327	0.596349	-0.482421
