data_functionalizedCrystal
_audit_creation_method	'MofGen! by Chris Wilmer'
_symmetry_space_group_name_H-M	'P1'
_symmetry_Int_Tables_number	1
_symmetry_cell_setting	triclinic
loop_
_symmetry_equiv_pos_as_xyz
  x,y,z
_cell_length_a	19.188930
_cell_length_b	8.559649
_cell_length_c	7.681215
_cell_angle_alpha	82.929706
_cell_angle_beta	96.450142
_cell_angle_gamma	103.538277
loop_
_atom_site_label
_atom_site_type_symbol
_atom_site_fract_x
_atom_site_fract_y
_atom_site_fract_z
O1	O	-0.018526	-2.133742	0.146401
O2	O	0.481474	-1.633742	0.646401
O3	O	0.017546	-1.668288	0.146420
O4	O	0.517546	-1.168288	0.646420
O5	O	-0.102849	-1.914444	0.146376
O6	O	0.397151	-1.414444	0.646376
O7	O	0.101869	-1.887586	0.146445
O8	O	0.601869	-1.387586	0.646445
O9	O	-0.113192	-1.887519	-0.146498
O10	O	0.386808	-1.387519	0.353502
O11	O	0.007203	-1.641363	-0.146454
O12	O	0.507203	-1.141363	0.353546
O13	O	-0.028869	-2.106818	-0.146472
O14	O	0.471131	-1.606818	0.353528
Zn15	Zn	-0.012475	-1.869816	-0.192963
Zn16	Zn	0.487525	-1.369816	0.307037
Zn17	Zn	0.001152	-1.905290	0.192910
Zn18	Zn	0.501152	-1.405290	0.692910
O19	O	0.091526	-1.860662	-0.146428
O20	O	0.591526	-1.360662	0.353572
C21	C	0.015108	-1.595277	-0.000015
C22	C	0.515108	-1.095277	0.499985
C23	C	0.023245	-1.417840	-0.000010
C24	C	0.523245	-0.917840	0.499990
C25	C	-0.133986	-1.900111	-0.000066
C26	C	0.366014	-1.400111	0.499934
C27	C	-0.211355	-1.897498	-0.000081
C28	C	0.288645	-1.397498	0.499919
C29	C	-0.026431	-2.179829	-0.000033
C30	C	0.473569	-1.679829	0.499967
C31	C	-0.034567	-2.357266	-0.000027
C32	C	0.465433	-1.857266	0.499973
C33	C	-0.263831	-2.041936	-0.000095
C34	C	0.236169	-1.541936	0.499905
C35	C	-0.336526	-2.039485	-0.000067
C36	C	0.163474	-1.539485	0.499933
C37	C	-0.356741	-1.892585	-0.000060
C38	C	0.143259	-1.392585	0.499940
C39	C	-0.304253	-1.748130	-0.000036
C40	C	0.195747	-1.248130	0.499964
C41	C	-0.231560	-1.750586	-0.000047
C42	C	0.268440	-1.250586	0.499953
N43	N	-0.462395	-1.771135	-0.099726
N44	N	0.037605	-1.271135	0.400274
N45	N	-0.531452	-1.768811	-0.099719
N46	N	-0.031452	-1.268811	0.400281
C47	C	-0.575761	-1.885175	-0.000024
C48	C	-0.075761	-1.385175	0.499976
N49	N	-0.548408	-2.003974	0.099643
N50	N	-0.048408	-1.503974	0.599643
N51	N	-0.479346	-2.006302	0.099629
N52	N	0.020654	-1.506302	0.599629
C53	C	-0.435563	-1.889905	-0.000047
C54	C	0.064437	-1.389905	0.499953
C55	C	-0.707062	-2.026965	-0.000005
C56	C	-0.207062	-1.526965	0.499995
C57	C	-0.779757	-2.024509	0.000034
C58	C	-0.279757	-1.524509	0.500034
C59	C	-0.747483	-1.733148	0.000048
C60	C	-0.247483	-1.233148	0.500048
C61	C	-0.674790	-1.735610	0.000026
C62	C	-0.174790	-1.235610	0.500026
C63	C	-0.654584	-1.882522	-0.000008
C64	C	-0.154584	-1.382522	0.499992
C65	C	0.122664	-1.874995	0.000018
C66	C	0.622664	-1.374995	0.500018
C67	C	0.200033	-1.877608	0.000044
C68	C	0.700033	-1.377608	0.500044
N69	N	-0.021776	-1.845617	-0.456311
N70	N	0.478224	-1.345617	0.043689
N71	N	0.010448	-1.929501	0.456258
N72	N	0.510448	-1.429501	0.956258
H73	H	-0.247385	-2.161563	-0.000117
H74	H	0.252615	-1.661563	0.499883
C75	C	0.054880	-2.045137	-0.442100
C76	C	0.554880	-1.545137	0.057900
H77	H	0.074161	-2.095357	-0.523260
H78	H	0.574161	-1.595357	-0.023260
H79	H	0.093054	-1.986003	-0.370170
H80	H	0.593054	-1.486003	0.129830
H81	H	0.024828	-2.125417	-0.370183
H82	H	0.524828	-1.625417	0.129817
C83	C	-0.394260	-2.198370	-0.000095
C84	C	0.105740	-1.698370	0.499905
H85	H	-0.371815	-2.286214	-0.000128
H86	H	0.128185	-1.786214	0.499872
H87	H	-0.419678	-2.212867	0.102034
H88	H	0.080322	-1.712867	0.602034
H89	H	-0.426898	-2.194057	-0.102241
H90	H	0.073102	-1.694057	0.397759
H91	H	-0.054669	-1.760035	-0.531558
H92	H	0.445331	-1.260035	-0.031558
C93	C	-0.326484	-1.586541	-0.000021
C94	C	0.173516	-1.086541	0.499979
H95	H	-0.284815	-1.500868	0.000001
H96	H	0.215185	-1.000868	0.500001
H97	H	-0.357785	-1.570128	-0.102146
H98	H	0.142215	-1.070128	0.397854
H99	H	-0.350555	-1.588928	0.102129
H100	H	0.149445	-1.088928	0.602129
H101	H	-0.632062	-1.617992	0.000028
H102	H	-0.132062	-1.117992	0.500028
H103	H	-0.690610	-2.146590	-0.000025
H104	H	-0.190610	-1.646590	0.499975
C105	C	-0.173834	-1.591697	-0.000048
C106	C	0.326166	-1.091697	0.499952
H107	H	-0.196282	-1.503853	-0.000048
H108	H	0.303718	-1.003853	0.499952
H109	H	-0.141187	-1.595987	0.102073
H110	H	0.358813	-1.095987	0.602073
H111	H	-0.148426	-1.577213	-0.102203
H112	H	0.351574	-1.077213	0.397797
C113	C	-0.837485	-2.183396	0.000039
C114	C	-0.337485	-1.683396	0.500039
H115	H	-0.883672	-2.160899	0.000077
H116	H	-0.383672	-1.660899	0.500077
H117	H	-0.835821	-2.234268	-0.102098
H118	H	-0.335821	-1.734268	0.397902
H119	H	-0.828580	-2.253040	0.102177
H120	H	-0.328580	-1.753040	0.602177
C121	C	-0.769712	-1.571562	0.000061
C122	C	-0.269712	-1.071562	0.500061
H123	H	-0.820522	-1.590782	0.000058
H124	H	-0.320522	-1.090782	0.500058
H125	H	-0.747552	-1.521499	0.102192
H126	H	-0.247552	-1.021499	0.602192
H127	H	-0.754785	-1.502720	-0.102083
H128	H	-0.254785	-1.002720	0.397917
C129	C	-0.109844	-1.470578	-0.000058
C130	C	0.390156	-0.970578	0.499942
H131	H	-0.105622	-1.578969	-0.000072
H132	H	0.394378	-1.078969	0.499928
H133	H	-0.131569	-1.460736	0.102062
H134	H	0.368431	-0.960736	0.602062
H135	H	-0.138778	-1.441953	-0.102213
H136	H	0.361222	-0.941953	0.397787
C137	C	0.098528	-1.304529	0.000027
C138	C	0.598528	-0.804529	0.500027
H139	H	0.133705	-1.366325	0.000050
H140	H	0.633705	-0.866325	0.500050
H141	H	0.100558	-1.229288	-0.102095
H142	H	0.600558	-0.729288	0.397905
H143	H	0.107767	-1.248086	0.102181
H144	H	0.607767	-0.748086	0.602181
