data_functionalizedCrystal
_audit_creation_method	'MofGen! by Chris Wilmer'
_symmetry_space_group_name_H-M	'P1'
_symmetry_Int_Tables_number	1
_symmetry_cell_setting	triclinic
loop_
_symmetry_equiv_pos_as_xyz
  x,y,z
_cell_length_a	17.077403
_cell_length_b	17.077404
_cell_length_c	17.077404
_cell_angle_alpha	90.005946
_cell_angle_beta	89.998580
_cell_angle_gamma	89.999063
loop_
_atom_site_label
_atom_site_type_symbol
_atom_site_fract_x
_atom_site_fract_y
_atom_site_fract_z
Zn1	Zn	0.312629	1.200071	0.443902
Zn2	Zn	0.812629	1.700071	0.943902
Zn3	Zn	0.443866	1.200060	0.312661
Zn4	Zn	0.943866	1.700060	0.812661
Zn5	Zn	0.312619	1.068833	0.312650
Zn6	Zn	0.812619	1.568833	0.812650
Zn7	Zn	0.443857	1.068821	0.443884
Zn8	Zn	0.943857	1.568821	0.943884
O9	O	0.378243	1.134446	0.378274
O10	O	0.878243	1.634446	0.878274
O11	O	0.330046	1.309916	0.426504
O12	O	0.830046	1.809916	0.926504
O13	O	0.426456	1.182653	0.202813
O14	O	0.926456	1.682653	0.702813
O15	O	0.202773	1.086252	0.330063
O16	O	0.702773	1.586252	0.830063
O17	O	0.426465	1.309908	0.330082
O18	O	0.926465	1.809908	0.830082
O19	O	0.202780	1.182671	0.426494
O20	O	0.702780	1.682671	0.926494
O21	O	0.330029	1.086241	0.202804
O22	O	0.830029	1.586241	0.702804
O23	O	0.330020	0.958985	0.330047
O24	O	0.830020	1.458985	0.830047
O25	O	0.426449	1.086231	0.553734
O26	O	0.926449	1.586231	1.053734
O27	O	0.426440	0.958976	0.426464
O28	O	0.926440	1.458976	0.926464
O29	O	0.330036	1.182660	0.553746
O30	O	0.830036	1.682660	1.053746
O31	O	0.553712	1.182641	0.330065
O32	O	1.053712	1.682641	0.830065
O33	O	0.553705	1.086220	0.426475
O34	O	1.053705	1.586220	0.926475
C35	C	0.378229	0.930498	0.378253
C36	C	0.878229	1.430498	0.878253
C37	C	0.378241	0.843249	0.378262
C38	C	0.878241	1.343249	0.878262
C39	C	0.173499	1.134464	0.378279
C40	C	0.673499	1.634464	0.878279
C41	C	0.086249	1.134472	0.378281
C42	C	0.586249	1.634472	0.878281
C43	C	0.428523	0.802274	0.428386
C44	C	0.928523	1.302274	0.928386
C45	C	0.428525	0.720294	0.428399
C46	C	0.928525	1.220294	0.928399
C47	C	0.378248	0.679289	0.378283
C48	C	0.878248	1.179289	0.878283
C49	C	0.327961	0.720269	0.328156
C50	C	0.827961	1.220269	0.828156
C51	C	0.327956	0.802248	0.328148
C52	C	0.827956	1.302248	0.828148
C53	C	0.327977	0.549399	0.328175
C54	C	0.827977	1.049399	0.828175
C55	C	0.327982	0.467414	0.328182
C56	C	0.827982	0.967414	0.828182
C57	C	0.428545	0.467445	0.428425
C58	C	0.928545	0.967445	0.928425
C59	C	0.428540	0.549424	0.428417
C60	C	0.928540	1.049424	0.928417
C61	C	0.378254	0.590398	0.378290
C62	C	0.878254	1.090398	0.878290
C63	C	0.045254	1.084278	0.328078
C64	C	0.545254	1.584278	0.828078
C65	C	-0.036727	1.084284	0.328088
C66	C	0.463273	1.584284	0.828088
C67	C	-0.077711	1.134489	0.378298
C68	C	0.422289	1.634489	0.878298
C69	C	-0.036710	1.184685	0.428507
C70	C	0.463290	1.684685	0.928507
C71	C	0.045269	1.184674	0.428500
C72	C	0.545269	1.684674	0.928500
C73	C	-0.207580	1.184704	0.428516
C74	C	0.292420	1.684704	0.928516
C75	C	-0.289565	1.184716	0.428521
C76	C	0.210435	1.684716	0.928521
C77	C	-0.289576	1.084315	0.328103
C78	C	0.210424	1.584315	0.828103
C79	C	-0.207597	1.084304	0.328097
C80	C	0.292403	1.584304	0.828097
C81	C	-0.166602	1.134501	0.378305
C82	C	0.333398	1.634501	0.878305
C83	C	0.582191	1.134449	0.378286
C84	C	1.082191	1.634449	0.878286
C85	C	0.669440	1.134522	0.378318
C86	C	1.169440	1.634522	0.878318
C87	C	0.378243	1.134445	0.583019
C88	C	0.878243	1.634445	1.083019
C89	C	0.378243	1.134445	0.670268
C90	C	0.878243	1.634445	1.170268
C91	C	0.378258	1.339190	0.378297
C92	C	0.878258	1.839190	0.878297
C93	C	0.378264	1.426440	0.378306
C94	C	0.878264	1.926440	0.878306
C95	C	0.328039	1.084251	0.711254
C96	C	0.828039	1.584251	1.211254
C97	C	0.328046	1.084247	0.793234
C98	C	0.828046	1.584247	1.293234
C99	C	0.378252	1.134443	0.834228
C100	C	0.878252	1.634443	1.334228
C101	C	0.428461	1.184639	0.793237
C102	C	0.928461	1.684639	1.293237
C103	C	0.428458	1.184638	0.711258
C104	C	0.928458	1.684638	1.211258
C105	C	0.428463	1.184639	0.964107
C106	C	0.928463	1.684639	1.464107
C107	C	0.428465	1.184642	1.046091
C108	C	0.928465	1.684642	1.546091
C109	C	0.328051	1.084249	1.046083
C110	C	0.828051	1.584249	1.546083
C111	C	0.328048	1.084248	0.964104
C112	C	0.828048	1.584248	1.464104
C113	C	0.378256	1.134445	0.923119
C114	C	0.878256	1.634445	1.423119
C115	C	0.378261	1.134443	1.174326
C116	C	0.878261	1.634443	1.674326
C117	C	0.378262	1.134448	1.087077
C118	C	0.878262	1.634448	1.587077
H119	H	0.469466	0.835654	0.469194
H120	H	0.969466	1.335654	0.969194
H121	H	0.287169	1.043377	1.079457
H122	H	0.787169	1.543377	1.579457
Cl123	Cl	0.264758	0.600908	0.265157
Cl124	Cl	0.764758	1.100908	0.765157
Cl125	Cl	0.264780	0.415867	0.265174
Cl126	Cl	0.764780	0.915867	0.765174
Cl127	Cl	0.096806	1.247776	0.491617
Cl128	Cl	0.596806	1.747776	0.991617
Cl129	Cl	0.491578	1.247750	1.097625
Cl130	Cl	0.991578	1.747750	1.597625
Cl131	Cl	0.491751	0.415935	0.491454
Cl132	Cl	0.991751	0.915935	0.991454
H133	H	0.287151	1.043380	0.677883
H134	H	0.787151	1.543380	1.177883
H135	H	-0.174204	1.225571	0.469410
H136	H	0.325796	1.725571	0.969410
Cl137	Cl	0.491751	0.600972	0.491416
Cl138	Cl	0.991751	1.100972	0.991416
H139	H	0.287022	0.686877	0.287354
H140	H	0.787022	1.186877	0.787354
Cl141	Cl	0.264925	1.021149	0.912570
Cl142	Cl	0.764925	1.521149	1.412570
H143	H	-0.070084	1.225559	0.469393
H144	H	0.429916	1.725559	0.969393
H145	H	0.469341	1.225522	0.930739
H146	H	0.969341	1.725522	1.430739
H147	H	0.469344	1.225505	0.826620
H148	H	0.969344	1.725505	1.326620
Cl149	Cl	0.491577	1.247738	0.659733
Cl150	Cl	0.991577	1.747738	1.159733
H151	H	0.078617	1.043399	0.287189
H152	H	0.578617	1.543399	0.787189
Cl153	Cl	0.491739	0.668787	0.491415
Cl154	Cl	0.991739	1.168787	0.991415
Cl155	Cl	0.264740	0.853759	0.265134
Cl156	Cl	0.764740	1.353759	0.765134
H157	H	-0.070105	1.043413	0.287209
H158	H	0.429895	1.543413	0.787209
Cl159	Cl	0.264967	1.021107	0.844755
Cl160	Cl	0.764967	1.521107	1.344755
H161	H	-0.174230	1.043428	0.287207
H162	H	0.325770	1.543428	0.787207
Cl163	Cl	-0.341112	1.021212	0.264982
Cl164	Cl	0.158888	1.521212	0.764982
Cl165	Cl	-0.341086	1.247831	0.491643
Cl166	Cl	0.158914	1.747831	0.991643
