data_functionalizedCrystal
_audit_creation_method	'MofGen! by Chris Wilmer'
_symmetry_space_group_name_H-M	'P1'
_symmetry_Int_Tables_number	1
_symmetry_cell_setting	triclinic
loop_
_symmetry_equiv_pos_as_xyz
  x,y,z
_cell_length_a	8.559649
_cell_length_b	8.559649
_cell_length_c	7.088929
_cell_angle_alpha	95.338185
_cell_angle_beta	95.331022
_cell_angle_gamma	110.221336
loop_
_atom_site_label
_atom_site_type_symbol
_atom_site_fract_x
_atom_site_fract_y
_atom_site_fract_z
O1	O	2.108175	0.036329	-0.158958
O2	O	1.632689	-0.047454	-0.158965
O3	O	1.912323	0.232180	-0.158959
O4	O	1.828541	-0.243305	-0.158964
O5	O	1.949723	0.269605	0.159017
O6	O	1.670089	-0.010028	0.159011
O7	O	2.145575	0.073754	0.159018
Cu8	Cu	1.911247	0.035280	0.188048
Cu9	Cu	1.867017	-0.008980	-0.187995
O10	O	1.865941	-0.205880	0.159012
C11	C	1.591080	-0.035090	0.000022
C12	C	1.411380	-0.053990	0.000019
C13	C	1.937372	0.311201	0.000026
C14	C	1.956269	0.490899	0.000015
C15	C	2.187183	0.061390	0.000027
C16	C	2.366881	0.080288	0.000017
N17	N	1.942367	0.066412	0.452537
C18	C	1.840892	-0.284902	0.000023
C19	C	1.821992	-0.464601	0.000021
N20	N	1.835911	-0.040097	-0.452484
H21	H	1.311991	-0.183419	0.000007
O22	O	1.485651	0.234579	0.000104
C23	C	1.644645	0.219733	0.000056
H24	H	1.642416	0.100147	0.060255
H25	H	1.743704	0.333178	0.092372
H26	H	1.676384	0.213873	-0.152494
O27	O	1.667471	0.416972	-0.000247
C28	C	1.561040	0.415905	-0.164954
H29	H	1.610021	0.542707	-0.219846
H30	H	1.428606	0.391586	-0.127922
H31	H	1.558427	0.312562	-0.280278
O32	O	1.704415	-0.171976	0.450200
C33	C	1.716849	-0.323611	0.499009
H34	H	1.853081	-0.302022	0.554133
H35	H	1.672848	-0.422700	0.367287
H36	H	1.634673	-0.368729	0.615069
O37	O	2.110550	0.609659	-0.000061
C38	C	2.095724	0.768670	0.000005
H39	H	1.961971	0.752283	-0.060189
H40	H	2.187445	0.846007	-0.092306
H41	H	2.125767	0.836299	0.152560
H42	H	2.052707	0.176778	0.534186
