data_functionalizedCrystal
_audit_creation_method	'MofGen! by Chris Wilmer'
_symmetry_space_group_name_H-M	'P1'
_symmetry_Int_Tables_number	1
_symmetry_cell_setting	triclinic
loop_
_symmetry_equiv_pos_as_xyz
  x,y,z
_cell_length_a	17.077404
_cell_length_b	12.594516
_cell_length_c	12.594509
_cell_angle_alpha	89.975000
_cell_angle_beta	90.021213
_cell_angle_gamma	89.973044
loop_
_atom_site_label
_atom_site_type_symbol
_atom_site_fract_x
_atom_site_fract_y
_atom_site_fract_z
Zn1	Zn	1.200047	0.423720	0.601861
Zn2	Zn	1.533380	0.757053	0.935194
Zn3	Zn	1.866714	1.090387	1.268528
Zn4	Zn	1.199941	0.601725	0.423888
Zn5	Zn	1.533275	0.935059	0.757221
Zn6	Zn	1.866608	1.268392	1.090554
Zn7	Zn	1.068775	0.423762	0.423891
Zn8	Zn	1.402108	0.757095	0.757224
Zn9	Zn	1.735441	1.090429	1.090558
Zn10	Zn	1.068738	0.601658	0.601819
Zn11	Zn	1.402071	0.934991	0.935152
Zn12	Zn	1.735405	1.268324	1.268486
O13	O	1.134375	0.512716	0.512865
O14	O	1.467709	0.846050	0.846198
O15	O	1.801042	1.179383	1.179531
O16	O	1.309880	0.447344	0.578268
O17	O	1.643213	0.780677	0.911602
O18	O	1.976546	1.114010	1.244935
O19	O	1.182513	0.578164	0.274942
O20	O	1.515846	0.911497	0.608275
O21	O	1.849180	1.244831	0.941609
O22	O	1.086248	0.274811	0.447518
O23	O	1.419581	0.608144	0.780851
O24	O	1.752915	0.941477	1.114185
O25	O	1.309802	0.578123	0.447512
O26	O	1.643136	0.911457	0.780846
O27	O	1.976469	1.244790	1.114179
O28	O	1.182693	0.274780	0.578272
O29	O	1.516026	0.608113	0.911605
O30	O	1.849360	0.941446	1.244938
O31	O	1.086146	0.447415	0.274945
O32	O	1.419479	0.780749	0.608278
O33	O	1.752812	1.114082	0.941611
O34	O	0.958923	0.447349	0.447477
O35	O	1.292256	0.780683	0.780811
O36	O	1.625590	1.114016	1.114144
O37	O	1.086185	0.578008	0.750770
O38	O	1.419518	0.911341	1.084104
O39	O	1.752852	1.244674	1.417437
O40	O	0.958896	0.578048	0.578200
O41	O	1.292229	0.911382	0.911534
O42	O	1.625563	1.244715	1.244867
O43	O	1.182657	0.447278	0.750801
O44	O	1.515991	0.780611	1.084135
O45	O	1.849324	1.113944	1.417468
O46	O	1.182477	0.750662	0.447471
O47	O	1.515811	1.083996	0.780805
O48	O	1.849144	1.417329	1.114138
O49	O	1.086083	0.750612	0.578197
O50	O	1.419416	1.083946	0.911530
O51	O	1.752749	1.417279	1.244864
C52	C	0.930427	0.512697	0.512835
C53	C	1.263761	0.846030	0.846169
C54	C	1.597094	1.179364	1.179502
C55	C	0.843178	0.512714	0.512848
C56	C	1.176511	0.846048	0.846181
C57	C	1.509844	1.179381	1.179515
C58	C	1.134286	0.789257	0.512852
C59	C	1.467619	1.122591	0.846186
C60	C	1.800952	1.455924	1.179519
C61	C	1.134319	0.907563	0.512883
C62	C	1.467653	1.240896	0.846216
C63	C	1.800986	1.574229	1.179550
C64	C	0.802194	0.580872	0.580806
C65	C	1.135527	0.914205	0.914139
C66	C	1.468861	1.247539	1.247473
C67	C	0.720213	0.580874	0.580823
C68	C	1.053547	0.914208	0.914156
C69	C	1.386880	1.247541	1.247490
C70	C	0.679218	0.512723	0.512876
C71	C	1.012552	0.846057	0.846209
C72	C	1.345885	1.179390	1.179542
C73	C	0.720208	0.444558	0.444915
C74	C	1.053541	0.777892	0.778248
C75	C	1.386874	1.111225	1.111581
C76	C	0.802187	0.444551	0.444904
C77	C	1.135520	0.777885	0.778237
C78	C	1.468853	1.111218	1.111570
C79	C	0.549338	0.444579	0.444940
C80	C	0.882671	0.777913	0.778273
C81	C	1.216004	1.111246	1.111607
C82	C	0.467353	0.444587	0.444949
C83	C	0.800686	0.777921	0.778283
C84	C	1.134020	1.111254	1.111616
C85	C	0.467364	0.580902	0.580860
C86	C	0.800698	0.914235	0.914193
C87	C	1.134031	1.247569	1.247526
C88	C	0.549343	0.580895	0.580849
C89	C	0.882677	0.914229	0.914182
C90	C	1.216010	1.247562	1.247515
C91	C	0.590327	0.512731	0.512886
C92	C	0.923661	0.846064	0.846219
C93	C	1.256994	1.179398	1.179552
C94	C	1.081876	0.976827	0.583934
C95	C	1.415209	1.310161	0.917267
C96	C	1.748542	1.643494	1.250601
C97	C	1.062740	1.047690	0.486811
C98	C	1.396073	1.381023	0.820144
C99	C	1.729407	1.714357	1.153477
C100	C	1.153498	1.047499	0.610022
C101	C	1.486831	1.380832	0.943355
C102	C	1.820164	1.714165	1.276688
C103	C	1.115146	0.976867	0.415708
C104	C	1.448479	1.310201	0.749041
C105	C	1.781812	1.643534	1.082375
C106	C	1.205937	0.976670	0.538985
C107	C	1.539270	1.310003	0.872318
C108	C	1.872604	1.643336	1.205651
C109	C	1.186828	1.047500	0.441794
C110	C	1.520162	1.380834	0.775128
C111	C	1.853495	1.714167	1.108461
C112	C	1.339119	0.512736	0.512895
C113	C	1.672453	0.846070	0.846228
C114	C	2.005786	1.179403	1.179561
C115	C	1.426369	0.512745	0.512908
C116	C	1.759703	0.846078	0.846241
C117	C	2.093036	1.179412	1.179574
C118	C	1.134429	0.512630	0.790486
C119	C	1.467762	0.845964	1.123819
C120	C	1.801096	1.179297	1.457152
C121	C	1.134452	0.512594	0.908791
C122	C	1.467785	0.845927	1.242124
C123	C	1.801118	1.179261	1.575458
C124	C	1.134452	1.235095	0.512898
C125	C	1.467785	1.568429	0.846232
C126	C	1.801119	1.901762	1.179565
C127	C	1.134396	1.116790	0.512909
C128	C	1.467730	1.450123	0.846242
C129	C	1.801063	1.783457	1.179576
C130	C	1.134367	0.512725	0.236324
C131	C	1.467700	0.846058	0.569657
C132	C	1.801034	1.179391	0.902990
C133	C	1.134496	0.512461	0.118019
C134	C	1.467830	0.845795	0.451352
C135	C	1.801163	1.179128	0.784685
C136	C	1.082014	0.583609	1.048791
C137	C	1.415347	0.916942	1.382125
C138	C	1.748680	1.250276	1.715458
C139	C	1.062835	0.486544	0.977987
C140	C	1.396168	0.819877	1.311320
C141	C	1.729502	1.153211	1.644653
C142	C	1.153595	0.609649	0.978024
C143	C	1.486928	0.942982	1.311357
C144	C	1.820261	1.276316	1.644691
C145	C	1.115281	0.415344	1.048772
C146	C	1.448614	0.748678	1.382106
C147	C	1.781948	1.082011	1.715439
C148	C	1.206074	0.538515	1.048816
C149	C	1.539407	0.871848	1.382149
C150	C	1.872741	1.205181	1.715483
C151	C	1.186923	0.441383	0.978043
C152	C	1.520256	0.774716	1.311377
C153	C	1.853590	1.108049	1.644710
H154	H	0.835566	0.636372	0.636133
H155	H	1.168900	0.969705	0.969467
H156	H	1.502233	1.303039	1.302800
Br157	Br	1.260807	1.098897	0.341558
Br158	Br	1.594141	1.432230	0.674891
Br159	Br	1.927474	1.765564	1.008224
Br160	Br	0.664595	0.673376	0.673059
Br161	Br	0.997929	1.006709	1.006392
Br162	Br	1.331262	1.340042	1.339726
H163	H	1.037616	0.643643	1.079856
H164	H	1.370949	0.976977	1.413189
H165	H	1.704282	1.310310	1.746523
Br166	Br	0.961914	0.449891	0.926135
Br167	Br	1.295247	0.783225	1.259468
Br168	Br	1.628580	1.116558	1.592802
H169	H	0.433977	0.389080	0.389633
H170	H	0.767310	0.722413	0.722967
H171	H	1.100644	1.055747	1.056300
H172	H	1.169688	1.078525	0.692160
H173	H	1.503022	1.411858	1.025494
H174	H	1.836355	1.745191	1.358827
H175	H	1.037459	0.945795	0.643933
H176	H	1.370792	1.279128	0.977266
H177	H	1.704126	1.612461	1.310599
H178	H	1.099040	0.333186	1.079720
H179	H	1.432373	0.666519	1.413053
H180	H	1.765707	0.999852	1.746386
H181	H	1.002211	1.078909	0.464755
H182	H	1.335544	1.412242	0.798089
H183	H	1.668878	1.745576	1.131422
H184	H	1.098885	0.945970	0.333547
H185	H	1.432219	1.279303	0.666880
H186	H	1.765552	1.612636	1.000214
Br187	Br	1.306802	0.924637	0.575821
Br188	Br	1.640135	1.257970	0.909154
Br189	Br	1.973468	1.591303	1.242487
Br190	Br	1.260869	0.341086	0.926592
Br191	Br	1.594202	0.674419	1.259925
Br192	Br	1.927536	1.007752	1.593259
H193	H	1.266608	0.560530	1.079951
H194	H	1.599941	0.893863	1.413284
H195	H	1.933274	1.227196	1.746617
Br196	Br	1.180543	0.746540	0.926207
Br197	Br	1.513877	1.079873	1.259540
Br198	Br	1.847210	1.413207	1.592874
H199	H	0.433991	0.636401	0.636201
H200	H	0.767325	0.969734	0.969534
H201	H	1.100658	1.303067	1.302867
Br202	Br	0.604958	0.352068	0.352706
Br203	Br	0.938292	0.685401	0.686040
Br204	Br	1.271625	1.018734	1.019373
Br205	Br	0.604980	0.673397	0.673053
Br206	Br	0.938313	1.006730	1.006387
Br207	Br	1.271647	1.340064	1.339720
H208	H	0.686823	0.389064	0.389595
H209	H	1.020156	0.722397	0.722929
H210	H	1.353489	1.055731	1.056262
H211	H	0.835555	0.389045	0.389571
H212	H	1.168888	0.722378	0.722904
H213	H	1.502221	1.055711	1.056237
