data_functionalizedCrystal
_audit_creation_method	'MofGen! by Chris Wilmer'
_symmetry_space_group_name_H-M	'P1'
_symmetry_Int_Tables_number	1
_symmetry_cell_setting	triclinic
loop_
_symmetry_equiv_pos_as_xyz
  x,y,z
_cell_length_a	16.109301
_cell_length_b	19.188930
_cell_length_c	15.186229
_cell_angle_alpha	89.991143
_cell_angle_beta	89.999362
_cell_angle_gamma	83.303131
loop_
_atom_site_label
_atom_site_type_symbol
_atom_site_fract_x
_atom_site_fract_y
_atom_site_fract_z
O1	O	1.102833	0.089744	-0.073183
O2	O	0.860734	0.100912	-0.073198
O3	O	0.988770	-0.006311	-0.073173
O4	O	0.974797	0.196967	-0.073208
O5	O	0.988762	-0.006313	0.073284
O6	O	0.860726	0.100911	0.073259
O7	O	1.102825	0.089742	0.073274
Zn8	Zn	0.981774	0.095326	0.096520
Zn9	Zn	0.981785	0.095328	-0.096444
O10	O	0.974789	0.196966	0.073249
C11	C	0.829757	0.100459	0.000029
C12	C	0.737466	0.099103	0.000024
C13	C	0.514993	0.159573	0.000023
C14	C	0.428277	0.158294	0.000029
C15	C	0.448573	0.031076	0.000048
C16	C	0.535287	0.032357	0.000048
C17	C	0.568495	0.096608	0.000031
C18	C	0.395064	0.094047	0.000037
C19	C	0.301043	0.092659	0.000043
C20	C	0.662522	0.097996	0.000027
C21	C	0.988313	-0.032324	0.000058
C22	C	0.986955	-0.109832	0.000066
C23	C	1.062082	-0.154580	0.000075
C24	C	1.060806	-0.227407	0.000060
C25	C	0.984399	-0.255482	0.000055
C26	C	0.909261	-0.210724	0.000041
C27	C	0.910540	-0.137899	0.000046
N28	N	0.925991	-0.363624	0.049893
N29	N	0.924782	-0.432805	0.049890
C30	C	0.980543	-0.474900	0.000037
N31	N	1.037571	-0.445200	-0.049802
N32	N	1.038783	-0.376013	-0.049795
C33	C	0.983004	-0.334448	0.000049
C34	C	1.054292	-0.598616	0.000029
C35	C	1.053012	-0.671443	0.000010
C36	C	0.901465	-0.654759	-0.000001
C37	C	0.902747	-0.581933	0.000010
C38	C	0.979162	-0.553866	0.000029
C39	C	1.133802	0.090196	0.000045
C40	C	1.226093	0.091552	0.000045
C41	C	0.975246	0.222979	0.000016
C42	C	0.976604	0.300486	0.000003
N43	N	0.981772	0.095325	0.228213
N44	N	0.981793	0.095325	-0.228137
C45	C	1.038486	0.047862	0.453947
C46	C	1.038488	0.047860	0.546136
C47	C	0.925074	0.142790	0.546123
C48	C	0.925068	0.142787	0.453935
C49	C	0.981779	0.095324	0.407849
C50	C	0.981787	0.095325	0.592227
C51	C	0.981790	0.095323	0.692183
C52	C	0.981775	0.095325	0.307887
H53	H	1.121986	-0.263848	0.000064
C54	C	0.384281	0.266329	-0.075284
C55	C	0.369467	0.227507	0.000014
H56	H	0.347969	0.309058	-0.075294
H57	H	0.440671	0.276283	-0.075281
H58	H	0.374234	0.239976	-0.126345
H59	H	0.379520	0.253858	0.051075
H60	H	0.313063	0.217555	0.000019
H61	H	0.847050	-0.233587	0.000035
C62	C	0.477345	-0.094543	0.000066
C63	C	0.412069	-0.039546	0.000055
H64	H	0.454808	-0.138142	0.000073
H65	H	0.510745	-0.091394	-0.051002
H66	H	0.510743	-0.091396	0.051144
H67	H	0.378674	-0.042690	-0.051026
H68	H	0.378655	-0.042696	0.051129
C69	C	1.088852	0.005707	0.687457
C70	C	1.100823	-0.004311	0.596808
H71	H	1.127333	-0.026507	0.718737
H72	H	1.097712	0.052301	0.702552
H73	H	1.033393	-0.001891	0.702560
H74	H	1.156280	0.003292	0.581703
H75	H	1.091969	-0.050917	0.581707
C76	C	0.816272	-0.490349	-0.075279
C77	C	0.820162	-0.532742	0.000008
H78	H	0.765282	-0.459985	-0.075283
H79	H	0.861954	-0.463210	-0.075266
H80	H	0.818929	-0.519106	-0.126347
H81	H	0.817511	-0.503985	0.051077
H82	H	0.774467	-0.559884	0.000003
C83	C	1.139477	-0.763040	0.075293
C84	C	1.135596	-0.720638	0.000014
H85	H	1.190459	-0.793414	0.075290
H86	H	1.136826	-0.734295	0.126361
H87	H	1.093781	-0.790175	0.075271
H88	H	1.181288	-0.693499	0.000039
H89	H	1.138255	-0.749387	-0.051067
C90	C	1.150584	-0.045977	0.463223
C91	C	1.100813	-0.004315	0.403288
H92	H	1.189057	-0.078193	0.431948
H93	H	1.180385	-0.016907	0.499167
H94	H	1.116060	-0.071094	0.499191
H95	H	1.135337	0.020807	0.367324
H96	H	1.071010	-0.033389	0.367329
H97	H	0.878902	0.181434	0.583655
H98	H	0.849360	-0.101464	0.000039
C99	C	0.644588	-0.040001	-0.075230
C100	C	0.594106	-0.036860	0.000055
H101	H	0.680903	-0.082729	-0.075219
H102	H	0.610339	-0.037860	-0.126294
H103	H	0.676770	-0.001549	-0.075224
H104	H	0.561919	-0.075309	0.000046
H105	H	0.628359	-0.039008	0.051132
H106	H	0.878886	0.181437	0.416400
C107	C	0.600728	0.234825	-0.075281
C108	C	0.551493	0.230197	0.000010
H109	H	0.623254	0.278429	-0.075289
H110	H	0.645002	0.197515	-0.075271
H111	H	0.567312	0.231681	-0.126346
H112	H	0.584911	0.233337	0.051076
H113	H	0.507214	0.267518	0.000007
H114	H	1.124306	-0.131733	0.000087
H115	H	1.116514	-0.575763	0.000041
H116	H	0.839253	-0.677617	-0.000010
