data_functionalizedCrystal
_audit_creation_method	'MofGen! by Chris Wilmer'
_symmetry_space_group_name_H-M	'P1'
_symmetry_Int_Tables_number	1
_symmetry_cell_setting	triclinic
loop_
_symmetry_equiv_pos_as_xyz
  x,y,z
_cell_length_a	19.805407
_cell_length_b	29.839131
_cell_length_c	19.805399
_cell_angle_alpha	89.969027
_cell_angle_beta	89.984884
_cell_angle_gamma	90.038737
loop_
_atom_site_label
_atom_site_type_symbol
_atom_site_fract_x
_atom_site_fract_y
_atom_site_fract_z
Zn1	Zn	1.034647	-0.178890	-0.382678
Zn2	Zn	1.534647	0.321110	0.117322
Zn3	Zn	1.034538	-0.254019	-0.269486
Zn4	Zn	1.534538	0.245981	0.230514
Zn5	Zn	0.921467	-0.178900	-0.269506
Zn6	Zn	1.421467	0.321100	0.230494
Zn7	Zn	0.921396	-0.253990	-0.382636
Zn8	Zn	1.421396	0.246010	0.117364
O9	O	0.978012	-0.216450	-0.326077
O10	O	1.478012	0.283550	0.173923
O11	O	1.129349	-0.188864	-0.367672
O12	O	1.629349	0.311136	0.132328
O13	O	1.019523	-0.244071	-0.174772
O14	O	1.519523	0.255929	0.325228
O15	O	0.936556	-0.116032	-0.284545
O16	O	1.436556	0.383968	0.215455
O17	O	1.129269	-0.244061	-0.284510
O18	O	1.629269	0.255939	0.215490
O19	O	1.019709	-0.116024	-0.367692
O20	O	1.519709	0.383976	0.132308
O21	O	0.936450	-0.188882	-0.174787
O22	O	1.436450	0.311118	0.325213
O23	O	0.826741	-0.188853	-0.284504
O24	O	1.326741	0.311147	0.215496
O25	O	0.936435	-0.244011	-0.477359
O26	O	1.436435	0.255989	0.022641
O27	O	0.826689	-0.244021	-0.367620
O28	O	1.326689	0.255979	0.132380
O29	O	1.019640	-0.188835	-0.477389
O30	O	1.519640	0.311165	0.022611
O31	O	1.019453	-0.316882	-0.284470
O32	O	1.519453	0.183118	0.215530
O33	O	0.936328	-0.316861	-0.367601
O34	O	1.436328	0.183139	0.132399
C35	C	0.802156	-0.216436	-0.326060
C36	C	1.302156	0.283564	0.173940
C37	C	0.726924	-0.216441	-0.326069
C38	C	1.226924	0.283559	0.173931
C39	C	0.691622	-0.187750	-0.369438
C40	C	1.191622	0.312250	0.130562
C41	C	0.620934	-0.187752	-0.369440
C42	C	1.120934	0.312248	0.130560
C43	C	0.585548	-0.216448	-0.326078
C44	C	1.085548	0.283552	0.173922
C45	C	0.620855	-0.245139	-0.282705
C46	C	1.120855	0.254861	0.217295
C47	C	0.691542	-0.245135	-0.282699
C48	C	1.191542	0.254865	0.217301
C49	C	0.335782	-0.245160	-0.282725
C50	C	0.835782	0.254840	0.217275
C51	C	0.265089	-0.245163	-0.282736
C52	C	0.765089	0.254837	0.217264
C53	C	0.265173	-0.187778	-0.369466
C54	C	0.765173	0.312222	0.130534
C55	C	0.335860	-0.187773	-0.369461
C56	C	0.835860	0.312227	0.130539
C57	C	0.371161	-0.216462	-0.326086
C58	C	0.871161	0.283538	0.173914
C59	C	0.447809	-0.216459	-0.326083
C60	C	0.947809	0.283541	0.173917
C61	C	0.508901	-0.216454	-0.326084
C62	C	1.008901	0.283546	0.173916
C63	C	0.977890	-0.333172	-0.326043
C64	C	1.477890	0.166828	0.173957
C65	C	0.977899	-0.383107	-0.326052
C66	C	1.477899	0.116893	0.173948
C67	C	1.021374	-0.692749	-0.282854
C68	C	1.521374	-0.192749	0.217146
C69	C	1.021457	-0.880422	-0.282880
C70	C	1.521457	-0.380422	0.217120
O71	O	1.058324	-0.904685	-0.246126
O72	O	1.558324	-0.404685	0.253874
N73	N	0.978152	-0.903892	-0.326128
N74	N	1.478152	-0.403892	0.173872
C75	C	0.934826	-0.880441	-0.369375
C76	C	1.434826	-0.380441	0.130625
O77	O	0.898000	-0.904710	-0.406166
O78	O	1.398000	-0.404710	0.093834
C79	C	0.934747	-0.692769	-0.369352
C80	C	1.434747	-0.192769	0.130648
C81	C	0.978050	-0.669301	-0.326096
C82	C	1.478050	-0.169301	0.173904
C83	C	1.064674	-0.669281	-0.239602
C84	C	1.564674	-0.169281	0.260398
C85	C	1.064650	-0.622366	-0.239594
C86	C	1.564650	-0.122366	0.260406
C87	C	1.021326	-0.598918	-0.282836
C88	C	1.521326	-0.098918	0.217164
C89	C	0.978026	-0.622385	-0.326088
C90	C	1.478026	-0.122385	0.173912
C91	C	0.891425	-0.669318	-0.412602
C92	C	1.391425	-0.169318	0.087398
C93	C	0.891410	-0.622397	-0.412594
C94	C	1.391410	-0.122397	0.087406
C95	C	0.934713	-0.598930	-0.369338
C96	C	1.434713	-0.098930	0.130662
C97	C	0.934678	-0.552022	-0.369322
C98	C	1.434678	-0.052022	0.130678
N99	N	0.977983	-0.528552	-0.326074
N100	N	1.477983	-0.028552	0.173926
C101	C	1.021307	-0.552000	-0.282831
C102	C	1.521307	-0.052000	0.217169
C103	C	0.934870	-0.978971	-0.369384
C104	C	1.434870	-0.478971	0.130616
C105	C	0.934889	-1.025889	-0.369389
C106	C	1.434889	-0.525889	0.130611
C107	C	1.021521	-1.025867	-0.282894
C108	C	1.521521	-0.525867	0.217106
C109	C	1.021498	-0.978948	-0.282886
C110	C	1.521498	-0.478948	0.217114
C111	C	0.978175	-0.955501	-0.326136
C112	C	1.478175	-0.455501	0.173864
C113	C	1.021253	-0.453474	-0.282816
C114	C	1.521253	0.046526	0.217184
C115	C	1.021223	-0.406555	-0.282809
C116	C	1.521223	0.093445	0.217191
C117	C	0.934594	-0.406581	-0.369306
C118	C	1.434594	0.093419	0.130694
C119	C	0.934621	-0.453496	-0.369310
C120	C	1.434621	0.046504	0.130690
C121	C	0.977956	-0.476942	-0.326063
C122	C	1.477956	0.023058	0.173937
O123	O	0.897836	-0.527730	-0.406062
O124	O	1.397836	-0.027730	0.093938
O125	O	1.058139	-0.527723	-0.246057
O126	O	1.558139	-0.027723	0.253943
C127	C	1.021398	-0.739664	-0.282862
C128	C	1.521398	-0.239664	0.217138
C129	C	0.978098	-0.763132	-0.326114
C130	C	1.478098	-0.263132	0.173886
C131	C	0.934774	-0.739684	-0.369357
C132	C	1.434774	-0.239684	0.130643
C133	C	0.978116	-0.810050	-0.326119
C134	C	1.478116	-0.310050	0.173881
C135	C	1.021440	-0.833497	-0.282876
C136	C	1.521440	-0.333497	0.217124
C137	C	1.064745	-0.810027	-0.239628
C138	C	1.564745	-0.310027	0.260372
C139	C	1.064722	-0.763112	-0.239620
C140	C	1.564722	-0.263112	0.260380
C141	C	0.891469	-0.763154	-0.412604
C142	C	1.391469	-0.263154	0.087396
C143	C	0.891495	-0.810070	-0.412609
C144	C	1.391495	-0.310070	0.087391
C145	C	0.934819	-0.833517	-0.369366
C146	C	1.434819	-0.333517	0.130634
C147	C	1.154555	-0.216464	-0.326094
C148	C	1.654555	0.283536	0.173906
C149	C	1.229786	-0.216470	-0.326101
C150	C	1.729786	0.283530	0.173899
C151	C	0.978042	-0.216419	-0.502620
C152	C	1.478042	0.283581	-0.002620
C153	C	0.978054	-0.216405	-0.577852
C154	C	1.478054	0.283595	-0.077852
C155	C	0.978153	-0.099271	-0.326125
C156	C	1.478153	0.400729	0.173875
C157	C	0.978213	-0.049337	-0.326146
C158	C	1.478213	0.450663	0.173854
C159	C	0.934811	-0.187665	-0.613203
C160	C	1.434811	0.312335	-0.113203
C161	C	0.934820	-0.187657	-0.683891
C162	C	1.434820	0.312343	-0.183891
C163	C	0.978077	-0.216386	-0.719227
C164	C	1.478077	0.283614	-0.219227
C165	C	1.021322	-0.245129	-0.683871
C166	C	1.521322	0.254871	-0.183871
C167	C	1.021309	-0.245140	-0.613184
C168	C	1.521309	0.254860	-0.113184
C169	C	1.021376	-0.245087	-0.968944
C170	C	1.521376	0.254913	-0.468944
C171	C	1.021387	-0.245073	-1.039637
C172	C	1.521387	0.254927	-0.539637
C173	C	0.934887	-0.187604	-1.039652
C174	C	1.434887	0.312396	-0.539652
C175	C	0.934874	-0.187615	-0.968965
C176	C	1.434874	0.312385	-0.468965
C177	C	0.978116	-0.216359	-0.933615
C178	C	1.478116	0.283641	-0.433615
C179	C	0.978105	-0.216369	-0.856966
C180	C	1.478105	0.283631	-0.356966
C181	C	0.978092	-0.216374	-0.795874
C182	C	1.478092	0.283626	-0.295874
C183	C	0.978021	-0.216448	-0.150221
C184	C	1.478021	0.283552	0.349779
C185	C	0.978140	-0.216335	-0.074989
C186	C	1.478140	0.283665	0.425011
H187	H	0.720284	-0.268497	-0.247384
H188	H	1.220284	0.231503	0.252616
C189	C	0.581933	-0.276704	-0.235007
C190	C	1.081933	0.223296	0.264993
H191	H	0.534778	-0.272602	-0.241226
H192	H	1.034778	0.227398	0.258774
H193	H	0.593506	-0.270091	-0.189547
H194	H	1.093506	0.229909	0.310453
H195	H	0.593497	-0.306898	-0.244835
H196	H	1.093497	0.193102	0.255165
C197	C	0.226166	-0.276727	-0.235030
C198	C	0.726166	0.223273	0.264970
H199	H	0.257313	-0.293809	-0.209191
H200	H	0.757313	0.206191	0.290809
H201	H	0.198583	-0.296326	-0.260867
H202	H	0.698583	0.203674	0.239133
H203	H	0.198596	-0.259512	-0.205591
H204	H	0.698596	0.240488	0.294409
H205	H	1.099913	-0.603261	-0.204373
H206	H	1.599913	-0.103261	0.295627
C207	C	1.068909	-0.276728	-0.722735
C208	C	1.568909	0.223272	-0.222735
H209	H	1.094659	-0.293848	-0.691555
H210	H	1.594659	0.206152	-0.191555
H211	H	1.098425	-0.259539	-0.750318
H212	H	1.598425	0.240461	-0.250318
H213	H	1.042999	-0.296299	-0.750301
H214	H	1.542999	0.203701	-0.250301
H215	H	0.899621	-1.044993	-0.404605
H216	H	1.399621	-0.544993	0.095395
H217	H	1.056579	-0.268497	-0.940171
H218	H	1.556579	0.231503	-0.440171
H219	H	0.364668	-0.164407	-0.404774
H220	H	0.864668	0.335593	0.095226
H221	H	0.899590	-0.959884	-0.404604
H222	H	1.399590	-0.459884	0.095396
H223	H	1.099983	-0.744008	-0.204397
H224	H	1.599983	-0.244008	0.295603
H225	H	1.056486	-0.387449	-0.247583
H226	H	1.556486	0.112551	0.252417
H227	H	0.592194	-0.164391	-0.404756
H228	H	1.092194	0.335609	0.095244
H229	H	0.899590	-0.164268	-0.584438
H230	H	1.399590	0.335732	-0.084438
C231	C	0.886947	-0.380785	-0.416877
C232	C	1.386947	0.119215	0.083123
H233	H	0.861157	-0.401478	-0.442639
H234	H	1.361157	0.098522	0.057361
H235	H	0.912822	-0.362454	-0.446382
H236	H	1.412822	0.137546	0.053618
H237	H	0.857460	-0.362510	-0.390957
H238	H	1.357460	0.137490	0.109043
C239	C	0.374603	-0.276719	-0.235017
C240	C	0.874603	0.223281	0.264983
H241	H	0.343403	-0.293811	-0.209199
H242	H	0.843403	0.206189	0.290801
H243	H	0.402181	-0.259506	-0.205570
H244	H	0.902181	0.240494	0.294430
H245	H	0.402171	-0.296316	-0.260853
H246	H	0.902171	0.203684	0.239147
C247	C	0.843795	-0.695123	-0.460189
C248	C	1.343795	-0.195123	0.039811
H249	H	0.818001	-0.674432	-0.485944
H250	H	1.318001	-0.174432	0.014056
H251	H	0.814322	-0.713457	-0.434285
H252	H	1.314322	-0.213457	0.065715
H253	H	0.869683	-0.713393	-0.489710
H254	H	1.369683	-0.213393	0.010290
C255	C	0.843754	-0.596608	-0.460170
C256	C	1.343754	-0.096608	0.039830
H257	H	0.817967	-0.617307	-0.485926
H258	H	1.317967	-0.117307	0.014074
H259	H	0.869618	-0.578276	-0.489681
H260	H	1.369618	-0.078276	0.010319
H261	H	0.814264	-0.578337	-0.434249
H262	H	1.314264	-0.078337	0.065751
H263	H	1.056542	-0.472558	-0.247601
H264	H	1.556542	0.027442	0.252399
H265	H	0.899652	-0.164219	-0.940198
H266	H	1.399652	0.335781	-0.440198
H267	H	1.056527	-0.268539	-0.584402
H268	H	1.556527	0.231461	-0.084402
H269	H	0.720428	-0.164384	-0.404750
H270	H	1.220428	0.335616	0.095250
C271	C	1.112330	-0.695066	-0.192027
C272	C	1.612330	-0.195066	0.307973
H273	H	1.138107	-0.674364	-0.166268
H274	H	1.638107	-0.174364	0.333732
H275	H	1.141818	-0.713342	-0.217937
H276	H	1.641818	-0.213342	0.282063
H277	H	1.086460	-0.713394	-0.162509
H278	H	1.586460	-0.213394	0.337491
H279	H	1.056614	-0.268470	-1.068405
H280	H	1.556614	0.231530	-0.568405
C281	C	0.887314	-0.155988	-1.078536
C282	C	1.387314	0.344012	-0.578536
H283	H	0.861557	-0.138876	-1.047366
H284	H	1.361557	0.361124	-0.547366
H285	H	0.857804	-0.173164	-1.106100
H286	H	1.357804	0.326836	-0.606100
H287	H	0.913239	-0.136410	-1.106122
H288	H	1.413239	0.363590	-0.606122
H289	H	0.236423	-0.164415	-0.404782
H290	H	0.736423	0.335585	0.095218
H291	H	1.056760	-0.959844	-0.247664
H292	H	1.556760	-0.459844	0.252336
H293	H	1.056797	-1.044966	-0.247684
H294	H	1.556797	-0.544966	0.252316
C295	C	0.886988	-0.479312	-0.416889
C296	C	1.386988	0.020688	0.083111
H297	H	0.861186	-0.458626	-0.442643
H298	H	1.361186	0.041374	0.057357
H299	H	0.857523	-0.497650	-0.390980
H300	H	1.357523	0.002350	0.109020
H301	H	0.912879	-0.497580	-0.446411
H302	H	1.412879	0.002420	0.053589
C303	C	1.112400	-0.835826	-0.192062
C304	C	1.612400	-0.335826	0.307938
H305	H	1.106210	-0.867129	-0.198270
H306	H	1.606210	-0.367129	0.301730
H307	H	1.102523	-0.828166	-0.146573
H308	H	1.602523	-0.328166	0.353427
H309	H	1.157871	-0.828105	-0.202012
H310	H	1.657871	-0.328105	0.297988
H311	H	0.856227	-0.829173	-0.447832
H312	H	1.356227	-0.329173	0.052168
C313	C	0.887232	-0.156058	-0.722778
C314	C	1.387232	0.343942	-0.222778
H315	H	0.893421	-0.160174	-0.769938
H316	H	1.393421	0.339826	-0.269938
H317	H	0.897152	-0.125871	-0.711222
H318	H	1.397152	0.374129	-0.211222
H319	H	0.841750	-0.162647	-0.711172
H320	H	1.341750	0.337353	-0.211172
H321	H	0.856190	-0.744067	-0.447819
H322	H	1.356190	-0.244067	0.052181
