data_functionalizedCrystal
_audit_creation_method	'MofGen! by Chris Wilmer'
_symmetry_space_group_name_H-M	'P1'
_symmetry_Int_Tables_number	1
_symmetry_cell_setting	triclinic
loop_
_symmetry_equiv_pos_as_xyz
  x,y,z
_cell_length_a	15.021413
_cell_length_b	11.792241
_cell_length_c	15.944551
_cell_angle_alpha	96.153923
_cell_angle_beta	89.996935
_cell_angle_gamma	89.996836
loop_
_atom_site_label
_atom_site_type_symbol
_atom_site_fract_x
_atom_site_fract_y
_atom_site_fract_z
O1	O	0.073948	-1.505967	0.115116
O2	O	0.073969	-1.175528	0.126982
O3	O	0.073950	-1.349771	-0.001185
O4	O	0.073967	-1.331724	0.243283
O5	O	-0.074115	-1.349743	-0.001167
O6	O	-0.074096	-1.175500	0.127000
O7	O	-0.074117	-1.505939	0.115135
Zn8	Zn	-0.097614	-1.340715	0.121070
Zn9	Zn	0.097467	-1.340752	0.121046
O10	O	-0.074097	-1.331696	0.243301
C11	C	-0.000061	-1.133229	0.126245
C12	C	-0.000053	-1.007234	0.124015
N13	N	-0.230752	-1.340698	0.121086
C14	C	-0.000083	-1.349008	-0.032473
C15	C	-0.000083	-1.346761	-0.125729
C16	C	-0.470426	-1.260116	0.180322
C17	C	-0.529766	-1.362674	0.197092
C18	C	-0.412359	-1.340727	0.121065
C19	C	-0.529761	-1.238198	0.104314
C20	C	-0.587783	-1.340746	0.121047
C21	C	-0.470392	-1.443337	0.137873
C22	C	-0.470382	-1.318793	0.045062
C23	C	-0.529695	-1.421425	0.061800
C24	C	-0.311302	-1.340715	0.121078
C25	C	-0.688838	-1.340770	0.121034
N26	N	0.230604	-1.340777	0.121024
C27	C	-0.000085	-1.548237	0.115871
C28	C	-0.000087	-1.674233	0.118102
C29	C	-0.000079	-0.776555	0.119913
C30	C	-0.000065	-0.904922	0.122192
C31	C	-0.000064	-1.233389	-0.341098
C32	C	-0.073071	-1.286022	-0.401868
C33	C	-0.000076	-1.342698	-0.296474
C34	C	0.072908	-1.286075	-0.401870
C35	C	-0.000065	-1.338765	-0.461404
C36	C	-0.073144	-1.395361	-0.356016
C37	C	0.072901	-1.395399	-0.356011
C38	C	-0.000125	-1.448111	-0.416764
C39	C	-0.000083	-1.344961	-0.201461
C40	C	-0.000065	-1.336511	-0.556415
C41	C	-0.000063	-1.332459	0.274590
C42	C	-0.000057	-1.334705	0.367846
H43	H	-0.444403	-1.192014	0.230475
H44	H	-0.134788	-1.239777	-0.422178
O45	O	-0.435798	-1.294152	-0.040038
H46	H	-0.460582	-1.360230	-0.089319
H47	H	-0.555850	-1.381243	0.261358
H48	H	-0.444424	-1.530071	0.152110
O49	O	-0.563968	-1.511823	-0.004590
H50	H	-0.540064	-1.596803	0.009512
H51	H	-0.134934	-1.441544	-0.335809
H52	H	0.134635	-1.239839	-0.422163
H53	H	0.134621	-1.441604	-0.335680
O54	O	-0.564311	-1.123340	0.085549
H55	H	-0.507319	-1.065869	0.076802
O56	O	-0.000146	-1.113213	-0.297507
H57	H	-0.060838	-1.068098	-0.315752
H58	H	-0.000172	-1.538922	-0.449513
