data_functionalizedCrystal
_audit_creation_method	'MofGen! by Chris Wilmer'
_symmetry_space_group_name_H-M	'P1'
_symmetry_Int_Tables_number	1
_symmetry_cell_setting	triclinic
loop_
_symmetry_equiv_pos_as_xyz
  x,y,z
_cell_length_a	9.065218
_cell_length_b	11.792241
_cell_length_c	7.540329
_cell_angle_alpha	89.996256
_cell_angle_beta	89.996962
_cell_angle_gamma	84.604650
loop_
_atom_site_label
_atom_site_type_symbol
_atom_site_fract_x
_atom_site_fract_y
_atom_site_fract_z
O1	O	1.958839	0.166430	-0.147488
O2	O	1.529426	0.180081	-0.147491
O3	O	1.754553	0.008143	-0.147477
O4	O	1.733712	0.338368	-0.147502
O5	O	1.754539	0.008141	0.147488
O6	O	1.529412	0.180079	0.147474
O7	O	1.958825	0.166428	0.147477
Cu8	Cu	1.744118	0.173253	0.174408
Cu9	Cu	1.744134	0.173256	-0.174422
O10	O	1.733698	0.338366	0.147463
C11	C	1.474445	0.178768	-0.000008
C12	C	1.310639	0.174845	-0.000009
C13	C	1.753237	-0.034156	0.000005
C14	C	1.749319	-0.160192	0.000003
C15	C	1.742113	-0.390944	-0.000026
C16	C	1.746117	-0.262537	-0.000010
C17	C	2.013806	0.167741	-0.000009
C18	C	2.177612	0.171664	-0.000020
C19	C	1.735014	0.380665	-0.000023
C20	C	1.738933	0.506701	-0.000032
N21	N	1.744117	0.173251	0.419757
N22	N	1.744146	0.173249	-0.419770
