data_functionalizedCrystal
_audit_creation_method	'MofGen! by Chris Wilmer'
_symmetry_space_group_name_H-M	'P1'
_symmetry_Int_Tables_number	1
_symmetry_cell_setting	triclinic
loop_
_symmetry_equiv_pos_as_xyz
  x,y,z
_cell_length_a	15.995350
_cell_length_b	19.188930
_cell_length_c	15.072220
_cell_angle_alpha	89.993728
_cell_angle_beta	89.991149
_cell_angle_gamma	83.318578
loop_
_atom_site_label
_atom_site_type_symbol
_atom_site_fract_x
_atom_site_fract_y
_atom_site_fract_z
O1	O	1.110666	0.089991	-0.073718
O2	O	1.610666	0.589991	0.426282
O3	O	0.866850	0.101105	-0.073737
O4	O	1.366850	0.601105	0.426263
O5	O	0.995794	-0.006090	-0.073709
O6	O	1.495794	0.493910	0.426291
O7	O	0.981722	0.197186	-0.073745
O8	O	1.481722	0.697186	0.426255
O9	O	0.995763	-0.006084	0.073856
O10	O	1.495763	0.493916	0.573856
O11	O	0.866819	0.101111	0.073828
O12	O	1.366819	0.601111	0.573828
O13	O	1.110634	0.089997	0.073848
O14	O	1.610634	0.589997	0.573848
Zn15	Zn	0.988721	0.095555	0.097267
Zn16	Zn	1.488721	0.595555	0.597267
Zn17	Zn	0.988763	0.095547	-0.097156
Zn18	Zn	1.488763	0.595547	0.402844
O19	O	0.981690	0.197192	0.073820
O20	O	1.481690	0.697192	0.573820
C21	C	0.835641	0.100648	0.000043
C22	C	1.335641	0.600648	0.500043
C23	C	0.742696	0.099271	0.000037
C24	C	1.242696	0.599271	0.500037
C25	C	0.404967	0.094324	0.000056
C26	C	0.904967	0.594324	0.500056
C27	C	0.452680	0.017982	0.000398
C28	C	0.952680	0.517982	0.500398
C29	C	0.549365	0.019360	0.000059
C30	C	1.049365	0.519360	0.500059
C31	C	0.572518	0.096778	0.000047
C32	C	1.072518	0.596778	0.500047
C33	C	0.531311	0.134429	-0.084223
C34	C	1.031311	0.634429	0.415777
C35	C	0.434683	0.132511	-0.084287
C36	C	0.934683	0.632511	0.415713
C37	C	0.434302	0.134095	0.083522
C38	C	0.934302	0.634095	0.583522
C39	C	0.531247	0.134077	0.084629
C40	C	1.031247	0.634077	0.584629
C41	C	0.667211	0.098169	0.000039
C42	C	1.167211	0.598169	0.500039
C43	C	0.310274	0.092936	0.000058
C44	C	0.810274	0.592936	0.500058
C45	C	0.995323	-0.032099	0.000076
C46	C	1.495323	0.467901	0.500076
C47	C	0.993955	-0.109607	0.000083
C48	C	1.493955	0.390393	0.500083
C49	C	1.069615	-0.154338	0.000093
C50	C	1.569615	0.345662	0.500093
C51	C	1.068330	-0.227165	0.000079
C52	C	1.568330	0.272835	0.500079
C53	C	0.991380	-0.255258	0.000072
C54	C	1.491380	0.244742	0.500072
C55	C	0.915710	-0.210517	0.000057
C56	C	1.415710	0.289483	0.500057
C57	C	0.916997	-0.137691	0.000062
C58	C	1.416997	0.362309	0.500062
N59	N	0.932550	-0.363410	0.050287
N60	N	1.432550	0.136590	0.550287
N61	N	0.931333	-0.432592	0.050284
N62	N	1.431333	0.067408	0.550284
C63	C	0.987497	-0.474676	0.000054
C64	C	1.487497	0.025324	0.500054
N65	N	1.044937	-0.444966	-0.050161
N66	N	1.544937	0.055034	0.449839
N67	N	1.046158	-0.375779	-0.050154
N68	N	1.546158	0.124221	0.449846
C69	C	0.989976	-0.334224	0.000066
C70	C	1.489976	0.165776	0.500066
C71	C	1.061769	-0.598375	0.000048
C72	C	1.561769	-0.098375	0.500048
C73	C	1.060480	-0.671204	0.000028
C74	C	1.560480	-0.171204	0.500028
C75	C	0.907859	-0.654553	0.000015
C76	C	1.407859	-0.154553	0.500015
C77	C	0.909149	-0.581727	0.000025
C78	C	1.409149	-0.081727	0.500025
C79	C	0.986106	-0.553643	0.000046
C80	C	1.486106	-0.053643	0.500046
C81	C	1.141843	0.090454	0.000065
C82	C	1.641843	0.590454	0.500065
C83	C	1.234789	0.091831	0.000066
C84	C	1.734789	0.591831	0.500066
C85	C	0.982162	0.223201	0.000033
C86	C	1.482162	0.723201	0.500033
C87	C	0.983530	0.300709	0.000019
C88	C	1.483530	0.800709	0.500019
N89	N	0.988699	0.095560	0.229956
N90	N	1.488699	0.595560	0.729956
N91	N	0.988792	0.095537	-0.229845
N92	N	1.488792	0.595537	0.270155
C93	C	0.988762	0.095544	0.589157
C94	C	1.488762	0.595544	1.089157
C95	C	0.919536	0.152710	0.551535
C96	C	1.419536	0.652710	1.051535
C97	C	0.919693	0.152918	0.448710
C98	C	1.419693	0.652918	0.948710
C99	C	0.988730	0.095552	0.410953
C100	C	1.488730	0.595552	0.910953
C101	C	1.076036	0.111464	0.448248
C102	C	1.576036	0.611464	0.948248
C103	C	1.075648	0.111870	0.551106
C104	C	1.575648	0.611870	1.051106
C105	C	0.971460	0.022298	0.551269
C106	C	1.471460	0.522298	1.051269
C107	C	0.969454	0.022787	0.448405
C108	C	1.469454	0.522787	0.948405
C109	C	0.988717	0.095555	0.310240
C110	C	1.488717	0.595555	0.810240
C111	C	0.988780	0.095543	0.689871
C112	C	1.488780	0.595543	1.189871
H113	H	0.416488	0.105049	-0.147272
H114	H	0.916488	0.605049	0.352728
H115	H	0.402334	0.190382	0.084082
H116	H	0.902334	0.690382	0.584082
H117	H	0.909194	0.006998	0.577257
H118	H	1.409194	0.506998	1.077257
H119	H	1.128769	0.070935	0.423790
H120	H	1.628769	0.570935	0.923790
C121	C	1.033175	-0.037375	0.413704
C122	C	1.533175	0.462625	0.913704
H123	H	1.072548	-0.018819	0.375755
H124	H	1.572548	0.481181	0.875755
H125	H	1.004241	-0.069788	0.381596
H126	H	1.504241	0.430212	0.881596
H127	H	1.062068	-0.060624	0.462360
H128	H	1.562068	0.439376	0.962360
C129	C	1.154264	-0.123449	0.000101
C130	C	1.654264	0.376551	0.500101
H131	H	1.199141	-0.160524	0.000096
H132	H	1.699141	0.339476	0.500096
H133	H	1.157932	-0.095388	0.051559
H134	H	1.657932	0.404612	0.551559
H135	H	1.157947	-0.095384	-0.051366
H136	H	1.657947	0.404616	0.448634
C137	C	0.833768	-0.088485	0.000059
C138	C	1.333768	0.411515	0.500059
H139	H	0.787753	-0.115643	0.000057
H140	H	1.287753	0.384357	0.500057
H141	H	0.831109	-0.059720	-0.051394
H142	H	1.331109	0.440280	0.448606
H143	H	0.831089	-0.059740	0.051531
H144	H	1.331089	0.440260	0.551531
H145	H	0.847538	-0.545305	0.000022
H146	H	1.347538	-0.045305	0.500022
C147	C	1.151559	-0.276378	0.000097
C148	C	1.651559	0.223622	0.500097
H149	H	1.197575	-0.249222	0.000115
H150	H	1.697575	0.250778	0.500115
H151	H	1.154245	-0.305131	-0.051361
H152	H	1.654245	0.194869	0.448639
H153	H	1.154207	-0.305135	0.051564
H154	H	1.654207	0.194865	0.551564
H155	H	0.930403	0.206759	0.577365
H156	H	1.430403	0.706759	1.077365
C157	C	1.096288	0.184034	0.583497
C158	C	1.596288	0.684034	1.083497
H159	H	1.104827	0.212827	0.533794
H160	H	1.604827	0.712827	1.033794
H161	H	1.145937	0.178150	0.618585
H162	H	1.645937	0.678150	1.118585
H163	H	1.050818	0.205652	0.618082
H164	H	1.550818	0.705652	1.118082
C165	C	1.146416	-0.567479	0.000060
C166	C	1.646416	-0.067479	0.500060
H167	H	1.191294	-0.604553	0.000051
H168	H	1.691294	-0.104553	0.500051
H169	H	1.150081	-0.539424	0.051523
H170	H	1.650081	-0.039424	0.551523
H171	H	1.150100	-0.539409	-0.051401
H172	H	1.650100	-0.039409	0.448599
H173	H	1.128756	0.071875	0.575991
H174	H	1.628756	0.571875	1.075991
H175	H	1.122095	-0.707624	0.000031
H176	H	1.622095	-0.207624	0.500031
H177	H	0.905232	0.010712	0.424030
H178	H	1.405232	0.510712	0.924030
H179	H	0.845205	-0.677425	0.000005
H180	H	1.345205	-0.177425	0.500005
H181	H	0.854420	0.143386	0.576294
H182	H	1.354420	0.643386	1.076294
H183	H	0.930714	0.207273	0.424087
H184	H	1.430714	0.707273	0.924087
H185	H	0.402230	0.188560	-0.088121
H186	H	0.902230	0.688560	0.411879
H187	H	0.433211	-0.012395	-0.059692
H188	H	0.933211	0.487605	0.440308
H189	H	1.091695	0.164273	0.422471
H190	H	1.591695	0.664273	0.922471
H191	H	0.545229	0.191306	-0.087366
H192	H	1.045229	0.691306	0.412634
C193	C	0.832010	0.140125	0.414643
C194	C	1.332010	0.640125	0.914643
H195	H	0.795971	0.134757	0.463667
H196	H	1.295971	0.634757	0.963667
H197	H	0.836755	0.098755	0.379513
H198	H	1.336755	0.598755	0.879513
H199	H	0.809199	0.178986	0.379745
H200	H	1.309199	0.678986	0.879745
H201	H	0.559795	0.108273	-0.146930
H202	H	1.059795	0.608273	0.353070
H203	H	0.413844	0.109140	0.147396
H204	H	0.913844	0.609140	0.647396
H205	H	0.558651	0.106592	0.146972
H206	H	1.058651	0.606592	0.646972
C207	C	1.039654	-0.035172	0.584141
C208	C	1.539654	0.464828	1.084141
H209	H	1.078485	-0.014667	0.620778
H210	H	1.578485	0.485333	1.120778
H211	H	1.068517	-0.057219	0.534681
H212	H	1.568517	0.442781	1.034681
H213	H	1.014027	-0.069078	0.617265
H214	H	1.514027	0.430922	1.117265
H215	H	0.853057	-0.233394	0.000050
H216	H	1.353057	0.266606	0.500050
H217	H	0.577890	-0.010236	0.060468
H218	H	1.077890	0.489764	0.560468
H219	H	0.434257	-0.012531	0.060832
H220	H	0.934257	0.487469	0.560832
H221	H	0.577345	-0.010441	-0.060444
H222	H	1.077345	0.489559	0.439556
H223	H	0.546404	0.190533	0.089710
H224	H	1.046404	0.690533	0.589710
