data_functionalizedCrystal
_audit_creation_method	'MofGen! by Chris Wilmer'
_symmetry_space_group_name_H-M	'P1'
_symmetry_Int_Tables_number	1
_symmetry_cell_setting	triclinic
loop_
_symmetry_equiv_pos_as_xyz
  x,y,z
_cell_length_a	18.050591
_cell_length_b	18.050589
_cell_length_c	18.050582
_cell_angle_alpha	89.981795
_cell_angle_beta	89.979078
_cell_angle_gamma	90.024227
loop_
_atom_site_label
_atom_site_type_symbol
_atom_site_fract_x
_atom_site_fract_y
_atom_site_fract_z
Zn1	Zn	1.135293	-0.295786	-0.420054
Zn2	Zn	1.635293	0.204214	0.079946
Zn3	Zn	1.135203	-0.419969	-0.295873
Zn4	Zn	1.635203	0.080031	0.204127
Zn5	Zn	1.011112	-0.295789	-0.295865
Zn6	Zn	1.511112	0.204211	0.204135
Zn7	Zn	1.011060	-0.419930	-0.420009
Zn8	Zn	1.511060	0.080070	0.079991
O9	O	1.073167	-0.357868	-0.357950
O10	O	1.573167	0.142132	0.142050
O11	O	1.239205	-0.312274	-0.403603
O12	O	1.739205	0.187726	0.096397
O13	O	1.118727	-0.403514	-0.191948
O14	O	1.618727	0.096486	0.308052
O15	O	1.027644	-0.191864	-0.312354
O16	O	1.527644	0.308136	0.187646
O17	O	1.239140	-0.403511	-0.312369
O18	O	1.739140	0.096489	0.187631
O19	O	1.118879	-0.191862	-0.403595
O20	O	1.618879	0.308138	0.096405
O21	O	1.027557	-0.312279	-0.191942
O22	O	1.527557	0.187721	0.308058
O23	O	0.907180	-0.312241	-0.312311
O24	O	1.407180	0.187759	0.187689
O25	O	1.027555	-0.403444	-0.523940
O26	O	1.527555	0.096556	-0.023940
O27	O	0.907142	-0.403447	-0.403519
O28	O	1.407142	0.096553	0.096481
O29	O	1.118828	-0.312236	-0.523973
O30	O	1.618828	0.187764	-0.023973
O31	O	1.118676	-0.523888	-0.312325
O32	O	1.618676	-0.023888	0.187675
O33	O	1.027468	-0.523860	-0.403527
O34	O	1.527468	-0.023860	0.096473
C35	C	0.880215	-0.357841	-0.357909
C36	C	1.380215	0.142159	0.142091
C37	C	0.797669	-0.357847	-0.357909
C38	C	1.297669	0.142153	0.142091
C39	C	0.598217	-0.308191	-0.308425
C40	C	1.098217	0.191809	0.191575
C41	C	0.548798	-0.375927	-0.290154
C42	C	1.048798	0.124073	0.209846
C43	C	0.646539	-0.357869	-0.357943
C44	C	1.146539	0.142131	0.142057
C45	C	0.548877	-0.290157	-0.376212
C46	C	1.048877	0.209843	0.123788
C47	C	0.500553	-0.357885	-0.357974
C48	C	1.000553	0.142115	0.142026
C49	C	0.598206	-0.425641	-0.339637
C50	C	1.098206	0.074359	0.160363
C51	C	0.598289	-0.339825	-0.425726
C52	C	1.098289	0.160175	0.074274
C53	C	0.548892	-0.407607	-0.407481
C54	C	1.048892	0.092393	0.092519
C55	C	0.730637	-0.357859	-0.357923
C56	C	1.230637	0.142141	0.142077
C57	C	0.416457	-0.357903	-0.357994
C58	C	0.916457	0.142097	0.142006
C59	C	1.073077	-0.550820	-0.357938
C60	C	1.573077	-0.050820	0.142062
C61	C	1.073107	-0.633366	-0.357958
C62	C	1.573107	-0.133366	0.142042
C63	C	1.023557	-0.832828	-0.407536
C64	C	1.523557	-0.332828	0.092464
C65	C	1.005459	-0.882261	-0.339767
C66	C	1.505459	-0.382261	0.160233
C67	C	1.073180	-0.784497	-0.357967
C68	C	1.573180	-0.284497	0.142033
C69	C	1.091314	-0.882146	-0.425744
C70	C	1.591314	-0.382146	0.074256
C71	C	1.073249	-0.930482	-0.357983
C72	C	1.573249	-0.430482	0.142017
C73	C	1.055046	-0.832842	-0.290162
C74	C	1.555046	-0.332842	0.209838
C75	C	1.140933	-0.832722	-0.376186
C76	C	1.640933	-0.332722	0.123814
C77	C	1.122861	-0.882133	-0.308370
C78	C	1.622861	-0.382133	0.191630
C79	C	1.073138	-0.700398	-0.357959
C80	C	1.573138	-0.200398	0.142041
C81	C	1.073291	-1.014578	-0.357983
C82	C	1.573291	-0.514578	0.142017
C83	C	1.266872	-0.357897	-0.357992
C84	C	1.766872	0.142103	0.142008
C85	C	1.349418	-0.357909	-0.358010
C86	C	1.849418	0.142091	0.141990
C87	C	1.073196	-0.357835	-0.551656
C88	C	1.573196	0.142165	-0.051656
C89	C	1.073208	-0.357821	-0.634202
C90	C	1.573208	0.142179	-0.134202
C91	C	1.073277	-0.164163	-0.357979
C92	C	1.573277	0.335837	0.142021
C93	C	1.073324	-0.081617	-0.357991
C94	C	1.573324	0.418383	0.142009
C95	C	1.023612	-0.407353	-0.833635
C96	C	1.523612	0.092647	-0.333635
C97	C	1.091367	-0.425511	-0.883034
C98	C	1.591367	0.074489	-0.383034
C99	C	1.073245	-0.357765	-0.785332
C100	C	1.573245	0.142235	-0.285332
C101	C	1.005527	-0.339586	-0.883014
C102	C	1.505527	0.160414	-0.383014
C103	C	1.073274	-0.357711	-0.931317
C104	C	1.573274	0.142289	-0.431317
C105	C	1.141036	-0.375958	-0.833645
C106	C	1.641036	0.124042	-0.333645
C107	C	1.055150	-0.290002	-0.833620
C108	C	1.555150	0.209998	-0.333620
C109	C	1.122952	-0.308134	-0.882998
C110	C	1.622952	0.191866	-0.382998
C111	C	1.073227	-0.357797	-0.701234
C112	C	1.573227	0.142203	-0.201234
C113	C	1.073300	-0.357679	-1.015414
C114	C	1.573300	0.142321	-0.515414
C115	C	1.073181	-0.357848	-0.164998
C116	C	1.573181	0.142152	0.335002
C117	C	1.073312	-0.357652	-0.082453
C118	C	1.573312	0.142348	0.417547
H119	H	0.620045	-0.324530	-0.483019
H120	H	1.120045	0.175470	0.016981
H121	H	0.527370	-0.449673	-0.449370
H122	H	1.027370	0.050327	0.050630
H123	H	1.164986	-0.266177	-0.904535
H124	H	1.664986	0.233823	-0.404535
H125	H	0.948195	-0.904037	-0.324371
H126	H	1.448195	-0.404037	0.175629
O127	O	1.216954	-0.396086	-0.804890
O128	O	1.716954	0.103914	-0.304890
H129	H	1.213033	-0.446961	-0.770557
H130	H	1.713033	0.053039	-0.270557
O131	O	0.967890	-0.804140	-0.462978
O132	O	1.467890	-0.304140	0.037022
H133	H	0.982398	-0.824742	-0.519065
H134	H	1.482398	-0.324742	-0.019065
O135	O	1.111666	-0.501382	-0.911798
O136	O	1.611666	-0.001382	-0.411798
H137	H	1.070375	-0.542470	-0.892035
H138	H	1.570375	-0.042470	-0.392035
H139	H	0.619785	-0.482928	-0.324134
H140	H	1.119785	0.017072	0.175866
O141	O	1.034823	-0.214157	-0.804819
O142	O	1.534823	0.285843	-0.304819
H143	H	0.978544	-0.199217	-0.824547
H144	H	1.478544	0.300783	-0.324547
H145	H	0.948246	-0.324232	-0.904701
H146	H	1.448246	0.175768	-0.404701
H147	H	0.527169	-0.232894	-0.391625
H148	H	1.027169	0.267106	0.108375
O149	O	1.034672	-0.804284	-0.214223
O150	O	1.534672	-0.304284	0.285777
H151	H	1.034773	-0.742796	-0.214821
H152	H	1.534773	-0.242796	0.285179
H153	H	1.198184	-0.810948	-0.391613
H154	H	1.698184	-0.310948	0.108387
O155	O	0.626922	-0.252606	-0.252902
O156	O	1.126922	0.247394	0.247098
H157	H	0.607101	-0.267774	-0.196690
H158	H	1.107101	0.232226	0.303310
O159	O	1.111602	-0.910831	-0.501659
O160	O	1.611602	-0.410831	-0.001659
H161	H	1.070292	-0.891083	-0.542686
H162	H	1.570292	-0.391083	-0.042686
O163	O	0.968067	-0.462970	-0.804920
O164	O	1.468067	0.037030	-0.304920
H165	H	0.925696	-0.433978	-0.771086
H166	H	1.425696	0.066022	-0.271086
O167	O	0.519993	-0.396163	-0.214246
O168	O	1.019993	0.103837	0.285754
H169	H	0.539740	-0.354841	-0.173226
H170	H	1.039740	0.145159	0.326774
O171	O	1.178491	-0.910636	-0.252797
O172	O	1.678491	-0.410636	0.247203
H173	H	1.163292	-0.890783	-0.196621
H174	H	1.663292	-0.390783	0.303379
