data_functionalizedCrystal
_audit_creation_method	'MofGen! by Chris Wilmer'
_symmetry_space_group_name_H-M	'P1'
_symmetry_Int_Tables_number	1
_symmetry_cell_setting	triclinic
loop_
_symmetry_equiv_pos_as_xyz
  x,y,z
_cell_length_a	13.032831
_cell_length_b	21.295417
_cell_length_c	21.295420
_cell_angle_alpha	90.017552
_cell_angle_beta	97.184758
_cell_angle_gamma	82.834379
loop_
_atom_site_label
_atom_site_type_symbol
_atom_site_fract_x
_atom_site_fract_y
_atom_site_fract_z
Zn1	Zn	1.597491	-0.373134	0.477890
Zn2	Zn	2.097491	0.126866	0.977890
Zn3	Zn	1.597357	-0.478368	0.372605
Zn4	Zn	2.097357	0.021632	0.872605
Zn5	Zn	1.422752	-0.359735	0.359293
Zn6	Zn	1.922752	0.140265	0.859293
Zn7	Zn	1.422673	-0.464971	0.464499
Zn8	Zn	1.922673	0.035029	0.964499
O9	O	1.510068	-0.419052	0.418572
O10	O	2.010068	0.080948	0.918572
O11	O	1.743709	-0.398307	0.475100
O12	O	2.243709	0.101693	0.975100
O13	O	1.574172	-0.462630	0.282748
O14	O	2.074172	0.037370	0.782748
O15	O	1.446020	-0.273430	0.375058
O16	O	1.946020	0.226570	0.875058
O17	O	1.743610	-0.475622	0.397747
O18	O	2.243610	0.024378	0.897747
O19	O	1.574401	-0.283274	0.462191
O20	O	2.074401	0.216726	0.962191
O21	O	1.445890	-0.375471	0.272967
O22	O	1.945890	0.124529	0.772967
O23	O	1.276506	-0.362481	0.362073
O24	O	1.776506	0.137519	0.862073
O25	O	1.445886	-0.452790	0.554366
O26	O	1.945886	0.047210	1.054366
O27	O	1.276448	-0.439798	0.439367
O28	O	1.776448	0.060202	0.939367
O29	O	1.574325	-0.385317	0.564205
O30	O	2.074325	0.114683	1.064205
O31	O	1.574096	-0.564673	0.384762
O32	O	2.074096	-0.064673	0.884762
O33	O	1.445756	-0.554831	0.452276
O34	O	1.945756	-0.054831	0.952276
C35	C	1.238560	-0.398232	0.397823
C36	C	1.738560	0.101768	0.897823
C37	C	1.122407	-0.389341	0.388961
C38	C	1.622407	0.110659	0.888961
C39	C	1.509931	-0.582593	0.418526
C40	C	2.009931	-0.082593	0.918526
C41	C	1.509968	-0.652564	0.418535
C42	C	2.009968	-0.152564	0.918535
C43	C	1.070622	-0.423693	0.423197
C44	C	1.570622	0.076307	0.923197
C45	C	0.950572	-0.414503	0.414038
C46	C	1.450572	0.085497	0.914038
C47	C	1.576854	-0.690539	0.383427
C48	C	2.076854	-0.190539	0.883427
C49	C	1.576903	-0.756285	0.383445
C50	C	2.076903	-0.256285	0.883445
C51	C	1.510048	-0.784052	0.418563
C52	C	2.010048	-0.284052	0.918563
C53	C	1.443157	-0.746069	0.453679
C54	C	1.943157	-0.246069	0.953679
C55	C	1.443117	-0.680325	0.453665
C56	C	1.943117	-0.180325	0.953665
N57	N	1.418631	-0.880314	0.416376
N58	N	1.918631	-0.380314	0.916376
N59	N	1.418671	-0.942768	0.416385
N60	N	1.918671	-0.442768	0.916385
C61	C	1.510165	-0.982136	0.418608
C62	C	2.010165	-0.482136	0.918608
N63	N	1.601618	-0.956690	0.420808
N64	N	2.101618	-0.456690	0.920808
N65	N	1.601576	-0.894230	0.420795
N66	N	2.101576	-0.394230	0.920795
C67	C	1.510084	-0.855341	0.418582
C68	C	2.010084	-0.355341	0.918582
C69	C	1.577109	-1.091401	0.383517
C70	C	2.077109	-0.591401	0.883517
C71	C	1.577160	-1.157149	0.383540
C72	C	2.077160	-0.657149	0.883540
C73	C	1.443405	-1.146931	0.453770
C74	C	1.943405	-0.646931	0.953770
C75	C	1.443363	-1.081185	0.453752
C76	C	1.943363	-0.581185	0.953752
C77	C	1.510214	-1.053424	0.418622
C78	C	2.010214	-0.553424	0.918622
C79	C	1.782637	-0.439953	0.439402
C80	C	2.282637	0.060047	0.939402
C81	C	1.898789	-0.448860	0.448279
C82	C	2.398789	0.051140	0.948279
C83	C	1.510112	-0.419054	0.582765
C84	C	2.010112	0.080946	1.082765
C85	C	1.510130	-0.419054	0.652735
C86	C	2.010130	0.080946	1.152735
C87	C	1.510234	-0.254874	0.418633
C88	C	2.010234	0.245126	0.918633
C89	C	1.510305	-0.184912	0.418659
C90	C	2.010305	0.315088	0.918659
C91	C	1.443344	-0.373675	0.680499
C92	C	1.943344	0.126325	1.180499
C93	C	1.443325	-0.373676	0.746240
C94	C	1.943325	0.126324	1.246240
C95	C	1.510111	-0.419053	0.784216
C96	C	2.010111	0.080947	1.284216
C97	C	1.576902	-0.464441	0.756443
C98	C	2.076902	0.035559	1.256443
C99	C	1.576912	-0.464442	0.690703
C100	C	2.076912	0.035558	1.190703
N101	N	1.601565	-0.430893	0.894437
N102	N	2.101565	0.069107	1.394437
N103	N	1.601552	-0.430888	0.956888
N104	N	2.101552	0.069112	1.456888
C105	C	1.510084	-0.419054	0.982288
C106	C	2.010084	0.080946	1.482288
N107	N	1.418626	-0.407213	0.942879
N108	N	1.918626	0.092787	1.442879
N109	N	1.418640	-0.407214	0.880423
N110	N	1.918640	0.092786	1.380423
C111	C	1.510107	-0.419057	0.855501
C112	C	2.010107	0.080943	1.355501
C113	C	1.443271	-0.373674	1.081337
C114	C	1.943271	0.126326	1.581337
C115	C	1.443251	-0.373680	1.147079
C116	C	1.943251	0.126320	1.647079
C117	C	1.576837	-0.464442	1.157281
C118	C	2.076837	0.035558	1.657281
C119	C	1.576848	-0.464439	1.091540
C120	C	2.076848	0.035561	1.591540
C121	C	1.510067	-0.419051	1.053571
C122	C	2.010067	0.080949	1.553571
C123	C	1.510027	-0.419062	1.255017
C124	C	2.010027	0.080938	1.755017
C125	C	1.510036	-0.419058	1.185049
C126	C	2.010036	0.080942	1.685049
H127	H	1.115163	-0.459903	0.459289
H128	H	1.615163	0.040097	0.959289
C129	C	1.650224	-0.514430	0.798207
C130	C	2.150224	-0.014430	1.298207
N131	N	1.705399	-0.552112	0.829659
N132	N	2.205399	-0.052112	1.329659
C133	C	1.369864	-1.177471	0.492402
C134	C	1.869864	-0.677471	0.992402
N135	N	1.314473	-1.200477	0.521502
N136	N	1.814473	-0.700477	1.021502
C137	C	0.890409	-0.365577	0.365279
C138	C	1.390409	0.134423	0.865279
N139	N	0.845092	-0.328727	0.328553
N140	N	1.345092	0.171273	0.828553
C141	C	1.062240	-0.340417	0.340203
C142	C	1.562240	0.159583	0.840203
N143	N	1.016923	-0.303567	0.303478
N144	N	1.516923	0.196433	0.803478
H145	H	0.943325	-0.485072	0.484376
H146	H	1.443325	0.014928	0.984376
H147	H	1.631302	-0.501395	0.668098
H148	H	2.131302	-0.001395	1.168098
H149	H	1.631236	-0.501391	1.068934
H150	H	2.131236	-0.001391	1.568934
H151	H	1.631291	-0.667939	0.354824
H152	H	2.131291	-0.167939	0.854824
H153	H	1.388894	-1.050263	0.482337
H154	H	1.888894	-0.550263	0.982337
C155	C	1.650480	-0.798065	0.344817
C156	C	2.150480	-0.298065	0.844817
N157	N	1.705896	-0.829532	0.315721
N158	N	2.205896	-0.329532	0.815721
H159	H	1.388725	-0.768681	0.482274
H160	H	1.888725	-0.268681	0.982274
C161	C	1.369547	-0.638551	0.492298
C162	C	1.869547	-0.138551	0.992298
N163	N	1.314138	-0.607087	0.521400
N164	N	1.814138	-0.107087	1.021400
H165	H	1.388941	-0.336720	0.768851
H166	H	1.888941	0.163280	1.268851
C167	C	1.650661	-1.060863	0.344884
C168	C	2.150661	-0.560863	0.844884
N169	N	1.706065	-1.037864	0.315788
N170	N	2.206065	-0.537864	0.815788
C171	C	1.650743	-1.198922	0.344915
C172	C	2.150743	-0.698922	0.844915
N173	N	1.706165	-1.230386	0.315820
N174	N	2.206165	-0.730386	0.815820
H175	H	1.388961	-0.336719	0.649589
H176	H	1.888961	0.163281	1.149589
H177	H	1.388857	-0.336728	1.169682
H178	H	1.888857	0.163272	1.669682
H179	H	1.388893	-0.336717	1.050421
H180	H	1.888893	0.163283	1.550421
C181	C	1.650350	-0.514333	1.199054
C182	C	2.150350	-0.014333	1.699054
N183	N	1.705737	-0.551903	1.230522
N184	N	2.205737	-0.051903	1.730522
