data_functionalizedCrystal
_audit_creation_method	'MofGen! by Chris Wilmer'
_symmetry_space_group_name_H-M	'P1'
_symmetry_Int_Tables_number	1
_symmetry_cell_setting	triclinic
loop_
_symmetry_equiv_pos_as_xyz
  x,y,z
_cell_length_a	16.625546
_cell_length_b	17.639874
_cell_length_c	16.625539
_cell_angle_alpha	78.826411
_cell_angle_beta	89.969603
_cell_angle_gamma	78.754311
loop_
_atom_site_label
_atom_site_type_symbol
_atom_site_fract_x
_atom_site_fract_y
_atom_site_fract_z
Zn1	Zn	-0.071593	-1.208336	-0.207148
Zn2	Zn	0.428407	-0.708336	0.292852
Zn3	Zn	-0.206456	-1.208241	-0.072330
Zn4	Zn	0.293544	-0.708241	0.427670
Zn5	Zn	-0.098903	-1.076160	-0.099538
Zn6	Zn	0.401097	-0.576160	0.400462
Zn7	Zn	-0.233675	-1.076131	-0.234316
Zn8	Zn	0.266325	-0.576131	0.265684
O9	O	-0.152657	-1.142217	-0.153333
O10	O	0.347343	-0.642217	0.346667
O11	O	-0.066663	-1.318927	-0.166507
O12	O	0.433337	-0.818927	0.333493
O13	O	-0.192227	-1.190692	0.036888
O14	O	0.307773	-0.690692	0.536888
O15	O	0.017563	-1.093745	-0.113830
O16	O	0.517563	-0.593745	0.386170
O17	O	-0.165746	-1.318857	-0.067457
O18	O	0.334254	-0.818857	0.432543
O19	O	0.037627	-1.190854	-0.192890
O20	O	0.537627	-0.690854	0.307110
O21	O	-0.113208	-1.093653	0.016898
O22	O	0.386792	-0.593653	0.516898
O23	O	-0.139602	-0.965553	-0.140173
O24	O	0.360398	-0.465553	0.359827
O25	O	-0.212137	-1.093696	-0.343539
O26	O	0.287863	-0.593696	0.156461
O27	O	-0.238618	-0.965531	-0.239194
O28	O	0.261382	-0.465531	0.260806
O29	O	-0.093056	-1.190826	-0.323578
O30	O	0.406944	-0.690826	0.176422
O31	O	-0.322910	-1.190664	-0.093800
O32	O	0.177090	-0.690664	0.406200
O33	O	-0.342908	-1.093604	-0.212811
O34	O	0.157092	-0.593604	0.287189
C35	C	-0.195028	-0.936863	-0.195585
C36	C	0.304972	-0.436863	0.304415
C37	C	-0.213173	-0.849012	-0.213679
C38	C	0.286827	-0.349012	0.286321
C39	C	-0.362163	-1.142142	-0.153314
C40	C	0.137837	-0.642142	0.346686
C41	C	-0.451776	-1.142182	-0.153319
C42	C	0.048224	-0.642182	0.346681
C43	C	-0.014741	-0.560027	-0.015835
C44	C	0.485259	-0.060027	0.484165
C45	C	-0.031808	-0.477477	-0.032848
C46	C	0.468192	0.022523	0.467152
C47	C	-0.135056	-0.477510	-0.135781
C48	C	0.364944	0.022490	0.364219
C49	C	-0.117995	-0.560061	-0.118778
C50	C	0.382005	-0.060061	0.381222
C51	C	-0.057837	-0.601313	-0.058804
C52	C	0.442163	-0.101313	0.441196
C53	C	-0.161091	-0.601347	-0.161748
C54	C	0.338909	-0.101347	0.338252
C55	C	-0.144034	-0.683891	-0.144744
C56	C	0.355966	-0.183891	0.355256
C57	C	-0.083881	-0.725149	-0.084770
C58	C	0.416119	-0.225149	0.415230
C59	C	-0.040780	-0.683857	-0.041800
C60	C	0.459220	-0.183857	0.458200
C61	C	-0.221252	-0.560093	-0.221718
C62	C	0.278748	-0.060093	0.278282
C63	C	-0.264348	-0.601379	-0.264687
C64	C	0.235652	-0.101379	0.235313
C65	C	-0.247287	-0.683924	-0.247687
C66	C	0.252713	-0.183924	0.252313
C67	C	-0.187134	-0.725182	-0.187714
C68	C	0.312866	-0.225182	0.312286
C69	C	-0.290388	-0.725216	-0.290658
C70	C	0.209612	-0.225216	0.209342
C71	C	-0.273331	-0.807760	-0.273654
C72	C	0.226669	-0.307760	0.226346
C73	C	-0.170077	-0.807726	-0.170710
C74	C	0.329923	-0.307726	0.329290
C75	C	-0.779923	-1.142320	-0.153374
C76	C	-0.279923	-0.642320	0.346626
C77	C	-0.688623	-1.142279	-0.153361
C78	C	-0.188623	-0.642279	0.346639
C79	C	-0.615853	-1.142251	-0.153346
C80	C	-0.115853	-0.642251	0.346654
C81	C	-0.524547	-1.142211	-0.153334
C82	C	-0.024547	-0.642211	0.346666
C83	C	0.057672	-1.142314	-0.153364
C84	C	0.557672	-0.642314	0.346636
C85	C	0.147302	-1.142355	-0.153378
C86	C	0.647302	-0.642355	0.346622
C87	C	-0.152586	-1.142268	-0.363631
C88	C	0.347414	-0.642268	0.136369
C89	C	-0.152556	-1.142290	-0.453248
C90	C	0.347444	-0.642290	0.046752
C91	C	-0.110111	-0.348372	-0.110908
C92	C	0.389889	0.151628	0.389092
C93	C	-0.091955	-0.436223	-0.092808
C94	C	0.408045	0.063777	0.407192
C95	C	-0.152458	-1.142327	-0.781416
C96	C	0.347542	-0.642327	-0.281416
C97	C	-0.152489	-1.142314	-0.690110
C98	C	0.347511	-0.642314	-0.190110
C99	C	-0.152508	-1.142309	-0.617335
C100	C	0.347492	-0.642309	-0.117335
C101	C	-0.152537	-1.142296	-0.526023
C102	C	0.347463	-0.642296	-0.026023
C103	C	-0.152660	-1.142211	0.056157
C104	C	0.347340	-0.642211	0.556157
C105	C	-0.152431	-1.142342	0.145805
C106	C	0.347569	-0.642342	0.645805
H107	H	-0.121079	-0.841316	-0.121885
H108	H	0.378921	-0.341316	0.378115
N109	N	-0.066458	-0.809466	-0.067414
N110	N	0.433542	-0.309466	0.432586
N111	N	-0.042064	-0.846341	-0.122744
N112	N	0.457936	-0.346341	0.377256
H113	H	-0.029759	-0.905891	-0.110487
H114	H	0.470241	-0.405891	0.389513
N115	N	0.046728	-0.602176	0.045407
N116	N	0.546728	-0.102176	0.545407
N117	N	0.119222	-0.592978	0.038017
N118	N	0.619222	-0.092978	0.538017
H119	H	0.162635	-0.622748	0.081265
H120	H	0.662635	-0.122748	0.581265
N121	N	-0.196509	-0.435380	-0.197038
N122	N	0.303491	0.064620	0.302962
N123	N	-0.269001	-0.444588	-0.189666
N124	N	0.230999	0.055412	0.310334
H125	H	-0.312404	-0.414837	-0.232932
H126	H	0.187596	0.085163	0.267068
H127	H	0.003296	-0.443865	0.002141
H128	H	0.503296	0.056135	0.502141
H129	H	-0.235138	-0.492880	-0.235560
H130	H	0.264862	0.007120	0.264440
N131	N	0.020664	-0.726015	0.019464
N132	N	0.520664	-0.226015	0.519464
N133	N	0.035880	-0.799714	0.034638
N134	N	0.535880	-0.299714	0.534638
H135	H	0.079271	-0.829490	0.077904
H136	H	0.579271	-0.329490	0.577904
H137	H	-0.308423	-0.841376	-0.308644
H138	H	0.191577	-0.341376	0.191356
N139	N	-0.325796	-0.559226	-0.325940
N140	N	0.174204	-0.059226	0.174060
N141	N	-0.341022	-0.485526	-0.341114
N142	N	0.158978	0.014474	0.158886
H143	H	-0.384420	-0.455755	-0.384376
H144	H	0.115580	0.044245	0.115624
N145	N	-0.351826	-0.683073	-0.351925
N146	N	0.148174	-0.183073	0.148075
N147	N	-0.344659	-0.692322	-0.424432
N148	N	0.155341	-0.192322	0.075568
H149	H	-0.388050	-0.662559	-0.467704
H150	H	0.111950	-0.162559	0.032296
