data_functionalizedCrystal
_audit_creation_method	'MofGen! by Chris Wilmer'
_symmetry_space_group_name_H-M	'P1'
_symmetry_Int_Tables_number	1
_symmetry_cell_setting	triclinic
loop_
_symmetry_equiv_pos_as_xyz
  x,y,z
_cell_length_a	17.077404
_cell_length_b	12.759400
_cell_length_c	17.077396
_cell_angle_alpha	89.974265
_cell_angle_beta	89.980813
_cell_angle_gamma	90.012892
loop_
_atom_site_label
_atom_site_type_symbol
_atom_site_fract_x
_atom_site_fract_y
_atom_site_fract_z
Zn1	Zn	1.200082	-0.418307	-0.443903
Zn2	Zn	1.200013	-0.594010	-0.312645
Zn3	Zn	1.068819	-0.418340	-0.312646
Zn4	Zn	1.068801	-0.593939	-0.443864
O5	O	1.134429	-0.506149	-0.378265
O6	O	1.309920	-0.441630	-0.426507
O7	O	1.182589	-0.570751	-0.202798
O8	O	1.086268	-0.271315	-0.330075
O9	O	1.309869	-0.570718	-0.330072
O10	O	1.182706	-0.271290	-0.426508
O11	O	1.086201	-0.441687	-0.202799
O12	O	0.958970	-0.441618	-0.330037
O13	O	1.086237	-0.570597	-0.553716
O14	O	0.958956	-0.570630	-0.426442
O15	O	1.182689	-0.441561	-0.553745
O16	O	1.182571	-0.741021	-0.330035
O17	O	1.086170	-0.740969	-0.426441
C18	C	0.930481	-0.506120	-0.378236
C19	C	0.843231	-0.506134	-0.378243
C20	C	0.467440	-0.439082	-0.428587
C21	C	0.549421	-0.439075	-0.428578
C22	C	0.590382	-0.506171	-0.378284
C23	C	0.549359	-0.573287	-0.328002
C24	C	0.467380	-0.573299	-0.328015
C25	C	0.720229	-0.573255	-0.327976
C26	C	0.802214	-0.573242	-0.327962
C27	C	0.802270	-0.439031	-0.428540
C28	C	0.720291	-0.439043	-0.428553
C29	C	0.679273	-0.506158	-0.378269
C30	C	1.134382	-0.779116	-0.378251
C31	C	1.134434	-0.895893	-0.378271
C32	C	1.184628	-0.950652	-0.428527
C33	C	1.184672	-1.060376	-0.428548
C34	C	1.084327	-1.060572	-0.328051
C35	C	1.084279	-0.950850	-0.328034
C36	C	1.212727	-1.210215	-0.521173
C37	C	1.262933	-1.264978	-0.571422
C38	C	1.339504	-1.229275	-0.583541
C39	C	1.365885	-1.138809	-0.545399
C40	C	1.315683	-1.084052	-0.495144
C41	C	1.239101	-1.119754	-0.483041
C42	C	1.056232	-0.801009	-0.235408
C43	C	1.006034	-0.746250	-0.185149
C44	C	0.929461	-0.781951	-0.173022
C45	C	0.903083	-0.872420	-0.211151
C46	C	0.953282	-0.927179	-0.261410
C47	C	1.029853	-0.891470	-0.273537
C48	C	1.339173	-0.506178	-0.378294
C49	C	1.426423	-0.506191	-0.378306
C50	C	1.134468	-0.506068	-0.583009
C51	C	1.134485	-0.506033	-0.670259
C52	C	1.134497	-0.232116	-0.378296
C53	C	1.134526	-0.115339	-0.378309
C54	C	1.084311	-0.438821	-0.711249
C55	C	1.084324	-0.438797	-0.793229
C56	C	1.134515	-0.505981	-0.834218
C57	C	1.184691	-0.573200	-0.793223
C58	C	1.184674	-0.573228	-0.711244
C59	C	1.184725	-0.573134	-0.964093
C60	C	1.184744	-0.573104	-1.046077
C61	C	1.084375	-0.438703	-1.046079
C62	C	1.084358	-0.438732	-0.964100
C63	C	1.134535	-0.505950	-0.923109
C64	C	1.134435	-0.506154	-0.174317
C65	C	1.134570	-0.505893	-0.087067
H66	H	1.337163	-1.010399	-0.464088
H67	H	1.043464	-0.384071	-0.826600
H68	H	1.043444	-0.384107	-0.677882
H69	H	1.043491	-0.384021	-0.930729
H70	H	0.840733	-0.901491	-0.201275
H71	H	1.043520	-0.383971	-1.079457
H72	H	0.835670	-0.384382	-0.469482
H73	H	1.225614	-0.627811	-1.079448
C74	C	0.874255	-0.721749	-0.117702
C75	C	0.903274	-0.622267	-0.075726
C76	C	0.848073	-0.562084	-0.020394
C77	C	0.763853	-0.601383	-0.007037
C78	C	0.734831	-0.700871	-0.049013
C79	C	0.790031	-0.761053	-0.104345
H80	H	0.965622	-0.593171	-0.085613
H81	H	0.869558	-0.488437	0.010679
H82	H	0.722991	-0.556833	0.033923
H83	H	0.672482	-0.729967	-0.039126
H84	H	0.768546	-0.834700	-0.135419
C85	C	1.450120	-1.099541	-0.558724
C86	C	1.505339	-1.159770	-0.614003
C87	C	1.589575	-1.120498	-0.627331
C88	C	1.618591	-1.020996	-0.585380
C89	C	1.563370	-0.960761	-0.530097
C90	C	1.479135	-1.000034	-0.516769
H91	H	1.483861	-1.233432	-0.645061
H92	H	1.630453	-1.165088	-0.668255
H93	H	1.680947	-0.991924	-0.595246
H94	H	1.584848	-0.887099	-0.499039
H95	H	1.438257	-0.955444	-0.475845
C96	C	1.239916	-0.647072	-0.918995
C97	C	1.329159	-0.638508	-0.930269
C98	C	1.384349	-0.712439	-0.885169
C99	C	1.350296	-0.794933	-0.828794
C100	C	1.261049	-0.803500	-0.817517
C101	C	1.205859	-0.729569	-0.862618
H102	H	1.354371	-0.577438	-0.972003
H103	H	1.450416	-0.706097	-0.893516
H104	H	1.391151	-0.849662	-0.795408
H105	H	1.235837	-0.864571	-0.775783
H106	H	1.139792	-0.735912	-0.854270
H107	H	1.380382	-1.273870	-0.624455
H108	H	0.434095	-0.384438	-0.469537
H109	H	1.225466	-0.905909	-0.469434
C110	C	0.675107	-0.647079	-0.272663
C111	C	0.618720	-0.601449	-0.211107
C112	C	0.573597	-0.675265	-0.155793
C113	C	0.584860	-0.794712	-0.162035
C114	C	0.641249	-0.840348	-0.223593
C115	C	0.686372	-0.766531	-0.278908
H116	H	0.610381	-0.513022	-0.206484
H117	H	0.531854	-0.641482	-0.110223
H118	H	0.551457	-0.849355	-0.121088
H119	H	0.649588	-0.928775	-0.228216
H120	H	0.728115	-0.800315	-0.324477
H121	H	1.225554	-0.627907	-0.826602
H122	H	1.027519	-0.672589	-0.154099
C123	C	0.422257	-0.647116	-0.272703
C124	C	0.433481	-0.638386	-0.183475
C125	C	0.388359	-0.712209	-0.128165
C126	C	0.332012	-0.794762	-0.162083
C127	C	0.320786	-0.803496	-0.251315
C128	C	0.365908	-0.729673	-0.306626
H129	H	0.475194	-0.577273	-0.158363
H130	H	0.396670	-0.705744	-0.062109
H131	H	0.298610	-0.849411	-0.121139
H132	H	0.279072	-0.864609	-0.276427
H133	H	0.357597	-0.736138	-0.372682
C134	C	0.924267	-1.026695	-0.303355
C135	C	0.840039	-1.065975	-0.290020
C136	C	0.811027	-1.165490	-0.331964
C137	C	0.866242	-1.225724	-0.387244
C138	C	0.950475	-1.186445	-0.400582
C139	C	0.979488	-1.086930	-0.358638
H140	H	0.799161	-1.021385	-0.249096
H141	H	0.748671	-1.194567	-0.322090
H142	H	0.844765	-1.299391	-0.418294
H143	H	0.991353	-1.231035	-0.441506
H144	H	1.041843	-1.057853	-0.368512
C145	C	1.239865	-0.647160	-0.666148
C146	C	1.329108	-0.638602	-0.677424
C147	C	1.384296	-0.712540	-0.632328
C148	C	1.350242	-0.795037	-0.575956
C149	C	1.260994	-0.803598	-0.564678
C150	C	1.205806	-0.729660	-0.609774
H151	H	1.354321	-0.577529	-0.719155
H152	H	1.450363	-0.706201	-0.640677
H153	H	1.391095	-0.849770	-0.542573
H154	H	1.235781	-0.864671	-0.522946
H155	H	1.139739	-0.735999	-0.601425
C156	C	0.594531	-0.365250	-0.483892
C157	C	0.583286	-0.373978	-0.573117
C158	C	0.628393	-0.300150	-0.628437
C159	C	0.684744	-0.217594	-0.594531
C160	C	0.695992	-0.208863	-0.505301
C161	C	0.650885	-0.282691	-0.449982
H162	H	0.541569	-0.435094	-0.598220
H163	H	0.620066	-0.306614	-0.694491
H164	H	0.718134	-0.162943	-0.635482
H165	H	0.737709	-0.147747	-0.480198
H166	H	0.659212	-0.276227	-0.383928
H167	H	0.835563	-0.627881	-0.287010
H168	H	0.686942	-0.384403	-0.469503
H169	H	1.241447	-1.338635	-0.602478
H170	H	0.582717	-0.627922	-0.287054
H171	H	1.150375	-1.239287	-0.511319
H172	H	1.043494	-1.105331	-0.287149
H173	H	1.118580	-0.771921	-0.245288
