data_functionalizedCrystal
_audit_creation_method	'MofGen! by Chris Wilmer'
_symmetry_space_group_name_H-M	'P1'
_symmetry_Int_Tables_number	1
_symmetry_cell_setting	triclinic
loop_
_symmetry_equiv_pos_as_xyz
  x,y,z
_cell_length_a	14.971486
_cell_length_b	12.837942
_cell_length_c	13.448316
_cell_angle_alpha	89.994234
_cell_angle_beta	89.998199
_cell_angle_gamma	89.221535
loop_
_atom_site_label
_atom_site_type_symbol
_atom_site_fract_x
_atom_site_fract_y
_atom_site_fract_z
O1	O	1.198338	0.135106	-0.082576
O2	O	0.939302	0.151285	-0.082603
O3	O	1.063076	-0.007715	-0.082584
O4	O	1.074564	0.294105	-0.082595
O5	O	1.063058	-0.007724	0.082800
O6	O	0.939284	0.151275	0.082781
O7	O	1.198320	0.135096	0.082808
Cu8	Cu	1.068800	0.143185	0.097895
Cu9	Cu	1.068822	0.143196	-0.097690
O10	O	1.074546	0.294095	0.082789
C11	C	0.905907	0.150556	0.000086
C12	C	0.806427	0.148388	0.000075
C13	C	0.757077	0.241796	0.000073
C14	C	0.663606	0.239752	0.000088
C15	C	0.619486	0.144300	0.000098
C16	C	0.668842	0.050885	0.000103
C17	C	0.762313	0.052930	0.000095
C18	C	0.474021	0.046630	0.000117
C19	C	0.380545	0.044585	0.000123
C20	C	0.375314	0.233453	0.000110
C21	C	0.468784	0.235497	0.000102
C22	C	0.518135	0.142082	0.000105
C23	C	1.059187	-0.046345	0.000107
C24	C	1.047612	-0.161436	0.000104
C25	C	1.186755	-0.402222	0.000098
C26	C	1.175884	-0.510362	0.000095
C27	C	1.015001	-0.485856	0.000089
C28	C	1.025872	-0.377717	0.000092
C29	C	1.111751	-0.335904	0.000098
C30	C	1.122621	-0.227763	0.000108
C31	C	0.961739	-0.203260	0.000094
C32	C	0.950868	-0.311399	0.000091
C33	C	1.231715	0.135824	0.000117
C34	C	1.331195	0.137993	0.000121
C35	C	1.078436	0.332726	0.000096
C36	C	1.090010	0.447817	0.000092
N37	N	1.068792	0.143176	0.235460
N38	N	1.068837	0.143197	-0.235255
C39	C	1.123620	0.072800	0.287508
C40	C	1.123626	0.072799	0.391612
C41	C	1.068807	0.143180	0.443664
C42	C	1.013972	0.213559	0.391608
C43	C	1.013963	0.213554	0.287507
C44	C	1.013998	0.213566	0.608588
C45	C	1.014008	0.213573	0.712697
C46	C	1.123661	0.072811	0.712693
C47	C	1.123651	0.072806	0.608592
C48	C	1.068818	0.143187	0.556543
H49	H	1.192549	-0.193721	0.000116
N50	N	1.182777	-0.003097	0.552441
H51	H	1.247286	0.008965	0.570544
H52	H	1.166135	-0.076667	0.570587
N53	N	0.621258	-0.052068	0.000104
H54	H	0.666707	-0.110931	0.000106
H55	H	0.582590	-0.057035	0.061415
N56	N	0.516363	0.338454	0.000091
H57	H	0.555030	0.343509	0.061395
H58	H	0.554974	0.343453	-0.061261
N59	N	0.858243	-0.356494	0.000087
H60	H	0.850146	-0.400807	-0.061222
H61	H	0.850204	-0.400772	0.061435
H62	H	1.168308	0.015504	0.755077
H63	H	1.256681	-0.368178	0.000113
H64	H	0.335129	0.309515	0.000112
H65	H	0.792993	0.319524	0.000065
H66	H	0.969368	0.270883	0.755073
N67	N	0.880835	-0.131731	0.000099
H68	H	0.900750	-0.056880	0.000104
H69	H	0.843811	-0.145272	-0.061213
N70	N	0.332944	-0.058357	0.000141
H71	H	0.350348	-0.099296	-0.061159
H72	H	0.350365	-0.099201	0.061497
N73	N	1.182772	-0.003086	0.447762
H74	H	1.225744	0.036633	0.490940
H75	H	1.144625	-0.049038	0.490913
N76	N	0.954843	0.289463	0.447753
H77	H	0.992941	0.335436	0.490931
H78	H	0.920113	0.333975	0.398922
N79	N	0.527252	-0.054123	0.000127
H80	H	0.485121	-0.114903	0.000131
H81	H	0.566145	-0.057384	-0.061186
N82	N	0.815545	-0.047817	0.000105
H83	H	0.773414	-0.108597	0.000112
H84	H	0.854441	-0.051083	-0.061205
N85	N	1.256779	-0.581892	0.000093
H86	H	1.312830	-0.538991	0.000098
H87	H	1.255769	-0.627301	0.061403
H88	H	0.623429	0.315815	0.000086
H89	H	0.945081	-0.519920	0.000073
N90	N	0.954832	0.289462	0.231360
H91	H	0.911846	0.249762	0.188183
H92	H	0.920165	0.334035	0.280189
H93	H	1.168264	0.015492	0.245134
H94	H	0.969343	0.270875	0.566213
