data_functionalizedCrystal
_audit_creation_method	'MofGen! by Chris Wilmer'
_symmetry_space_group_name_H-M	'P1'
_symmetry_Int_Tables_number	1
_symmetry_cell_setting	triclinic
loop_
_symmetry_equiv_pos_as_xyz
  x,y,z
_cell_length_a	14.395555
_cell_length_b	12.970454
_cell_length_c	12.970454
_cell_angle_alpha	60.000046
_cell_angle_beta	59.999555
_cell_angle_gamma	90.001508
loop_
_atom_site_label
_atom_site_type_symbol
_atom_site_fract_x
_atom_site_fract_y
_atom_site_fract_z
Zr1	Zr	0.894918	-0.135238	1.128467
O2	O	0.746589	-0.299869	1.343565
O3	O	0.940388	-0.084770	0.913376
O4	O	0.940390	-0.299859	1.128466
O5	O	0.746587	0.084887	1.128473
O6	O	1.093264	-0.299850	1.128458
O7	O	0.746588	-0.084780	1.128474
O8	O	1.093262	0.084905	0.743701
O9	O	0.746589	-0.299868	1.513230
O10	O	1.073870	-0.063239	1.001838
O11	O	0.959781	0.063376	1.001843
O12	O	0.959783	-0.189864	1.255084
O13	O	0.845694	-0.063250	1.255089
Zr14	Zr	1.138734	0.135377	1.128454
Zr15	Zr	1.138735	-0.135223	1.128455
Zr16	Zr	0.894918	0.135362	1.128466
Zr17	Zr	0.894919	-0.135235	1.399065
Zr18	Zr	1.138733	0.135375	0.857856
O19	O	1.093264	0.084910	1.343545
O20	O	1.093264	-0.299849	1.343547
O21	O	0.746588	0.084889	1.343562
O22	O	1.287064	0.300008	0.913356
O23	O	1.287064	-0.084750	0.913358
O24	O	0.940388	0.299988	0.913374
O25	O	1.287065	-0.084748	1.128447
O26	O	1.093263	0.299999	1.128455
O27	O	0.940389	0.299990	1.128463
O28	O	1.287065	0.084919	1.128446
O29	O	0.940391	-0.299856	1.513221
O30	O	1.093261	0.299995	0.743700
O31	O	1.287063	0.300007	0.743690
O32	O	1.287063	0.084916	0.743691
O33	O	0.746589	-0.084777	1.513229
O34	O	0.940390	-0.084765	1.513220
O35	O	1.073870	0.190003	1.001837
O36	O	1.187958	0.063389	1.001832
O37	O	1.073871	-0.063236	1.255078
O38	O	0.959782	0.063378	1.255083
C39	C	0.711849	0.000052	1.128476
C40	C	0.608342	0.000046	1.128481
C41	C	1.016825	0.000067	0.789984
C42	C	1.016825	0.000066	0.675108
C43	C	1.016826	0.338549	1.128459
C44	C	1.016825	0.453426	1.128458
C45	C	0.485548	-0.068985	1.266562
C46	C	0.454712	-0.119014	1.197535
C47	C	0.454755	0.050065	1.197502
C48	C	0.578870	-0.050053	1.059454
C49	C	0.578909	0.119092	1.059440
C50	C	0.548147	0.069093	0.990313
C51	C	1.321803	0.000088	1.128445
C52	C	1.425310	0.000094	1.128440
C53	C	1.016827	-0.338410	1.128462
C54	C	1.016827	-0.453286	1.128463
C55	C	1.016827	0.000073	1.466937
C56	C	1.016828	0.000074	1.581813
C57	C	1.321802	0.000085	0.789969
C58	C	1.425308	0.000090	0.675088
C59	C	1.016825	0.338546	0.789982
C60	C	1.016824	0.453422	0.675106
C61	C	1.321802	0.338564	0.789967
C62	C	1.425308	0.453446	0.675085
C63	C	0.711850	-0.338425	1.466954
C64	C	0.608344	-0.453307	1.581835
C65	C	0.711850	0.000055	1.466952
C66	C	0.608344	0.000049	1.581833
C67	C	1.016828	-0.338407	1.466939
C68	C	1.016828	-0.453283	1.581815
C69	C	1.473917	0.093568	0.527653
C70	C	1.571162	0.093577	0.419695
C71	C	1.619802	0.000112	0.459175
C72	C	1.571185	-0.093375	0.606624
C73	C	1.473937	-0.093388	0.714579
C74	C	1.473923	0.507394	0.527651
C75	C	1.571189	0.615326	0.419691
C76	C	1.619833	0.669312	0.459168
C77	C	1.571213	0.615355	0.606617
C78	C	1.473954	0.507420	0.714574
C79	C	0.559738	-0.507264	1.729269
C80	C	0.462493	-0.615220	1.837229
C81	C	0.413853	-0.669211	1.797752
C82	C	0.462469	-0.615248	1.650303
C83	C	0.559716	-0.507299	1.542346
C84	C	0.559735	0.093531	1.542308
C85	C	0.462489	0.093552	1.650236
C86	C	0.413850	0.000085	1.797688
C87	C	0.462468	-0.093401	1.837213
C88	C	0.559716	-0.093416	1.729286
H89	H	0.460105	-0.127452	1.383322
C90	C	0.613227	0.196352	1.380120
H91	H	0.678105	0.182964	1.321487
H92	H	0.635391	0.277041	1.359406
H93	H	0.559184	0.192474	1.359406
H94	H	0.422916	0.169679	1.618025
C95	C	0.613232	-0.447893	1.772714
H96	H	0.678108	-0.375867	1.687314
H97	H	0.635397	-0.507865	1.828801
H98	H	0.559189	-0.423304	1.828821
C99	C	1.420479	-0.196212	0.876755
H100	H	1.355589	-0.182851	0.935408
H101	H	1.474530	-0.192326	0.897446
H102	H	1.398318	-0.276905	0.897465
H103	H	0.573804	0.127477	0.873457
C104	C	0.306875	-0.787943	1.916515
H105	H	0.284893	-0.812330	2.009973
H106	H	0.322957	-0.854657	1.906431
H107	H	0.246765	-0.770077	1.906427
C108	C	1.420475	0.448093	0.876748
H109	H	1.355586	0.376073	0.935404
H110	H	1.398333	0.508085	0.897437
H111	H	1.474520	0.423500	0.897458
C112	C	1.420434	0.448025	0.484200
H113	H	1.463336	0.495617	0.380927
H114	H	1.344399	0.448202	0.522412
H115	H	1.420596	0.363630	0.522428
H116	H	0.401195	-0.219671	1.255894
C117	C	0.408953	-0.196216	1.999409
H118	H	0.451828	-0.251898	2.007507
H119	H	0.332915	-0.242368	2.045384
H120	H	0.409117	-0.157809	2.045397
C121	C	0.650940	-0.107341	0.980684
H122	H	0.716689	-0.107049	0.981224
H123	H	0.673340	-0.058668	0.882855
H124	H	0.607253	-0.191667	1.029406
C125	C	0.409023	-0.674552	1.999408
H126	H	0.451910	-0.626920	2.007450
H127	H	0.409188	-0.758938	2.045417
H128	H	0.332980	-0.674377	2.045404
C129	C	0.613165	-0.196264	1.772781
H130	H	0.570256	-0.251928	1.876056
H131	H	0.689206	-0.157890	1.734570
H132	H	0.612984	-0.242446	1.734576
H133	H	0.632423	0.219728	1.001131
H134	H	1.610802	-0.169472	0.638750
C135	C	0.613166	-0.447939	1.380172
H136	H	0.678053	-0.375917	1.321517
H137	H	0.559108	-0.423368	1.359492
H138	H	0.635329	-0.507915	1.359452
C139	C	0.382501	0.107209	1.276355
H140	H	0.359501	0.058048	1.374455
H141	H	0.317124	0.107543	1.275014
H142	H	0.426322	0.191289	1.228257
H143	H	0.422850	-0.659223	1.618180
H144	H	1.434327	0.169681	0.495480
H145	H	1.698985	0.000135	0.371257
H146	H	1.699027	0.757201	0.371248
C147	C	1.624643	0.674670	0.257514
H148	H	1.581725	0.627067	0.249476
H149	H	1.700677	0.674491	0.211499
H150	H	1.624481	0.759065	0.211520
C151	C	1.624634	0.196429	0.257517
H152	H	1.581746	0.252100	0.249477
H153	H	1.624472	0.158056	0.211502
H154	H	1.700675	0.242605	0.211524
H155	H	1.610835	0.659327	0.638739
H156	H	0.334664	0.000111	1.885554
