data_functionalizedCrystal
_audit_creation_method	'MofGen! by Chris Wilmer'
_symmetry_space_group_name_H-M	'P1'
_symmetry_Int_Tables_number	1
_symmetry_cell_setting	triclinic
loop_
_symmetry_equiv_pos_as_xyz
  x,y,z
_cell_length_a	27.732048
_cell_length_b	19.188930
_cell_length_c	18.266242
_cell_angle_alpha	90.011475
_cell_angle_beta	89.988474
_cell_angle_gamma	97.106282
loop_
_atom_site_label
_atom_site_type_symbol
_atom_site_fract_x
_atom_site_fract_y
_atom_site_fract_z
O1	O	0.641184	-0.083079	-0.060930
O2	O	1.141184	0.416921	0.439070
O3	O	0.500429	-0.095711	-0.060924
O4	O	1.000429	0.404289	0.439076
O5	O	0.574869	0.012287	-0.060913
O6	O	1.074869	0.512287	0.439087
O7	O	0.566745	-0.191077	-0.060941
O8	O	1.066745	0.308923	0.439059
O9	O	0.574856	0.012292	0.060849
O10	O	1.074856	0.512292	0.560849
O11	O	0.500417	-0.095706	0.060838
O12	O	1.000417	0.404294	0.560838
O13	O	0.641172	-0.083074	0.060832
O14	O	1.141172	0.416926	0.560832
Zn15	Zn	0.570792	-0.089389	0.080167
Zn16	Zn	1.070792	0.410611	0.580167
Zn17	Zn	0.570809	-0.089396	-0.080259
Zn18	Zn	1.070809	0.410604	0.419741
O19	O	0.566732	-0.191071	0.060821
O20	O	1.066732	0.308929	0.560821
C21	C	0.482415	-0.095443	-0.000042
C22	C	0.982415	0.404557	0.499958
C23	C	0.428758	-0.094645	-0.000039
C24	C	0.928758	0.405355	0.499961
C25	C	0.574599	0.038299	-0.000030
C26	C	1.074599	0.538299	0.499970
C27	C	0.573810	0.115798	-0.000023
C28	C	1.073810	0.615798	0.499977
C29	C	0.659186	-0.083341	-0.000052
C30	C	1.159186	0.416659	0.499948
C31	C	0.712843	-0.084140	-0.000060
C32	C	1.212843	0.415860	0.499940
C33	C	1.051478	-0.025347	-0.000027
C34	C	1.551478	0.474653	0.499973
C35	C	1.253147	-0.028310	-0.000025
C36	C	1.753147	0.471690	0.499975
O37	O	1.284238	0.025452	0.000014
O38	O	1.784238	0.525452	0.500014
N39	N	1.272466	-0.092348	-0.000036
N40	N	1.772466	0.407652	0.499964
C41	C	1.241365	-0.155650	-0.000042
C42	C	1.741365	0.344350	0.499958
O43	O	1.262425	-0.210186	-0.000044
O44	O	1.762425	0.289814	0.499956
C45	C	1.039698	-0.152686	-0.000039
C46	C	1.539698	0.347314	0.499961
C47	C	1.020381	-0.088644	-0.000035
C48	C	1.520381	0.411356	0.499965
C49	C	1.032161	0.038690	-0.000022
C50	C	1.532161	0.538690	0.499978
C51	C	0.981747	0.039430	-0.000027
C52	C	1.481747	0.539430	0.499973
C53	C	0.950650	-0.023867	-0.000035
C54	C	1.450650	0.476133	0.499965
C55	C	0.969967	-0.087904	-0.000040
C56	C	1.469967	0.412096	0.499960
C57	C	1.008598	-0.215988	-0.000040
C58	C	1.508598	0.284012	0.499960
C59	C	0.958178	-0.215241	-0.000038
C60	C	1.458178	0.284759	0.499962
C61	C	0.938861	-0.151199	-0.000034
C62	C	1.438861	0.348801	0.499966
C63	C	0.888456	-0.150461	-0.000053
C64	C	1.388456	0.349539	0.499947
N65	N	0.869136	-0.086423	-0.000042
N66	N	1.369136	0.413577	0.499958
C67	C	0.900233	-0.023126	-0.000033
C68	C	1.400233	0.476874	0.499967
C69	C	1.347244	-0.157201	-0.000045
C70	C	1.847244	0.342799	0.499955
C71	C	1.397661	-0.157942	-0.000048
C72	C	1.897661	0.342058	0.499952
C73	C	1.409439	-0.030601	-0.000028
C74	C	1.909439	0.469399	0.499972
C75	C	1.359021	-0.029861	-0.000032
C76	C	1.859021	0.470139	0.499968
C77	C	1.327925	-0.093163	-0.000034
C78	C	1.827925	0.406837	0.499966
C79	C	0.794359	-0.021577	-0.000043
C80	C	1.294359	0.478423	0.499957
C81	C	0.743940	-0.020843	-0.000051
C82	C	1.243940	0.479157	0.499949
C83	C	0.732166	-0.148183	-0.000066
C84	C	1.232166	0.351817	0.499934
C85	C	0.782581	-0.148918	-0.000063
C86	C	1.282581	0.351082	0.499937
C87	C	0.813677	-0.085609	-0.000049
C88	C	1.313677	0.414391	0.499951
O89	O	0.857336	-0.204194	-0.000084
O90	O	1.357336	0.295806	0.499916
O91	O	0.879164	0.031402	-0.000015
O92	O	1.379164	0.531402	0.499985
C93	C	1.101893	-0.026087	-0.000022
C94	C	1.601893	0.473913	0.499978
C95	C	1.121210	-0.090124	-0.000026
C96	C	1.621210	0.409876	0.499974
C97	C	1.090112	-0.153421	-0.000035
C98	C	1.590112	0.346579	0.499965
C99	C	1.171626	-0.090865	-0.000029
C100	C	1.671626	0.409135	0.499971
C101	C	1.202723	-0.027568	-0.000020
C102	C	1.702723	0.472432	0.499980
C103	C	1.183404	0.036470	-0.000009
C104	C	1.683404	0.536470	0.499991
C105	C	1.132990	0.037210	-0.000013
C106	C	1.632990	0.537210	0.499987
C107	C	1.109432	-0.217459	-0.000046
C108	C	1.609432	0.282541	0.499954
C109	C	1.159847	-0.218194	-0.000043
C110	C	1.659847	0.281806	0.499957
C111	C	1.190944	-0.154897	-0.000034
C112	C	1.690944	0.345103	0.499966
C113	C	0.567002	-0.217083	-0.000064
C114	C	1.067002	0.282917	0.499936
C115	C	0.567791	-0.294583	-0.000075
C116	C	1.067791	0.205417	0.499925
N117	N	0.570784	-0.089383	0.189654
N118	N	1.070784	0.410617	0.689654
C119	C	0.617488	0.161001	-0.000022
C120	C	1.117488	0.661001	0.499978
C121	C	0.616746	0.233820	-0.000034
C122	C	1.116746	0.733820	0.499966
C123	C	0.572323	0.261433	-0.000032
C124	C	1.072323	0.761433	0.499968
C125	C	0.528639	0.216220	-0.000038
C126	C	1.028639	0.716220	0.499962
C127	C	0.529382	0.143403	-0.000033
C128	C	1.029382	0.643403	0.499967
N129	N	0.538363	0.369223	0.041407
N130	N	1.038363	0.869223	0.541407
N131	N	0.537660	0.438397	0.041405
N132	N	1.037660	0.938397	0.541405
C133	C	0.570081	0.480827	-0.000047
C134	C	1.070081	0.980827	0.499953
N135	N	0.603240	0.451471	-0.041487
N136	N	1.103240	0.951471	0.458513
N137	N	0.603944	0.382291	-0.041481
N138	N	1.103944	0.882291	0.458519
C139	C	0.571512	0.340390	-0.000037
C140	C	1.071512	0.840390	0.499963
C141	C	0.612959	0.604989	-0.000059
C142	C	1.112959	1.104989	0.499941
C143	C	0.612215	0.677809	-0.000075
C144	C	1.112215	1.177809	0.499925
C145	C	0.524106	0.660208	-0.000072
C146	C	1.024106	1.160208	0.499928
C147	C	0.524851	0.587390	-0.000063
C148	C	1.024851	1.087390	0.499937
C149	C	0.569279	0.559785	-0.000053
C150	C	1.069279	1.059785	0.499947
N151	N	0.570820	-0.089396	-0.189746
N152	N	1.070820	0.410604	0.310254
C153	C	0.603757	-0.041585	0.227968
C154	C	1.103757	0.458415	0.727968
C155	C	0.603760	-0.041582	0.304613
C156	C	1.103760	0.458418	0.804613
C157	C	0.570795	-0.089389	0.342941
C158	C	1.070795	0.410611	0.842941
C159	C	0.537817	-0.137191	0.304618
C160	C	1.037817	0.362809	0.804618
C161	C	0.537811	-0.137188	0.227975
C162	C	1.037811	0.362812	0.727975
N163	N	0.564512	-0.151237	0.463265
N164	N	1.064512	0.348763	0.963265
N165	N	0.564520	-0.151237	0.536073
N166	N	1.064520	0.348763	1.036073
C167	C	0.570809	-0.089399	0.573864
C168	C	1.070809	0.410601	1.073864
N169	N	0.577099	-0.027558	0.536095
N170	N	1.077099	0.472442	1.036095
N171	N	0.577093	-0.027559	0.463280
N172	N	1.077093	0.472441	0.963280
C173	C	0.570797	-0.089397	0.426048
C174	C	1.070797	0.410603	0.926048
C175	C	0.603786	-0.041593	0.695284
C176	C	1.103786	0.458407	1.195284
C177	C	0.603786	-0.041589	0.771931
C178	C	1.103786	0.458411	1.271931
C179	C	0.537845	-0.137204	0.771935
C180	C	1.037845	0.362796	1.271935
C181	C	0.537843	-0.137202	0.695290
C182	C	1.037843	0.362798	1.195290
C183	C	0.570816	-0.089397	0.656969
C184	C	1.070816	0.410603	1.156969
H185	H	0.819672	0.029975	-0.000032
H186	H	1.319672	0.529975	0.499968
H187	H	1.321929	-0.208752	-0.000049
H188	H	1.821929	0.291248	0.499951
N189	N	0.960916	0.108504	-0.000016
N190	N	1.460916	0.608504	0.499984
H191	H	0.988272	0.148484	-0.000006
H192	H	1.488272	0.648484	0.499994
H193	H	0.940251	0.111587	0.045125
H194	H	1.440251	0.611587	0.545125
H195	H	0.489283	0.550585	-0.000060
H196	H	0.989283	1.050585	0.499940
H197	H	1.117267	0.089360	-0.000010
H198	H	1.617267	0.589360	0.499990
N199	N	0.803416	-0.217992	-0.000072
N200	N	1.303416	0.282008	0.499928
H201	H	0.824061	-0.221135	0.045068
H202	H	1.324061	0.278865	0.545068
H203	H	0.824056	-0.221099	-0.045236
H204	H	1.324056	0.278901	0.454764
H205	H	0.492469	0.238708	-0.000038
H206	H	0.992469	0.738708	0.499962
H207	H	0.653664	0.138530	-0.000016
H208	H	1.153664	0.638530	0.499984
H209	H	1.057476	0.090237	-0.000012
H210	H	1.557476	0.590237	0.499988
N211	N	0.924640	-0.283520	-0.000050
N212	N	1.424640	0.216480	0.499950
H213	H	0.889769	-0.273339	-0.000052
H214	H	1.389769	0.226661	0.499948
H215	H	0.930874	-0.311449	0.045086
H216	H	1.430874	0.188551	0.545086
H217	H	1.343298	0.022288	-0.000028
H218	H	1.843298	0.522288	0.499972
H219	H	1.413384	-0.210091	-0.000061
H220	H	1.913384	0.289909	0.499939
N221	N	1.216949	0.104742	-0.000002
N222	N	1.716949	0.604742	0.499998
H223	H	1.251818	0.094548	0.000000
H224	H	1.751818	0.594548	0.500000
H225	H	1.210704	0.132676	0.045141
H226	H	1.710704	0.632676	0.545141
H227	H	1.175569	-0.270349	-0.000051
H228	H	1.675569	0.229651	0.499949
N229	N	1.442984	0.037671	-0.000020
N230	N	1.942984	0.537671	0.499980
H231	H	1.477853	0.027477	-0.000021
H232	H	1.977853	0.527477	0.499979
H233	H	1.436740	0.065601	0.045127
H234	H	1.936740	0.565601	0.545127
H235	H	0.706838	-0.199718	-0.000077
H236	H	1.206838	0.300282	0.499923
H237	H	0.728216	0.031310	-0.000050
H238	H	1.228216	0.531310	0.499950
H239	H	0.493813	0.106598	-0.000034
H240	H	0.993813	0.606598	0.499966
H241	H	1.024316	-0.268138	-0.000047
H242	H	1.524316	0.231862	0.499953
N243	N	0.663859	0.282584	-0.000017
N244	N	1.163859	0.782584	0.499983
H245	H	0.656646	0.332902	-0.000017
H246	H	1.156646	0.832902	0.499983
H247	H	0.683238	0.273695	-0.045150
H248	H	1.183238	0.773695	0.454850
N249	N	1.075895	-0.285733	-0.000004
N250	N	1.575895	0.214267	0.499996
H251	H	1.095789	-0.326408	0.000006
H252	H	1.595789	0.173592	0.500006
H253	H	1.054712	-0.288238	-0.045129
H254	H	1.554712	0.211762	0.454871
H255	H	0.511003	-0.176126	0.803141
H256	H	1.011003	0.323874	1.303141
H257	H	0.649134	0.582512	-0.000054
H258	H	1.149134	1.082512	0.499946
H259	H	0.647785	0.714613	-0.000078
H260	H	1.147785	1.214613	0.499922
N261	N	0.476192	0.689980	-0.000079
N262	N	0.976192	1.189980	0.499921
H263	H	0.482348	0.742969	-0.000084
H264	H	0.982348	1.242969	0.499916
H265	H	0.457078	0.673421	0.045061
H266	H	0.957078	1.173421	0.545061
H267	H	0.630605	-0.002659	0.196770
H268	H	1.130605	0.497341	0.696770
H269	H	0.630611	-0.002658	0.335814
H270	H	1.130611	0.497342	0.835814
N271	N	0.502259	-0.188751	0.345952
N272	N	1.002259	0.311249	0.845952
H273	H	0.507266	-0.181501	0.400320
H274	H	1.007266	0.318499	0.900320
H275	H	0.507732	-0.238228	0.332539
H276	H	1.007732	0.261772	0.832539
N277	N	0.502245	-0.188741	0.186645
N278	N	1.002245	0.311259	0.686645
H279	H	0.481360	-0.219025	0.222553
H280	H	0.981360	0.280975	0.722553
H281	H	0.520680	-0.219426	0.154829
H282	H	1.020680	0.280574	0.654829
N283	N	0.502279	-0.188756	0.653960
N284	N	1.002279	0.311244	1.153960
H285	H	0.481395	-0.219041	0.689868
H286	H	0.981395	0.280959	1.189868
H287	H	0.520713	-0.219439	0.622141
H288	H	1.020713	0.280561	1.122141
H289	H	0.630634	-0.002666	0.664083
H290	H	1.130634	0.497334	1.164083
H291	H	0.630635	-0.002662	0.803126
H292	H	1.130635	0.497338	1.303126
