data_functionalizedCrystal
_audit_creation_method	'MofGen! by Chris Wilmer'
_symmetry_space_group_name_H-M	'P1'
_symmetry_Int_Tables_number	1
_symmetry_cell_setting	triclinic
loop_
_symmetry_equiv_pos_as_xyz
  x,y,z
_cell_length_a	19.288864
_cell_length_b	27.732048
_cell_length_c	18.366186
_cell_angle_alpha	89.988789
_cell_angle_beta	89.977106
_cell_angle_gamma	82.889449
loop_
_atom_site_label
_atom_site_type_symbol
_atom_site_fract_x
_atom_site_fract_y
_atom_site_fract_z
O1	O	0.920977	0.060300	-0.060791
O2	O	1.420977	0.560300	0.439209
O3	O	0.718665	0.068434	-0.060742
O4	O	1.218665	0.568434	0.439258
O5	O	0.826104	-0.006011	-0.060754
O6	O	1.326104	0.493989	0.439246
O7	O	0.813538	0.134745	-0.060779
O8	O	1.313538	0.634745	0.439221
O9	O	0.826086	-0.006014	0.060345
O10	O	1.326086	0.493986	0.560345
O11	O	0.718647	0.068430	0.060357
O12	O	1.218647	0.568430	0.560357
O13	O	0.920959	0.060296	0.060309
O14	O	1.420959	0.560296	0.560309
Zn15	Zn	0.819800	0.064363	0.079560
Zn16	Zn	1.319800	0.564363	0.579560
Zn17	Zn	0.819824	0.064368	-0.079994
Zn18	Zn	1.319824	0.564368	0.420006
O19	O	0.813520	0.134741	0.060321
O20	O	1.313520	0.634741	0.560321
C21	C	0.692781	0.068171	-0.000186
C22	C	1.192781	0.568171	0.499814
C23	C	0.615683	0.067385	-0.000167
C24	C	1.115683	0.567385	0.499833
C25	C	0.825831	-0.024020	-0.000202
C26	C	1.325831	0.475980	0.499798
C27	C	0.825037	-0.077678	-0.000196
C28	C	1.325037	0.422322	0.499804
C29	C	0.570714	0.111066	-0.000186
C30	C	1.070714	0.611066	0.499814
C31	C	0.498271	0.110328	-0.000194
C32	C	0.998271	0.610328	0.499806
C33	C	0.470801	0.065906	-0.000197
C34	C	0.970801	0.565906	0.499803
C35	C	0.515780	0.022219	-0.000174
C36	C	1.015780	0.522219	0.499826
C37	C	0.588220	0.022959	-0.000159
C38	C	1.088220	0.522959	0.499841
C39	C	0.362763	0.030987	-0.042642
C40	C	0.862763	0.530987	0.457358
C41	C	0.290323	0.030250	-0.042662
C42	C	0.790323	0.530250	0.457338
C43	C	0.247370	0.063624	-0.000241
C44	C	0.747370	0.563624	0.499759
C45	C	0.276863	0.097744	0.042190
C46	C	0.776863	0.597744	0.542190
C47	C	0.349304	0.098483	0.042206
C48	C	0.849304	0.598483	0.542206
C49	C	0.392252	0.065099	-0.000213
C50	C	0.892252	0.565099	0.499787
C51	C	0.123850	0.106507	-0.000268
C52	C	0.623850	0.606507	0.499732
C53	C	0.051406	0.105767	-0.000271
C54	C	0.551406	0.605767	0.499729
C55	C	0.068916	0.017658	-0.000258
C56	C	0.568916	0.517658	0.499742
C57	C	0.141358	0.018399	-0.000248
C58	C	0.641358	0.518399	0.499752
C59	C	0.168820	0.062825	-0.000256
C60	C	0.668820	0.562825	0.499744
C61	C	0.883526	-0.416316	-0.000248
C62	C	1.383526	0.083684	0.499752
C63	C	0.880579	-0.617985	-0.000257
C64	C	1.380579	-0.117985	0.499743
O65	O	0.934063	-0.649079	-0.000302
O66	O	1.434063	-0.149079	0.499698
N67	N	0.816872	-0.637301	-0.000241
N68	N	1.316872	-0.137301	0.499759
C69	C	0.753897	-0.606196	-0.000227
C70	C	1.253897	-0.106196	0.499773
O71	O	0.699643	-0.627253	-0.000222
O72	O	1.199643	-0.127253	0.499778
C73	C	0.756845	-0.404529	-0.000223
C74	C	1.256845	0.095471	0.499777
C75	C	0.820556	-0.385216	-0.000232
C76	C	1.320556	0.114784	0.499768
C77	C	0.947232	-0.397002	-0.000257
C78	C	1.447232	0.102998	0.499743
C79	C	0.947968	-0.346588	-0.000251
C80	C	1.447968	0.153412	0.499749
C81	C	0.884998	-0.315488	-0.000235
C82	C	1.384998	0.184512	0.499765
C83	C	0.821292	-0.334801	-0.000226
C84	C	1.321292	0.165199	0.499774
C85	C	0.693871	-0.373425	-0.000215
C86	C	1.193871	0.126575	0.499785
C87	C	0.694614	-0.323006	-0.000216
C88	C	1.194614	0.176994	0.499784
C89	C	0.758325	-0.303693	-0.000224
C90	C	1.258325	0.196307	0.499776
C91	C	0.759059	-0.253287	-0.000203
C92	C	1.259059	0.246713	0.499797
N93	N	0.822766	-0.233971	-0.000219
N94	N	1.322766	0.266029	0.499781
C95	C	0.885735	-0.265071	-0.000235
C96	C	1.385735	0.234929	0.499765
C97	C	0.752354	-0.712075	-0.000228
C98	C	1.252354	-0.212075	0.499772
C99	C	0.751617	-0.762492	-0.000228
C100	C	1.251617	-0.262492	0.499772
C101	C	0.878299	-0.774276	-0.000259
C102	C	1.378299	-0.274276	0.499741
C103	C	0.879035	-0.723859	-0.000254
C104	C	1.379035	-0.223859	0.499746
C105	C	0.816061	-0.692759	-0.000244
C106	C	1.316061	-0.192759	0.499756
C107	C	0.887276	-0.159197	-0.000221
C108	C	1.387276	0.340803	0.499779
C109	C	0.888007	-0.108778	-0.000212
C110	C	1.388007	0.391222	0.499788
C111	C	0.761325	-0.096998	-0.000185
C112	C	1.261325	0.403002	0.499815
C113	C	0.760595	-0.147412	-0.000190
C114	C	1.260595	0.352588	0.499810
C115	C	0.823576	-0.178511	-0.000211
C116	C	1.323576	0.321489	0.499789
O117	O	0.705603	-0.222164	-0.000167
O118	O	1.205603	0.277836	0.499833
O119	O	0.939982	-0.244005	-0.000257
O120	O	1.439982	0.255995	0.499743
C121	C	0.882790	-0.466730	-0.000254
C122	C	1.382790	0.033270	0.499746
C123	C	0.819084	-0.486044	-0.000245
C124	C	1.319084	0.013956	0.499755
C125	C	0.756114	-0.454943	-0.000229
C126	C	1.256114	0.045057	0.499771
C127	C	0.818347	-0.536461	-0.000244
C128	C	1.318347	-0.036461	0.499756
C129	C	0.881317	-0.567561	-0.000260
C130	C	1.381317	-0.067561	0.499740
C131	C	0.945023	-0.548245	-0.000276
C132	C	1.445023	-0.048245	0.499724
C133	C	0.945760	-0.497831	-0.000270
C134	C	1.445760	0.002169	0.499730
C135	C	0.692407	-0.474260	-0.000213
C136	C	1.192407	0.025740	0.499787
C137	C	0.691676	-0.524674	-0.000218
C138	C	1.191676	-0.024674	0.499782
C139	C	0.754646	-0.555775	-0.000234
C140	C	1.254646	-0.055775	0.499766
C141	C	0.946842	0.060560	-0.000249
C142	C	1.446842	0.560560	0.499751
C143	C	1.023941	0.061345	-0.000273
C144	C	1.523941	0.561345	0.499727
C145	C	0.813792	0.152751	-0.000233
C146	C	1.313792	0.652751	0.499767
C147	C	0.814587	0.206408	-0.000244
C148	C	1.314587	0.706408	0.499756
N149	N	0.819789	0.064359	0.188451
N150	N	1.319789	0.564359	0.688451
N151	N	0.819841	0.064367	-0.188885
N152	N	1.319841	0.564367	0.311115
C153	C	0.867378	0.031411	0.226546
C154	C	1.367378	0.531411	0.726546
C155	C	0.867383	0.031409	0.302774
C156	C	1.367383	0.531409	0.802774
C157	C	0.819804	0.064363	0.340904
C158	C	1.319804	0.564363	0.840904
C159	C	0.772206	0.097314	0.302800
C160	C	1.272206	0.597314	0.802800
C161	C	0.772198	0.097312	0.226573
C162	C	1.272198	0.597312	0.726573
C163	C	0.810231	0.108406	0.461658
C164	C	1.310231	0.608406	0.961658
C165	C	0.810244	0.108409	0.537883
C166	C	1.310244	0.608409	1.037883
C167	C	0.819824	0.064369	0.576011
C168	C	1.319824	0.564369	1.076011
C169	C	0.829406	0.020325	0.537906
C170	C	1.329406	0.520325	1.037906
C171	C	0.829398	0.020323	0.461679
C172	C	1.329398	0.520323	0.961679
C173	C	0.819807	0.064369	0.423559
C174	C	1.319807	0.564369	0.923559
C175	C	0.867421	0.031416	0.696761
C176	C	1.367421	0.531416	1.196761
C177	C	0.867420	0.031413	0.772991
C178	C	1.367420	0.531413	1.272991
C179	C	0.772247	0.097322	0.773015
C180	C	1.272247	0.597322	1.273015
C181	C	0.772244	0.097321	0.696787
C182	C	1.272244	0.597321	1.196787
C183	C	0.819835	0.064368	0.658665
C184	C	1.319835	0.564368	1.158665
H185	H	0.593069	0.147241	-0.000194
H186	H	1.093069	0.647241	0.499806
H187	H	0.802446	0.144272	0.568903
H188	H	1.302446	0.644272	1.068903
H189	H	0.906127	0.004578	0.195509
H190	H	1.406127	0.504578	0.695509
Cl191	Cl	0.841456	-0.035042	0.585830
Cl192	Cl	1.341456	0.464958	1.085830
Cl193	Cl	0.386380	0.141372	0.095548
Cl194	Cl	0.886380	0.641372	0.595548
H195	H	0.461651	0.145899	-0.000207
H196	H	0.961651	0.645899	0.499793
H197	H	0.906137	0.004578	0.333797
H198	H	1.406137	0.504578	0.833797
H199	H	0.733466	0.124145	0.333849
H200	H	1.233466	0.624145	0.833849
Cl201	Cl	0.682168	-0.057891	-0.000167
Cl202	Cl	1.182168	0.442109	0.499833
Cl203	Cl	0.416755	-0.010973	-0.095976
Cl204	Cl	0.916755	0.489027	0.404024
Cl205	Cl	0.712429	0.138747	0.820944
Cl206	Cl	1.212429	0.638747	1.320944
Cl207	Cl	0.671520	-0.786765	-0.000203
Cl208	Cl	1.171520	-0.286765	0.499797
H209	H	0.929571	-0.799607	-0.000271
H210	H	1.429571	-0.299607	0.499729
H211	H	0.241891	0.124920	0.076734
H212	H	0.741891	0.624920	0.576734
H213	H	0.733495	0.124152	0.665768
H214	H	1.233495	0.624152	1.165768
H215	H	0.802418	0.144270	0.430620
H216	H	1.302418	0.644270	0.930620
Cl217	Cl	0.712368	0.138736	0.178679
Cl218	Cl	1.212368	0.638736	0.678679
Cl219	Cl	0.158377	0.162356	-0.000270
Cl220	Cl	0.658377	0.662356	0.499730
H221	H	0.177973	-0.017171	-0.000236
H222	H	0.677973	0.482829	0.499764
Cl223	Cl	-0.005128	0.160686	-0.000291
Cl224	Cl	0.494872	0.660686	0.499709
H225	H	0.998512	-0.422320	-0.000273
H226	H	1.498512	0.077680	0.499727
Cl227	Cl	0.481246	-0.033625	-0.000174
Cl228	Cl	0.981246	0.466375	0.499826
H229	H	0.266315	0.002469	-0.077215
H230	H	0.766315	0.502469	0.422785
Cl231	Cl	1.025858	-0.473559	-0.000287
Cl232	Cl	1.525858	0.026441	0.499713
H233	H	0.046551	-0.018511	-0.000306
H234	H	0.546551	0.481489	0.499694
Cl235	Cl	0.968107	-0.084502	-0.000224
Cl236	Cl	1.468107	0.415498	0.499776
H237	H	0.708716	-0.163138	-0.000163
H238	H	1.208716	0.336862	0.499837
Cl239	Cl	1.024185	-0.587352	-0.000293
Cl240	Cl	1.524185	-0.087352	0.499707
H241	H	0.641991	-0.389141	-0.000212
H242	H	1.141991	0.110859	0.499788
Cl243	Cl	0.966454	-0.198285	-0.000246
Cl244	Cl	1.466454	0.301715	0.499754
Cl245	Cl	0.841436	-0.035043	0.413777
Cl246	Cl	1.341436	0.464957	0.913777
H247	H	0.643331	-0.297686	-0.000209
H248	H	1.143331	0.202314	0.499791
Cl249	Cl	0.611574	-0.548947	-0.000204
Cl250	Cl	1.111574	-0.048947	0.499796
Cl251	Cl	0.927248	-0.010013	0.820885
Cl252	Cl	1.427248	0.489987	1.320885
Cl253	Cl	1.028066	-0.322317	-0.000282
Cl254	Cl	1.528066	0.177683	0.499718
H255	H	0.701070	-0.686757	-0.000220
H256	H	1.201070	-0.186757	0.499780
H257	H	0.624835	-0.012613	-0.000144
H258	H	1.124835	0.487387	0.499856
Cl259	Cl	0.959132	-0.699585	-0.000266
Cl260	Cl	1.459132	-0.199585	0.499734
H261	H	0.641128	-0.448942	-0.000201
H262	H	1.141128	0.051058	0.499799
Cl263	Cl	0.927245	-0.010012	0.648835
Cl264	Cl	1.427245	0.489988	1.148835
