data_functionalizedCrystal
_audit_creation_method	'MofGen! by Chris Wilmer'
_symmetry_space_group_name_H-M	'P1'
_symmetry_Int_Tables_number	1
_symmetry_cell_setting	triclinic
loop_
_symmetry_equiv_pos_as_xyz
  x,y,z
_cell_length_a	10.723023
_cell_length_b	23.532357
_cell_length_c	9.798715
_cell_angle_alpha	89.991329
_cell_angle_beta	89.996770
_cell_angle_gamma	83.647920
loop_
_atom_site_label
_atom_site_type_symbol
_atom_site_fract_x
_atom_site_fract_y
_atom_site_fract_z
O1	O	1.654668	0.079870	-0.113496
O2	O	1.291275	0.087516	-0.113503
O3	O	1.483962	0.000831	-0.113471
O4	O	1.461981	0.166556	-0.113528
O5	O	1.483948	0.000831	0.113511
O6	O	1.291260	0.087516	0.113479
O7	O	1.654654	0.079870	0.113487
Zn8	Zn	1.472955	0.083693	0.149521
Zn9	Zn	1.472974	0.083693	-0.149538
O10	O	1.461967	0.166555	0.113455
C11	C	1.244785	0.086960	-0.000013
C12	C	1.106284	0.085295	-0.000014
C13	C	0.901401	0.082833	-0.117597
C14	C	1.044550	0.084554	-0.117598
C15	C	1.483405	-0.020389	0.000024
C16	C	1.481752	-0.083619	0.000037
C17	C	1.471382	-0.475697	-0.123765
C18	C	1.469811	-0.535107	-0.123773
O19	O	1.468962	-0.565829	-0.228998
N20	N	1.469024	-0.564823	-0.000046
C21	C	1.469796	-0.535126	0.123696
O22	O	1.468981	-0.565857	0.228934
C23	C	1.471358	-0.475717	0.123702
C24	C	1.472158	-0.446004	-0.000032
C25	C	1.472180	-0.445984	-0.247489
C26	C	1.473754	-0.386579	-0.247481
C27	C	1.474529	-0.356886	-0.123748
C28	C	1.473731	-0.386599	-0.000024
C29	C	1.472121	-0.446021	0.247443
C30	C	1.473682	-0.386607	0.247439
C31	C	1.474482	-0.356895	0.123704
C32	C	1.476080	-0.297501	0.123717
N33	N	1.476867	-0.267785	-0.000009
C34	C	1.476092	-0.297477	-0.123742
C35	C	1.466512	-0.659889	0.123673
C36	C	1.464959	-0.719297	0.123668
C37	C	1.464972	-0.719274	-0.123801
C38	C	1.466534	-0.659865	-0.123795
C39	C	1.467299	-0.630173	-0.000053
C40	C	1.479398	-0.172722	-0.123715
C41	C	1.480977	-0.113311	-0.123696
C42	C	1.480957	-0.113340	0.123772
C43	C	1.479385	-0.172745	0.123754
C44	C	1.478601	-0.202435	-0.000001
O45	O	1.476925	-0.266741	0.228889
O46	O	1.476890	-0.266738	-0.228962
C47	C	1.701143	0.080427	-0.000007
C48	C	1.839645	0.082091	-0.000014
C49	C	1.462524	0.187776	-0.000044
C50	C	1.464177	0.251005	-0.000066
N51	N	1.472951	0.083693	0.353621
N52	N	1.472987	0.083689	-0.353637
C53	C	1.553861	0.047135	0.421411
C54	C	1.553881	0.047133	0.578574
H55	H	1.481631	-0.089122	-0.224459
C56	C	0.911373	0.082953	0.135989
C57	C	0.878796	0.132104	0.238075
C58	C	0.950520	0.132966	0.374083
C59	C	1.054823	0.084677	0.408004
C60	C	1.087406	0.035522	0.305915
C61	C	1.015681	0.034660	0.169907
H62	H	0.801580	0.167854	0.212967
H63	H	0.926400	0.169354	0.449656
H64	H	1.107918	0.085315	0.508685
H65	H	1.164621	-0.000228	0.331023
H66	H	1.039802	-0.001728	0.094334
H67	H	1.097658	0.085195	-0.218265
H68	H	1.464327	-0.743486	0.224425
H69	H	1.623112	0.015836	0.363100
H70	H	1.053182	0.084660	0.100658
H71	H	1.478753	-0.196887	-0.224488
H72	H	1.403718	0.114991	0.588075
C73	C	1.467403	-0.627183	-0.259903
C74	C	1.575557	-0.641394	-0.361977
C75	C	1.576423	-0.608715	-0.498092
C76	C	1.469133	-0.561826	-0.532132
C77	C	1.360970	-0.547613	-0.430055
C78	C	1.360105	-0.580291	-0.293940
H79	H	1.654987	-0.676106	-0.336781
H80	H	1.656492	-0.619237	-0.573656
H81	H	1.469774	-0.537635	-0.632892
H82	H	1.281541	-0.512901	-0.455251
H83	H	1.280035	-0.569770	-0.218376
C84	C	1.464111	-0.751942	-0.259914
C85	C	1.571396	-0.798832	-0.293938
C86	C	1.570538	-0.831501	-0.430043
C87	C	1.462395	-0.817279	-0.532124
C88	C	1.355103	-0.770386	-0.498102
C89	C	1.355960	-0.737717	-0.361997
H90	H	1.651457	-0.809362	-0.218370
H91	H	1.649964	-0.866215	-0.455228
H92	H	1.461760	-0.841462	-0.632877
H93	H	1.275042	-0.759856	-0.573671
H94	H	1.276535	-0.703004	-0.336813
H95	H	1.474287	-0.362434	0.348206
C96	C	1.647466	0.004849	0.657318
C97	C	1.647392	0.004925	0.814475
C98	C	1.740980	-0.037361	0.893222
C99	C	1.834643	-0.079723	0.814813
C100	C	1.834720	-0.079801	0.657647
C101	C	1.741132	-0.037515	0.578900
H102	H	1.578054	0.036286	0.872526
H103	H	1.740922	-0.037303	1.009566
H104	H	1.903922	-0.111026	0.873106
H105	H	1.904058	-0.111162	0.599596
H106	H	1.741189	-0.037573	0.462556
C107	C	1.478473	-0.205441	0.259846
C108	C	1.370286	-0.191223	0.361878
C109	C	1.369339	-0.223917	0.497965
C110	C	1.476579	-0.270828	0.532021
C111	C	1.584774	-0.285047	0.429987
C112	C	1.585721	-0.252354	0.293899
H113	H	1.290893	-0.156495	0.336670
H114	H	1.289246	-0.213390	0.573498
H115	H	1.475878	-0.295029	0.632761
H116	H	1.664167	-0.319775	0.455195
H117	H	1.665814	-0.262880	0.218367
C118	C	1.481804	-0.080668	0.259872
C119	C	1.374507	-0.033780	0.293872
C120	C	1.375342	-0.001106	0.429971
C121	C	1.483473	-0.015320	0.532069
C122	C	1.590778	-0.062211	0.498071
C123	C	1.589943	-0.094885	0.361973
H124	H	1.294455	-0.023256	0.218290
H125	H	1.295908	0.033606	0.455138
H126	H	1.484091	0.008868	0.632818
H127	H	1.670830	-0.072735	0.573653
H128	H	1.669377	-0.129597	0.336806
C129	C	0.829670	0.081971	-0.253598
C130	C	0.754966	0.031531	-0.287482
C131	C	0.683237	0.030669	-0.423487
C132	C	0.686213	0.080247	-0.525608
C133	C	0.760919	0.130691	-0.491727
C134	C	0.832648	0.131553	-0.355722
H135	H	0.752761	-0.005173	-0.211884
H136	H	0.627934	-0.006673	-0.448568
H137	H	0.633115	0.079609	-0.626287
H138	H	0.763124	0.167396	-0.567325
H139	H	0.887951	0.168896	-0.330641
H140	H	1.474400	-0.362392	-0.348238
H141	H	1.403692	0.114987	0.411934
H142	H	1.467139	-0.635717	0.224444
H143	H	1.471544	-0.470154	-0.348253
H144	H	1.471472	-0.470203	0.348201
