data_functionalizedCrystal
_audit_creation_method	'MofGen! by Chris Wilmer'
_symmetry_space_group_name_H-M	'P1'
_symmetry_Int_Tables_number	1
_symmetry_cell_setting	triclinic
loop_
_symmetry_equiv_pos_as_xyz
  x,y,z
_cell_length_a	11.792254
_cell_length_b	11.792241
_cell_length_c	7.540329
_cell_angle_alpha	90.001242
_cell_angle_beta	89.999160
_cell_angle_gamma	95.803994
loop_
_atom_site_label
_atom_site_type_symbol
_atom_site_fract_x
_atom_site_fract_y
_atom_site_fract_z
O1	O	-0.155565	1.506913	-0.147291
O2	O	0.344435	2.006913	0.352709
O3	O	-0.171598	1.176573	-0.147331
O4	O	0.328402	1.676573	0.352669
O5	O	0.001588	1.349752	-0.147318
O6	O	0.501588	1.849752	0.352682
O7	O	-0.328751	1.333734	-0.147304
O8	O	0.171249	1.833734	0.352696
O9	O	0.001590	1.349742	0.147647
O10	O	0.501590	1.849742	0.647647
O11	O	-0.171596	1.176563	0.147634
O12	O	0.328404	1.676563	0.647634
O13	O	-0.155563	1.506903	0.147674
O14	O	0.344437	2.006903	0.647674
Cu15	Cu	-0.163579	1.341732	0.174587
Cu16	Cu	0.336421	1.841732	0.674587
Cu17	Cu	-0.163582	1.341744	-0.174244
Cu18	Cu	0.336418	1.841744	0.325756
O19	O	-0.328749	1.333724	0.147661
O20	O	0.171251	1.833724	0.647661
C21	C	-0.170590	1.134277	0.000146
C22	C	0.329410	1.634277	0.500146
C23	C	-0.167576	1.008263	0.000130
C24	C	0.332424	1.508263	0.500130
C25	C	-0.162033	0.777551	0.000181
C26	C	0.337967	1.277551	0.500181
C27	C	-0.165112	0.905936	0.000153
C28	C	0.334888	1.405936	0.500153
C29	C	-0.371041	1.334738	0.000181
C30	C	0.128959	1.834738	0.500181
C31	C	-0.497054	1.337758	0.000187
C32	C	0.002946	1.837758	0.500187
C33	C	-0.599390	1.340212	0.000177
C34	C	-0.099390	1.840212	0.500177
C35	C	-0.727777	1.343281	0.000157
C36	C	-0.227777	1.843281	0.500157
C37	C	0.043880	1.348738	0.000158
C38	C	0.543880	1.848738	0.500158
C39	C	0.169893	1.345718	0.000140
C40	C	0.669893	1.845718	0.500140
C41	C	-0.156571	1.549199	0.000192
C42	C	0.343429	2.049199	0.500192
C43	C	-0.159586	1.675213	0.000197
C44	C	0.340414	2.175213	0.500197
N45	N	-0.163577	1.341732	0.419935
N46	N	0.336423	1.841732	0.919935
N47	N	-0.163575	1.341754	-0.419592
N48	N	0.336425	1.841754	0.080408
