data_functionalizedCrystal
_audit_creation_method	'MofGen! by Chris Wilmer'
_symmetry_space_group_name_H-M	'P1'
_symmetry_Int_Tables_number	1
_symmetry_cell_setting	triclinic
loop_
_symmetry_equiv_pos_as_xyz
  x,y,z
_cell_length_a	16.109304
_cell_length_b	12.784890
_cell_length_c	14.586319
_cell_angle_alpha	89.997498
_cell_angle_beta	89.999019
_cell_angle_gamma	78.284598
loop_
_atom_site_label
_atom_site_type_symbol
_atom_site_fract_x
_atom_site_fract_y
_atom_site_fract_z
O1	O	0.005201	1.410315	-0.076212
O2	O	0.040808	1.100848	-0.076218
O3	O	-0.098639	1.264081	-0.076215
O4	O	0.144648	1.247082	-0.076215
O5	O	-0.098640	1.264070	0.076266
O6	O	0.040807	1.100836	0.076263
O7	O	0.005200	1.410304	0.076269
Cu8	Cu	0.023003	1.255569	0.090189
Cu9	Cu	0.023005	1.255583	-0.090138
O10	O	0.144647	1.247070	0.076266
C11	C	0.043124	1.061242	0.000022
C12	C	0.050015	0.943245	0.000019
C13	C	0.136376	0.764240	0.000018
C14	C	0.129906	0.875107	0.000018
C15	C	-0.023413	0.900510	0.000017
C16	C	-0.016944	0.789642	0.000017
C17	C	0.062953	0.721511	0.000019
C18	C	0.069421	0.610642	0.000026
C19	C	-0.083898	0.636046	0.000018
C20	C	-0.090367	0.746913	0.000018
C21	C	-0.129565	1.263387	0.000023
C22	C	-0.221711	1.261320	0.000017
C23	C	-0.433704	1.256553	-0.083097
C24	C	-0.520283	1.254602	-0.083096
C25	C	-0.520282	1.254595	0.083147
C26	C	-0.433702	1.256539	0.083145
C27	C	-0.390417	1.257523	0.000020
C28	C	-0.563575	1.253629	0.000023
C29	C	-0.657449	1.251513	0.000024
C30	C	-0.296537	1.259637	0.000018
C31	C	0.175573	1.247765	0.000026
C32	C	0.267719	1.249831	0.000026
C33	C	0.002884	1.449910	0.000027
C34	C	-0.004007	1.567906	0.000024
N35	N	0.023001	1.255567	0.217020
N36	N	0.022999	1.255593	-0.216969
C37	C	-0.038729	1.327871	0.452028
C38	C	-0.038731	1.327874	0.548009
C39	C	0.084733	1.183281	0.548016
C40	C	0.084731	1.183274	0.452037
C41	C	0.023000	1.255575	0.404045
C42	C	0.023000	1.255585	0.596006
C43	C	0.022998	1.255588	0.700073
C44	C	0.023001	1.255571	0.299971
H45	H	-0.088461	0.956000	0.000009
H46	H	-0.555536	1.253796	0.150824
H47	H	-0.398456	1.257322	0.150833
H48	H	0.201431	0.708766	0.000030
H49	H	-0.555523	1.253810	-0.150779
O50	O	0.144726	1.113189	0.405321
C51	C	0.191939	1.170091	0.349811
H52	H	0.152845	1.253272	0.335429
H53	H	0.208278	1.125721	0.282320
H54	H	0.252870	1.177294	0.386795
H55	H	0.134993	1.124417	0.587101
H56	H	0.189695	0.909892	0.000019
H57	H	-0.155416	0.802400	0.000014
O58	O	-0.391529	1.257526	-0.163759
C59	C	-0.305822	1.259411	-0.145942
H60	H	-0.299869	1.293331	-0.074518
H61	H	-0.281915	1.311697	-0.199044
H62	H	-0.266378	1.174733	-0.149857
O63	O	-0.155288	0.594668	-0.000103
C64	C	-0.203495	0.629465	-0.079086
H65	H	-0.186392	0.706348	-0.105420
H66	H	-0.273845	0.644883	-0.061322
H67	H	-0.189231	0.565306	-0.134381
H68	H	0.134478	0.555171	0.000032
O69	O	-0.098779	1.398135	0.405550
C70	C	-0.153250	1.461961	0.468488
H71	H	-0.151054	1.418388	0.536909
H72	H	-0.220816	1.478196	0.440760
H73	H	-0.131930	1.540911	0.478687
H74	H	-0.088997	1.386743	0.587074
