data_functionalizedCrystal
_audit_creation_method	'MofGen! by Chris Wilmer'
_symmetry_space_group_name_H-M	'P1'
_symmetry_Int_Tables_number	1
_symmetry_cell_setting	triclinic
loop_
_symmetry_equiv_pos_as_xyz
  x,y,z
_cell_length_a	16.109301
_cell_length_b	17.666332
_cell_length_c	16.109301
_cell_angle_alpha	90.007897
_cell_angle_beta	83.461481
_cell_angle_gamma	90.006633
loop_
_atom_site_label
_atom_site_type_symbol
_atom_site_fract_x
_atom_site_fract_y
_atom_site_fract_z
O1	O	1.103138	0.062903	0.106869
O2	O	0.861076	0.062915	0.120168
O3	O	0.988756	0.062901	-0.007513
O4	O	0.975457	0.062917	0.234549
O5	O	0.988734	-0.062996	-0.007520
O6	O	0.861053	-0.062982	0.120161
O7	O	1.103115	-0.062994	0.106862
Cu8	Cu	0.982082	-0.074483	0.113511
Cu9	Cu	0.982109	0.074404	0.113519
O10	O	0.975435	-0.062980	0.234542
C11	C	0.830090	-0.000032	0.119626
C12	C	0.737794	-0.000027	0.118011
C13	C	0.515522	-0.000031	0.190018
C14	C	0.428801	-0.000036	0.188494
C15	C	0.448676	-0.000043	0.037006
C16	C	0.535394	-0.000044	0.038530
C17	C	0.568815	-0.000034	0.115039
C18	C	0.395376	-0.000038	0.111990
C19	C	0.301350	-0.000044	0.110337
C20	C	0.662847	-0.000030	0.116693
N21	N	0.982070	-0.179203	0.113505
C22	C	1.038625	-0.218819	0.056995
C23	C	1.038630	-0.298066	0.056991
C24	C	0.982087	-0.337695	0.113511
C25	C	0.925521	-0.298069	0.170025
C26	C	0.925512	-0.218823	0.170021
N27	N	0.971484	-0.462108	0.187080
N28	N	0.971497	-0.537389	0.187081
C29	C	0.982109	-0.576459	0.113523
N30	N	0.992723	-0.537404	0.039962
N31	N	0.992714	-0.462117	0.039962
C32	C	0.982090	-0.423624	0.113520
C33	C	1.038673	-0.702004	0.057004
C34	C	1.038672	-0.781253	0.056999
C35	C	0.925567	-0.781254	0.170040
C36	C	0.925564	-0.702007	0.170038
C37	C	0.982121	-0.662386	0.113521
C38	C	1.134101	-0.000045	0.107404
C39	C	1.226397	-0.000045	0.109019
C40	C	0.988206	-0.000048	-0.038491
C41	C	0.986591	-0.000049	-0.130786
N42	N	0.982128	0.179124	0.113518
C43	C	1.058599	-0.000040	-0.353059
C44	C	1.057075	-0.000034	-0.439779
C45	C	0.905586	-0.000029	-0.419905
C46	C	0.907111	-0.000030	-0.333186
C47	C	0.983620	-0.000040	-0.299766
C48	C	0.980571	-0.000032	-0.473205
C49	C	0.978918	-0.000026	-0.567231
C50	C	0.985273	-0.000045	-0.205734
C51	C	0.975984	-0.000029	0.265521
C52	C	0.977600	-0.000023	0.357816
H53	H	1.084675	-0.186562	0.010974
C54	C	0.411905	-0.000047	-0.047150
N55	N	0.384210	-0.000047	-0.110538
H56	H	1.084723	-0.669744	0.010982
H57	H	0.578788	-0.000048	-0.022530
C58	C	0.370182	-0.000037	0.270977
N59	N	0.326030	-0.000040	0.333108
H60	H	1.084685	-0.330327	0.010973
C61	C	1.100877	-0.824831	-0.005183
N62	N	1.147727	-0.857654	-0.052024
H63	H	0.879526	-0.813519	0.216056
C64	C	0.863331	-0.175244	0.232225
N65	N	0.816508	-0.142419	0.279091
H66	H	0.879482	-0.330339	0.216042
C67	C	0.863408	-0.658428	0.232263
N68	N	0.816608	-0.625604	0.279153
H69	H	1.120897	-0.000046	-0.325851
H70	H	1.118130	-0.000033	-0.483168
H71	H	0.843295	-0.000023	-0.447127
C72	C	0.824624	-0.000026	-0.274560
N73	N	0.762497	-0.000019	-0.230402
H74	H	0.542730	-0.000029	0.252317
