data_functionalizedCrystal
_audit_creation_method	'MofGen! by Chris Wilmer'
_symmetry_space_group_name_H-M	'P1'
_symmetry_Int_Tables_number	1
_symmetry_cell_setting	triclinic
loop_
_symmetry_equiv_pos_as_xyz
  x,y,z
_cell_length_a	12.759401
_cell_length_b	16.120297
_cell_length_c	12.759400
_cell_angle_alpha	92.875400
_cell_angle_beta	90.014606
_cell_angle_gamma	92.880546
loop_
_atom_site_label
_atom_site_type_symbol
_atom_site_fract_x
_atom_site_fract_y
_atom_site_fract_z
Zn1	Zn	1.576120	-0.471353	-0.448415
Zn2	Zn	1.584927	-0.331948	-0.615199
Zn3	Zn	1.409334	-0.331961	-0.439536
Zn4	Zn	1.400413	-0.471320	-0.624050
O5	O	1.492698	-0.401646	-0.531800
O6	O	1.724309	-0.452869	-0.470551
O7	O	1.569054	-0.215287	-0.584477
O8	O	1.431506	-0.350471	-0.293694
O9	O	1.730779	-0.350449	-0.593087
O10	O	1.554043	-0.452881	-0.300217
O11	O	1.440046	-0.215296	-0.455418
O12	O	1.261130	-0.350440	-0.464000
O13	O	1.416301	-0.587988	-0.608171
O14	O	1.254576	-0.452826	-0.599562
O15	O	1.545393	-0.588012	-0.479133
O16	O	1.560403	-0.350417	-0.763393
O17	O	1.424841	-0.452813	-0.769896
C18	C	1.219732	-0.401631	-0.531778
C19	C	1.102954	-0.401644	-0.531796
C20	C	0.941743	-0.348436	-0.461147
C21	C	1.051468	-0.348427	-0.461126
C22	C	1.044710	-0.454882	-0.602484
C23	C	0.934988	-0.454895	-0.602499
C24	C	0.945645	-0.286973	-0.379538
C25	C	1.055370	-0.286963	-0.379517
C26	C	1.478870	-0.619095	-0.545630
C27	C	1.472976	-0.711759	-0.551523
C28	C	1.462179	-0.881417	-0.562260
C29	C	1.523425	-0.922726	-0.501025
C30	C	1.517417	-1.017129	-0.506999
C31	C	1.468185	-0.787005	-0.556287
C32	C	1.766731	-0.401661	-0.531822
C33	C	1.883507	-0.401668	-0.531832
C34	C	1.492637	-0.401628	-0.804766
C35	C	1.492705	-0.401649	-0.921544
C36	C	1.506534	-0.185042	-0.517948
C37	C	1.512630	-0.092379	-0.511758
C38	C	1.563363	-0.348390	-0.972989
C39	C	1.563426	-0.348416	-1.082715
C40	C	1.422164	-0.454961	-1.089541
C41	C	1.422107	-0.454939	-0.979817
C42	C	1.644917	-0.286875	-0.969049
C43	C	1.644980	-0.286900	-1.078775
C44	C	1.492787	-0.401681	-0.257769
C45	C	1.492825	-0.401697	-0.140993
H46	H	1.089237	-0.222362	-0.397076
N47	N	1.621663	-0.201366	-1.112863
H48	H	1.550558	-0.185944	-1.085599
H49	H	1.621764	-0.201415	-1.192020
N50	N	1.386746	-0.928490	-0.637628
H51	H	1.427174	-0.964629	-0.688554
H52	H	1.346713	-0.887727	-0.677598
N53	N	0.872176	-0.512309	-0.678738
H54	H	0.824208	-0.551006	-0.638585
H55	H	0.921514	-0.545964	-0.723483
H56	H	1.364581	-0.498314	-0.937932
N57	N	1.346022	-0.512436	-1.152393
H58	H	1.356780	-0.504371	-1.229709
H59	H	1.271818	-0.499405	-1.132453
N60	N	1.751190	-0.309842	-0.930958
H61	H	1.798656	-0.320113	-0.993103
H62	H	1.743048	-0.361902	-0.890241
H63	H	1.720801	-0.310081	-1.114205
H64	H	1.619715	-0.225515	-0.931169
N65	N	1.598860	-0.875666	-0.425637
H66	H	1.592516	-0.813920	-0.432002
H67	H	1.672940	-0.890847	-0.442943
H68	H	0.914778	-0.304376	-0.299312
N69	N	1.100236	-0.512286	-0.678703
H70	H	1.178583	-0.504202	-0.667969
H71	H	1.081877	-0.499208	-0.752882
H72	H	0.915494	-0.225605	-0.404668
H73	H	1.087938	-0.310192	-0.303738
