data_functionalizedCrystal
_audit_creation_method	'MofGen! by Chris Wilmer'
_symmetry_space_group_name_H-M	'P1'
_symmetry_Int_Tables_number	1
_symmetry_cell_setting	triclinic
loop_
_symmetry_equiv_pos_as_xyz
  x,y,z
_cell_length_a	16.625547
_cell_length_b	12.594516
_cell_length_c	16.625539
_cell_angle_alpha	90.024195
_cell_angle_beta	90.024822
_cell_angle_gamma	90.018110
loop_
_atom_site_label
_atom_site_type_symbol
_atom_site_fract_x
_atom_site_fract_y
_atom_site_fract_z
Zn1	Zn	1.232705	-0.423742	0.456024
Zn2	Zn	1.566038	-0.090409	0.789357
Zn3	Zn	1.899371	0.242925	1.122691
Zn4	Zn	1.232618	-0.601743	0.321201
Zn5	Zn	1.565951	-0.268410	0.654534
Zn6	Zn	1.899285	0.064923	0.987867
Zn7	Zn	1.097866	-0.423779	0.321194
Zn8	Zn	1.431200	-0.090446	0.654528
Zn9	Zn	1.764533	0.242888	0.987861
Zn10	Zn	1.097847	-0.601679	0.455981
Zn11	Zn	1.431180	-0.268345	0.789314
Zn12	Zn	1.764514	0.064988	1.122647
O13	O	1.165259	-0.512736	0.388600
O14	O	1.498592	-0.179402	0.721933
O15	O	1.831926	0.153931	1.055267
O16	O	1.345525	-0.447366	0.438160
O17	O	1.678859	-0.114032	0.771493
O18	O	2.012192	0.219301	1.104827
O19	O	1.214715	-0.578178	0.208367
O20	O	1.548048	-0.244845	0.541701
O21	O	1.881381	0.088488	0.875034
O22	O	1.115797	-0.274828	0.339095
O23	O	1.449131	0.058505	0.672429
O24	O	1.782464	0.391838	1.005762
O25	O	1.345462	-0.578143	0.339106
O26	O	1.678795	-0.244809	0.672439
O27	O	2.012128	0.088524	1.005773
O28	O	1.214862	-0.274801	0.438154
O29	O	1.548196	0.058532	0.771487
O30	O	1.881529	0.391866	1.104821
O31	O	1.115713	-0.447429	0.208363
O32	O	1.449047	-0.114096	0.541696
O33	O	1.782380	0.219238	0.875029
O34	O	0.985031	-0.447366	0.339053
O35	O	1.318365	-0.114033	0.672387
O36	O	1.651698	0.219300	1.005720
O37	O	1.115764	-0.578032	0.568819
O38	O	1.449098	-0.244699	0.902152
O39	O	1.782431	0.088634	1.235485
O40	O	0.985017	-0.578068	0.438080
O41	O	1.318350	-0.244735	0.771414
O42	O	1.651684	0.088598	1.104747
O43	O	1.214844	-0.447303	0.568851
O44	O	1.548177	-0.113970	0.902184
O45	O	1.881510	0.219364	1.235517
O46	O	1.214696	-0.750680	0.339064
O47	O	1.548029	-0.417347	0.672398
O48	O	1.881362	-0.084014	1.005731
O49	O	1.115680	-0.750633	0.438086
O50	O	1.449013	-0.417300	0.771420
O51	O	1.782347	-0.083966	1.104753
C52	C	0.955768	-0.512715	0.388562
C53	C	1.289101	-0.179382	0.721895
C54	C	1.622435	0.153952	1.055229
C55	C	0.866147	-0.512732	0.388565
C56	C	1.199480	-0.179398	0.721898
C57	C	1.532814	0.153935	1.055231
C58	C	1.165198	-0.789277	0.388589
C59	C	1.498532	-0.455943	0.721922
C60	C	1.831865	-0.122610	1.055256
C61	C	1.165246	-0.907582	0.388611
C62	C	1.498580	-0.574249	0.721944
C63	C	1.831913	-0.240915	1.055278
C64	C	0.793365	-0.512734	0.388575
C65	C	1.126698	-0.179401	0.721908
C66	C	1.460031	0.153933	1.055241
C67	C	0.702056	-0.512740	0.388595
C68	C	1.035389	-0.179406	0.721928
C69	C	1.368723	0.153927	1.055261
C70	C	0.629280	-0.512749	0.388615
C71	C	0.962613	-0.179416	0.721949
C72	C	1.295946	0.153917	1.055282
C73	C	0.537965	-0.512757	0.388635
C74	C	0.871299	-0.179423	0.721968
C75	C	1.204632	0.153910	1.055301
C76	C	1.111435	-1.047612	0.442442
C77	C	1.444769	-0.714278	0.775775
C78	C	1.778102	-0.380945	1.109109
C79	C	1.184943	-0.976702	0.462230
C80	C	1.518276	-0.643368	0.795563
C81	C	1.851610	-0.310035	1.128896
C82	C	1.091746	-0.976920	0.368859
C83	C	1.425079	-0.643587	0.702193
C84	C	1.758413	-0.310254	1.035526
C85	C	1.238924	-1.047458	0.408467
C86	C	1.572258	-0.714124	0.741800
C87	C	1.905591	-0.380791	1.075134
C88	C	1.145678	-1.047683	0.315062
C89	C	1.479011	-0.714349	0.648396
C90	C	1.812344	-0.381016	0.981729
C91	C	1.219236	-0.976805	0.334822
C92	C	1.552569	-0.643471	0.668155
C93	C	1.885903	-0.310138	1.001489
C94	C	1.375568	-0.512757	0.388639
C95	C	1.708901	-0.179424	0.721972
C96	C	2.042234	0.153909	1.055305
C97	C	1.465189	-0.512766	0.388655
C98	C	1.798522	-0.179433	0.721988
C99	C	2.131856	0.153900	1.055322
C100	C	1.165311	-0.512656	0.598909
C101	C	1.498645	-0.179323	0.932242
C102	C	1.831978	0.154010	1.265576
C103	C	1.165334	-0.512623	0.688530
C104	C	1.498667	-0.179289	1.021863
C105	C	1.832000	0.154044	1.355197
C106	C	1.165342	-0.235115	0.388629
C107	C	1.498675	0.098219	0.721962
C108	C	1.832008	0.431552	1.055295
C109	C	1.165377	-0.116809	0.388641
C110	C	1.498710	0.216524	0.721974
C111	C	1.832044	0.549857	1.055308
C112	C	1.165253	-0.512738	0.179109
C113	C	1.498586	-0.179405	0.512442
C114	C	1.831920	0.153929	0.845776
C115	C	1.165387	-0.512472	0.089488
C116	C	1.498720	-0.179139	0.422822
C117	C	1.832054	0.154195	0.756155
C118	C	1.165371	-0.512503	1.016706
C119	C	1.498704	-0.179170	1.350039
C120	C	1.832038	0.154163	1.683373
C121	C	1.165358	-0.512540	0.925397
C122	C	1.498692	-0.179207	1.258731
C123	C	1.832025	0.154127	1.592064
C124	C	1.165353	-0.512564	0.852621
C125	C	1.498686	-0.179231	1.185954
C126	C	1.832019	0.154103	1.519288
C127	C	1.165339	-0.512599	0.761307
C128	C	1.498673	-0.179265	1.094640
C129	C	1.832006	0.154068	1.427973
H130	H	1.065931	-1.078698	0.487987
H131	H	1.399264	-0.745365	0.821320
H132	H	1.732597	-0.412031	1.154654
C133	C	1.322994	-1.089135	0.431153
C134	C	1.656327	-0.755802	0.764487
C135	C	1.989660	-0.422468	1.097820
H136	H	1.322521	-1.164565	0.431053
H137	H	1.655854	-0.831232	0.764386
H138	H	1.989187	-0.497898	1.097719
H139	H	1.361293	-1.064324	0.393165
H140	H	1.694626	-0.730990	0.726498
H141	H	2.027959	-0.397657	1.059832
H142	H	1.337025	-1.064242	0.483252
H143	H	1.670358	-0.730909	0.816585
H144	H	2.003691	-0.397575	1.149919
H145	H	1.129045	-1.078882	0.252869
H146	H	1.462378	-0.745549	0.586202
H147	H	1.795711	-0.412215	0.919536
C148	C	1.207382	-0.934575	0.546266
C149	C	1.540715	-0.601241	0.879600
C150	C	1.874049	-0.267908	1.212933
H151	H	1.169050	-0.958812	0.584443
H152	H	1.502383	-0.625479	0.917776
H153	H	1.835716	-0.292145	1.251110
H154	H	1.259272	-0.959763	0.560681
H155	H	1.592605	-0.626429	0.894014
H156	H	1.925938	-0.293096	1.227348
H157	H	1.207648	-0.859152	0.545523
H158	H	1.540981	-0.525819	0.878856
H159	H	1.874315	-0.192486	1.212189
C160	C	1.007708	-0.935022	0.346287
C161	C	1.341042	-0.601689	0.679621
C162	C	1.674375	-0.268356	1.012954
H163	H	0.969499	-0.959269	0.384584
H164	H	1.302833	-0.625936	0.717917
H165	H	1.636166	-0.292602	1.051250
H166	H	1.008407	-0.859605	0.345969
H167	H	1.341740	-0.526271	0.679302
H168	H	1.675073	-0.192938	1.012635
H169	H	0.993368	-0.960356	0.294395
H170	H	1.326702	-0.627023	0.627728
H171	H	1.660035	-0.293690	0.961062
C172	C	1.280851	-0.935058	0.273345
C173	C	1.614184	-0.601725	0.606678
C174	C	1.947518	-0.268392	0.940011
H175	H	1.333061	-0.959339	0.287518
H176	H	1.666395	-0.626006	0.620852
H177	H	1.999728	-0.292672	0.954185
H178	H	1.267350	-0.960436	0.221245
H179	H	1.600683	-0.627102	0.554578
H180	H	1.934017	-0.293769	0.887911
H181	H	1.280164	-0.859634	0.273359
H182	H	1.613497	-0.526301	0.606692
H183	H	1.946831	-0.192968	0.940025
