data_functionalizedCrystal
_audit_creation_method	'MofGen! by Chris Wilmer'
_symmetry_space_group_name_H-M	'P1'
_symmetry_Int_Tables_number	1
_symmetry_cell_setting	triclinic
loop_
_symmetry_equiv_pos_as_xyz
  x,y,z
_cell_length_a	16.109301
_cell_length_b	16.109304
_cell_length_c	14.586319
_cell_angle_alpha	89.999019
_cell_angle_beta	89.999213
_cell_angle_gamma	83.462059
loop_
_atom_site_label
_atom_site_type_symbol
_atom_site_fract_x
_atom_site_fract_y
_atom_site_fract_z
O1	O	1.103132	0.106866	-0.076177
O2	O	1.353132	0.356866	0.173823
O3	O	1.603132	0.606866	0.423823
O4	O	1.853132	0.856866	0.673823
O5	O	0.861070	0.120165	-0.076190
O6	O	1.111070	0.370165	0.173810
O7	O	1.361070	0.620165	0.423810
O8	O	1.611070	0.870165	0.673810
O9	O	0.988749	-0.007515	-0.076184
O10	O	1.238749	0.242485	0.173816
O11	O	1.488749	0.492485	0.423816
O12	O	1.738749	0.742485	0.673816
O13	O	0.975453	0.234546	-0.076183
O14	O	1.225453	0.484546	0.173817
O15	O	1.475453	0.734546	0.423817
O16	O	1.725453	0.984546	0.673817
O17	O	0.988741	-0.007517	0.076297
O18	O	1.238741	0.242483	0.326297
O19	O	1.488741	0.492483	0.576297
O20	O	1.738741	0.742483	0.826297
O21	O	0.861061	0.120163	0.076290
O22	O	1.111061	0.370163	0.326290
O23	O	1.361061	0.620163	0.576290
O24	O	1.611061	0.870163	0.826290
O25	O	1.103123	0.106864	0.076304
O26	O	1.353123	0.356864	0.326304
O27	O	1.603123	0.606864	0.576304
O28	O	1.853123	0.856864	0.826304
Cu29	Cu	0.982091	0.113514	0.090220
Cu30	Cu	1.232091	0.363514	0.340220
Cu31	Cu	1.482091	0.613514	0.590220
Cu32	Cu	1.732091	0.863514	0.840220
Cu33	Cu	0.982102	0.113516	-0.090106
Cu34	Cu	1.232102	0.363516	0.159894
Cu35	Cu	1.482102	0.613516	0.409894
Cu36	Cu	1.732102	0.863516	0.659894
O37	O	0.975444	0.234545	0.076297
O38	O	1.225444	0.484545	0.326297
O39	O	1.475444	0.734545	0.576297
O40	O	1.725444	0.984545	0.826297
C41	C	0.830091	0.119626	0.000048
C42	C	1.080091	0.369626	0.250048
C43	C	1.330091	0.619626	0.500048
C44	C	1.580091	0.869626	0.750048
C45	C	0.737795	0.118010	0.000043
C46	C	0.987795	0.368010	0.250043
C47	C	1.237795	0.618010	0.500043
C48	C	1.487795	0.868010	0.750043
C49	C	0.988206	-0.038491	0.000055
C50	C	1.238206	0.211509	0.250055
C51	C	1.488206	0.461509	0.500055
C52	C	1.738206	0.711509	0.750055
C53	C	0.986590	-0.130786	0.000048
C54	C	1.236590	0.119214	0.250048
C55	C	1.486590	0.369214	0.500048
C56	C	1.736590	0.619214	0.750048
C57	C	0.515524	0.190018	0.000053
C58	C	0.765524	0.440018	0.250053
C59	C	1.015524	0.690018	0.500053
C60	C	1.265524	0.940018	0.750053
C61	C	0.428803	0.188494	0.000059
C62	C	0.678803	0.438494	0.250059
C63	C	0.928803	0.688494	0.500059
C64	C	1.178803	0.938494	0.750059
C65	C	0.448676	0.037005	0.000055
C66	C	0.698676	0.287005	0.250055
C67	C	0.948676	0.537005	0.500055
C68	C	1.198676	0.787005	0.750055
C69	C	0.535395	0.038530	0.000056
C70	C	0.785395	0.288530	0.250056
C71	C	1.035395	0.538530	0.500056
C72	C	1.285395	0.788530	0.750056
C73	C	0.568816	0.115039	0.000050
C74	C	0.818816	0.365039	0.250050
C75	C	1.068816	0.615039	0.500050
C76	C	1.318816	0.865039	0.750050
C77	C	0.395377	0.111990	0.000055
C78	C	0.645377	0.361990	0.250055
C79	C	0.895377	0.611990	0.500055
C80	C	1.145377	0.861990	0.750055
C81	C	0.301351	0.110337	0.000062
C82	C	0.551351	0.360337	0.250062
C83	C	0.801351	0.610337	0.500062
C84	C	1.051351	0.860337	0.750062
C85	C	0.662848	0.116693	0.000046
C86	C	0.912848	0.366693	0.250046
C87	C	1.162848	0.616693	0.500046
C88	C	1.412848	0.866693	0.750046
C89	C	0.982861	-0.343123	-0.083066
C90	C	1.232861	-0.093123	0.166934
C91	C	1.482861	0.156877	0.416934
C92	C	1.732861	0.406877	0.666934
C93	C	0.981335	-0.429843	-0.083065
C94	C	1.231335	-0.179843	0.166935
C95	C	1.481335	0.070157	0.416935
C96	C	1.731335	0.320157	0.666935
C97	C	0.981330	-0.429842	0.083178
C98	C	1.231330	-0.179842	0.333178
C99	C	1.481330	0.070158	0.583178
C100	C	1.731330	0.320158	0.833178
C101	C	0.982850	-0.343122	0.083176
C102	C	1.232850	-0.093122	0.333176
C103	C	1.482850	0.156878	0.583176
C104	C	1.732850	0.406878	0.833176
C105	C	0.983620	-0.299766	0.000052
C106	C	1.233620	-0.049766	0.250052
C107	C	1.483620	0.200234	0.500052
C108	C	1.733620	0.450234	0.750052
C109	C	0.980573	-0.473205	0.000054
C110	C	1.230573	-0.223205	0.250054
C111	C	1.480573	0.026795	0.500054
C112	C	1.730573	0.276795	0.750054
C113	C	0.978919	-0.567231	0.000056
C114	C	1.228919	-0.317231	0.250056
C115	C	1.478919	-0.067231	0.500056
C116	C	1.728919	0.182769	0.750056
C117	C	0.985273	-0.205734	0.000050
C118	C	1.235273	0.044266	0.250050
C119	C	1.485273	0.294266	0.500050
C120	C	1.735273	0.544266	0.750050
C121	C	1.134102	0.107404	0.000064
C122	C	1.384102	0.357404	0.250064
C123	C	1.634102	0.607404	0.500064
C124	C	1.884102	0.857404	0.750064
C125	C	1.226398	0.109019	0.000063
C126	C	1.476398	0.359019	0.250063
C127	C	1.726398	0.609019	0.500063
C128	C	1.976398	0.859019	0.750063
C129	C	0.975987	0.265520	0.000057
C130	C	1.225987	0.515520	0.250057
C131	C	1.475987	0.765520	0.500057
C132	C	1.725987	1.015520	0.750057
C133	C	0.977603	0.357816	0.000057
C134	C	1.227603	0.607816	0.250057
C135	C	1.477603	0.857816	0.500057
C136	C	1.727603	1.107816	0.750057
N137	N	0.982090	0.113511	0.217052
N138	N	1.232090	0.363511	0.467052
N139	N	1.482090	0.613511	0.717052
N140	N	1.732090	0.863511	0.967052
N141	N	0.982110	0.113511	-0.216938
N142	N	1.232110	0.363511	0.033062
N143	N	1.482110	0.613511	0.283062
N144	N	1.732110	0.863511	0.533062
C145	C	1.038645	0.056993	0.452061
C146	C	1.288645	0.306993	0.702061
C147	C	1.538645	0.556993	0.952061
C148	C	1.788645	0.806993	1.202061
C149	C	1.038647	0.056991	0.548042
C150	C	1.288647	0.306991	0.798042
C151	C	1.538647	0.556991	1.048042
C152	C	1.788647	0.806991	1.298042
C153	C	0.925549	0.170032	0.548046
C154	C	1.175549	0.420032	0.798046
C155	C	1.425549	0.670032	1.048046
C156	C	1.675549	0.920032	1.298046
C157	C	0.925543	0.170029	0.452066
C158	C	1.175543	0.420029	0.702066
C159	C	1.425543	0.670029	0.952066
C160	C	1.675543	0.920029	1.202066
C161	C	0.982096	0.113511	0.404077
C162	C	1.232096	0.363511	0.654077
C163	C	1.482096	0.613511	0.904077
C164	C	1.732096	0.863511	1.154077
C165	C	0.982104	0.113512	0.596037
C166	C	1.232104	0.363512	0.846037
C167	C	1.482104	0.613512	1.096037
C168	C	1.732104	0.863512	1.346037
C169	C	0.982106	0.113510	0.700104
C170	C	1.232106	0.363510	0.950104
C171	C	1.482106	0.613510	1.200104
C172	C	1.732106	0.863510	1.450104
C173	C	0.982093	0.113512	0.300003
C174	C	1.232093	0.363512	0.550003
C175	C	1.482093	0.613512	0.800003
C176	C	1.732093	0.863512	1.050003
H177	H	0.542732	0.252316	0.000056
H178	H	0.792732	0.502316	0.250056
H179	H	1.042732	0.752316	0.500056
H180	H	1.292732	1.002316	0.750056
H181	H	0.578788	-0.022530	0.000056
H182	H	0.828788	0.227470	0.250056
H183	H	1.078788	0.477470	0.500056
H184	H	1.328788	0.727470	0.750056
H185	H	1.084693	0.010972	0.412990
H186	H	1.334693	0.260972	0.662990
H187	H	1.584693	0.510972	0.912990
H188	H	1.834693	0.760972	1.162990
H189	H	0.385416	0.249550	0.000064
H190	H	0.635416	0.499550	0.250064
H191	H	0.885416	0.749550	0.500064
H192	H	1.135416	0.999550	0.750064
Br193	Br	0.403313	-0.066823	0.000059
Br194	Br	0.653313	0.183177	0.250059
Br195	Br	0.903313	0.433177	0.500059
Br196	Br	1.153313	0.683177	0.750059
H197	H	1.084694	0.010969	0.587109
H198	H	1.334694	0.260969	0.837109
H199	H	1.584694	0.510969	1.087109
H200	H	1.834694	0.760969	1.337109
H201	H	0.983486	-0.307824	-0.150751
H202	H	1.233486	-0.057824	0.099249
H203	H	1.483486	0.192176	0.349249
H204	H	1.733486	0.442176	0.599249
H205	H	0.983463	-0.307820	0.150864
H206	H	1.233463	-0.057820	0.400864
H207	H	1.483463	0.192180	0.650864
H208	H	1.733463	0.442180	0.900864
Br209	Br	0.980301	-0.488681	-0.195872
Br210	Br	1.230301	-0.238681	0.054128
Br211	Br	1.480301	0.011319	0.304128
Br212	Br	1.730301	0.261319	0.554128
Br213	Br	0.980282	-0.488688	0.195984
Br214	Br	1.230282	-0.238688	0.445984
Br215	Br	1.480282	0.011312	0.695984
Br216	Br	1.730282	0.261312	0.945984
H217	H	0.879505	0.216049	0.587129
H218	H	1.129505	0.466049	0.837129
H219	H	1.379505	0.716049	1.087129
H220	H	1.629505	0.966049	1.337129
Br221	Br	0.848786	0.246731	0.386937
Br222	Br	1.098786	0.496731	0.636937
Br223	Br	1.348786	0.746731	0.886937
Br224	Br	1.598786	0.996731	1.136937
