data_functionalizedCrystal
_audit_creation_method	'MofGen! by Chris Wilmer'
_symmetry_space_group_name_H-M	'P1'
_symmetry_Int_Tables_number	1
_symmetry_cell_setting	triclinic
loop_
_symmetry_equiv_pos_as_xyz
  x,y,z
_cell_length_a	27.732048
_cell_length_b	27.732048
_cell_length_c	26.809956
_cell_angle_alpha	89.999364
_cell_angle_beta	89.996742
_cell_angle_gamma	82.642655
loop_
_atom_site_label
_atom_site_type_symbol
_atom_site_fract_x
_atom_site_fract_y
_atom_site_fract_z
O1	O	0.640931	0.057510	-0.041421
O2	O	0.500138	0.066256	-0.041436
O3	O	0.574907	-0.008514	-0.041419
O4	O	0.566162	0.132280	-0.041439
O5	O	0.574893	-0.008502	0.041541
O6	O	0.500123	0.066267	0.041523
O7	O	0.640917	0.057522	0.041539
Zn8	Zn	0.570518	0.061896	0.054702
Zn9	Zn	0.570536	0.061881	-0.054600
O10	O	0.566147	0.132291	0.041521
C11	C	0.482124	0.066078	0.000041
C12	C	0.428469	0.065525	0.000036
C13	C	0.574716	-0.026515	0.000062
C14	C	0.574164	-0.080170	0.000066
C15	C	0.089654	0.106229	0.000051
C16	C	-0.112006	0.104178	0.000056
O17	O	-0.143262	0.141398	0.000073
N18	N	-0.131130	0.059843	0.000062
C19	C	-0.099835	0.016017	0.000069
O20	O	-0.120728	-0.021740	0.000079
C21	C	0.101824	0.018068	0.000068
C22	C	0.120944	0.062407	0.000057
C23	C	0.108775	0.150563	0.000042
C24	C	0.159187	0.151076	0.000038
C25	C	0.190477	0.107253	0.000044
C26	C	0.171356	0.062919	0.000054
C27	C	0.133117	-0.025757	0.000079
C28	C	0.183535	-0.025240	0.000080
C29	C	0.202655	0.019098	0.000069
C30	C	0.253059	0.019609	0.000056
N31	N	0.272183	0.063944	0.000050
C32	C	0.240892	0.107766	0.000044
C33	C	-0.205709	0.014943	0.000069
C34	C	-0.256124	0.014430	0.000068
C35	C	-0.268291	0.102591	0.000056
C36	C	-0.217876	0.103104	0.000053
C37	C	-0.186585	0.059278	0.000063
C38	C	0.346761	0.108839	0.000036
C39	C	0.397178	0.109347	0.000030
C40	C	0.409341	0.021186	0.000044
C41	C	0.358929	0.020678	0.000048
C42	C	0.327639	0.064508	0.000045
O43	O	0.284343	-0.017592	0.000045
O44	O	0.261794	0.145518	0.000045
C45	C	0.039242	0.105716	0.000055
C46	C	0.020120	0.061382	0.000065
C47	C	0.051411	0.017560	0.000071
C48	C	-0.030294	0.060869	0.000065
C49	C	-0.061585	0.104691	0.000059
C50	C	-0.042461	0.149026	0.000053
C51	C	0.007951	0.149539	0.000049
C52	C	0.032287	-0.026775	0.000077
C53	C	-0.018125	-0.027284	0.000080
C54	C	-0.049416	0.016538	0.000074
C55	C	0.614867	-0.418985	0.000045
C56	C	0.612816	-0.620645	0.000038
O57	O	0.650037	-0.651900	0.000021
N58	N	0.568481	-0.639768	0.000034
C59	C	0.524656	-0.608474	0.000028
O60	O	0.486899	-0.629367	0.000019
C61	C	0.526707	-0.406815	0.000031
C62	C	0.571045	-0.387694	0.000041
C63	C	0.659202	-0.399864	0.000054
C64	C	0.659714	-0.349452	0.000059
C65	C	0.615892	-0.318161	0.000054
C66	C	0.571557	-0.337282	0.000045
C67	C	0.482882	-0.375521	0.000022
C68	C	0.483399	-0.325104	0.000021
C69	C	0.527737	-0.305983	0.000031
C70	C	0.528247	-0.255580	0.000045
N71	N	0.572583	-0.236456	0.000050
C72	C	0.616405	-0.267747	0.000054
C73	C	0.523582	-0.714348	0.000027
C74	C	0.523069	-0.764762	0.000027
C75	C	0.611230	-0.776930	0.000036
C76	C	0.611742	-0.726514	0.000040
C77	C	0.567917	-0.695224	0.000031
C78	C	0.617477	-0.161878	0.000064
C79	C	0.617986	-0.111461	0.000071
C80	C	0.529825	-0.099298	0.000059
C81	C	0.529316	-0.149710	0.000055
C82	C	0.573147	-0.180999	0.000056
O83	O	0.491047	-0.224296	0.000057
O84	O	0.654156	-0.246844	0.000053
C85	C	0.614355	-0.469397	0.000041
C86	C	0.570021	-0.488518	0.000032
C87	C	0.526198	-0.457228	0.000027
C88	C	0.569508	-0.538933	0.000032
C89	C	0.613330	-0.570223	0.000036
C90	C	0.657665	-0.551100	0.000041
C91	C	0.658177	-0.500688	0.000045
C92	C	0.481863	-0.476351	0.000023
C93	C	0.481355	-0.526764	0.000019
C94	C	0.525177	-0.558054	0.000023
C95	C	0.658931	0.057699	0.000060
C96	C	0.712586	0.058252	0.000062
C97	C	0.566338	0.150292	0.000039
C98	C	0.566891	0.203947	0.000031
N99	N	0.570509	0.061906	0.129298
N100	N	0.570549	0.061867	-0.129196
C101	C	0.603640	0.028781	0.473932
C102	C	0.603652	0.028774	0.682810
O103	O	0.631801	0.000613	0.709820
N104	N	0.570539	0.061870	0.708925
C105	C	0.537419	0.094969	0.682818
O106	O	0.509252	0.123116	0.709824
C107	C	0.537406	0.094974	0.473941
C108	C	0.570524	0.061878	0.447829
C109	C	0.636755	-0.004312	0.447819
C110	C	0.636754	-0.004308	0.395603
C111	C	0.603637	0.028789	0.369500
C112	C	0.570522	0.061882	0.395612
C113	C	0.504284	0.128070	0.447835
C114	C	0.504283	0.128067	0.395613
C115	C	0.537401	0.094972	0.369500
C116	C	0.537405	0.094983	0.317293
N117	N	0.570517	0.061887	0.291177
C118	C	0.603633	0.028790	0.317281
C119	C	0.537429	0.094965	0.792481
C120	C	0.537433	0.094964	0.844700
C121	C	0.603665	0.028768	0.844689
C122	C	0.603663	0.028772	0.792469
C123	C	0.570542	0.061868	0.766366
C124	C	0.603628	0.028801	0.207623
C125	C	0.603625	0.028809	0.155402
C126	C	0.537392	0.095003	0.155418
C127	C	0.537396	0.094997	0.207635
C128	C	0.570516	0.061892	0.233735
O129	O	0.509266	0.123126	0.290250
O130	O	0.631789	0.000640	0.290266
C131	C	0.603642	0.028777	0.526149
C132	C	0.570527	0.061870	0.552261
C133	C	0.537410	0.094968	0.526158
C134	C	0.570531	0.061870	0.604480
C135	C	0.603647	0.028773	0.630584
C136	C	0.636759	-0.004324	0.604468
C137	C	0.636758	-0.004320	0.552252
C138	C	0.504298	0.128064	0.552273
C139	C	0.504303	0.128058	0.604489
C140	C	0.537419	0.094961	0.630593
H141	H	0.412743	0.145454	0.000021
N142	N	0.637454	-0.004997	0.128725
N143	N	0.667346	0.010129	0.099585
H144	H	0.691236	-0.013747	0.080746
N145	N	0.662253	-0.193827	0.000074
N146	N	0.691813	-0.192263	0.035051
H147	H	0.723436	-0.214827	0.035062
H148	H	0.646911	-0.802415	0.000040
N149	N	0.637460	-0.005020	0.234271
N150	N	0.667022	-0.034562	0.210942
H151	H	0.690918	-0.058447	0.229762
H152	H	0.486964	-0.780325	0.000028
N153	N	0.670591	-0.038130	0.525590
N154	N	0.700153	-0.067676	0.548912
H155	H	0.724049	-0.091557	0.530086
H156	H	0.630630	0.001822	0.771211
N157	N	0.503604	0.128786	0.765824
N158	N	0.518713	0.158691	0.736688
H159	H	0.494826	0.182580	0.717863
N160	N	0.478807	-0.682396	0.000018
N161	N	0.439229	-0.699483	0.000015
H162	H	0.407607	-0.676919	0.000011
N163	N	0.470454	0.161883	0.474492
N164	N	0.440891	0.191428	0.451169
H165	H	0.416997	0.215311	0.469994
H166	H	0.057760	-0.062462	0.000083
H167	H	0.321291	0.144530	0.000035
H168	H	0.447710	-0.299629	0.000014
N169	N	0.470444	0.161877	0.368958
N170	N	0.440880	0.191421	0.392284
H171	H	0.416982	0.215300	0.373460
H172	H	0.083302	0.186251	0.000038
H173	H	0.694282	-0.485125	0.000053
N174	N	0.670621	-0.038083	0.368941
N175	N	0.700206	-0.067606	0.392263
H176	H	0.724139	-0.091450	0.373437
N177	N	0.663282	-0.091938	0.000085
N178	N	0.702405	-0.119886	0.000089
H179	H	0.734395	-0.106100	0.000098
H180	H	0.663726	-0.031271	0.625730
H181	H	0.630630	0.001820	0.865951
N182	N	0.503608	0.128781	0.871363
N183	N	0.474044	0.158328	0.848044
H184	H	0.450152	0.182211	0.866872
H185	H	0.477335	0.155012	0.625747
H186	H	0.023514	0.185643	0.000042
H187	H	0.209009	-0.060929	0.000089
H188	H	0.343360	-0.015426	0.000049
N189	N	-0.074436	0.193786	0.000044
N190	N	-0.119446	0.193315	0.000048
H191	H	-0.142031	0.224924	0.000044
H192	H	0.434827	-0.014492	0.000047
H193	H	0.510433	0.121951	0.228896
N194	N	0.178706	0.196370	0.000026
N195	N	0.150755	0.235490	0.000021
H196	H	0.164536	0.267483	0.000014
N197	N	0.670587	-0.038128	0.474471
N198	N	0.700147	-0.067671	0.451139
H199	H	0.724045	-0.091555	0.469958
H200	H	0.510430	0.121952	0.134157
N201	N	-0.275651	-0.030861	0.000085
N202	N	-0.302423	-0.040979	0.035059
H203	H	-0.316212	-0.072967	0.035075
N204	N	0.470463	0.161875	0.525621
N205	N	0.440902	0.191419	0.548950
H206	H	0.417005	0.215302	0.530130
H207	H	-0.202311	0.139207	0.000047
N208	N	0.702424	-0.583074	0.000051
N209	N	0.701954	-0.628085	0.000049
H210	H	0.733563	-0.650670	0.000054
H211	H	-0.033688	-0.063392	0.000085
H212	H	-0.293777	0.138273	0.000051
H213	H	0.446777	-0.391080	0.000011
N214	N	-0.173757	-0.029831	0.000079
N215	N	-0.190845	-0.069409	0.000083
H216	H	-0.168281	-0.101032	0.000089
H217	H	0.117558	-0.061861	0.000088
N218	N	0.705009	-0.329932	0.000067
N219	N	0.744129	-0.357884	0.000069
H220	H	0.776121	-0.344102	0.000073
H221	H	0.694889	-0.425336	0.000056
N222	N	0.484023	-0.169236	0.000060
N223	N	0.444900	-0.141290	0.000064
H224	H	0.412910	-0.155077	0.000067
N225	N	0.657036	-0.706993	0.000052
N226	N	0.696157	-0.734943	0.000060
H227	H	0.728149	-0.721159	0.000068
N228	N	0.485059	-0.067337	0.000043
N229	N	0.445474	-0.084411	0.000029
H230	H	0.413857	-0.061838	0.000012
N231	N	0.436056	-0.546283	0.000015
N232	N	0.396935	-0.518334	0.000011
H233	H	0.364944	-0.532118	0.000005
H234	H	0.446177	-0.450879	0.000018
