data_functionalizedCrystal
_audit_creation_method	'MofGen! by Chris Wilmer'
_symmetry_space_group_name_H-M	'P1'
_symmetry_Int_Tables_number	1
_symmetry_cell_setting	triclinic
loop_
_symmetry_equiv_pos_as_xyz
  x,y,z
_cell_length_a	12.759401
_cell_length_b	13.032721
_cell_length_c	12.759393
_cell_angle_alpha	97.149226
_cell_angle_beta	89.980324
_cell_angle_gamma	97.204582
loop_
_atom_site_label
_atom_site_type_symbol
_atom_site_fract_x
_atom_site_fract_y
_atom_site_fract_z
Zn1	Zn	1.553109	-0.415975	-0.647068
Zn2	Zn	1.530665	-0.590754	-0.493692
Zn3	Zn	1.377401	-0.416027	-0.471414
Zn4	Zn	1.355074	-0.590678	-0.669323
O5	O	1.454062	-0.503358	-0.570374
O6	O	1.697151	-0.439170	-0.626732
O7	O	1.510285	-0.567630	-0.343722
O8	O	1.419446	-0.269783	-0.476077
O9	O	1.680662	-0.567579	-0.514047
O10	O	1.548538	-0.269744	-0.605129
O11	O	1.397683	-0.439259	-0.327354
O12	O	1.227420	-0.439185	-0.497657
O13	O	1.381393	-0.567449	-0.813385
O14	O	1.211016	-0.567500	-0.643060
O15	O	1.526888	-0.439096	-0.797034
O16	O	1.488636	-0.736981	-0.535627
O17	O	1.359630	-0.736925	-0.664663
C18	C	1.181097	-0.503340	-0.570357
C19	C	1.064318	-0.503358	-0.570378
C20	C	1.018028	-0.436616	-0.629172
C21	C	0.908302	-0.436627	-0.629180
C22	C	0.891167	-0.570130	-0.511599
C23	C	1.000891	-0.570114	-0.511585
C24	C	1.419303	-0.774871	-0.605000
C25	C	1.404529	-0.891025	-0.619848
C26	C	1.461829	-0.942804	-0.562672
C27	C	1.446561	-1.062855	-0.578017
C28	C	1.728093	-0.503377	-0.570392
C29	C	1.844869	-0.503385	-0.570400
C30	C	1.454154	-0.503258	-0.844395
C31	C	1.454193	-0.503215	-0.961166
C32	C	1.488986	-0.230785	-0.535636
C33	C	1.503868	-0.114631	-0.520832
C34	C	1.529958	-0.436371	-1.007514
C35	C	1.529982	-0.436326	-1.117233
C36	C	1.378470	-0.569979	-1.134246
C37	C	1.378443	-0.570018	-1.024529
C38	C	1.454041	-0.503383	-0.297410
C39	C	1.454244	-0.503131	-0.180602
H40	H	0.870618	-0.382277	-0.677054
N41	N	1.296728	-0.642114	-0.974517
H42	H	1.253481	-0.599645	-0.923577
H43	H	1.248814	-0.684424	-1.031358
H44	H	1.522193	-0.898258	-0.502364
H45	H	1.386201	-1.107400	-0.638337
N46	N	0.822757	-0.642125	-0.448186
H47	H	0.746222	-0.632010	-0.457115
H48	H	0.832394	-0.716778	-0.473927
H49	H	1.564236	-1.070088	-0.460520
H50	H	1.038581	-0.624464	-0.463702
N51	N	1.324578	-0.950021	-0.699746
H52	H	1.325005	-1.027419	-0.699384
H53	H	1.251945	-0.931075	-0.680924
H54	H	1.069668	-0.382256	-0.677041
H55	H	1.591637	-0.381974	-0.955927
N56	N	1.611690	-0.364218	-1.167223
H57	H	1.659666	-0.321905	-1.110431
H58	H	1.654872	-0.406734	-1.218181
N59	N	1.296758	-0.642011	-1.202585
H60	H	1.308267	-0.631841	-1.279123
H61	H	1.303522	-0.716660	-1.192929
