data_functionalizedCrystal
_audit_creation_method	'MofGen! by Chris Wilmer'
_symmetry_space_group_name_H-M	'P1'
_symmetry_Int_Tables_number	1
_symmetry_cell_setting	triclinic
loop_
_symmetry_equiv_pos_as_xyz
  x,y,z
_cell_length_a	19.288840
_cell_length_b	12.811415
_cell_length_c	18.366186
_cell_angle_alpha	84.562925
_cell_angle_beta	89.983729
_cell_angle_gamma	83.586086
loop_
_atom_site_label
_atom_site_type_symbol
_atom_site_fract_x
_atom_site_fract_y
_atom_site_fract_z
O1	O	0.922014	0.130809	-0.069307
O2	O	1.255347	0.464142	0.264026
O3	O	1.588680	0.797475	0.597359
O4	O	0.719838	0.148499	-0.070450
O5	O	1.053172	0.481832	0.262883
O6	O	1.386505	0.815165	0.596217
O7	O	0.826011	-0.013164	-0.059786
O8	O	1.159345	0.320169	0.273548
O9	O	1.492678	0.653503	0.606881
O10	O	0.815841	0.292471	-0.079972
O11	O	1.149174	0.625805	0.253362
O12	O	1.482507	0.959138	0.586695
O13	O	0.825993	-0.013172	0.061314
O14	O	1.159327	0.320161	0.394648
O15	O	1.492660	0.653495	0.727981
O16	O	0.719820	0.148491	0.050650
O17	O	1.053154	0.481824	0.383983
O18	O	1.386487	0.815158	0.717317
O19	O	0.921996	0.130801	0.051793
O20	O	1.255329	0.464134	0.385126
O21	O	1.588662	0.797467	0.718459
Zn22	Zn	0.820905	0.139645	0.070448
Zn23	Zn	1.154238	0.472978	0.403782
Zn24	Zn	1.487572	0.806311	0.737115
Zn25	Zn	0.820929	0.139655	-0.089106
Zn26	Zn	1.154262	0.472988	0.244227
Zn27	Zn	1.487596	0.806322	0.577561
O28	O	0.815823	0.292463	0.041128
O29	O	1.149156	0.625797	0.374461
O30	O	1.482489	0.959130	0.707795
C31	C	0.693950	0.147930	-0.009860
C32	C	1.027283	0.481263	0.323474
C33	C	1.360616	0.814597	0.656807
C34	C	0.616837	0.146234	-0.009738
C35	C	0.950170	0.479568	0.323595
C36	C	1.283504	0.812901	0.656929
C37	C	0.580639	0.145424	-0.075697
C38	C	0.913973	0.478758	0.257636
C39	C	1.247306	0.812091	0.590969
C40	C	0.508184	0.143819	-0.075600
C41	C	0.841518	0.477153	0.257733
C42	C	1.174851	0.810486	0.591066
C43	C	0.471932	0.143004	-0.009539
C44	C	0.805265	0.476337	0.323795
C45	C	1.138598	0.809670	0.657128
C46	C	0.508138	0.143820	0.056429
C47	C	0.841471	0.477153	0.389763
C48	C	1.174804	0.810487	0.723096
C49	C	0.580590	0.145435	0.056330
C50	C	0.913924	0.478769	0.389663
C51	C	1.247257	0.812102	0.722996
C52	C	0.362278	0.078964	0.045252
C53	C	0.695612	0.412297	0.378586
C54	C	1.028945	0.745630	0.711919
C55	C	0.289828	0.077342	0.045350
C56	C	0.623161	0.410675	0.378683
C57	C	0.956494	0.744009	0.712016
C58	C	0.248463	0.138026	-0.009229
C59	C	0.581797	0.471359	0.324105
C60	C	0.915130	0.804693	0.657438
C61	C	0.279560	0.200319	-0.063916
C62	C	0.612893	0.533652	0.269417
C63	C	0.946227	0.866985	0.602751
C64	C	0.352012	0.201934	-0.064016
C65	C	0.685346	0.535267	0.269318
C66	C	1.018679	0.868601	0.602651
C67	C	0.393369	0.141253	-0.009423
C68	C	0.726702	0.474586	0.323910
C69	C	1.060036	0.807919	0.657244
C70	C	0.133702	0.135477	-0.075088
C71	C	0.467035	0.468811	0.258246
C72	C	0.800368	0.802144	0.591579
C73	C	0.061245	0.133879	-0.074988
C74	C	0.394578	0.467212	0.258345
C75	C	0.727912	0.800546	0.591678
C76	C	0.061200	0.133869	0.057044
C77	C	0.394534	0.467202	0.390377
C78	C	0.727867	0.800536	0.723711
C79	C	0.133655	0.135478	0.056942
C80	C	0.466988	0.468811	0.390275
C81	C	0.800322	0.802144	0.723609
C82	C	0.169902	0.136277	-0.009126
C83	C	0.503235	0.469610	0.324208
C84	C	0.836568	0.802944	0.657541
C85	C	0.825432	-0.052269	0.003346
C86	C	1.158765	0.281064	0.336679
C87	C	1.492099	0.614397	0.670012
C88	C	0.823724	-0.168780	0.011037
C89	C	1.157057	0.164554	0.344370
C90	C	1.490391	0.497887	0.677704
C91	C	0.820522	-0.387694	-0.106549
C92	C	1.153855	-0.054361	0.226785
C93	C	1.487189	0.278972	0.560118
C94	C	0.818917	-0.497166	-0.099326
C95	C	1.152251	-0.163833	0.234008
C96	C	1.485584	0.169500	0.567341
C97	C	0.818905	-0.497196	0.032706
C98	C	1.152238	-0.163862	0.366039
C99	C	1.485572	0.169471	0.699372
C100	C	0.820510	-0.387724	0.025482
C101	C	1.153843	-0.054391	0.358816
C102	C	1.487176	0.278943	0.692149
C103	C	0.821319	-0.332977	-0.044147
C104	C	1.154653	0.000356	0.289186
C105	C	1.487986	0.333689	0.622520
C106	C	0.822929	-0.223505	-0.051369
C107	C	1.156262	0.109829	0.281964
C108	C	1.489596	0.443162	0.615297
C109	C	0.822911	-0.223535	0.080661
C110	C	1.156245	0.109798	0.413994
C111	C	1.489578	0.443131	0.747328
C112	C	0.821307	-0.333007	0.087884
C113	C	1.154640	0.000326	0.421218
C114	C	1.487973	0.333660	0.754551
C115	C	0.947884	0.131369	-0.008800
C116	C	1.281217	0.464703	0.324534
C117	C	1.614551	0.798036	0.657867
C118	C	1.024997	0.133065	-0.008926
C119	C	1.358330	0.466398	0.324407
C120	C	1.691664	0.799732	0.657741
C121	C	0.816402	0.331569	-0.022005
C122	C	1.149735	0.664902	0.311329
C123	C	1.483069	0.998236	0.644662
C124	C	0.818110	0.448079	-0.029701
C125	C	1.151443	0.781412	0.303633
C126	C	1.484777	1.114746	0.636966
N127	N	0.820894	0.139637	0.179340
N128	N	1.154227	0.472970	0.512673
N129	N	1.487560	0.806303	0.846007
N130	N	0.820946	0.139654	-0.197997
N131	N	1.154279	0.472988	0.135336
N132	N	1.487612	0.806321	0.468670
C133	C	0.867923	0.068088	0.222160
C134	C	1.201256	0.401421	0.555494
C135	C	1.534589	0.734754	0.888827
C136	C	0.867927	0.068083	0.298389
C137	C	1.201260	0.401416	0.631722
C138	C	1.534594	0.734749	0.965055
C139	C	0.820909	0.139645	0.331792
C140	C	1.154243	0.472979	0.665126
C141	C	1.487576	0.806312	0.998459
C142	C	0.773871	0.211200	0.288962
C143	C	1.107205	0.544533	0.622296
C144	C	1.440538	0.877867	0.955629
C145	C	0.773864	0.211196	0.212736
C146	C	1.107197	0.544529	0.546070
C147	C	1.440530	0.877862	0.879403
C148	C	0.812086	0.235280	0.446237
C149	C	1.145419	0.568614	0.779570
C150	C	1.478753	0.901947	1.112904
C151	C	0.812099	0.235286	0.522461
C152	C	1.145432	0.568619	0.855795
C153	C	1.478765	0.901953	1.189128
C154	C	0.820929	0.139659	0.566899
C155	C	1.154262	0.472992	0.900232
C156	C	1.487596	0.806325	1.233566
C157	C	0.829762	0.044021	0.535103
C158	C	1.163095	0.377355	0.868436
C159	C	1.496428	0.710688	1.201769
C160	C	0.829754	0.044017	0.458877
C161	C	1.163087	0.377350	0.792210
C162	C	1.496421	0.710684	1.125543
C163	C	0.820912	0.139658	0.414446
C164	C	1.154245	0.472991	0.747780
C165	C	1.487579	0.806324	1.081113
C166	C	0.867965	0.068098	0.692375
C167	C	1.201299	0.401432	1.025708
C168	C	1.534632	0.734765	1.359042
C169	C	0.867965	0.068092	0.768605
C170	C	1.201298	0.401426	1.101938
C171	C	1.534632	0.734759	1.435271
C172	C	0.773912	0.211219	0.759176
C173	C	1.107246	0.544552	1.092510
C174	C	1.440579	0.877885	1.425843
C175	C	0.773910	0.211216	0.682949
C176	C	1.107243	0.544549	1.016282
C177	C	1.440576	0.877882	1.349615
C178	C	0.820940	0.139657	0.649553
C179	C	1.154273	0.472990	0.982886
C180	C	1.487606	0.806323	1.316219
H181	H	0.610062	0.146096	0.110044
H182	H	0.943395	0.479430	0.443377
H183	H	1.276729	0.812763	0.776710
H184	H	0.163214	0.136139	-0.128885
H185	H	0.496548	0.469472	0.204449
H186	H	0.829881	0.802806	0.537782
Cl187	Cl	0.227567	0.276618	-0.132532
Cl188	Cl	0.560900	0.609951	0.200802
Cl189	Cl	0.894233	0.943284	0.534135
Cl190	Cl	0.823949	-0.154682	-0.138902
Cl191	Cl	1.157282	0.178651	0.194431
Cl192	Cl	1.490615	0.511985	0.527765
H193	H	0.031773	0.133226	-0.128703
H194	H	0.365107	0.466559	0.204630
H195	H	0.698440	0.799892	0.537963
H196	H	0.395952	0.029545	0.089700
H197	H	0.729285	0.362878	0.423034
H198	H	1.062619	0.696211	0.756367
H199	H	0.821187	-0.343120	-0.163244
H200	H	1.154521	-0.009787	0.170090
H201	H	1.487854	0.323546	0.503423
H202	H	0.735588	0.269466	0.316164
H203	H	1.068921	0.602799	0.649497
H204	H	1.402254	0.936133	0.982830
Cl205	Cl	0.817913	-0.565950	-0.177777
Cl206	Cl	1.151247	-0.232616	0.155556
Cl207	Cl	1.484580	0.100717	0.488890
Cl208	Cl	0.462669	0.142800	-0.158527
Cl209	Cl	0.796002	0.476133	0.174806
Cl210	Cl	1.129336	0.809466	0.508139
Cl211	Cl	0.840869	-0.076205	0.590959
Cl212	Cl	1.174202	0.257129	0.924292
Cl213	Cl	1.507535	0.590462	1.257625
Cl214	Cl	0.801000	0.355514	0.562426
Cl215	Cl	1.134333	0.688847	0.895759
Cl216	Cl	1.467667	1.022180	1.229093
H217	H	0.818240	-0.541788	0.089394
H218	H	1.151574	-0.208455	0.422728
H219	H	1.484907	0.124878	0.756061
Cl220	Cl	0.840849	-0.076206	0.418906
Cl221	Cl	1.174182	0.257127	0.752240
Cl222	Cl	1.507516	0.590460	1.085573
H223	H	0.163128	0.136131	0.110654
H224	H	0.496461	0.469464	0.443987
H225	H	0.829795	0.802797	0.777321
Cl226	Cl	0.801049	0.355512	0.390380
Cl227	Cl	1.134382	0.688846	0.723713
Cl228	Cl	1.467716	1.022179	1.057046
Cl229	Cl	0.462563	0.142801	0.139478
Cl230	Cl	0.795897	0.476135	0.472812
Cl231	Cl	1.129230	0.809468	0.806145
H232	H	0.377328	0.252657	-0.108542
H233	H	0.710661	0.585990	0.224791
H234	H	1.043995	0.919324	0.558124
H235	H	0.031684	0.133211	0.110832
H236	H	0.365017	0.466545	0.444166
H237	H	0.698350	0.799878	0.777499
H238	H	0.820645	-0.377596	0.144574
H239	H	1.153978	-0.044263	0.477908
H240	H	1.487312	0.289071	0.811241
H241	H	0.823563	-0.178974	0.131473
H242	H	1.156897	0.154360	0.464807
H243	H	1.490230	0.487693	0.798140
Cl244	Cl	0.927041	-0.021875	0.180177
Cl245	Cl	1.260375	0.311458	0.513511
Cl246	Cl	1.593708	0.644791	0.846844
Cl247	Cl	0.927055	-0.021872	0.352228
Cl248	Cl	1.260389	0.311461	0.685562
Cl249	Cl	1.593722	0.644795	1.018895
Cl250	Cl	0.927085	-0.021866	0.650390
Cl251	Cl	1.260418	0.311467	0.983724
Cl252	Cl	1.593751	0.644800	1.317057
H253	H	0.906259	0.009823	0.803470
H254	H	1.239593	0.343156	1.136804
H255	H	1.572926	0.676489	1.470137
Cl256	Cl	0.714738	0.301152	0.158901
Cl257	Cl	1.048071	0.634485	0.492235
Cl258	Cl	1.381404	0.967818	0.825568
Cl259	Cl	0.250740	-0.000942	0.114111
Cl260	Cl	0.584073	0.332391	0.447444
Cl261	Cl	0.917407	0.665725	0.780778
Cl262	Cl	0.626202	0.146434	-0.158754
Cl263	Cl	0.959536	0.479767	0.174579
Cl264	Cl	1.292869	0.813101	0.507913
Cl265	Cl	0.714799	0.301175	0.801165
Cl266	Cl	1.048132	0.634509	1.134498
Cl267	Cl	1.381466	0.967842	1.467831
H268	H	0.735617	0.269482	0.648082
H269	H	1.068950	0.602815	0.981415
H270	H	1.402284	0.936149	1.314748
