data_functionalizedCrystal
_audit_creation_method	'MofGen! by Chris Wilmer'
_symmetry_space_group_name_H-M	'P1'
_symmetry_Int_Tables_number	1
_symmetry_cell_setting	triclinic
loop_
_symmetry_equiv_pos_as_xyz
  x,y,z
_cell_length_a	14.971486
_cell_length_b	14.971475
_cell_length_c	13.448316
_cell_angle_alpha	90.005879
_cell_angle_beta	89.993189
_cell_angle_gamma	96.388096
loop_
_atom_site_label
_atom_site_type_symbol
_atom_site_fract_x
_atom_site_fract_y
_atom_site_fract_z
O1	O	0.116518	-1.186953	-0.082672
O2	O	0.616518	-0.686953	0.417328
O3	O	0.130487	-0.926552	-0.082679
O4	O	0.630487	-0.426552	0.417321
O5	O	-0.006697	-1.063732	-0.082668
O6	O	0.493303	-0.563732	0.417332
O7	O	0.253703	-1.049773	-0.082683
O8	O	0.753703	-0.549773	0.417317
O9	O	-0.006706	-1.063715	0.082716
O10	O	0.493294	-0.563715	0.582716
O11	O	0.130479	-0.926535	0.082705
O12	O	0.630479	-0.426535	0.582705
O13	O	0.116510	-1.186936	0.082712
O14	O	0.616510	-0.686936	0.582712
Cu15	Cu	0.123494	-1.056734	0.097809
Cu16	Cu	0.623494	-0.556734	0.597809
Cu17	Cu	0.123504	-1.056754	-0.097776
Cu18	Cu	0.623504	-0.556754	0.402224
O19	O	0.253695	-1.049756	0.082701
O20	O	0.753695	-0.549756	0.582701
C21	C	0.129860	-0.893218	0.000013
C22	C	0.629860	-0.393218	0.500013
C23	C	0.127993	-0.793921	0.000010
C24	C	0.627993	-0.293921	0.500010
C25	C	0.127109	-0.747267	0.090162
C26	C	0.627109	-0.247267	0.590162
C27	C	0.125341	-0.653968	0.090162
C28	C	0.625341	-0.153968	0.590162
C29	C	0.124463	-0.607324	0.000010
C30	C	0.624463	-0.107324	0.500010
C31	C	0.125344	-0.653985	-0.090148
C32	C	0.625344	-0.153985	0.409852
C33	C	0.127106	-0.747283	-0.090148
C34	C	0.627106	-0.247283	0.409852
C35	C	0.121674	-0.459523	-0.090143
C36	C	0.621674	0.040477	0.409857
C37	C	0.119914	-0.366218	-0.090144
C38	C	0.619914	0.133782	0.409856
C39	C	0.119909	-0.366207	0.090167
C40	C	0.619909	0.133793	0.590167
C41	C	0.121671	-0.459505	0.090168
C42	C	0.621671	0.040495	0.590168
C43	C	0.122554	-0.506160	0.000009
C44	C	0.622554	-0.006160	0.500009
C45	C	-0.040026	-1.063099	0.000024
C46	C	0.459974	-0.563099	0.500024
C47	C	-0.139323	-1.061228	0.000023
C48	C	0.360677	-0.561228	0.500023
C49	C	-0.196552	-1.141818	0.000025
C50	C	0.303448	-0.641818	0.500025
C51	C	-0.289851	-1.140055	0.000015
C52	C	0.210149	-0.640055	0.500015
C53	C	-0.325920	-1.057701	0.000010
C54	C	0.174080	-0.557701	0.500010
C55	C	-0.268685	-0.977106	0.000004
C56	C	0.231315	-0.477106	0.500004
C57	C	-0.175387	-0.978870	0.000007
C58	C	0.324613	-0.478870	0.500007
C59	C	-0.463147	-0.973434	0.000000
C60	C	0.036853	-0.473434	0.500000
C61	C	-0.556451	-0.971670	-0.000001
C62	C	-0.056451	-0.471670	0.499999
C63	C	-0.577611	-1.134620	0.000009
C64	C	-0.077611	-0.634620	0.500009
C65	C	-0.484314	-1.136384	0.000012
C66	C	0.015686	-0.636384	0.500012
C67	C	-0.427084	-1.055788	0.000008
C68	C	0.072916	-0.555788	0.500008
C69	C	0.287024	-1.050389	0.000007
C70	C	0.787024	-0.550389	0.500007
C71	C	0.386321	-1.052260	0.000002
C72	C	0.886321	-0.552260	0.500002
N73	N	0.123486	-1.056726	0.235374
N74	N	0.623486	-0.556726	0.735374
C75	C	0.117144	-0.220269	0.000017
C76	C	0.617144	0.279731	0.500017
C77	C	0.119030	-0.319564	0.000008
C78	C	0.619030	0.180436	0.500008
N79	N	0.123504	-1.056769	-0.235340
N80	N	0.623504	-0.556769	0.264660
C81	C	0.062766	-1.117488	0.287419
C82	C	0.562766	-0.617488	0.787419
C83	C	0.062765	-1.117494	0.391522
C84	C	0.562765	-0.617494	0.891522
C85	C	0.123490	-1.056741	0.443578
C86	C	0.623490	-0.556741	0.943578
C87	C	0.184213	-0.995972	0.391526
C88	C	0.684213	-0.495972	0.891526
C89	C	0.184209	-0.995963	0.287425
C90	C	0.684209	-0.495963	0.787425
C91	C	0.184219	-0.995997	0.608506
C92	C	0.684219	-0.495997	1.108506
C93	C	0.184225	-0.996007	0.712615
C94	C	0.684225	-0.496007	1.212615
C95	C	0.062775	-1.117528	0.712603
C96	C	0.562775	-0.617528	1.212603
C97	C	0.062771	-1.117519	0.608502
C98	C	0.562771	-0.617519	1.108502
C99	C	0.123496	-1.056751	0.556457
C100	C	0.623496	-0.556751	1.056457
H101	H	0.124606	-0.615988	0.163573
H102	H	0.624606	-0.115988	0.663573
H103	H	0.122393	-0.497506	-0.163560
H104	H	0.622393	0.002494	0.336440
H105	H	0.119199	-0.328243	-0.163553
H106	H	0.619199	0.171757	0.336447
F107	F	0.124382	-0.604345	-0.186095
F108	F	0.624382	-0.104345	0.313905
H109	H	0.013321	-1.166970	0.433897
H110	H	0.513321	-0.666970	0.933897
H111	H	0.122391	-0.497479	0.163578
H112	H	0.622391	0.002521	0.663578
F113	F	-0.001863	-1.182156	0.232026
F114	F	0.498137	-0.682156	0.732026
F115	F	0.118969	-0.316554	0.186122
F116	F	0.618969	0.183446	0.686122
H117	H	-0.585815	-0.904610	0.000011
H118	H	-0.085815	-0.404610	0.500011
F119	F	-0.001853	-1.182183	0.553099
F120	F	0.498147	-0.682183	1.053099
H121	H	0.127828	-0.785268	-0.163558
H122	H	0.627828	-0.285268	0.336442
H123	H	0.233665	-0.946510	0.566134
H124	H	0.733665	-0.446510	1.066134
H125	H	0.233672	-0.946535	0.754994
H126	H	0.733672	-0.446535	1.254994
H127	H	0.233653	-0.946501	0.433916
H128	H	0.733653	-0.446501	0.933916
H129	H	0.233652	-0.946483	0.245050
H130	H	0.733652	-0.446483	0.745050
F131	F	-0.114480	-0.893095	0.000001
F132	F	0.385520	-0.393095	0.500001
F133	F	-0.158173	-1.229472	0.000041
F134	F	0.341827	-0.729472	0.500041
H135	H	-0.336444	-1.205679	0.000020
H136	H	0.163556	-0.705679	0.500020
H137	H	-0.454950	-1.203443	0.000023
H138	H	0.045050	-0.703443	0.500023
F139	F	-0.638520	-1.220397	0.000008
F140	F	-0.138520	-0.720397	0.500008
F141	F	-0.402241	-0.887654	-0.000006
F142	F	0.097759	-0.387654	0.499994
F143	F	0.128050	-0.796899	0.186116
F144	F	0.628050	-0.296899	0.686116
H145	H	0.013331	-1.167007	0.754985
H146	H	0.513331	-0.667007	1.254985
F147	F	-0.307074	-0.889458	-0.000013
F148	F	0.192926	-0.389458	0.499987
