data_functionalizedCrystal
_audit_creation_method	'MofGen! by Chris Wilmer'
_symmetry_space_group_name_H-M	'P1'
_symmetry_Int_Tables_number	1
_symmetry_cell_setting	triclinic
loop_
_symmetry_equiv_pos_as_xyz
  x,y,z
_cell_length_a	11.026607
_cell_length_b	9.616153
_cell_length_c	11.026607
_cell_angle_alpha	89.999525
_cell_angle_beta	108.586017
_cell_angle_gamma	90.006666
loop_
_atom_site_label
_atom_site_type_symbol
_atom_site_fract_x
_atom_site_fract_y
_atom_site_fract_z
O1	O	1.726737	0.115642	0.533620
O2	O	2.226737	0.615642	1.033620
O3	O	1.360157	0.115644	0.472856
O4	O	1.860157	0.615644	0.972856
O5	O	1.513065	0.115638	0.319948
O6	O	2.013065	0.615638	0.819948
O7	O	1.573829	0.115648	0.686528
O8	O	2.073829	0.615648	1.186528
O9	O	1.513040	-0.115653	0.319946
O10	O	2.013040	0.384347	0.819946
O11	O	1.360131	-0.115647	0.472854
O12	O	1.860131	0.384353	0.972854
O13	O	1.726711	-0.115649	0.533618
O14	O	2.226711	0.384351	1.033618
Zn15	Zn	1.543417	-0.152371	0.503236
Zn16	Zn	2.043417	0.347629	1.003236
Zn17	Zn	1.543451	0.152366	0.503238
Zn18	Zn	2.043451	0.652366	1.003238
O19	O	1.573803	-0.115643	0.686526
O20	O	2.073803	0.384357	1.186526
C21	C	1.312485	-0.000001	0.461645
C22	C	1.812485	0.499999	0.961645
C23	C	1.170471	-0.000000	0.428228
C24	C	1.670471	0.500000	0.928228
N25	N	1.543403	-0.360345	0.503236
N26	N	2.043403	0.139655	1.003236
C27	C	1.116821	0.000003	0.520498
C28	C	1.616821	0.500003	1.020498
C29	C	0.970043	0.000004	0.485962
C30	C	1.470043	0.500004	0.985962
C31	C	1.461218	-0.580712	0.584618
C32	C	1.961218	-0.080712	1.084618
C33	C	1.461528	-0.419544	0.585052
C34	C	1.961528	0.080456	1.085052
C35	C	1.682716	-0.418794	0.561326
C36	C	2.182716	0.081206	1.061326
C37	C	1.682304	-0.580012	0.561938
C38	C	2.182304	-0.080012	1.061938
C39	C	1.487528	-0.580260	0.363703
C40	C	1.987528	-0.080260	0.863703
C41	C	1.484658	-0.419033	0.363929
C42	C	1.984658	0.080967	0.863929
C43	C	1.774384	-0.000001	0.544828
C44	C	2.274384	0.499999	1.044828
C45	C	1.916398	0.000008	0.578245
C46	C	2.416398	0.500008	1.078245
C47	C	1.501843	-0.000006	0.272287
C48	C	2.001843	0.499994	0.772287
C49	C	1.468426	-0.000000	0.130273
C50	C	1.968426	0.500000	0.630273
N51	N	1.543473	0.360340	0.503230
N52	N	2.043473	0.860340	1.003230
C53	C	1.560695	0.000001	0.076624
C54	C	2.060695	0.500001	0.576624
C55	C	1.526160	0.000006	-0.070155
C56	C	2.026160	0.500006	0.429845
C57	C	1.585026	0.000004	0.734187
C58	C	2.085026	0.500004	1.234187
C59	C	1.618443	0.000008	0.876200
C60	C	2.118443	0.500008	1.376200
H61	H	1.179555	-0.000002	0.625061
H62	H	1.679555	0.499998	1.125061
H63	H	1.746967	-0.619003	0.506551
H64	H	2.246967	-0.119003	1.006551
H65	H	1.723013	0.000112	-0.061072
H66	H	2.223013	0.500112	0.438928
H67	H	0.907314	0.000037	0.381393
H68	H	1.407314	0.500037	0.881393
H69	H	1.107738	0.000033	0.323666
H70	H	1.607738	0.500033	0.823666
H71	H	1.547173	-0.618378	0.302795
H72	H	2.047173	-0.118378	0.802795
H73	H	1.727165	-0.617598	0.664582
H74	H	2.227165	-0.117598	1.164582
H75	H	1.746585	-0.380444	0.504840
H76	H	2.246585	0.119556	1.004840
H77	H	1.363863	0.000009	0.067540
H78	H	1.863863	0.500009	0.567540
H79	H	1.358911	-0.380029	0.546157
H80	H	1.858911	0.119971	1.046157
H81	H	1.665258	-0.000008	0.139357
H82	H	2.165258	0.499992	0.639357
H83	H	0.979125	0.000001	0.682816
H84	H	1.479125	0.500001	1.182816
H85	H	1.421590	0.000016	-0.132884
H86	H	1.921590	0.500016	0.367116
H87	H	1.727891	-0.378402	0.662982
H88	H	2.227891	0.121598	1.162982
H89	H	1.358350	-0.619523	0.545936
H90	H	1.858350	-0.119523	1.045936
H91	H	1.499608	-0.621208	0.686944
H92	H	1.999608	-0.121208	1.186944
H93	H	1.500268	-0.380962	0.687989
H94	H	2.000268	0.119038	1.187989
H95	H	1.386581	-0.620997	0.315054
H96	H	1.886581	-0.120997	0.815054
H97	H	1.538436	-0.378741	0.298279
H98	H	2.038436	0.121259	0.798279
H99	H	1.382030	-0.380833	0.320521
H100	H	1.882030	0.119167	0.820521
