data_functionalizedCrystal
_audit_creation_method	'MofGen! by Chris Wilmer'
_symmetry_space_group_name_H-M	'P1'
_symmetry_Int_Tables_number	1
_symmetry_cell_setting	triclinic
loop_
_symmetry_equiv_pos_as_xyz
  x,y,z
_cell_length_a	29.839135
_cell_length_b	29.839131
_cell_length_c	29.839125
_cell_angle_alpha	90.025363
_cell_angle_beta	90.015488
_cell_angle_gamma	90.037758
loop_
_atom_site_label
_atom_site_type_symbol
_atom_site_fract_x
_atom_site_fract_y
_atom_site_fract_z
Zn1	Zn	0.686739	-0.178886	0.254023
Zn2	Zn	1.020072	0.154447	0.587357
Zn3	Zn	1.353406	0.487781	0.920690
Zn4	Zn	0.686679	-0.253998	0.178883
Zn5	Zn	1.020013	0.079335	0.512217
Zn6	Zn	1.353346	0.412669	0.845550
Zn7	Zn	0.611622	-0.178886	0.178901
Zn8	Zn	0.944955	0.154447	0.512235
Zn9	Zn	1.278288	0.487781	0.845568
Zn10	Zn	0.611578	-0.253993	0.253980
Zn11	Zn	0.944911	0.079340	0.587314
Zn12	Zn	1.278244	0.412674	0.920647
O13	O	0.649154	-0.216441	0.216447
O14	O	0.982488	0.116893	0.549780
O15	O	1.315821	0.450226	0.883114
O16	O	0.749598	-0.188852	0.244066
O17	O	1.082931	0.144482	0.577400
O18	O	1.416265	0.477815	0.910733
O19	O	0.676716	-0.244036	0.116019
O20	O	1.010049	0.089297	0.449352
O21	O	1.343383	0.422630	0.782685
O22	O	0.621630	-0.116019	0.188892
O23	O	0.954963	0.217314	0.522226
O24	O	1.288296	0.550648	0.855559
O25	O	0.749554	-0.244036	0.188861
O26	O	1.082888	0.089297	0.522195
O27	O	1.416221	0.422630	0.855528
O28	O	0.676818	-0.116019	0.244084
O29	O	1.010151	0.217314	0.577417
O30	O	1.343485	0.550648	0.910751
O31	O	0.621572	-0.188852	0.116032
O32	O	0.954905	0.144481	0.449365
O33	O	1.288238	0.477815	0.782699
O34	O	0.548749	-0.188847	0.188850
O35	O	0.882082	0.144486	0.522184
O36	O	1.215415	0.477819	0.855517
O37	O	0.621554	-0.244028	0.316853
O38	O	0.954888	0.089306	0.650186
O39	O	1.288221	0.422639	0.983520
O40	O	0.548716	-0.244028	0.244010
O41	O	0.882050	0.089305	0.577344
O42	O	1.215383	0.422639	0.910677
O43	O	0.676775	-0.188847	0.316885
O44	O	1.010108	0.144486	0.650218
O45	O	1.343442	0.477820	0.983551
O46	O	0.676673	-0.316864	0.188819
O47	O	1.010007	0.016469	0.522153
O48	O	1.343340	0.349802	0.855486
O49	O	0.621497	-0.316861	0.243993
O50	O	0.954830	0.016473	0.577326
O51	O	1.288163	0.349806	0.910659
C52	C	0.532432	-0.216437	0.216428
C53	C	0.865765	0.116896	0.549761
C54	C	1.199098	0.450229	0.883095
C55	C	0.482497	-0.216447	0.216430
C56	C	0.815831	0.116887	0.549764
C57	C	1.149164	0.450220	0.883097
C58	C	0.172874	-0.187750	0.245235
C59	C	0.506207	0.145584	0.578568
C60	C	0.839541	0.478917	0.911901
C61	C	-0.014799	-0.187753	0.245247
C62	C	0.318534	0.145580	0.578581
C63	C	0.651867	0.478914	0.911914
O64	O	-0.039047	-0.163344	0.269717
O65	O	0.294286	0.169990	0.603050
O66	O	0.627620	0.503323	0.936383
N67	N	-0.038288	-0.216441	0.216464
N68	N	0.295046	0.116892	0.549797
N69	N	0.628379	0.450225	0.883130
C70	C	-0.014855	-0.245129	0.187672
C71	C	0.318478	0.088204	0.521006
C72	C	0.651812	0.421538	0.854339
O73	O	-0.039140	-0.269527	0.163187
O74	O	0.294194	0.063806	0.496520
O75	O	0.627527	0.397140	0.829853
C76	C	0.172817	-0.245123	0.187658
C77	C	0.506150	0.088210	0.520991
C78	C	0.839484	0.421544	0.854324
C79	C	0.196303	-0.216436	0.216447
C80	C	0.529637	0.116897	0.549780
C81	C	0.862970	0.450231	0.883113
C82	C	0.196360	-0.159065	0.274021
C83	C	0.529693	0.174269	0.607354
C84	C	0.863027	0.507602	0.940688
C85	C	0.243275	-0.159066	0.274019
C86	C	0.576609	0.174267	0.607353
C87	C	0.909942	0.507601	0.940686
C88	C	0.266705	-0.187752	0.245231
C89	C	0.600038	0.145581	0.578564
C90	C	0.933371	0.478914	0.911898
C91	C	0.243219	-0.216437	0.216445
C92	C	0.576552	0.116896	0.549778
C93	C	0.909885	0.450229	0.883112
C94	C	0.196249	-0.273808	0.158864
C95	C	0.529582	0.059525	0.492198
C96	C	0.862916	0.392859	0.825531
C97	C	0.243170	-0.273803	0.158862
C98	C	0.576503	0.059530	0.492196
C99	C	0.909837	0.392863	0.825529
C100	C	0.266656	-0.245116	0.187651
C101	C	0.599989	0.088217	0.520985
C102	C	0.933323	0.421550	0.854318
C103	C	0.313563	-0.245125	0.187655
C104	C	0.646897	0.088208	0.520988
C105	C	0.980230	0.421542	0.854322
N106	N	0.337052	-0.216437	0.216439
N107	N	0.670385	0.116897	0.549772
N108	N	1.003719	0.450230	0.883106
C109	C	0.313623	-0.187750	0.245227
C110	C	0.646956	0.145583	0.578560
C111	C	0.980289	0.478916	0.911894
C112	C	-0.113386	-0.245130	0.187683
C113	C	0.219948	0.088203	0.521016
C114	C	0.553281	0.421536	0.854349
C115	C	-0.160304	-0.245133	0.187687
C116	C	0.173030	0.088201	0.521020
C117	C	0.506363	0.421534	0.854353
C118	C	-0.160244	-0.187756	0.245262
C119	C	0.173089	0.145578	0.578595
C120	C	0.506422	0.478911	0.911928
C121	C	-0.113326	-0.187756	0.245259
C122	C	0.220008	0.145577	0.578593
C123	C	0.553341	0.478910	0.911926
C124	C	-0.089897	-0.216442	0.216467
C125	C	0.243436	0.116891	0.549800
C126	C	0.576769	0.450225	0.883133
C127	C	0.412148	-0.187755	0.245221
C128	C	0.745482	0.145578	0.578555
C129	C	1.078815	0.478911	0.911888
C130	C	0.459068	-0.187760	0.245218
C131	C	0.792401	0.145573	0.578552
C132	C	1.125735	0.478906	0.911885
C133	C	0.459005	-0.245135	0.187642
C134	C	0.792338	0.088198	0.520976
C135	C	1.125672	0.421531	0.854309
C136	C	0.412089	-0.245132	0.187647
C137	C	0.745423	0.088201	0.520980
C138	C	1.078756	0.421535	0.854313
C139	C	0.388662	-0.216438	0.216438
C140	C	0.721996	0.116895	0.549771
C141	C	1.055329	0.450228	0.883104
O142	O	0.337840	-0.269518	0.163195
O143	O	0.671174	0.063815	0.496528
O144	O	1.004507	0.397149	0.829862
O145	O	0.337915	-0.163349	0.269702
O146	O	0.671249	0.169985	0.603035
O147	O	1.004582	0.503318	0.936368
C148	C	0.125958	-0.187749	0.245236
C149	C	0.459292	0.145585	0.578570
C150	C	0.792625	0.478918	0.911903
C151	C	0.102472	-0.216434	0.216450
C152	C	0.435806	0.116900	0.549783
C153	C	0.769139	0.450233	0.883117
C154	C	0.125902	-0.245120	0.187662
C155	C	0.459235	0.088213	0.520995
C156	C	0.792568	0.421547	0.854329
C157	C	0.055554	-0.216436	0.216454
C158	C	0.388888	0.116898	0.549788
C159	C	0.722221	0.450231	0.883121
C160	C	0.032125	-0.187749	0.245242
C161	C	0.365458	0.145584	0.578576
C162	C	0.698792	0.478917	0.911909
C163	C	0.055614	-0.159061	0.274026
C164	C	0.388947	0.174272	0.607360
C165	C	0.722280	0.507606	0.940693
C166	C	0.102529	-0.159062	0.274025
C167	C	0.435862	0.174271	0.607358
C168	C	0.769196	0.507604	0.940691
C169	C	0.102413	-0.273808	0.158878
C170	C	0.435746	0.059525	0.492211
C171	C	0.769080	0.392858	0.825545
C172	C	0.055498	-0.273805	0.158883
C173	C	0.388831	0.059528	0.492216
C174	C	0.722164	0.392862	0.825549
C175	C	0.032068	-0.245119	0.187671
C176	C	0.365402	0.088215	0.521004
C177	C	0.698735	0.421548	0.854337
C178	C	0.649086	-0.333163	0.216409
C179	C	0.982419	0.000170	0.549743
C180	C	1.315753	0.333503	0.883076
C181	C	0.649098	-0.383098	0.216408
C182	C	0.982431	-0.049764	0.549741
C183	C	1.315764	0.283569	0.883075
C184	C	0.677885	-0.692706	0.245226
C185	C	1.011218	-0.359373	0.578560
C186	C	1.344551	-0.026040	0.911893
C187	C	0.677933	-0.880379	0.245253
C188	C	1.011267	-0.547046	0.578587
C189	C	1.344600	-0.213713	0.911920
O190	O	0.702342	-0.904614	0.269728
O191	O	1.035675	-0.571281	0.603061
O192	O	1.369009	-0.237948	0.936394
N193	N	0.649231	-0.903883	0.216497
N194	N	0.982564	-0.570549	0.549830
N195	N	1.315897	-0.237216	0.883164
C196	C	0.620512	-0.880465	0.187734
C197	C	0.953845	-0.547132	0.521067
C198	C	1.287178	-0.213799	0.854400
O199	O	0.596096	-0.904763	0.163279
O200	O	0.929429	-0.571429	0.496612
O201	O	1.262763	-0.238096	0.829945
C202	C	0.620461	-0.692793	0.187709
C203	C	0.953794	-0.359460	0.521043
C204	C	1.287128	-0.026126	0.854376
C205	C	0.649169	-0.669292	0.216464
C206	C	0.982502	-0.335959	0.549798
C207	C	1.315835	-0.002625	0.883131
C208	C	0.706590	-0.669205	0.273979
C209	C	1.039923	-0.335872	0.607313
C210	C	1.373256	-0.002538	0.940646
C211	C	0.706579	-0.622290	0.273971
C212	C	1.039912	-0.288956	0.607304
C213	C	1.373246	0.044377	0.940637
C214	C	0.677863	-0.598875	0.245209
C215	C	1.011196	-0.265542	0.578542
C216	C	1.344530	0.067791	0.911875
C217	C	0.649158	-0.622377	0.216456
C218	C	0.982491	-0.289043	0.549789
C219	C	1.315825	0.044290	0.883122
C220	C	0.591740	-0.669376	0.158949
C221	C	0.925073	-0.336043	0.492282
C222	C	1.258407	-0.002710	0.825615
C223	C	0.591729	-0.622455	0.158946
C224	C	0.925062	-0.289122	0.492279
C225	C	1.258396	0.044211	0.825613
C226	C	0.620437	-0.598954	0.187701
C227	C	0.953770	-0.265621	0.521035
C228	C	1.287103	0.067712	0.854368
C229	C	0.620431	-0.552047	0.187685
C230	C	0.953765	-0.218713	0.521018
C231	C	1.287098	0.114620	0.854352
N232	N	0.649134	-0.528543	0.216441
N233	N	0.982467	-0.195210	0.549775
N234	N	1.315801	0.138123	0.883108
C235	C	0.677850	-0.551957	0.245203
C236	C	1.011183	-0.218624	0.578537
C237	C	1.344517	0.114709	0.911870
C238	C	0.620541	-0.978996	0.187748
C239	C	0.953874	-0.645663	0.521081
C240	C	1.287208	-0.312329	0.854415
C241	C	0.620554	-1.025914	0.187753
C242	C	0.953887	-0.692580	0.521087
C243	C	1.287221	-0.359247	0.854420
C244	C	0.677975	-1.025824	0.245274
C245	C	1.011309	-0.692491	0.578607
C246	C	1.344642	-0.359158	0.911940
C247	C	0.677964	-0.978906	0.245266
C248	C	1.011297	-0.645572	0.578599
C249	C	1.344631	-0.312239	0.911932
C250	C	0.649244	-0.955492	0.216504
C251	C	0.982577	-0.622159	0.549838
C252	C	1.315910	-0.288826	0.883171
C253	C	0.677826	-0.453432	0.245183
C254	C	1.011159	-0.120098	0.578516
C255	C	1.344492	0.213235	0.911849
C256	C	0.677814	-0.406512	0.245170
C257	C	1.011147	-0.073179	0.578503
C258	C	1.344480	0.260155	0.911837
C259	C	0.620391	-0.406605	0.187651
C260	C	0.953724	-0.073272	0.520985
C261	C	1.287057	0.260061	0.854318
C262	C	0.620404	-0.453521	0.187662
C263	C	0.953738	-0.120188	0.520996
C264	C	1.287071	0.213146	0.854329
C265	C	0.649123	-0.476933	0.216431
C266	C	0.982456	-0.143600	0.549765
C267	C	1.315790	0.189734	0.883098
O268	O	0.596032	-0.527783	0.163227
O269	O	0.929365	-0.194449	0.496560
O270	O	1.262699	0.138884	0.829894
O271	O	0.702255	-0.527652	0.269662
O272	O	1.035588	-0.194319	0.602995
O273	O	1.368922	0.139015	0.936329
C274	C	0.677895	-0.739622	0.245235
C275	C	1.011229	-0.406288	0.578568
C276	C	1.344562	-0.072955	0.911902
C277	C	0.649190	-0.763123	0.216482
C278	C	0.982524	-0.429790	0.549815
C279	C	1.315857	-0.096456	0.883149
C280	C	0.620474	-0.739709	0.187720
C281	C	0.953808	-0.406375	0.521053
C282	C	1.287141	-0.073042	0.854387
C283	C	0.649203	-0.810041	0.216487
C284	C	0.982537	-0.476707	0.549821
C285	C	1.315870	-0.143374	0.883154
C286	C	0.677919	-0.833455	0.245249
C287	C	1.011253	-0.500122	0.578583
C288	C	1.344586	-0.166788	0.911916
C289	C	0.706622	-0.809951	0.274006
C290	C	1.039955	-0.476618	0.607339
C291	C	1.373289	-0.143285	0.940672
C292	C	0.706611	-0.763036	0.273997
C293	C	1.039945	-0.429703	0.607330
C294	C	1.373278	-0.096369	0.940664
C295	C	0.591772	-0.763212	0.158964
C296	C	0.925105	-0.429879	0.492297
C297	C	1.258438	-0.096545	0.825630
C298	C	0.591785	-0.810128	0.158974
C299	C	0.925118	-0.476794	0.492308
C300	C	1.258452	-0.143461	0.825641
C301	C	0.620501	-0.833542	0.187736
C302	C	0.953834	-0.500209	0.521070
C303	C	1.287168	-0.166875	0.854403
C304	C	0.766333	-0.216445	0.216467
C305	C	1.099666	0.116889	0.549800
C306	C	1.432999	0.450222	0.883133
C307	C	0.816267	-0.216446	0.216475
C308	C	1.149600	0.116887	0.549808
C309	C	1.482934	0.450220	0.883142
C310	C	0.649167	-0.216437	0.333625
C311	C	0.982500	0.116897	0.666959
C312	C	1.315833	0.450230	1.000292
C313	C	0.649172	-0.216435	0.383560
C314	C	0.982505	0.116898	0.716893
C315	C	1.315838	0.450232	1.050227
C316	C	0.649235	-0.099262	0.216495
C317	C	0.982569	0.234071	0.549828
C318	C	1.315902	0.567404	0.883162
C319	C	0.649270	-0.049328	0.216515
C320	C	0.982603	0.284005	0.549849
C321	C	1.315937	0.617339	0.883182
C322	C	0.649168	-0.216412	0.099725
C323	C	0.982501	0.116921	0.433058
C324	C	1.315835	0.450254	0.766391
C325	C	0.649250	-0.216288	0.049790
C326	C	0.982583	0.117046	0.383124
C327	C	1.315917	0.450379	0.716457
C328	C	0.677955	-0.187627	0.693223
C329	C	1.011289	0.145706	1.026556
C330	C	1.344622	0.479040	1.359890
C331	C	0.677978	-0.187589	0.880896
C332	C	1.011311	0.145744	1.214229
C333	C	1.344644	0.479078	1.547563
O334	O	0.702417	-0.163138	0.905177
O335	O	1.035750	0.170195	1.238511
O336	O	1.369084	0.503529	1.571844
N337	N	0.649231	-0.216315	0.904345
N338	N	0.982565	0.117019	1.237679
N339	N	1.315898	0.450352	1.571012
C340	C	0.620475	-0.245050	0.880873
C341	C	0.953809	0.088283	1.214207
C342	C	1.287142	0.421617	1.547540
O343	O	0.596022	-0.269479	0.905124
O344	O	0.929355	0.063854	1.238458
O345	O	1.262689	0.397188	1.571791
C346	C	0.620451	-0.245086	0.693201
C347	C	0.953784	0.088247	1.026534
C348	C	1.287118	0.421581	1.359868
C349	C	0.649202	-0.216361	0.669754
C350	C	0.982536	0.116972	1.003088
C351	C	1.315869	0.450305	1.336421
C352	C	0.706704	-0.158905	0.669776
C353	C	1.040037	0.174429	1.003110
C354	C	1.373371	0.507762	1.336443
C355	C	0.706700	-0.158916	0.622861
C356	C	1.040033	0.174417	0.956194
C357	C	1.373367	0.507750	1.289527
C358	C	0.677947	-0.187650	0.599392
C359	C	1.011280	0.145683	0.932725
C360	C	1.344614	0.479016	1.266059
C361	C	0.649198	-0.216373	0.622839
C362	C	0.982532	0.116960	0.956172
C363	C	1.315865	0.450294	1.289505
C364	C	0.591693	-0.273819	0.669730
C365	C	0.925026	0.059515	1.003063
C366	C	1.258360	0.392848	1.336396
C367	C	0.591689	-0.273824	0.622809
C368	C	0.925022	0.059509	0.956142
C369	C	1.258355	0.392842	1.289475
C370	C	0.620440	-0.245100	0.599362
C371	C	0.953773	0.088234	0.932695
C372	C	1.287107	0.421567	1.266029
C373	C	0.620441	-0.245119	0.552455
C374	C	0.953775	0.088215	0.885788
C375	C	1.287108	0.421548	1.219121
N376	N	0.649188	-0.216393	0.529005
N377	N	0.982521	0.116941	0.862339
N378	N	1.315854	0.450274	1.195672
C379	C	0.677941	-0.187659	0.552474
C380	C	1.011274	0.145675	0.885807
C381	C	1.344607	0.479008	1.219141
C382	C	0.620491	-0.245030	0.979404
C383	C	0.953824	0.088303	1.312737
C384	C	1.287157	0.421637	1.646070
C385	C	0.620497	-0.245022	1.026322
C386	C	0.953830	0.088312	1.359655
C387	C	1.287164	0.421645	1.692988
C388	C	0.677999	-0.187560	1.026341
C389	C	1.011332	0.145774	1.359675
C390	C	1.344666	0.479107	1.693008
C391	C	0.677994	-0.187571	0.979423
C392	C	1.011328	0.145763	1.312756
C393	C	1.344661	0.479096	1.646089
C394	C	0.649237	-0.216304	0.955955
C395	C	0.982570	0.117029	1.289288
C396	C	1.315904	0.450363	1.622621
C397	C	0.677930	-0.187685	0.453948
C398	C	1.011263	0.145648	0.787282
C399	C	1.344597	0.478981	1.120615
C400	C	0.677925	-0.187701	0.407029
C401	C	1.011258	0.145632	0.740362
C402	C	1.344591	0.478966	1.073695
C403	C	0.620421	-0.245161	0.407013
C404	C	0.953755	0.088172	0.740346
C405	C	1.287088	0.421506	1.073680
C406	C	0.620428	-0.245147	0.453929
C407	C	0.953761	0.088186	0.787262
C408	C	1.287095	0.421519	1.120595
C409	C	0.649184	-0.216406	0.477395
C410	C	0.982517	0.116927	0.810728
C411	C	1.315851	0.450261	1.144062
O412	O	0.596011	-0.269553	0.528144
O413	O	0.929344	0.063780	0.861477
O414	O	1.262678	0.397113	1.194811
O415	O	0.702383	-0.163226	0.528215
O416	O	1.035717	0.170107	0.861548
O417	O	1.369050	0.503440	1.194882
C418	C	0.677960	-0.187616	0.740138
C419	C	1.011293	0.145718	1.073472
C420	C	1.344626	0.479051	1.406805
C421	C	0.649211	-0.216338	0.763585
C422	C	0.982544	0.116995	1.096918
C423	C	1.315877	0.450329	1.430252
C424	C	0.620458	-0.245072	0.740116
C425	C	0.953791	0.088261	1.073450
C426	C	1.287124	0.421594	1.406783
C427	C	0.649217	-0.216330	0.810503
C428	C	0.982551	0.117003	1.143836
C429	C	1.315884	0.450337	1.477170
C430	C	0.677970	-0.187596	0.833972
C431	C	1.011304	0.145738	1.167305
C432	C	1.344637	0.479071	1.500638
C433	C	0.706717	-0.158870	0.810523
C434	C	1.040050	0.174464	1.143856
C435	C	1.373383	0.507797	1.477189
C436	C	0.706712	-0.158881	0.763607
C437	C	1.040046	0.174452	1.096940
C438	C	1.373379	0.507785	1.430274
C439	C	0.591711	-0.273798	0.763566
C440	C	0.925045	0.059535	1.096899
C441	C	1.258378	0.392869	1.430232
C442	C	0.591718	-0.273785	0.810481
C443	C	0.925052	0.059549	1.143814
C444	C	1.258385	0.392882	1.477148
C445	C	0.620471	-0.245050	0.833950
C446	C	0.953805	0.088283	1.167283
C447	C	1.287138	0.421616	1.500616
H448	H	0.262394	-0.135705	0.297462
H449	H	0.595727	0.197628	0.630795
H450	H	0.929060	0.530961	0.964128
H451	H	0.036379	-0.297170	0.135440
H452	H	0.369713	0.036163	0.468773
H453	H	0.703046	0.369497	0.802107
H454	H	0.177289	-0.135702	0.297464
H455	H	0.510622	0.197631	0.630797
H456	H	0.843955	0.530964	0.964131
O457	O	0.125217	-0.301700	0.130976
O458	O	0.458551	0.031633	0.464310
O459	O	0.791884	0.364966	0.797643
C460	C	0.152334	-0.330765	0.156497
C461	C	0.485667	0.002568	0.489830
C462	C	0.819000	0.335901	0.823163
H463	H	0.159390	-0.314970	0.190571
H464	H	0.492723	0.018363	0.523904
H465	H	0.826056	0.351697	0.857238
H466	H	0.185314	-0.336767	0.138182
H467	H	0.518647	-0.003433	0.471516
H468	H	0.851980	0.329900	0.804849
H469	H	0.134225	-0.364061	0.161374
H470	H	0.467559	-0.030728	0.494707
H471	H	0.800892	0.302605	0.828040
H472	H	-0.179329	-0.164398	0.268702
H473	H	0.154005	0.168935	0.602036
H474	H	0.487338	0.502268	0.935369
H475	H	0.701358	-1.044896	0.268692
H476	H	1.034691	-0.711563	0.602026
H477	H	1.368024	-0.378230	0.935359
O478	O	0.173391	-0.301611	0.130876
O479	O	0.506725	0.031722	0.464209
O480	O	0.840058	0.365056	0.797542
C481	C	0.146269	-0.275989	0.101903
C482	C	0.479602	0.057344	0.435236
C483	C	0.812935	0.390677	0.768570
H484	H	0.139262	-0.241970	0.117817
H485	H	0.472595	0.091363	0.451151
H486	H	0.805928	0.424697	0.784484
H487	H	0.113265	-0.294282	0.095843
H488	H	0.446598	0.039051	0.429176
H489	H	0.779931	0.372384	0.762509
H490	H	0.164346	-0.270997	0.068622
H491	H	0.497680	0.062336	0.401955
H492	H	0.831013	0.395669	0.735288
O493	O	0.563853	-0.301741	0.833273
O494	O	0.897186	0.031592	1.166606
O495	O	1.230520	0.364926	1.499939
C496	C	0.589408	-0.330748	0.860419
C497	C	0.922741	0.002585	1.193753
C498	C	1.256074	0.335918	1.527086
H499	H	0.624789	-0.333527	0.846291
H500	H	0.958123	-0.000193	1.179624
H501	H	1.291456	0.333140	1.512958
H502	H	0.573135	-0.365321	0.860935
H503	H	0.906468	-0.031988	1.194268
H504	H	1.239801	0.301346	1.527601
H505	H	0.590963	-0.316854	0.895982
H506	H	0.924296	0.016479	1.229316
H507	H	1.257629	0.349813	1.562649
O508	O	0.592705	-0.956205	0.159783
O509	O	0.926038	-0.622872	0.493116
O510	O	1.259371	-0.289539	0.826450
C511	C	0.618295	-0.929068	0.130780
C512	C	0.951628	-0.595734	0.464113
C513	C	1.284962	-0.262401	0.797446
H514	H	0.652326	-0.921993	0.146658
H515	H	0.985659	-0.588659	0.479992
H516	H	1.318992	-0.255326	0.813325
H517	H	0.599988	-0.896098	0.124732
H518	H	0.933321	-0.562765	0.458065
H519	H	1.266655	-0.229431	0.791399
H520	H	0.623264	-0.947167	0.097496
H521	H	0.956597	-0.613834	0.430830
H522	H	1.289930	-0.280500	0.764163
H523	H	0.701406	-0.164180	0.960335
H524	H	1.034739	0.169154	1.293669
H525	H	1.368072	0.502487	1.627002
H526	H	0.701340	-0.959774	0.268681
H527	H	1.034674	-0.626441	0.602014
H528	H	1.368007	-0.293107	0.935347
O529	O	0.734509	-0.599443	0.301843
O530	O	1.067843	-0.266109	0.635176
O531	O	1.401176	0.067224	0.968510
C532	C	0.763534	-0.572281	0.276298
C533	C	1.096867	-0.238948	0.609631
C534	C	1.430200	0.094385	0.942965
H535	H	0.766341	-0.586434	0.240918
H536	H	1.099674	-0.253101	0.574251
H537	H	1.433008	0.080233	0.907585
H538	H	0.798094	-0.571712	0.292584
H539	H	1.131427	-0.238379	0.625918
H540	H	1.464760	0.094955	0.959251
H541	H	0.749637	-0.536736	0.274735
H542	H	1.082971	-0.203403	0.608068
H543	H	1.416304	0.129931	0.941402
O544	O	0.563765	-0.301754	0.740841
O545	O	0.897098	0.031579	1.074175
O546	O	1.230431	0.364913	1.407508
C547	C	0.538387	-0.327093	0.771604
C548	C	0.871721	0.006240	1.104937
C549	C	1.205054	0.339574	1.438271
H550	H	0.556794	-0.328637	0.805050
H551	H	0.890128	0.004696	1.138383
H552	H	1.223461	0.338029	1.471716
H553	H	0.533568	-0.362494	0.758044
H554	H	0.866901	-0.029160	1.091378
H555	H	1.200234	0.304173	1.424711
H556	H	0.504280	-0.310639	0.776593
H557	H	0.837613	0.022695	1.109926
H558	H	1.170946	0.356028	1.443260
H559	H	0.701192	-0.387379	0.268586
H560	H	1.034526	-0.054046	0.601919
H561	H	1.367859	0.279288	0.935252
H562	H	-0.094206	-0.164396	0.268701
H563	H	0.239127	0.168937	0.602034
H564	H	0.572460	0.502271	0.935368
O565	O	0.265947	-0.301607	0.130846
O566	O	0.599281	0.031726	0.464179
O567	O	0.932614	0.365060	0.797512
C568	C	0.293103	-0.275988	0.101885
C569	C	0.626437	0.057345	0.435218
C570	C	0.959770	0.390679	0.768552
H571	H	0.278990	-0.240599	0.099181
H572	H	0.612323	0.092734	0.432515
H573	H	0.945657	0.426067	0.765848
H574	H	0.293611	-0.292183	0.067279
H575	H	0.626944	0.041150	0.400613
H576	H	0.960277	0.374483	0.733946
H577	H	0.328668	-0.274465	0.115775
H578	H	0.662001	0.058868	0.449108
H579	H	0.995334	0.392201	0.782441
H580	H	0.597032	-0.472657	0.164244
H581	H	0.930365	-0.139323	0.497577
H582	H	1.263698	0.194010	0.830911
O583	O	0.481812	-0.159849	0.273199
O584	O	0.815146	0.173484	0.606533
O585	O	1.148479	0.506817	0.939866
C586	C	0.451068	-0.134538	0.298615
C587	C	0.784402	0.198795	0.631948
C588	C	1.117735	0.532129	0.965281
H589	H	0.417620	-0.132955	0.280216
H590	H	0.750953	0.200378	0.613549
H591	H	1.084287	0.533711	0.946883
H592	H	0.464648	-0.099149	0.303476
H593	H	0.797981	0.234185	0.636810
H594	H	1.131315	0.567518	0.970143
H595	H	0.446077	-0.151041	0.332702
H596	H	0.779410	0.182292	0.666035
H597	H	1.112743	0.515625	0.999369
O598	O	0.734510	-0.691995	0.301858
O599	O	1.067843	-0.358661	0.635191
O600	O	1.401177	-0.025328	0.968524
C601	C	0.763562	-0.719110	0.276312
C602	C	1.096896	-0.385777	0.609645
C603	C	1.430229	-0.052443	0.942979
H604	H	0.747742	-0.726180	0.242254
H605	H	1.081075	-0.392847	0.575587
H606	H	1.414409	-0.059513	0.908921
H607	H	0.769588	-0.752083	0.294624
H608	H	1.102921	-0.418750	0.627958
H609	H	1.436254	-0.085417	0.961291
H610	H	0.796850	-0.700994	0.271401
H611	H	1.130183	-0.367660	0.604735
H612	H	1.463516	-0.034327	0.938068
O613	O	0.705763	-0.476100	0.273144
O614	O	1.039096	-0.142767	0.606478
O615	O	1.372430	0.190566	0.939811
C616	C	0.731084	-0.445289	0.298527
C617	C	1.064417	-0.111956	0.631860
C618	C	1.397751	0.221378	0.965194
H619	H	0.732643	-0.411857	0.280116
H620	H	1.065976	-0.078524	0.613449
H621	H	1.399310	0.254810	0.946783
H622	H	0.766481	-0.458806	0.303361
H623	H	1.099814	-0.125473	0.636694
H624	H	1.433148	0.207860	0.970028
H625	H	0.714604	-0.440289	0.332628
H626	H	1.047938	-0.106955	0.665961
H627	H	1.381271	0.226378	0.999294
H628	H	0.597013	-0.268557	0.387896
H629	H	0.930346	0.064776	0.721230
H630	H	1.263679	0.398110	1.054563
O631	O	-0.183046	-0.273017	0.159683
O632	O	0.150288	0.060316	0.493016
O633	O	0.483621	0.393650	0.826349
C634	C	-0.152300	-0.298341	0.134282
C635	C	0.181034	0.034992	0.467616
C636	C	0.514367	0.368326	0.800949
H637	H	-0.118845	-0.279934	0.132763
H638	H	0.214488	0.053399	0.466097
H639	H	0.547821	0.386733	0.799430
H640	H	-0.165867	-0.303081	0.098876
H641	H	0.167466	0.030253	0.432210
H642	H	0.500799	0.363586	0.765543
H643	H	-0.147324	-0.332486	0.150666
H644	H	0.186009	0.000848	0.484000
H645	H	0.519342	0.334181	0.817333
O646	O	0.734579	-0.832679	0.301901
O647	O	1.067913	-0.499346	0.635234
O648	O	1.401246	-0.166012	0.968568
C649	C	0.779362	-0.821177	0.292140
C650	C	1.112695	-0.487844	0.625473
C651	C	1.446028	-0.154511	0.958806
H652	H	0.781660	-0.808299	0.256251
H653	H	1.114993	-0.474965	0.589584
H654	H	1.448327	-0.141632	0.922917
H655	H	0.801556	-0.852013	0.296039
H656	H	1.134890	-0.518680	0.629373
H657	H	1.468223	-0.185346	0.962706
H658	H	0.791081	-0.793920	0.316235
H659	H	1.124414	-0.460587	0.649569
H660	H	1.457747	-0.127254	0.982902
O661	O	-0.090582	-0.273023	0.159777
O662	O	0.242752	0.060310	0.493110
O663	O	0.576085	0.393643	0.826443
C664	C	-0.063462	-0.302087	0.185295
C665	C	0.269872	0.031246	0.518628
C666	C	0.603205	0.364580	0.851961
H667	H	-0.056404	-0.286292	0.219368
H668	H	0.276929	0.047042	0.552702
H669	H	0.610263	0.380375	0.886035
H670	H	-0.030483	-0.308086	0.166977
H671	H	0.302851	0.025247	0.500311
H672	H	0.636184	0.358581	0.833644
H673	H	-0.081567	-0.335384	0.190172
H674	H	0.251766	-0.002051	0.523506
H675	H	0.585099	0.331282	0.856839
O676	O	0.563831	-0.832933	0.131087
O677	O	0.897164	-0.499599	0.464420
O678	O	1.230498	-0.166266	0.797754
C679	C	0.519050	-0.821486	0.140858
C680	C	0.852383	-0.488153	0.474192
C681	C	1.185716	-0.154819	0.807525
H682	H	0.516760	-0.808570	0.176745
H683	H	0.850093	-0.475237	0.510078
H684	H	1.183427	-0.141903	0.843411
H685	H	0.496859	-0.852359	0.136973
H686	H	0.830192	-0.519026	0.470306
H687	H	1.163525	-0.185692	0.803640
H688	H	0.507319	-0.794274	0.116759
H689	H	0.840653	-0.460941	0.450092
H690	H	1.173986	-0.127607	0.783426
O691	O	0.592734	-1.048761	0.159771
O692	O	0.926067	-0.715428	0.493104
O693	O	1.259401	-0.382094	0.826438
C694	C	0.618334	-1.075903	0.130788
C695	C	0.951667	-0.742570	0.464121
C696	C	1.285000	-0.409236	0.797455
H697	H	0.653716	-1.061736	0.128043
H698	H	0.987049	-0.728402	0.461376
H699	H	1.320383	-0.395069	0.794710
H700	H	0.602107	-1.076468	0.096200
H701	H	0.935440	-0.743134	0.429533
H702	H	1.268774	-0.409801	0.762867
H703	H	0.619879	-1.111452	0.144683
H704	H	0.953212	-0.778119	0.478017
H705	H	1.286546	-0.444785	0.811350
H706	H	0.729988	-0.743905	0.297412
H707	H	1.063321	-0.410571	0.630746
H708	H	1.396654	-0.077238	0.964079
O709	O	0.592539	-0.272986	0.956680
O710	O	0.925873	0.060347	1.290013
O711	O	1.259206	0.393680	1.623346
C712	C	0.567164	-0.298327	0.987443
C713	C	0.900497	0.035007	1.320776
C714	C	1.233831	0.368340	1.654110
H715	H	0.585574	-0.299874	1.020887
H716	H	0.918907	0.033459	1.354220
H717	H	1.252240	0.366793	1.687554
H718	H	0.562342	-0.333726	0.973881
H719	H	0.895675	-0.000393	1.307215
H720	H	1.229009	0.332940	1.640548
H721	H	0.533057	-0.281872	0.992436
H722	H	0.866391	0.051462	1.325770
H723	H	1.199724	0.384795	1.659103
H724	H	0.701339	-0.164310	0.387940
H725	H	1.034672	0.169024	0.721274
H726	H	1.368006	0.502357	1.054607
O727	O	0.563808	-0.692129	0.131003
O728	O	0.897142	-0.358795	0.464337
O729	O	1.230475	-0.025462	0.797670
C730	C	0.538470	-0.661392	0.105615
C731	C	0.871803	-0.328059	0.438948
C732	C	1.205137	0.005274	0.772282
H733	H	0.536902	-0.627940	0.124014
H734	H	0.870235	-0.294607	0.457347
H735	H	1.203568	0.038727	0.790680
H736	H	0.503077	-0.674977	0.100793
H737	H	0.836411	-0.341643	0.434127
H738	H	1.169744	-0.008310	0.767460
H739	H	0.554941	-0.656407	0.071509
H740	H	0.888274	-0.323073	0.404842
H741	H	1.221607	0.010260	0.738175
H742	H	0.568340	-0.603394	0.135526
H743	H	0.901673	-0.270061	0.468859
H744	H	1.235006	0.063272	0.802192
O745	O	0.389342	-0.273016	0.159644
O746	O	0.722675	0.060317	0.492977
O747	O	1.056008	0.393650	0.826310
C748	C	0.420084	-0.298346	0.134245
C749	C	0.753418	0.034987	0.467579
C750	C	1.086751	0.368320	0.800912
H751	H	0.453542	-0.279944	0.132726
H752	H	0.786875	0.053389	0.466059
H753	H	1.120208	0.386723	0.799393
H754	H	0.406517	-0.303086	0.098840
H755	H	0.739850	0.030247	0.432173
H756	H	1.073183	0.363581	0.765506
H757	H	0.425054	-0.332491	0.150632
H758	H	0.758388	0.000843	0.483965
H759	H	1.091721	0.334176	0.817299
O760	O	0.734577	-0.130940	0.600114
O761	O	1.067911	0.202393	0.933447
O762	O	1.401244	0.535727	1.266780
C763	C	0.724787	-0.086169	0.611610
C764	C	1.058121	0.247165	0.944944
C765	C	1.391454	0.580498	1.278277
H766	H	0.688898	-0.083908	0.624497
H767	H	1.022231	0.249425	0.957830
H768	H	1.355564	0.582758	1.291163
H769	H	0.728671	-0.063968	0.580770
H770	H	1.062004	0.269365	0.914104
H771	H	1.395338	0.602699	1.247437
H772	H	0.748877	-0.074426	0.638860
H773	H	1.082210	0.258908	0.972193
H774	H	1.415543	0.592241	1.305527
H775	H	0.597012	-0.387534	0.164232
H776	H	0.930345	-0.054201	0.497566
H777	H	1.263679	0.279132	0.830899
H778	H	0.568387	-0.744152	0.135543
H779	H	0.901720	-0.410819	0.468876
H780	H	1.235054	-0.077485	0.802209
H781	H	0.568280	-0.297209	0.688812
H782	H	0.901614	0.036124	1.022145
H783	H	1.234947	0.369457	1.355479
O784	O	0.481838	-0.272956	0.159692
O785	O	0.815172	0.060377	0.493025
O786	O	1.148505	0.393710	0.826359
C787	C	0.528284	-0.266808	0.165873
C788	C	0.861618	0.066525	0.499207
C789	C	1.194951	0.399858	0.832540
H790	H	0.534714	-0.232162	0.180659
H791	H	0.868048	0.101172	0.513993
H792	H	1.201381	0.434505	0.847326
H793	H	0.546105	-0.269798	0.132216
H794	H	0.879439	0.063536	0.465550
H795	H	1.212772	0.396869	0.798883
H796	H	0.541591	-0.293494	0.189742
H797	H	0.874924	0.039840	0.523075
H798	H	1.208257	0.373173	0.856409
O799	O	0.705907	-0.159754	0.476670
O800	O	1.039240	0.173580	0.810003
O801	O	1.372573	0.506913	1.143336
C802	C	0.731269	-0.134401	0.445906
C803	C	1.064603	0.198933	0.779240
C804	C	1.397936	0.532266	1.112573
H805	H	0.732803	-0.152813	0.412460
H806	H	1.066136	0.180520	0.745793
H807	H	1.399470	0.513853	1.079127
H808	H	0.766672	-0.129607	0.459464
H809	H	1.100006	0.203726	0.792797
H810	H	1.433339	0.537059	1.126131
H811	H	0.714843	-0.100281	0.440920
H812	H	1.048176	0.233053	0.774253
H813	H	1.381509	0.566386	1.107586
O814	O	0.734573	-0.130941	0.692588
O815	O	1.067906	0.202392	1.025921
O816	O	1.401240	0.535726	1.359255
C817	C	0.709027	-0.101920	0.719740
C818	C	1.042360	0.231413	1.053073
C819	C	1.375693	0.564746	1.386407
H820	H	0.673641	-0.099148	0.705604
H821	H	1.006974	0.234185	1.038937
H822	H	1.340307	0.567518	1.372270
H823	H	0.725300	-0.067348	0.720274
H824	H	1.058634	0.265986	1.053607
H825	H	1.391967	0.599319	1.386940
H826	H	0.707481	-0.115798	0.755297
H827	H	1.040815	0.217536	1.088630
H828	H	1.374148	0.550869	1.421964
H829	H	0.730130	-0.135475	0.829639
H830	H	1.063463	0.197858	1.162972
H831	H	1.396796	0.531192	1.496306
O832	O	0.125271	-0.131151	0.302003
O833	O	0.458604	0.202182	0.635336
O834	O	0.791937	0.535516	0.968670
C835	C	0.094523	-0.105843	0.327417
C836	C	0.427856	0.227490	0.660750
C837	C	0.761189	0.560824	0.994083
H838	H	0.061075	-0.104265	0.309017
H839	H	0.394408	0.229069	0.642350
H840	H	0.727741	0.562402	0.975683
H841	H	0.108098	-0.070452	0.332278
H842	H	0.441431	0.262881	0.665612
H843	H	0.774764	0.596215	0.998945
H844	H	0.089532	-0.122346	0.361504
H845	H	0.422865	0.210987	0.694838
H846	H	0.756198	0.544320	1.028171
H847	H	0.036529	-0.135705	0.297468
H848	H	0.369863	0.197628	0.630801
H849	H	0.703196	0.530962	0.964135
H850	H	0.701411	-0.164164	1.045458
H851	H	1.034745	0.169170	1.378791
H852	H	1.368078	0.502503	1.712124
H853	H	0.597090	-0.268417	1.045408
H854	H	0.930423	0.064916	1.378741
H855	H	1.263756	0.398250	1.712075
O856	O	0.563806	-0.301805	0.600030
O857	O	0.897139	0.031528	0.933364
O858	O	1.230473	0.364862	1.266697
C859	C	0.573591	-0.346576	0.611499
C860	C	0.906924	-0.013243	0.944832
C861	C	1.240257	0.320091	1.278165
H862	H	0.609479	-0.348838	0.624405
H863	H	0.942813	-0.015505	0.957739
H864	H	1.276146	0.317829	1.291072
H865	H	0.569707	-0.368780	0.580639
H866	H	0.903041	-0.035446	0.913972
H867	H	1.236374	0.297887	1.247306
H868	H	0.549498	-0.358313	0.638724
H869	H	0.882831	-0.024980	0.972058
H870	H	1.216165	0.308354	1.305391
O871	O	0.389346	-0.159947	0.273213
O872	O	0.722679	0.173386	0.606546
O873	O	1.056013	0.506719	0.939879
C874	C	0.362209	-0.185569	0.302189
C875	C	0.695542	0.147764	0.635522
C876	C	1.028876	0.481097	0.968856
H877	H	0.355147	-0.219589	0.286276
H878	H	0.688480	0.113745	0.619609
H879	H	1.021814	0.447078	0.952942
H880	H	0.329233	-0.167276	0.308253
H881	H	0.662567	0.166057	0.641587
H882	H	0.995900	0.499390	0.974920
H883	H	0.380302	-0.190561	0.335468
H884	H	0.713636	0.142772	0.668801
H885	H	1.046969	0.476106	1.002135
O886	O	0.592461	-0.273067	0.476638
O887	O	0.925794	0.060266	0.809971
O888	O	1.259127	0.393599	1.143305
C889	C	0.567093	-0.298441	0.445860
C890	C	0.900426	0.034892	0.779194
C891	C	1.233759	0.368225	1.112527
H892	H	0.565549	-0.280049	0.412418
H893	H	0.898883	0.053284	0.745752
H894	H	1.232216	0.386617	1.079085
H895	H	0.531693	-0.303229	0.459406
H896	H	0.865026	0.030104	0.792740
H897	H	1.198360	0.363437	1.126073
H898	H	0.583521	-0.332563	0.440869
H899	H	0.916854	0.000770	0.774202
H900	H	1.250187	0.334104	1.107536
O901	O	0.734654	-0.130934	0.740904
O902	O	1.067987	0.202400	1.074237
O903	O	1.401321	0.535733	1.407570
C904	C	0.760037	-0.105581	0.771687
C905	C	1.093371	0.227752	1.105020
C906	C	1.426704	0.561086	1.438353
H907	H	0.741637	-0.104023	0.805127
H908	H	1.074970	0.229310	1.138460
H909	H	1.408304	0.562644	1.471794
H910	H	0.764853	-0.070186	0.758145
H911	H	1.098187	0.263147	1.091478
H912	H	1.431520	0.596481	1.424812
H913	H	0.794146	-0.122033	0.776680
H914	H	1.127479	0.211301	1.110013
H915	H	1.460813	0.544634	1.443346
