data_functionalizedCrystal
_audit_creation_method	'MofGen! by Chris Wilmer'
_symmetry_space_group_name_H-M	'P1'
_symmetry_Int_Tables_number	1
_symmetry_cell_setting	triclinic
loop_
_symmetry_equiv_pos_as_xyz
  x,y,z
_cell_length_a	10.654545
_cell_length_b	19.188924
_cell_length_c	18.266242
_cell_angle_alpha	90.007204
_cell_angle_beta	90.008484
_cell_angle_gamma	83.812522
loop_
_atom_site_label
_atom_site_type_symbol
_atom_site_fract_x
_atom_site_fract_y
_atom_site_fract_z
O1	O	1.665774	0.098047	0.060877
O2	O	1.300096	0.107393	0.060881
O3	O	1.493492	0.001133	0.060870
O4	O	1.472378	0.204307	0.060888
O5	O	1.493459	0.001130	-0.060892
O6	O	1.300063	0.107390	-0.060881
O7	O	1.665741	0.098044	-0.060885
Zn8	Zn	1.482897	0.102716	-0.080215
Zn9	Zn	1.482940	0.102721	0.080211
O10	O	1.472345	0.204304	-0.060874
C11	C	1.253296	0.106706	0.000000
C12	C	1.113896	0.104655	0.000001
C13	C	1.048394	0.103688	-0.066372
C14	C	0.917416	0.101749	-0.066372
C15	C	0.917452	0.101748	0.066380
C16	C	1.048430	0.103681	0.066379
C17	C	0.748249	0.058273	-0.146118
C18	C	0.682740	0.057318	-0.212494
C19	C	0.715378	0.098785	-0.271092
C20	C	0.813520	0.141224	-0.263316
C21	C	0.879021	0.142186	-0.196939
C22	C	0.846388	0.100703	-0.138343
C23	C	1.217597	0.147163	0.146120
C24	C	1.283099	0.148129	0.212498
C25	C	1.250462	0.106666	0.271102
C26	C	1.152314	0.064238	0.263334
C27	C	1.086812	0.063271	0.196956
C28	C	1.119458	0.104733	0.138351
C29	C	1.492793	-0.024884	-0.000011
C30	C	1.490745	-0.102402	-0.000013
C31	C	1.489807	-0.138806	0.066359
C32	C	1.487865	-0.211641	0.066365
C33	C	1.486886	-0.248072	-0.000006
C34	C	1.487817	-0.211659	-0.066387
C35	C	1.489746	-0.138824	-0.066391
N36	N	1.555305	-0.367289	-0.049405
N37	N	1.553475	-0.436480	-0.049397
C38	C	1.481069	-0.467519	0.000001
N39	N	1.410578	-0.426755	0.049402
N40	N	1.412415	-0.357559	0.049396
C41	C	1.484792	-0.327049	-0.000009
C42	C	1.478023	-0.582899	0.066385
C43	C	1.476073	-0.655735	0.066387
C44	C	1.476038	-0.655753	-0.066367
C45	C	1.477975	-0.582917	-0.066368
C46	C	1.478974	-0.546495	0.000010
C47	C	1.712541	0.098731	-0.000002
C48	C	1.851941	0.100782	0.000001
C49	C	1.473044	0.230321	0.000009
C50	C	1.475092	0.307839	0.000016
N51	N	1.482876	0.102713	-0.189702
C52	C	1.558792	0.145455	-0.228002
C53	C	1.558813	0.145453	-0.304647
C54	C	1.482895	0.102718	-0.342989
C55	C	1.406974	0.059967	-0.304680
C56	C	1.406965	0.059965	-0.228037
N57	N	1.372914	0.100279	-0.463341
N58	N	1.372926	0.100285	-0.536149
C59	C	1.482920	0.102720	-0.573911
N60	N	1.592902	0.105163	-0.536115
N61	N	1.592888	0.105160	-0.463301
C62	C	1.482897	0.102715	-0.426096
C63	C	1.558864	0.145462	-0.695318
C64	C	1.558888	0.145455	-0.771965
C65	C	1.407037	0.059974	-0.771997
C66	C	1.407026	0.059977	-0.695352
C67	C	1.482937	0.102724	-0.657017
N68	N	1.482970	0.102719	0.189698
H69	H	1.006893	0.028722	0.190634
H70	H	1.125736	0.030478	0.311056
O71	O	1.474855	-0.691079	-0.130863
C72	C	1.366594	-0.665880	-0.171241
H73	H	1.291144	-0.640695	-0.132397
H74	H	1.392286	-0.625272	-0.212624
C75	C	1.408217	-0.758162	-0.259627
C76	C	1.315544	-0.727234	-0.211918
H77	H	1.376730	-0.796007	-0.284722
H78	H	1.481158	-0.775138	-0.232426
H79	H	1.429619	-0.724316	-0.294106
H80	H	1.294155	-0.761078	-0.177434
H81	H	1.242598	-0.710265	-0.239114
O82	O	1.490493	-0.103523	-0.130915
C83	C	1.381256	-0.113924	-0.171282
H84	H	1.343605	-0.164342	-0.152408
H85	H	1.306208	-0.067759	-0.162078
C86	C	1.460412	-0.057617	-0.276488
C87	C	1.414175	-0.119544	-0.253311
H88	H	1.480715	-0.061080	-0.327088
H89	H	1.534006	-0.050607	-0.249292
H90	H	1.397865	-0.019152	-0.268812
H91	H	1.476727	-0.158006	-0.260979
H92	H	1.340592	-0.126561	-0.280511
O93	O	1.478681	-0.547507	-0.130825
C94	C	1.371080	-0.497980	-0.134793
H95	H	1.294505	-0.514760	-0.097126
H96	H	1.397132	-0.444446	-0.116965
C97	C	1.415839	-0.472915	-0.260355
C98	C	1.321784	-0.493529	-0.214097
H99	H	1.385433	-0.470167	-0.309274
H100	H	1.488335	-0.506281	-0.257682
H101	H	1.437541	-0.428306	-0.245490
H102	H	1.300095	-0.538141	-0.228958
H103	H	1.249283	-0.460171	-0.216775
O104	O	1.478920	-0.547616	0.130926
C105	C	1.477693	-0.595371	0.189511
H106	H	1.436560	-0.644592	0.170055
H107	H	1.578216	-0.609956	0.209921
C108	C	1.446648	-0.500887	0.276115
C109	C	1.396118	-0.561339	0.252220
H110	H	1.396334	-0.479895	0.314799
H111	H	1.447479	-0.468713	0.236645
H112	H	1.530416	-0.513050	0.293118
H113	H	1.312359	-0.549174	0.235209
H114	H	1.395271	-0.593510	0.291689
H115	H	1.345143	0.025159	-0.196854
H116	H	1.345225	0.025177	-0.803214
H117	H	1.101693	0.104480	-0.120421
H118	H	1.345202	0.025175	-0.664168
H119	H	0.840069	0.174999	-0.311031
O120	O	0.974233	0.183472	-0.189301
C121	C	0.944940	0.231873	-0.132130
H122	H	0.838368	0.239497	-0.123538
H123	H	0.993090	0.211059	-0.079585
C124	C	1.122753	0.293197	-0.162816
C125	C	0.991859	0.302565	-0.152269
H126	H	1.151699	0.336803	-0.175236
H127	H	1.142492	0.260587	-0.201332
H128	H	1.162862	0.275850	-0.119026
H129	H	0.951752	0.319903	-0.196061
H130	H	0.972114	0.335180	-0.113761
O131	O	1.632414	0.186959	-0.190652
C132	C	1.616152	0.177783	-0.114790
H133	H	1.521160	0.157380	-0.104337
H134	H	1.695141	0.138419	-0.093034
C135	C	1.736675	0.273553	-0.088271
C136	C	1.619999	0.248500	-0.075431
H137	H	1.739053	0.317174	-0.063991
H138	H	1.747635	0.279734	-0.139380
H139	H	1.802487	0.240744	-0.070141
H140	H	1.554191	0.281305	-0.093569
H141	H	1.609028	0.242326	-0.024324
H142	H	0.662031	0.098006	-0.325137
H143	H	1.620633	0.180260	-0.335836
O144	O	0.716742	0.017909	-0.089214
C145	C	0.821869	-0.029387	-0.069562
H146	H	0.888959	-0.037573	-0.118159
H147	H	0.873000	-0.007135	-0.021502
C148	C	0.694604	-0.089998	0.012317
C149	C	0.777000	-0.100057	-0.047373
H150	H	0.666929	-0.133590	0.026007
H151	H	0.623779	-0.058133	-0.000921
H152	H	0.737226	-0.071452	0.052360
H153	H	0.734374	-0.118594	-0.087417
H154	H	0.847818	-0.131927	-0.034142
H155	H	1.490617	-0.109155	0.120409
H156	H	0.602834	0.022760	-0.218820
O157	O	1.632538	0.187078	-0.658154
C158	C	1.597333	0.257768	-0.676864
H159	H	1.548626	0.260516	-0.732520
H160	H	1.529814	0.283137	-0.633735
C161	C	1.775702	0.293632	-0.612022
C162	C	1.715889	0.297007	-0.680382
H163	H	1.848830	0.317838	-0.614189
H164	H	1.799418	0.246007	-0.599414
H165	H	1.719423	0.314772	-0.576089
H166	H	1.772162	0.275860	-0.716313
H167	H	1.692185	0.344630	-0.692996
O168	O	0.853965	0.100907	0.130901
C169	C	0.871394	0.161750	0.171275
H170	H	0.961636	0.183273	0.152404
H171	H	0.787482	0.202930	0.162074
C172	C	0.771047	0.117076	0.276475
C173	C	0.881890	0.143507	0.253302
H174	H	0.777516	0.105824	0.327074
H175	H	0.759300	0.076086	0.249274
H176	H	0.701131	0.151397	0.268801
H177	H	0.951800	0.109183	0.260968
H178	H	0.893649	0.184491	0.280507
O179	O	1.632609	0.186909	-0.809285
C180	C	1.616326	0.177755	-0.885153
H181	H	1.580833	0.124687	-0.895633
H182	H	1.544542	0.221174	-0.906910
C183	C	1.787047	0.245969	-0.911611
C184	C	1.743464	0.180787	-0.924482
H185	H	1.865469	0.247842	-0.935872
H186	H	1.798015	0.252139	-0.860497
H187	H	1.727216	0.282144	-0.929742
H188	H	1.803287	0.144614	-0.906343
H189	H	1.732509	0.174611	-0.975594
O190	O	1.249078	0.187483	0.089170
C191	C	1.143963	0.234796	0.069539
H192	H	1.053659	0.213346	0.088418
H193	H	1.151650	0.287627	0.096776
C194	C	1.251654	0.270434	-0.037388
C195	C	1.140741	0.244086	-0.014206
H196	H	1.249668	0.276168	-0.089046
H197	H	1.322474	0.238561	-0.024162
H198	H	1.258048	0.314457	-0.014684
H199	H	1.134356	0.200061	-0.036903
H200	H	1.069919	0.275953	-0.027438
H201	H	1.303796	0.107464	0.325154
O202	O	1.486969	-0.246906	0.130908
C203	C	1.488201	-0.199136	0.189492
H204	H	1.529357	-0.149926	0.170044
H205	H	1.387677	-0.184533	0.209879
C206	C	1.519192	-0.293597	0.276106
C207	C	1.569752	-0.233158	0.252221
H208	H	1.569492	-0.314583	0.314802
H209	H	1.518358	-0.325781	0.236638
H210	H	1.435424	-0.281419	0.293090
H211	H	1.653512	-0.245338	0.235229
H212	H	1.570603	-0.200977	0.291688
H213	H	1.363004	0.182688	0.218823
H214	H	1.345162	0.025171	-0.335903
H215	H	1.487016	-0.241326	-0.120427
H216	H	1.475303	-0.685373	0.120438
