data_functionalizedCrystal
_audit_creation_method	'MofGen! by Chris Wilmer'
_symmetry_space_group_name_H-M	'P1'
_symmetry_Int_Tables_number	1
_symmetry_cell_setting	triclinic
loop_
_symmetry_equiv_pos_as_xyz
  x,y,z
_cell_length_a	14.044220
_cell_length_b	11.026607
_cell_length_c	10.065875
_cell_angle_alpha	79.268236
_cell_angle_beta	99.550528
_cell_angle_gamma	100.887447
loop_
_atom_site_label
_atom_site_type_symbol
_atom_site_fract_x
_atom_site_fract_y
_atom_site_fract_z
O1	O	-1.319580	-0.281448	-0.113335
O2	O	-0.819580	0.218552	0.386665
O3	O	-1.041779	-0.270687	-0.113370
O4	O	-0.541779	0.229313	0.386630
O5	O	-1.157655	-0.096922	-0.113350
O6	O	-0.657655	0.403078	0.386650
O7	O	-1.203704	-0.455212	-0.113354
O8	O	-0.703704	0.044788	0.386646
O9	O	-1.135584	-0.130202	0.113635
O10	O	-0.635584	0.369798	0.613635
O11	O	-1.019708	-0.303966	0.113615
O12	O	-0.519708	0.196034	0.613615
O13	O	-1.297509	-0.314727	0.113650
O14	O	-0.797509	0.185273	0.613650
Zn15	Zn	-1.155104	-0.314631	0.149672
Zn16	Zn	-0.655104	0.185369	0.649672
Zn17	Zn	-1.184184	-0.270783	-0.149391
Zn18	Zn	-0.684184	0.229217	0.350609
O19	O	-1.181633	-0.488492	0.113631
O20	O	-0.681633	0.011508	0.613631
C21	C	-0.994626	-0.282618	0.000118
C22	C	-0.494626	0.217382	0.500118
C23	C	-0.887005	-0.268572	0.000105
C24	C	-0.387005	0.231428	0.500105
C25	C	-1.138125	-0.067431	0.000140
C26	C	-0.638125	0.432569	0.500140
C27	C	-1.112801	0.070025	0.000132
C28	C	-0.612801	0.570025	0.500132
C29	C	-1.344662	-0.302796	0.000160
C30	C	-0.844662	0.197204	0.500160
C31	C	-1.452284	-0.316840	0.000164
C32	C	-0.952284	0.183160	0.500164
C33	C	-0.689960	-0.242901	0.000132
C34	C	-0.189960	0.257099	0.500132
C35	C	-0.649322	-0.342506	0.000137
C36	C	-0.149322	0.157494	0.500137
C37	C	-0.539680	-0.328222	0.000152
C38	C	-0.039680	0.171778	0.500152
C39	C	-0.799612	-0.257183	0.000117
C40	C	-0.299612	0.242817	0.500117
C41	C	-1.201163	-0.517982	0.000138
C42	C	-0.701163	-0.017982	0.500138
C43	C	-1.226488	-0.655438	0.000137
C44	C	-0.726488	-0.155438	0.500137
N45	N	-1.135265	-0.344556	0.353774
N46	N	-0.635265	0.155444	0.853774
C47	C	-1.182725	0.136261	0.000139
C48	C	-0.682725	0.636261	0.500139
C49	C	-1.156554	0.278330	0.000130
C50	C	-0.656554	0.778330	0.500130
N51	N	-1.204029	-0.240849	-0.353493
N52	N	-0.704029	0.259151	0.146507
C53	C	-1.177274	-0.281186	0.421560
C54	C	-0.677274	0.218814	0.921560
C55	C	-1.162014	-0.304228	0.578725
C56	C	-0.662014	0.195772	1.078725
H57	H	-0.696875	-0.438508	0.000129
H58	H	-0.196875	0.061492	0.500129
C59	C	-1.332219	0.280192	0.000087
C60	C	-0.832219	0.780192	0.500087
C61	C	-1.391657	0.368839	0.000060
C62	C	-0.891657	0.868839	0.500060
C63	C	-1.489060	0.309591	-0.000004
C64	C	-0.989060	0.809591	0.499996
H65	H	-1.337444	0.218422	0.079223
H66	H	-0.837444	0.718422	0.579223
H67	H	-1.352754	0.241655	-0.079097
H68	H	-0.852754	0.741655	0.420903
H69	H	-1.371128	0.407357	0.079235
H70	H	-0.871128	0.907357	0.579235
H71	H	-1.386461	0.430614	-0.079070
H72	H	-0.886461	0.930614	0.420930
H73	H	-1.509595	0.271053	-0.079188
H74	H	-1.009595	0.771053	0.420812
H75	H	-1.494276	0.247822	0.079133
H76	H	-0.994276	0.747822	0.579133
H77	H	-1.529402	0.369730	-0.000035
H78	H	-1.029402	0.869730	0.499965
H79	H	-0.642410	-0.146907	0.000141
H80	H	-0.142410	0.353093	0.500141
C81	C	-1.007202	0.134836	-0.000099
C82	C	-0.507202	0.634836	0.499901
C83	C	-0.999982	0.225826	-0.116867
C84	C	-0.499982	0.725826	0.383133
C85	C	-0.902720	0.285562	-0.117117
C86	C	-0.402720	0.785562	0.382883
H87	H	-0.966627	0.075005	-0.000172
H88	H	-0.466627	0.575005	0.499828
H89	H	-0.986701	0.173488	0.079011
H90	H	-0.486701	0.673488	0.579011
H91	H	-1.020471	0.187174	-0.195955
H92	H	-0.520471	0.687174	0.304045
H93	H	-1.040535	0.285682	-0.116818
H94	H	-0.540535	0.785682	0.383182
H95	H	-0.882220	0.324214	-0.038008
H96	H	-0.382220	0.824214	0.461992
H97	H	-0.862153	0.225722	-0.117186
H98	H	-0.362153	0.725722	0.382814
H99	H	-0.897810	0.347313	-0.196335
H100	H	-0.397810	0.847313	0.303665
H101	H	-1.087998	-0.415862	0.412092
H102	H	-0.587998	0.084138	0.912092
H103	H	-1.261964	0.087789	0.000157
H104	H	-0.761964	0.587789	0.500157
H105	H	-1.251291	-0.169529	0.588194
H106	H	-0.751291	0.330471	1.088194
C107	C	-1.050949	0.343135	-0.000100
C108	C	-0.550949	0.843135	0.499900
C109	C	-1.043730	0.434125	-0.116868
C110	C	-0.543730	0.934125	0.383132
C111	C	-0.946467	0.493861	-0.117118
C112	C	-0.446467	0.993861	0.382882
H113	H	-1.010374	0.283304	-0.000173
H114	H	-0.510374	0.783304	0.499827
H115	H	-1.030449	0.381787	0.079009
H116	H	-0.530449	0.881787	0.579009
H117	H	-1.064218	0.395473	-0.195957
H118	H	-0.564218	0.895473	0.304043
H119	H	-1.084283	0.493981	-0.116820
H120	H	-0.584283	0.993981	0.383180
H121	H	-0.925967	0.532513	-0.038009
H122	H	-0.425967	1.032513	0.461991
H123	H	-0.905901	0.434021	-0.117188
H124	H	-0.405901	0.934021	0.382812
H125	H	-0.941558	0.555612	-0.196337
H126	H	-0.441558	1.055612	0.303663
H127	H	-1.224532	-0.209870	0.363244
H128	H	-0.724532	0.290130	0.863244
H129	H	-1.114744	-0.375538	0.637037
H130	H	-0.614744	0.124462	1.137037
