data_functionalizedCrystal
_audit_creation_method	'MofGen! by Chris Wilmer'
_symmetry_space_group_name_H-M	'P1'
_symmetry_Int_Tables_number	1
_symmetry_cell_setting	triclinic
loop_
_symmetry_equiv_pos_as_xyz
  x,y,z
_cell_length_a	25.639240
_cell_length_b	12.759401
_cell_length_c	12.759393
_cell_angle_alpha	89.981433
_cell_angle_beta	89.967965
_cell_angle_gamma	90.031103
loop_
_atom_site_label
_atom_site_type_symbol
_atom_site_fract_x
_atom_site_fract_y
_atom_site_fract_z
Zn1	Zn	-0.208133	1.606129	-0.593980
Zn2	Zn	-0.295580	1.605970	-0.418299
Zn3	Zn	-0.208159	1.430431	-0.418319
Zn4	Zn	-0.295538	1.430366	-0.593940
O5	O	-0.251853	1.518224	-0.506134
O6	O	-0.219740	1.753129	-0.570684
O7	O	-0.284012	1.582645	-0.271280
O8	O	-0.134990	1.453831	-0.441646
O9	O	-0.283987	1.753012	-0.441611
O10	O	-0.134971	1.582915	-0.570703
O11	O	-0.219784	1.453677	-0.271295
O12	O	-0.219743	1.283401	-0.441607
O13	O	-0.283915	1.453721	-0.740966
O14	O	-0.283940	1.283354	-0.570635
O15	O	-0.219699	1.582853	-0.740996
O16	O	-0.368740	1.582582	-0.441572
O17	O	-0.368709	1.453567	-0.570615
C18	C	-0.251840	1.245256	-0.506120
C19	C	-0.251848	1.128480	-0.506138
C20	C	-0.218457	1.073672	-0.573450
C21	C	-0.218467	0.963947	-0.573457
C22	C	-0.285262	0.963850	-0.438837
C23	C	-0.285249	1.073572	-0.438825
C24	C	-0.185056	1.128580	-0.640763
C25	C	-0.151663	1.073771	-0.708082
C26	C	-0.151673	0.964047	-0.708088
C27	C	-0.185076	0.909132	-0.640777
C28	C	-0.387695	1.518079	-0.506110
C29	C	-0.445809	1.518113	-0.506135
C30	C	-0.696941	1.585432	-0.573403
C31	C	-0.642337	1.585401	-0.573395
O32	O	-0.614049	1.642517	-0.630554
N33	N	-0.615083	1.518228	-0.506148
C34	C	-0.642436	1.451089	-0.438897
O35	O	-0.614240	1.393952	-0.381697
C36	C	-0.697039	1.451127	-0.438900
C37	C	-0.724291	1.518297	-0.506159
C38	C	-0.724193	1.652597	-0.640656
C39	C	-0.778793	1.652627	-0.640665
C40	C	-0.806143	1.585492	-0.573421
C41	C	-0.778891	1.518327	-0.506168
C42	C	-0.724391	1.383995	-0.371645
C43	C	-0.778998	1.384039	-0.371653
C44	C	-0.806250	1.451209	-0.438912
C45	C	-0.860841	1.451222	-0.438934
N46	N	-0.888095	1.518394	-0.506181
C47	C	-0.860746	1.585530	-0.573425
C48	C	-0.527765	1.451017	-0.438894
C49	C	-0.473163	1.450973	-0.438895
C50	C	-0.473068	1.585286	-0.573392
C51	C	-0.527671	1.585323	-0.573395
C52	C	-0.555020	1.518190	-0.506141
C53	C	-0.975411	1.585587	-0.573439
C54	C	-1.030016	1.585608	-0.573445
C55	C	-1.030107	1.451299	-0.438945
C56	C	-0.975506	1.451274	-0.438942
C57	C	-0.948160	1.518426	-0.506193
O58	O	-0.889164	1.394137	-0.381801
O59	O	-0.888948	1.642668	-0.630606
C60	C	-0.115480	1.518398	-0.506182
C61	C	-0.057365	1.518472	-0.506202
C62	C	-0.251800	1.518297	-0.780168
C63	C	-0.251777	1.518329	-0.896944
C64	C	-0.251865	1.792257	-0.506150
C65	C	-0.251871	1.909034	-0.506156
C66	C	-0.218337	1.585577	-0.951824
C67	C	-0.218318	1.585602	-1.061548
C68	C	-0.285184	1.451127	-1.061504
C69	C	-0.285200	1.451098	-0.951782
C70	C	-0.184914	1.652808	-0.896986
C71	C	-0.151471	1.720062	-0.951865
C72	C	-0.151452	1.720087	-1.061589
C73	C	-0.184876	1.652858	-1.116434
C74	C	-0.251867	1.518211	-0.233167
C75	C	-0.251743	1.518383	-0.116391
H76	H	-0.124480	0.919425	-0.762894
H77	H	-0.800977	1.707332	-0.695426
H78	H	-0.312396	1.396392	-1.106168
H79	H	-0.953152	1.640269	-0.628200
H80	H	-0.702211	1.329300	-0.316876
H81	H	-0.701930	1.707272	-0.695413
H82	H	-0.450979	1.396266	-0.384138
H83	H	-0.550029	1.396339	-0.384130
H84	H	-0.953318	1.396568	-0.384185
H85	H	-0.185070	0.819787	-0.640765
H86	H	-0.312422	1.396322	-0.907098
H87	H	-0.185044	1.217923	-0.640765
H88	H	-0.549856	1.640015	-0.628168
H89	H	-1.052384	1.396637	-0.384199
H90	H	-0.801262	1.329370	-0.316884
H91	H	-0.124218	1.774842	-1.106269
H92	H	-0.184927	1.652797	-0.807643
H93	H	-0.124256	1.774792	-0.907203
H94	H	-0.184852	1.652871	-1.205779
H95	H	-0.312458	0.919128	-0.384036
H96	H	-1.052202	1.640304	-0.628222
H97	H	-0.124465	1.118491	-0.762878
H98	H	-0.312439	1.118198	-0.384014
H99	H	-0.450790	1.639953	-0.628144
