data_functionalizedCrystal
_audit_creation_method	'MofGen! by Chris Wilmer'
_symmetry_space_group_name_H-M	'P1'
_symmetry_Int_Tables_number	1
_symmetry_cell_setting	triclinic
loop_
_symmetry_equiv_pos_as_xyz
  x,y,z
_cell_length_a	9.065218
_cell_length_b	14.971486
_cell_length_c	13.448316
_cell_angle_alpha	90.002892
_cell_angle_beta	90.005008
_cell_angle_gamma	84.315007
loop_
_atom_site_label
_atom_site_type_symbol
_atom_site_fract_x
_atom_site_fract_y
_atom_site_fract_z
O1	O	-1.957743	-0.131151	-0.082695
O2	O	-1.528240	-0.141909	-0.082697
O3	O	-1.754504	-0.006415	-0.082689
O4	O	-1.731480	-0.266644	-0.082703
O5	O	-1.754481	-0.006417	0.082695
O6	O	-1.528218	-0.141910	0.082687
O7	O	-1.957721	-0.131152	0.082689
Cu8	Cu	-1.742967	-0.136531	0.097789
Cu9	Cu	-1.742994	-0.136530	-0.097797
O10	O	-1.731458	-0.266645	0.082681
C11	C	-1.473263	-0.140875	-0.000005
C12	C	-1.309483	-0.137784	-0.000005
C13	C	-2.012698	-0.132185	-0.000005
C14	C	-2.176478	-0.135277	-0.000011
C15	C	-1.753463	0.026916	0.000003
C16	C	-1.750377	0.126237	0.000002
C17	C	-1.732498	-0.299977	-0.000013
C18	C	-1.735584	-0.399297	-0.000019
N19	N	-1.742960	-0.136531	0.235353
C20	C	-1.883301	0.182471	0.000003
C21	C	-1.880393	0.275792	-0.000007
C22	C	-1.744560	0.312877	-0.000011
C23	C	-1.611626	0.256635	-0.000015
C24	C	-1.614535	0.163316	-0.000012
C25	C	-1.605571	0.451143	-0.000019
C26	C	-1.602660	0.544468	-0.000020
C27	C	-1.871428	0.563619	-0.000013
C28	C	-1.874338	0.470300	-0.000010
C29	C	-1.741403	0.414064	-0.000013
N30	N	-1.743013	-0.136522	-0.235361
C31	C	-1.653448	-0.081514	0.712604
C32	C	-1.653443	-0.081511	0.608500
C33	C	-1.742997	-0.136522	0.556434
C34	C	-1.832573	-0.191532	0.608477
C35	C	-1.832585	-0.191530	0.712579
C36	C	-1.832539	-0.191535	0.391497
C37	C	-1.832525	-0.191539	0.287389
C38	C	-1.653397	-0.081517	0.287419
C39	C	-1.653409	-0.081514	0.391520
C40	C	-1.742983	-0.136526	0.443556
H41	H	-1.993912	0.152285	0.000013
H42	H	-1.580514	-0.036723	0.754988
H43	H	-1.905496	-0.236318	0.566077
C44	C	-1.555876	-0.021903	0.230993
C45	C	-1.407267	-0.045347	0.256322
C46	C	-1.317379	0.009535	0.204353
H47	H	-1.582986	0.039093	0.248017
H48	H	-1.568581	-0.029783	0.161525
H49	H	-1.394570	-0.037460	0.325774
H50	H	-1.380112	-0.106334	0.239295
H51	H	-1.330084	0.001656	0.134886
H52	H	-1.344502	0.070528	0.221382
H53	H	-1.216537	-0.006369	0.221525
C54	C	-1.556034	-0.021760	0.552184
C55	C	-1.477573	0.026393	0.620063
C56	C	-1.387809	0.081439	0.568222
H57	H	-1.616255	0.018971	0.511568
H58	H	-1.488120	-0.057824	0.511600
H59	H	-1.545478	0.062454	0.660630
H60	H	-1.417324	-0.014316	0.660682
H61	H	-1.319895	0.045375	0.527637
H62	H	-1.448041	0.122165	0.527607
H63	H	-1.334552	0.114111	0.614269
H64	H	-1.905519	-0.236322	0.754945
H65	H	-1.905443	-0.236337	0.244999
H66	H	-1.905484	-0.236330	0.433861
H67	H	-1.580479	-0.036724	0.433909
C68	C	-2.024872	0.336697	0.000053
C69	C	-2.144450	0.284246	0.000092
C70	C	-2.277572	0.340320	0.000161
H71	H	-2.029554	0.373514	-0.057605
H72	H	-2.029387	0.373489	0.057748
H73	H	-2.139937	0.247470	-0.057597
H74	H	-2.139817	0.247431	0.057746
H75	H	-2.282088	0.377112	0.057856
H76	H	-2.282239	0.377135	-0.057498
H77	H	-2.358722	0.304741	0.000197
H78	H	-1.984945	0.440109	0.000000
H79	H	-1.497321	0.405358	-0.000023
C80	C	-2.015717	0.624711	-0.000226
C81	C	-2.021936	0.678818	-0.085332
C82	C	-2.154837	0.735100	-0.085566
H83	H	-2.020307	0.661605	0.057374
H84	H	-2.097069	0.589288	-0.000274
H85	H	-1.940607	0.714238	-0.085276
H86	H	-2.017371	0.641949	-0.142947
H87	H	-2.236189	0.699677	-0.085613
H88	H	-2.159415	0.771988	-0.027961
H89	H	-2.159080	0.771813	-0.143313
H90	H	-1.492053	0.574659	-0.000007
H91	H	-1.501028	0.286837	-0.000025
H92	H	-1.506295	0.117530	-0.000013
