data_functionalizedCrystal
_audit_creation_method	'MofGen! by Chris Wilmer'
_symmetry_space_group_name_H-M	'P1'
_symmetry_Int_Tables_number	1
_symmetry_cell_setting	triclinic
loop_
_symmetry_equiv_pos_as_xyz
  x,y,z
_cell_length_a	11.792254
_cell_length_b	10.868271
_cell_length_c	11.792253
_cell_angle_alpha	89.993028
_cell_angle_beta	95.801402
_cell_angle_gamma	90.004308
loop_
_atom_site_label
_atom_site_type_symbol
_atom_site_fract_x
_atom_site_fract_y
_atom_site_fract_z
O1	O	1.506908	0.102338	-0.155630
O2	O	1.176569	0.102342	-0.171648
O3	O	1.349747	0.102314	0.001530
O4	O	1.333729	0.102366	-0.328808
O5	O	1.349732	-0.102330	0.001525
O6	O	1.176553	-0.102303	-0.171653
O7	O	1.506892	-0.102307	-0.155635
Zn8	Zn	1.341720	-0.134797	-0.163645
Zn9	Zn	1.341741	0.134832	-0.163638
O10	O	1.333714	-0.102279	-0.328814
C11	C	1.134271	0.000020	-0.170642
C12	C	1.008257	0.000020	-0.167621
N13	N	1.341714	-0.318811	-0.163650
C14	C	0.905921	0.000025	-0.165168
C15	C	0.777534	0.000026	-0.162099
C16	C	1.341723	-0.430148	-0.163650
C17	C	1.341738	-0.569826	-0.163640
C18	C	1.549190	0.000018	-0.156642
C19	C	1.675204	0.000025	-0.159662
C20	C	1.348730	-0.000012	0.043818
C21	C	1.345710	-0.000024	0.169832
N22	N	1.341756	0.318846	-0.163625
C23	C	1.343256	-0.000030	0.272168
C24	C	1.340188	-0.000031	0.400555
C25	C	1.334731	0.000024	0.628898
C26	C	1.337751	-0.000032	0.502885
