data_functionalizedCrystal
_audit_creation_method	'MofGen! by Chris Wilmer'
_symmetry_space_group_name_H-M	'P1'
_symmetry_Int_Tables_number	1
_symmetry_cell_setting	triclinic
loop_
_symmetry_equiv_pos_as_xyz
  x,y,z
_cell_length_a	19.188930
_cell_length_b	19.288864
_cell_length_c	18.366186
_cell_angle_alpha	90.023340
_cell_angle_beta	89.979752
_cell_angle_gamma	96.859491
loop_
_atom_site_label
_atom_site_type_symbol
_atom_site_fract_x
_atom_site_fract_y
_atom_site_fract_z
O1	O	-0.926141	0.086713	0.060818
O2	O	-0.426141	0.586713	0.560818
O3	O	-0.722828	0.098387	0.060773
O4	O	-0.222828	0.598387	0.560773
O5	O	-0.830359	-0.008580	0.060752
O6	O	-0.330359	0.491420	0.560752
O7	O	-0.818610	0.193680	0.060839
O8	O	-0.318610	0.693680	0.560839
O9	O	-0.830345	-0.008576	-0.060347
O10	O	-0.330345	0.491424	0.439653
O11	O	-0.722815	0.098391	-0.060326
O12	O	-0.222815	0.598391	0.439674
O13	O	-0.926127	0.086717	-0.060281
O14	O	-0.426127	0.586717	0.439719
Zn15	Zn	-0.824468	0.092554	-0.079531
Zn16	Zn	-0.324468	0.592554	0.420469
Zn17	Zn	-0.824487	0.092549	0.080023
Zn18	Zn	-0.324487	0.592549	0.580023
O19	O	-0.818596	0.193684	-0.060260
O20	O	-0.318596	0.693684	0.439740
C21	C	-0.696811	0.098011	0.000217
C22	C	-0.196811	0.598011	0.500217
C23	C	-0.619306	0.096876	0.000197
C24	C	-0.119306	0.596876	0.500197
C25	C	-0.829974	-0.034454	0.000192
C26	C	-0.329974	0.465546	0.500192
C27	C	-0.828839	-0.111558	0.000162
C28	C	-0.328839	0.388442	0.500162
C29	C	-0.952145	0.087093	0.000277
C30	C	-0.452145	0.587093	0.500277
C31	C	-1.029649	0.088228	0.000301
C32	C	-0.529649	0.588228	0.500301
C33	C	-0.574377	0.159640	0.000236
C34	C	-0.074377	0.659640	0.500236
C35	C	-0.501554	0.158574	0.000243
C36	C	-0.001554	0.658574	0.500243
C37	C	-0.473662	0.094740	0.000227
C38	C	0.026338	0.594740	0.500227
C39	C	-0.518600	0.031967	0.000184
C40	C	-0.018600	0.531967	0.500184
C41	C	-0.591423	0.033035	0.000169
C42	C	-0.091423	0.533035	0.500169
N43	N	-0.365690	0.045945	0.041451
N44	N	0.134310	0.545945	0.541451
N45	N	-0.296512	0.044935	0.041466
N46	N	0.203488	0.544935	0.541466
C47	C	-0.254254	0.091519	0.000270
C48	C	0.245746	0.591519	0.500270
N49	N	-0.283786	0.139161	-0.040933
N50	N	0.216214	0.639161	0.459067
N51	N	-0.352971	0.140173	-0.040946
N52	N	0.147029	0.640173	0.459054
C53	C	-0.394700	0.093575	0.000243
C54	C	0.105300	0.593575	0.500243
C55	C	-0.130361	0.153132	0.000316
C56	C	0.369639	0.653132	0.500316
C57	C	-0.057536	0.152063	0.000319
C58	C	0.442464	0.652063	0.500319
C59	C	-0.074584	0.025454	0.000267
C60	C	0.425416	0.525454	0.500267
C61	C	-0.147407	0.026525	0.000257
C62	C	0.352593	0.526525	0.500257
C63	C	-0.175291	0.090365	0.000285
C64	C	0.324709	0.590365	0.500285
C65	C	-0.818981	0.219558	0.000301
C66	C	-0.318981	0.719558	0.500301
C67	C	-0.820116	0.296662	0.000336
C68	C	-0.320116	0.796662	0.500336
N69	N	-0.824461	0.092557	-0.188422
N70	N	-0.324461	0.592557	0.311578
C71	C	-0.757022	0.341354	0.000308
C72	C	-0.257022	0.841354	0.500308
C73	C	-0.758088	0.413801	0.000291
C74	C	-0.258088	0.913801	0.500291
C75	C	-0.822252	0.441553	0.000289
C76	C	-0.322252	0.941553	0.500289
C77	C	-0.885354	0.396852	0.000322
C78	C	-0.385354	0.896852	0.500322
C79	C	-0.884286	0.324406	0.000346
C80	C	-0.384286	0.824406	0.500346
C81	C	-0.872687	0.549808	-0.042165
C82	C	-0.372687	1.049808	0.457835
C83	C	-0.873752	0.622253	-0.042193
C84	C	-0.373752	1.122253	0.457807
C85	C	-0.825548	0.664999	0.000220
C86	C	-0.325548	1.164999	0.500220
C87	C	-0.776268	0.635293	0.042651
C88	C	-0.276268	1.135293	0.542651
C89	C	-0.775200	0.562848	0.042675
C90	C	-0.275200	1.062848	0.542675
C91	C	-0.823417	0.520107	0.000264
C92	C	-0.323417	1.020107	0.500264
C93	C	-0.763606	0.788246	0.000175
C94	C	-0.263606	1.288246	0.500175
C95	C	-0.764675	0.860695	0.000163
C96	C	-0.264675	1.360695	0.500163
C97	C	-0.891943	0.843744	0.000186
C98	C	-0.391943	1.343744	0.500186
C99	C	-0.890872	0.771297	0.000205
C100	C	-0.390872	1.271297	0.500205
C101	C	-0.826702	0.743553	0.000196
C102	C	-0.326702	1.243553	0.500196
C103	C	-0.866711	0.134558	-0.772942
C104	C	-0.366711	0.634558	-0.272942
C105	C	-0.866703	0.134565	-0.696715
C106	C	-0.366703	0.634565	-0.196715
C107	C	-0.824493	0.092542	-0.658633
C108	C	-0.324493	0.592542	-0.158633
C109	C	-0.782274	0.050522	-0.696786
C110	C	-0.282274	0.550522	-0.196786
C111	C	-0.782277	0.050522	-0.773013
C112	C	-0.282277	0.550522	-0.273013
C113	C	-0.822757	0.029917	-0.537895
C114	C	-0.322757	0.529917	-0.037895
C115	C	-0.822759	0.029916	-0.461671
C116	C	-0.322759	0.529916	0.038329
C117	C	-0.824479	0.092544	-0.423526
C118	C	-0.324479	0.592544	0.076474
C119	C	-0.826212	0.155173	-0.461615
C120	C	-0.326212	0.655173	0.038385
C121	C	-0.826216	0.155173	-0.537842
C122	C	-0.326216	0.655173	-0.037842
C123	C	-0.824485	0.092538	-0.575979
C124	C	-0.324485	0.592538	-0.075979
C125	C	-0.866685	0.134572	-0.302727
C126	C	-0.366685	0.634572	0.197273
C127	C	-0.866672	0.134580	-0.226498
C128	C	-0.366672	0.634580	0.273502
C129	C	-0.782247	0.050531	-0.226571
C130	C	-0.282247	0.550531	0.273429
C131	C	-0.782255	0.050529	-0.302799
C132	C	-0.282255	0.550529	0.197201
C133	C	-0.824478	0.092548	-0.340872
C134	C	-0.324478	0.592548	0.159128
N135	N	-0.824500	0.092541	0.188914
N136	N	-0.324500	0.592541	0.688914
H137	H	-0.597075	0.211624	0.000260
H138	H	-0.097075	0.711624	0.500260
N139	N	-0.828072	0.222728	-0.420486
N140	N	-0.328072	0.722728	0.079514
H141	H	-0.827804	0.213228	-0.366418
H142	H	-0.327804	0.713228	0.133582
H143	H	-0.785565	0.256375	-0.433817
H144	H	-0.285565	0.756375	0.066183
H145	H	-0.827625	0.206168	-0.568851
H146	H	-0.327625	0.706168	-0.068851
H147	H	-0.747886	0.016311	-0.333856
H148	H	-0.247886	0.516311	0.166144
N149	N	-0.488520	-0.036882	0.000174
N150	N	0.011480	0.463118	0.500174
H151	H	-0.528036	-0.076483	0.000148
H152	H	-0.028036	0.423517	0.500148
H153	H	-0.458650	-0.040081	-0.044712
H154	H	0.041350	0.459919	0.455288
H155	H	-0.937597	0.419452	0.000334
H156	H	-0.437597	0.919452	0.500334
H157	H	-0.901062	0.168790	-0.333728
H158	H	-0.401062	0.668790	0.166272
N159	N	-0.724278	0.681387	0.088407
N160	N	-0.224278	1.181387	0.588407
H161	H	-0.674963	0.675318	0.072565
H162	H	-0.174963	1.175318	0.572565
H163	H	-0.732497	0.731767	0.081941
H164	H	-0.232497	1.231767	0.581941
H165	H	-0.464966	0.209686	0.000273
H166	H	0.035034	0.709686	0.500273
H167	H	-0.901090	0.168775	-0.803937
H168	H	-0.401090	0.668775	-0.303937
N169	N	-0.160436	0.221987	0.000336
N170	N	0.339564	0.721987	0.500336
H171	H	-0.190250	0.225252	-0.044559
H172	H	0.309750	0.725252	0.455441
H173	H	-0.190256	0.225211	0.045254
H174	H	0.309744	0.725211	0.545254
H175	H	-0.183989	-0.024585	0.000229
H176	H	0.316011	0.475415	0.500229
N177	N	-0.912206	0.179900	-0.185358
N178	N	-0.412206	0.679900	0.314642
H179	H	-0.946467	0.149570	-0.153728
H180	H	-0.446467	0.649570	0.346272
H181	H	-0.881655	0.213973	-0.153774
H182	H	-0.381655	0.713973	0.346226
N183	N	-0.694398	0.758315	0.000168
N184	N	-0.194398	1.258315	0.500168
H185	H	-0.654588	0.797624	0.000154
H186	H	-0.154588	1.297624	0.500154
H187	H	-0.691190	0.728653	0.045069
H188	H	-0.191190	1.228653	0.545069
H189	H	-0.051876	-0.026521	0.000299
H190	H	0.448124	0.473479	0.500299
H191	H	-0.735074	0.538664	0.077225
H192	H	-0.235074	1.038664	0.577225
N193	N	-0.639885	-0.034665	0.000139
N194	N	-0.139885	0.465335	0.500139
H195	H	-0.690248	-0.024302	0.000136
H196	H	-0.190248	0.475698	0.500136
H197	H	-0.630857	-0.062494	-0.044763
H198	H	-0.130857	0.437506	0.455237
H199	H	-0.935667	0.288017	0.000370
H200	H	-0.435667	0.788017	0.500370
H201	H	-0.020955	0.203175	0.000346
H202	H	0.479045	0.703175	0.500346
N203	N	-0.687812	0.311429	0.000291
N204	N	-0.187812	0.811429	0.500291
H205	H	-0.648004	0.350739	0.000268
H206	H	-0.148004	0.850739	0.500268
H207	H	-0.684594	0.281769	0.045190
H208	H	-0.184594	0.781769	0.545190
N209	N	-0.820891	-0.037637	-0.420603
N210	N	-0.320891	0.462363	0.079397
H211	H	-0.776872	-0.058708	-0.433900
H212	H	-0.276872	0.441292	0.066100
H213	H	-0.821182	-0.028092	-0.366538
H214	H	-0.321182	0.471908	0.133462
H215	H	-0.821350	-0.021084	-0.568947
H216	H	-0.321350	0.478916	-0.068947
H217	H	-0.747874	0.016319	-0.195566
H218	H	-0.247874	0.516319	0.304434
H219	H	-0.706707	0.450196	0.000266
H220	H	-0.206707	0.950196	0.500266
N221	N	-0.736749	0.005194	-0.655718
N222	N	-0.236749	0.505194	-0.155718
H223	H	-0.743155	0.011567	-0.601641
H224	H	-0.243155	0.511567	-0.101641
H225	H	-0.750706	-0.045356	-0.669063
H226	H	-0.250706	0.454644	-0.169063
N227	N	-0.912231	0.179886	-0.655561
N228	N	-0.412231	0.679886	-0.155561
H229	H	-0.938978	0.206505	-0.691247
H230	H	-0.438978	0.706505	-0.191247
H231	H	-0.946452	0.149510	-0.623934
H232	H	-0.446452	0.649510	-0.123934
N233	N	-0.696620	0.908902	0.000139
N234	N	-0.196620	1.408902	0.500139
H235	H	-0.655809	0.880330	0.000135
H236	H	-0.155809	1.380330	0.500135
H237	H	-0.694289	0.939302	-0.044763
H238	H	-0.194289	1.439302	0.455237
H239	H	-0.944187	0.866339	0.000238
H240	H	-0.444187	1.366339	0.500238
N241	N	-0.958924	0.723089	0.000229
N242	N	-0.458924	1.223089	0.500229
H243	H	-0.999735	0.751660	0.000224
H244	H	-0.499735	1.251660	0.500224
H245	H	-0.961245	0.692633	-0.044655
H246	H	-0.461245	1.192633	0.455345
N247	N	-0.926900	0.654283	-0.087964
N248	N	-0.426900	1.154283	0.412036
H249	H	-0.975840	0.635145	-0.072106
H250	H	-0.475840	1.135145	0.427894
H251	H	-0.920201	0.706659	-0.081534
H252	H	-0.420201	1.206659	0.418466
N253	N	-0.924685	0.503705	-0.087908
N254	N	-0.424685	1.003705	0.412092
H255	H	-0.956061	0.533515	-0.114794
H256	H	-0.456061	1.033515	0.385206
H257	H	-0.898545	0.477044	-0.124141
H258	H	-0.398545	0.977044	0.375859
N259	N	-0.736755	0.005194	-0.814159
N260	N	-0.236755	0.505194	-0.314159
H261	H	-0.710014	-0.021429	-0.778471
H262	H	-0.210014	0.478571	-0.278471
H263	H	-0.767314	-0.028837	-0.845781
H264	H	-0.267314	0.471163	-0.345781
