data_functionalizedCrystal
_audit_creation_method	'MofGen! by Chris Wilmer'
_symmetry_space_group_name_H-M	'P1'
_symmetry_Int_Tables_number	1
_symmetry_cell_setting	triclinic
loop_
_symmetry_equiv_pos_as_xyz
  x,y,z
_cell_length_a	19.805405
_cell_length_b	16.959455
_cell_length_c	19.805399
_cell_angle_alpha	90.022224
_cell_angle_beta	89.970699
_cell_angle_gamma	89.975408
loop_
_atom_site_label
_atom_site_type_symbol
_atom_site_fract_x
_atom_site_fract_y
_atom_site_fract_z
Zn1	Zn	-0.269512	-1.208374	-0.382759
Zn2	Zn	-0.382700	-1.208274	-0.269568
Zn3	Zn	-0.269527	-1.076195	-0.269579
Zn4	Zn	-0.382660	-1.076152	-0.382709
O5	O	-0.326100	-1.142249	-0.326154
O6	O	-0.284537	-1.318971	-0.367761
O7	O	-0.367710	-1.190730	-0.174853
O8	O	-0.174808	-1.093788	-0.284618
O9	O	-0.367696	-1.318898	-0.284599
O10	O	-0.174797	-1.190899	-0.367771
O11	O	-0.284562	-1.093692	-0.174861
O12	O	-0.284524	-0.965578	-0.284569
O13	O	-0.367628	-1.093716	-0.477433
O14	O	-0.367643	-0.965547	-0.367686
O15	O	-0.284498	-1.190858	-0.477469
O16	O	-0.477411	-1.190689	-0.284551
O17	O	-0.477382	-1.093619	-0.367675
C18	C	-0.326081	-0.936883	-0.326124
C19	C	-0.326090	-0.849026	-0.326127
C20	C	-0.501956	-1.142160	-0.326121
C21	C	-0.577188	-1.142194	-0.326130
C22	C	-0.282751	-0.807745	-0.282920
C23	C	-0.369432	-0.807754	-0.369341
C24	C	-0.369439	-0.725208	-0.369348
C25	C	-0.326101	-0.683927	-0.326141
C26	C	-0.282755	-0.725191	-0.282927
C27	C	-0.412779	-0.683937	-0.412566
C28	C	-0.412787	-0.601386	-0.412576
C29	C	-0.369451	-0.560103	-0.369365
C30	C	-0.326105	-0.601373	-0.326148
C31	C	-0.282766	-0.560092	-0.282941
C32	C	-0.239423	-0.601360	-0.239721
C33	C	-0.239420	-0.683909	-0.239716
C34	C	-0.369454	-0.477555	-0.369370
C35	C	-0.282770	-0.477538	-0.282949
C36	C	-0.612525	-1.192787	-0.282892
C37	C	-0.683213	-1.192821	-0.282907
C38	C	-0.718563	-1.142257	-0.326157
C39	C	-0.683222	-1.091661	-0.369399
C40	C	-0.612534	-1.091632	-0.369387
C41	C	-0.968295	-1.091778	-0.369449
C42	C	-1.038987	-1.091809	-0.369457
C43	C	-1.038973	-1.192966	-0.282969
C44	C	-0.968286	-1.192937	-0.282957
C45	C	-0.932951	-1.142345	-0.326202
C46	C	-0.856302	-1.142311	-0.326186
C47	C	-0.795210	-1.142287	-0.326170
C48	C	-0.149557	-1.142360	-0.326201
C49	C	-0.074325	-1.142407	-0.326222
C50	C	-0.326057	-1.142293	-0.502697
C51	C	-0.326039	-1.142312	-0.577929
C52	C	-0.326116	-0.348417	-0.326176
C53	C	-0.326116	-0.436274	-0.326163
C54	C	-0.282751	-1.192895	-0.613293
C55	C	-0.282731	-1.192903	-0.683982
C56	C	-0.326004	-1.142332	-0.719304
C57	C	-0.369293	-1.091743	-0.683935
C58	C	-0.369309	-1.091731	-0.613248
C59	C	-0.369230	-1.091787	-0.969008
C60	C	-0.369213	-1.091805	-1.039701
C61	C	-0.282653	-1.192960	-1.039742
C62	C	-0.282668	-1.192948	-0.969055
C63	C	-0.325955	-1.142357	-0.933692
C64	C	-0.325975	-1.142347	-0.857043
C65	C	-0.325988	-1.142344	-0.795951
C66	C	-0.326093	-1.142250	-0.150298
C67	C	-0.325921	-1.142384	-0.075066
H68	H	-0.247479	-0.443933	-0.247763
Cl69	Cl	-0.467269	-0.735836	-0.466867
H70	H	-0.712009	-1.050495	-0.404617
Cl71	Cl	-0.923850	-1.256507	-0.228584
H72	H	-0.404487	-1.050604	-0.940224
Cl73	Cl	-0.228352	-1.256479	-0.568894
H74	H	-0.404739	-0.443958	-0.404563
Cl75	Cl	-0.228269	-1.256529	-0.924653
Cl76	Cl	-0.423616	-1.028223	-1.084105
H77	H	-0.404552	-1.050533	-0.584455
H78	H	-1.067752	-1.234164	-0.247760
H79	H	-0.939530	-1.050583	-0.404659
Cl80	Cl	-0.568091	-1.256353	-0.228513
Cl81	Cl	-0.228267	-0.859622	-0.228587
H82	H	-0.448080	-0.567792	-0.447767
H83	H	-1.067767	-1.050635	-0.404681
H84	H	-0.404524	-1.050564	-0.712700
H85	H	-0.204133	-0.567738	-0.204545
H86	H	-0.404713	-0.841370	-0.404521
Cl87	Cl	-0.568111	-1.028029	-0.423748
H88	H	-0.247404	-1.234151	-1.068543
Cl89	Cl	-0.184932	-0.735793	-0.185392
H90	H	-0.247484	-1.234095	-0.712772
Cl91	Cl	-0.727634	-1.256429	-0.228551
