data_functionalizedCrystal
_audit_creation_method	'MofGen! by Chris Wilmer'
_symmetry_space_group_name_H-M	'P1'
_symmetry_Int_Tables_number	1
_symmetry_cell_setting	triclinic
loop_
_symmetry_equiv_pos_as_xyz
  x,y,z
_cell_length_a	15.995292
_cell_length_b	15.995350
_cell_length_c	18.366186
_cell_angle_alpha	89.995992
_cell_angle_beta	89.989780
_cell_angle_gamma	83.480495
loop_
_atom_site_label
_atom_site_type_symbol
_atom_site_fract_x
_atom_site_fract_y
_atom_site_fract_z
O1	O	1.111021	0.107696	-0.060566
O2	O	1.611021	0.607696	0.439434
O3	O	0.867239	0.121074	-0.060562
O4	O	1.367239	0.621074	0.439438
O5	O	0.995794	-0.007504	-0.060563
O6	O	1.495794	0.492496	0.439437
O7	O	0.982466	0.236274	-0.060565
O8	O	1.482466	0.736274	0.439435
O9	O	0.995772	-0.007510	0.060536
O10	O	1.495772	0.492490	0.560536
O11	O	0.867217	0.121068	0.060537
O12	O	1.367217	0.621068	0.560537
O13	O	1.110999	0.107690	0.060534
O14	O	1.610999	0.607690	0.560534
Zn15	Zn	0.989105	0.114378	0.079762
Zn16	Zn	1.489105	0.614378	0.579762
Zn17	Zn	0.989134	0.114386	-0.079791
Zn18	Zn	1.489134	0.614386	0.420209
O19	O	0.982445	0.236268	0.060535
O20	O	1.482445	0.736268	0.560535
C21	C	0.836033	0.120527	-0.000012
C22	C	1.336033	0.620527	0.499988
C23	C	0.743080	0.118894	-0.000011
C24	C	1.243080	0.618894	0.499989
C25	C	0.405341	0.112893	-0.000019
C26	C	0.905341	0.612893	0.499981
C27	C	0.428654	0.205697	-0.000290
C28	C	0.928654	0.705697	0.499710
C29	C	0.525329	0.207461	-0.000014
C30	C	1.025329	0.707461	0.499986
C31	C	0.572897	0.115871	-0.000016
C32	C	1.072897	0.615871	0.499984
C33	C	0.543783	0.069469	0.069136
C34	C	1.043783	0.569469	0.569136
C35	C	0.446992	0.068352	0.069191
C36	C	0.946992	0.568352	0.569191
C37	C	0.447162	0.066464	-0.068522
C38	C	0.947162	0.566464	0.431478
C39	C	0.543655	0.069904	-0.069433
C40	C	1.043655	0.569904	0.430567
C41	C	0.667593	0.117549	-0.000011
C42	C	1.167593	0.617549	0.499989
C43	C	0.310646	0.111212	-0.000019
C44	C	0.810646	0.611212	0.499981
C45	C	0.995232	-0.038702	-0.000015
C46	C	1.495232	0.461298	0.499985
C47	C	0.993580	-0.131652	-0.000019
C48	C	1.493580	0.368348	0.499981
C49	C	0.987648	-0.469398	-0.000017
C50	C	1.487648	0.030602	0.499983
C51	C	0.896094	-0.421945	-0.000287
C52	C	1.396094	0.078055	0.499713
C53	C	0.897746	-0.325255	-0.000014
C54	C	1.397746	0.174745	0.499986
C55	C	0.990591	-0.301838	-0.000018
C56	C	1.490591	0.198162	0.499982
C57	C	1.035736	-0.342929	0.069133
C58	C	1.535736	0.157071	0.569133
C59	C	1.033436	-0.439564	0.069191
C60	C	1.533436	0.060436	0.569191
C61	C	1.035352	-0.439915	-0.068521
C62	C	1.535352	0.060085	0.431479
C63	C	1.035331	-0.342970	-0.069435
C64	C	1.535331	0.157030	0.430565
C65	C	0.992259	-0.207141	-0.000017
C66	C	1.492259	0.292859	0.499983
C67	C	0.985983	-0.564095	-0.000013
C68	C	1.485983	-0.064095	0.499987
C69	C	1.142206	0.108237	-0.000018
C70	C	1.642206	0.608237	0.499982
C71	C	1.235159	0.109870	-0.000024
C72	C	1.735159	0.609870	0.499976
C73	C	0.983006	0.267466	-0.000015
C74	C	1.483006	0.767466	0.499985
C75	C	0.984658	0.360416	-0.000016
C76	C	1.484658	0.860416	0.499984
N77	N	0.989091	0.114372	0.188654
N78	N	1.489091	0.614372	0.688654
N79	N	0.989154	0.114386	-0.188682
N80	N	1.489154	0.614386	0.311318
C81	C	1.046034	0.057465	0.226754
C82	C	1.546034	0.557465	0.726754
C83	C	1.046040	0.057461	0.302981
C84	C	1.546040	0.557461	0.802981
C85	C	0.989110	0.114378	0.341106
C86	C	1.489110	0.614378	0.841106
C87	C	0.932157	0.171289	0.302997
C88	C	1.432157	0.671289	0.802997
C89	C	0.932147	0.171286	0.226771
C90	C	1.432147	0.671286	0.726771
C91	C	0.978140	0.190637	0.461866
C92	C	1.478140	0.690637	0.961866
C93	C	0.978155	0.190642	0.538091
C94	C	1.478155	0.690642	1.038091
C95	C	0.989134	0.114389	0.576214
C96	C	1.489134	0.614389	1.076214
C97	C	1.000115	0.038128	0.538102
C98	C	1.500115	0.538128	1.038102
C99	C	1.000106	0.038125	0.461876
C100	C	1.500106	0.538125	0.961876
C101	C	0.989113	0.114388	0.423761
C102	C	1.489113	0.614388	0.923761
C103	C	1.046086	0.057474	0.696969
C104	C	1.546086	0.557474	1.196969
C105	C	1.046085	0.057469	0.773198
C106	C	1.546085	0.557469	1.273198
C107	C	0.932206	0.171304	0.773212
C108	C	1.432206	0.671304	1.273212
C109	C	0.932203	0.171302	0.696985
C110	C	1.432203	0.671302	1.196985
C111	C	0.989147	0.114387	0.658867
C112	C	1.489147	0.614387	1.158867
H113	H	0.400667	0.241471	-0.049882
H114	H	0.900667	0.741471	0.450118
H115	H	1.005428	-0.460446	-0.120934
H116	H	1.505428	0.039554	0.379066
H117	H	1.092452	0.011124	0.804219
H118	H	1.592452	0.511124	1.304219
H119	H	0.576625	0.003052	-0.073611
H120	H	1.076625	0.503052	0.426389
H121	H	0.859509	-0.440466	-0.049877
H122	H	1.359509	0.059534	0.450123
C123	C	0.428256	-0.025818	-0.069157
C124	C	0.928256	0.474182	0.430843
N125	N	0.414009	-0.095323	-0.069630
N126	N	0.914009	0.404677	0.430370
H127	H	1.103946	-0.328817	0.071702
H128	H	1.603946	0.171183	0.571702
C129	C	1.012175	-0.045760	0.419956
C130	C	1.512175	0.454240	0.919956
N131	N	1.021260	-0.108944	0.388381
N132	N	1.521260	0.391056	0.888381
C133	C	0.570859	0.112999	0.138662
C134	C	1.070859	0.612999	0.638662
N135	N	0.591248	0.145792	0.191028
N136	N	1.091248	0.645792	0.691028
C137	C	0.849459	-0.287601	0.067071
C138	C	1.349459	0.212399	0.567071
N139	N	0.813089	-0.259241	0.117604
N140	N	1.313089	0.240759	0.617604
C141	C	0.389445	0.253752	0.066332
C142	C	0.889445	0.753752	0.566332
N143	N	0.359912	0.289944	0.116513
N144	N	0.859912	0.789944	0.616513
C145	C	1.012191	-0.045757	0.580031
C146	C	1.512191	0.454243	1.080031
N147	N	1.021287	-0.108937	0.611615
N148	N	1.521287	0.391063	1.111615
H149	H	1.002324	-0.315712	-0.120592
H150	H	1.502324	0.184288	0.379408
C151	C	0.849796	-0.286842	-0.066979
C152	C	1.349796	0.213158	0.433021
N153	N	0.813674	-0.257912	-0.117416
N154	N	1.313674	0.242088	0.382584
H155	H	1.000498	-0.457861	0.120886
H156	H	1.500498	0.042139	0.620886
C157	C	0.993348	-0.304589	0.138659
C158	C	1.493348	0.195411	0.638659
N159	N	0.961415	-0.275713	0.191025
N160	N	1.461415	0.224287	0.691025
C161	C	1.108717	-0.005140	0.655037
C162	C	1.608717	0.494860	1.155037
N163	N	1.155890	-0.052303	0.623456
N164	N	1.655890	0.447697	1.123456
C165	C	0.846873	-0.448382	0.066350
C166	C	1.346873	0.051618	0.566350
N167	N	0.809806	-0.468288	0.116548
N168	N	1.309806	0.031712	0.616548
C169	C	0.869583	0.233915	0.815145
C170	C	1.369583	0.733915	1.315145
N171	N	0.822413	0.281074	0.846733
N172	N	1.322413	0.781074	1.346733
C173	C	0.410747	0.111775	0.139018
C174	C	0.910747	0.611775	0.639018
N175	N	0.383450	0.144489	0.191611
N176	N	0.883450	0.644489	0.691611
H177	H	0.885838	0.217644	0.665962
H178	H	1.385838	0.717644	1.165962
H179	H	1.103038	-0.327622	-0.073614
H180	H	1.603038	0.172378	0.426386
C181	C	0.409009	0.105750	-0.139332
C182	C	0.909009	0.605750	0.360668
N183	N	0.380274	0.135352	-0.192663
N184	N	0.880274	0.635352	0.307337
H185	H	1.100653	-0.471826	0.072326
H186	H	1.600653	0.028174	0.572326
C187	C	1.126543	-0.482846	-0.069157
C188	C	1.626543	0.017154	0.430843
N189	N	1.195225	-0.515188	-0.069631
N190	N	1.695225	-0.015188	0.430369
C191	C	1.108667	-0.005151	0.184829
C192	C	1.608667	0.494849	0.684829
N193	N	1.155839	-0.052316	0.153250
N194	N	1.655839	0.447684	0.653250
C195	C	1.108692	-0.005134	0.344900
C196	C	1.608692	0.494866	0.844900
N197	N	1.155885	-0.052278	0.376470
N198	N	1.655885	0.447722	0.876470
C199	C	0.966067	0.274530	0.580007
C200	C	1.466067	0.774530	1.080007
N201	N	0.956957	0.337716	0.611576
N202	N	1.456957	0.837716	1.111576
H203	H	0.969185	0.252736	0.430833
H204	H	1.469185	0.752736	0.930833
C205	C	0.550185	0.256831	0.067075
C206	C	1.050185	0.756831	0.567075
N207	N	0.568905	0.294014	0.117611
N208	N	1.068905	0.794014	0.617611
H209	H	0.885802	0.217631	0.334042
H210	H	1.385802	0.717631	0.834042
C211	C	0.869539	0.233926	0.184860
C212	C	1.369539	0.733926	0.684860
N213	N	0.822396	0.281122	0.153291
N214	N	1.322396	0.781122	0.653291
H215	H	0.544365	0.243796	-0.049586
H216	H	1.044365	0.743796	0.450414
H217	H	0.432442	0.000308	0.072331
H218	H	0.932442	0.500308	0.572331
C219	C	0.586863	-0.021572	0.072628
C220	C	1.086863	0.478428	0.572628
N221	N	0.619322	-0.090140	0.075262
N222	N	1.119322	0.409860	0.575262
H223	H	0.562233	0.103689	-0.120591
H224	H	1.062233	0.603689	0.379409
