data_functionalizedCrystal
_audit_creation_method	'MofGen! by Chris Wilmer'
_symmetry_space_group_name_H-M	'P1'
_symmetry_Int_Tables_number	1
_symmetry_cell_setting	triclinic
loop_
_symmetry_equiv_pos_as_xyz
  x,y,z
_cell_length_a	14.971482
_cell_length_b	17.038272
_cell_length_c	14.048226
_cell_angle_alpha	89.993466
_cell_angle_beta	89.994098
_cell_angle_gamma	87.362082
loop_
_atom_site_label
_atom_site_type_symbol
_atom_site_fract_x
_atom_site_fract_y
_atom_site_fract_z
O1	O	1.194577	0.101883	-0.079149
O2	O	0.935090	0.114089	-0.079154
O3	O	1.063292	-0.005831	-0.079144
O4	O	1.066376	0.221803	-0.079159
O5	O	1.063275	-0.005838	0.079177
O6	O	0.935073	0.114082	0.079167
O7	O	1.194560	0.101876	0.079172
Zn8	Zn	1.064814	0.107978	0.104307
Zn9	Zn	1.064837	0.107987	-0.104289
O10	O	1.066359	0.221796	0.079162
C11	C	0.901716	0.113540	0.000006
C12	C	0.802297	0.111906	0.000004
C13	C	0.755585	0.111132	0.086307
C14	C	0.662171	0.109584	0.086308
C15	C	0.615469	0.108816	0.000006
C16	C	0.662188	0.109587	-0.086303
C17	C	0.755601	0.111129	-0.086303
C18	C	0.467485	0.106374	-0.086297
C19	C	0.374065	0.104833	-0.086297
C20	C	0.374055	0.104829	0.086314
C21	C	0.467468	0.106371	0.086314
C22	C	0.514180	0.107144	0.000005
C23	C	1.060478	-0.034966	0.000016
C24	C	1.052108	-0.121769	0.000016
C25	C	1.128952	-0.171794	0.000018
C26	C	1.121082	-0.253354	0.000009
C27	C	1.036368	-0.284886	0.000004
C28	C	0.959518	-0.234854	-0.000001
C29	C	0.967389	-0.153296	0.000002
C30	C	1.008563	-0.530676	-0.000009
C31	C	1.000699	-0.612241	-0.000009
C32	C	1.162263	-0.630735	-0.000000
C33	C	1.170126	-0.549174	0.000008
C34	C	1.093277	-0.499149	-0.000003
C35	C	1.028322	-0.368253	-0.000002
C36	C	1.101324	-0.415784	-0.000003
C37	C	1.227934	0.102425	0.000010
C38	C	1.327354	0.104059	0.000005
C39	C	1.069173	0.250931	-0.000000
C40	C	1.077543	0.337734	-0.000006
N41	N	1.064805	0.107971	0.246667
N42	N	1.064852	0.107988	-0.246649
C43	C	1.121593	0.054893	0.296490
C44	C	1.121599	0.054892	0.396147
C45	C	1.064821	0.107975	0.445981
C46	C	1.008027	0.161056	0.396151
C47	C	1.008017	0.161052	0.296496
C48	C	1.008053	0.161061	0.603866
C49	C	1.008064	0.161067	0.703528
C50	C	1.121636	0.054902	0.703517
C51	C	1.121626	0.054898	0.603862
C52	C	1.064832	0.107980	0.554039
H53	H	0.793602	0.111765	0.156584
H54	H	0.890542	-0.260534	-0.000011
H55	H	1.167833	0.011670	0.255922
Br56	Br	0.598779	0.108547	0.203437
H57	H	0.624156	0.108955	-0.156571
H58	H	0.904814	-0.112565	-0.000001
H59	H	0.793632	0.111760	-0.156579
H60	H	0.961792	0.204274	0.436731
Br61	Br	1.243927	-0.129009	0.000039
H62	H	0.505490	0.107002	0.156589
Br63	Br	0.310662	0.103784	0.203448
Br64	Br	0.310685	0.103790	-0.203422
Br65	Br	0.530879	0.107418	-0.203431
Br66	Br	1.198690	-0.017135	0.536227
H67	H	1.239110	-0.523507	0.000012
H68	H	1.183657	-0.294082	0.000013
Br69	Br	1.266553	-0.698629	0.000014
Br70	Br	1.198715	-0.017134	0.771136
Br71	Br	1.198667	-0.017147	0.463767
Br72	Br	0.885722	-0.655034	-0.000005
Br73	Br	0.904266	-0.462795	-0.000029
H74	H	0.961828	0.204291	0.744098
Br75	Br	1.216289	-0.372989	-0.000005
Br76	Br	0.930937	0.233085	0.228879
H77	H	0.961802	0.204284	0.563303
H78	H	0.959347	-0.393936	-0.000004
