data_functionalizedCrystal
_audit_creation_method	'MofGen! by Chris Wilmer'
_symmetry_space_group_name_H-M	'P1'
_symmetry_Int_Tables_number	1
_symmetry_cell_setting	triclinic
loop_
_symmetry_equiv_pos_as_xyz
  x,y,z
_cell_length_a	19.188925
_cell_length_b	19.188930
_cell_length_c	9.565339
_cell_angle_alpha	89.995116
_cell_angle_beta	89.995513
_cell_angle_gamma	83.143665
loop_
_atom_site_label
_atom_site_type_symbol
_atom_site_fract_x
_atom_site_fract_y
_atom_site_fract_z
O1	O	0.926147	0.087144	-0.116306
O2	O	1.259480	0.420478	0.217028
O3	O	1.592813	0.753811	0.550361
O4	O	0.722835	0.098883	-0.116304
O5	O	1.056168	0.432216	0.217029
O6	O	1.389502	0.765549	0.550363
O7	O	0.830358	-0.008642	-0.116278
O8	O	1.163691	0.324691	0.217056
O9	O	1.497025	0.658024	0.550389
O10	O	0.818624	0.194669	-0.116332
O11	O	1.151957	0.528003	0.217001
O12	O	1.485290	0.861336	0.550335
O13	O	0.830350	-0.008635	0.116243
O14	O	1.163683	0.324698	0.449576
O15	O	1.497016	0.658031	0.782909
O16	O	0.722827	0.098889	0.116216
O17	O	1.056160	0.432223	0.449549
O18	O	1.389493	0.765556	0.782883
O19	O	0.926138	0.087151	0.116214
O20	O	1.259472	0.420484	0.449548
O21	O	1.592805	0.753818	0.782881
Zn22	Zn	0.824481	0.093021	0.153133
Zn23	Zn	1.157814	0.426355	0.486466
Zn24	Zn	1.491148	0.759688	0.819800
Zn25	Zn	0.824492	0.093012	-0.153222
Zn26	Zn	1.157826	0.426346	0.180111
Zn27	Zn	1.491159	0.759679	0.513444
O28	O	0.818615	0.194676	0.116188
O29	O	1.151949	0.528009	0.449521
O30	O	1.485282	0.861343	0.782855
C31	C	0.696820	0.098507	-0.000043
C32	C	1.030153	0.431840	0.333290
C33	C	1.363486	0.765173	0.666623
C34	C	0.619315	0.097367	-0.000041
C35	C	0.952648	0.430701	0.333292
C36	C	1.285982	0.764034	0.666625
C37	C	0.057545	0.152831	-0.000060
C38	C	0.390878	0.486165	0.333274
C39	C	0.724211	0.819498	0.666607
C40	C	0.130368	0.153908	-0.000067
C41	C	0.463701	0.487241	0.333266
C42	C	0.797035	0.820575	0.666599
C43	C	0.175302	0.090816	-0.000048
C44	C	0.508636	0.424149	0.333285
C45	C	0.841969	0.757482	0.666619
C46	C	0.147408	0.026642	-0.000057
C47	C	0.480742	0.359976	0.333277
C48	C	0.814075	0.693309	0.666610
C49	C	0.074586	0.025568	-0.000063
C50	C	0.407920	0.358901	0.333271
C51	C	0.741253	0.692234	0.666604
N52	N	0.295977	0.045142	0.079116
N53	N	0.629310	0.378475	0.412449
N54	N	0.962643	0.711809	0.745782
N55	N	0.365154	0.046167	0.079125
N56	N	0.698487	0.379500	0.412458
N57	N	1.031821	0.712834	0.745791
C58	C	0.394712	0.094050	-0.000032
C59	C	0.728045	0.427383	0.333301
C60	C	1.061378	0.760716	0.666634
N61	N	0.352477	0.140879	-0.079181
N62	N	0.685810	0.474213	0.254152
N63	N	1.019144	0.807546	0.587486
N64	N	0.283293	0.139856	-0.079184
N65	N	0.616627	0.473189	0.254150
N66	N	0.949960	0.806523	0.587483
C67	C	0.254267	0.091974	-0.000042
C68	C	0.587600	0.425307	0.333291
C69	C	0.920933	0.758641	0.666624
C70	C	0.501561	0.159386	-0.000042
C71	C	0.834894	0.492720	0.333291
C72	C	1.168227	0.826053	0.666625
C73	C	0.574385	0.160460	-0.000059
C74	C	0.907719	0.493794	0.333275
C75	C	1.241052	0.827127	0.666608
C76	C	0.591425	0.033193	-0.000034
C77	C	0.924758	0.366526	0.333300
C78	C	1.258091	0.699859	0.666633
C79	C	0.518601	0.032121	-0.000031
C80	C	0.851934	0.365454	0.333302
C81	C	1.185268	0.698787	0.666635
C82	C	0.473673	0.095220	-0.000029
C83	C	0.807006	0.428553	0.333305
C84	C	1.140340	0.761886	0.666638
C85	C	0.829974	-0.034650	-0.000013
C86	C	1.163307	0.298683	0.333320
C87	C	1.496640	0.632017	0.666653
C88	C	0.828833	-0.112154	-0.000001
C89	C	1.162166	0.221179	0.333332
C90	C	1.495500	0.554512	0.666665
C91	C	0.891924	-0.157079	0.000005
C92	C	1.225257	0.176254	0.333338
C93	C	1.558591	0.509587	0.666671
C94	C	0.890852	-0.229903	-0.000018
C95	C	1.224186	0.103430	0.333316
C96	C	1.557519	0.436763	0.666649
C97	C	0.826686	-0.257799	-0.000018
C98	C	1.160020	0.075535	0.333315
C99	C	1.493353	0.408868	0.666648
C100	C	0.763587	-0.212864	-0.000032
C101	C	1.096920	0.120470	0.333301
C102	C	1.430254	0.453803	0.666634
C103	C	0.764660	-0.140041	-0.000024
C104	C	1.097994	0.193292	0.333309
C105	C	1.431327	0.526625	0.666643
N106	N	0.777636	-0.365800	0.079113
N107	N	1.110969	-0.032467	0.412447
N108	N	1.444302	0.300866	0.745780
N109	N	0.776620	-0.434979	0.079108
N110	N	1.109954	-0.101646	0.412442
N111	N	1.443287	0.231688	0.745775
C112	C	0.823448	-0.477207	-0.000046
C113	C	1.156781	-0.143874	0.333287
C114	C	1.490115	0.189459	0.666620
N115	N	0.871340	-0.447645	-0.079178
N116	N	1.204673	-0.114312	0.254155
N117	N	1.538007	0.219022	0.587488
N118	N	0.872358	-0.378460	-0.079167
N119	N	1.205691	-0.045127	0.254166
N120	N	1.539024	0.288206	0.587499
C121	C	0.825515	-0.336761	-0.000028
C122	C	1.158848	-0.003428	0.333305
C123	C	1.492182	0.329906	0.666639
C124	C	0.885381	-0.601097	-0.000067
C125	C	1.218715	-0.267763	0.333267
C126	C	1.552048	0.065570	0.666600
C127	C	0.884307	-0.673922	-0.000098
C128	C	1.217640	-0.340588	0.333236
C129	C	1.550974	-0.007255	0.666569
C130	C	0.757040	-0.656880	-0.000098
C131	C	1.090373	-0.323547	0.333235
C132	C	1.423706	0.009786	0.666569
C133	C	0.758116	-0.584057	-0.000081
C134	C	1.091449	-0.250724	0.333252
C135	C	1.424782	0.082610	0.666586
C136	C	0.822289	-0.556170	-0.000059
C137	C	1.155622	-0.222837	0.333275
C138	C	1.488955	0.110497	0.666608
C139	C	0.952154	0.087527	-0.000049
C140	C	1.285487	0.420861	0.333284
C141	C	1.618820	0.754194	0.666617
C142	C	1.029658	0.088666	-0.000060
C143	C	1.362992	0.422000	0.333273
C144	C	1.696325	0.755333	0.666606
C145	C	0.819000	0.220684	-0.000079
C146	C	1.152333	0.554017	0.333254
C147	C	1.485666	0.887350	0.666588
C148	C	0.820140	0.298188	-0.000100
C149	C	1.153474	0.631522	0.333233
C150	C	1.486807	0.964855	0.666566
N151	N	0.824479	0.093027	0.362212
N152	N	1.157812	0.426360	0.695546
N153	N	1.491145	0.759694	1.028879
N154	N	0.824500	0.093001	-0.362302
N155	N	1.157834	0.426335	-0.028968
N156	N	1.491167	0.759668	0.304365
C157	C	0.774738	0.142737	0.453403
C158	C	1.108071	0.476071	0.786736
C159	C	1.441404	0.809404	1.120070
C160	C	0.837790	0.156091	0.546577
C161	C	1.171123	0.489425	0.879910
C162	C	1.504457	0.822758	1.213244
C163	C	0.761454	0.079678	0.546594
C164	C	1.094787	0.413011	0.879927
C165	C	1.428120	0.746345	1.213260
C166	C	0.887562	0.106412	0.453334
C167	C	1.220896	0.439746	0.786668
C168	C	1.554229	0.773079	1.120001
C169	C	0.811185	0.029972	0.453343
C170	C	1.144518	0.363305	0.786676
C171	C	1.477851	0.696639	1.120009
C172	C	0.874282	0.043299	0.546475
C173	C	1.207616	0.376632	0.879808
C174	C	1.540949	0.709966	1.213141
H175	H	0.628010	-0.018178	-0.000029
H176	H	0.961343	0.315155	0.333305
H177	H	1.294676	0.648489	0.666638
F178	F	0.695297	-0.242553	-0.000042
F179	F	1.028630	0.090781	0.333292
F180	F	1.361963	0.424114	0.666625
H181	H	0.464978	0.210765	-0.000043
H182	H	0.798311	0.544098	0.333291
H183	H	1.131645	0.877432	0.666624
F184	F	0.796443	-0.039690	0.399769
F185	F	1.129777	0.293643	0.733102
F186	F	1.463110	0.626976	1.066435
H187	H	0.495896	-0.020129	-0.000024
H188	H	0.829230	0.313204	0.333310
H189	H	1.162563	0.646537	0.666643
F190	F	0.852507	0.225774	0.600107
F191	F	1.185841	0.559108	0.933440
F192	F	1.519174	0.892441	1.266774
F193	F	0.691777	0.064934	0.600141
F194	F	1.025111	0.398267	0.933474
F195	F	1.358444	0.731600	1.266807
H196	H	0.937635	-0.578390	-0.000055
H197	H	1.270968	-0.245057	0.333279
H198	H	1.604301	0.088277	0.666612
H199	H	0.020968	0.204211	-0.000064
H200	H	0.354302	0.537545	0.333269
H201	H	0.687635	0.870878	0.666602
F202	F	0.957256	0.121237	0.400022
F203	F	1.290589	0.454570	0.733355
F204	F	1.623923	0.787903	1.066688
H205	H	0.153078	0.206160	-0.000054
H206	H	0.486411	0.539494	0.333280
H207	H	0.819744	0.872827	0.666613
F208	F	0.195232	-0.040505	-0.000041
F209	F	0.528565	0.292829	0.333292
F210	F	0.861898	0.626162	0.666626
H211	H	0.051883	-0.026685	-0.000064
H212	H	0.385216	0.306649	0.333270
H213	H	0.718549	0.639982	0.666603
F214	F	0.960223	-0.127404	-0.000002
F215	F	1.293556	0.205929	0.333332
F216	F	1.626889	0.539262	0.666665
H217	H	0.916402	0.001247	0.587084
H218	H	1.249735	0.334580	0.920417
H219	H	1.583068	0.667914	1.253750
F220	F	0.958005	-0.277725	-0.000013
F221	F	1.291339	0.055609	0.333320
F222	F	1.624672	0.388942	0.666653
F223	F	0.697507	-0.092227	-0.000031
F224	F	1.030840	0.241107	0.333302
F225	F	1.364174	0.574440	0.666636
H226	H	0.935686	-0.710500	-0.000100
H227	H	1.269019	-0.377166	0.333233
H228	H	1.602352	-0.043833	0.666566
F229	F	0.688749	-0.686564	-0.000106
F230	F	1.022082	-0.353230	0.333228
F231	F	1.355415	-0.019897	0.666561
H232	H	0.597088	0.212713	-0.000070
H233	H	0.930421	0.546046	0.333264
H234	H	1.263755	0.879380	0.666597
H235	H	0.706740	-0.547478	-0.000078
H236	H	1.040073	-0.214144	0.333255
H237	H	1.373407	0.119189	0.666589
F238	F	0.719807	0.197732	0.399982
F239	F	1.053140	0.531066	0.733316
F240	F	1.386474	0.864399	1.066649
