data_functionalizedCrystal
_audit_creation_method	'MofGen! by Chris Wilmer'
_symmetry_space_group_name_H-M	'P1'
_symmetry_Int_Tables_number	1
_symmetry_cell_setting	triclinic
loop_
_symmetry_equiv_pos_as_xyz
  x,y,z
_cell_length_a	13.262533
_cell_length_b	13.339070
_cell_length_c	14.586319
_cell_angle_alpha	89.998714
_cell_angle_beta	105.913300
_cell_angle_gamma	99.431353
loop_
_atom_site_label
_atom_site_type_symbol
_atom_site_fract_x
_atom_site_fract_y
_atom_site_fract_z
O1	O	1.432359	0.136446	0.280925
O2	O	1.131104	0.151275	0.205805
O3	O	1.247157	-0.003549	0.234746
O4	O	1.316306	0.291270	0.251984
O5	O	1.247145	-0.003552	0.387224
O6	O	1.131092	0.151273	0.358283
O7	O	1.432347	0.136443	0.433403
Cu8	Cu	1.281719	0.143858	0.409765
Cu9	Cu	1.281733	0.143861	0.229442
O10	O	1.316294	0.291268	0.404461
C11	C	1.091753	0.150442	0.272233
C12	C	0.974514	0.147951	0.242998
C13	C	0.644006	0.140938	0.493056
C14	C	0.754158	0.143284	0.520528
C15	C	0.809253	0.144450	0.451148
C16	C	0.754183	0.143272	0.354291
C17	C	0.644021	0.140934	0.326817
C18	C	0.809268	0.144446	0.284909
C19	C	0.754199	0.143268	0.188052
C20	C	0.644047	0.140930	0.160582
C21	C	0.588953	0.139764	0.229962
C22	C	0.919430	0.146784	0.312383
C23	C	0.919446	0.146780	0.146144
C24	C	0.809293	0.144435	0.118672
C25	C	1.235471	-0.041289	0.308071
C26	C	1.200654	-0.153738	0.299386
C27	C	1.471372	-0.517387	0.366892
C28	C	1.504088	-0.411736	0.375058
C29	C	1.428232	-0.347232	0.356141
C30	C	1.319655	-0.388388	0.329056
C31	C	1.286936	-0.494049	0.320895
C32	C	1.243796	-0.323894	0.310144
C33	C	1.135219	-0.365050	0.283059
C34	C	1.102506	-0.470701	0.274900
C35	C	1.178362	-0.535206	0.293818
C36	C	1.276515	-0.218232	0.318304
C37	C	1.092079	-0.194895	0.272308
C38	C	1.059364	-0.300545	0.264141
C39	C	1.471698	0.137276	0.366973
C40	C	1.588937	0.139767	0.396201
C41	C	1.327981	0.329007	0.331134
C42	C	1.362798	0.441456	0.339814
N43	N	1.281716	0.143855	0.536596
N44	N	1.281741	0.143855	0.102613
C45	C	1.333135	0.075322	0.784426
C46	C	1.333137	0.075320	0.880407
C47	C	1.230316	0.212391	0.854775
C48	C	1.230308	0.212388	0.758794
C49	C	1.281724	0.143855	0.723623
C50	C	1.281734	0.143856	0.915586
C51	C	1.281736	0.143853	1.019654
C52	C	1.281720	0.143855	0.619548
H53	H	0.964258	0.147745	0.391244
F54	F	1.552090	-0.586042	0.387037
H55	H	0.970958	-0.334070	0.242089
H56	H	0.898944	0.146360	0.473521
H57	H	1.188456	0.268191	0.883422
F58	F	0.585444	0.139691	0.057499
F59	F	0.750670	0.143167	0.015592
H60	H	0.499256	0.137844	0.207599
F61	F	1.175581	0.285330	0.694076
F62	F	0.978077	0.148029	0.072299
H63	H	1.364919	-0.184734	0.340357
H64	H	1.374999	0.019517	0.755792
H65	H	1.375000	0.019513	0.929911
H66	H	1.454876	-0.261206	0.362792
F67	F	1.143548	-0.647654	0.285041
F68	F	0.812760	0.144541	0.623605
H69	H	0.599139	0.139996	0.549534
H70	H	1.592491	-0.378234	0.397112
F71	F	0.986949	-0.514500	0.246085
F72	F	1.011342	-0.126249	0.252178
