data_functionalizedCrystal
_audit_creation_method	'MofGen! by Chris Wilmer'
_symmetry_space_group_name_H-M	'P1'
_symmetry_Int_Tables_number	1
_symmetry_cell_setting	triclinic
loop_
_symmetry_equiv_pos_as_xyz
  x,y,z
_cell_length_a	14.971486
_cell_length_b	10.540539
_cell_length_c	14.048226
_cell_angle_alpha	89.995726
_cell_angle_beta	89.998499
_cell_angle_gamma	84.069810
loop_
_atom_site_label
_atom_site_type_symbol
_atom_site_fract_x
_atom_site_fract_y
_atom_site_fract_z
O1	O	1.187879	0.165423	-0.079046
O2	O	0.927591	0.185233	-0.079072
O3	O	1.063673	-0.009446	-0.079057
O4	O	1.051796	0.360102	-0.079061
O5	O	1.063657	-0.009457	0.079264
O6	O	0.927574	0.185221	0.079249
O7	O	1.187862	0.165412	0.079275
Zn8	Zn	1.057716	0.175315	0.104399
Zn9	Zn	1.057737	0.175330	-0.104196
O10	O	1.051780	0.360090	0.079260
C11	C	0.894253	0.184341	0.000085
C12	C	0.794940	0.181686	0.000076
C13	C	0.738360	0.296055	0.000076
C14	C	0.645046	0.293553	0.000090
C15	C	0.608315	0.176681	0.000097
C16	C	0.664903	0.062303	0.000100
C17	C	0.758215	0.064807	0.000092
C18	C	0.470412	0.057094	0.000113
C19	C	0.377093	0.054590	0.000119
C20	C	0.357242	0.285839	0.000111
C21	C	0.450554	0.288343	0.000103
C22	C	0.507136	0.173965	0.000104
C23	C	1.062774	-0.056745	0.000101
C24	C	1.060109	-0.197662	0.000096
C25	C	0.958001	-0.379931	-0.000269
C26	C	0.960702	-0.233343	0.000087
C27	C	1.107939	-0.259870	0.090510
C28	C	1.104547	-0.406376	0.090586
C29	C	1.106587	-0.406904	-0.089455
C30	C	1.107503	-0.259932	-0.090650
C31	C	1.221200	0.166303	0.000115
C32	C	1.320512	0.168958	0.000119
C33	C	1.052679	0.407389	0.000099
C34	C	1.055344	0.548307	0.000099
N35	N	1.057707	0.175303	0.246760
N36	N	1.057753	0.175331	-0.246557
C37	C	1.117984	0.089135	0.296584
C38	C	1.117990	0.089135	0.396242
C39	C	1.057723	0.175309	0.446073
C40	C	0.997440	0.261481	0.396242
C41	C	0.997430	0.261475	0.296586
C42	C	0.997466	0.261491	0.603956
C43	C	0.997476	0.261499	0.703619
C44	C	1.118025	0.089150	0.703612
C45	C	1.118016	0.089144	0.603956
C46	C	1.057733	0.175318	0.554132
H47	H	0.634990	-0.032856	0.000119
H48	H	0.598981	0.386683	0.000089
H49	H	0.480457	0.383510	0.000088
C50	C	0.532650	-0.068729	0.000110
N51	N	0.579528	-0.163496	0.000102
C52	C	0.295001	0.411657	0.000115
N53	N	0.248116	0.506418	0.000115
C54	C	0.931137	0.356262	0.451060
N55	N	0.881196	0.427653	0.492348
C56	C	0.931128	0.356277	0.241780
N57	N	0.881188	0.427685	0.200501
H58	H	1.069184	-0.434179	0.158165
H59	H	0.918739	-0.408080	-0.065107
H60	H	0.922789	-0.191162	0.065001
H61	H	0.948374	0.331659	0.563392
H62	H	0.768258	0.391225	0.000069
C63	C	0.820454	-0.061008	0.000089
N64	N	0.867332	-0.155775	0.000089
C65	C	0.336692	-0.073975	0.000128
N66	N	0.306262	-0.170812	0.000135
H67	H	1.167109	0.018984	0.744185
H68	H	0.923066	-0.190308	-0.064725
C69	C	0.905167	-0.420106	0.086843
N70	N	0.865379	-0.450355	0.152464
H71	H	1.176039	-0.455156	0.094694
C72	C	1.206556	-0.230765	0.095076
N73	N	1.280832	-0.208833	0.098518
C74	C	1.063031	-0.201828	0.181399
N75	N	1.029200	-0.158113	0.249855
H76	H	1.167071	0.018969	0.436808
C77	C	1.063129	-0.449024	-0.182033
N78	N	1.030386	-0.480746	-0.251759
H79	H	1.167094	0.018981	0.563384
H80	H	1.167064	0.018968	0.256018
H81	H	1.072506	-0.218672	-0.157536
H82	H	1.179979	-0.236533	-0.096103
C83	C	1.203585	-0.471812	-0.090271
N84	N	1.276641	-0.520709	-0.090880
H85	H	0.948400	0.331670	0.744186
