data_functionalizedCrystal
_audit_creation_method	'MofGen! by Chris Wilmer'
_symmetry_space_group_name_H-M	'P1'
_symmetry_Int_Tables_number	1
_symmetry_cell_setting	triclinic
loop_
_symmetry_equiv_pos_as_xyz
  x,y,z
_cell_length_a	19.077105
_cell_length_b	14.908520
_cell_length_c	19.076919
_cell_angle_alpha	95.429006
_cell_angle_beta	90.076224
_cell_angle_gamma	91.150228
loop_
_atom_site_label
_atom_site_type_symbol
_atom_site_fract_x
_atom_site_fract_y
_atom_site_fract_z
Zn1	Zn	1.037881	-0.436364	-0.459234
Zn2	Zn	1.537881	0.063636	0.040766
Zn3	Zn	1.035744	-0.581390	-0.347980
Zn4	Zn	1.535744	-0.081390	0.152020
Zn5	Zn	0.925663	-0.424281	-0.336506
Zn6	Zn	1.425663	0.075719	0.163494
Zn7	Zn	0.913591	-0.580846	-0.460710
Zn8	Zn	1.413591	-0.080846	0.039290
O9	O	0.978220	-0.505720	-0.401107
O10	O	1.478220	-0.005720	0.098893
O11	O	1.135682	-0.460886	-0.448660
O12	O	1.635682	0.039114	0.051340
O13	O	1.025299	-0.555720	-0.247919
O14	O	1.525299	-0.055720	0.252081
O15	O	0.946495	-0.299666	-0.347366
O16	O	1.446495	0.200334	0.152634
O17	O	1.134112	-0.567437	-0.366923
O18	O	1.634112	-0.067437	0.133077
O19	O	1.028941	-0.308543	-0.437534
O20	O	1.528941	0.191457	0.062466
O21	O	0.944423	-0.440292	-0.239489
O22	O	1.444423	0.059708	0.260511
O23	O	0.825977	-0.439765	-0.348797
O24	O	1.325977	0.060235	0.151203
O25	O	0.925920	-0.566510	-0.559053
O26	O	1.425920	-0.066510	-0.059053
O27	O	0.817107	-0.554793	-0.440049
O28	O	1.317107	-0.054793	0.059951
O29	O	1.017235	-0.460359	-0.557969
O30	O	1.517235	0.039641	-0.057969
O31	O	1.013594	-0.707536	-0.368354
O32	O	1.513594	-0.207536	0.131646
O33	O	0.923848	-0.707136	-0.451175
O34	O	1.423848	-0.207136	0.048825
C35	C	0.796110	-0.495910	-0.393339
C36	C	1.296110	0.004090	0.106661
C37	C	0.718201	-0.491735	-0.390033
C38	C	1.218201	0.008265	0.109967
C39	C	0.676998	-0.549746	-0.435923
C40	C	1.176998	-0.049746	0.064077
C41	C	0.603795	-0.545812	-0.432820
C42	C	1.103795	-0.045812	0.067180
C43	C	0.571795	-0.483870	-0.383823
C44	C	1.071795	0.016130	0.116177
C45	C	0.613003	-0.425853	-0.337931
C46	C	1.113003	0.074147	0.162069
C47	C	0.686205	-0.429783	-0.341038
C48	C	1.186205	0.070217	0.158962
C49	C	0.353358	-0.465680	-0.369446
C50	C	0.853358	0.034320	0.130554
C51	C	0.280150	-0.461756	-0.366341
C52	C	0.780150	0.038244	0.133659
C53	C	0.270947	-0.581715	-0.461231
C54	C	0.770947	-0.081715	0.038769
C55	C	0.344151	-0.585643	-0.464331
C56	C	0.844151	-0.085643	0.035669
C57	C	0.385353	-0.527623	-0.418441
C58	C	0.885353	-0.027623	0.081559
N59	N	0.496969	-0.479850	-0.380648
N60	N	0.996969	0.020150	0.119352
N61	N	0.460177	-0.531640	-0.421620
N62	N	0.960177	-0.031640	0.078380
C63	C	0.967198	-0.740065	-0.411186
C64	C	1.467198	-0.240065	0.088814
C65	C	0.962545	-0.840323	-0.415524
C66	C	1.462545	-0.340323	0.084476
C67	C	1.047344	-1.029082	-0.337510
C68	C	1.547344	-0.529082	0.162490
C69	C	1.042976	-1.123283	-0.341584
C70	C	1.542976	-0.623283	0.158416
C71	C	0.949443	-1.122929	-0.427749
C72	C	1.449443	-0.622929	0.072251
C73	C	0.953812	-1.028727	-0.423675
C74	C	1.453812	-0.528727	0.076325
C75	C	1.002763	-0.981807	-0.378553
C76	C	1.502763	-0.481807	0.121447
C77	C	1.007128	-0.887604	-0.374476
C78	C	1.507128	-0.387604	0.125524
C79	C	0.913600	-0.887251	-0.460644
C80	C	1.413600	-0.387251	0.039356
C81	C	0.909231	-0.981453	-0.464718
C82	C	1.409231	-0.481453	0.035282
C83	C	1.161040	-0.515570	-0.408907
C84	C	1.661040	-0.015570	0.091093
C85	C	1.238948	-0.519767	-0.412230
C86	C	1.738948	-0.019767	0.087770
C87	C	0.970470	-0.514721	-0.584776
C88	C	1.470470	-0.014721	-0.084776
C89	C	0.967167	-0.518557	-0.663044
C90	C	1.467167	-0.018557	-0.163044
C91	C	0.989303	-0.270463	-0.391006
C92	C	1.489303	0.229537	0.108994
C93	C	0.994026	-0.170210	-0.386701
C94	C	1.494026	0.329790	0.113299
C95	C	1.013156	-0.465095	-0.699251
C96	C	1.513156	0.034905	-0.199251
C97	C	1.010044	-0.468695	-0.772793
C98	C	1.510044	0.031305	-0.272793
C99	C	0.960947	-0.525763	-0.810125
C100	C	1.460947	-0.025763	-0.310125
C101	C	0.914953	-0.579227	-0.773913
C102	C	1.414953	-0.079227	-0.273913
C103	C	0.918062	-0.575622	-0.700373
C104	C	1.418062	-0.075622	-0.200373
C105	C	0.946548	-0.542468	-1.030127
C106	C	1.446548	-0.042468	-0.530127
C107	C	0.943444	-0.546071	-1.103672
C108	C	1.443444	-0.046071	-0.603672
C109	C	1.038535	-0.435537	-1.102547
C110	C	1.538535	0.064463	-0.602547
C111	C	1.041642	-0.431941	-1.029006
C112	C	1.541642	0.068059	-0.529006
C113	C	0.995646	-0.485402	-0.992799
C114	C	1.495646	0.014598	-0.492799
N115	N	0.957767	-0.529446	-0.885296
N116	N	1.457767	-0.029446	-0.385296
N117	N	0.998824	-0.481713	-0.917629
N118	N	1.498824	0.018287	-0.417629
C119	C	0.985983	-0.496691	-0.218153
C120	C	1.485983	0.003309	0.281847
C121	C	0.989433	-0.492609	-0.139879
C122	C	1.489433	0.007391	0.360121
H123	H	0.703047	-0.600189	-0.475819
H124	H	1.203047	-0.100189	0.024181
H125	H	1.087198	-0.990878	-0.300765
H126	H	1.587198	-0.490878	0.199235
H127	H	0.570251	-0.593052	-0.470187
H128	H	1.070251	-0.093052	0.029813
C129	C	1.067163	-0.402321	-0.658189
C130	C	1.567163	0.097679	-0.158189
H131	H	1.062434	-0.407835	-0.609205
H132	H	1.562434	0.092165	-0.109205
H133	H	1.059252	-0.341758	-0.667201
H134	H	1.559252	0.158242	-0.167201
H135	H	1.113128	-0.418657	-0.672822
H136	H	1.613128	0.081343	-0.172822
C137	C	0.379346	-0.653774	-0.518231
C138	C	0.879346	-0.153774	-0.018231
H139	H	0.344323	-0.687755	-0.545122
H140	H	0.844323	-0.187755	-0.045122
H141	H	0.407192	-0.693230	-0.494146
H142	H	0.907192	-0.193230	0.005854
H143	H	0.408229	-0.622362	-0.548689
H144	H	0.908229	-0.122362	-0.048689
C145	C	1.092011	-1.175282	-0.296433
C146	C	1.592011	-0.675282	0.203567
H147	H	1.121785	-1.133843	-0.268974
H148	H	1.621785	-0.633843	0.231026
H149	H	1.119688	-1.214948	-0.326283
H150	H	1.619688	-0.714948	0.173717
H151	H	1.064809	-1.209125	-0.266173
H152	H	1.564809	-0.709125	0.233827
C153	C	1.060635	-0.409890	-0.812618
C154	C	1.560635	0.090110	-0.312618
H155	H	1.090327	-0.375396	-0.779852
H156	H	1.590327	0.124604	-0.279852
H157	H	1.034466	-0.370549	-0.838473
H158	H	1.534466	0.129451	-0.338473
H159	H	1.088337	-0.447454	-0.844092
H160	H	1.588337	0.052546	-0.344092
H161	H	0.880606	-0.619147	-0.670893
H162	H	1.380606	-0.119147	-0.170893
C163	C	0.895602	-1.174551	-0.477375
C164	C	1.395602	-0.674551	0.022625
H165	H	0.899385	-1.237424	-0.473918
H166	H	1.399385	-0.737424	0.026082
H167	H	0.904534	-1.161950	-0.524464
H168	H	1.404534	-0.661950	-0.024464
H169	H	0.849663	-1.156136	-0.464347
H170	H	1.349663	-0.656136	0.035653
H171	H	0.237393	-0.628951	-0.498592
H172	H	0.737393	-0.128951	0.001408
C173	C	0.244952	-0.393612	-0.312446
C174	C	0.744952	0.106388	0.187554
H175	H	0.279973	-0.359613	-0.285565
H176	H	0.779973	0.140387	0.214435
H177	H	0.216067	-0.425011	-0.281988
H178	H	0.716067	0.074989	0.218012
H179	H	0.217107	-0.354159	-0.336543
H180	H	0.717107	0.145841	0.163457
C181	C	1.089121	-0.376728	-1.142374
C182	C	1.589121	0.123272	-0.642374
H183	H	1.080236	-0.387041	-1.191519
H184	H	1.580236	0.112959	-0.691519
H185	H	1.136103	-0.391872	-1.132901
H186	H	1.636103	0.108128	-0.632901
H187	H	1.082221	-0.314980	-1.127281
H188	H	1.582221	0.185020	-0.627281
H189	H	0.386895	-0.418442	-0.332074
H190	H	0.886895	0.081558	0.167926
C191	C	0.860946	-0.642002	-0.814973
C192	C	1.360946	-0.142002	-0.314973
H193	H	0.833997	-0.673321	-0.782875
H194	H	1.333997	-0.173321	-0.282875
H195	H	0.884693	-0.684153	-0.846494
H196	H	1.384693	-0.184153	-0.346494
H197	H	0.830816	-0.607255	-0.840875
H198	H	1.330816	-0.107255	-0.340875
C199	C	1.060974	-0.835992	-0.324848
C200	C	1.560974	-0.335992	0.175152
H201	H	1.086904	-0.877644	-0.300994
H202	H	1.586904	-0.377644	0.199006
H203	H	1.037190	-0.796342	-0.291411
H204	H	1.537190	-0.296342	0.208589
H205	H	1.092060	-0.802163	-0.351529
H206	H	1.592060	-0.302163	0.148471
H207	H	0.877297	-0.848750	-0.494062
H208	H	1.377297	-0.348750	0.005938
H209	H	0.869378	-1.019668	-0.501457
H210	H	1.369378	-0.519668	-0.001457
C211	C	0.577805	-0.357721	-0.284033
C212	C	1.077805	0.142279	0.215967
H213	H	0.528307	-0.363695	-0.288749
H214	H	1.028307	0.136305	0.211251
H215	H	0.592211	-0.298291	-0.292316
H216	H	1.092211	0.201709	0.207684
H217	H	0.591175	-0.369161	-0.237775
H218	H	1.091175	0.130839	0.262225
H219	H	0.903461	-0.592545	-1.134066
H220	H	1.403461	-0.092545	-0.634066
C221	C	0.731527	-0.365970	-0.290560
C222	C	1.231527	0.134030	0.209440
H223	H	0.701987	-0.328520	-0.260931
H224	H	1.201987	0.171480	0.239069
H225	H	0.760794	-0.329582	-0.317075
H226	H	1.260794	0.170418	0.182925
H227	H	0.759756	-0.400440	-0.262524
H228	H	1.259756	0.099560	0.237476
H229	H	1.081624	-0.385472	-0.998614
H230	H	1.581624	0.114528	-0.498614
C231	C	0.895941	-0.601253	-0.990307
C232	C	1.395941	-0.101253	-0.490307
H233	H	0.866257	-0.635755	-1.023076
H234	H	1.366257	-0.135755	-0.523076
H235	H	0.868244	-0.563679	-0.958843
H236	H	1.368244	-0.063679	-0.458843
H237	H	0.922099	-0.640603	-0.964442
H238	H	1.422099	-0.140603	-0.464442
