data_functionalizedCrystal
_audit_creation_method	'MofGen! by Chris Wilmer'
_symmetry_space_group_name_H-M	'P1'
_symmetry_Int_Tables_number	1
_symmetry_cell_setting	triclinic
loop_
_symmetry_equiv_pos_as_xyz
  x,y,z
_cell_length_a	19.188933
_cell_length_b	19.188930
_cell_length_c	17.666332
_cell_angle_alpha	89.993235
_cell_angle_beta	89.994846
_cell_angle_gamma	83.145175
loop_
_atom_site_label
_atom_site_type_symbol
_atom_site_fract_x
_atom_site_fract_y
_atom_site_fract_z
O1	O	0.926146	0.087171	-0.062932
O2	O	1.426146	0.587171	0.437068
O3	O	0.722835	0.098903	-0.062940
O4	O	1.222835	0.598903	0.437060
O5	O	0.830358	-0.008619	-0.062921
O6	O	1.330358	0.491381	0.437079
O7	O	0.818624	0.194693	-0.062951
O8	O	1.318624	0.694693	0.437049
O9	O	0.830344	-0.008615	0.062976
O10	O	1.330344	0.491385	0.562976
O11	O	0.722821	0.098907	0.062957
O12	O	1.222821	0.598907	0.562957
O13	O	0.926132	0.087174	0.062965
O14	O	1.426132	0.587174	0.562965
Cu15	Cu	0.824475	0.093041	0.074456
Cu16	Cu	1.324475	0.593041	0.574456
Cu17	Cu	0.824492	0.093037	-0.074431
Cu18	Cu	1.324492	0.593037	0.425569
O19	O	0.818609	0.194696	0.062946
O20	O	1.318609	0.694696	0.562946
C21	C	0.696817	0.098525	0.000008
C22	C	1.196817	0.598525	0.500008
C23	C	0.619313	0.097384	0.000005
C24	C	1.119313	0.597384	0.500005
C25	C	0.066065	0.089237	-0.068612
C26	C	0.566065	0.589237	0.431388
C27	C	0.138889	0.090305	-0.068615
C28	C	0.638889	0.590305	0.431385
C29	C	0.175299	0.090844	0.000011
C30	C	0.675299	0.590844	0.500011
C31	C	0.138880	0.090297	0.068645
C32	C	0.638880	0.590297	0.568645
C33	C	0.066058	0.089222	0.068647
C34	C	0.566058	0.589222	0.568647
N35	N	0.284313	0.132264	0.051087
N36	N	0.784313	0.632264	0.551087
N37	N	0.353490	0.133287	0.051081
N38	N	0.853490	0.633287	0.551081
C39	C	0.394707	0.094082	0.000012
C40	C	0.894707	0.594082	0.500012
N41	N	0.364132	0.053824	-0.051062
N42	N	0.864132	0.553824	0.448938
N43	N	0.294948	0.052805	-0.051059
N44	N	0.794948	0.552805	0.448941
C45	C	0.254262	0.092009	0.000018
C46	C	0.754262	0.592009	0.500018
C47	C	0.510082	0.095782	-0.068621
C48	C	1.010082	0.595782	0.431379
C49	C	0.582908	0.096846	-0.068621
C50	C	1.082908	0.596846	0.431379
C51	C	0.582897	0.096845	0.068641
C52	C	1.082897	0.596845	0.568641
C53	C	0.510073	0.095774	0.068639
C54	C	1.010073	0.595774	0.568639
C55	C	0.473669	0.095246	0.000006
C56	C	0.973669	0.595246	0.500006
C57	C	0.829971	-0.034628	0.000030
C58	C	1.329971	0.465372	0.500030
C59	C	0.828830	-0.112132	0.000036
C60	C	1.328830	0.387868	0.500036
C61	C	0.952150	0.087553	0.000016
C62	C	1.452150	0.587553	0.500016
C63	C	1.029655	0.088694	0.000013
C64	C	1.529655	0.588694	0.500013
C65	C	0.891921	-0.157056	0.000043
C66	C	1.391921	0.342944	0.500043
C67	C	0.890849	-0.229880	0.000030
C68	C	1.390849	0.270120	0.500030
C69	C	0.826683	-0.257777	0.000027
C70	C	1.326683	0.242223	0.500027
C71	C	0.763584	-0.212843	0.000017
C72	C	1.263584	0.287157	0.500017
C73	C	0.764658	-0.140021	0.000021
C74	C	1.264658	0.359979	0.500021
N75	N	0.777631	-0.365781	0.042870
N76	N	1.277631	0.134219	0.542870
N77	N	0.776616	-0.434959	0.042868
N78	N	1.276616	0.065041	0.542868
C79	C	0.823445	-0.477185	0.000012
C80	C	1.323445	0.022815	0.500012
N81	N	0.871339	-0.447621	-0.042832
N82	N	1.371339	0.052379	0.457168
N83	N	0.872357	-0.378436	-0.042826
N84	N	1.372357	0.121564	0.457174
C85	C	0.825512	-0.336739	0.000022
C86	C	1.325512	0.163261	0.500022
C87	C	0.885378	-0.601073	0.000004
C88	C	1.385378	-0.101073	0.500004
C89	C	0.884304	-0.673898	-0.000013
C90	C	1.384304	-0.173898	0.499987
C91	C	0.757037	-0.656860	-0.000019
C92	C	1.257037	-0.156860	0.499981
C93	C	0.758113	-0.584037	-0.000010
C94	C	1.258113	-0.084037	0.499990
C95	C	0.822286	-0.556148	0.000005
C96	C	1.322286	-0.056148	0.500005
C97	C	0.818997	0.220705	-0.000006
C98	C	1.318997	0.720705	0.499994
C99	C	0.820137	0.298210	-0.000018
C100	C	1.320137	0.798210	0.499982
N101	N	0.824469	0.093043	0.179176
N102	N	1.324469	0.593043	0.679176
N103	N	0.824504	0.093029	-0.179150
N104	N	1.324504	0.593029	0.320850
C105	C	0.866719	0.135264	0.781220
C106	C	1.366719	0.635264	1.281220
C107	C	0.866712	0.135271	0.701973
C108	C	1.366712	0.635271	1.201973
C109	C	0.824499	0.093029	0.662357
C110	C	1.324499	0.593029	1.162357
C111	C	0.782276	0.050791	0.701996
C112	C	1.282276	0.550791	1.201996
C113	C	0.782279	0.050791	0.781242
C114	C	1.282279	0.550791	1.281242
N115	N	0.822808	0.031869	0.537942
N116	N	1.322808	0.531869	1.037942
N117	N	0.822809	0.031871	0.462661
N118	N	1.322809	0.531871	0.962661
C119	C	0.824486	0.093029	0.423593
C120	C	1.324486	0.593029	0.923593
N121	N	0.826175	0.154186	0.462650
N122	N	1.326175	0.654186	0.962650
N123	N	0.826178	0.154183	0.537937
N124	N	1.326178	0.654183	1.037937
C125	C	0.824490	0.093026	0.576428
C126	C	1.324490	0.593026	1.076428
C127	C	0.866695	0.135277	0.298035
C128	C	1.366695	0.635277	0.798035
C129	C	0.866683	0.135285	0.218786
C130	C	1.366683	0.635285	0.718786
C131	C	0.782251	0.050798	0.218811
C132	C	1.282251	0.550798	0.718811
C133	C	0.782259	0.050796	0.298058
C134	C	1.282259	0.550796	0.798058
C135	C	0.824485	0.093034	0.337666
C136	C	1.324485	0.593034	0.837666
H137	H	0.480427	0.095335	0.124521
H138	H	0.980427	0.595335	0.624521
H139	H	0.168540	0.090751	-0.124499
H140	H	0.668540	0.590751	0.375501
N141	N	0.176054	0.090866	0.138752
N142	N	0.676054	0.590866	0.638752
N143	N	0.143531	0.090392	0.200023
N144	N	0.643531	0.590392	0.700023
H145	H	0.169784	0.090795	0.249539
H146	H	0.669784	0.590795	0.749539
H147	H	0.901057	0.169683	0.186521
H148	H	1.401057	0.669683	0.686521
H149	H	0.036430	0.088804	-0.124498
H150	H	0.536430	0.588804	0.375502
N151	N	0.028873	0.088665	0.138756
N152	N	0.528873	0.588665	0.638756
N153	N	0.061386	0.089140	0.200026
N154	N	0.561386	0.589140	0.700026
H155	H	0.035124	0.088747	0.249542
H156	H	0.535124	0.588747	0.749542
N157	N	0.620088	0.097401	0.138736
N158	N	1.120088	0.597401	0.638736
N159	N	0.654137	0.147203	0.154043
N160	N	1.154137	0.647203	0.654043
H161	H	0.680407	0.147594	0.203549
H162	H	1.180407	0.647594	0.703549
N163	N	0.691498	-0.685359	-0.000031
N164	N	1.191498	-0.185359	0.499969
N165	N	0.690547	-0.750379	-0.000039
N166	N	1.190547	-0.250379	0.499961
H167	H	0.644258	-0.770510	-0.000051
H168	H	1.144258	-0.270510	0.499949
H169	H	0.713280	-0.103444	0.000017
H170	H	1.213280	0.396556	0.500017
N171	N	0.693660	-0.538154	-0.000013
N172	N	1.193660	-0.038154	0.499987
N173	N	0.636372	-0.563068	-0.000019
N174	N	1.136372	-0.063068	0.499981
H175	H	0.590848	-0.530664	-0.000024
H176	H	1.090848	-0.030664	0.499976
N177	N	0.472903	0.095238	-0.138731
N178	N	0.972903	0.595238	0.361269
N179	N	0.505427	0.095714	-0.200001
N180	N	1.005427	0.595714	0.299999
H181	H	0.479172	0.095328	-0.249518
H182	H	0.979172	0.595328	0.250482
H183	H	0.612553	0.097282	-0.124506
H184	H	1.112553	0.597282	0.375494
N185	N	0.957475	-0.128581	0.000056
N186	N	1.457475	0.371419	0.500056
N187	N	1.013803	-0.168705	0.000059
N188	N	1.513803	0.331295	0.500059
H189	H	1.060102	-0.148594	0.000067
H190	H	1.560102	0.351406	0.500067
N191	N	0.955292	-0.275788	0.000034
N192	N	1.455292	0.224212	0.500034
N193	N	0.968899	-0.318320	-0.053032
N194	N	1.468899	0.181680	0.446968
H195	H	1.014412	-0.350743	-0.053029
H196	H	1.514412	0.149257	0.446971
N197	N	0.739169	0.007621	0.661546
N198	N	1.239169	0.507621	1.161546
N199	N	0.701488	-0.030098	0.696943
N200	N	1.201488	0.469902	1.196943
H201	H	0.671043	-0.060591	0.668376
H202	H	1.171043	0.439409	1.168376
N203	N	0.698046	-0.241347	0.000007
N204	N	1.198046	0.258653	0.500007
N205	N	0.697096	-0.306368	0.000003
N206	N	1.197096	0.193632	0.500003
H207	H	0.650807	-0.326499	-0.000007
H208	H	1.150807	0.173501	0.499993
H209	H	0.937631	-0.578365	0.000012
H210	H	1.437631	-0.078365	0.500012
H211	H	0.935682	-0.710475	-0.000012
H212	H	1.435682	-0.210475	0.499988
N213	N	0.909854	0.178412	0.821665
N214	N	1.409854	0.678412	1.321665
N215	N	0.947543	0.216121	0.786266
N216	N	1.447543	0.716121	1.286266
H217	H	0.978008	0.246595	0.814831
H218	H	1.478008	0.746595	1.314831
N219	N	0.909852	0.178407	0.661493
N220	N	1.409852	0.678407	1.161493
N221	N	0.947556	0.216107	0.696866
N222	N	1.447556	0.716107	1.196866
H223	H	0.978030	0.246567	0.668280
H224	H	1.478030	0.746567	1.168280
N225	N	0.739149	0.007644	0.821715
N226	N	1.239149	0.507644	1.321715
N227	N	0.701456	-0.030065	0.786340
N228	N	1.201456	0.469935	1.286340
H229	H	0.670995	-0.060539	0.814924
H230	H	1.170995	0.439461	1.314924
N231	N	0.909828	0.178424	0.338487
N232	N	1.409828	0.678424	0.838487
N233	N	0.947513	0.216139	0.303090
N234	N	1.447513	0.716139	0.803090
H235	H	0.977976	0.246613	0.331656
H236	H	1.477976	0.746613	0.831656
N237	N	0.739128	0.007659	0.178343
N238	N	1.239128	0.507659	0.678343
N239	N	0.739127	0.007668	0.107588
N240	N	1.239127	0.507668	0.607588
H241	H	0.708668	-0.022798	0.079003
H242	H	1.208668	0.477202	0.579003
N243	N	0.739135	0.007647	0.338531
N244	N	1.239135	0.507647	0.838531
N245	N	0.701444	-0.030064	0.303155
N246	N	1.201444	0.469936	0.803155
H247	H	0.670983	-0.060539	0.331738
H248	H	1.170983	0.439461	0.831738
