data_functionalizedCrystal
_audit_creation_method	'MofGen! by Chris Wilmer'
_symmetry_space_group_name_H-M	'P1'
_symmetry_Int_Tables_number	1
_symmetry_cell_setting	triclinic
loop_
_symmetry_equiv_pos_as_xyz
  x,y,z
_cell_length_a	14.519710
_cell_length_b	10.723024
_cell_length_c	9.798715
_cell_angle_alpha	90.001978
_cell_angle_beta	89.997255
_cell_angle_gamma	95.925993
loop_
_atom_site_label
_atom_site_type_symbol
_atom_site_fract_x
_atom_site_fract_y
_atom_site_fract_z
O1	O	1.224702	-0.163572	-0.113458
O2	O	0.956324	-0.182835	-0.113466
O3	O	1.096703	0.008431	-0.113457
O4	O	1.084322	-0.354837	-0.113467
O5	O	1.096693	0.008431	0.113525
O6	O	0.956313	-0.182834	0.113516
O7	O	1.224692	-0.163571	0.113525
Zn8	Zn	1.090501	-0.173203	0.149558
Zn9	Zn	1.090515	-0.173203	-0.149500
O10	O	1.084312	-0.354837	0.113515
C11	C	0.921954	-0.181937	0.000023
C12	C	0.819559	-0.179246	0.000020
C13	C	1.259061	-0.164469	0.000032
C14	C	1.361456	-0.167159	0.000026
C15	C	1.095797	0.054922	0.000033
C16	C	1.093101	0.193451	0.000028
C17	C	1.736403	-0.177063	0.000025
C18	C	1.632081	-0.174313	0.000025
C19	C	1.548933	-0.172111	0.000024
C20	C	1.444604	-0.169361	0.000027
C21	C	1.085218	-0.401328	0.000022
C22	C	1.087914	-0.539857	0.000018
N23	N	1.090498	-0.173201	0.353658
C24	C	1.171651	0.269169	0.000028
C25	C	1.168866	0.412346	0.000023
N26	N	1.090524	-0.173194	-0.353600
C27	C	1.149440	-0.092543	0.421439
C28	C	1.149454	-0.092538	0.578602
H29	H	1.240961	0.227995	0.000039
H30	H	1.040043	-0.242249	0.411979
H31	H	1.023791	0.234625	0.000017
H32	H	1.236110	0.477407	0.000030
C33	C	1.216695	-0.000253	0.656141
C34	C	1.200740	0.122347	0.621463
C35	C	1.262673	0.207396	0.692855
H36	H	1.207825	-0.012314	0.751463
H37	H	1.278405	-0.013653	0.632746
H38	H	1.139044	0.135742	0.644867
H39	H	1.209617	0.134448	0.526154
H40	H	1.324383	0.193997	0.669460
H41	H	1.253798	0.195324	0.788173
H42	H	1.251862	0.290590	0.669327
C43	C	1.023381	-0.265344	0.568525
C44	C	1.073204	-0.341581	0.486454
C45	C	1.011383	-0.426473	0.414672
H46	H	0.986386	-0.316067	0.631292
H47	H	0.984650	-0.220487	0.512712
H48	H	1.111918	-0.386435	0.542261
H49	H	1.110195	-0.290893	0.423661
H50	H	0.972652	-0.381616	0.358860
H51	H	0.974392	-0.477187	0.477449
H52	H	1.045178	-0.478202	0.358970
H53	H	1.020666	0.395089	0.000027
H54	H	1.199888	-0.023486	0.363120
