data_functionalizedCrystal
_audit_creation_method	'MofGen! by Chris Wilmer'
_symmetry_space_group_name_H-M	'P1'
_symmetry_Int_Tables_number	1
_symmetry_cell_setting	triclinic
loop_
_symmetry_equiv_pos_as_xyz
  x,y,z
_cell_length_a	21.295420
_cell_length_b	21.295417
_cell_length_c	21.295396
_cell_angle_alpha	89.894924
_cell_angle_beta	89.929892
_cell_angle_gamma	90.025484
loop_
_atom_site_label
_atom_site_type_symbol
_atom_site_fract_x
_atom_site_fract_y
_atom_site_fract_z
Zn1	Zn	0.962642	-0.250227	-0.355918
Zn2	Zn	1.462642	0.249773	0.144082
Zn3	Zn	0.962462	-0.355634	-0.250645
Zn4	Zn	1.462462	0.144366	0.249355
Zn5	Zn	0.857281	-0.250375	-0.250662
Zn6	Zn	1.357281	0.249625	0.249338
Zn7	Zn	0.857336	-0.355454	-0.355877
Zn8	Zn	1.357336	0.144546	0.144123
O9	O	0.909930	-0.302923	-0.303275
O10	O	1.409930	0.197077	0.196725
O11	O	1.050707	-0.264223	-0.341963
O12	O	1.550707	0.235777	0.158037
O13	O	0.948411	-0.341808	-0.162557
O14	O	1.448411	0.158192	0.337443
O15	O	0.871310	-0.162266	-0.264649
O16	O	1.371310	0.337734	0.235351
O17	O	1.050575	-0.341665	-0.264619
O18	O	1.550575	0.158335	0.235381
O19	O	0.948718	-0.162157	-0.341980
O20	O	1.448718	0.337843	0.158020
O21	O	0.871136	-0.264475	-0.162570
O22	O	1.371136	0.235525	0.337430
O23	O	0.769199	-0.264301	-0.264609
O24	O	1.269199	0.235699	0.235391
O25	O	0.871403	-0.341359	-0.443972
O26	O	1.371403	0.158641	0.056028
O27	O	0.769239	-0.341502	-0.341910
O28	O	1.269239	0.158498	0.158090
O29	O	0.948771	-0.264048	-0.444002
O30	O	1.448771	0.235952	0.055998
O31	O	0.948464	-0.443700	-0.264579
O32	O	1.448464	0.056300	0.235421
O33	O	0.871229	-0.443568	-0.341893
O34	O	1.371229	0.056432	0.158107
C35	C	0.746379	-0.302898	-0.303257
C36	C	1.246379	0.197102	0.196743
C37	C	0.676411	-0.302903	-0.303265
C38	C	1.176411	0.197097	0.196735
C39	C	0.177021	-0.262693	-0.343623
C40	C	0.677021	0.237307	0.156377
C41	C	0.242763	-0.262689	-0.343623
C42	C	0.742763	0.237311	0.156377
C43	C	0.275571	-0.302942	-0.303290
C44	C	0.775571	0.197058	0.196710
C45	C	0.242631	-0.343214	-0.262965
C46	C	0.742631	0.156786	0.237035
C47	C	0.176890	-0.343222	-0.262971
C48	C	0.676890	0.156778	0.237029
N49	N	0.378717	-0.307759	-0.248170
N50	N	0.878717	0.192241	0.251830
N51	N	0.441169	-0.307747	-0.248167
N52	N	0.941169	0.192253	0.251833
C53	C	0.473646	-0.302921	-0.303271
C54	C	0.973646	0.197079	0.196729
N55	N	0.441312	-0.298094	-0.358381
N56	N	0.941312	0.201906	0.141619
N57	N	0.378855	-0.298102	-0.358384
N58	N	0.878855	0.201898	0.141616
C59	C	0.346856	-0.302938	-0.303280
C60	C	0.846856	0.197062	0.196720
C61	C	0.577864	-0.262649	-0.343596
C62	C	1.077864	0.237351	0.156404
C63	C	0.643607	-0.262649	-0.343597
C64	C	1.143607	0.237351	0.156403
C65	C	0.643474	-0.343171	-0.262934
C66	C	1.143474	0.156829	0.237066
C67	C	0.577731	-0.343175	-0.262939
C68	C	1.077731	0.156825	0.237061
C69	C	0.544930	-0.302910	-0.303269
C70	C	1.044930	0.197090	0.196731
C71	C	0.909850	-0.466474	-0.303243
C72	C	1.409850	0.033526	0.196757
C73	C	0.909873	-0.536442	-0.303251
C74	C	1.409873	-0.036442	0.196749
C75	C	0.950157	-0.569195	-0.343546
C76	C	1.450157	-0.069195	0.156454
C77	C	0.950179	-0.634938	-0.343561
C78	C	1.450179	-0.134938	0.156439
C79	C	0.909924	-0.667925	-0.303271
C80	C	1.409924	-0.167925	0.196729
C81	C	0.869633	-0.635164	-0.262973
C82	C	1.369633	-0.135164	0.237027
C83	C	0.869608	-0.569423	-0.262963
C84	C	1.369608	-0.069423	0.237037
N85	N	0.905121	-0.771258	-0.248179
N86	N	1.405121	-0.271258	0.251821
N87	N	0.905149	-0.833709	-0.248191
N88	N	1.405149	-0.333709	0.251809
C89	C	0.909998	-0.865999	-0.303299
C90	C	1.409998	-0.365999	0.196701
N91	N	0.914830	-0.833479	-0.358397
N92	N	1.414830	-0.333479	0.141603
N93	N	0.914805	-0.771022	-0.358385
N94	N	1.414805	-0.271022	0.141615
C95	C	0.909947	-0.739210	-0.303277
C96	C	1.409947	-0.239210	0.196723
C97	C	0.950307	-0.970038	-0.343614
C98	C	1.450307	-0.470038	0.156386
C99	C	0.950325	-1.035781	-0.343631
C100	C	1.450325	-0.535781	0.156369
C101	C	0.869783	-1.036007	-0.263037
C102	C	1.369783	-0.536007	0.236963
C103	C	0.869762	-0.970264	-0.263026
C104	C	1.369762	-0.470264	0.236974
C105	C	0.910027	-0.937284	-0.303314
C106	C	1.410027	-0.437284	0.196686
C107	C	1.074120	-0.302947	-0.303293
C108	C	1.574120	0.197053	0.196707
C109	C	1.144089	-0.302958	-0.303301
C110	C	1.644089	0.197042	0.196699
C111	C	0.910113	-0.302667	-0.467466
C112	C	1.410113	0.197333	0.032534
C113	C	0.910191	-0.302558	-0.537434
C114	C	1.410191	0.197442	-0.037434
C115	C	0.910028	-0.138732	-0.303321
C116	C	1.410028	0.361268	0.196679
C117	C	0.910070	-0.068764	-0.303340
C118	C	1.410070	0.431236	0.196660
C119	C	0.909784	-0.303132	-0.139723
C120	C	1.409784	0.196868	0.360277
C121	C	0.909829	-0.303063	-0.069755
C122	C	1.409829	0.196937	0.430245
C123	C	0.869651	-0.262616	0.429665
C124	C	1.369651	0.237384	0.929665
C125	C	0.869602	-0.262680	0.363923
C126	C	1.369602	0.237320	0.863923
C127	C	0.910104	-0.302680	0.331083
C128	C	1.410104	0.197320	0.831083
C129	C	0.950647	-0.342631	0.363992
C130	C	1.450647	0.157369	0.863992
C131	C	0.950690	-0.342569	0.429733
C132	C	1.450690	0.157431	0.929733
N133	N	0.965168	-0.307213	0.227772
N134	N	1.465168	0.192787	0.727772
N135	N	0.965125	-0.307268	0.165321
N136	N	1.465125	0.192732	0.665321
C137	C	0.909974	-0.302868	0.133009
C138	C	1.409974	0.197132	0.633009
N139	N	0.854866	-0.298399	0.165508
N140	N	1.354866	0.201601	0.665508
N141	N	0.854910	-0.298341	0.227965
N142	N	1.354910	0.201659	0.727965
C143	C	0.910061	-0.302751	0.259798
C144	C	1.410061	0.197249	0.759798
C145	C	0.869377	-0.262993	0.028823
C146	C	1.369377	0.237007	0.528823
C147	C	0.869327	-0.263062	-0.036920
C148	C	1.369327	0.236938	0.463080
C149	C	0.950377	-0.343009	-0.036850
C150	C	1.450377	0.156991	0.463150
C151	C	0.950422	-0.342943	0.028892
C152	C	1.450422	0.157057	0.528892
C153	C	0.909923	-0.302932	0.061725
C154	C	1.409923	0.197068	0.561725
H155	H	0.550918	-0.375960	-0.230102
H156	H	1.050918	0.124040	0.269898
H157	H	0.983436	-0.375467	0.055680
H158	H	1.483436	0.124533	0.555680
C159	C	0.994934	-0.387011	-0.072961
C160	C	1.494934	0.112989	0.427039
C161	C	0.967962	-0.436671	-0.117967
C162	C	1.467962	0.063329	0.382033
C163	C	1.012520	-0.480676	-0.154078
C164	C	1.512520	0.019324	0.345922
C165	C	1.084051	-0.475023	-0.145183
C166	C	1.584051	0.024977	0.354817
C167	C	1.111027	-0.425361	-0.100175
C168	C	1.611027	0.074639	0.399825
C169	C	1.066469	-0.381355	-0.064064
C170	C	1.566469	0.118645	0.435936
H171	H	0.915007	-0.440858	-0.124553
H172	H	1.415007	0.059142	0.375447
H173	H	0.992550	-0.517439	-0.187397
H174	H	1.492550	-0.017439	0.312603
H175	H	1.117035	-0.507598	-0.171915
H176	H	1.617035	-0.007598	0.328085
H177	H	1.163982	-0.421174	-0.093588
H178	H	1.663982	0.078826	0.406412
H179	H	1.086439	-0.344592	-0.030745
H180	H	1.586439	0.155408	0.469255
H181	H	0.150077	-0.376011	-0.230135
H182	H	0.650077	0.123989	0.269865
C183	C	0.824730	-0.219121	-0.073112
C184	C	1.324730	0.280879	0.426888
C185	C	0.753209	-0.224744	-0.063918
C186	C	1.253209	0.275256	0.436082
C187	C	0.708612	-0.180801	-0.100110
C188	C	1.208612	0.319199	0.399890
C189	C	0.735535	-0.131234	-0.145496
C190	C	1.235535	0.368766	0.354504
C191	C	0.807059	-0.125609	-0.154692
C192	C	1.307059	0.374391	0.345308
C193	C	0.851656	-0.169552	-0.118500
C194	C	1.351656	0.330448	0.381500
H195	H	0.733276	-0.261438	-0.030318
H196	H	1.233276	0.238562	0.469682
H197	H	0.655665	-0.184965	-0.093302
H198	H	1.155665	0.315035	0.406698
H199	H	0.702522	-0.098705	-0.172287
H200	H	1.202522	0.401295	0.327713
H201	H	0.826993	-0.088915	-0.188291
H202	H	1.326993	0.411085	0.311709
H203	H	0.904603	-0.165388	-0.125308
H204	H	1.404603	0.334612	0.374692
H205	H	0.836590	-0.230151	0.337130
H206	H	1.336590	0.269849	0.837130
H207	H	0.982942	-0.542344	-0.376352
H208	H	1.482942	-0.042344	0.123648
H209	H	0.836671	-0.230038	0.456394
H210	H	1.336671	0.269962	0.956394
H211	H	0.982977	-0.661610	-0.376381
H212	H	1.482977	-0.161610	0.123619
H213	H	0.836804	-0.542755	-0.230150
H214	H	1.336804	-0.042755	0.269850
C215	C	0.994595	-0.933754	-0.387931
C216	C	1.494595	-0.433754	0.112069
C217	C	1.038902	-0.969785	-0.432262
C218	C	1.538902	-0.469785	0.067738
C219	C	1.083191	-0.933503	-0.476579
C220	C	1.583191	-0.433503	0.023421
C221	C	1.083171	-0.861191	-0.476564
C222	C	1.583171	-0.361191	0.023436
C223	C	1.038862	-0.825155	-0.432231
C224	C	1.538862	-0.325155	0.067769
C225	C	0.994573	-0.861437	-0.387915
C226	C	1.494573	-0.361437	0.112085
H227	H	1.038918	-1.023319	-0.432275
H228	H	1.538918	-0.523319	0.067725
H229	H	1.115992	-0.960179	-0.509397
H230	H	1.615992	-0.460179	-0.009397
H231	H	1.115956	-0.834333	-0.509369
H232	H	1.615956	-0.334333	-0.009369
H233	H	1.038846	-0.771622	-0.432218
H234	H	1.538846	-0.271622	0.067782
H235	H	0.961772	-0.834761	-0.355097
H236	H	1.461772	-0.334761	0.144903
C237	C	0.679836	-0.218361	-0.387961
C238	C	1.179836	0.281639	0.112039
C239	C	0.752148	-0.218359	-0.387965
C240	C	1.252148	0.281641	0.112035
C241	C	0.788378	-0.174073	-0.432332
C242	C	1.288378	0.325927	0.067668
C243	C	0.752294	-0.129790	-0.476694
C244	C	1.252294	0.370210	0.023306
C245	C	0.679977	-0.129791	-0.476691
C246	C	1.179977	0.370209	0.023309
C247	C	0.643748	-0.174077	-0.432325
C248	C	1.143748	0.325923	0.067675
H249	H	0.778863	-0.251141	-0.355124
H250	H	1.278863	0.248859	0.144876
H251	H	0.841911	-0.174072	-0.432334
H252	H	1.341911	0.325928	0.067666
H253	H	0.779113	-0.097007	-0.509537
H254	H	1.279113	0.402993	-0.009537
H255	H	0.653262	-0.097009	-0.509532
H256	H	1.153262	0.402991	-0.009532
H257	H	0.590214	-0.174077	-0.432323
H258	H	1.090214	0.325923	0.067677
C259	C	0.825458	-0.934230	-0.218693
C260	C	1.325458	-0.434230	0.281307
C261	C	0.776027	-0.889019	-0.245914
C262	C	1.276027	-0.389019	0.254086
C263	C	0.731720	-0.852984	-0.201579
C264	C	1.231720	-0.352984	0.298421
C265	C	0.736845	-0.862160	-0.130024
C266	C	1.236845	-0.362160	0.369976
C267	C	0.786277	-0.907373	-0.102799
C268	C	1.286277	-0.407373	0.397201
C269	C	0.830584	-0.943408	-0.147134
C270	C	1.330584	-0.443408	0.352866
H271	H	0.772232	-0.882225	-0.298886
H272	H	1.272232	-0.382225	0.201114
H273	H	0.695127	-0.819515	-0.221733
H274	H	1.195127	-0.319515	0.278267
H275	H	0.704046	-0.835485	-0.097205
H276	H	1.204046	-0.335485	0.402795
H277	H	0.790073	-0.914167	-0.049826
H278	H	1.290073	-0.414167	0.450174
H279	H	0.867177	-0.976877	-0.126980
H280	H	1.367177	-0.476877	0.373020
H281	H	0.983624	-0.375199	0.337249
H282	H	1.483624	0.124801	0.837249
C283	C	0.679554	-0.387453	-0.218569
C284	C	1.179554	0.112547	0.281431
C285	C	0.643325	-0.431744	-0.174212
C286	C	1.143325	0.068256	0.325788
C287	C	0.679409	-0.476030	-0.129848
C288	C	1.179409	0.023970	0.370152
C289	C	0.751721	-0.476026	-0.129841
C290	C	1.251721	0.023974	0.370159
C291	C	0.787955	-0.431734	-0.174199
C292	C	1.287955	0.068266	0.325801
C293	C	0.751871	-0.387447	-0.218563
C294	C	1.251871	0.112553	0.281437
H295	H	0.589791	-0.431748	-0.174216
H296	H	1.089791	0.068252	0.325784
H297	H	0.652586	-0.508818	-0.097011
H298	H	1.152586	-0.008818	0.402989
H299	H	0.778433	-0.508809	-0.097000
H300	H	1.278433	-0.008809	0.403000
H301	H	0.841489	-0.431729	-0.174196
H302	H	1.341489	0.068271	0.325804
H303	H	0.778693	-0.354660	-0.251400
H304	H	1.278693	0.145340	0.248600
H305	H	0.983706	-0.375095	0.456520
H306	H	1.483706	0.124905	0.956520
C307	C	0.541780	-0.218361	-0.387960
C308	C	1.041780	0.281639	0.112040
C309	C	0.496574	-0.168941	-0.360771
C310	C	0.996574	0.331059	0.139229
C311	C	0.460495	-0.124650	-0.405134
C312	C	0.960495	0.375350	0.094866
C313	C	0.469622	-0.129779	-0.476686
C314	C	0.969622	0.370221	0.023314
C315	C	0.514830	-0.179201	-0.503880
C316	C	1.014830	0.320799	-0.003880
C317	C	0.550909	-0.223492	-0.459517
C318	C	1.050909	0.276508	0.040483
H319	H	0.489816	-0.165142	-0.307800
H320	H	0.989816	0.334858	0.192200
H321	H	0.427029	-0.088064	-0.385003
H322	H	0.927029	0.411936	0.114997
H323	H	0.442914	-0.096992	-0.509526
H324	H	0.942914	0.403008	-0.009526
H325	H	0.521588	-0.183000	-0.556850
H326	H	1.021588	0.317000	-0.056850
H327	H	0.584376	-0.260078	-0.479647
H328	H	1.084376	0.239922	0.020353
C329	C	0.825353	-0.671447	-0.218652
C330	C	1.325353	-0.171447	0.281348
C331	C	0.825382	-0.743759	-0.218658
C332	C	1.325382	-0.243759	0.281342
C333	C	0.781098	-0.780041	-0.174337
C334	C	1.281098	-0.280041	0.325663
C335	C	0.736785	-0.744010	-0.130011
C336	C	1.236785	-0.244010	0.369989
C337	C	0.736755	-0.671693	-0.130004
C338	C	1.236755	-0.171693	0.369996
C339	C	0.781039	-0.635412	-0.174324
C340	C	1.281039	-0.135412	0.325676
H341	H	0.858187	-0.770435	-0.251472
H342	H	1.358187	-0.270435	0.248528
H343	H	0.781121	-0.833575	-0.174343
H344	H	1.281121	-0.333575	0.325657
H345	H	0.704004	-0.770868	-0.097202
H346	H	1.204004	-0.270868	0.402798
H347	H	0.703950	-0.645017	-0.097189
H348	H	1.203950	-0.145017	0.402811
H349	H	0.781016	-0.581878	-0.174318
H350	H	1.281016	-0.081878	0.325682
H351	H	0.150318	-0.229910	-0.376466
H352	H	0.650318	0.270090	0.123534
C353	C	0.824825	-0.218988	0.064945
C354	C	1.324825	0.281012	0.564945
C355	C	0.780222	-0.175057	0.028752
C356	C	1.280222	0.324943	0.528752
C357	C	0.735670	-0.131052	0.064871
C358	C	1.235670	0.368948	0.564871
C359	C	0.735720	-0.130978	0.137184
C360	C	1.235720	0.369022	0.637184
C361	C	0.780324	-0.174911	0.173381
C362	C	1.280324	0.325089	0.673381
C363	C	0.824876	-0.218916	0.137262
C364	C	1.324876	0.281084	0.637262
H365	H	0.780183	-0.175110	-0.024782
H366	H	1.280183	0.324890	0.475218
H367	H	0.702651	-0.098530	0.038075
H368	H	1.202651	0.401470	0.538075
H369	H	0.702740	-0.098403	0.163921
H370	H	1.202740	0.401597	0.663921
H371	H	0.780363	-0.174857	0.226915
H372	H	1.280363	0.325143	0.726915
H373	H	0.857895	-0.251438	0.164058
H374	H	1.357895	0.248562	0.664058
H375	H	0.983129	-1.062448	-0.376446
H376	H	1.483129	-0.562448	0.123554
H377	H	0.269582	-0.229898	-0.376457
H378	H	0.769582	0.270102	0.123543
H379	H	0.269347	-0.375990	-0.230128
H380	H	0.769347	0.124010	0.269872
H381	H	0.837003	-1.062864	-0.230235
H382	H	1.337003	-0.562864	0.269765
