data_functionalizedCrystal
_audit_creation_method	'MofGen! by Chris Wilmer'
_symmetry_space_group_name_H-M	'P1'
_symmetry_Int_Tables_number	1
_symmetry_cell_setting	triclinic
loop_
_symmetry_equiv_pos_as_xyz
  x,y,z
_cell_length_a	8.597187
_cell_length_b	11.792254
_cell_length_c	7.681481
_cell_angle_alpha	84.218036
_cell_angle_beta	88.166928
_cell_angle_gamma	84.768036
loop_
_atom_site_label
_atom_site_type_symbol
_atom_site_fract_x
_atom_site_fract_y
_atom_site_fract_z
O1	O	2.038038	0.202356	-0.455624
O2	O	1.588082	0.210417	-0.387364
O3	O	1.823970	0.041409	-0.423137
O4	O	1.802149	0.371363	-0.419851
O5	O	1.853003	0.020558	-0.134682
O6	O	1.617115	0.189566	-0.098909
O7	O	2.067071	0.181505	-0.167169
Zn8	Zn	1.846703	0.182225	-0.087241
Zn9	Zn	1.808450	0.209697	-0.467292
O10	O	1.831183	0.350513	-0.131397
C11	C	1.544994	0.197964	-0.234398
C12	C	1.373351	0.191908	-0.208359
C13	C	1.837112	-0.011331	-0.278701
C14	C	1.832998	-0.137417	-0.278079
C15	C	1.829655	-0.239813	-0.277578
C16	C	1.825474	-0.368272	-0.276960
C17	C	2.110158	0.193958	-0.320139
C18	C	2.281800	0.200014	-0.346190
C19	C	1.818040	0.403253	-0.275836
C20	C	1.822153	0.529340	-0.276470
N21	N	1.872821	0.163476	0.172133
N22	N	1.782344	0.228437	-0.726668
H23	H	1.689986	0.294742	0.212141
H24	H	1.965196	0.097175	0.233330
H25	H	1.320416	0.180349	-0.070445
O26	O	1.351924	0.215330	-0.528884
H27	H	1.300359	0.296716	-0.597666
