data_functionalizedCrystal
_audit_creation_method	'MofGen! by Chris Wilmer'
_symmetry_space_group_name_H-M	'P1'
_symmetry_Int_Tables_number	1
_symmetry_cell_setting	triclinic
loop_
_symmetry_equiv_pos_as_xyz
  x,y,z
_cell_length_a	19.805407
_cell_length_b	29.839131
_cell_length_c	19.805398
_cell_angle_alpha	89.964445
_cell_angle_beta	89.984135
_cell_angle_gamma	90.035228
loop_
_atom_site_label
_atom_site_type_symbol
_atom_site_fract_x
_atom_site_fract_y
_atom_site_fract_z
Zn1	Zn	1.034669	-0.178871	-0.382674
Zn2	Zn	1.034574	-0.253997	-0.269467
Zn3	Zn	0.921491	-0.178881	-0.269499
Zn4	Zn	0.921430	-0.253975	-0.382614
O5	O	0.978041	-0.216431	-0.326063
O6	O	1.129373	-0.188841	-0.367669
O7	O	1.019559	-0.244046	-0.174755
O8	O	0.936570	-0.116013	-0.284551
O9	O	1.129303	-0.244036	-0.284496
O10	O	1.019722	-0.116005	-0.367700
O11	O	0.936478	-0.188859	-0.174778
O12	O	0.826767	-0.188838	-0.284492
O13	O	0.936466	-0.243999	-0.477338
O14	O	0.826722	-0.244009	-0.367597
O15	O	1.019662	-0.188820	-0.477383
O16	O	1.019500	-0.316861	-0.284437
O17	O	0.936373	-0.316845	-0.367566
C18	C	0.802185	-0.216422	-0.326042
C19	C	0.726953	-0.216430	-0.326048
C20	C	0.691603	-0.245200	-0.369251
C21	C	0.620915	-0.245201	-0.369261
C22	C	0.585578	-0.216433	-0.326063
C23	C	0.620933	-0.187659	-0.282859
C24	C	0.691620	-0.187656	-0.282853
C25	C	0.335859	-0.187669	-0.282881
C26	C	0.265167	-0.187675	-0.282889
C27	C	0.265155	-0.245214	-0.369289
C28	C	0.335842	-0.245211	-0.369283
C29	C	0.371190	-0.216436	-0.326081
C30	C	0.447839	-0.216434	-0.326072
C31	C	0.508931	-0.216436	-0.326068
C32	C	0.977938	-0.333154	-0.326006
C33	C	0.977956	-0.383088	-0.326005
C34	C	1.021329	-0.692693	-0.369421
C35	C	1.021402	-0.880366	-0.369462
O36	O	1.058178	-0.904597	-0.406334
N37	N	0.978156	-0.903873	-0.326139
C38	C	0.934886	-0.880459	-0.282805
O39	O	0.898099	-0.904760	-0.245962
C40	C	0.934809	-0.692787	-0.282769
C41	C	0.978063	-0.669282	-0.326090
C42	C	1.064578	-0.669187	-0.412739
C43	C	1.064562	-0.622272	-0.412726
C44	C	1.021296	-0.598862	-0.369395
C45	C	0.978047	-0.622367	-0.326077
C46	C	0.891536	-0.669374	-0.239439
C47	C	0.891519	-0.622453	-0.239435
C48	C	0.934773	-0.598948	-0.282756
C49	C	0.934765	-0.552041	-0.282732
N50	N	0.978011	-0.528533	-0.326055
C51	C	1.021277	-0.551944	-0.369386
C52	C	0.934930	-0.978990	-0.282827
C53	C	0.934950	-1.025908	-0.282835
C54	C	1.021465	-1.025811	-0.369492
C55	C	1.021449	-0.978892	-0.369480
C56	C	0.978176	-0.955482	-0.326150
C57	C	1.021240	-0.453418	-0.369355
C58	C	1.021222	-0.406498	-0.369336
C59	C	0.934704	-0.406599	-0.282681
C60	C	0.934724	-0.453515	-0.282698
C61	C	0.977994	-0.476923	-0.326040
O62	O	0.898003	-0.527780	-0.245885
O63	O	1.058047	-0.527635	-0.406235
C64	C	1.021345	-0.739608	-0.369434
C65	C	0.978095	-0.763113	-0.326116
C66	C	0.934830	-0.739703	-0.282785
C67	C	0.978115	-0.810031	-0.326124
C68	C	1.021381	-0.833441	-0.369456
C69	C	1.064627	-0.809934	-0.412779
C70	C	1.064611	-0.763018	-0.412766
C71	C	0.891583	-0.763210	-0.239462
C72	C	0.891604	-0.810126	-0.239478
C73	C	0.934870	-0.833536	-0.282809
C74	C	1.154584	-0.216440	-0.326086
C75	C	1.229816	-0.216444	-0.326095
C76	C	0.978068	-0.216406	-0.502606
C77	C	0.978079	-0.216395	-0.577838
C78	C	0.978163	-0.099253	-0.326136
C79	C	0.978215	-0.049318	-0.326166
C80	C	1.021481	-0.187585	-1.039654
C81	C	1.021470	-0.187598	-0.968965
C82	C	0.978149	-0.216333	-0.933600
C83	C	0.934839	-0.245059	-0.968927
C84	C	0.934854	-0.245047	-1.039614
C85	C	0.934780	-0.245108	-0.683854
C86	C	0.934768	-0.245116	-0.613162
C87	C	1.021397	-0.187659	-0.613205
C88	C	1.021412	-0.187647	-0.683892
C89	C	0.978105	-0.216375	-0.719213
C90	C	0.978118	-0.216360	-0.795861
C91	C	0.978132	-0.216346	-0.856953
C92	C	0.978054	-0.216423	-0.150208
C93	C	0.978174	-0.216307	-0.074976
H94	H	1.056446	-0.387362	-0.404613
O95	O	0.370063	-0.273170	-0.411309
C96	C	0.362588	-0.330260	-0.496985
C97	C	0.323750	-0.298612	-0.449433
H98	H	0.325161	-0.350845	-0.527811
H99	H	0.395693	-0.309684	-0.532479
H100	H	0.395671	-0.353702	-0.465828
H101	H	0.290631	-0.275164	-0.480536
H102	H	0.290688	-0.319216	-0.413938
O103	O	1.063525	-0.159796	-0.718321
C104	C	1.154951	-0.153744	-0.798115
C105	C	1.107289	-0.185335	-0.759178
H106	H	1.190356	-0.174380	-0.831147
H107	H	1.123940	-0.130255	-0.831264
H108	H	1.185873	-0.133205	-0.760716
H109	H	1.076357	-0.205903	-0.796529
H110	H	1.138339	-0.208795	-0.726019
H111	H	1.099858	-0.829003	-0.448059
H112	H	0.592136	-0.268629	-0.404440
O113	O	0.892682	-0.476401	-0.240705
C114	C	0.801294	-0.529406	-0.231531
C115	C	0.848879	-0.503527	-0.279158
H116	H	0.765857	-0.551337	-0.262601
H117	H	0.832363	-0.551406	-0.196188
H118	H	0.770401	-0.504606	-0.200539
H119	H	0.879781	-0.528296	-0.310193
H120	H	0.817771	-0.481521	-0.314456
H121	H	1.099832	-0.743884	-0.448042
O122	O	0.230711	-0.273121	-0.411240
C123	C	0.121809	-0.298648	-0.449519
C124	C	0.160729	-0.267013	-0.401990
H125	H	0.065222	-0.293728	-0.442047
H126	H	0.135686	-0.290808	-0.504133
H127	H	0.135714	-0.334857	-0.437529
H128	H	0.146845	-0.230794	-0.413919
H129	H	0.146849	-0.274892	-0.347390
H130	H	0.899485	-0.268515	-0.584369
O131	O	0.892688	-0.272951	-0.718240
C132	C	0.801305	-0.278991	-0.798023
C133	C	0.848938	-0.247405	-0.759127
H134	H	0.765912	-0.258350	-0.831079
H135	H	0.832339	-0.302468	-0.831144
H136	H	0.770369	-0.299544	-0.760597
H137	H	0.879885	-0.226824	-0.796504
H138	H	0.817865	-0.223959	-0.725996
H139	H	1.056737	-0.164210	-0.940209
O140	O	0.892848	-0.272933	-1.074033
C141	C	0.854450	-0.298364	-1.182914
C142	C	0.902065	-0.266765	-1.144020
H143	H	0.861876	-0.293381	-1.239505
H144	H	0.866299	-0.334602	-1.169045
H145	H	0.799885	-0.290481	-1.168977
H146	H	0.956647	-0.274607	-1.157936
H147	H	0.890159	-0.230536	-1.157892
H148	H	0.720370	-0.268628	-0.404425
H149	H	1.099781	-0.603137	-0.448004
O150	O	0.849520	-0.832886	-0.197370
C151	C	0.763726	-0.828017	-0.111398
C152	C	0.811343	-0.802188	-0.159054
H153	H	0.732858	-0.803209	-0.080397
H154	H	0.728275	-0.849972	-0.142416
H155	H	0.794835	-0.849999	-0.076066
H156	H	0.780289	-0.780182	-0.194395
H157	H	0.846796	-0.780262	-0.127994
O158	O	0.586681	-0.159735	-0.240804
C159	C	0.564995	-0.137843	-0.125736
C160	C	0.603838	-0.169487	-0.173289
H161	H	0.578842	-0.145722	-0.071140
H162	H	0.578939	-0.101620	-0.137673
H163	H	0.508404	-0.142781	-0.133196
H164	H	0.660437	-0.164589	-0.165855
H165	H	0.589838	-0.205698	-0.161340
O166	O	0.892580	-0.383902	-0.240629
C167	C	0.777456	-0.369598	-0.207716
C168	C	0.825091	-0.395341	-0.255364
H169	H	0.722881	-0.378830	-0.219621
H170	H	0.789314	-0.378847	-0.153136
H171	H	0.784912	-0.332031	-0.215148
H172	H	0.817662	-0.432914	-0.247993
H173	H	0.813221	-0.386055	-0.309927
H174	H	0.236397	-0.164246	-0.247712
O175	O	1.063448	-0.159796	-0.578788
C176	C	1.101791	-0.134323	-0.469911
C177	C	1.054152	-0.165909	-0.508800
H178	H	1.094282	-0.139248	-0.413319
H179	H	1.156379	-0.142210	-0.483760
H180	H	1.089946	-0.098102	-0.483871
H181	H	1.065936	-0.202142	-0.494861
H182	H	0.999578	-0.157984	-0.494948
H183	H	1.056695	-1.044879	-0.404774
O184	O	0.370086	-0.159703	-0.240853
C185	C	0.362633	-0.102608	-0.155190
C186	C	0.323783	-0.134266	-0.202741
H187	H	0.325214	-0.082027	-0.124374
H188	H	0.395683	-0.123174	-0.119687
H189	H	0.395771	-0.079162	-0.186347
H190	H	0.290608	-0.157718	-0.171639
H191	H	0.290776	-0.113672	-0.238246
H192	H	0.856350	-0.744153	-0.204177
O193	O	0.726037	-0.159773	-0.240851
C194	C	0.805790	-0.153646	-0.149456
C195	C	0.766867	-0.185277	-0.196989
H196	H	0.838800	-0.174254	-0.113972
H197	H	0.838959	-0.130190	-0.180562
H198	H	0.768381	-0.133075	-0.118611
H199	H	0.804227	-0.205877	-0.227844
H200	H	0.733687	-0.208704	-0.165844
H201	H	1.099811	-0.688243	-0.448029
O202	O	0.892875	-0.956323	-0.240664
C203	C	0.807045	-0.961383	-0.154735
C204	C	0.854644	-0.987106	-0.202442
H205	H	0.776113	-0.986260	-0.123830
H206	H	0.838102	-0.939430	-0.119321
H207	H	0.771646	-0.939410	-0.185775
H208	H	0.890053	-1.009103	-0.171456
H209	H	0.823545	-1.009031	-0.237857
H210	H	1.056470	-0.472471	-0.404653
O211	O	1.063481	-0.956131	-0.411631
C212	C	1.149320	-0.960999	-0.497557
C213	C	1.101743	-0.986829	-0.449863
H214	H	1.180278	-0.985808	-0.528470
H215	H	1.118245	-0.939050	-0.532964
H216	H	1.184697	-0.939013	-0.466507
H217	H	1.066357	-1.008839	-0.480859
H218	H	1.132861	-1.008750	-0.414454
H219	H	0.899569	-0.268457	-0.940127
H220	H	0.899735	-1.045042	-0.247551
H221	H	1.056755	-0.164183	-1.068443
O222	O	0.849415	-0.692177	-0.197432
C223	C	0.734299	-0.706572	-0.164462
C224	C	0.781930	-0.680730	-0.212089
H225	H	0.679728	-0.697319	-0.176286
H226	H	0.741671	-0.744134	-0.171903
H227	H	0.746246	-0.697369	-0.109898
H228	H	0.770012	-0.689895	-0.266671
H229	H	0.774549	-0.643174	-0.204589
O230	O	0.849412	-0.599693	-0.197438
C231	C	0.758040	-0.546760	-0.188234
C232	C	0.805671	-0.572514	-0.235872
H233	H	0.722673	-0.524773	-0.219287
H234	H	0.727082	-0.571601	-0.157287
H235	H	0.789142	-0.524815	-0.152850
H236	H	0.774621	-0.594460	-0.271297
H237	H	0.836631	-0.547649	-0.266770
