data_functionalizedCrystal
_audit_creation_method	'MofGen! by Chris Wilmer'
_symmetry_space_group_name_H-M	'P1'
_symmetry_Int_Tables_number	1
_symmetry_cell_setting	triclinic
loop_
_symmetry_equiv_pos_as_xyz
  x,y,z
_cell_length_a	17.699083
_cell_length_b	16.176319
_cell_length_c	17.699083
_cell_angle_alpha	90.000352
_cell_angle_beta	83.283014
_cell_angle_gamma	90.001389
loop_
_atom_site_label
_atom_site_type_symbol
_atom_site_fract_x
_atom_site_fract_y
_atom_site_fract_z
O1	O	1.004079	0.068619	0.095713
O2	O	1.504079	0.568619	0.595713
O3	O	0.783700	0.068644	0.108166
O4	O	1.283700	0.568644	0.608166
O5	O	0.900116	0.068639	-0.008250
O6	O	1.400116	0.568639	0.491750
O7	O	0.887663	0.068624	0.212129
O8	O	1.387663	0.568624	0.712129
O9	O	0.900100	-0.068854	-0.008257
O10	O	1.400100	0.431146	0.491743
O11	O	0.783684	-0.068849	0.108158
O12	O	1.283684	0.431151	0.608158
O13	O	1.004063	-0.068874	0.095706
O14	O	1.504063	0.431126	0.595706
Cu15	Cu	0.893872	-0.081416	0.101931
Cu16	Cu	1.393872	0.418584	0.601931
Cu17	Cu	0.893891	0.081186	0.101940
Cu18	Cu	1.393891	0.581186	0.601940
O19	O	0.887647	-0.068869	0.212121
O20	O	1.387647	0.431131	0.712121
C21	C	0.755495	-0.000099	0.107716
C22	C	1.255495	0.499901	0.607716
C23	C	0.671477	-0.000088	0.106377
C24	C	1.171477	0.499912	0.606377
N25	N	0.893864	-0.195781	0.101925
N26	N	1.393864	0.304219	0.601925
C27	C	0.622856	-0.000093	0.174710
C28	C	1.122856	0.499907	0.674710
C29	C	0.543913	-0.000104	0.173448
C30	C	1.043913	0.499896	0.673448
C31	C	0.513592	-0.000104	0.103852
C32	C	1.013592	0.499896	0.603852
C33	C	0.562219	-0.000101	0.035513
C34	C	1.062219	0.499899	0.535513
C35	C	0.641161	-0.000097	0.036776
C36	C	1.141161	0.499903	0.536776
C37	C	0.243856	-0.000121	0.030418
C38	C	0.743856	0.499879	0.530418
C39	C	0.164908	-0.000124	0.029160
C40	C	0.664908	0.499876	0.529160
C41	C	0.146608	-0.000129	0.167090
C42	C	0.646608	0.499871	0.667090
C43	C	0.225550	-0.000124	0.168353
C44	C	0.725550	0.499876	0.668353
C45	C	0.274170	-0.000126	0.100015
C46	C	0.774170	0.499874	0.600015
C47	C	0.359769	-0.000116	0.101384
C48	C	0.859769	0.499884	0.601384
C49	C	0.427995	-0.000108	0.102481
C50	C	0.927995	0.499892	0.602481
C51	C	0.945429	-0.239048	0.050397
C52	C	1.445429	0.260952	0.550397
C53	C	0.945432	-0.325595	0.050396
C54	C	1.445432	0.174405	0.550396
C55	C	0.893875	-0.368874	0.101927
C56	C	1.393875	0.131126	0.601927
C57	C	0.842305	-0.325601	0.153457
C58	C	1.342305	0.174399	0.653457
C59	C	0.842299	-0.239055	0.153454
C60	C	1.342299	0.260945	0.653454
C61	C	0.842331	-0.674629	0.153472
C62	C	1.342331	-0.174629	0.653472
C63	C	0.842344	-0.761181	0.153473
C64	C	1.342344	-0.261181	0.653473
C65	C	0.945465	-0.761168	0.050414
C66	C	1.445465	-0.261168	0.550414
C67	C	0.945458	-0.674623	0.050410
C68	C	1.445458	-0.174623	0.550410
C69	C	0.893886	-0.631358	0.101937
C70	C	1.393886	-0.131358	0.601937
C71	C	0.893882	-0.537514	0.101937
C72	C	1.393882	-0.037514	0.601937
C73	C	0.893883	-0.462716	0.101932
C74	C	1.393883	0.037284	0.601932
C75	C	1.032268	-0.000129	0.096156
C76	C	1.532268	0.499871	0.596156
C77	C	1.116286	-0.000134	0.097494
C78	C	1.616286	0.499866	0.597494
C79	C	0.899662	-0.000104	-0.036451
C80	C	1.399662	0.499896	0.463549
C81	C	0.898323	-0.000092	-0.120469
C82	C	1.398323	0.499908	0.379531
N83	N	0.893905	0.195551	0.101941
N84	N	1.393905	0.695551	0.601941
C85	C	0.888102	-0.000124	0.240322
C86	C	1.388102	0.499876	0.740322
C87	C	0.889440	-0.000131	0.324340
C88	C	1.389440	0.499869	0.824340
C89	C	0.821107	-0.000123	0.372961
C90	C	1.321107	0.499877	0.872961
C91	C	0.822369	-0.000113	0.451904
C92	C	1.322369	0.499887	0.951904
C93	C	0.891965	-0.000117	0.482225
C94	C	1.391965	0.499883	0.982225
C95	C	0.960304	-0.000123	0.433598
C96	C	1.460304	0.499877	0.933598
C97	C	0.959041	-0.000126	0.354656
C98	C	1.459041	0.499874	0.854656
C99	C	0.965399	-0.000107	0.751961
C100	C	1.465399	0.499893	1.251961
C101	C	0.966657	-0.000106	0.830909
C102	C	1.466657	0.499894	1.330909
C103	C	0.828727	-0.000094	0.849209
C104	C	1.328727	0.499906	1.349209
C105	C	0.827464	-0.000097	0.770267
C106	C	1.327464	0.499903	1.270267
C107	C	0.895803	-0.000098	0.721647
C108	C	1.395803	0.499902	1.221647
C109	C	0.894433	-0.000107	0.636048
C110	C	1.394433	0.499893	1.136048
C111	C	0.893336	-0.000115	0.567823
C112	C	1.393336	0.499885	1.067823
H113	H	0.647537	-0.000093	0.231384
H114	H	1.147537	0.499907	0.731384
H115	H	0.250232	-0.000120	0.225025
H116	H	0.750232	0.499880	0.725025
H117	H	0.770792	-0.000098	0.745585
H118	H	1.270792	0.499902	1.245585
H119	H	0.283434	-0.000124	-0.025228
H120	H	0.783434	0.499876	0.474772
H121	H	0.504328	-0.000107	0.229092
H122	H	1.004328	0.499893	0.729092
H123	H	0.773083	-0.000090	0.888806
H124	H	1.273083	0.499910	1.388806
H125	H	0.987456	-0.796404	0.008455
H126	H	1.487456	-0.296404	0.508455
H127	H	0.537526	-0.000113	-0.021154
H128	H	1.037526	0.499887	0.478846
H129	H	0.987416	-0.203816	0.008438
H130	H	1.487416	0.296184	0.508438
H131	H	0.987419	-0.360822	0.008438
H132	H	1.487419	0.139178	0.508438
H133	H	0.107012	-0.000131	0.222734
H134	H	0.607012	0.499869	0.722734
H135	H	0.987444	-0.639388	0.008451
H136	H	1.487444	-0.139388	0.508451
H137	H	0.140225	-0.000125	-0.027517
H138	H	0.640225	0.499875	0.472483
H139	H	0.680748	-0.000092	-0.018868
H140	H	1.180748	0.499908	0.481132
H141	H	0.800309	-0.203829	0.195412
H142	H	1.300309	0.296171	0.695412
H143	H	0.800357	-0.796417	0.195437
H144	H	1.300357	-0.296417	0.695437
H145	H	1.016971	-0.000128	0.458291
H146	H	1.516971	0.499872	0.958291
H147	H	1.014685	-0.000129	0.315069
H148	H	1.514685	0.499871	0.815069
H149	H	0.800341	-0.639410	0.195428
H150	H	1.300341	-0.139410	0.695428
H151	H	0.800323	-0.360844	0.195413
H152	H	1.300323	0.139156	0.695413
H153	H	0.764433	-0.000129	0.348280
H154	H	1.264433	0.499871	0.848280
H155	H	0.766725	-0.000104	0.491489
H156	H	1.266725	0.499896	0.991489
H157	H	1.023334	-0.000108	0.855592
H158	H	1.523334	0.499892	1.355592
H159	H	1.021045	-0.000113	0.712383
H160	H	1.521045	0.499887	1.212383
