data_functionalizedCrystal
_audit_creation_method	'MofGen! by Chris Wilmer'
_symmetry_space_group_name_H-M	'P1'
_symmetry_Int_Tables_number	1
_symmetry_cell_setting	triclinic
loop_
_symmetry_equiv_pos_as_xyz
  x,y,z
_cell_length_a	12.759401
_cell_length_b	16.959453
_cell_length_c	12.759393
_cell_angle_alpha	90.035042
_cell_angle_beta	90.018496
_cell_angle_gamma	90.020149
loop_
_atom_site_label
_atom_site_type_symbol
_atom_site_fract_x
_atom_site_fract_y
_atom_site_fract_z
Zn1	Zn	1.606217	-0.314632	0.593956
Zn2	Zn	2.106217	0.185368	1.093956
Zn3	Zn	1.606095	-0.446833	0.418265
Zn4	Zn	2.106095	0.053167	0.918265
Zn5	Zn	1.430519	-0.314673	0.418295
Zn6	Zn	1.930519	0.185327	0.918295
Zn7	Zn	1.430491	-0.446772	0.593907
Zn8	Zn	1.930491	0.053228	1.093907
O9	O	1.518330	-0.380727	0.506106
O10	O	2.018330	0.119273	1.006106
O11	O	1.753222	-0.332177	0.570658
O12	O	2.253222	0.167823	1.070658
O13	O	1.582765	-0.429345	0.271248
O14	O	2.082765	0.070655	0.771248
O15	O	1.453888	-0.204057	0.441630
O16	O	1.953888	0.295943	0.941630
O17	O	1.753132	-0.429304	0.441579
O18	O	2.253132	0.070696	0.941579
O19	O	1.582973	-0.204026	0.570687
O20	O	2.082973	0.295974	1.070687
O21	O	1.453770	-0.332247	0.271270
O22	O	1.953770	0.167753	0.771270
O23	O	1.283494	-0.332188	0.441583
O24	O	1.783494	0.167812	0.941583
O25	O	1.453841	-0.429201	0.740935
O26	O	1.953841	0.070799	1.240935
O27	O	1.283474	-0.429241	0.570604
O28	O	1.783474	0.070759	1.070604
O29	O	1.582946	-0.332118	0.740971
O30	O	2.082946	0.167882	1.240971
O31	O	1.582738	-0.557436	0.441532
O32	O	2.082738	-0.057436	0.941532
O33	O	1.453723	-0.557391	0.570575
O34	O	1.953723	-0.057391	1.070575
C35	C	1.245363	-0.380713	0.506092
C36	C	1.745363	0.119287	1.006092
C37	C	1.128586	-0.380726	0.506110
C38	C	1.628586	0.119274	1.006110
C39	C	1.073741	-0.431342	0.573181
C40	C	1.573741	0.068658	1.073181
C41	C	0.964017	-0.431352	0.573192
C42	C	1.464017	0.068648	1.073192
C43	C	0.963993	-0.330127	0.439054
C44	C	1.463993	0.169873	0.939054
C45	C	1.073715	-0.330114	0.439049
C46	C	1.573715	0.169886	0.939049
C47	C	1.073754	-0.489786	0.650621
C48	C	1.573754	0.010214	1.150621
C49	C	0.964030	-0.489796	0.650632
C50	C	1.464030	0.010204	1.150632
C51	C	1.518243	-0.586094	0.506067
C52	C	2.018243	-0.086094	1.006067
C53	C	1.518301	-0.673950	0.506086
C54	C	2.018301	-0.173950	1.006086
C55	C	1.585631	-1.045352	0.573433
C56	C	2.085631	-0.545352	1.073433
C57	C	1.451323	-1.045500	0.438935
C58	C	1.951323	-0.545500	0.938935
C59	C	1.451284	-0.962954	0.438911
C60	C	1.951284	-0.462954	0.938911
C61	C	1.518419	-0.921603	0.506150
C62	C	2.018419	-0.421603	1.006150
C63	C	1.585592	-0.962798	0.573413
C64	C	2.085592	-0.462798	1.073413
C65	C	1.384105	-0.921753	0.371657
C66	C	1.884105	-0.421753	0.871657
C67	C	1.384063	-0.839202	0.371631
C68	C	1.884063	-0.339202	0.871631
C69	C	1.451203	-0.797850	0.438865
C70	C	1.951203	-0.297850	0.938865
C71	C	1.518379	-0.839050	0.506130
C72	C	2.018379	-0.339050	1.006130
C73	C	1.585514	-0.797699	0.573369
C74	C	2.085514	-0.297699	1.073369
C75	C	1.652696	-0.838897	0.640629
C76	C	2.152696	-0.338897	1.140629
C77	C	1.652732	-0.921445	0.640647
C78	C	2.152732	-0.421445	1.140647
C79	C	1.451167	-0.715301	0.438847
C80	C	1.951167	-0.215301	0.938847
C81	C	1.585475	-0.715145	0.573349
C82	C	2.085475	-0.215145	1.073349
C83	C	1.792364	-0.380743	0.506121
C84	C	2.292364	0.119257	1.006121
C85	C	1.909140	-0.380749	0.506127
C86	C	2.409140	0.119251	1.006127
C87	C	1.518404	-0.380648	0.780139
C88	C	2.018404	0.119352	1.280139
C89	C	1.518435	-0.380614	0.896916
C90	C	2.018435	0.119386	1.396916
C91	C	1.518447	-0.174559	0.506168
C92	C	2.018447	0.325441	1.006168
C93	C	1.518497	-0.086703	0.506194
C94	C	2.018497	0.413297	1.006194
C95	C	1.518318	-0.380750	0.233139
C96	C	2.018318	0.119250	0.733139
C97	C	1.518490	-0.380561	0.116362
C98	C	2.018490	0.119439	0.616362
C99	C	1.585669	-0.330058	0.951799
C100	C	2.085669	0.169942	1.451799
C101	C	1.585694	-0.330029	1.061523
C102	C	2.085694	0.169971	1.561523
C103	C	1.451248	-0.431120	1.061472
C104	C	1.951248	0.068880	1.561472
C105	C	1.451219	-0.431144	0.951750
C106	C	1.951219	0.068856	1.451750
C107	C	1.663294	-0.271696	0.951829
C108	C	2.163294	0.228304	1.451829
C109	C	1.663319	-0.271668	1.061553
C110	C	2.163319	0.228332	1.561553
H111	H	1.118366	-0.288892	0.384441
H112	H	1.618366	0.211108	0.884441
Cl113	Cl	0.895005	-0.266504	0.354754
Cl114	Cl	1.395005	0.233496	0.854754
Cl115	Cl	0.911535	-0.456060	0.770056
Cl116	Cl	1.411535	0.043940	1.270056
Cl117	Cl	0.918008	-0.584278	0.616728
Cl118	Cl	1.418008	-0.084278	1.116728
H119	H	1.640148	-0.681482	0.628100
H120	H	2.140148	-0.181482	1.128100
Cl121	Cl	1.119788	-0.464582	0.776304
Cl122	Cl	1.619788	0.035418	1.276304
H123	H	1.707428	-0.954996	0.695408
H124	H	2.207428	-0.454996	1.195408
H125	H	1.396466	-0.472308	0.907069
H126	H	1.896466	0.027692	1.407069
H127	H	1.707353	-0.805219	0.695381
H128	H	2.207353	-0.305219	1.195381
Cl129	Cl	1.670088	-1.097141	0.657981
Cl130	Cl	2.170088	-0.597141	1.157981
H131	H	1.641533	-0.210482	0.922078
H132	H	2.141533	0.289518	1.422078
Cl133	Cl	1.782591	-0.305573	0.899268
Cl134	Cl	2.282591	0.194427	1.399268
Cl135	Cl	1.126267	-0.579546	0.605502
Cl136	Cl	1.626267	-0.079546	1.105502
Cl137	Cl	1.366916	-1.097485	0.354426
Cl138	Cl	1.866916	-0.597485	0.854426
H139	H	1.634213	-0.213504	1.095605
H140	H	2.134213	0.286496	1.595605
Cl141	Cl	1.788945	-0.296970	1.107535
Cl142	Cl	2.288945	0.203030	1.607535
Cl143	Cl	1.299604	-0.787418	0.287079
Cl144	Cl	1.799604	-0.287418	0.787079
Cl145	Cl	1.299693	-0.973741	0.287154
Cl146	Cl	1.799693	-0.473741	0.787154
Cl147	Cl	1.366752	-0.494639	1.130414
Cl148	Cl	1.866752	0.005361	1.630414
H149	H	1.396463	-0.681762	0.384090
H150	H	1.896463	-0.181762	0.884090
