data_functionalizedCrystal
_audit_creation_method	'MofGen! by Chris Wilmer'
_symmetry_space_group_name_H-M	'P1'
_symmetry_Int_Tables_number	1
_symmetry_cell_setting	triclinic
loop_
_symmetry_equiv_pos_as_xyz
  x,y,z
_cell_length_a	9.065218
_cell_length_b	11.295501
_cell_length_c	9.065218
_cell_angle_alpha	85.458250
_cell_angle_beta	94.984115
_cell_angle_gamma	94.543838
loop_
_atom_site_label
_atom_site_type_symbol
_atom_site_fract_x
_atom_site_fract_y
_atom_site_fract_z
O1	O	1.969386	0.099023	-0.225340
O2	O	1.540101	0.099024	-0.243087
O3	O	1.763617	0.099021	-0.019571
O4	O	1.745871	0.099026	-0.448856
O5	O	1.745628	-0.099030	-0.001596
O6	O	1.522112	-0.099026	-0.225112
O7	O	1.951397	-0.099028	-0.207366
Cu8	Cu	1.735112	-0.117111	-0.214598
Cu9	Cu	1.756386	0.117107	-0.235855
O10	O	1.727882	-0.099025	-0.430882
C11	C	1.476120	-0.000001	-0.232394
C12	C	1.312277	-0.000000	-0.227294
N13	N	1.720160	-0.281847	-0.199646
C14	C	1.878972	-0.531136	-0.358500
C15	C	1.867683	-0.655800	-0.347188
C16	C	1.686303	-0.655840	-0.165705
C17	C	1.697591	-0.531177	-0.177016
C18	C	1.793927	-0.468829	-0.273418
C19	C	1.805207	-0.344163	-0.284737
C20	C	1.623835	-0.344206	-0.103246
C21	C	1.612547	-0.468869	-0.091935
C22	C	2.015378	0.000000	-0.218059
C23	C	2.179222	0.000007	-0.223159
C24	C	1.752917	-0.000002	0.044403
C25	C	1.747818	0.000003	0.208245
N26	N	1.771350	0.281844	-0.250795
C27	C	1.738582	0.000001	-0.494856
C28	C	1.743682	0.000004	-0.658699
H29	H	1.957398	-0.480372	-0.437008
H30	H	1.607886	-0.706625	-0.087202
O31	O	1.541121	-0.283559	-0.020825
C32	C	1.448141	-0.211507	-0.115968
H33	H	1.497241	-0.192809	-0.227773
H34	H	1.438804	-0.123852	-0.064385
H35	H	1.333196	-0.259595	-0.132681
H36	H	1.883642	-0.293401	-0.363238
H37	H	1.936937	-0.706526	-0.416469
H38	H	1.534118	-0.519650	-0.013442
