data_functionalizedCrystal
_audit_creation_method	'MofGen! by Chris Wilmer'
_symmetry_space_group_name_H-M	'P1'
_symmetry_Int_Tables_number	1
_symmetry_cell_setting	triclinic
loop_
_symmetry_equiv_pos_as_xyz
  x,y,z
_cell_length_a	17.077404
_cell_length_b	12.759400
_cell_length_c	12.759386
_cell_angle_alpha	89.936484
_cell_angle_beta	89.955398
_cell_angle_gamma	90.014910
loop_
_atom_site_label
_atom_site_type_symbol
_atom_site_fract_x
_atom_site_fract_y
_atom_site_fract_z
Zn1	Zn	1.200294	-0.417867	-0.594069
Zn2	Zn	1.700294	0.082133	-0.094069
Zn3	Zn	1.200162	-0.593683	-0.418389
Zn4	Zn	1.700162	-0.093683	0.081611
Zn5	Zn	1.068968	-0.418020	-0.418399
Zn6	Zn	1.568968	0.081980	0.081601
Zn7	Zn	1.069012	-0.593505	-0.594021
Zn8	Zn	1.569012	-0.093505	-0.094021
O9	O	1.134609	-0.505769	-0.506219
O10	O	1.634609	-0.005769	-0.006219
O11	O	1.310123	-0.441200	-0.570780
O12	O	1.810123	0.058800	-0.070780
O13	O	1.182685	-0.570520	-0.271369
O14	O	1.682685	-0.070520	0.228631
O15	O	1.086425	-0.270978	-0.441726
O16	O	1.586425	0.229022	0.058274
O17	O	1.310027	-0.570372	-0.441709
O18	O	1.810027	-0.070372	0.058291
O19	O	1.182910	-0.270866	-0.570790
O20	O	1.682910	0.229134	-0.070790
O21	O	1.086298	-0.441461	-0.271376
O22	O	1.586298	0.058539	0.228624
O23	O	0.959127	-0.441288	-0.441679
O24	O	1.459127	0.058712	0.058321
O25	O	1.086501	-0.570067	-0.741049
O26	O	1.586501	-0.070067	-0.241049
O27	O	0.959160	-0.570216	-0.570708
O28	O	1.459160	-0.070216	-0.070708
O29	O	1.182953	-0.441027	-0.741084
O30	O	1.682953	0.058973	-0.241084
O31	O	1.182728	-0.740681	-0.441663
O32	O	1.682728	-0.240681	0.058337
O33	O	1.086373	-0.740550	-0.570699
O34	O	1.586373	-0.240550	-0.070699
C35	C	0.930661	-0.505750	-0.506190
C36	C	1.430661	-0.005750	-0.006190
C37	C	0.843412	-0.505767	-0.506203
C38	C	1.343412	-0.005767	-0.006203
C39	C	0.802459	-0.573001	-0.573280
C40	C	1.302459	-0.073001	-0.073280
C41	C	0.720478	-0.573003	-0.573297
C42	C	1.220478	-0.073003	-0.073297
C43	C	0.679452	-0.505776	-0.506230
C44	C	1.179452	-0.005776	-0.006230
C45	C	0.720411	-0.438534	-0.439150
C46	C	1.220411	0.061466	0.060850
C47	C	0.802390	-0.438527	-0.439139
C48	C	1.302390	0.061473	0.060861
C49	C	0.549541	-0.438555	-0.439175
C50	C	1.049541	0.061445	0.060825
C51	C	0.467556	-0.438563	-0.439184
C52	C	0.967556	0.061437	0.060816
C53	C	0.467629	-0.573031	-0.573333
C54	C	0.967629	-0.073031	-0.073333
C55	C	0.549608	-0.573024	-0.573323
C56	C	1.049608	-0.073024	-0.073323
C57	C	0.590561	-0.505783	-0.506240
C58	C	1.090561	-0.005783	-0.006240
C59	C	1.134563	-0.778736	-0.506197
C60	C	1.634563	-0.278736	-0.006197
C61	C	1.134615	-0.895513	-0.506223
C62	C	1.634615	-0.395513	-0.006223
C63	C	1.184842	-0.950408	-0.439108
C64	C	1.684842	-0.450408	0.060892
C65	C	1.184891	-1.060132	-0.439141
C66	C	1.684891	-0.560132	0.060859
C67	C	1.084476	-1.060056	-0.573406
C68	C	1.584476	-0.560056	-0.073406
C69	C	1.084433	-0.950334	-0.573378
C70	C	1.584433	-0.450334	-0.073378
C71	C	1.235024	-0.895587	-0.371954
C72	C	1.735024	-0.395587	0.128046
C73	C	1.285255	-0.950483	-0.304832
C74	C	1.785255	-0.450483	0.195168
C75	C	1.285304	-1.060207	-0.304865
C76	C	1.785304	-0.560207	0.195135
C77	C	1.235121	-1.115035	-0.372018
C78	C	1.735121	-0.615035	0.127982
C79	C	1.339353	-0.505789	-0.506249
C80	C	1.839353	-0.005789	-0.006249
C81	C	1.426603	-0.505797	-0.506262
C82	C	1.926603	-0.005797	-0.006262
C83	C	1.134746	-0.505510	-0.780253
C84	C	1.634746	-0.005510	-0.280253
C85	C	1.134805	-0.505400	-0.897030
C86	C	1.634805	-0.005400	-0.397030
C87	C	1.134677	-0.231735	-0.506264
C88	C	1.634677	0.268265	-0.006264
C89	C	1.134706	-0.114959	-0.506283
C90	C	1.634706	0.385041	-0.006283
C91	C	1.134518	-0.505951	-0.233252
C92	C	1.634518	-0.005951	0.266748
C93	C	1.134611	-0.505765	-0.116475
C94	C	1.634611	-0.005765	0.383525
C95	C	1.084811	-0.573347	-0.061299
C96	C	1.584811	-0.073347	0.438701
C97	C	1.084906	-0.573162	0.048424
C98	C	1.584906	-0.073162	0.548424
C99	C	1.184607	-0.437810	0.047786
C100	C	1.684607	0.062190	0.547786
C101	C	1.184508	-0.437991	-0.061935
C102	C	1.684508	0.062009	0.438065
C103	C	1.034914	-0.641121	-0.115839
C104	C	1.534914	-0.141121	0.384161
C105	C	0.985111	-0.708709	-0.060663
C106	C	1.485111	-0.208709	0.439337
C107	C	0.985205	-0.708524	0.049060
C108	C	1.485205	-0.208524	0.549060
C109	C	1.035103	-0.640751	0.103608
C110	C	1.535103	-0.140751	0.603608
H111	H	0.582882	-0.383791	-0.384559
H112	H	1.082882	0.116209	0.115441
H113	H	0.687138	-0.627753	-0.627918
H114	H	1.187138	-0.127753	-0.127918
H115	H	1.225056	-0.382955	-0.106861
H116	H	1.725056	0.117045	0.393139
H117	H	1.035174	-0.640603	0.192952
H118	H	1.535174	-0.140603	0.692952
H119	H	1.043619	-1.104706	-0.628078
H120	H	1.543619	-0.604706	-0.128078
H121	H	0.944647	-0.763549	0.093982
H122	H	1.444647	-0.263549	0.593982
H123	H	1.043533	-0.905637	-0.628030
H124	H	1.543533	-0.405637	-0.128030
H125	H	0.434282	-0.627777	-0.627957
H126	H	0.934282	-0.127777	-0.127957
H127	H	1.225232	-0.382633	0.092208
H128	H	1.725232	0.117367	0.592208
H129	H	1.326118	-0.905836	-0.250164
H130	H	1.826118	-0.405836	0.249836
H131	H	0.687000	-0.383792	-0.384547
H132	H	1.187000	0.116208	0.115453
H133	H	0.583010	-0.627772	-0.627929
H134	H	1.083010	-0.127772	-0.127929
H135	H	0.835732	-0.383773	-0.384523
H136	H	1.335732	0.116227	0.115477
H137	H	1.234988	-0.806244	-0.371917
H138	H	1.734988	-0.306244	0.128083
H139	H	1.326210	-1.104900	-0.250219
H140	H	1.826210	-0.604900	0.249781
H141	H	0.434155	-0.383808	-0.384585
H142	H	0.934155	0.116192	0.115415
H143	H	1.235170	-1.204380	-0.372048
H144	H	1.735170	-0.704380	0.127952
H145	H	0.835857	-0.627749	-0.627891
H146	H	1.335857	-0.127749	-0.127891
H147	H	1.034833	-0.641281	-0.205182
H148	H	1.534833	-0.141281	0.294818
H149	H	0.944480	-0.763879	-0.105083
H150	H	1.444480	-0.263879	0.394917
