data_functionalizedCrystal
_audit_creation_method	'MofGen! by Chris Wilmer'
_symmetry_space_group_name_H-M	'P1'
_symmetry_Int_Tables_number	1
_symmetry_cell_setting	triclinic
loop_
_symmetry_equiv_pos_as_xyz
  x,y,z
_cell_length_a	10.489741
_cell_length_b	10.489716
_cell_length_c	8.965430
_cell_angle_alpha	89.996741
_cell_angle_beta	90.002812
_cell_angle_gamma	95.465845
loop_
_atom_site_label
_atom_site_type_symbol
_atom_site_fract_x
_atom_site_fract_y
_atom_site_fract_z
O1	O	-0.179813	1.694059	0.124014
O2	O	-0.196738	1.322859	0.124019
O3	O	-0.002677	1.516905	0.124020
O4	O	-0.373874	1.500012	0.124013
O5	O	-0.002683	1.516915	-0.124059
O6	O	-0.196744	1.322868	-0.124060
O7	O	-0.179819	1.694068	-0.124064
Cu8	Cu	-0.188282	1.508469	-0.146714
Cu9	Cu	-0.188275	1.508458	0.146668
O10	O	-0.373880	1.500022	-0.124066
C11	C	-0.195470	1.275332	-0.000020
C12	C	-0.191665	1.133701	-0.000018
C13	C	-0.310669	1.036027	-0.000016
C14	C	-0.247788	0.958685	-0.122338
C15	C	-0.247754	0.958683	0.122249
C16	C	-0.128833	1.058225	-0.122440
C17	C	-0.128816	1.058227	0.122256
C18	C	-0.065848	0.980935	-0.000095
C19	C	-0.421409	1.501293	-0.000027
C20	C	-0.563038	1.505110	-0.000029
C21	C	-0.631167	1.628576	-0.000019
C22	C	-0.723296	1.570256	-0.122333
C23	C	-0.723268	1.570218	0.122253
C24	C	-0.653301	1.446740	-0.122444
C25	C	-0.653264	1.446719	0.122252
C26	C	-0.745365	1.388309	-0.000092
C27	C	0.044852	1.515634	-0.000015
C28	C	0.186481	1.511817	-0.000003
C29	C	-0.181087	1.741596	-0.000022
C30	C	-0.184892	1.883227	-0.000015
N31	N	-0.188287	1.508486	-0.353063
C32	C	-0.098546	1.598255	-0.450328
C33	C	-0.072721	1.482758	-0.549731
C34	C	-0.214028	1.623937	-0.549788
C35	C	-0.162404	1.392931	-0.450276
C36	C	-0.303762	1.534186	-0.450325
C37	C	-0.277986	1.418606	-0.549682
N38	N	-0.188260	1.508451	0.353017
H39	H	0.037744	0.956505	-0.000164
H40	H	-0.794798	1.286705	-0.000158
C41	C	0.066436	1.087759	0.263141
C42	C	-0.061060	1.116964	0.261867
H43	H	0.108252	1.124016	0.349346
H44	H	0.108837	1.122002	0.176330
H45	H	0.068681	0.997450	0.264636
H46	H	-0.063305	1.207274	0.260360
H47	H	-0.103473	1.082727	0.348700
H48	H	-0.298012	0.915195	0.225647
C49	C	-0.599229	1.829956	-0.128435
C50	C	-0.564114	1.765608	-0.000182
H51	H	-0.557824	1.914548	-0.128541
H52	H	-0.689390	1.833325	-0.129307
H53	H	-0.574264	1.785644	-0.214436
H54	H	-0.589088	1.809916	0.085821
H55	H	-0.473933	1.762246	0.000705
C56	C	-0.728127	1.577323	-0.389946
C57	C	-0.765162	1.640782	-0.261931
H58	H	-0.753963	1.620875	-0.476122
H59	H	-0.767601	1.491986	-0.390072
H60	H	-0.637694	1.576092	-0.390473
H61	H	-0.855596	1.642004	-0.261399
H62	H	-0.725692	1.726141	-0.261806
H63	H	-0.622475	1.394544	-0.225966
H64	H	0.024945	1.460997	-0.593397
C65	C	-0.472249	1.142016	-0.127058
C66	C	-0.450401	1.069359	-0.000172
H67	H	-0.558509	1.162602	-0.127152
H68	H	-0.456849	1.094042	-0.213978
H69	H	-0.416219	1.218693	-0.126081
H70	H	-0.506426	0.992677	-0.001155
H71	H	-0.465815	1.117334	0.086770
C72	C	-0.646282	1.441078	0.389823
C73	C	-0.611344	1.376250	0.261854
H74	H	-0.620391	1.397583	0.476014
H75	H	-0.736537	1.443667	0.391324
H76	H	-0.605591	1.525946	0.388928
H77	H	-0.652042	1.291384	0.262743
H78	H	-0.521072	1.373647	0.260353
C79	C	-0.706876	1.766556	0.261597
C80	C	-0.765080	1.640756	0.261854
H81	H	-0.732681	1.810104	0.347781
H82	H	-0.732023	1.809583	0.174750
H83	H	-0.616446	1.765295	0.262110
H84	H	-0.855511	1.642017	0.261329
H85	H	-0.739941	1.597718	0.348724
C86	C	-0.226254	1.167044	-0.442877
C87	C	-0.132842	1.261070	-0.391540
H88	H	-0.208004	1.085643	-0.406608
H89	H	-0.226091	1.166236	-0.548815
H90	H	-0.308017	1.185478	-0.408001
H91	H	-0.051079	1.242641	-0.426426
H92	H	-0.132992	1.261875	-0.285580
H93	H	-0.353870	1.342593	-0.593031
C94	C	0.124814	1.673381	-0.441597
C95	C	0.003950	1.700634	-0.391414
H96	H	0.188090	1.736577	-0.405214
H97	H	0.126038	1.673565	-0.547529
H98	H	0.142290	1.591523	-0.406055
H99	H	-0.013530	1.782489	-0.426965
H100	H	0.002723	1.700464	-0.285459
C101	C	-0.462342	1.684640	-0.441457
C102	C	-0.435563	1.563610	-0.391313
H103	H	-0.543706	1.702816	-0.405014
H104	H	-0.463068	1.685615	-0.547389
H105	H	-0.398419	1.747571	-0.405951
H106	H	-0.499480	1.500677	-0.426829
H107	H	-0.434847	1.562625	-0.285359
H108	H	-0.235812	1.721587	-0.593499
H109	H	-0.078628	1.101545	-0.225955
C110	C	-0.417795	0.812157	-0.218558
C111	C	-0.315610	0.899975	-0.261933
H112	H	-0.459666	0.775910	-0.304735
H113	H	-0.476774	0.854804	-0.160979
H114	H	-0.386238	0.746185	-0.160564
H115	H	-0.347169	0.965952	-0.319919
H116	H	-0.256621	0.857327	-0.319537
