data_functionalizedCrystal
_audit_creation_method	'MofGen! by Chris Wilmer'
_symmetry_space_group_name_H-M	'P1'
_symmetry_Int_Tables_number	1
_symmetry_cell_setting	triclinic
loop_
_symmetry_equiv_pos_as_xyz
  x,y,z
_cell_length_a	23.532407
_cell_length_b	23.532407
_cell_length_c	22.610064
_cell_angle_alpha	89.994072
_cell_angle_beta	89.999018
_cell_angle_gamma	82.848712
loop_
_atom_site_label
_atom_site_type_symbol
_atom_site_fract_x
_atom_site_fract_y
_atom_site_fract_z
O1	O	0.755259	0.069123	0.049153
O2	O	0.589395	0.079126	0.049163
O3	O	0.677329	-0.008807	0.049147
O4	O	0.667325	0.157056	0.049169
O5	O	0.677323	-0.008785	-0.049222
O6	O	0.589389	0.079148	-0.049206
O7	O	0.755253	0.069145	-0.049216
Zn8	Zn	0.672320	0.074150	-0.064829
Zn9	Zn	0.672328	0.074121	0.064777
O10	O	0.667319	0.157078	-0.049200
C11	C	0.568176	0.078882	-0.000020
C12	C	0.504959	0.078116	-0.000017
C13	C	0.238792	0.022921	-0.000040
C14	C	0.298192	0.023632	-0.000040
O15	O	0.334937	-0.020153	-0.000066
N16	N	0.320818	0.075909	-0.000029
C17	C	0.284041	0.127477	-0.000024
O18	O	0.308740	0.172007	-0.000015
C19	C	0.224642	0.126765	-0.000029
C20	C	0.202019	0.074485	-0.000034
C21	C	0.216169	-0.029354	-0.000046
C22	C	0.156772	-0.030066	-0.000045
C23	C	0.119999	0.021499	-0.000038
C24	C	0.142623	0.073774	-0.000033
C25	C	0.187865	0.178333	-0.000028
C26	C	0.128463	0.177616	-0.000033
C27	C	0.105840	0.125336	-0.000038
C28	C	0.046454	0.124627	-0.000025
N29	N	0.023828	0.072351	-0.000036
C30	C	0.060600	0.020787	-0.000043
C31	C	0.408783	0.128968	-0.000016
C32	C	0.468181	0.129681	-0.000007
C33	C	0.482328	0.025836	-0.000024
C34	C	0.422929	0.025124	-0.000028
C35	C	0.386157	0.076692	-0.000027
C36	C	-0.064136	0.019297	-0.000041
C37	C	-0.123538	0.018590	-0.000037
C38	C	-0.137680	0.122435	-0.000024
C39	C	-0.078284	0.123142	-0.000024
C40	C	-0.041512	0.071568	-0.000034
O41	O	0.009675	0.168390	-0.000001
O42	O	0.035892	-0.023736	-0.000060
C43	C	0.677071	-0.030012	-0.000039
C44	C	0.676305	-0.093229	-0.000043
C45	C	0.723538	-0.492332	-0.000014
C46	C	0.722827	-0.551733	-0.000009
O47	O	0.766613	-0.588477	0.000010
N48	N	0.670551	-0.574359	-0.000007
C49	C	0.618982	-0.537581	-0.000002
O50	O	0.574452	-0.562281	0.000001
C51	C	0.619695	-0.478182	-0.000003
C52	C	0.671974	-0.455559	-0.000011
C53	C	0.775814	-0.469709	-0.000022
C54	C	0.776525	-0.410313	-0.000028
C55	C	0.724961	-0.373540	-0.000025
C56	C	0.672685	-0.396163	-0.000017
C57	C	0.568127	-0.441406	0.000006
C58	C	0.568843	-0.382003	0.000006
C59	C	0.621123	-0.359381	-0.000003
C60	C	0.621832	-0.299994	-0.000020
N61	N	0.674109	-0.277368	-0.000023
C62	C	0.725673	-0.314141	-0.000025
C63	C	0.617491	-0.662324	-0.000001
C64	C	0.616778	-0.721722	-0.000005
C65	C	0.720623	-0.735869	-0.000011
C66	C	0.721335	-0.676470	-0.000011
C67	C	0.669767	-0.639698	-0.000003
C68	C	0.727163	-0.189404	-0.000038
C69	C	0.727869	-0.130002	-0.000046
C70	C	0.624025	-0.115860	-0.000037
C71	C	0.623318	-0.175257	-0.000032
C72	C	0.674891	-0.212028	-0.000030
O73	O	0.578069	-0.263215	-0.000037
O74	O	0.770196	-0.289433	-0.000021
C75	C	0.776472	0.069389	-0.000031
C76	C	0.839689	0.070155	-0.000031
C77	C	0.667577	0.178283	-0.000012
C78	C	0.668343	0.241500	-0.000004
N79	N	0.672319	0.074170	-0.153282
C80	C	0.633369	0.113060	-0.438122
C81	C	0.633368	0.113065	-0.376203
O82	O	0.600234	0.146156	-0.344178
N83	N	0.672315	0.074147	-0.345234
C84	C	0.711262	0.035217	-0.376188
O85	O	0.744389	0.002114	-0.344161
C86	C	0.711260	0.035209	-0.438107
C87	C	0.672315	0.074134	-0.469073
C88	C	0.594426	0.151981	-0.469088
C89	C	0.594429	0.151976	-0.531004
C90	C	0.633374	0.113050	-0.561954
C91	C	0.672317	0.074129	-0.530988
C92	C	0.750204	-0.003723	-0.469060
C93	C	0.750199	-0.003728	-0.530983
C94	C	0.711254	0.035197	-0.561949
C95	C	0.711265	0.035198	-0.623854
N96	N	0.672318	0.074116	-0.654823
C97	C	0.633373	0.113042	-0.623873
C98	C	0.711262	0.035236	-0.246155
C99	C	0.711266	0.035246	-0.184237
C100	C	0.633371	0.113093	-0.184256
C101	C	0.633370	0.113086	-0.246174
C102	C	0.672315	0.074154	-0.277123
C103	C	0.633381	0.113029	-0.753900
C104	C	0.633388	0.113022	-0.815821
C105	C	0.711281	0.035173	-0.815797
C106	C	0.711276	0.035182	-0.753881
C107	C	0.672321	0.074112	-0.722934
O108	O	0.744380	0.002123	-0.655918
O109	O	0.600246	0.146134	-0.655907
N110	N	0.672334	0.074096	0.153229
H111	H	0.378846	0.170964	-0.000010
F112	F	0.513956	-0.342870	0.000015
F113	F	0.591921	0.154521	-0.151304
F114	F	0.567676	-0.199334	-0.000033
F115	F	0.552971	0.193414	-0.436157
F116	F	0.775503	-0.775016	-0.000010
F117	F	0.561135	-0.745792	-0.000006
F118	F	0.752725	-0.006176	-0.151287
F119	F	0.569149	-0.076714	-0.000034
H120	H	0.601674	0.144721	-0.841031
H121	H	0.486595	0.172252	0.000005
H122	H	0.769159	-0.219337	-0.000034
F123	F	0.791655	-0.045152	-0.436116
H124	H	0.246104	-0.071347	-0.000053
F125	F	0.591921	0.154463	-0.720973
H126	H	0.404515	-0.017447	-0.000033
F127	F	-0.176827	0.177310	-0.000013
F128	F	-0.054206	0.178783	-0.000010
F129	F	0.830701	-0.508838	-0.000024
F130	F	0.521475	-0.029043	-0.000031
H131	H	0.601657	0.144781	-0.271383
F132	F	0.752719	-0.006200	-0.279088
F133	F	0.211929	0.233977	-0.000022
F134	F	0.791650	-0.045167	-0.563917
H135	H	0.742995	0.003491	-0.728669
H136	H	0.575496	-0.632386	0.000000
F137	F	-0.147611	-0.037055	-0.000039
H138	H	0.525555	-0.459814	0.000017
F139	F	0.552975	0.193402	-0.563954
H140	H	0.098525	0.219610	-0.000034
H141	H	0.770443	-0.111587	-0.000055
H142	H	0.742992	0.003481	-0.841006
H143	H	0.819097	-0.391900	-0.000032
F144	F	0.132703	-0.085709	-0.000046
H145	H	-0.034204	-0.022699	-0.000049
H146	H	0.763906	-0.658055	-0.000018
