data_functionalizedCrystal
_audit_creation_method	'MofGen! by Chris Wilmer'
_symmetry_space_group_name_H-M	'P1'
_symmetry_Int_Tables_number	1
_symmetry_cell_setting	triclinic
loop_
_symmetry_equiv_pos_as_xyz
  x,y,z
_cell_length_a	19.288867
_cell_length_b	12.784905
_cell_length_c	17.766277
_cell_angle_alpha	89.994318
_cell_angle_beta	89.992126
_cell_angle_gamma	78.122194
loop_
_atom_site_label
_atom_site_type_symbol
_atom_site_fract_x
_atom_site_fract_y
_atom_site_fract_z
O1	O	0.913612	0.132642	-0.062566
O2	O	0.710308	0.150532	-0.062573
O3	O	0.826837	-0.013212	-0.062567
O4	O	0.797083	0.296385	-0.062572
O5	O	0.826819	-0.013220	0.062622
O6	O	0.710289	0.150523	0.062616
O7	O	0.913594	0.132634	0.062623
Cu8	Cu	0.811940	0.141578	0.074050
Cu9	Cu	0.811962	0.141588	-0.074000
O10	O	0.797064	0.296377	0.062617
C11	C	0.684456	0.149951	0.000021
C12	C	0.607453	0.148222	0.000018
C13	C	0.052624	0.135773	-0.068213
C14	C	0.124978	0.137391	-0.068216
C15	C	0.161149	0.138201	0.000024
C16	C	0.124965	0.137364	0.068272
C17	C	0.052615	0.135736	0.068273
C18	C	0.266684	0.203049	0.052304
C19	C	0.339032	0.204684	0.052300
C20	C	0.384302	0.143220	0.000024
C21	C	0.357212	0.080134	-0.052261
C22	C	0.284862	0.078505	-0.052260
C23	C	0.239600	0.139966	0.000030
C24	C	0.498931	0.145803	-0.068223
C25	C	0.571287	0.147415	-0.068223
C26	C	0.571271	0.147399	0.068267
C27	C	0.498919	0.145777	0.068265
C28	C	0.462752	0.144984	0.000018
C29	C	0.828763	-0.052825	0.000027
C30	C	0.834521	-0.170846	0.000024
C31	C	0.717211	-0.366669	0.000027
C32	C	0.722618	-0.477560	0.000024
C33	C	0.850741	-0.503520	0.000021
C34	C	0.845334	-0.392629	0.000023
C35	C	0.778567	-0.324207	0.000026
C36	C	0.773161	-0.213315	0.000023
C37	C	0.901283	-0.239276	0.000025
C38	C	0.906689	-0.350167	0.000022
C39	C	0.939446	0.133214	0.000028
C40	C	1.016448	0.134943	0.000026
C41	C	0.795138	0.335990	0.000022
C42	C	0.789380	0.454011	0.000020
N43	N	0.811930	0.141570	0.178180
N44	N	0.811978	0.141587	-0.178130
C45	C	0.863542	0.069100	0.217570
C46	C	0.863547	0.069095	0.296372
C47	C	0.811944	0.141579	0.335781
C48	C	0.760322	0.214054	0.296382
C49	C	0.760315	0.214050	0.217582
C50	C	0.796992	0.238452	0.460617
C51	C	0.797004	0.238458	0.539416
C52	C	0.811962	0.141591	0.578827
C53	C	0.826923	0.044715	0.539430
C54	C	0.826916	0.044711	0.460630
C55	C	0.811946	0.141591	0.421227
C56	C	0.863582	0.069110	0.703663
C57	C	0.863581	0.069104	0.782466
C58	C	0.760360	0.214072	0.782475
C59	C	0.760358	0.214069	0.703673
C60	C	0.811972	0.141589	0.664272
H61	H	0.023183	0.135123	-0.123786
C62	C	0.012818	0.134838	0.143344
N63	N	-0.017160	0.134168	0.199889
C64	C	0.164750	0.138285	0.143336
N65	N	0.194715	0.138985	0.199877
C66	C	0.780537	0.345019	0.417272
N67	N	0.768143	0.425284	0.384626
H68	H	0.229831	0.253095	0.094881
H69	H	0.718285	0.273065	0.185510
C70	C	0.655122	-0.524264	0.000023
N71	N	0.604281	-0.559440	0.000022
H72	H	0.905577	0.010079	0.328449
H73	H	0.469463	0.145105	0.123833
C74	C	0.968778	-0.192560	0.000021
N75	N	1.019615	-0.157372	0.000017
H76	H	0.905609	0.010084	0.814538
C77	C	0.164778	0.138316	-0.143287
N78	N	0.194752	0.139018	-0.199831
H79	H	0.905099	-0.559247	0.000028
C80	C	0.703625	0.293870	0.660343
N81	N	0.660905	0.354003	0.627706
C82	C	0.980129	-0.425443	0.000019
N83	N	1.035445	-0.482140	0.000014
C84	C	0.920314	-0.010640	0.174233
N85	N	0.963073	-0.070705	0.141591
C86	C	0.699717	-0.138052	0.000027
N87	N	0.644396	-0.081367	0.000033
C88	C	0.368823	0.274078	0.109814
N89	N	0.391261	0.326346	0.153137
C90	C	0.643769	-0.291403	0.000026
N91	N	0.588450	-0.234714	0.000026
H92	H	0.839095	-0.034168	0.428556
H93	H	0.839102	-0.034162	0.571517
C94	C	0.780540	0.345022	0.582745
N95	N	0.768135	0.425289	0.615379
C96	C	0.920353	-0.010628	0.660319
N97	N	0.963112	-0.070690	0.627674
H98	H	0.718342	0.273085	0.814561
H99	H	0.262809	0.027136	-0.094831
C100	C	0.407004	0.012516	-0.109769
N101	N	0.444510	-0.038410	-0.153082
H102	H	0.718306	0.273070	0.328473
H103	H	0.600741	0.148082	-0.123793
C104	C	0.459148	0.144918	-0.143295
N105	N	0.429185	0.144249	-0.199841
H106	H	0.600721	0.148054	0.123830
