data_functionalizedCrystal
_audit_creation_method	'MofGen! by Chris Wilmer'
_symmetry_space_group_name_H-M	'P1'
_symmetry_Int_Tables_number	1
_symmetry_cell_setting	triclinic
loop_
_symmetry_equiv_pos_as_xyz
  x,y,z
_cell_length_a	19.288840
_cell_length_b	19.188925
_cell_length_c	17.766277
_cell_angle_alpha	89.993978
_cell_angle_beta	89.983415
_cell_angle_gamma	83.134282
loop_
_atom_site_label
_atom_site_type_symbol
_atom_site_fract_x
_atom_site_fract_y
_atom_site_fract_z
O1	O	0.921369	0.087016	-0.062719
O2	O	1.421369	0.587016	0.437281
O3	O	0.719106	0.098784	-0.062693
O4	O	1.219106	0.598784	0.437307
O5	O	0.826077	-0.008757	-0.062703
O6	O	1.326077	0.491243	0.437297
O7	O	0.814399	0.194557	-0.062710
O8	O	1.314399	0.694557	0.437290
O9	O	0.826058	-0.008762	0.062486
O10	O	1.326058	0.491238	0.562486
O11	O	0.719088	0.098779	0.062495
O12	O	1.219088	0.598779	0.562495
O13	O	0.921350	0.087011	0.062469
O14	O	1.421350	0.587011	0.562469
Cu15	Cu	0.820217	0.092894	0.073913
Cu16	Cu	1.320217	0.592894	0.573913
Cu17	Cu	0.820239	0.092901	-0.074137
Cu18	Cu	1.320239	0.592901	0.425863
O19	O	0.814380	0.194552	0.062479
O20	O	1.314380	0.694552	0.562479
C21	C	0.693220	0.098406	-0.000096
C22	C	1.193220	0.598406	0.499904
C23	C	0.616116	0.097278	-0.000086
C24	C	1.116116	0.597278	0.499914
C25	C	0.579922	0.096739	-0.068328
C26	C	1.079922	0.596739	0.431672
C27	C	0.507475	0.095671	-0.068337
C28	C	1.007475	0.595671	0.431663
C29	C	0.471226	0.095128	-0.000100
C30	C	0.971226	0.595128	0.499900
C31	C	0.507428	0.095671	0.068151
C32	C	1.007428	0.595671	0.568151
C33	C	0.579873	0.096746	0.068158
C34	C	1.079873	0.596746	0.568158
C35	C	0.361889	0.052528	0.052170
C36	C	0.861889	0.552528	0.552170
C37	C	0.289446	0.051449	0.052160
C38	C	0.789446	0.551449	0.552160
C39	C	0.247783	0.091817	-0.000120
C40	C	0.747783	0.591817	0.499880
C41	C	0.278572	0.133255	-0.052402
C42	C	0.778572	0.633255	0.447598
C43	C	0.351017	0.134330	-0.052394
C44	C	0.851017	0.634330	0.447606
C45	C	0.392672	0.093964	-0.000100
C46	C	0.892672	0.593964	0.499900
C47	C	0.133034	0.090122	-0.068376
C48	C	0.633034	0.590122	0.431624
C49	C	0.060585	0.089059	-0.068383
C50	C	0.560585	0.589059	0.431617
C51	C	0.060540	0.089052	0.068107
C52	C	0.560540	0.589052	0.568107
C53	C	0.132987	0.090122	0.068112
C54	C	0.632987	0.590122	0.568112
C55	C	0.169230	0.090654	-0.000132
C56	C	0.669230	0.590654	0.499868
C57	C	0.825690	-0.034771	-0.000109
C58	C	1.325690	0.465229	0.499891
C59	C	0.824556	-0.112275	-0.000110
C60	C	1.324556	0.387725	0.499890
C61	C	0.879734	-0.674054	-0.000137
C62	C	1.379734	-0.174054	0.499863
C63	C	0.880805	-0.601231	-0.000130
C64	C	1.380805	-0.101231	0.499870
C65	C	0.818039	-0.556287	-0.000122
C66	C	1.318039	-0.056287	0.499878
C67	C	0.754196	-0.584170	-0.000101
C68	C	1.254196	-0.084170	0.499899
C69	C	0.753127	-0.656992	-0.000101
C70	C	1.253127	-0.156992	0.499899
N71	N	0.772604	-0.435597	-0.042727
N72	N	1.272604	0.064403	0.457273
N73	N	0.773624	-0.366420	-0.042729
N74	N	1.273624	0.133580	0.457271
C75	C	0.821256	-0.336878	-0.000123
C76	C	1.321256	0.163122	0.499877
N77	N	0.867840	-0.379128	0.042477
N78	N	1.367840	0.120872	0.542477
N79	N	0.866822	-0.448312	0.042476
N80	N	1.366822	0.051688	0.542476
C81	C	0.819191	-0.477323	-0.000122
C82	C	1.319191	0.022677	0.499878
C83	C	0.886255	-0.230040	-0.000131
C84	C	1.386255	0.269960	0.499869
C85	C	0.887324	-0.157215	-0.000119
C86	C	1.387324	0.342785	0.499881
C87	C	0.760713	-0.140155	-0.000099
C88	C	1.260713	0.359845	0.499901
C89	C	0.759646	-0.212978	-0.000102
C90	C	1.259646	0.287022	0.499898
C91	C	0.822420	-0.257917	-0.000122
C92	C	1.322420	0.242083	0.499878
C93	C	0.947236	0.087389	-0.000130
C94	C	1.447236	0.587389	0.499870
C95	C	1.024341	0.088517	-0.000145
C96	C	1.524341	0.588517	0.499855
C97	C	0.814767	0.220565	-0.000117
C98	C	1.314767	0.720565	0.499883
C99	C	0.815900	0.298070	-0.000120
C100	C	1.315900	0.798070	0.499880
N101	N	0.820207	0.092889	0.178043
N102	N	1.320207	0.592889	0.678043
N103	N	0.820255	0.092900	-0.178267
N104	N	1.320255	0.592900	0.321733
C105	C	0.867588	0.045293	0.217426
C106	C	1.367588	0.545293	0.717426
C107	C	0.867592	0.045290	0.296228
C108	C	1.367592	0.545290	0.796228
C109	C	0.820221	0.092895	0.335644
C110	C	1.320221	0.592895	0.835644
C111	C	0.772831	0.140494	0.296252
C112	C	1.272831	0.640494	0.796252
C113	C	0.772824	0.140491	0.217451
C114	C	1.272824	0.640491	0.717451
C115	C	0.810926	0.156512	0.460480
C116	C	1.310926	0.656512	0.960480
C117	C	0.810938	0.156516	0.539279
C118	C	1.310938	0.656516	1.039279
C119	C	0.820240	0.092903	0.578690
C120	C	1.320240	0.592903	1.078690
C121	C	0.829544	0.029284	0.539293
C122	C	1.329544	0.529284	1.039293
C123	C	0.829537	0.029281	0.460492
C124	C	1.329537	0.529281	0.960492
C125	C	0.820224	0.092903	0.421090
C126	C	1.320224	0.592903	0.921090
C127	C	0.867628	0.045300	0.703519
C128	C	1.367628	0.545300	1.203519
C129	C	0.867628	0.045296	0.782322
C130	C	1.367628	0.545296	1.282322
C131	C	0.772870	0.140506	0.782344
C132	C	1.272870	0.640506	1.282344
C133	C	0.772867	0.140504	0.703543
C134	C	1.272867	0.640504	1.203543
C135	C	0.820250	0.092902	0.664135
C136	C	1.320250	0.592902	1.164135
H137	H	0.162544	0.090562	-0.123945
H138	H	0.662544	0.590562	0.376055
Br139	Br	0.931931	-0.019305	0.650034
Br140	Br	1.431931	0.480695	1.150034
H141	H	0.906169	0.006531	0.185342
H142	H	1.406169	0.506531	0.685342
Br143	Br	0.182110	0.090851	0.160731
Br144	Br	0.682110	0.590851	0.660731
H145	H	0.707666	-0.235674	-0.000095
H146	H	1.207666	0.264326	0.499905
H147	H	0.734260	0.179253	0.328348
H148	H	1.234260	0.679253	0.828348
H149	H	0.906177	0.006530	0.328299
H150	H	1.406177	0.506530	0.828299
H151	H	0.734239	0.179250	0.185385
H152	H	1.234239	0.679250	0.685385
H153	H	0.930849	-0.710639	-0.000148
H154	H	1.430849	-0.210639	0.499852
Br155	Br	0.666489	-0.694826	-0.000078
Br156	Br	1.166489	-0.194826	0.499922
H157	H	0.734287	0.179264	0.671475
H158	H	1.234287	0.679264	1.171475
Br159	Br	0.458345	0.094941	-0.160958
Br160	Br	0.958345	0.594941	0.339042
Br161	Br	0.931930	-0.019310	0.835774
Br162	Br	1.431930	0.480690	1.335774
Br163	Br	0.011462	0.088336	-0.161006
Br164	Br	0.511462	0.588336	0.338994
Br165	Br	0.798319	0.242855	0.592739
Br166	Br	1.298319	0.742855	1.092739
H167	H	0.609427	0.097172	-0.123897
H168	H	1.109427	0.597172	0.376103
Br169	Br	0.392801	0.190566	-0.123342
Br170	Br	0.892801	0.690566	0.376658
Br171	Br	0.842157	-0.057055	0.407026
Br172	Br	1.342157	0.442945	0.907026
Br173	Br	0.675528	-0.079166	-0.000074
Br174	Br	1.175528	0.420834	0.499926
Br175	Br	0.973963	-0.119383	-0.000143
Br176	Br	1.473963	0.380617	0.499857
H177	H	0.937369	-0.266631	-0.000146
H178	H	1.437369	0.233369	0.499854
Br179	Br	0.669012	-0.523176	-0.000084
Br180	Br	1.169012	-0.023176	0.499916
H181	H	0.244651	0.166130	-0.094970
H182	H	0.744651	0.666130	0.405030
Br183	Br	0.011352	0.088326	0.160717
Br184	Br	0.511352	0.588326	0.660717
Br185	Br	0.708572	0.205105	0.835831
Br186	Br	1.208572	0.705105	1.335831
H187	H	0.264383	0.017704	0.094727
H188	H	0.764383	0.517704	0.594727
Br189	Br	0.842178	-0.057055	0.592768
Br190	Br	1.342178	0.442945	1.092768
Br191	Br	0.798371	0.242854	0.407002
Br192	Br	1.298371	0.742854	0.907002
H193	H	0.477909	0.095231	0.123710
H194	H	0.977909	0.595231	0.623710
Br195	Br	0.418424	-0.002259	0.123130
Br196	Br	0.918424	0.497741	0.623130
H197	H	0.609341	0.097185	0.123731
H198	H	1.109341	0.597185	0.623731
H199	H	0.932788	-0.578530	-0.000143
H200	H	1.432788	-0.078530	0.499857
