data_functionalizedCrystal
_audit_creation_method	'MofGen! by Chris Wilmer'
_symmetry_space_group_name_H-M	'P1'
_symmetry_Int_Tables_number	1
_symmetry_cell_setting	triclinic
loop_
_symmetry_equiv_pos_as_xyz
  x,y,z
_cell_length_a	19.121112
_cell_length_b	19.121063
_cell_length_c	19.805407
_cell_angle_alpha	87.573559
_cell_angle_beta	92.441902
_cell_angle_gamma	90.126867
loop_
_atom_site_label
_atom_site_type_symbol
_atom_site_fract_x
_atom_site_fract_y
_atom_site_fract_z
Zn1	Zn	1.059725	-0.325040	0.439551
Zn2	Zn	1.393058	0.008293	0.772884
Zn3	Zn	1.726391	0.341627	1.106217
Zn4	Zn	1.054661	-0.442245	0.330968
Zn5	Zn	1.387995	-0.108911	0.664301
Zn6	Zn	1.721328	0.224422	0.997635
Zn7	Zn	0.942521	-0.320017	0.321360
Zn8	Zn	1.275854	0.013316	0.654693
Zn9	Zn	1.609187	0.346650	0.988027
Zn10	Zn	0.937450	-0.437230	0.439099
Zn11	Zn	1.270783	-0.103897	0.772433
Zn12	Zn	1.604116	0.229437	1.105766
O13	O	0.998589	-0.381133	0.382744
O14	O	1.331922	-0.047800	0.716078
O15	O	1.665256	0.285534	1.049411
O16	O	1.157157	-0.344788	0.429357
O17	O	1.490490	-0.011455	0.762690
O18	O	1.823823	0.321879	1.096024
O19	O	1.039789	-0.426027	0.234977
O20	O	1.373122	-0.092694	0.568310
O21	O	1.706455	0.240639	0.901644
O22	O	0.962309	-0.222579	0.333206
O23	O	1.295642	0.110755	0.666540
O24	O	1.628976	0.444088	0.999873
O25	O	1.153437	-0.430898	0.349582
O26	O	1.486770	-0.097564	0.682915
O27	O	1.820103	0.235769	1.016248
O28	O	1.048418	-0.226269	0.420041
O29	O	1.381752	0.107064	0.753374
O30	O	1.715085	0.440398	1.086707
O31	O	0.957399	-0.336227	0.227918
O32	O	1.290733	-0.002894	0.561251
O33	O	1.624066	0.330439	0.894585
O34	O	0.843744	-0.331365	0.332768
O35	O	1.177077	0.001969	0.666102
O36	O	1.510411	0.335302	0.999435
O37	O	0.953667	-0.422351	0.533876
O38	O	1.287000	-0.089018	0.867209
O39	O	1.620333	0.244315	1.200542
O40	O	0.840019	-0.417481	0.419271
O41	O	1.173352	-0.084147	0.752604
O42	O	1.506685	0.249186	1.085938
O43	O	1.043502	-0.339926	0.534207
O44	O	1.376835	-0.006592	0.867541
O45	O	1.710168	0.326741	1.200874
O46	O	1.034872	-0.539684	0.349144
O47	O	1.368205	-0.206351	0.682477
O48	O	1.701539	0.126983	1.015810
O49	O	0.948757	-0.536000	0.428587
O50	O	1.282090	-0.202666	0.761921
O51	O	1.615424	0.130667	1.095254
C52	C	0.816444	-0.373334	0.374928
C53	C	1.149778	-0.040001	0.708262
C54	C	1.483111	0.293333	1.041595
C55	C	0.738521	-0.370015	0.371601
C56	C	1.071854	-0.036681	0.704935
C57	C	1.405188	0.296652	1.038268
C58	C	0.297901	-0.348955	0.350528
C59	C	0.631235	-0.015622	0.683861
C60	C	0.964568	0.317712	1.017194
C61	C	0.371118	-0.352078	0.353657
C62	C	0.704451	-0.018745	0.686991
C63	C	1.037785	0.314589	1.020324
C64	C	0.405800	-0.398549	0.400192
C65	C	0.739133	-0.065216	0.733526
C66	C	1.072467	0.268118	1.066859
C67	C	0.367261	-0.441895	0.443605
C68	C	0.700594	-0.108562	0.776938
C69	C	1.033928	0.224772	1.110271
C70	C	0.294046	-0.438768	0.440478
C71	C	0.627379	-0.105435	0.773811
C72	C	0.960712	0.227899	1.107144
C73	C	0.626767	-0.410234	0.411887
C74	C	0.960100	-0.076900	0.745220
C75	C	1.293433	0.256433	1.078553
C76	C	0.699987	-0.413359	0.415009
C77	C	1.033321	-0.080025	0.748342
C78	C	1.366654	0.253308	1.081676
C79	C	0.703840	-0.323540	0.325062
C80	C	1.037173	0.009793	0.658396
C81	C	1.370506	0.343126	0.991729
C82	C	0.630622	-0.320421	0.321937
C83	C	0.963956	0.012913	0.655270
C84	C	1.297289	0.346246	0.988603
C85	C	0.592090	-0.363764	0.365351
C86	C	0.925423	-0.030431	0.698685
C87	C	1.258757	0.302903	1.032018
C88	C	0.480639	-0.401744	0.403391
C89	C	0.813973	-0.068410	0.736724
C90	C	1.147306	0.264923	1.070058
C91	C	0.517252	-0.360565	0.362155
C92	C	0.850586	-0.027232	0.695489
C93	C	1.183919	0.306102	1.028822
C94	C	0.990734	-0.563280	0.389875
C95	C	1.324067	-0.229947	0.723208
C96	C	1.657401	0.103387	1.056541
C97	C	0.987437	-0.641206	0.392950
C98	C	1.320771	-0.307873	0.726284
C99	C	1.654104	0.025460	1.059617
C100	C	1.030759	-0.679712	0.353071
C101	C	1.364092	-0.346379	0.686404
C102	C	1.697426	-0.013046	1.019737
C103	C	1.027663	-0.752932	0.355968
C104	C	1.360996	-0.419599	0.689301
C105	C	1.694330	-0.086266	1.022634
C106	C	0.981241	-0.787645	0.398741
C107	C	1.314575	-0.454311	0.732074
C108	C	1.647908	-0.120978	1.065408
C109	C	0.937918	-0.749133	0.438625
C110	C	1.271251	-0.415800	0.771958
C111	C	1.604585	-0.082467	1.105292
C112	C	0.941018	-0.675915	0.435731
C113	C	1.274351	-0.342581	0.769065
C114	C	1.607685	-0.009248	1.102398
C115	C	0.969639	-1.008622	0.409549
C116	C	1.302973	-0.675289	0.742882
C117	C	1.636306	-0.341956	1.076216
C118	C	0.966541	-1.081846	0.412438
C119	C	1.299874	-0.748512	0.745771
C120	C	1.633208	-0.415179	1.079105
C121	C	1.056287	-1.085640	0.329781
C122	C	1.389621	-0.752307	0.663114
C123	C	1.722954	-0.418973	0.996448
C124	C	1.059380	-1.012420	0.326888
C125	C	1.392714	-0.679087	0.660221
C126	C	1.726047	-0.345753	0.993555
C127	C	1.016060	-0.973915	0.366775
C128	C	1.349393	-0.640582	0.700108
C129	C	1.682726	-0.307248	1.033442
C130	C	0.978074	-0.862487	0.401701
C131	C	1.311407	-0.529154	0.735035
C132	C	1.644741	-0.195820	1.068368
C133	C	1.019231	-0.899074	0.363818
C134	C	1.352564	-0.565741	0.697151
C135	C	1.685898	-0.232407	1.030484
C136	C	1.181445	-0.388963	0.390591
C137	C	1.514779	-0.055629	0.723925
C138	C	1.848112	0.277704	1.057258
C139	C	1.259368	-0.392299	0.393935
C140	C	1.592701	-0.058966	0.727269
C141	C	1.926034	0.274368	1.060602
C142	C	0.998583	-0.381139	0.559287
C143	C	1.331917	-0.047806	0.892621
C144	C	1.665250	0.285527	1.225954
C145	C	0.998581	-0.381142	0.634519
C146	C	1.331914	-0.047809	0.967853
C147	C	1.665247	0.285525	1.301186
C148	C	1.006494	-0.198275	0.375602
C149	C	1.339827	0.135058	0.708935
C150	C	1.673161	0.468392	1.042269
C151	C	1.009863	-0.120352	0.372558
C152	C	1.343196	0.212981	0.705892
C153	C	1.676529	0.546315	1.039225
C154	C	1.045356	-0.338218	1.096484
C155	C	1.378690	-0.004885	1.429817
C156	C	1.712023	0.328448	1.763150
C157	C	1.045358	-0.338222	1.025796
C158	C	1.378692	-0.004888	1.359129
C159	C	1.712025	0.328445	1.692462
C160	C	0.998586	-0.381137	0.990281
C161	C	1.331920	-0.047803	1.323614
C162	C	1.665253	0.285530	1.656948
C163	C	0.951814	-0.424057	1.025459
C164	C	1.285148	-0.090723	1.358792
C165	C	1.618481	0.242610	1.692125
C166	C	0.951816	-0.424057	1.096146
C167	C	1.285149	-0.090723	1.429479
C168	C	1.618483	0.242610	1.762812
C169	C	0.951807	-0.424059	0.740385
C170	C	1.285140	-0.090725	1.073718
C171	C	1.618473	0.242608	1.407052
C172	C	0.951807	-0.424054	0.669693
C173	C	1.285140	-0.090721	1.003026
C174	C	1.618474	0.242613	1.336359
C175	C	1.045349	-0.338224	0.670035
C176	C	1.378682	-0.004890	1.003368
C177	C	1.712015	0.328443	1.336701
C178	C	1.045351	-0.338224	0.740722
C179	C	1.378684	-0.004890	1.074055
C180	C	1.712017	0.328443	1.407389
C181	C	0.998581	-0.381146	0.775894
C182	C	1.331915	-0.047813	1.109227
C183	C	1.665248	0.285521	1.442560
C184	C	0.998580	-0.381143	0.852542
C185	C	1.331914	-0.047810	1.185875
C186	C	1.665247	0.285524	1.519209
C187	C	0.998583	-0.381137	0.913634
C188	C	1.331917	-0.047803	1.246967
C189	C	1.665250	0.285530	1.580300
C190	C	0.998588	-0.381140	1.206889
C191	C	1.331921	-0.047807	1.540222
C192	C	1.665254	0.285526	1.873555
C193	C	0.998586	-0.381133	1.131656
C194	C	1.331920	-0.047800	1.464990
C195	C	1.665253	0.285533	1.798323
H196	H	0.728223	-0.451201	0.452907
H197	H	1.061556	-0.117868	0.786240
H198	H	1.394890	0.215465	1.119574
Br199	Br	0.470184	-0.297494	0.299007
Br200	Br	0.803517	0.035839	0.632341
Br201	Br	1.136850	0.369172	0.965674
H202	H	0.913735	-0.459002	0.996537
H203	H	1.247068	-0.125669	1.329871
H204	H	1.580402	0.207664	1.663204
Br205	Br	1.082234	-0.851964	0.305774
Br206	Br	1.415568	-0.518631	0.639108
Br207	Br	1.748901	-0.185297	0.972441
Br208	Br	0.903524	-1.128955	0.470480
Br209	Br	1.236858	-0.795621	0.803813
Br210	Br	1.570191	-0.462288	1.137146
H211	H	0.595402	-0.445530	0.447236
H212	H	0.928736	-0.112196	0.780569
H213	H	1.262069	0.221137	1.113902
Br214	Br	0.527713	-0.464822	0.466533
Br215	Br	0.861046	-0.131489	0.799866
Br216	Br	1.194379	0.201845	1.133200
H217	H	1.083432	-0.303276	0.641390
H218	H	1.416766	0.030057	0.974723
H219	H	1.750099	0.363390	1.308056
H220	H	0.940276	-0.890758	0.436526
H221	H	1.273609	-0.557425	0.769860
H222	H	1.606943	-0.224091	1.103193
H223	H	0.934365	-0.977277	0.442025
H224	H	1.267698	-0.643944	0.775358
H225	H	1.601031	-0.310610	1.108692
Br226	Br	0.874922	-0.796242	0.496682
Br227	Br	1.208256	-0.462909	0.830015
Br228	Br	1.541589	-0.129575	1.163348
H229	H	1.083439	-0.303267	1.125394
H230	H	1.416772	0.030066	1.458728
H231	H	1.750106	0.363400	1.792061
Br232	Br	1.108835	-0.279986	0.788918
Br233	Br	1.442168	0.053347	1.122251
Br234	Br	1.775501	0.386681	1.455584
Br235	Br	0.250840	-0.285890	0.287365
Br236	Br	0.584174	0.047444	0.620698
Br237	Br	0.917507	0.380777	0.954031
H238	H	0.602390	-0.282584	0.284039
H239	H	0.935723	0.050750	0.617372
H240	H	1.269056	0.384083	0.950705
H241	H	1.083445	-0.303278	0.997161
H242	H	1.416778	0.030056	1.330495
H243	H	1.750112	0.363389	1.663828
Br244	Br	0.882227	-0.623655	0.489860
Br245	Br	1.215560	-0.290322	0.823194
Br246	Br	1.548893	0.043011	1.156527
H247	H	0.402489	-0.316785	0.318307
H248	H	0.735822	0.016548	0.651641
H249	H	1.069156	0.349881	0.984974
H250	H	0.735220	-0.288252	0.289717
H251	H	1.068554	0.045081	0.623051
H252	H	1.401887	0.378415	0.956384
Br253	Br	1.093757	-0.632610	0.295012
Br254	Br	1.427090	-0.299277	0.628345
Br255	Br	1.760423	0.034057	0.961678
Br256	Br	0.888326	-0.482299	0.621494
Br257	Br	1.221659	-0.148966	0.954828
Br258	Br	1.554992	0.184367	1.288161
H259	H	0.395505	-0.479730	0.481497
H260	H	0.728838	-0.146397	0.814830
H261	H	1.062171	0.186937	1.148164
Br262	Br	0.888339	-0.482316	0.788110
Br263	Br	1.221672	-0.148983	1.121443
Br264	Br	1.555005	0.184351	1.454776
Br265	Br	1.122393	-0.965316	0.268845
Br266	Br	1.455726	-0.631982	0.602179
Br267	Br	1.789059	-0.298649	0.935512
H268	H	0.913732	-0.459003	1.124782
H269	H	1.247065	-0.125670	1.458116
H270	H	1.580398	0.207663	1.791449
Br271	Br	1.115080	-1.137900	0.275656
Br272	Br	1.448413	-0.804567	0.608989
Br273	Br	1.781747	-0.471233	0.942322
H274	H	0.262672	-0.474062	0.475827
H275	H	0.596006	-0.140728	0.809160
H276	H	0.929339	0.192605	1.142493
H277	H	1.062940	-0.784281	0.323493
H278	H	1.396273	-0.450948	0.656826
H279	H	1.729606	-0.117614	0.990159
