data_functionalizedCrystal
_audit_creation_method	'MofGen! by Chris Wilmer'
_symmetry_space_group_name_H-M	'P1'
_symmetry_Int_Tables_number	1
_symmetry_cell_setting	triclinic
loop_
_symmetry_equiv_pos_as_xyz
  x,y,z
_cell_length_a	12.759401
_cell_length_b	19.077692
_cell_length_c	12.759393
_cell_angle_alpha	92.264102
_cell_angle_beta	89.980324
_cell_angle_gamma	87.730973
loop_
_atom_site_label
_atom_site_type_symbol
_atom_site_fract_x
_atom_site_fract_y
_atom_site_fract_z
Zn1	Zn	1.622966	-0.280138	-0.610760
Zn2	Zn	2.122966	0.219862	-0.110760
Zn3	Zn	1.629874	-0.397843	-0.442129
Zn4	Zn	2.129874	0.102157	0.057871
Zn5	Zn	1.447267	-0.280174	-0.435102
Zn6	Zn	1.947267	0.219826	0.064898
Zn7	Zn	1.454270	-0.397792	-0.617767
Zn8	Zn	1.954270	0.102208	-0.117767
O9	O	1.538594	-0.338987	-0.526440
O10	O	2.038594	0.161013	-0.026440
O11	O	1.770904	-0.295759	-0.588400
O12	O	2.270904	0.204241	-0.088400
O13	O	1.605610	-0.382271	-0.294178
O14	O	2.105610	0.117729	0.205822
O15	O	1.464752	-0.181685	-0.452530
O16	O	1.964752	0.318315	0.047470
O17	O	1.775979	-0.382236	-0.464507
O18	O	2.275979	0.117764	0.035493
O19	O	1.593837	-0.181659	-0.581585
O20	O	2.093837	0.318341	-0.081585
O21	O	1.471450	-0.295819	-0.289015
O22	O	1.971450	0.204181	0.210985
O23	O	1.301174	-0.295769	-0.459324
O24	O	1.801174	0.204231	0.040676
O25	O	1.476688	-0.382149	-0.763857
O26	O	1.976688	0.117851	-0.263857
O27	O	1.306320	-0.382183	-0.593527
O28	O	1.806320	0.117817	-0.093527
O29	O	1.600628	-0.295709	-0.758709
O30	O	2.100628	0.204291	-0.258709
O31	O	1.612401	-0.496320	-0.471301
O32	O	2.112401	0.003680	0.028699
O33	O	1.483386	-0.496283	-0.600342
O34	O	1.983386	0.003717	-0.100342
C35	C	1.265626	-0.338975	-0.526424
C36	C	1.765626	0.161025	-0.026424
C37	C	1.148850	-0.338986	-0.526443
C38	C	1.648850	0.161014	-0.026443
C39	C	1.091351	-0.294039	-0.591063
C40	C	1.591351	0.205961	-0.091063
C41	C	0.981627	-0.294046	-0.591070
C42	C	1.481627	0.205954	-0.091070
C43	C	0.986912	-0.383954	-0.461836
C44	C	1.486912	0.116046	0.038164
C45	C	1.096633	-0.383943	-0.461824
C46	C	1.596633	0.116057	0.038176
C47	C	1.549432	-0.521837	-0.537367
C48	C	2.049432	-0.021837	-0.037367
C49	C	1.554164	-0.600061	-0.542077
C50	C	2.054164	-0.100061	-0.042077
C51	C	1.489240	-0.636887	-0.477054
C52	C	1.989240	-0.136887	0.022946
C53	C	1.493698	-0.710387	-0.481484
C54	C	1.993698	-0.210387	0.018516
C55	C	1.563074	-0.747060	-0.550944
C56	C	2.063074	-0.247060	-0.050944
C57	C	1.628005	-0.710228	-0.615970
C58	C	2.128005	-0.210228	-0.115970
C59	C	1.623552	-0.636730	-0.611534
C60	C	2.123552	-0.136730	-0.111534
C61	C	1.583597	-0.966869	-0.571417
C62	C	2.083597	-0.466869	-0.071417
C63	C	1.588042	-1.040372	-0.575850
C64	C	2.088042	-0.540372	-0.075850
C65	C	1.453736	-1.040526	-0.441363
C66	C	1.953736	-0.540526	0.058637
C67	C	1.449285	-0.967026	-0.436937
C68	C	1.949285	-0.467026	0.063063
C69	C	1.514219	-0.930201	-0.501959
C70	C	2.014219	-0.430201	-0.001959
N71	N	1.567630	-0.822188	-0.555476
N72	N	2.067630	-0.322188	-0.055476
N73	N	1.509669	-0.855074	-0.497421
N74	N	2.009669	-0.355074	0.002579
C75	C	1.812628	-0.338999	-0.526456
C76	C	2.312628	0.161001	-0.026456
C77	C	1.929405	-0.339005	-0.526463
C78	C	2.429405	0.160995	-0.026463
C79	C	1.538669	-0.338919	-0.800469
C80	C	2.038669	0.161081	-0.300469
C81	C	1.538700	-0.338890	-0.917244
C82	C	2.038700	0.161110	-0.417244
C83	C	1.527743	-0.155423	-0.515492
C84	C	2.027743	0.344577	-0.015492
C85	C	1.523119	-0.077198	-0.510827
C86	C	2.023119	0.422802	-0.010827
C87	C	1.603241	-0.293874	-0.969427
C88	C	2.103241	0.206126	-0.469427
C89	C	1.603257	-0.293844	-1.079149
C90	C	2.103257	0.206156	-0.579149
C91	C	1.474190	-0.383852	-1.084497
C92	C	1.974190	0.116148	-0.584497
C93	C	1.474169	-0.383878	-0.974776
C94	C	1.974169	0.116122	-0.474776
C95	C	1.538577	-0.339003	-0.253473
C96	C	2.038577	0.160997	0.246527
C97	C	1.538737	-0.338834	-0.136687
C98	C	2.038737	0.161166	0.363313
H99	H	1.133862	-0.257430	-0.643676
H100	H	1.633862	0.242570	-0.143676
H101	H	1.655810	-0.257186	-1.121631
H102	H	2.155810	0.242814	-0.621631
H103	H	1.421605	-0.420536	-0.932288
H104	H	1.921605	0.079464	-0.432288
H105	H	0.934816	-0.257444	-0.643688
H106	H	1.434816	0.242556	-0.143688
H107	H	0.944383	-0.420557	-0.409226
H108	H	1.444383	0.079443	0.090774
H109	H	1.392793	-0.937169	-0.380378
H110	H	1.892793	-0.437169	0.119622
F111	F	1.701845	-0.749260	-0.689890
F112	F	2.201845	-0.249260	-0.189890
H113	H	1.636467	-0.936892	-0.624362
H114	H	2.136467	-0.436892	-0.124362
H115	H	1.143450	-0.420545	-0.409197
H116	H	1.643450	0.079455	0.090803
H117	H	1.400871	-1.070517	-0.388425
H118	H	1.900871	-0.570517	0.111575
F119	F	1.415396	-0.597864	-0.403129
F120	F	1.915396	-0.097864	0.096871
H121	H	1.440832	-0.740368	-0.428533
H122	H	1.940832	-0.240368	0.071467
H123	H	1.655783	-0.257240	-0.922587
H124	H	2.155783	0.242760	-0.422587
H125	H	1.644523	-1.070229	-0.632432
H126	H	2.144523	-0.570229	-0.132432
H127	H	1.676421	-0.606747	-0.664481
H128	H	2.176421	-0.106747	-0.164481
F129	F	1.405518	-0.431731	-1.145735
F130	F	1.905518	0.068269	-0.645735
