data_functionalizedCrystal
_audit_creation_method	'MofGen! by Chris Wilmer'
_symmetry_space_group_name_H-M	'P1'
_symmetry_Int_Tables_number	1
_symmetry_cell_setting	triclinic
loop_
_symmetry_equiv_pos_as_xyz
  x,y,z
_cell_length_a	30.700809
_cell_length_b	30.711276
_cell_length_c	30.700862
_cell_angle_alpha	59.998386
_cell_angle_beta	89.999414
_cell_angle_gamma	60.000191
loop_
_atom_site_label
_atom_site_type_symbol
_atom_site_fract_x
_atom_site_fract_y
_atom_site_fract_z
O1	O	-0.371254	-0.311651	0.012944
O2	O	-0.307913	-0.222487	-0.012907
O3	O	-0.307911	-0.311650	0.076286
O4	O	-0.371257	-0.222488	-0.076249
O5	O	-0.235466	-0.384070	0.076286
O6	O	-0.235468	-0.294907	-0.012907
O7	O	-0.298809	-0.384071	0.012944
Zn8	Zn	-0.255636	-0.350987	0.000018
Zn9	Zn	-0.351086	-0.255571	0.000019
O10	O	-0.298812	-0.294908	-0.076249
C11	C	-0.234796	-0.137097	-0.018777
C12	C	-0.261674	-0.083360	-0.015076
C13	C	-0.182374	-0.163176	-0.019143
C14	C	-0.234798	-0.215942	-0.018783
C15	C	-0.261678	-0.246507	-0.015089
C16	C	-0.182376	-0.241901	-0.019150
C17	C	-0.155920	-0.215947	-0.018777
C18	C	-0.098463	-0.246515	-0.015075
C19	C	-0.261132	-0.163172	-0.019150
C20	C	-0.574961	-0.535511	0.039265
C21	C	-0.548506	-0.588283	0.039634
C22	C	-0.496086	-0.535509	0.039262
C23	C	-0.469751	-0.588281	0.039632
C24	C	-0.496085	-0.614360	0.039265
C25	C	-0.548507	-0.509552	0.039632
C26	C	-0.765169	-0.393516	0.024987
C27	C	-0.819034	-0.364488	0.020950
C28	C	-0.846055	-0.389406	0.018925
C29	C	-0.904462	-0.357927	0.014538
C30	C	-0.819206	-0.443357	0.020941
C31	C	-0.765344	-0.472385	0.024984
C32	C	-0.738325	-0.447463	0.027007
C33	C	-0.447920	-0.790230	0.024988
C34	C	-0.423094	-0.840041	0.020951
C35	C	-0.371150	-0.865027	0.018921
C36	C	-0.344230	-0.919028	0.014536
C37	C	-0.344030	-0.840201	0.020935
C38	C	-0.368852	-0.790399	0.024981
C39	C	-0.420803	-0.765414	0.027004
C40	C	-0.447922	-0.393510	0.024977
C41	C	-0.423099	-0.364475	0.020931
C42	C	-0.371152	-0.389391	0.018903
C43	C	-0.344235	-0.357911	0.014513
C44	C	-0.344034	-0.443338	0.020916
C45	C	-0.368860	-0.472368	0.024960
C46	C	-0.420804	-0.447452	0.026995
C47	C	-0.679920	-0.478941	0.031387
C48	C	-0.633366	-0.504032	0.034880
C49	C	-0.469171	-0.504029	0.034875
C50	C	-0.447717	-0.478936	0.031380
C51	C	-0.469170	-0.668361	0.034880
C52	C	-0.447716	-0.711408	0.031386
C53	C	-0.496432	-0.071057	-0.503890
C54	C	-0.548853	-0.018285	-0.530226
C55	C	-0.496432	-0.071056	-0.425015
C56	C	-0.548854	-0.018284	-0.451470
C57	C	-0.575308	0.007793	-0.503892
C58	C	-0.470097	-0.097014	-0.451469
C59	C	-0.368666	-0.213054	-0.552051
C60	C	-0.343664	-0.242084	-0.576877
C61	C	-0.370616	-0.217167	-0.628824
C62	C	-0.343513	-0.248647	-0.655741
C63	C	-0.422570	-0.163216	-0.655945
C64	C	-0.447565	-0.134187	-0.631122
C65	C	-0.420611	-0.159108	-0.579173
C66	C	-0.765518	0.183662	-0.631659
C67	C	-0.819384	0.233473	-0.656662
C68	C	-0.846408	0.258459	-0.629712
C69	C	-0.904813	0.312461	-0.656813
C70	C	-0.819559	0.233635	-0.577758
C71	C	-0.765694	0.183833	-0.552761
C72	C	-0.738677	0.158847	-0.579717
C73	C	-0.368668	-0.213052	-0.234803
C74	C	-0.343669	-0.242086	-0.180935
C75	C	-0.370621	-0.217169	-0.153914
C76	C	-0.343519	-0.248648	-0.095506
C77	C	-0.422573	-0.163222	-0.180762
C78	C	-0.447570	-0.134193	-0.234627
C79	C	-0.420610	-0.159111	-0.261646
C80	C	-0.447720	-0.127629	-0.552258
C81	C	-0.469327	-0.102536	-0.530805
C82	C	-0.469328	-0.102535	-0.366609
C83	C	-0.447721	-0.127627	-0.320054
C84	C	-0.633714	0.061794	-0.530997
C85	C	-0.680269	0.104841	-0.552605
O86	O	0.076277	-0.384081	0.012960
O87	O	-0.076257	-0.294916	-0.012894
O88	O	0.012931	-0.384083	0.076300
O89	O	-0.012910	-0.294914	-0.076234
O90	O	0.012933	-0.311666	0.076306
O91	O	-0.076254	-0.222499	-0.012888
O92	O	0.076280	-0.311664	0.012966
Zn93	Zn	0.000013	-0.255584	0.000040
Zn94	Zn	0.000010	-0.350996	0.000032
O95	O	-0.012908	-0.222497	-0.076228
O96	O	-0.298805	0.063292	0.012964
O97	O	-0.235462	-0.063346	-0.012888
O98	O	-0.235465	-0.063353	0.076305
O99	O	-0.298803	0.063300	-0.076229
O100	O	-0.307912	-0.063350	0.076299
O101	O	-0.307909	-0.063342	-0.012895
O102	O	-0.371252	0.063295	0.012958
Zn103	Zn	-0.351083	-0.000023	0.000031
Zn104	Zn	-0.255631	-0.000027	0.000039
O105	O	-0.371250	0.063303	-0.076236
O106	O	-1.076607	0.456783	-0.692421
O107	O	-0.924074	0.330140	-0.629074
O108	O	-1.013262	0.330138	-0.629073
O109	O	-0.987418	0.456785	-0.692422
O110	O	-1.013261	0.330136	-0.701518
O111	O	-0.924072	0.330138	-0.701518
O112	O	-1.076605	0.456781	-0.764865
Zn113	Zn	-1.000338	0.393459	-0.744694
Zn114	Zn	-1.000340	0.393461	-0.649245
O115	O	-0.987417	0.456783	-0.764866
O116	O	-0.307911	-0.311650	-0.764507
O117	O	-0.371254	-0.222491	-0.701165
O118	O	-0.371252	-0.311652	-0.701162
O119	O	-0.307912	-0.222489	-0.764510
O120	O	-0.298806	-0.384074	-0.628716
O121	O	-0.298807	-0.294912	-0.628719
O122	O	-0.235464	-0.384072	-0.692061
Zn123	Zn	-0.255634	-0.350991	-0.648887
Zn124	Zn	-0.351085	-0.255572	-0.744338
O125	O	-0.235466	-0.294910	-0.692064
C126	C	-0.155920	-0.469469	0.234827
C127	C	-0.098464	-0.523208	0.261706
C128	C	-0.182375	-0.443392	0.261162
C129	C	-0.234797	-0.390619	0.155950
C130	C	-0.261676	-0.360052	0.098494
C131	C	-0.261132	-0.364662	0.182405
C132	C	-0.234797	-0.390620	0.234826
C133	C	-0.261675	-0.360052	0.261704
C134	C	-0.182375	-0.443391	0.182406
C135	C	0.018810	-0.390643	0.234846
C136	C	0.015111	-0.360079	0.261727
C137	C	0.019176	-0.443414	0.261179
C138	C	0.018812	-0.390637	0.155967
C139	C	0.015115	-0.360067	0.098511
C140	C	0.019178	-0.443408	0.182420
C141	C	0.018807	-0.469488	0.234841
C142	C	0.015106	-0.523226	0.261717
C143	C	0.019180	-0.364683	0.182425
C144	C	-0.234799	-0.215977	0.234834
C145	C	-0.261678	-0.246545	0.261708
C146	C	-0.182376	-0.241940	0.261172
C147	C	-0.234798	-0.137119	0.155964
C148	C	-0.261676	-0.083372	0.098509
C149	C	-0.182375	-0.163202	0.182421
C150	C	-0.155921	-0.215981	0.234841
C151	C	-0.098464	-0.246554	0.261721
C152	C	-0.261134	-0.163198	0.182415
C153	C	-0.039199	0.007461	-0.503869
C154	C	-0.039568	-0.018614	-0.530207
C155	C	-0.039203	-0.071390	-0.424995
C156	C	-0.039572	-0.097344	-0.451452
C157	C	-0.039201	-0.071385	-0.503874
C158	C	-0.039570	-0.018618	-0.451448
C159	C	-0.024912	0.183325	-0.552025
C160	C	-0.020873	0.233135	-0.576849
C161	C	-0.018844	0.258123	-0.628796
C162	C	-0.014454	0.312124	-0.655711
C163	C	-0.020859	0.233301	-0.655918
C164	C	-0.024906	0.183500	-0.631097
C165	C	-0.026932	0.158512	-0.579148
C166	C	-0.024920	-0.133799	-0.631644
C167	C	-0.020882	-0.162650	-0.656647
C168	C	-0.018855	-0.216605	-0.629699
C169	C	-0.014470	-0.247897	-0.656801
C170	C	-0.020872	-0.241704	-0.577746
C171	C	-0.024919	-0.212847	-0.552747
C172	C	-0.026939	-0.158893	-0.579702
C173	C	-0.024929	-0.133823	-0.234783
C174	C	-0.020887	-0.162684	-0.180915
C175	C	-0.018862	-0.216639	-0.153896
C176	C	-0.014477	-0.247936	-0.095488
C177	C	-0.020875	-0.241733	-0.180745
C178	C	-0.024915	-0.212872	-0.234610
C179	C	-0.026947	-0.158912	-0.261627
C180	C	-0.031316	0.104507	-0.552235
C181	C	-0.034811	0.061462	-0.530782
C182	C	-0.034820	-0.102682	-0.366590
C183	C	-0.031328	-0.127624	-0.320035
C184	C	-0.034816	-0.102672	-0.530980
C185	C	-0.031322	-0.127610	-0.552588
O186	O	-0.012940	-0.294936	0.371303
O187	O	0.012923	-0.384099	0.307961
O188	O	-0.076273	-0.294935	0.307950
O189	O	0.076257	-0.384100	0.371315
O190	O	-0.076265	-0.222515	0.235508
O191	O	0.012932	-0.311679	0.235520
O192	O	-0.012931	-0.222517	0.298862
Zn193	Zn	0.000002	-0.255600	0.255689
Zn194	Zn	-0.000010	-0.351016	0.351134
O195	O	0.076266	-0.311681	0.298873
C196	C	-0.574962	0.464558	-0.503864
C197	C	-0.548506	0.490518	-0.530195
C198	C	-0.496085	0.385697	-0.424987
C199	C	-0.469749	0.411776	-0.451438
C200	C	-0.496084	0.464555	-0.503857
C201	C	-0.548507	0.411779	-0.451444
C202	C	-0.765173	0.526994	-0.552039
C203	C	-0.819039	0.555852	-0.576867
C204	C	-0.846061	0.609814	-0.628812
C205	C	-0.904469	0.641114	-0.655732
C206	C	-0.819211	0.634913	-0.655928
C207	C	-0.765348	0.606050	-0.631102
C208	C	-0.738329	0.552088	-0.579155
C209	C	-0.447916	0.606561	-0.631604
C210	C	-0.423088	0.635592	-0.656601
C211	C	-0.371143	0.610674	-0.629648
C212	C	-0.344222	0.642150	-0.656742
C213	C	-0.344023	0.556716	-0.577696
C214	C	-0.368845	0.527681	-0.552704
C215	C	-0.420798	0.552613	-0.579664
C216	C	-0.447920	0.209802	-0.234786
C217	C	-0.423096	0.159988	-0.180919
C218	C	-0.371148	0.134996	-0.153895
C219	C	-0.344230	0.080987	-0.095489
C220	C	-0.344029	0.159823	-0.180737
C221	C	-0.368856	0.209637	-0.234602
C222	C	-0.420801	0.234620	-0.261624
C223	C	-0.679923	0.520797	-0.552238
C224	C	-0.633367	0.495853	-0.530781
C225	C	-0.469169	0.331687	-0.366583
C226	C	-0.447714	0.288634	-0.320030
C227	C	-0.469167	0.496035	-0.530956
C228	C	-0.447712	0.521128	-0.552558
H229	H	-0.161137	-0.141349	-0.019737
C230	C	-0.576779	0.547206	-0.587595
C231	C	-0.579354	0.595415	-0.590419
C232	C	-0.605384	0.647643	-0.643285
H233	H	-0.611876	0.559104	-0.599628
H234	H	-0.557585	0.538037	-0.609507
H235	H	-0.598550	0.604584	-0.568515
H236	H	-0.544266	0.583538	-0.578397
H237	H	-0.586189	0.638473	-0.665197
H238	H	-0.640478	0.659534	-0.655314
H239	H	-0.607130	0.680357	-0.645209
H240	H	0.019773	-0.322218	0.161189
C241	C	-0.318601	-0.133973	-0.020059
C242	C	-0.350753	-0.073457	-0.065949
C243	C	-0.403695	-0.046545	-0.066810
H244	H	-0.320716	-0.133697	0.010680
H245	H	-0.330591	-0.157040	-0.020261
H246	H	-0.338767	-0.050395	-0.065742
H247	H	-0.348654	-0.073715	-0.096695
H248	H	-0.415685	-0.069612	-0.067013
H249	H	-0.405805	-0.046273	-0.036070
H250	H	-0.425518	-0.005484	-0.097949
C251	C	-0.848271	-0.305857	0.018666
C252	C	-0.891257	-0.258112	-0.029179
C253	C	-0.918206	-0.204093	-0.031301
H254	H	-0.824532	-0.295086	0.020416
H255	H	-0.861140	-0.312370	0.047930
H256	H	-0.878388	-0.251599	-0.058436
H257	H	-0.915008	-0.268862	-0.030940
H258	H	-0.931076	-0.210605	-0.002037
H259	H	-0.894463	-0.193328	-0.029549
H260	H	-0.947378	-0.171693	-0.063761
H261	H	-0.161128	-0.465208	0.161163
C262	C	-0.412308	-0.617319	0.040461
C263	C	-0.394799	-0.583175	0.040713
C264	C	-0.341885	-0.609915	0.041490
H265	H	-0.410199	-0.617554	0.009703
H266	H	-0.390396	-0.658386	0.071584
H267	H	-0.416706	-0.542120	0.009593
H268	H	-0.396895	-0.582938	0.071469
H269	H	-0.319972	-0.650981	0.072613
H270	H	-0.339781	-0.610149	0.010732
H271	H	-0.329997	-0.586755	0.041666
C272	C	-0.412325	0.382779	-0.423201
C273	C	-0.394829	0.416944	-0.457605
C274	C	-0.341938	0.390257	-0.431612
H275	H	-0.390369	0.341711	-0.413215
H276	H	-0.410274	0.382580	-0.392217
H277	H	-0.396877	0.417137	-0.488579
H278	H	-0.416771	0.458012	-0.467592
H279	H	-0.339887	0.390058	-0.400629
H280	H	-0.319987	0.349190	-0.421628
H281	H	-0.330062	0.413437	-0.454950
H282	H	-0.489870	-0.090268	-0.256484
H283	H	0.019760	-0.465234	0.304248
H284	H	-0.569747	-0.610106	0.040228
H285	H	-0.304205	-0.141373	0.161175
H286	H	-0.040166	-0.139808	-0.430213
C287	C	-0.504286	-0.763107	0.027278
C288	C	-0.504118	-0.767947	0.075120
C289	C	-0.556033	-0.742957	0.077243
H290	H	-0.516936	-0.784989	0.025534
H291	H	-0.526967	-0.720981	-0.001989
H292	H	-0.481445	-0.810065	0.104379
H293	H	-0.491478	-0.746063	0.076875
H294	H	-0.578714	-0.700831	0.047976
H295	H	-0.568678	-0.764841	0.075497
H296	H	-0.555926	-0.746232	0.109701
C297	C	-0.735916	-0.366395	0.027230
C298	C	-0.770947	-0.312955	0.024626
C299	C	-0.744012	-0.287968	0.026707
H300	H	-0.723062	-0.356508	-0.002039
H301	H	-0.706737	-0.395583	0.059684
H302	H	-0.800117	-0.283774	-0.007825
H303	H	-0.783802	-0.322826	0.053892
H304	H	-0.714833	-0.317156	0.059161
H305	H	-0.731160	-0.278085	-0.002563
H306	H	-0.767776	-0.251710	0.024945
C307	C	-0.027122	0.156482	-0.660461
C308	C	-0.031107	0.107525	-0.627606
C309	C	-0.033153	0.082623	-0.654639
H310	H	0.004392	0.141950	-0.669433
H311	H	-0.057329	0.187334	-0.692111
H312	H	-0.000903	0.076679	-0.595965
H313	H	-0.062620	0.122041	-0.618632
H314	H	-0.063360	0.113474	-0.686290
H315	H	-0.001637	0.068094	-0.663610
H316	H	-0.035862	0.049406	-0.632353
C317	C	-0.287659	-0.867206	0.018662
C318	C	-0.286576	-0.821680	-0.025879
C319	C	-0.234655	-0.846531	-0.027987
H320	H	-0.276700	-0.900411	0.015938
H321	H	-0.264132	-0.881732	0.050168
H322	H	-0.310095	-0.807163	-0.057378
H323	H	-0.297525	-0.788472	-0.023166
H324	H	-0.211129	-0.861057	0.003519
H325	H	-0.223701	-0.879736	-0.030709
H326	H	-0.233913	-0.815644	-0.058205
H327	H	-0.445174	0.679524	-0.698898
H328	H	-0.301364	-0.286010	-0.554791
C329	C	-0.576909	0.382751	-0.423225
C330	C	-0.628576	0.416906	-0.457632
C331	C	-0.654752	0.390182	-0.431656
H332	H	-0.578776	0.382519	-0.392233
H333	H	-0.557751	0.341685	-0.413264
H334	H	-0.647729	0.457962	-0.467585
H335	H	-0.626724	0.417141	-0.488625
H336	H	-0.635594	0.349115	-0.421696
H337	H	-0.656615	0.389951	-0.400665
H338	H	-0.689809	0.413348	-0.454999
H339	H	-0.346767	-0.770191	0.026621
H340	H	-0.346770	0.229846	-0.256454
H341	H	-0.743523	0.163324	-0.653612
C342	C	-0.040444	0.010465	-0.423084
C343	C	-0.086327	0.027949	-0.408427
C344	C	-0.087147	0.054732	-0.382291
H345	H	-0.040631	0.045717	-0.446305
H346	H	-0.009690	-0.018488	-0.392068
H347	H	-0.117073	0.056900	-0.439440
H348	H	-0.086150	-0.007292	-0.385200
H349	H	-0.056393	0.025779	-0.351274
H350	H	-0.087333	0.089981	-0.405515
H351	H	-0.118276	0.066593	-0.372338
C352	C	-0.576908	-0.452944	0.040441
C353	C	-0.628575	-0.435689	0.040686
C354	C	-0.654750	-0.383550	0.041435
H355	H	-0.578777	-0.420098	0.009676
H356	H	-0.557749	-0.462133	0.071557
H357	H	-0.647729	-0.426498	0.009573
H358	H	-0.626721	-0.468521	0.071450
H359	H	-0.635591	-0.392739	0.072551
H360	H	-0.656615	-0.350708	0.010669
H361	H	-0.689807	-0.371840	0.041607
C362	C	0.019851	-0.472453	0.154082
C363	C	-0.025561	-0.472677	0.151467
C364	C	-0.024967	-0.499415	0.125359
H365	H	0.050918	-0.513543	0.173229
H366	H	0.019981	-0.449338	0.118991
H367	H	-0.025687	-0.495791	0.186552
H368	H	-0.056635	-0.431594	0.132317
H369	H	-0.024836	-0.476301	0.090268
H370	H	0.006102	-0.540504	0.144509
H371	H	-0.055780	-0.499565	0.123578
C372	C	-0.339317	-0.530953	0.027174
C373	C	-0.288507	-0.546571	0.024549
C374	C	-0.261273	-0.600542	0.026594
H375	H	-0.358635	-0.524477	-0.002100
H376	H	-0.335984	-0.563451	0.059624
H377	H	-0.291842	-0.514081	-0.007898
H378	H	-0.269175	-0.553060	0.053820
H379	H	-0.257940	-0.633040	0.059044
H380	H	-0.280595	-0.594060	-0.002680
H381	H	-0.226794	-0.611148	0.024818
C382	C	-0.339391	-0.240003	-0.264199
C383	C	-0.334695	-0.196856	-0.307180
C384	C	-0.307728	-0.221658	-0.334272
H385	H	-0.358812	-0.249820	-0.277095
H386	H	-0.304856	-0.276277	-0.240525
H387	H	-0.369224	-0.160593	-0.330851
H388	H	-0.315269	-0.187034	-0.294300
H389	H	-0.273192	-0.257932	-0.310598
H390	H	-0.327152	-0.231475	-0.347164
H391	H	-0.304533	-0.192389	-0.363435
C392	C	-0.154114	-0.134004	0.154123
C393	C	-0.182491	-0.073493	0.139487
C394	C	-0.156468	-0.046581	0.113428
H395	H	-0.152280	-0.133719	0.123105
H396	H	-0.119047	-0.157077	0.177401
H397	H	-0.217549	-0.050425	0.116210
H398	H	-0.184326	-0.073760	0.170495
H399	H	-0.121401	-0.069655	0.136706
H400	H	-0.154635	-0.046301	0.082412
H401	H	-0.175715	-0.005524	0.103498
C402	C	-0.451924	-0.136150	-0.712313
C403	C	-0.498546	-0.134070	-0.713392
C404	C	-0.525608	-0.109130	-0.765311
H405	H	-0.429666	-0.161124	-0.723270
H406	H	-0.460923	-0.095660	-0.735844
H407	H	-0.489547	-0.174553	-0.689869
H408	H	-0.520817	-0.109092	-0.702446
H409	H	-0.534606	-0.068640	-0.788842
H410	H	-0.503346	-0.134107	-0.776264
H411	H	-0.557246	-0.107710	-0.766052
H412	H	-0.445184	-0.320548	0.019287
H413	H	-0.490220	-0.373215	0.026628
H414	H	-0.346713	-0.233351	-0.509753
C415	C	-0.504306	0.236996	-0.264224
C416	C	-0.520237	0.285921	-0.317144
C417	C	-0.572173	0.310984	-0.344282
H418	H	-0.527881	0.251594	-0.247321
H419	H	-0.505153	0.206212	-0.263645
H420	H	-0.519394	0.316700	-0.317720
H421	H	-0.496676	0.271339	-0.334062
H422	H	-0.573020	0.280200	-0.343703
H423	H	-0.595743	0.325578	-0.327374
H424	H	-0.582987	0.344178	-0.380192
H425	H	-0.841210	-0.463642	0.019294
C426	C	-0.318529	-0.307970	0.153997
C427	C	-0.321363	-0.259743	0.108357
C428	C	-0.374224	-0.207508	0.082175
H429	H	-0.330536	-0.296104	0.177217
H430	H	-0.340459	-0.317117	0.143968
H431	H	-0.299440	-0.250598	0.118388
H432	H	-0.309367	-0.271589	0.085126
H433	H	-0.396154	-0.216655	0.072146
H434	H	-0.386225	-0.195648	0.105399
H435	H	-0.376154	-0.174782	0.051203
H436	H	-0.161134	-0.465220	0.304234
C437	C	-0.736296	-0.530934	0.027139
C438	C	-0.771489	-0.546536	0.024487
C439	C	-0.744752	-0.600461	0.026461
H440	H	-0.707110	-0.563466	0.059567
H441	H	-0.723479	-0.524392	-0.002160
H442	H	-0.784298	-0.553081	0.053783
H443	H	-0.800675	-0.514019	-0.007938
H444	H	-0.731935	-0.593920	-0.002837
H445	H	-0.715567	-0.632989	0.058890
H446	H	-0.768628	-0.611051	0.024657
H447	H	-0.301736	-0.463624	0.019263
H448	H	-0.161141	-0.284407	0.304244
C449	C	-0.040384	0.010414	-0.587646
C450	C	-0.040644	-0.023729	-0.605151
C451	C	-0.041403	0.002995	-0.658061
H452	H	-0.009617	0.010632	-0.589744
H453	H	-0.071497	0.051486	-0.609567
H454	H	-0.009534	-0.064790	-0.583236
H455	H	-0.071409	-0.023949	-0.603066
H456	H	-0.072517	0.044067	-0.679983
H457	H	-0.010636	0.003212	-0.660155
H458	H	-0.041585	-0.020163	-0.669947
H459	H	-0.019235	-0.142256	-0.159055
C460	C	-0.577076	0.010747	-0.423073
C461	C	-0.542670	-0.023400	-0.371406
C462	C	-0.568647	0.003330	-0.345236
H463	H	-0.608067	0.010975	-0.421201
H464	H	-0.587040	0.051815	-0.442236
H465	H	-0.532714	-0.064458	-0.352248
H466	H	-0.511679	-0.023631	-0.373262
H467	H	-0.578611	0.044398	-0.364399
H468	H	-0.599637	0.003556	-0.343368
H469	H	-0.545305	-0.019832	-0.310179
C470	C	-0.452635	-0.866886	0.018744
C471	C	-0.503445	-0.834336	0.021370
C472	C	-0.530676	-0.859042	0.019332
H473	H	-0.433316	-0.908985	0.048020
H474	H	-0.455969	-0.863615	-0.013704
H475	H	-0.500109	-0.837612	0.053815
H476	H	-0.522779	-0.792237	-0.007903
H477	H	-0.534010	-0.855772	-0.013116
H478	H	-0.511352	-0.901141	0.048609
H479	H	-0.565155	-0.836958	0.021109
C480	C	-0.577077	0.010743	-0.587665
C481	C	-0.542671	-0.023406	-0.605170
C482	C	-0.568646	0.003326	-0.658082
H483	H	-0.587038	0.051804	-0.609593
H484	H	-0.608073	0.010970	-0.589752
H485	H	-0.511684	-0.023627	-0.603087
H486	H	-0.532707	-0.064466	-0.583257
H487	H	-0.599642	0.003553	-0.660169
H488	H	-0.578607	0.044386	-0.680005
H489	H	-0.545307	-0.019843	-0.669964
H490	H	-0.489864	-0.090259	-0.653209
C491	C	-0.027097	-0.075263	-0.264016
C492	C	-0.024451	-0.059475	-0.228971
C493	C	-0.026438	-0.005540	-0.255881
H494	H	-0.059526	-0.042792	-0.293207
H495	H	0.002199	-0.081863	-0.276843
H496	H	-0.053744	-0.052871	-0.216152
H497	H	0.007976	-0.091931	-0.199779
H498	H	0.002857	-0.012140	-0.268709
H499	H	-0.058868	0.026927	-0.285072
H500	H	-0.024638	0.005176	-0.232107
H501	H	-0.026563	0.162985	-0.509727
H502	H	-0.019230	0.253339	-0.554762
C503	C	-0.018619	0.260493	-0.712300
C504	C	-0.014629	0.309409	-0.728230
C505	C	-0.012554	0.334465	-0.780163
H506	H	-0.050124	0.275096	-0.735880
H507	H	0.011597	0.229702	-0.713141
H508	H	-0.044841	0.340194	-0.727393
H509	H	0.016876	0.294822	-0.704664
H510	H	0.017662	0.303674	-0.781004
H511	H	-0.044060	0.349064	-0.803738
H512	H	-0.009841	0.367653	-0.790976
C513	C	-0.848447	0.260309	-0.713052
C514	C	-0.813261	0.227755	-0.731298
C515	C	-0.840018	0.252450	-0.783239
H516	H	-0.861290	0.302409	-0.735853
H517	H	-0.877621	0.257032	-0.713105
H518	H	-0.784097	0.231037	-0.731249
H519	H	-0.800417	0.185655	-0.708512
H520	H	-0.869191	0.249173	-0.783292
H521	H	-0.852859	0.294549	-0.806035
H522	H	-0.816150	0.230362	-0.795624
H523	H	-0.161139	-0.284365	-0.019743
C524	C	-0.412657	-0.153616	-0.423245
C525	C	-0.395150	-0.170870	-0.457651
C526	C	-0.342239	-0.223001	-0.431673
H527	H	-0.410557	-0.186467	-0.392254
H528	H	-0.390738	-0.144419	-0.413284
H529	H	-0.417062	-0.180070	-0.467606
H530	H	-0.397236	-0.138034	-0.488643
H531	H	-0.320321	-0.213804	-0.421711
H532	H	-0.340145	-0.255847	-0.400682
H533	H	-0.330352	-0.234711	-0.455015
H534	H	-0.026568	-0.089866	-0.653596
C535	C	-0.287253	-0.300633	-0.151888
C536	C	-0.268992	-0.316230	-0.187083
C537	C	-0.217021	-0.370153	-0.160347
H538	H	-0.287136	-0.333168	-0.122703
H539	H	-0.264500	-0.294091	-0.139070
H540	H	-0.291739	-0.322775	-0.199893
H541	H	-0.269097	-0.283710	-0.216269
H542	H	-0.194268	-0.363611	-0.147529
H543	H	-0.216908	-0.402683	-0.131163
H544	H	-0.204622	-0.380739	-0.184225
C545	C	-0.018709	-0.300293	-0.151330
C546	C	-0.014759	-0.320188	-0.098416
C547	C	-0.012773	-0.374122	-0.071308
H548	H	0.011484	-0.331381	-0.151883
H549	H	-0.050243	-0.292290	-0.168279
H550	H	0.016772	-0.328194	-0.081471
H551	H	-0.044949	-0.289116	-0.097847
H552	H	-0.044308	-0.366119	-0.088257
H553	H	0.017420	-0.405205	-0.071865
H554	H	-0.010098	-0.387625	-0.035404
H555	H	-0.019237	-0.142213	-0.698946
C556	C	-0.018643	-0.300300	-0.548564
C557	C	-0.014657	-0.320210	-0.581569
C558	C	-0.012592	-0.374194	-0.554702
H559	H	-0.050151	-0.292370	-0.539596
H560	H	0.011570	-0.331352	-0.516919
H561	H	-0.044867	-0.289165	-0.613204
H562	H	0.016850	-0.328153	-0.590539
H563	H	0.017621	-0.405245	-0.523057
H564	H	-0.044101	-0.366258	-0.545735
H565	H	-0.009882	-0.387712	-0.577090
H566	H	-0.841561	0.253985	-0.555818
C567	C	-0.735925	0.468391	-0.495651
C568	C	-0.770960	0.452579	-0.477225
C569	C	-0.744032	0.398595	-0.425287
H570	H	-0.723079	0.474925	-0.472914
H571	H	-0.706742	0.435959	-0.495656
H572	H	-0.800133	0.485004	-0.477216
H573	H	-0.783808	0.446032	-0.499947
H574	H	-0.714849	0.366162	-0.425292
H575	H	-0.731186	0.405135	-0.402555
H576	H	-0.767797	0.387856	-0.412780
C577	C	-0.027075	-0.240207	-0.496333
C578	C	-0.024423	-0.293642	-0.478075
C579	C	-0.026398	-0.318868	-0.426105
H580	H	-0.059502	-0.211147	-0.496218
H581	H	0.002223	-0.250144	-0.473575
H582	H	-0.053718	-0.283703	-0.500826
H583	H	0.008002	-0.322716	-0.478176
H584	H	0.002900	-0.328805	-0.403347
H585	H	-0.058826	-0.289803	-0.425995
H586	H	-0.024594	-0.355129	-0.413708
H587	H	-0.026556	-0.233307	-0.256467
H588	H	-0.445183	0.139782	-0.159066
H589	H	-0.743837	0.163627	-0.510462
H590	H	-0.840896	0.535415	-0.554785
C591	C	-0.848649	0.693523	-0.712307
C592	C	-0.901573	0.713440	-0.728241
C593	C	-0.928708	0.767438	-0.780171
H594	H	-0.831751	0.685606	-0.735889
H595	H	-0.848061	0.724564	-0.713140
H596	H	-0.902158	0.682406	-0.727412
H597	H	-0.918485	0.721370	-0.704673
H598	H	-0.928121	0.798479	-0.781004
H599	H	-0.911807	0.759515	-0.803748
H600	H	-0.964621	0.780962	-0.790987
H601	H	-0.444519	-0.142934	-0.158758
C602	C	-0.736300	0.633411	-0.660618
C603	C	-0.771494	0.686854	-0.711416
C604	C	-0.744756	0.712081	-0.738618
H605	H	-0.707115	0.604355	-0.663979
H606	H	-0.723481	0.643338	-0.641251
H607	H	-0.784304	0.676924	-0.730778
H608	H	-0.800679	0.715923	-0.708071
H609	H	-0.731938	0.722009	-0.719251
H610	H	-0.715572	0.683021	-0.741975
H611	H	-0.768632	0.748348	-0.773085
C612	C	-0.504307	0.633699	-0.660974
C613	C	-0.522736	0.687151	-0.711823
C614	C	-0.574677	0.712159	-0.738893
H615	H	-0.527038	0.643578	-0.641585
H616	H	-0.504306	0.604527	-0.664242
H617	H	-0.522741	0.716317	-0.708552
H618	H	-0.500019	0.677289	-0.731226
H619	H	-0.574676	0.682987	-0.742161
H620	H	-0.597404	0.722034	-0.719499
H621	H	-0.587186	0.748425	-0.773398
H622	H	-0.301723	0.536422	-0.555753
H623	H	-0.346761	0.483749	-0.510407
H624	H	-0.301729	0.139473	-0.158731
