data_functionalizedCrystal
_audit_creation_method	'MofGen! by Chris Wilmer'
_symmetry_space_group_name_H-M	'P1'
_symmetry_Int_Tables_number	1
_symmetry_cell_setting	triclinic
loop_
_symmetry_equiv_pos_as_xyz
  x,y,z
_cell_length_a	16.959455
_cell_length_b	21.295417
_cell_length_c	16.959447
_cell_angle_alpha	89.966081
_cell_angle_beta	89.982031
_cell_angle_gamma	90.027454
loop_
_atom_site_label
_atom_site_type_symbol
_atom_site_fract_x
_atom_site_fract_y
_atom_site_fract_z
Zn1	Zn	1.208355	-0.250656	-0.446882
Zn2	Zn	1.541688	0.082677	-0.113549
Zn3	Zn	1.875022	0.416011	0.219785
Zn4	Zn	1.208245	-0.355930	-0.314692
Zn5	Zn	1.541578	-0.022597	0.018641
Zn6	Zn	1.874912	0.310736	0.351975
Zn7	Zn	1.076175	-0.250673	-0.314719
Zn8	Zn	1.409508	0.082660	0.018614
Zn9	Zn	1.742842	0.415993	0.351947
Zn10	Zn	1.076124	-0.355886	-0.446831
Zn11	Zn	1.409457	-0.022552	-0.113497
Zn12	Zn	1.742791	0.310781	0.219836
O13	O	1.142225	-0.303286	-0.380781
O14	O	1.475558	0.030047	-0.047448
O15	O	1.808891	0.363380	0.285886
O16	O	1.318951	-0.264632	-0.429357
O17	O	1.652285	0.068701	-0.096023
O18	O	1.985618	0.402034	0.237310
O19	O	1.190701	-0.341994	-0.204085
O20	O	1.524034	-0.008660	0.129249
O21	O	1.857368	0.324673	0.462582
O22	O	1.093776	-0.162582	-0.332284
O23	O	1.427110	0.170752	0.001049
O24	O	1.760443	0.504085	0.334383
O25	O	1.318870	-0.341977	-0.332237
O26	O	1.652204	-0.008644	0.001096
O27	O	1.985537	0.324690	0.334429
O28	O	1.190888	-0.162569	-0.429383
O29	O	1.524222	0.170764	-0.096050
O30	O	1.857555	0.504098	0.237284
O31	O	1.093670	-0.264662	-0.204105
O32	O	1.427003	0.068671	0.129228
O33	O	1.760336	0.402005	0.462562
O34	O	0.965557	-0.264619	-0.332234
O35	O	1.298891	0.068715	0.001099
O36	O	1.632224	0.402048	0.334432
O37	O	1.093689	-0.341901	-0.557448
O38	O	1.427023	-0.008567	-0.224115
O39	O	1.760356	0.324766	0.109218
O40	O	0.965520	-0.341918	-0.429296
O41	O	1.298853	-0.008584	-0.095963
O42	O	1.632187	0.324749	0.237371
O43	O	1.190839	-0.264589	-0.557486
O44	O	1.524172	0.068744	-0.224153
O45	O	1.857506	0.402078	0.109181
O46	O	1.190651	-0.444014	-0.332188
O47	O	1.523985	-0.110680	0.001146
O48	O	1.857318	0.222653	0.334479
O49	O	1.093583	-0.443981	-0.429269
O50	O	1.426916	-0.110648	-0.095936
O51	O	1.760249	0.222686	0.237397
C52	C	0.936858	-0.303266	-0.380763
C53	C	1.270192	0.030068	-0.047430
C54	C	1.603525	0.363401	0.285904
C55	C	0.849002	-0.303272	-0.380774
C56	C	1.182335	0.030061	-0.047441
C57	C	1.515668	0.363395	0.285893
C58	C	1.142121	-0.466838	-0.380737
C59	C	1.475454	-0.133505	-0.047404
C60	C	1.808788	0.199829	0.285929
C61	C	1.142149	-0.536806	-0.380745
C62	C	1.475482	-0.203473	-0.047412
C63	C	1.808816	0.129861	0.285922
C64	C	0.477521	-0.263004	-0.330347
C65	C	0.810855	0.070330	0.002987
C66	C	1.144188	0.403663	0.336320
C67	C	0.477531	-0.343621	-0.431261
C68	C	0.810864	-0.010287	-0.097927
C69	C	1.144198	0.323046	0.235406
C70	C	0.560077	-0.343612	-0.431256
C71	C	0.893410	-0.010278	-0.097922
C72	C	1.226744	0.323055	0.235411
C73	C	0.601349	-0.303299	-0.380795
C74	C	0.934682	0.030035	-0.047461
C75	C	1.268016	0.363368	0.285872
C76	C	0.560075	-0.262995	-0.330339
C77	C	0.893408	0.070338	0.002995
C78	C	1.226742	0.403672	0.336328
C79	C	0.601357	-0.383919	-0.481705
C80	C	0.934691	-0.050586	-0.148372
C81	C	1.268024	0.282747	0.184961
C82	C	0.683908	-0.383912	-0.481702
C83	C	1.017241	-0.050579	-0.148369
C84	C	1.350575	0.282754	0.184965
C85	C	0.725181	-0.343596	-0.431244
C86	C	1.058515	-0.010263	-0.097911
C87	C	1.391848	0.323071	0.235422
C88	C	0.683902	-0.303290	-0.380787
C89	C	1.017236	0.030044	-0.047453
C90	C	1.350569	0.363377	0.285880
C91	C	0.725174	-0.262977	-0.330326
C92	C	1.058508	0.070356	0.003008
C93	C	1.391841	0.403690	0.336341
C94	C	0.683897	-0.222667	-0.279871
C95	C	1.017230	0.110666	0.053462
C96	C	1.350563	0.443999	0.386795
C97	C	0.601348	-0.222678	-0.279881
C98	C	0.934682	0.110655	0.053452
C99	C	1.268015	0.443988	0.386786
C100	C	0.807730	-0.343585	-0.431235
C101	C	1.141063	-0.010251	-0.097902
C102	C	1.474397	0.323082	0.235432
C103	C	0.807728	-0.262968	-0.330318
C104	C	1.141061	0.070365	0.003016
C105	C	1.474394	0.403699	0.336349
C106	C	1.192738	-0.569669	-0.330246
C107	C	1.526071	-0.236336	0.003087
C108	C	1.859404	0.096998	0.336420
C109	C	1.192775	-0.635411	-0.330264
C110	C	1.526108	-0.302078	0.003069
C111	C	1.859441	0.031255	0.336403
C112	C	1.142209	-0.668289	-0.380772
C113	C	1.475542	-0.334955	-0.047439
C114	C	1.808876	-0.001622	0.285894
C115	C	1.091617	-0.635418	-0.431281
C116	C	1.424950	-0.302084	-0.097947
C117	C	1.758284	0.031249	0.235386
C118	C	1.091587	-0.569677	-0.431267
C119	C	1.424920	-0.236343	-0.097934
C120	C	1.758254	0.096990	0.235400
N121	N	1.073063	-0.771551	-0.386792
N122	N	1.406396	-0.438218	-0.053459
N123	N	1.739729	-0.104885	0.279875
N124	N	1.073093	-0.834003	-0.386800
N125	N	1.406427	-0.500669	-0.053467
N126	N	1.739760	-0.167336	0.279866
C127	C	1.142298	-0.866363	-0.380818
C128	C	1.475631	-0.533030	-0.047484
C129	C	1.808964	-0.199697	0.285849
N130	N	1.211471	-0.833913	-0.374811
N131	N	1.544805	-0.500580	-0.041477
N132	N	1.878138	-0.167246	0.291856
N133	N	1.211440	-0.771456	-0.374798
N134	N	1.544773	-0.438123	-0.041465
N135	N	1.878106	-0.104789	0.291868
C136	C	1.142236	-0.739574	-0.380793
C137	C	1.475570	-0.406241	-0.047460
C138	C	1.808903	-0.072907	0.285874
C139	C	1.192931	-0.970512	-0.330335
C140	C	1.526264	-0.637178	0.002998
C141	C	1.859597	-0.303845	0.336331
C142	C	1.192969	-1.036255	-0.330359
C143	C	1.526302	-0.702922	0.002975
C144	C	1.859636	-0.369589	0.336308
C145	C	1.091804	-1.036260	-0.431371
C146	C	1.425137	-0.702927	-0.098038
C147	C	1.758471	-0.369594	0.235295
C148	C	1.091773	-0.970518	-0.431352
C149	C	1.425106	-0.637185	-0.098019
C150	C	1.758439	-0.303851	0.235315
C151	C	1.142335	-0.937648	-0.380830
C152	C	1.475668	-0.604314	-0.047497
C153	C	1.809002	-0.270981	0.285837
C154	C	1.348393	-0.303308	-0.380800
C155	C	1.681726	0.030026	-0.047466
C156	C	2.015060	0.363359	0.285867
C157	C	1.436249	-0.303317	-0.380808
C158	C	1.769583	0.030017	-0.047474
C159	C	2.102916	0.363350	0.285859
C160	C	1.142271	-0.303238	-0.586949
C161	C	1.475604	0.030095	-0.253616
C162	C	1.808937	0.363429	0.079717
C163	C	1.142290	-0.303217	-0.674806
C164	C	1.475624	0.030116	-0.341473
C165	C	1.808957	0.363449	-0.008139
C166	C	1.142350	-0.139096	-0.380842
C167	C	1.475684	0.194237	-0.047509
C168	C	1.809017	0.527571	0.285824
C169	C	1.142404	-0.069128	-0.380868
C170	C	1.475737	0.264205	-0.047535
C171	C	1.809070	0.597539	0.285798
C172	C	1.192820	-0.343470	-0.716071
C173	C	1.526153	-0.010136	-0.382738
C174	C	1.859487	0.323197	-0.049405
C175	C	1.091774	-0.262949	-0.716094
C176	C	1.425107	0.070385	-0.382761
C177	C	1.758441	0.403718	-0.049428
C178	C	1.091788	-0.262930	-0.798640
C179	C	1.425121	0.070403	-0.465307
C180	C	1.758454	0.403736	-0.131974
C181	C	1.142317	-0.303183	-0.839906
C182	C	1.475651	0.030151	-0.506572
C183	C	1.808984	0.363484	-0.173239
C184	C	1.192834	-0.343454	-0.798625
C185	C	1.526167	-0.010121	-0.465291
C186	C	1.859500	0.323213	-0.131958
C187	C	1.041267	-0.222664	-0.839927
C188	C	1.374600	0.110669	-0.506594
C189	C	1.707933	0.444002	-0.173261
C190	C	1.041278	-0.222645	-0.922478
C191	C	1.374611	0.110688	-0.589145
C192	C	1.707944	0.444022	-0.255812
C193	C	1.091812	-0.262895	-0.963745
C194	C	1.425145	0.070439	-0.630412
C195	C	1.758479	0.403772	-0.297078
C196	C	1.142331	-0.303167	-0.922459
C197	C	1.475664	0.030166	-0.589126
C198	C	1.808998	0.363500	-0.255792
C199	C	1.192861	-0.343420	-0.963724
C200	C	1.526194	-0.010086	-0.630391
C201	C	1.859527	0.323247	-0.297058
C202	C	1.243384	-0.383689	-0.922440
C203	C	1.576717	-0.050356	-0.589107
C204	C	1.910051	0.282978	-0.255773
C205	C	1.243368	-0.383704	-0.839891
C206	C	1.576701	-0.050370	-0.506558
C207	C	1.910035	0.282963	-0.173225
C208	C	1.091828	-0.262880	-1.046293
C209	C	1.425161	0.070453	-0.712960
C210	C	1.758495	0.403787	-0.379627
C211	C	1.192874	-0.343404	-1.046278
C212	C	1.526207	-0.010070	-0.712945
C213	C	1.859541	0.323263	-0.379611
C214	C	1.142224	-0.303289	-0.175415
C215	C	1.475558	0.030044	0.157919
C216	C	1.808891	0.363377	0.491252
C217	C	1.142358	-0.303133	-0.087559
C218	C	1.475691	0.030201	0.245775
C219	C	1.809025	0.363534	0.579108
H220	H	0.841326	-0.230136	-0.289230
H221	H	1.174659	0.103197	0.044103
H222	H	1.507992	0.436531	0.377436
Cl223	Cl	0.425632	-0.212328	-0.266926
Cl224	Cl	0.758966	0.121005	0.066408
Cl225	Cl	1.092299	0.454338	0.399741
H226	H	0.567733	-0.189861	-0.238803
H227	H	0.901066	0.143472	0.094530
H228	H	1.234399	0.476806	0.427864
Cl229	Cl	1.256337	-0.394088	-0.664174
Cl230	Cl	1.589670	-0.060754	-0.330841
Cl231	Cl	1.923004	0.272579	0.002493
Cl232	Cl	0.735792	-0.434584	-0.545131
Cl233	Cl	1.069126	-0.101251	-0.211798
Cl234	Cl	1.402459	0.232082	0.121535
H235	H	1.284523	-0.416465	-0.956049
H236	H	1.617856	-0.083131	-0.622715
H237	H	1.951189	0.250202	-0.289382
Cl238	Cl	0.735791	-0.171994	-0.216433
Cl239	Cl	1.069124	0.161339	0.116901
Cl240	Cl	1.402458	0.494673	0.450234
H241	H	1.000139	-0.189855	-0.956085
H242	H	1.333472	0.143479	-0.622752
H243	H	1.666805	0.476812	-0.289418
Cl244	Cl	1.256405	-0.394007	-1.098147
Cl245	Cl	1.589739	-0.060673	-0.764814
Cl246	Cl	1.923072	0.272660	-0.431481
Cl247	Cl	1.256492	-0.929186	-0.266823
Cl248	Cl	1.589826	-0.595852	0.066510
Cl249	Cl	1.923159	-0.262519	0.399844
H250	H	0.567748	-0.416744	-0.522782
H251	H	0.901081	-0.083411	-0.189449
H252	H	1.234414	0.249922	0.143884
H253	H	1.284500	-0.416490	-0.806270
H254	H	1.617834	-0.083156	-0.472937
H255	H	1.951167	0.250177	-0.139604
Cl256	Cl	1.028271	-0.212335	-0.664217
Cl257	Cl	1.361605	0.120998	-0.330884
Cl258	Cl	1.694938	0.454332	0.002449
H259	H	1.000123	-0.189897	-0.806323
H260	H	1.333456	0.143436	-0.472990
H261	H	1.666790	0.476769	-0.139656
H262	H	1.234169	-1.063011	-0.289238
H263	H	1.567503	-0.729678	0.044095
H264	H	1.900836	-0.396344	0.377428
H265	H	1.050636	-1.063028	-0.472499
H266	H	1.383969	-0.729695	-0.139166
H267	H	1.717303	-0.396362	0.194167
H268	H	1.050692	-0.230094	-1.079903
H269	H	1.384025	0.103239	-0.746570
H270	H	1.717358	0.436572	-0.413237
H271	H	1.233910	-0.542908	-0.289110
H272	H	1.567244	-0.209574	0.044223
H273	H	1.900577	0.123759	0.377556
Cl274	Cl	1.027984	-0.528361	-0.494756
Cl275	Cl	1.361317	-0.195028	-0.161422
Cl276	Cl	1.694650	0.138306	0.171911
Cl277	Cl	1.028168	-0.929202	-0.494836
Cl278	Cl	1.361501	-0.595869	-0.161503
Cl279	Cl	1.694835	-0.262536	0.171830
Cl280	Cl	0.425646	-0.394310	-0.494677
Cl281	Cl	0.758979	-0.060977	-0.161344
Cl282	Cl	1.092312	0.272356	0.171990
Cl283	Cl	1.256375	-0.676733	-0.266774
Cl284	Cl	1.589709	-0.343400	0.066560
Cl285	Cl	1.923042	-0.010067	0.399893
Cl286	Cl	0.859618	-0.394259	-0.494653
Cl287	Cl	1.192951	-0.060926	-0.161320
Cl288	Cl	1.526285	0.272408	0.172014
H289	H	1.050447	-0.662191	-0.472406
H290	H	1.383781	-0.328857	-0.139073
H291	H	1.717114	0.004476	0.194261
