data_functionalizedCrystal
_audit_creation_method	'MofGen! by Chris Wilmer'
_symmetry_space_group_name_H-M	'P1'
_symmetry_Int_Tables_number	1
_symmetry_cell_setting	triclinic
loop_
_symmetry_equiv_pos_as_xyz
  x,y,z
_cell_length_a	23.096457
_cell_length_b	19.902436
_cell_length_c	19.902436
_cell_angle_alpha	89.999997
_cell_angle_beta	60.007109
_cell_angle_gamma	60.000616
loop_
_atom_site_label
_atom_site_type_symbol
_atom_site_fract_x
_atom_site_fract_y
_atom_site_fract_z
Zr1	Zr	0.633808	0.647229	-0.088232
O2	O	0.754576	0.539946	-0.195496
O3	O	0.513025	0.680119	-0.055351
O4	O	0.633800	0.680116	-0.195515
O5	O	0.633812	0.539949	0.055233
O6	O	0.633812	0.790682	-0.195528
O7	O	0.633800	0.539949	-0.055332
O8	O	0.417766	0.790687	0.055199
O9	O	0.849858	0.539944	-0.195494
O10	O	0.562719	0.776657	-0.041336
O11	O	0.562719	0.694143	0.041188
O12	O	0.704917	0.694140	-0.123837
O13	O	0.704917	0.611626	-0.041313
Zr14	Zr	0.633844	0.823568	0.088087
Zr15	Zr	0.633826	0.823569	-0.088253
Zr16	Zr	0.633826	0.647229	0.088108
Zr17	Zr	0.785771	0.647225	-0.088229
Zr18	Zr	0.481881	0.823572	0.088084
O19	O	0.754627	0.790679	0.055207
O20	O	0.754602	0.790679	-0.195526
O21	O	0.754602	0.539946	0.055236
O22	O	0.513076	0.930851	0.195351
O23	O	0.513050	0.930851	-0.055381
O24	O	0.513050	0.680119	0.195381
O25	O	0.633840	0.930848	-0.055378
O26	O	0.633851	0.790681	0.195370
O27	O	0.633840	0.680116	0.195383
O28	O	0.633851	0.930848	0.055187
O29	O	0.849872	0.680111	-0.195511
O30	O	0.417780	0.790687	0.195366
O31	O	0.417794	0.930853	0.195349
O32	O	0.417780	0.930853	0.055183
O33	O	0.849872	0.539944	-0.055328
O34	O	0.849886	0.680111	-0.055344
O35	O	0.562735	0.776657	0.123692
O36	O	0.562735	0.859171	0.041168
O37	O	0.704933	0.776654	-0.041333
O38	O	0.704933	0.694140	0.041191
C39	C	0.443744	0.735403	-0.000077
C40	C	0.379232	0.735405	-0.000078
C41	C	-0.081286	0.778472	-0.043135
C42	C	-0.020666	0.778470	-0.043143
C43	C	0.009646	0.735399	-0.000066
C44	C	-0.020651	0.692311	0.043004
C45	C	-0.081264	0.692307	0.043004
N46	N	0.072048	0.741379	0.070028
N47	N	0.129626	0.741386	0.070027
C48	C	0.192272	0.735406	-0.000064
N49	N	0.195156	0.729433	-0.070152
N50	N	0.137569	0.729430	-0.070149
C51	C	0.075372	0.735398	-0.000061
C52	C	0.288297	0.778485	-0.043144
C53	C	0.348922	0.778477	-0.043154
C54	C	0.348930	0.692323	0.043001
C55	C	0.288313	0.692326	0.043003
C56	C	0.257997	0.735411	-0.000068
C57	C	0.633804	0.514825	-0.000047
C58	C	0.633796	0.439964	-0.000038
C59	C	0.633836	0.167915	-0.000084
C60	C	0.544135	0.248459	0.051712
C61	C	0.544079	0.326362	0.052003
C62	C	0.633816	0.302882	-0.000061
C63	C	0.678370	0.248761	0.037901
C64	C	0.677796	0.171199	0.038280
C65	C	0.679626	0.170060	-0.089864
C66	C	0.677940	0.248938	-0.089722
C67	C	0.633809	0.379157	-0.000049
C68	C	0.633846	0.091639	-0.000093
C69	C	0.823908	0.735394	-0.000068
C70	C	0.888420	0.735392	-0.000067
C71	C	0.633804	0.735399	-0.220646
C72	C	0.633796	0.735399	-0.295507
C73	C	0.633848	0.955973	-0.000098
C74	C	0.633856	1.030833	-0.000107
C75	C	0.633836	0.735398	-0.567556
C76	C	0.544135	0.787700	-0.487022
C77	C	0.544079	0.787473	-0.409119
C78	C	0.633816	0.735399	-0.432589
C79	C	0.678357	0.645740	-0.486697
C80	C	0.677783	0.646027	-0.564259
C81	C	0.679638	0.772033	-0.565414
C82	C	0.677953	0.773847	-0.486536
C83	C	0.633809	0.735395	-0.356314
C84	C	0.633846	0.735397	-0.643832
C85	C	0.633848	0.735399	0.220502
C86	C	0.633856	0.735399	0.295362
C87	C	0.443766	0.955977	-0.000102
C88	C	0.379262	1.030840	-0.000113
C89	C	0.443766	0.735403	0.220497
C90	C	0.379262	0.735405	0.295357
C91	C	0.443789	0.955977	0.220472
C92	C	0.379292	1.030839	0.295322
C93	C	0.823863	0.514820	-0.220616
C94	C	0.888360	0.439958	-0.295467
C95	C	0.823886	0.514820	-0.000042
C96	C	0.888390	0.439958	-0.000032
C97	C	0.823886	0.735394	-0.220642
C98	C	0.888390	0.735393	-0.295502
C99	C	0.348961	1.022924	-0.043191
C100	C	0.288360	1.093259	-0.043217
C101	C	0.258058	1.171508	-0.000159
C102	C	0.288364	1.179421	0.042920
C103	C	0.348968	1.109088	0.042941
C104	C	0.348978	0.778477	0.373585
C105	C	0.288378	0.778475	0.443930
C106	C	0.258058	0.735406	0.436045
C107	C	0.288347	0.692328	0.357808
C108	C	0.348951	0.692326	0.287465
C109	C	0.349003	1.109075	0.287396
C110	C	0.288410	1.179422	0.357720
C111	C	0.258102	1.171533	0.435968
C112	C	0.288397	1.093290	0.443892
C113	C	0.348993	1.022944	0.373570
C114	C	0.918656	0.361723	-0.287541
C115	C	0.979268	0.291375	-0.357865
C116	C	1.009579	0.299264	-0.436113
C117	C	0.979281	0.377507	-0.444037
C118	C	0.918674	0.447853	-0.373715
C119	C	0.918697	0.447873	0.043039
C120	C	0.979314	0.377539	0.043046
C121	C	1.009619	0.299290	-0.000015
C122	C	0.979310	0.291376	-0.043091
C123	C	0.918698	0.361710	-0.043102
C124	C	0.918691	0.778471	-0.287590
C125	C	0.979292	0.778485	-0.357922
C126	C	1.009595	0.735417	-0.436164
C127	C	0.979288	0.692337	-0.444074
C128	C	0.918684	0.692328	-0.373743
H129	H	0.373591	0.813553	-0.078230
C130	C	0.885369	0.644928	-0.382456
H131	H	0.912107	0.619275	-0.439129
H132	H	0.828148	0.682092	-0.356818
H133	H	0.895318	0.604158	-0.356812
H134	H	1.003993	0.227656	-0.078150
C135	C	-0.114621	0.825852	-0.090522
H136	H	-0.087888	0.851502	-0.116180
H137	H	-0.171841	0.866609	-0.053353
H138	H	-0.104682	0.788666	-0.131283
H139	H	0.894023	0.355253	-0.078174
H140	H	0.647414	0.616204	-0.449240
C141	C	0.012654	0.825869	-0.090509
H142	H	-0.014087	0.851534	-0.116153
H143	H	0.069874	0.788704	-0.131265
H144	H	0.002713	0.866630	-0.053318
H145	H	0.894028	0.813542	-0.223887
H146	H	0.373599	0.657254	0.223770
C147	C	-0.114601	0.644932	0.090395
H148	H	-0.087872	0.619285	0.116055
H149	H	-0.104681	0.604174	0.053230
H150	H	-0.171822	0.682123	0.131154
H151	H	0.744337	0.605079	-0.506456
H152	H	0.263651	0.657262	0.351400
H153	H	0.208711	0.735414	0.493330
C154	C	0.496581	0.379101	0.141468
H155	H	0.496379	0.426951	0.141953
H156	H	0.522202	0.348090	0.166295
H157	H	0.441851	0.394811	0.171350
C158	C	0.496809	0.249483	0.140644
H159	H	0.442677	0.298347	0.171513
H160	H	0.523719	0.247780	0.164994
H161	H	0.494825	0.202952	0.140287
C162	C	0.885373	0.533939	0.090404
H163	H	0.844928	0.574702	0.084240
H164	H	0.928888	0.540107	0.069129
H165	H	0.861733	0.540109	0.147073
C166	C	0.255064	0.825871	0.529980
H167	H	0.281794	0.851531	0.524595
H168	H	0.265002	0.788702	0.559221
H169	H	0.197840	0.866634	0.559204
C170	C	0.496799	0.753691	-0.485994
H171	H	0.442667	0.785640	-0.437134
H172	H	0.523703	0.698118	-0.487687
H173	H	0.494813	0.756346	-0.532523
H174	H	0.263750	1.243125	0.351253
H175	H	0.373671	1.115514	0.223689
H176	H	0.650935	0.837059	-0.568409
H177	H	0.208761	1.228820	0.493223
H178	H	0.645470	0.839905	-0.449223
C179	C	0.496568	0.753136	-0.356381
H180	H	0.477233	0.739263	-0.382544
H181	H	0.451412	0.793564	-0.303684
H182	H	0.531758	0.705379	-0.350394
C183	C	0.012688	0.644933	0.090388
H184	H	-0.014033	0.619270	0.116034
H185	H	0.002759	0.682110	0.131144
H186	H	0.069911	0.604173	0.053208
C187	C	1.012628	0.825863	-0.349206
H188	H	0.985909	0.851496	-0.292534
H189	H	1.002692	0.866634	-0.374847
H190	H	1.069852	0.788678	-0.374850
C191	C	0.885333	0.353029	-0.201477
H192	H	0.912072	0.296355	-0.206840
H193	H	0.828112	0.378671	-0.172244
H194	H	0.895280	0.378682	-0.172257
H195	H	0.263616	0.813564	-0.078218
H196	H	0.743408	0.230412	-0.131560
H197	H	0.647436	0.286216	0.103341
C198	C	0.255045	1.084623	0.529968
H199	H	0.214611	1.137728	0.570707
H200	H	0.298546	1.055397	0.536160
H201	H	0.231382	1.055408	0.536143
H202	H	1.058973	0.242026	0.000001
H203	H	0.373614	0.657250	0.078070
H204	H	0.743420	0.739714	-0.505050
H205	H	0.263644	0.657250	0.078078
H206	H	0.509135	0.365751	0.026528
H207	H	0.508931	0.853893	-0.485332
H208	H	0.263692	1.086799	-0.078298
C209	C	0.768909	0.720813	-0.642090
H210	H	0.778254	0.677320	-0.675268
H211	H	0.804909	0.698518	-0.625514
H212	H	0.778630	0.755000	-0.672800
H213	H	0.646144	0.171395	0.104346
H214	H	1.003927	0.227673	-0.351396
C215	C	1.012636	0.386258	0.090441
H216	H	0.985893	0.442935	0.116094
H217	H	1.069855	0.360621	0.053277
H218	H	1.002700	0.360609	0.131206
C219	C	1.076234	0.221879	-0.513460
H220	H	1.089924	0.174157	-0.497526
H221	H	1.123532	0.221858	-0.545290
H222	H	1.056354	0.221872	-0.545275
C223	C	1.076264	0.735426	-0.513521
H224	H	1.089972	0.767245	-0.497595
H225	H	1.056404	0.758487	-0.545351
H226	H	1.123557	0.680546	-0.545331
C227	C	0.382288	0.936860	-0.090564
H228	H	0.355562	0.942231	-0.116228
H229	H	0.372353	0.907625	-0.053389
H230	H	0.439511	0.907633	-0.131319
H231	H	1.003970	0.657272	-0.507789
H232	H	0.508919	0.250156	0.026382
C233	C	0.885323	0.533909	-0.382439
H234	H	0.844882	0.574682	-0.329355
H235	H	0.861686	0.540042	-0.411672
H236	H	0.928826	0.540098	-0.411666
H237	H	0.743609	0.114162	0.002993
C238	C	0.382295	0.936890	0.382298
H239	H	0.355555	0.942274	0.438973
H240	H	0.439517	0.907643	0.356658
H241	H	0.372338	0.907668	0.356662
C242	C	0.767503	0.222056	-0.010598
H243	H	0.793300	0.189398	0.013391
H244	H	0.768041	0.269432	-0.008994
H245	H	0.796163	0.190846	-0.066117
C246	C	0.640892	0.165943	-0.132733
H247	H	0.596419	0.162889	-0.096269
H248	H	0.680764	0.118549	-0.180741
H249	H	0.621590	0.213840	-0.147627
C250	C	1.012622	0.386174	-0.530113
H251	H	1.053048	0.333070	-0.570852
H252	H	1.036274	0.415400	-0.536301
H253	H	0.969107	0.415389	-0.536292
H254	H	0.645454	0.286264	-0.118082
C255	C	0.768897	0.093375	-0.142240
H256	H	0.778250	0.060191	-0.109597
H257	H	0.804895	0.109948	-0.161721
H258	H	0.778612	0.062667	-0.187705
H259	H	0.509132	0.853496	-0.369733
H260	H	0.646121	0.616698	-0.564062
H261	H	0.743595	0.604937	-0.621289
H262	H	0.263683	1.243141	0.077976
C263	C	0.191389	1.248870	-0.000179
H264	H	0.177680	1.296610	0.031630
H265	H	0.144105	1.248864	0.022876
H266	H	0.211261	1.248867	-0.055061
C267	C	0.382283	1.117805	0.090342
H268	H	0.355545	1.174482	0.115987
H269	H	0.439504	1.092159	0.053184
H270	H	0.372333	1.092165	0.131114
H271	H	0.373658	0.813549	0.380021
