data_functionalizedCrystal
_audit_creation_method	'MofGen! by Chris Wilmer'
_symmetry_space_group_name_H-M	'P1'
_symmetry_Int_Tables_number	1
_symmetry_cell_setting	triclinic
loop_
_symmetry_equiv_pos_as_xyz
  x,y,z
_cell_length_a	10.489746
_cell_length_b	10.489741
_cell_length_c	14.586319
_cell_angle_alpha	89.996488
_cell_angle_beta	89.999417
_cell_angle_gamma	84.540238
loop_
_atom_site_label
_atom_site_type_symbol
_atom_site_fract_x
_atom_site_fract_y
_atom_site_fract_z
O1	O	1.694048	0.179998	-0.076178
O2	O	1.322853	0.196884	-0.076193
O3	O	1.516897	0.002843	-0.076180
O4	O	1.500004	0.374039	-0.076192
O5	O	1.516884	0.002840	0.076301
O6	O	1.322840	0.196881	0.076287
O7	O	1.694035	0.179995	0.076303
Cu8	Cu	1.508436	0.188438	0.090218
Cu9	Cu	1.508452	0.188441	-0.090109
O10	O	1.499991	0.374036	0.076289
C11	C	1.275315	0.195606	0.000045
C12	C	1.133686	0.191786	0.000039
C13	C	0.980828	0.066062	0.000056
C14	C	1.058215	0.128917	0.075233
C15	C	1.058184	0.128950	-0.075102
C16	C	0.958724	0.247899	0.075300
C17	C	0.958687	0.247914	-0.075101
C18	C	1.036025	0.310856	0.000094
C19	C	1.515614	-0.044690	0.000060
C20	C	1.511797	-0.186320	0.000058
C21	C	1.388333	-0.254462	0.000046
C22	C	1.446650	-0.346585	0.075230
C23	C	1.446692	-0.346557	-0.075105
C24	C	1.570165	-0.276577	0.075303
C25	C	1.570190	-0.276539	-0.075098
C26	C	1.628597	-0.368635	0.000103
C27	C	1.741573	0.181273	0.000062
C28	C	1.883202	0.185093	0.000062
C29	C	1.501273	0.421569	0.000047
C30	C	1.505091	0.563198	0.000043
N31	N	1.508434	0.188434	0.217049
N32	N	1.508464	0.188434	-0.216940
C33	C	1.594385	0.102542	0.452062
C34	C	1.594389	0.102539	0.548043
C35	C	1.422503	0.274330	0.548041
C36	C	1.422494	0.274326	0.452061
C37	C	1.508443	0.188434	0.404074
C38	C	1.508455	0.188435	0.596035
C39	C	1.508459	0.188432	0.700102
C40	C	1.508438	0.188435	0.300000
H41	H	0.956107	-0.037439	0.000135
H42	H	1.101633	0.078680	-0.138659
H43	H	1.394403	-0.377599	0.138787
H44	H	0.915438	0.298112	0.138930
H45	H	1.286821	-0.204813	0.000118
O46	O	1.338847	0.357637	0.594618
C47	C	1.212388	0.335685	0.571159
H48	H	1.210828	0.233549	0.544779
H49	H	1.175561	0.406023	0.515446
C50	C	1.128020	0.480106	0.688825
C51	C	1.126103	0.354657	0.656433
H52	H	1.074793	0.491814	0.741424
H53	H	1.213217	0.494900	0.704629
H54	H	1.097335	0.538706	0.642390
H55	H	1.156803	0.296060	0.702864
H56	H	1.040908	0.339854	0.640639
H57	H	1.622354	-0.245745	0.138936
H58	H	1.730200	-0.418057	0.000149
O59	O	1.632281	-0.239525	-0.151017
C60	C	1.566884	-0.274827	-0.230134
H61	H	1.462792	-0.286053	-0.212126
H62	H	1.614265	-0.369512	-0.257564
C63	C	1.699903	-0.156533	-0.325949
C64	C	1.572052	-0.170310	-0.303832
H65	H	1.703094	-0.092066	-0.371411
H66	H	1.743966	-0.132753	-0.272647
H67	H	1.739372	-0.235444	-0.348801
H68	H	1.532589	-0.091404	-0.280969
H69	H	1.527982	-0.194075	-0.357132
H70	H	1.394442	-0.377520	-0.138672
H71	H	1.664368	0.032602	0.412993
H72	H	1.664370	0.032598	0.587112
O73	O	1.338882	0.357593	0.405397
C74	C	1.259583	0.288507	0.349870
H75	H	1.256503	0.187891	0.378805
H76	H	1.299443	0.282200	0.277129
C77	C	1.127060	0.481056	0.312849
C78	C	1.123268	0.357480	0.348393
H79	H	1.042976	0.523603	0.311934
H80	H	1.180487	0.527602	0.350256
H81	H	1.160282	0.475783	0.252235
H82	H	1.090062	0.362755	0.409009
H83	H	1.069832	0.310936	0.310996
H84	H	1.101686	0.078668	0.138794
H85	H	0.915193	0.298119	-0.138665
O86	O	1.065174	0.434441	0.000296
C87	C	1.014030	0.496721	0.079655
H88	H	0.999322	0.422525	0.134810
H89	H	0.918213	0.552107	0.062437
C90	C	1.125530	0.681289	0.047350
C91	C	1.107475	0.590161	0.115096
H92	H	1.183167	0.738932	0.069210
H93	H	1.159983	0.639333	-0.006117
H94	H	1.045675	0.727430	0.033008
H95	H	1.187326	0.544011	0.129428
H96	H	1.073037	0.632112	0.168567
