data_functionalizedCrystal
_audit_creation_method	'MofGen! by Chris Wilmer'
_symmetry_space_group_name_H-M	'P1'
_symmetry_Int_Tables_number	1
_symmetry_cell_setting	triclinic
loop_
_symmetry_equiv_pos_as_xyz
  x,y,z
_cell_length_a	16.956984
_cell_length_b	16.992695
_cell_length_c	16.053802
_cell_angle_alpha	87.258926
_cell_angle_beta	92.389299
_cell_angle_gamma	83.360821
loop_
_atom_site_label
_atom_site_type_symbol
_atom_site_fract_x
_atom_site_fract_y
_atom_site_fract_z
O1	O	1.063242	0.028849	0.069433
O2	O	1.563242	0.528849	0.569433
O3	O	0.832831	0.056264	0.069434
O4	O	1.332831	0.556264	0.569434
O5	O	0.947113	-0.071526	0.069427
O6	O	1.447113	0.428474	0.569427
O7	O	0.948961	0.156639	0.069441
O8	O	1.448961	0.656639	0.569441
O9	O	0.940821	-0.064519	-0.069431
O10	O	1.440821	0.435481	0.430569
O11	O	0.826539	0.063271	-0.069424
O12	O	1.326539	0.563271	0.430576
O13	O	1.056950	0.035855	-0.069425
O14	O	1.556950	0.535855	0.430575
Zn15	Zn	0.940746	0.050676	-0.091471
Zn16	Zn	1.440746	0.550676	0.408529
Zn17	Zn	0.949036	0.041444	0.091481
Zn18	Zn	1.449036	0.541444	0.591481
O19	O	0.942669	0.163646	-0.069418
O20	O	1.442669	0.663646	0.430582
C21	C	0.800067	0.061171	0.000005
C22	C	1.300067	0.561171	0.500005
C23	C	0.711812	0.065345	0.000006
C24	C	1.211812	0.565345	0.500006
C25	C	0.941590	-0.097081	-0.000002
C26	C	1.441590	0.402919	0.499998
C27	C	0.934500	-0.183666	-0.000002
C28	C	1.434500	0.316334	0.499998
C29	C	0.675280	-0.004440	-0.000000
C30	C	1.175280	0.495560	0.500000
C31	C	0.592356	-0.000514	0.000006
C32	C	1.092356	0.499486	0.500006
C33	C	0.545964	0.073198	0.000012
C34	C	1.045964	0.573198	0.500012
C35	C	0.582501	0.142989	0.000020
C36	C	1.082501	0.642989	0.500020
C37	C	0.665424	0.139062	0.000020
C38	C	1.165424	0.639062	0.500020
C39	C	0.297430	0.092637	0.000019
C40	C	0.797430	0.592637	0.500019
C41	C	0.214501	0.096559	0.000017
C42	C	0.714501	0.596559	0.500017
C43	C	0.224362	-0.046944	0.000004
C44	C	0.724362	0.453056	0.500004
C45	C	0.307286	-0.050864	-0.000001
C46	C	0.807286	0.449136	0.499999
C47	C	0.343816	0.018925	0.000012
C48	C	0.843816	0.518925	0.500012
N49	N	0.461201	0.077213	0.000016
N50	N	0.961201	0.577213	0.500016
N51	N	0.428578	0.014909	0.000014
N52	N	0.928578	0.514909	0.500014
C53	C	1.002914	-0.238341	-0.000003
C54	C	1.502914	0.261659	0.499997
C55	C	0.996248	-0.319696	0.000005
C56	C	1.496248	0.180304	0.500005
C57	C	0.921165	-0.346374	0.000008
C58	C	1.421165	0.153626	0.500008
C59	C	0.852745	-0.291692	0.000012
C60	C	1.352745	0.208308	0.500012
C61	C	0.859413	-0.210339	0.000010
C62	C	1.359413	0.289661	0.500010
C63	C	0.893530	-0.588181	0.000020
C64	C	1.393530	-0.088181	0.500020
C65	C	0.886867	-0.669540	0.000019
C66	C	1.386867	-0.169540	0.500019
C67	C	1.030371	-0.697538	0.000014
C68	C	1.530371	-0.197538	0.500014
C69	C	1.037031	-0.616182	0.000007
C70	C	1.537031	-0.116182	0.500007
C71	C	0.968612	-0.561508	0.000015
C72	C	1.468612	-0.061508	0.500015
N73	N	0.914349	-0.429531	0.000014
N74	N	1.414349	0.070469	0.500014
N75	N	0.975429	-0.478353	0.000016
N76	N	1.475429	0.021647	0.500016
C77	C	1.089715	0.030948	0.000006
C78	C	1.589715	0.530948	0.500006
C79	C	1.177970	0.026774	0.000011
C80	C	1.677970	0.526774	0.500011
C81	C	0.948191	0.189201	0.000013
C82	C	1.448191	0.689201	0.500013
C83	C	0.955282	0.275785	0.000018
C84	C	1.455282	0.775785	0.500018
N85	N	0.935094	0.056975	-0.216331
N86	N	1.435094	0.556975	0.283669
C87	C	0.983741	0.002617	-0.260028
C88	C	1.483741	0.502617	0.239972
C89	C	0.979795	0.007031	-0.347435
C90	C	1.479795	0.507031	0.152565
C91	C	0.927206	0.065806	-0.391143
C92	C	1.427206	0.565806	0.108857
C93	C	0.878553	0.120167	-0.347440
C94	C	1.378553	0.620167	0.152560
C95	C	0.882496	0.115749	-0.260035
C96	C	1.382496	0.615749	0.239965
C97	C	0.909984	0.085081	-0.652551
C98	C	1.409984	0.585081	-0.152551
C99	C	0.906047	0.089496	-0.739962
C100	C	1.406047	0.589496	-0.239962
C101	C	1.007288	-0.023642	-0.739952
C102	C	1.507288	0.476358	-0.239952
C103	C	1.011229	-0.028051	-0.652545
C104	C	1.511229	0.471949	-0.152545
C105	C	0.962573	0.026307	-0.608849
C106	C	1.462573	0.526307	-0.108849
N107	N	0.923173	0.070321	-0.480486
N108	N	1.423173	0.570321	0.019514
N109	N	0.966603	0.021788	-0.519508
N110	N	1.466603	0.521788	-0.019508
N111	N	0.954694	0.035138	0.216341
N112	N	1.454694	0.535138	0.716341
H113	H	0.713047	-0.064464	-0.000008
H114	H	1.213047	0.435536	0.499992
Cl115	Cl	0.821333	0.184086	-0.205102
Cl116	Cl	1.321333	0.684086	0.294898
Cl117	Cl	0.773402	-0.141604	0.000015
Cl118	Cl	1.273402	0.358396	0.500015
Cl119	Cl	1.049860	-0.071273	-0.205090
Cl120	Cl	1.549860	0.428727	0.294910
Cl121	Cl	1.077342	-0.101941	-0.597598
Cl122	Cl	1.577342	0.398059	-0.097598
H123	H	1.046900	-0.067898	-0.775536
H124	H	1.546900	0.432102	-0.275536
H125	H	1.098172	-0.594468	0.000004
H126	H	1.598172	-0.094468	0.500004
Cl127	Cl	1.097309	-0.204812	-0.000015
Cl128	Cl	1.597309	0.295188	0.499985
Cl129	Cl	0.812436	0.194054	-0.402385
Cl130	Cl	1.312436	0.694054	0.097615
Cl131	Cl	0.758355	-0.325230	0.000026
Cl132	Cl	1.258355	0.174770	0.500026
H133	H	0.863220	0.137361	-0.775545
H134	H	1.363220	0.637361	-0.275545
H135	H	0.870368	0.129343	-0.616981
H136	H	1.370368	0.629343	-0.116981
Cl137	Cl	0.792470	-0.703075	0.000018
Cl138	Cl	1.292470	-0.203075	0.500018
H139	H	0.695167	0.195888	0.000021
H140	H	1.195167	0.695888	0.500021
Cl141	Cl	1.082260	-0.388427	0.000001
Cl142	Cl	1.582260	0.111573	0.500001
Cl143	Cl	1.116378	-0.766275	0.000006
Cl144	Cl	1.616378	-0.266275	0.500006
Cl145	Cl	0.546435	-0.088249	0.000023
Cl146	Cl	1.046435	0.411751	0.500023
Cl147	Cl	0.365602	-0.143535	-0.000014
Cl148	Cl	0.865602	0.356465	0.499986
Cl149	Cl	0.524180	0.235656	0.000035
Cl150	Cl	1.024180	0.735656	0.500035
Cl151	Cl	0.343343	0.180374	0.000033
Cl152	Cl	0.843343	0.680374	0.500033
H153	H	0.837817	-0.543674	0.000026
H154	H	1.337817	-0.043674	0.500026
Cl155	Cl	0.178434	-0.134674	-0.000006
Cl156	Cl	0.678434	0.365326	0.499994
H157	H	0.176730	0.156588	0.000017
H158	H	0.676730	0.656588	0.500017
Cl159	Cl	1.040951	-0.061307	-0.402370
Cl160	Cl	1.540951	0.438693	0.097630
