data_functionalizedCrystal
_audit_creation_method	'MofGen! by Chris Wilmer'
_symmetry_space_group_name_H-M	'P1'
_symmetry_Int_Tables_number	1
_symmetry_cell_setting	triclinic
loop_
_symmetry_equiv_pos_as_xyz
  x,y,z
_cell_length_a	15.995300
_cell_length_b	23.532357
_cell_length_c	15.072220
_cell_angle_alpha	89.993295
_cell_angle_beta	89.985917
_cell_angle_gamma	83.150049
loop_
_atom_site_label
_atom_site_type_symbol
_atom_site_fract_x
_atom_site_fract_y
_atom_site_fract_z
O1	O	1.110393	0.073269	-0.073826
O2	O	1.610393	0.573269	0.426174
O3	O	0.866534	0.082364	-0.073822
O4	O	1.366534	0.582364	0.426178
O5	O	0.995839	-0.005090	-0.073806
O6	O	1.495839	0.494910	0.426194
O7	O	0.981089	0.160723	-0.073842
O8	O	1.481089	0.660723	0.426158
O9	O	0.995807	-0.005085	0.073759
O10	O	1.495807	0.494915	0.573759
O11	O	0.866503	0.082369	0.073743
O12	O	1.366503	0.582369	0.573743
O13	O	1.110362	0.073274	0.073739
O14	O	1.610362	0.573274	0.573739
Zn15	Zn	0.988427	0.077822	0.097170
Zn16	Zn	1.488427	0.577822	0.597170
Zn17	Zn	0.988469	0.077816	-0.097253
Zn18	Zn	1.488469	0.577816	0.402747
O19	O	0.981057	0.160728	0.073723
O20	O	1.481057	0.660728	0.573723
C21	C	0.835326	0.081996	-0.000039
C22	C	1.335326	0.581996	0.499961
C23	C	0.742383	0.080884	-0.000036
C24	C	1.242383	0.580884	0.499964
C25	C	0.572218	0.078830	-0.000043
C26	C	1.072218	0.578830	0.499957
C27	C	0.524217	0.141099	-0.000054
C28	C	1.024217	0.641099	0.499946
C29	C	0.427539	0.139963	-0.000391
C30	C	0.927539	0.639963	0.499609
C31	C	0.404678	0.076808	-0.000048
C32	C	0.904678	0.576808	0.499952
C33	C	0.446094	0.045912	-0.084142
C34	C	0.946094	0.545912	0.415858
C35	C	0.542714	0.047487	-0.084211
C36	C	1.042714	0.547487	0.415789
C37	C	0.542965	0.046571	0.083605
C38	C	1.042965	0.546571	0.583605
C39	C	0.446020	0.046577	0.084708
C40	C	0.946020	0.546577	0.584708
C41	C	0.309993	0.075663	-0.000054
C42	C	0.809993	0.575663	0.499946
C43	C	0.666903	0.079974	-0.000043
C44	C	1.166903	0.579974	0.499957
C45	C	0.995454	-0.026305	-0.000021
C46	C	1.495454	0.473695	0.499979
C47	C	0.994345	-0.089528	-0.000012
C48	C	1.494345	0.410472	0.499988
C49	C	0.987398	-0.481568	-0.080498
C50	C	1.487398	0.018432	0.419502
C51	C	0.986344	-0.540971	-0.080503
C52	C	1.486344	-0.040971	0.419497
O53	O	0.985785	-0.571692	-0.148912
O54	O	1.485785	-0.071692	0.351088
N55	N	0.985804	-0.570682	-0.000066
N56	N	1.485804	-0.070682	0.499934
C57	C	0.986309	-0.540985	0.080381
C58	C	1.486309	-0.040985	0.580381
O59	O	0.985752	-0.571711	0.148798
O60	O	1.485752	-0.071711	0.648798
C61	C	0.987358	-0.481582	0.080385
C62	C	1.487358	0.018418	0.580385
C63	C	0.987907	-0.451875	-0.000057
C64	C	1.487907	0.048125	0.499943
C65	C	0.987946	-0.451861	-0.160933
C66	C	1.487946	0.048139	0.339067
C67	C	0.989002	-0.392462	-0.160928
C68	C	1.489002	0.107538	0.339072
C69	C	0.989510	-0.362769	-0.080487
C70	C	1.489510	0.137231	0.419513
C71	C	0.988963	-0.392476	-0.000052
C72	C	1.488963	0.107524	0.499948
C73	C	0.987858	-0.451886	0.160831
C74	C	1.487858	0.048114	0.660831
C75	C	0.988905	-0.392479	0.160828
C76	C	1.488905	0.107521	0.660828
C77	C	0.989454	-0.362772	0.080386
C78	C	1.489454	0.137228	0.580386
C79	C	0.990527	-0.303385	0.080395
C80	C	1.490527	0.196615	0.580395
N81	N	0.991067	-0.273674	-0.000042
N82	N	1.491067	0.226326	0.499958
C83	C	0.990559	-0.303367	-0.080483
C84	C	1.490559	0.196633	0.419517
C85	C	0.984106	-0.665735	0.080366
C86	C	1.484106	-0.165735	0.580366
C87	C	0.983064	-0.725137	0.080363
C88	C	1.483064	-0.225137	0.580363
C89	C	0.983097	-0.725119	-0.080521
C90	C	1.483097	-0.225119	0.419479
C91	C	0.984145	-0.665716	-0.080517
C92	C	1.484145	-0.165716	0.419483
C93	C	0.984646	-0.636024	-0.000071
C94	C	1.484646	-0.136024	0.499929
C95	C	0.992777	-0.178624	-0.080465
C96	C	1.492777	0.321376	0.419535
C97	C	0.993837	-0.119220	-0.080453
C98	C	1.493837	0.380780	0.419547
C99	C	0.993799	-0.119243	0.080430
C100	C	1.493799	0.380757	0.580430
C101	C	0.992744	-0.178642	0.080418
C102	C	1.492744	0.321358	0.580418
C103	C	0.992230	-0.208331	-0.000037
C104	C	1.492230	0.291669	0.499963
O105	O	0.991083	-0.272626	0.148769
O106	O	1.491083	0.227374	0.648769
O107	O	0.991105	-0.272633	-0.148889
O108	O	1.491105	0.227367	0.351111
C109	C	1.141570	0.073642	-0.000046
C110	C	1.641570	0.573642	0.499954
C111	C	1.234513	0.074755	-0.000054
C112	C	1.734513	0.574755	0.499946
C113	C	0.981442	0.181943	-0.000064
C114	C	1.481442	0.681943	0.499936
C115	C	0.982551	0.245166	-0.000078
C116	C	1.482551	0.745166	0.499922
N117	N	0.988405	0.077826	0.229859
N118	N	1.488405	0.577826	0.729859
N119	N	0.988498	0.077807	-0.229942
N120	N	1.488498	0.577807	0.270058
C121	C	0.988467	0.077814	0.589061
C122	C	1.488467	0.577814	1.089061
C123	C	0.919049	0.124452	0.551445
C124	C	1.419049	0.624452	1.051445
C125	C	0.919206	0.124622	0.448619
C126	C	1.419206	0.624622	0.948619
C127	C	0.988435	0.077820	0.410857
C128	C	1.488435	0.577820	0.910857
C129	C	1.075691	0.090788	0.448143
C130	C	1.575691	0.590788	0.948143
C131	C	1.075301	0.091120	0.551001
C132	C	1.575301	0.591120	1.051001
C133	C	0.971410	0.018069	0.551174
C134	C	1.471410	0.518069	1.051174
C135	C	0.969402	0.018468	0.448311
C136	C	1.469402	0.518468	0.948311
C137	C	0.988423	0.077822	0.310143
C138	C	1.488423	0.577822	0.810143
C139	C	0.988485	0.077812	0.689774
C140	C	1.488485	0.577812	1.189774
H141	H	0.542481	0.166125	0.060240
H142	H	1.042481	0.666125	0.560240
Br143	Br	0.398593	0.081260	-0.188863
Br144	Br	0.898593	0.581260	0.311137
H145	H	0.984591	-0.641533	-0.146020
H146	H	1.484591	-0.141533	0.353980
Br147	Br	0.379724	0.180431	0.100054
Br148	Br	0.879724	0.680431	0.600054
Br149	Br	1.048272	-0.042088	0.405488
Br150	Br	1.548272	0.457912	0.905488
H151	H	0.399497	0.164131	-0.061035
H152	H	0.899497	0.664131	0.438965
H153	H	0.989446	-0.368280	-0.226432
H154	H	1.489446	0.131720	0.273568
H155	H	0.992305	-0.202831	0.145921
H156	H	1.492305	0.297169	0.645921
H157	H	0.987529	-0.476030	-0.226441
H158	H	1.487529	0.023970	0.273559
H159	H	0.982680	-0.749305	-0.146020
H160	H	1.482680	-0.249305	0.353980
Br161	Br	0.423263	-0.031433	-0.088950
Br162	Br	0.923263	0.468567	0.411050
Br163	Br	0.982339	-0.765447	0.189538
Br164	Br	1.482339	-0.265447	0.689538
Br165	Br	0.596607	-0.029944	0.084984
Br166	Br	1.096607	0.470056	0.584984
H167	H	0.994286	-0.095036	-0.145961
H168	H	1.494286	0.404964	0.354039
Br169	Br	0.811059	0.111786	0.406600
Br170	Br	1.311059	0.611786	0.906600
H171	H	0.560856	0.069751	-0.147320
H172	H	1.060856	0.569751	0.352680
H173	H	0.575380	0.001763	-0.087794
H174	H	1.075380	0.501763	0.412206
H175	H	1.091174	0.133862	0.422364
H176	H	1.591174	0.633862	0.922364
Br177	Br	0.994491	-0.078935	0.189595
Br178	Br	1.494491	0.421065	0.689595
H179	H	0.992355	-0.202790	-0.145980
H180	H	1.492355	0.297210	0.354020
H181	H	0.984517	-0.641563	0.145879
H182	H	1.484517	-0.141563	0.645879
H183	H	0.987412	-0.476063	0.226336
H184	H	1.487412	0.023937	0.726336
Br185	Br	1.055794	-0.039777	0.591715
Br186	Br	1.555794	0.460223	1.091715
H187	H	0.989301	-0.368306	0.226339
H188	H	1.489301	0.131694	0.726339
Br189	Br	0.576817	0.080742	0.189876
Br190	Br	1.076817	0.580742	0.689876
Br191	Br	1.163854	0.036593	0.592476
Br192	Br	1.663854	0.536593	1.092476
H193	H	0.853963	0.116854	0.576210
H194	H	1.353963	0.616854	1.076210
Br195	Br	0.400109	0.084180	0.188406
Br196	Br	0.900109	0.584180	0.688406
H197	H	0.431076	0.000533	0.090045
H198	H	0.931076	0.500533	0.590045
H199	H	0.929736	0.168538	0.577273
H200	H	1.429736	0.668538	1.077273
Br201	Br	0.937232	0.198525	0.407569
Br202	Br	1.437232	0.698525	0.907569
H203	H	1.128560	0.057723	0.423680
H204	H	1.628560	0.557723	0.923680
Br205	Br	1.100484	0.163740	0.590960
Br206	Br	1.600484	0.663740	1.090960
Br207	Br	0.862424	0.002061	0.407699
Br208	Br	1.362424	0.502061	0.907699
Br209	Br	0.556564	0.182186	-0.100431
Br210	Br	1.056564	0.682186	0.399569
Br211	Br	0.867693	-0.002709	0.594468
Br212	Br	1.367693	0.497291	1.094468
