data_functionalizedCrystal
_audit_creation_method	'MofGen! by Chris Wilmer'
_symmetry_space_group_name_H-M	'P1'
_symmetry_Int_Tables_number	1
_symmetry_cell_setting	triclinic
loop_
_symmetry_equiv_pos_as_xyz
  x,y,z
_cell_length_a	12.759401
_cell_length_b	15.297327
_cell_length_c	12.759393
_cell_angle_alpha	99.642800
_cell_angle_beta	89.981708
_cell_angle_gamma	99.706546
loop_
_atom_site_label
_atom_site_type_symbol
_atom_site_fract_x
_atom_site_fract_y
_atom_site_fract_z
Zn1	Zn	1.533794	-0.359114	-0.666299
Zn2	Zn	1.503245	-0.509999	-0.521004
Zn3	Zn	1.358088	-0.359158	-0.490647
Zn4	Zn	1.327654	-0.509932	-0.696632
O5	O	1.430695	-0.434550	-0.593645
O6	O	1.676761	-0.379138	-0.647035
O7	O	1.483941	-0.490036	-0.369965
O8	O	1.406918	-0.232907	-0.488549
O9	O	1.654317	-0.489993	-0.540287
O10	O	1.536008	-0.232874	-0.617599
O11	O	1.377295	-0.379214	-0.347662
O12	O	1.207032	-0.379149	-0.517962
O13	O	1.355047	-0.489879	-0.839620
O14	O	1.184672	-0.489922	-0.669298
O15	O	1.506498	-0.379074	-0.817334
O16	O	1.454431	-0.636235	-0.569700
O17	O	1.325425	-0.636186	-0.698733
C18	C	1.157731	-0.434534	-0.593628
C19	C	1.040952	-0.434549	-0.593650
C20	C	0.974456	-0.492320	-0.672358
C21	C	0.864730	-0.492332	-0.672371
C22	C	0.888005	-0.376797	-0.514959
C23	C	0.997730	-0.376782	-0.514951
C24	C	1.017677	-0.550087	-0.751056
C25	C	0.951180	-0.607865	-0.829770
C26	C	0.841454	-0.607876	-0.829784
C27	C	0.798225	-0.550110	-0.751084
C28	C	1.383339	-0.668945	-0.640825
C29	C	1.363176	-0.769219	-0.661044
C30	C	1.575238	-1.051854	-0.449496
C31	C	1.594182	-0.957641	-0.430495
C32	C	1.536432	-0.910531	-0.488130
C33	C	1.459735	-0.957643	-0.564771
C34	C	1.440783	-1.051866	-0.583769
C35	C	1.401978	-0.910542	-0.622403
C36	C	1.325280	-0.957655	-0.699044
C37	C	1.306333	-1.051868	-0.718039
C38	C	1.364082	-1.098978	-0.660403
C39	C	1.420929	-0.816320	-0.603405
C40	C	1.286475	-0.816332	-0.737678
C41	C	1.267531	-0.910545	-0.756680
C42	C	1.704725	-0.434568	-0.593664
C43	C	1.821500	-0.434575	-0.593672
C44	C	1.430785	-0.434464	-0.867661
C45	C	1.430824	-0.434427	-0.984431
C46	C	1.478265	-0.199241	-0.546304
C47	C	1.498537	-0.098966	-0.526130
C48	C	1.486362	-0.492110	-1.050899
C49	C	1.486402	-0.492072	-1.160615
C50	C	1.375356	-0.376665	-1.137385
C51	C	1.375323	-0.376699	-1.027670
C52	C	1.541863	-0.549838	-1.007660
C53	C	1.597405	-0.607527	-1.074129
C54	C	1.597444	-0.607488	-1.183845
C55	C	1.541942	-0.549761	-1.227092
C56	C	1.430679	-0.434572	-0.320682
C57	C	1.430896	-0.434354	-0.203862
H58	H	0.787316	-0.654915	-0.893883
F59	F	1.068504	-0.315294	-0.431181
H60	H	1.239448	-0.777976	-0.784608
F61	F	0.841993	-0.315324	-0.431206
H62	H	0.708879	-0.550116	-0.751109
F63	F	1.502553	-0.766190	-0.521841
H64	H	1.330103	-0.329726	-0.973549
H65	H	1.551860	-0.833818	-0.472653
F66	F	1.675812	-0.907507	-0.348939
F67	F	1.636687	-1.101997	-0.388163
F68	F	1.343590	-1.199251	-0.680288
H69	H	1.642677	-0.654454	-1.237961
H70	H	1.541833	-0.549878	-0.918325
F71	F	1.224700	-1.102006	-0.799603
H72	H	1.205083	-0.948917	-0.819081
H73	H	1.107020	-0.550086	-0.751053
H74	H	1.330167	-0.329667	-1.172606
F75	F	1.541998	-0.549715	-1.343863
F76	F	1.656482	-0.668952	-1.028099
H77	H	0.986387	-0.654890	-0.893850
