data_functionalizedCrystal
_audit_creation_method	'MofGen! by Chris Wilmer'
_symmetry_space_group_name_H-M	'P1'
_symmetry_Int_Tables_number	1
_symmetry_cell_setting	triclinic
loop_
_symmetry_equiv_pos_as_xyz
  x,y,z
_cell_length_a	14.519709
_cell_length_b	17.766277
_cell_length_c	19.288865
_cell_angle_alpha	89.988397
_cell_angle_beta	83.408197
_cell_angle_gamma	89.996257
loop_
_atom_site_label
_atom_site_type_symbol
_atom_site_fract_x
_atom_site_fract_y
_atom_site_fract_z
O1	O	1.223296	-0.062505	0.091051
O2	O	1.556630	0.270828	0.424384
O3	O	1.889963	0.604161	0.757718
O4	O	0.954751	-0.062529	0.101773
O5	O	1.288085	0.270804	0.435107
O6	O	1.621418	0.604137	0.768440
O7	O	1.096783	-0.062502	-0.004690
O8	O	1.430117	0.270832	0.328643
O9	O	1.763450	0.604165	0.661976
O10	O	1.081264	-0.062533	0.197514
O11	O	1.414597	0.270800	0.530848
O12	O	1.747931	0.604134	0.864181
O13	O	1.096759	0.062687	-0.004696
O14	O	1.430092	0.396020	0.328638
O15	O	1.763425	0.729354	0.661971
O16	O	0.954726	0.062659	0.101768
O17	O	1.288060	0.395993	0.435101
O18	O	1.621393	0.729326	0.768434
O19	O	1.223271	0.062683	0.091045
O20	O	1.556605	0.396017	0.424379
O21	O	1.889938	0.729350	0.757712
Cu22	Cu	1.088997	0.074102	0.096406
Cu23	Cu	1.422330	0.407435	0.429739
Cu24	Cu	1.755663	0.740769	0.763073
Cu25	Cu	1.089026	-0.073948	0.096413
Cu26	Cu	1.422359	0.259385	0.429746
Cu27	Cu	1.755693	0.592719	0.763079
O28	O	1.081239	0.062656	0.197509
O29	O	1.414573	0.395989	0.530842
O30	O	1.747906	0.729322	0.864176
C31	C	0.920382	0.000062	0.101271
C32	C	1.253716	0.333395	0.434604
C33	C	1.587049	0.666729	0.767937
C34	C	0.818010	0.000054	0.099773
C35	C	1.151344	0.333387	0.433107
C36	C	1.484677	0.666720	0.766440
N37	N	1.088983	0.178232	0.096401
N38	N	1.422316	0.511566	0.429734
N39	N	1.755649	0.844899	0.763068
N40	N	1.089047	-0.178078	0.096412
N41	N	1.422381	0.155255	0.429745
N42	N	1.755714	0.488588	0.763079
C43	C	0.443150	0.000089	0.094261
C44	C	0.776483	0.333422	0.427594
C45	C	1.109816	0.666755	0.760927
C46	C	0.547448	0.000079	0.095792
C47	C	0.880781	0.333412	0.429125
C48	C	1.214115	0.666745	0.762458
C49	C	0.630577	0.000070	0.097017
C50	C	0.963910	0.333404	0.430350
C51	C	1.297243	0.666737	0.763684
C52	C	0.734882	0.000062	0.098548
C53	C	1.068215	0.333395	0.431881
C54	C	1.401548	0.666728	0.765215
C55	C	1.257640	0.000090	0.091548
C56	C	1.590974	0.333424	0.424881
C57	C	1.924307	0.666757	0.758215
C58	C	1.360012	0.000094	0.093045
C59	C	1.693345	0.333427	0.426379
C60	C	2.026679	0.666760	0.759712
C61	C	1.096272	0.000095	-0.030571
C62	C	1.429605	0.333428	0.302762
C63	C	1.762938	0.666761	0.636095
C64	C	1.094773	0.000101	-0.107680
C65	C	1.428106	0.333435	0.225653
C66	C	1.761439	0.666768	0.558986
C67	C	1.151895	0.217631	0.049282
C68	C	1.485228	0.550965	0.382616
C69	C	1.818561	0.884298	0.715949
C70	C	1.151900	0.296433	0.049279
C71	C	1.485233	0.629767	0.382612
C72	C	1.818567	0.963100	0.715946
C73	C	1.089002	0.335833	0.096407
C74	C	1.422335	0.669166	0.429740
C75	C	1.755669	1.002500	0.763073
C76	C	1.026078	0.296424	0.143529
C77	C	1.359412	0.629758	0.476862
C78	C	1.692745	0.963091	0.810196
C79	C	1.026069	0.217624	0.143526
C80	C	1.359402	0.550957	0.476860
C81	C	1.692735	0.884291	0.810193
C82	C	1.076656	0.460660	0.159650
C83	C	1.409989	0.793994	0.492983
C84	C	1.743323	1.127327	0.826317
C85	C	1.076672	0.539459	0.159654
C86	C	1.410005	0.872793	0.492987
C87	C	1.743339	1.206126	0.826320
C88	C	1.089027	0.578879	0.096415
C89	C	1.422360	0.912213	0.429748
C90	C	1.755693	1.245546	0.763082
C91	C	1.101385	0.539491	0.033170
C92	C	1.434718	0.872824	0.366504
C93	C	1.768051	1.206157	0.699837
C94	C	1.101375	0.460690	0.033167
C95	C	1.434708	0.794024	0.366501
C96	C	1.768042	1.127357	0.699834
C97	C	1.089005	0.421279	0.096415
C98	C	1.422339	0.754612	0.429748
C99	C	1.755672	1.087945	0.763081
C100	C	1.151948	0.703724	0.049289
C101	C	1.485281	1.037058	0.382622
C102	C	1.818615	1.370391	0.715956
C103	C	1.151947	0.782528	0.049285
C104	C	1.485280	1.115861	0.382618
C105	C	1.818614	1.449194	0.715951
C106	C	1.026129	0.782517	0.143541
C107	C	1.359463	1.115850	0.476874
C108	C	1.692796	1.449184	0.810208
C109	C	1.026126	0.703715	0.143539
C110	C	1.359460	1.037049	0.476872
C111	C	1.692793	1.370382	0.810206
C112	C	1.089040	0.664324	0.096414
C113	C	1.422374	0.997657	0.429747
C114	C	1.755707	1.330990	0.763080
C115	C	1.178111	0.000112	-0.152077
C116	C	1.511444	0.333446	0.181257
C117	C	1.844777	0.666779	0.514590
C118	C	1.176702	0.000100	-0.224529
C119	C	1.510036	0.333434	0.108805
C120	C	1.843369	0.666767	0.442138
C121	C	1.091951	0.000092	-0.252581
C122	C	1.425285	0.333426	0.080752
C123	C	1.758618	0.666759	0.414085
C124	C	1.008602	0.000077	-0.208175
C125	C	1.341936	0.333410	0.125158
C126	C	1.675269	0.666744	0.458492
C127	C	1.010013	0.000081	-0.135725
C128	C	1.343346	0.333415	0.197609
C129	C	1.676680	0.666748	0.530942
C130	C	1.025318	0.043937	-0.361110
C131	C	1.358652	0.377270	-0.027777
C132	C	1.691985	0.710604	0.305556
C133	C	1.023911	0.043937	-0.433560
C134	C	1.357245	0.377271	-0.100227
C135	C	1.690578	0.710604	0.233107
C136	C	1.087597	0.000075	-0.476043
C137	C	1.420930	0.333408	-0.142709
C138	C	1.754264	0.666742	0.190624
C139	C	1.152705	-0.043778	-0.446068
C140	C	1.486039	0.289556	-0.112735
C141	C	1.819372	0.622889	0.220598
C142	C	1.154116	-0.043773	-0.373618
C143	C	1.487449	0.289560	-0.040284
C144	C	1.820783	0.622894	0.293049
C145	C	1.090412	0.000087	-0.331141
C146	C	1.423746	0.333420	0.002192
C147	C	1.757079	0.666754	0.335526
C148	C	1.169414	0.000072	-0.599000
C149	C	1.502747	0.333405	-0.265667
C150	C	1.836080	0.666739	0.067666
C151	C	1.168002	0.000055	-0.671454
C152	C	1.501335	0.333389	-0.338120
C153	C	1.834668	0.666722	-0.004787
C154	C	0.999899	0.000040	-0.655098
C155	C	1.333233	0.333373	-0.321765
C156	C	1.666566	0.666706	0.011568
C157	C	1.001314	0.000049	-0.582647
C158	C	1.334647	0.333382	-0.249313
C159	C	1.667980	0.666715	0.084020
C160	C	1.086073	0.000069	-0.554602
C161	C	1.419407	0.333402	-0.221269
C162	C	1.752740	0.666735	0.112064
C163	C	1.081751	0.000058	0.223390
C164	C	1.415084	0.333391	0.556723
C165	C	1.748418	0.666724	0.890057
C166	C	1.083250	0.000046	0.300499
C167	C	1.416583	0.333379	0.633832
C168	C	1.749917	0.666713	0.967166
H169	H	1.203121	0.185561	0.010909
H170	H	1.536454	0.518894	0.344242
H171	H	1.869788	0.852228	0.677575
H172	H	1.238430	0.000085	-0.576166
H173	H	1.571763	0.333418	-0.242832
H174	H	1.905097	0.666752	0.090501
H175	H	1.203174	0.671650	0.010914
H176	H	1.536507	1.004984	0.344248
H177	H	1.869841	1.338317	0.677581
H178	H	0.942147	0.000073	-0.099576
H179	H	1.275480	0.333406	0.233757
H180	H	1.608814	0.666739	0.567090
Br181	Br	1.242468	-0.103288	-0.332939
Br182	Br	1.575802	0.230045	0.000394
Br183	Br	1.909135	0.563379	0.333728
Br184	Br	1.289812	0.000112	-0.284793
Br185	Br	1.623145	0.333446	0.048540
Br186	Br	1.956478	0.666779	0.381874
H187	H	1.203132	0.328518	0.010908
H188	H	1.536466	0.661851	0.344241
H189	H	1.869799	0.995185	0.677574
H190	H	0.974864	0.328507	0.181900
H191	H	1.308198	0.661841	0.515233
H192	H	1.641531	0.995174	0.848567
H193	H	0.974837	0.185544	0.181897
H194	H	1.308170	0.518878	0.515230
H195	H	1.641503	0.852211	0.848563
Br196	Br	1.059980	0.407170	0.245484
Br197	Br	1.393313	0.740503	0.578817
Br198	Br	1.726647	1.073837	0.912150
Br199	Br	1.293141	0.000118	-0.114019
Br200	Br	1.626474	0.333452	0.219314
Br201	Br	1.959807	0.666785	0.552647
Br202	Br	1.118137	0.407236	-0.052660
Br203	Br	1.451470	0.740569	0.280673
Br204	Br	1.784804	1.073903	0.614007
H205	H	1.235869	0.000060	-0.707601
H206	H	1.569202	0.333394	-0.374268
H207	H	1.902535	0.666727	-0.040934
H208	H	1.203175	0.814607	0.010911
H209	H	1.536508	1.147940	0.344245
H210	H	1.869841	1.481274	0.677578
H211	H	1.066615	0.571523	0.211151
H212	H	1.399949	0.904857	0.544485
H213	H	1.733282	1.238190	0.877818
Br214	Br	1.239144	-0.103309	-0.503714
Br215	Br	1.572477	0.230025	-0.170381
Br216	Br	1.905810	0.563358	0.162952
Br217	Br	0.884878	0.000021	-0.693161
Br218	Br	1.218211	0.333354	-0.359828
Br219	Br	1.551544	0.666688	-0.026495
H220	H	0.933451	0.000044	-0.546498
H221	H	1.266784	0.333377	-0.213165
H222	H	1.600117	0.666710	0.120169
H223	H	0.970892	0.079640	-0.457959
H224	H	1.304225	0.412974	-0.124625
H225	H	1.637559	0.746307	0.208708
H226	H	0.973455	0.079659	-0.326526
H227	H	1.306789	0.412992	0.006807
H228	H	1.640122	0.746326	0.340141
H229	H	1.111445	0.571585	-0.018325
H230	H	1.444778	0.904918	0.315009
H231	H	1.778111	1.238251	0.648342
Br232	Br	0.940757	0.835981	0.207493
Br233	Br	1.274091	1.169315	0.540826
Br234	Br	1.607424	1.502648	0.874160
Br235	Br	0.893582	0.000056	-0.246244
Br236	Br	1.226915	0.333390	0.087089
Br237	Br	1.560249	0.666723	0.420423
H238	H	0.974901	0.671634	0.181910
H239	H	1.308234	1.004968	0.515244
H240	H	1.641568	1.338301	0.848577
