data_functionalizedCrystal
_audit_creation_method	'MofGen! by Chris Wilmer'
_symmetry_space_group_name_H-M	'P1'
_symmetry_Int_Tables_number	1
_symmetry_cell_setting	triclinic
loop_
_symmetry_equiv_pos_as_xyz
  x,y,z
_cell_length_a	19.188925
_cell_length_b	19.188930
_cell_length_c	7.681481
_cell_angle_alpha	84.272277
_cell_angle_beta	95.702914
_cell_angle_gamma	83.143665
loop_
_atom_site_label
_atom_site_type_symbol
_atom_site_fract_x
_atom_site_fract_y
_atom_site_fract_z
O1	O	0.919523	0.093783	-0.146488
O2	O	0.716211	0.105521	-0.146486
O3	O	0.823736	-0.002006	-0.146453
O4	O	0.811998	0.201309	-0.146522
O5	O	0.836970	-0.015270	0.146409
O6	O	0.729446	0.092256	0.146376
O7	O	0.932757	0.080518	0.146373
Zn8	Zn	0.833203	0.084281	0.192873
Zn9	Zn	0.815766	0.101758	-0.192985
O10	O	0.825233	0.188045	0.146340
C11	C	0.696817	0.098509	-0.000055
C12	C	0.619313	0.097370	-0.000052
C13	C	0.057541	0.152835	-0.000075
C14	C	0.130364	0.153912	-0.000085
C15	C	0.175300	0.090818	-0.000060
C16	C	0.147405	0.026646	-0.000071
C17	C	0.074583	0.025571	-0.000079
N18	N	0.300483	0.040626	0.099647
N19	N	0.369660	0.041651	0.099658
C20	C	0.394710	0.094052	-0.000041
N21	N	0.347967	0.145399	-0.099729
N22	N	0.278783	0.144375	-0.099733
C23	C	0.254264	0.091976	-0.000053
C24	C	0.501558	0.159389	-0.000053
C25	C	0.574382	0.160464	-0.000074
C26	C	0.591423	0.033195	-0.000042
C27	C	0.518599	0.032123	-0.000039
C28	C	0.473671	0.095221	-0.000036
C29	C	0.829973	-0.034649	-0.000017
C30	C	0.828833	-0.112154	-0.000002
C31	C	0.891924	-0.157080	0.000006
C32	C	0.890851	-0.229902	-0.000022
C33	C	0.826685	-0.257798	-0.000023
C34	C	0.763585	-0.212862	-0.000041
C35	C	0.764659	-0.140040	-0.000030
N36	N	0.782142	-0.370316	0.099644
N37	N	0.781126	-0.439494	0.099638
C38	C	0.823445	-0.477205	-0.000058
N39	N	0.866831	-0.443126	-0.099726
N40	N	0.867849	-0.373942	-0.099712
C41	C	0.825513	-0.336760	-0.000035
C42	C	0.885378	-0.601093	-0.000084
C43	C	0.884302	-0.673916	-0.000123
C44	C	0.757034	-0.656875	-0.000123
C45	C	0.758111	-0.584052	-0.000102
C46	C	0.822285	-0.556167	-0.000074
C47	C	0.952151	0.087530	-0.000062
C48	C	1.029655	0.088670	-0.000076
C49	C	0.818995	0.220688	-0.000100
C50	C	0.820135	0.298194	-0.000126
N51	N	0.845108	0.072353	0.456211
N52	N	0.803866	0.113680	-0.456323
H53	H	0.628008	-0.018176	-0.000036
H54	H	0.153075	0.206163	-0.000068
C55	C	0.955115	-0.570941	-0.000179
C56	C	1.010137	-0.625872	-0.000250
C57	C	1.074387	-0.598124	-0.000369
H58	H	0.962898	-0.547531	0.101924
H59	H	0.953594	-0.538271	-0.102344
H60	H	1.011658	-0.658530	0.101905
H61	H	1.002377	-0.649287	-0.102345
H62	H	1.072866	-0.565454	-0.102535
H63	H	1.082163	-0.574714	0.101735
H64	H	1.111726	-0.635390	-0.000434
H65	H	0.495895	-0.020128	-0.000030
H66	H	0.597084	0.212717	-0.000088
C67	C	0.196118	-0.041923	0.000229
C68	C	0.190336	-0.087410	0.150877
C69	C	0.235191	-0.150587	0.151190
H70	H	0.243512	-0.032198	0.000327
H71	H	0.183064	-0.063655	-0.101846
H72	H	0.203394	-0.065683	0.252925
H73	H	0.142953	-0.097155	0.150810
H74	H	0.222137	-0.172319	0.049116
H75	H	0.282582	-0.140856	0.151284
H76	H	0.231269	-0.181461	0.253394
H77	H	0.711340	-0.235579	-0.000045
H78	H	0.944180	-0.134380	0.000023
H79	H	0.051879	-0.026681	-0.000080
C80	C	0.959276	-0.278803	-0.000087
C81	C	0.944596	-0.348544	-0.000138
C82	C	1.007609	-0.393607	-0.000216
H83	H	0.990256	-0.275091	0.102024
H84	H	0.980993	-0.265780	-0.102244
H85	H	0.922890	-0.361562	0.102010
H86	H	0.913626	-0.352278	-0.102241
H87	H	1.029326	-0.380584	-0.102374
H88	H	1.038585	-0.389889	0.101896
H89	H	0.997657	-0.440930	-0.000267
H90	H	0.713281	-0.103461	-0.000036
H91	H	0.887216	0.030173	0.531429
C92	C	0.452789	0.227931	-0.000440
C93	C	0.458539	0.273399	-0.151149
C94	C	0.413618	0.336542	-0.151581
H95	H	0.465789	0.249718	0.101557
H96	H	0.405410	0.218134	-0.000530
H97	H	0.505907	0.283197	-0.151043
H98	H	0.445533	0.251635	-0.253170
H99	H	0.366239	0.326745	-0.151671
H100	H	0.426622	0.358322	-0.049578
H101	H	0.417509	0.367397	-0.253842
H102	H	0.935680	-0.710494	-0.000126
H103	H	0.020965	0.204215	-0.000081
H104	H	0.706736	-0.547473	-0.000098
C105	C	0.687328	-0.687094	-0.000491
C106	C	0.642399	-0.657415	-0.151182
C107	C	0.578181	-0.685246	-0.151600
H108	H	0.665884	-0.676307	0.101518
H109	H	0.695688	-0.736897	-0.000596
H110	H	0.634038	-0.607624	-0.151061
H111	H	0.663821	-0.668201	-0.253215
H112	H	0.586541	-0.735049	-0.151705
H113	H	0.556744	-0.674457	-0.049585
H114	H	0.547692	-0.665118	-0.253850
C115	C	0.747809	0.170033	0.443498
C116	C	0.761032	0.236583	0.488154
C117	C	0.709412	0.288513	0.395876
H118	H	0.702537	0.161376	0.473572
H119	H	0.749104	0.168779	0.320520
H120	H	0.759730	0.237834	0.611104
H121	H	0.806294	0.245262	0.458075
H122	H	0.710707	0.287260	0.272899
H123	H	0.664144	0.279850	0.425957
H124	H	0.718381	0.333673	0.426150
