data_functionalizedCrystal
_audit_creation_method	'MofGen! by Chris Wilmer'
_symmetry_space_group_name_H-M	'P1'
_symmetry_Int_Tables_number	1
_symmetry_cell_setting	triclinic
loop_
_symmetry_equiv_pos_as_xyz
  x,y,z
_cell_length_a	11.169417
_cell_length_b	29.839131
_cell_length_c	11.169409
_cell_angle_alpha	89.952226
_cell_angle_beta	89.980176
_cell_angle_gamma	90.036108
loop_
_atom_site_label
_atom_site_type_symbol
_atom_site_fract_x
_atom_site_fract_y
_atom_site_fract_z
Zn1	Zn	1.834755	-0.178806	-0.678414
Zn2	Zn	1.834557	-0.253948	-0.477677
Zn3	Zn	1.634041	-0.178834	-0.477748
Zn4	Zn	1.633961	-0.253911	-0.678322
O5	O	1.734328	-0.216375	-0.578040
O6	O	2.002678	-0.188778	-0.651794
O7	O	1.807909	-0.244011	-0.309736
O8	O	1.660782	-0.115963	-0.504436
O9	O	2.002533	-0.243984	-0.504314
O10	O	1.808246	-0.115943	-0.651864
O11	O	1.660590	-0.188825	-0.309789
O12	O	1.466080	-0.188789	-0.504346
O13	O	1.660646	-0.243922	-0.846284
O14	O	1.466022	-0.243948	-0.651707
O15	O	1.808168	-0.188742	-0.846352
O16	O	1.807831	-0.316810	-0.504224
O17	O	1.660454	-0.316783	-0.651637
C18	C	1.422504	-0.216368	-0.578025
C19	C	1.289104	-0.216376	-0.578047
C20	C	1.734145	-0.333097	-0.577939
C21	C	1.734177	-0.383032	-0.577936
C22	C	1.811096	-0.692630	-0.654915
C23	C	1.811226	-0.880303	-0.654988
O24	O	1.876446	-0.904529	-0.720363
N25	N	1.734532	-0.903817	-0.578173
C26	C	1.657794	-0.880410	-0.501341
O27	O	1.592556	-0.904716	-0.436016
C28	C	1.657659	-0.692738	-0.501276
C29	C	1.734367	-0.669226	-0.578087
C30	C	1.887797	-0.669118	-0.731721
C31	C	1.887768	-0.622203	-0.731697
C32	C	1.811039	-0.598799	-0.654869
C33	C	1.734338	-0.622311	-0.578063
C34	C	1.580916	-0.669331	-0.424451
C35	C	1.580887	-0.622410	-0.424444
C36	C	1.657595	-0.598899	-0.501254
C37	C	1.657580	-0.551991	-0.501211
N38	N	1.734274	-0.528477	-0.578025
C39	C	1.811003	-0.551881	-0.654854
C40	C	1.657873	-0.978940	-0.501379
C41	C	1.657908	-1.025858	-0.501394
C42	C	1.811338	-1.025748	-0.655042
C43	C	1.811308	-0.978829	-0.655020
C44	C	1.734567	-0.955426	-0.578193
C45	C	1.810938	-0.453355	-0.654798
C46	C	1.810906	-0.406436	-0.654765
C47	C	1.657472	-0.406550	-0.501121
C48	C	1.657507	-0.453465	-0.501150
C49	C	1.734245	-0.476867	-0.577998
O50	O	1.592385	-0.527736	-0.435879
O51	O	1.876214	-0.527567	-0.720188
C52	C	1.811125	-0.739545	-0.654939
C53	C	1.734424	-0.763057	-0.578134
C54	C	1.657695	-0.739653	-0.501305
C55	C	1.734459	-0.809975	-0.578148
C56	C	1.811189	-0.833379	-0.654977
C57	C	1.887883	-0.809865	-0.731791
C58	C	1.887854	-0.762949	-0.731768
C59	C	1.581001	-0.763167	-0.424491
C60	C	1.581037	-0.810083	-0.424519
C61	C	1.657766	-0.833486	-0.501348
C62	C	2.047371	-0.216382	-0.578056
C63	C	2.180771	-0.216385	-0.578063
C64	C	1.734421	-0.216325	-0.891083
C65	C	1.734460	-0.216304	-1.024483
C66	C	1.734545	-0.099196	-0.578168
C67	C	1.734637	-0.049262	-0.578222
C68	C	1.734306	-0.216392	-0.266215
C69	C	1.734499	-0.216287	-0.132816
H70	H	1.873417	-0.472403	-0.717384
H71	H	1.518391	-0.603358	-0.361883
C72	C	1.496509	-1.078677	-0.484593
C73	C	1.573595	-1.051699	-0.416955
H74	H	1.444457	-1.094630	-0.432464
H75	H	1.450573	-1.060369	-0.536833
H76	H	1.542222	-1.099333	-0.530338
H77	H	1.527882	-1.031041	-0.371216
H78	H	1.619535	-1.070008	-0.364695
C79	C	1.419518	-0.710470	-0.407625
C80	C	1.496655	-0.737447	-0.340028
H81	H	1.367442	-0.694596	-0.355471
H82	H	1.465183	-0.689749	-0.453348
H83	H	1.373599	-0.728772	-0.459885
H84	H	1.542580	-0.719145	-0.287774
H85	H	1.450984	-0.758170	-0.294285
H86	H	1.950363	-0.828928	-0.794344
H87	H	1.873375	-0.387294	-0.717313
H88	H	1.595055	-0.472610	-0.438595
C89	C	2.039418	-0.626821	-0.883576
C90	C	1.972078	-0.596363	-0.816141
H91	H	2.091462	-0.610870	-0.935717
H92	H	2.085362	-0.645123	-0.831328
H93	H	1.987094	-0.645123	-0.929433
H94	H	2.024401	-0.578063	-0.770277
H95	H	1.926131	-0.578054	-0.868396
C96	C	1.429355	-0.805467	-0.272655
C97	C	1.496708	-0.835923	-0.340083
H98	H	1.377286	-0.821420	-0.220542
H99	H	1.481660	-0.787171	-0.226780
H100	H	1.383425	-0.787159	-0.324918
H101	H	1.542645	-0.854229	-0.287820
H102	H	1.444397	-0.854226	-0.385962
H103	H	1.950279	-0.688169	-0.794291
H104	H	1.873770	-0.959689	-0.717567
H105	H	1.873816	-1.044811	-0.717598
H106	H	1.595379	-0.959889	-0.438814
C107	C	1.589302	-0.334673	-0.432898
C108	C	1.573127	-0.380818	-0.416679
H109	H	1.537220	-0.318787	-0.380776
H110	H	1.669935	-0.326967	-0.415389
H111	H	1.571701	-0.326968	-0.513528
H112	H	1.590738	-0.388524	-0.336052
H113	H	1.492476	-0.388527	-0.434180
H114	H	1.518453	-0.688466	-0.361903
C115	C	2.039504	-0.767568	-0.883646
C116	C	1.972164	-0.737109	-0.816211
H117	H	2.091549	-0.751616	-0.935786
H118	H	2.085448	-0.785869	-0.831397
H119	H	1.987181	-0.785869	-0.929503
H120	H	2.024488	-0.718810	-0.770347
H121	H	1.926217	-0.718800	-0.868466
