data_functionalizedCrystal
_audit_creation_method	'MofGen! by Chris Wilmer'
_symmetry_space_group_name_H-M	'P1'
_symmetry_Int_Tables_number	1
_symmetry_cell_setting	triclinic
loop_
_symmetry_equiv_pos_as_xyz
  x,y,z
_cell_length_a	16.109301
_cell_length_b	27.731996
_cell_length_c	26.809956
_cell_angle_alpha	90.025346
_cell_angle_beta	90.018047
_cell_angle_gamma	83.041486
loop_
_atom_site_label
_atom_site_type_symbol
_atom_site_fract_x
_atom_site_fract_y
_atom_site_fract_z
O1	O	1.102360	0.062142	0.041459
O2	O	1.602360	0.562142	0.541459
O3	O	0.860200	0.069874	0.041467
O4	O	1.360200	0.569874	0.541467
O5	O	0.988823	-0.004359	0.041452
O6	O	1.488823	0.495641	0.541452
O7	O	0.973736	0.136375	0.041474
O8	O	1.473736	0.636375	0.541474
O9	O	0.988778	-0.004380	-0.041508
O10	O	1.488778	0.495620	0.458492
O11	O	0.860154	0.069853	-0.041493
O12	O	1.360154	0.569853	0.458507
O13	O	1.102314	0.062121	-0.041500
O14	O	1.602314	0.562121	0.458500
Zn15	Zn	0.981227	0.065984	-0.054668
Zn16	Zn	1.481227	0.565984	0.445332
Zn17	Zn	0.981287	0.066011	0.054634
Zn18	Zn	1.481287	0.566011	0.554634
O19	O	0.973691	0.136354	-0.041485
O20	O	1.473691	0.636354	0.458515
C21	C	0.829206	0.069550	-0.000012
C22	C	1.329206	0.569550	0.499988
C23	C	0.736923	0.068611	-0.000010
C24	C	1.236923	0.568611	0.499990
C25	C	0.427404	0.109590	-0.000012
C26	C	0.927404	0.609590	0.499988
C27	C	0.514113	0.110477	-0.000009
C28	C	1.014113	0.610477	0.499991
C29	C	0.535105	0.022402	-0.000016
C30	C	1.035105	0.522402	0.499984
C31	C	0.448397	0.021515	-0.000015
C32	C	0.948397	0.521515	0.499985
C33	C	0.394549	0.065111	-0.000016
C34	C	0.894549	0.565111	0.499984
C35	C	0.567965	0.066884	-0.000013
C36	C	1.067965	0.566884	0.499987
C37	C	0.661979	0.067845	-0.000010
C38	C	1.161979	0.567845	0.499990
C39	C	0.300529	0.064150	-0.000018
C40	C	0.800529	0.564150	0.499982
C41	C	0.988490	-0.022378	-0.000030
C42	C	1.488490	0.477622	0.499970
C43	C	0.987557	-0.076038	-0.000035
C44	C	1.487557	0.423962	0.499965
C45	C	0.981709	-0.408768	0.045211
C46	C	1.481709	0.091232	0.545211
C47	C	0.978164	-0.610441	0.045220
C48	C	1.478164	-0.110441	0.545220
O49	O	0.977691	-0.636504	0.083679
O50	O	1.477691	-0.136504	0.583679
N51	N	0.977699	-0.635671	-0.000001
N52	N	1.477699	-0.135671	0.499999
C53	C	0.978114	-0.610479	-0.045227
C54	C	1.478114	-0.110479	0.454773
O55	O	0.977629	-0.636566	-0.083690
O56	O	1.477629	-0.136566	0.416310
C57	C	0.981653	-0.408807	-0.045235
C58	C	1.481653	0.091193	0.454765
C59	C	0.982127	-0.383580	-0.000012
C60	C	1.482127	0.116420	0.499988
C61	C	0.982181	-0.383541	0.090431
C62	C	1.482181	0.116459	0.590431
C63	C	0.983072	-0.333126	0.090428
C64	C	1.483072	0.166874	0.590428
C65	C	0.983490	-0.307938	0.045206
C66	C	1.483490	0.192062	0.545206
C67	C	0.983017	-0.333165	-0.000014
C68	C	1.483017	0.166835	0.499986
C69	C	0.982063	-0.383616	-0.090461
C70	C	1.482063	0.116384	0.409539
C71	C	0.982946	-0.333194	-0.090459
C72	C	1.482946	0.166806	0.409541
C73	C	0.983419	-0.307967	-0.045235
C74	C	1.483419	0.192033	0.454765
C75	C	0.984326	-0.257562	-0.045240
C76	C	1.484326	0.242438	0.454760
N77	N	0.984791	-0.232332	-0.000019
N78	N	1.484791	0.267668	0.499981
C79	C	0.984373	-0.257520	0.045204
C80	C	1.484373	0.242480	0.545204
C81	C	0.976258	-0.716361	-0.045219
C82	C	1.476258	-0.216361	0.454781
C83	C	0.975375	-0.766779	-0.045217
C84	C	1.475375	-0.266779	0.454783
C85	C	0.975423	-0.766737	0.045230
C86	C	1.475423	-0.266737	0.545230
C87	C	0.976312	-0.716318	0.045227
C88	C	1.476312	-0.216318	0.545227
C89	C	0.976723	-0.691130	0.000001
C90	C	1.476723	-0.191130	0.500001
C91	C	0.986245	-0.151645	0.045195
C92	C	1.486245	0.348355	0.545195
C93	C	0.987139	-0.101226	0.045188
C94	C	1.487139	0.398774	0.545188
C95	C	0.987086	-0.101272	-0.045259
C96	C	1.487086	0.398728	0.454741
C97	C	0.986197	-0.151687	-0.045252
C98	C	1.486197	0.348313	0.454748
C99	C	0.985773	-0.176872	-0.000022
C100	C	1.485773	0.323128	0.499978
O101	O	0.984790	-0.231467	-0.083678
O102	O	1.484790	0.268533	0.416322
O103	O	0.984840	-0.231423	0.083661
O104	O	1.484840	0.268577	0.583661
C105	C	0.980818	-0.459183	0.045214
C106	C	1.480818	0.040817	0.545214
C107	C	0.980345	-0.484410	-0.000006
C108	C	1.480345	0.015590	0.499994
C109	C	0.980763	-0.459222	-0.045229
C110	C	1.480763	0.040778	0.454771
C111	C	0.979462	-0.534828	-0.000004
C112	C	1.479462	-0.034828	0.499996
C113	C	0.979044	-0.560016	0.045218
C114	C	1.479044	-0.060016	0.545218
C115	C	0.979509	-0.534786	0.090439
C116	C	1.479509	-0.034786	0.590439
C117	C	0.980400	-0.484371	0.090436
C118	C	1.480400	0.015629	0.590436
C119	C	0.980298	-0.484452	-0.090449
C120	C	1.480298	0.015548	0.409551
C121	C	0.979409	-0.534867	-0.090443
C122	C	1.479409	-0.034867	0.409557
C123	C	0.978990	-0.560055	-0.045221
C124	C	1.478990	-0.060055	0.454779
C125	C	1.133308	0.062445	-0.000021
C126	C	1.633308	0.562445	0.499979
C127	C	1.225591	0.063384	-0.000020
C128	C	1.725591	0.563384	0.499980
C129	C	0.974023	0.154373	-0.000003
C130	C	1.474023	0.654373	0.499997
C131	C	0.974957	0.208033	0.000005
C132	C	1.474957	0.708033	0.500005
N133	N	0.981192	0.065966	-0.129264
N134	N	1.481192	0.565966	0.370736
C135	C	0.931237	0.036661	-0.526160
C136	C	1.431237	0.536661	-0.026160
C137	C	0.931198	0.036648	-0.317283
C138	C	1.431198	0.536648	0.182717
O139	O	0.888668	0.011691	-0.290293
O140	O	1.388668	0.511691	0.209707
N141	N	0.981225	0.065973	-0.291143
N142	N	1.481225	0.565973	0.208857
C143	C	1.031271	0.095301	-0.317225
C144	C	1.531271	0.595301	0.182775
O145	O	1.073828	0.120240	-0.290199
O146	O	1.573828	0.620240	0.209801
C147	C	1.031314	0.095312	-0.526102
C148	C	1.531314	0.595312	-0.026102
C149	C	0.981276	0.065989	-0.552239
C150	C	1.481276	0.565989	-0.052239
C151	C	0.881204	0.007340	-0.552298
C152	C	1.381204	0.507340	-0.052298
C153	C	0.881211	0.007346	-0.604514
C154	C	1.381211	0.507346	-0.104514
C155	C	0.931251	0.036673	-0.630593
C156	C	1.431251	0.536673	-0.130593
C157	C	0.981283	0.065994	-0.604456
C158	C	1.481283	0.565994	-0.104456
C159	C	1.081363	0.124637	-0.552184
C160	C	1.581363	0.624637	-0.052184
C161	C	1.081371	0.124636	-0.604406
C162	C	1.581371	0.624636	-0.104406
C163	C	1.031334	0.095313	-0.630543
C164	C	1.531334	0.595313	-0.130543
C165	C	1.031330	0.095327	-0.682751
C166	C	1.531330	0.595327	-0.182751
N167	N	0.981302	0.066002	-0.708891
N168	N	1.481302	0.566002	-0.208891
C169	C	0.931262	0.036675	-0.682812
C170	C	1.431262	0.536675	-0.182812
C171	C	1.031243	0.095295	-0.207562
C172	C	1.531243	0.595295	0.292438
C173	C	1.031232	0.095293	-0.155343
C174	C	1.531232	0.595293	0.344657
C175	C	0.931159	0.036638	-0.155404
C176	C	1.431159	0.536638	0.344596
C177	C	0.931167	0.036643	-0.207624
C178	C	1.431167	0.536643	0.292376
C179	C	0.981215	0.065969	-0.233702
C180	C	1.481215	0.565969	0.266298
C181	C	0.931280	0.036689	-0.792470
C182	C	1.431280	0.536689	-0.292470
C183	C	0.931289	0.036699	-0.844691
C184	C	1.431289	0.536699	-0.344691
C185	C	1.031364	0.095351	-0.844625
C186	C	1.531364	0.595351	-0.344625
C187	C	1.031352	0.095343	-0.792409
C188	C	1.531352	0.595343	-0.292409
C189	C	0.981308	0.066008	-0.766332
C190	C	1.481308	0.566008	-0.266332
O191	O	1.073844	0.120266	-0.709773
O192	O	1.573844	0.620266	-0.209773
O193	O	0.888725	0.011732	-0.709847
O194	O	1.388725	0.511732	-0.209847
C195	C	0.931230	0.036656	-0.473944
C196	C	1.431230	0.536656	0.026056
C197	C	0.981263	0.065977	-0.447807
C198	C	1.481263	0.565977	0.052193
C199	C	1.031302	0.095304	-0.473886
C200	C	1.531302	0.595304	0.026114
C201	C	0.981251	0.065975	-0.395588
C202	C	1.481251	0.565975	0.104412
C203	C	0.931211	0.036648	-0.369509
C204	C	1.431211	0.536648	0.130491
C205	C	0.881183	0.007323	-0.395649
C206	C	1.381183	0.507323	0.104351
C207	C	0.881190	0.007329	-0.447865
C208	C	1.381190	0.507329	0.052135
C209	C	1.081330	0.124629	-0.447746
C210	C	1.581330	0.624629	0.052254
C211	C	1.081318	0.124622	-0.395529
C212	C	1.581318	0.624622	0.104471
C213	C	1.031279	0.095295	-0.369450
C214	C	1.531279	0.595295	0.130550
N215	N	0.981328	0.066026	0.129230
N216	N	1.481328	0.566026	0.629230
H217	H	0.987526	-0.080689	0.082016
H218	H	1.487526	0.419311	0.582016
H219	H	1.072103	0.119229	-0.865868
H220	H	1.572103	0.619229	-0.365868
C221	C	0.594346	-0.025551	-0.000024
C222	C	1.094346	0.474449	0.499976
N223	N	0.638965	-0.061669	-0.000034
N224	N	1.138965	0.438331	0.499966
C225	C	0.987538	-0.073555	-0.095001
C226	C	1.487538	0.426445	0.404999
N227	N	0.987870	-0.052677	-0.132468
N228	N	1.487870	0.447323	0.367532
H229	H	0.890529	0.012802	-0.771245
H230	H	1.390529	0.512802	-0.271245
C231	C	0.983401	-0.305491	-0.140212
C232	C	1.483401	0.194509	0.359788
N233	N	0.983748	-0.284626	-0.177686
N234	N	1.483748	0.215374	0.322314
C235	C	0.974956	-0.794452	0.094975
C236	C	1.474956	-0.294452	0.594975
N237	N	0.974597	-0.815329	0.132441
N238	N	1.474597	-0.315329	0.632441
C239	C	1.086270	0.127554	-0.126598
C240	C	1.586270	0.627554	0.373402
N241	N	1.127732	0.151852	-0.104949
N242	N	1.627732	0.651852	0.395051
C243	C	0.826147	-0.024931	-0.476609
C244	C	1.326147	0.475069	0.023391
N245	N	0.784687	-0.049231	-0.498256
N246	N	1.284687	0.450769	0.001744
H247	H	0.421648	-0.014707	-0.000017
H248	H	0.921648	0.485293	0.499983
H249	H	0.981679	-0.404147	-0.127287
H250	H	1.481679	0.095853	0.372713
H251	H	0.985819	-0.172229	-0.082077
H252	H	1.485819	0.327771	0.417923
H253	H	0.890539	0.012820	-0.865969
H254	H	1.390539	0.512820	-0.365969
C255	C	0.980915	-0.456628	0.140186
C256	C	1.480915	0.043372	0.640186
N257	N	0.981300	-0.435734	0.177661
N258	N	1.481300	0.064266	0.677661
C259	C	0.985793	-0.179343	0.094951
C260	C	1.485793	0.320657	0.594951
N261	N	0.985462	-0.200205	0.132427
N262	N	1.485462	0.299795	0.632427
C263	C	0.978886	-0.562611	-0.140196
C264	C	1.478886	-0.062611	0.359804
N265	N	0.978483	-0.583505	-0.177669
N266	N	1.478483	-0.083505	0.322331
H267	H	0.980640	-0.463949	-0.127276
H268	H	1.480640	0.036051	0.372724
H269	H	1.122129	0.148517	-0.625636
H270	H	1.622129	0.648517	-0.125636
H271	H	0.983454	-0.312591	0.127254
H272	H	1.483454	0.187409	0.627254
H273	H	1.122063	0.148505	-0.374253
H274	H	1.622063	0.648505	0.125747
H275	H	0.981838	-0.404044	0.127259
H276	H	1.481838	0.095956	0.627259
C277	C	0.826169	-0.024915	-0.633258
C278	C	1.326169	0.475085	-0.133258
N279	N	0.784710	-0.049216	-0.654905
N280	N	1.284710	0.450784	-0.154905
H281	H	1.072001	0.119177	-0.228790
H282	H	1.572001	0.619177	0.271210
C283	C	0.976716	-0.688661	-0.094975
C284	C	1.476716	-0.188661	0.405025
N285	N	0.977065	-0.667800	-0.132451
N286	N	1.477065	-0.167800	0.367549
C287	C	0.976825	-0.688573	0.094976
C288	C	1.476825	-0.188573	0.594976
N289	N	0.977209	-0.667677	0.132449
N290	N	1.477209	-0.167677	0.632449
H291	H	1.122111	0.148515	-0.530912
H292	H	1.622111	0.648515	-0.030912
H293	H	0.979172	-0.555303	0.127261
H294	H	1.479172	-0.055303	0.627261
C295	C	0.550248	0.159407	-0.000008
C296	C	1.050248	0.659407	0.499992
N297	N	0.577465	0.196264	-0.000009
N298	N	1.077465	0.696264	0.499991
C299	C	0.826198	-0.024970	-0.366952
C300	C	1.326198	0.475030	0.133048
N301	N	0.784810	-0.049306	-0.345335
N302	N	1.284810	0.450694	0.154665
C303	C	0.974862	-0.794523	-0.094967
C304	C	1.474862	-0.294523	0.405033
N305	N	0.974470	-0.815418	-0.132440
N306	N	1.474470	-0.315418	0.367560
C307	C	0.876128	0.004383	-0.236370
C308	C	1.376128	0.504383	0.263630
N309	N	0.834671	-0.019918	-0.258019
N310	N	1.334671	0.480082	0.241981
H311	H	0.840456	-0.016544	-0.531070
H312	H	1.340456	0.483456	-0.031070
C313	C	1.136359	0.156906	-0.476425
C314	C	1.636359	0.656906	0.023575
N315	N	1.177799	0.181225	-0.498025
N316	N	1.677799	0.681225	0.001975
C317	C	0.876125	0.004373	-0.126708
C318	C	1.376125	0.504373	0.373292
N319	N	0.834682	-0.019932	-0.105091
N320	N	1.334682	0.480068	0.394909
H321	H	1.072085	0.119228	-0.771127
H322	H	1.572085	0.619228	-0.271127
H323	H	0.383562	0.145088	-0.000012
H324	H	0.883562	0.645088	0.499988
