data_functionalizedCrystal
_audit_creation_method	'MofGen! by Chris Wilmer'
_symmetry_space_group_name_H-M	'P1'
_symmetry_Int_Tables_number	1
_symmetry_cell_setting	triclinic
loop_
_symmetry_equiv_pos_as_xyz
  x,y,z
_cell_length_a	19.188905
_cell_length_b	10.654550
_cell_length_c	9.130313
_cell_angle_alpha	89.995631
_cell_angle_beta	89.989353
_cell_angle_gamma	83.809743
loop_
_atom_site_label
_atom_site_type_symbol
_atom_site_fract_x
_atom_site_fract_y
_atom_site_fract_z
O1	O	0.927179	0.156630	-0.122041
O2	O	0.724004	0.177768	-0.121991
O3	O	0.830263	-0.015640	-0.122007
O4	O	0.820920	0.350038	-0.122024
O5	O	0.830256	-0.015645	0.121591
O6	O	0.723997	0.177762	0.121608
O7	O	0.927172	0.156624	0.121558
Cu8	Cu	0.825584	0.167193	0.143826
Cu9	Cu	0.825592	0.167199	-0.144258
O10	O	0.820913	0.350032	0.121575
C11	C	0.829573	-0.062426	-0.000209
C12	C	0.827521	-0.201826	-0.000210
C13	C	0.697984	0.177086	-0.000185
C14	C	0.620466	0.175047	-0.000165
C15	C	0.890085	-0.282645	-0.000226
C16	C	0.888152	-0.413625	-0.000244
C17	C	0.761086	-0.382952	-0.000223
C18	C	0.763020	-0.251975	-0.000216
C19	C	0.584071	0.174070	-0.132955
C20	C	0.511235	0.172140	-0.132973
C21	C	0.474798	0.171162	-0.000194
C22	C	0.511200	0.172145	0.132613
C23	C	0.584034	0.174088	0.132627
N24	N	0.365287	0.096646	0.098624
N25	N	0.296098	0.094798	0.098601
C26	C	0.255353	0.165311	-0.000229
N27	N	0.286411	0.237727	-0.099058
N28	N	0.355607	0.239570	-0.099040
C29	C	0.395821	0.169056	-0.000195
C30	C	0.139981	0.162244	-0.133047
C31	C	0.067143	0.160322	-0.133060
C32	C	0.067110	0.160314	0.132530
C33	C	0.139946	0.162249	0.132539
C34	C	0.176377	0.163208	-0.000254
C35	C	0.953191	0.157306	-0.000251
C36	C	1.030710	0.159345	-0.000280
C37	C	0.821603	0.396818	-0.000227
C38	C	0.823655	0.536218	-0.000235
N39	N	0.825583	0.167187	0.346448
N40	N	0.825599	0.167195	-0.346881
C41	C	0.872650	0.081582	0.423093
C42	C	0.872657	0.081582	0.576430
C43	C	0.778526	0.252804	0.576464
C44	C	0.778517	0.252797	0.423130
H45	H	0.942605	-0.241818	-0.000225
H46	H	0.037511	0.159535	-0.241198
O47	O	0.948974	-0.492004	-0.000450
C48	C	1.056974	-0.558321	-0.126712
C49	C	0.988124	-0.469467	-0.126641
H50	H	1.088639	-0.540150	-0.228742
H51	H	1.088725	-0.540130	-0.024836
H52	H	1.044500	-0.660540	-0.126653
H53	H	1.000534	-0.367216	-0.126752
H54	H	0.956392	-0.487768	-0.228507
H55	H	0.712070	-0.186168	-0.000208
H56	H	0.740207	0.322508	0.638914
H57	H	0.708572	-0.423801	-0.000225
H58	H	0.613729	0.174851	-0.241085
O59	O	0.175322	0.163402	0.261493
C60	C	0.250179	0.274310	0.415602
C61	C	0.210135	0.273174	0.269518
H62	H	0.278348	0.363037	0.422124
H63	H	0.211654	0.273358	0.510563
H64	H	0.290221	0.187311	0.422222
H65	H	0.170093	0.360157	0.262755
H66	H	0.248702	0.274060	0.174626
H67	H	0.481597	0.171347	-0.241110
H68	H	0.481528	0.171352	0.240723
H69	H	0.910983	0.011873	0.638829
H70	H	0.613666	0.174884	0.240764
H71	H	0.910973	0.011872	0.360662
H72	H	0.169644	0.163038	-0.241175
H73	H	0.740185	0.322508	0.360722
H74	H	0.037443	0.159525	0.240641
