data_functionalizedCrystal
_audit_creation_method	'MofGen! by Chris Wilmer'
_symmetry_space_group_name_H-M	'P1'
_symmetry_Int_Tables_number	1
_symmetry_cell_setting	triclinic
loop_
_symmetry_equiv_pos_as_xyz
  x,y,z
_cell_length_a	10.967926
_cell_length_b	10.967829
_cell_length_c	10.065875
_cell_angle_alpha	86.921207
_cell_angle_beta	93.120479
_cell_angle_gamma	87.248880
loop_
_atom_site_label
_atom_site_type_symbol
_atom_site_fract_x
_atom_site_fract_y
_atom_site_fract_z
O1	O	1.622282	0.210055	0.218659
O2	O	1.272392	0.213494	0.135556
O3	O	1.449083	0.036855	0.218663
O4	O	1.445591	0.386694	0.135552
O5	O	1.415397	0.070679	0.429772
O6	O	1.238705	0.247319	0.346665
O7	O	1.588596	0.243879	0.429769
Zn8	Zn	1.408302	0.250969	0.421735
Zn9	Zn	1.452685	0.206404	0.143589
O10	O	1.411904	0.420519	0.346662
C11	C	1.210630	0.227600	0.231205
C12	C	1.076785	0.219225	0.201695
C13	C	0.999662	0.233013	0.297899
C14	C	0.861326	0.224357	0.267401
C15	C	1.429441	0.008854	0.334121
C16	C	1.421085	-0.124975	0.363625
C17	C	1.434811	-0.202155	0.267417
C18	C	1.426176	-0.340474	0.297910
C19	C	1.650358	0.229773	0.334116
C20	C	1.784204	0.238147	0.363619
C21	C	1.431547	0.448519	0.231201
C22	C	1.439904	0.582346	0.201688
N23	N	1.378021	0.281383	0.611565
N24	N	1.482976	0.175981	-0.046236
C25	C	1.442142	0.216978	0.709574
C26	C	1.418846	0.240395	0.855754
H27	H	0.820583	0.256356	0.468570
O28	O	1.028607	0.195104	0.062678
H29	H	0.927512	0.192101	0.060536
H30	H	1.555119	0.103496	0.929461
H31	H	1.402934	-0.161298	0.468565
H32	H	1.346693	0.312872	0.880057
H33	H	1.305873	0.353855	0.635875
O34	O	0.813166	0.200221	0.128376
H35	H	0.749669	0.277332	0.089449
O36	O	1.458842	-0.154060	0.128402
H37	H	1.461859	-0.052966	0.126269
H38	H	1.408023	-0.376792	0.402857
O39	O	1.463935	-0.369552	0.062670
H40	H	1.389656	-0.395401	-0.008082
H41	H	1.514280	0.144497	0.685266
H42	H	1.036049	0.251219	0.402843
