data_functionalizedCrystal
_audit_creation_method	'MofGen! by Chris Wilmer'
_symmetry_space_group_name_H-M	'P1'
_symmetry_Int_Tables_number	1
_symmetry_cell_setting	triclinic
loop_
_symmetry_equiv_pos_as_xyz
  x,y,z
_cell_length_a	10.654554
_cell_length_b	10.654551
_cell_length_c	17.766277
_cell_angle_alpha	89.996514
_cell_angle_beta	89.990525
_cell_angle_gamma	84.486053
loop_
_atom_site_label
_atom_site_type_symbol
_atom_site_fract_x
_atom_site_fract_y
_atom_site_fract_z
O1	O	1.667847	0.176428	-0.062592
O2	O	1.302370	0.193228	-0.062592
O3	O	1.493511	0.002089	-0.062592
O4	O	1.476706	0.367567	-0.062592
O5	O	1.493477	0.002078	0.062596
O6	O	1.302336	0.193218	0.062596
O7	O	1.667813	0.176417	0.062597
Cu8	Cu	1.485071	0.184817	0.074027
Cu9	Cu	1.485112	0.184829	-0.074023
O10	O	1.476672	0.367556	0.062597
C11	C	1.255555	0.191988	0.000002
C12	C	1.116112	0.188294	0.000002
C13	C	0.905604	0.297367	0.000000
C14	C	1.036625	0.300839	0.000000
C15	C	1.064571	0.072269	-0.000004
C16	C	0.933552	0.068799	-0.000010
C17	C	0.889470	0.429330	0.000006
C18	C	1.020492	0.432802	0.000006
C19	C	1.492260	-0.044714	0.000000
C20	C	1.488567	-0.184158	-0.000005
C21	C	1.486853	-0.249664	-0.068244
C22	C	1.483373	-0.380685	-0.068240
C23	C	1.483326	-0.380681	0.068247
C24	C	1.486797	-0.249662	0.068243
C25	C	1.486886	-0.249668	-0.147044
C26	C	1.483406	-0.380688	-0.147040
C27	C	1.714628	0.177657	0.000001
C28	C	1.854071	0.181351	-0.000004
C29	C	1.477923	0.414360	0.000003
C30	C	1.481616	0.553803	0.000003
N31	N	1.485052	0.184807	0.178158
N32	N	1.485140	0.184828	-0.178153
C33	C	1.569718	0.100213	0.217544
C34	C	1.569725	0.100207	0.296346
C35	C	1.485079	0.184818	0.335758
C36	C	1.400397	0.269418	0.296362
C37	C	1.400384	0.269413	0.217562
C38	C	1.469620	0.299055	0.460596
C39	C	1.469642	0.299062	0.539395
C40	C	1.485112	0.184833	0.578805
C41	C	1.500588	0.070592	0.539405
C42	C	1.500574	0.070587	0.460605
C43	C	1.485083	0.184832	0.421204
C44	C	1.569790	0.100226	0.703637
C45	C	1.569789	0.100218	0.782441
C46	C	1.400468	0.269440	0.782455
C47	C	1.400463	0.269437	0.703653
C48	C	1.485131	0.184831	0.664249
H49	H	1.488185	-0.196331	0.123809
H50	H	1.391816	-0.410255	-0.171498
H51	H	1.129300	-0.019366	-0.000011
C52	C	1.452607	0.424728	0.582727
N53	N	1.439768	0.519383	0.615362
C54	C	1.060143	0.502503	0.070786
N55	N	1.090009	0.554997	0.124098
H56	H	1.457000	0.392080	0.428516
H57	H	1.481882	-0.434030	0.123812
C58	C	1.369647	-0.187137	-0.187916
N59	N	1.281342	-0.140039	-0.218699
C60	C	0.827770	0.483209	0.073020
N61	N	0.781295	0.523799	0.128012
H62	H	1.578492	-0.220098	-0.171493
H63	H	1.513171	-0.022431	0.428529
C64	C	0.833089	0.496505	-0.070772
N65	N	0.790624	0.547097	-0.124081
C66	C	1.068661	0.489552	-0.073025
N67	N	1.104946	0.532279	-0.128035
H68	H	1.570205	-0.426976	-0.177296
C69	C	1.517603	-0.055070	0.582749
N70	N	1.530420	-0.149716	0.615400
C71	C	1.662843	0.007132	0.174205
N72	N	1.732982	-0.062982	0.141560
H73	H	1.331475	0.338307	0.328455
H74	H	1.331525	0.338326	0.671582
H75	H	1.638672	0.031318	0.328421
C76	C	1.662914	0.007147	0.660290
N77	N	1.733054	-0.062963	0.627643
C78	C	1.662911	0.007131	0.825766
N79	N	1.733047	-0.062989	0.858399
C80	C	1.307356	0.362514	0.825803
N81	N	1.237222	0.432619	0.858457
C82	C	0.876872	-0.058826	-0.000015
N83	N	0.834181	-0.154959	-0.000016
H84	H	1.331438	0.338301	0.185492
