data_functionalizedCrystal
_audit_creation_method	'MofGen! by Chris Wilmer'
_symmetry_space_group_name_H-M	'P1'
_symmetry_Int_Tables_number	1
_symmetry_cell_setting	triclinic
loop_
_symmetry_equiv_pos_as_xyz
  x,y,z
_cell_length_a	10.723024
_cell_length_b	10.723024
_cell_length_c	9.798715
_cell_angle_alpha	89.997773
_cell_angle_beta	89.996597
_cell_angle_gamma	84.467869
loop_
_atom_site_label
_atom_site_type_symbol
_atom_site_fract_x
_atom_site_fract_y
_atom_site_fract_z
O1	O	-1.657187	-0.175025	0.113478
O2	O	-1.294035	-0.191778	0.113483
O3	O	-1.483988	-0.001825	0.113475
O4	O	-1.467234	-0.364978	0.113486
O5	O	-1.483974	-0.001824	-0.113507
O6	O	-1.294021	-0.191777	-0.113499
O7	O	-1.657173	-0.175024	-0.113504
Zn8	Zn	-1.475595	-0.183400	-0.149540
Zn9	Zn	-1.475613	-0.183402	0.149519
O10	O	-1.467220	-0.364976	-0.113496
C11	C	-1.247528	-0.190558	-0.000008
C12	C	-1.108974	-0.186911	-0.000006
C13	C	-1.482762	0.044675	-0.000014
C14	C	-1.479114	0.183229	-0.000009
C15	C	-1.703680	-0.176243	-0.000010
C16	C	-1.842234	-0.179891	-0.000003
C17	C	-1.033991	-0.293198	-0.000002
C18	C	-0.890788	-0.289431	-0.000001
C19	C	-1.468447	-0.411477	-0.000004
C20	C	-1.472094	-0.550031	0.000000
N21	N	-1.475591	-0.183398	-0.353640
C22	C	-1.585401	0.258212	-0.000009
C23	C	-1.581634	0.401415	-0.000004
C24	C	-1.548356	-0.255759	-0.421416
C25	C	-1.548376	-0.255758	-0.578579
N26	N	-1.475627	-0.183394	0.353619
H27	H	-1.075814	-0.386984	-0.000007
H28	H	-0.826355	-0.380421	0.000008
H29	H	-1.610666	-0.317716	-0.636865
F30	F	-1.394187	-0.102420	-0.570211
H31	H	-1.679187	0.216390	-0.000018
H32	H	-1.672624	0.465848	-0.000009
H33	H	-1.610643	-0.317706	-0.363090
H34	H	-1.413312	-0.121443	-0.411966
H35	H	-1.381099	0.385544	-0.000010
H36	H	-0.906659	-0.088896	0.000002
F37	F	-1.356524	0.237887	0.000005
F38	F	-1.054316	-0.064321	-0.000019
