data_functionalizedCrystal
_audit_creation_method	'MofGen! by Chris Wilmer'
_symmetry_space_group_name_H-M	'P1'
_symmetry_Int_Tables_number	1
_symmetry_cell_setting	triclinic
loop_
_symmetry_equiv_pos_as_xyz
  x,y,z
_cell_length_a	27.732064
_cell_length_b	19.288865
_cell_length_c	26.809956
_cell_angle_alpha	89.999100
_cell_angle_beta	90.001122
_cell_angle_gamma	97.107164
loop_
_atom_site_label
_atom_site_type_symbol
_atom_site_fract_x
_atom_site_fract_y
_atom_site_fract_z
O1	O	0.641176	-0.082693	0.041396
O2	O	0.500421	-0.095248	0.041418
O3	O	0.574865	0.012185	0.041396
O4	O	0.566731	-0.190126	0.041417
O5	O	0.574851	0.012168	-0.041563
O6	O	0.500407	-0.095264	-0.041542
O7	O	0.641161	-0.082710	-0.041563
Zn8	Zn	0.570782	-0.088990	-0.054724
Zn9	Zn	0.570801	-0.088968	0.054578
O10	O	0.566717	-0.190142	-0.041542
C11	C	0.482407	-0.094991	-0.000060
C12	C	0.428750	-0.094192	-0.000052
C13	C	0.051469	-0.025266	-0.000087
C14	C	0.253138	-0.028207	-0.000074
O15	O	0.284229	0.025278	-0.000098
N16	N	0.272458	-0.091912	-0.000065
C17	C	0.241357	-0.154887	-0.000063
O18	O	0.262417	-0.209140	-0.000060
C19	C	0.039689	-0.151946	-0.000080
C20	C	0.020372	-0.088236	-0.000084
C21	C	0.032151	0.038438	-0.000092
C22	C	-0.018263	0.039173	-0.000092
C23	C	-0.049360	-0.023797	-0.000089
C24	C	-0.030042	-0.087502	-0.000084
C25	C	0.008589	-0.214920	-0.000081
C26	C	-0.041831	-0.214179	-0.000087
C27	C	-0.061148	-0.150470	-0.000090
C28	C	-0.111554	-0.149738	-0.000081
N29	N	-0.130874	-0.086032	-0.000090
C30	C	-0.099777	-0.023062	-0.000094
C31	C	0.347236	-0.156427	-0.000053
C32	C	0.397653	-0.157162	-0.000048
C33	C	0.409430	-0.030481	-0.000060
C34	C	0.359013	-0.029747	-0.000062
C35	C	0.327916	-0.092721	-0.000062
C36	C	-0.205651	-0.021524	-0.000095
C37	C	-0.256070	-0.020796	-0.000093
C38	C	-0.267843	-0.147476	-0.000084
C39	C	-0.217428	-0.148205	-0.000083
C40	C	-0.186333	-0.085224	-0.000090
O41	O	-0.142673	-0.203193	-0.000063
O42	O	-0.120846	0.031183	-0.000107
C43	C	0.101883	-0.026001	-0.000087
C44	C	0.121200	-0.089705	-0.000082
C45	C	0.090104	-0.152675	-0.000079
C46	C	0.171617	-0.090441	-0.000077
C47	C	0.202714	-0.027470	-0.000081
C48	C	0.183394	0.036235	-0.000090
C49	C	0.132980	0.036970	-0.000091
C50	C	0.109424	-0.216381	-0.000070
C51	C	0.159838	-0.217110	-0.000069
C52	C	0.190935	-0.154140	-0.000072
C53	C	0.574597	0.038051	-0.000085
C54	C	0.573811	0.115150	-0.000089
C55	C	0.659176	-0.082967	-0.000085
C56	C	0.712833	-0.083766	-0.000089
C57	C	0.566986	-0.216009	-0.000060
C58	C	0.567772	-0.293108	-0.000052
N59	N	0.570773	-0.089004	-0.129320
C60	C	0.617492	0.160115	-0.000098
C61	C	0.616753	0.232558	-0.000090
C62	C	0.572332	0.260032	-0.000083
C63	C	0.528646	0.215057	-0.000071
C64	C	0.529385	0.142616	-0.000074
C65	C	0.537407	0.368099	-0.029137
C66	C	0.536670	0.440539	-0.029137
C67	C	0.570050	0.483463	-0.000071
C68	C	0.604176	0.453941	0.028987
C69	C	0.604915	0.381500	0.028984
C70	C	0.571526	0.338581	-0.000079
C71	C	0.612933	0.606979	-0.000071
C72	C	0.612193	0.679423	-0.000060
C73	C	0.524084	0.661921	-0.000046
C74	C	0.524826	0.589479	-0.000052
C75	C	0.569251	0.562013	-0.000067
C76	C	0.603760	-0.041409	-0.473955
C77	C	0.603772	-0.041398	-0.682833
O78	O	0.631799	-0.000935	-0.709845
N79	N	0.570803	-0.088953	-0.708947
C80	C	0.537827	-0.136511	-0.682838
O81	O	0.509783	-0.176954	-0.709843
C82	C	0.537814	-0.136517	-0.473962
C83	C	0.570788	-0.088964	-0.447850
C84	C	0.636731	0.006141	-0.447844
C85	C	0.636730	0.006136	-0.395628
C86	C	0.603757	-0.041420	-0.369523
C87	C	0.570786	-0.088970	-0.395634
C88	C	0.504836	-0.184071	-0.447854
C89	C	0.504835	-0.184068	-0.395631
C90	C	0.537809	-0.136515	-0.369520
C91	C	0.537813	-0.136531	-0.317313
N92	N	0.570781	-0.088976	-0.291199
C93	C	0.603754	-0.041421	-0.317304
C94	C	0.537837	-0.136505	-0.792502
C95	C	0.537841	-0.136504	-0.844721
C96	C	0.603785	-0.041390	-0.844712
C97	C	0.603783	-0.041395	-0.792492
C98	C	0.570806	-0.088950	-0.766388
C99	C	0.603748	-0.041437	-0.207646
C100	C	0.603745	-0.041448	-0.155425
C101	C	0.537800	-0.136559	-0.155438
C102	C	0.537804	-0.136550	-0.207655
C103	C	0.570780	-0.088983	-0.233757
O104	O	0.509796	-0.176968	-0.290269
O105	O	0.631787	-0.000973	-0.290290
C106	C	0.603762	-0.041403	-0.526172
C107	C	0.570791	-0.088953	-0.552283
C108	C	0.537818	-0.136508	-0.526178
C109	C	0.570795	-0.088952	-0.604502
C110	C	0.603767	-0.041397	-0.630607
C111	C	0.636735	0.006158	-0.604493
C112	C	0.636734	0.006153	-0.552277
C113	C	0.504850	-0.184063	-0.552292
C114	C	0.504854	-0.184054	-0.604508
C115	C	0.537827	-0.136499	-0.630613
N116	N	0.570814	-0.088948	0.129174
H117	H	0.434758	0.020791	-0.000061
O118	O	0.668784	0.052244	-0.473253
C119	C	0.698534	0.015339	-0.503443
H120	H	0.679162	-0.039201	-0.511275
H121	H	0.706256	0.044413	-0.540159
H122	H	0.734240	0.010961	-0.483308
O123	O	0.635830	0.004869	-0.767207
C124	C	0.664940	0.046825	-0.801452
H125	H	0.645125	0.047410	-0.838676
H126	H	0.672436	0.102372	-0.786369
H127	H	0.700796	0.024622	-0.807002
O128	O	0.668698	0.052423	-0.629880
C129	C	0.642901	0.095005	-0.660094
H130	H	0.604787	0.095801	-0.644353
H131	H	0.662740	0.150410	-0.660692
H132	H	0.640315	0.073236	-0.699668
H133	H	0.632701	0.357466	0.052646
O134	O	0.062375	0.099594	-0.000181
C135	C	0.091905	0.102962	-0.043135
H136	H	0.073379	0.067237	-0.073168
H137	H	0.097681	0.158975	-0.057556
H138	H	0.128535	0.085400	-0.033414
O139	O	0.505860	-0.182675	-0.870159
C140	C	0.512920	-0.172471	-0.921848
H141	H	0.551405	-0.146137	-0.928982
H142	H	0.507423	-0.225129	-0.941692
H143	H	0.485640	-0.137900	-0.936668
O144	O	0.503456	0.469167	-0.057304
C145	C	0.456209	0.442029	-0.042068
H146	H	0.457367	0.422305	-0.002055
H147	H	0.431383	0.484834	-0.044198
H148	H	0.441672	0.397007	-0.067629
O149	O	0.480903	0.688519	-0.000105
C150	C	0.454281	0.665514	-0.043073
H151	H	0.467340	0.615407	-0.057403
H152	H	0.414008	0.655031	-0.033402
H153	H	0.459966	0.707502	-0.073157
H154	H	0.489256	0.552867	-0.000048
H155	H	0.492478	0.237431	-0.000064
H156	H	0.343289	0.022132	-0.000065
O157	O	0.656128	0.580409	-0.000055
C158	C	0.694525	0.635635	-0.000066
H159	H	0.681084	0.684707	0.015643
H160	H	0.725550	0.620822	0.024017
H161	H	0.707990	0.646034	-0.039866
H162	H	0.510955	-0.175281	-0.134176
H163	H	-0.067148	-0.265462	-0.000089
O164	O	0.472736	-0.230196	-0.473187
C165	C	0.424918	-0.219373	-0.460411
H166	H	0.424812	-0.163759	-0.446062
H167	H	0.400637	-0.227603	-0.494749
H168	H	0.410638	-0.258006	-0.430095
H169	H	0.510983	-0.175231	-0.771251
O170	O	0.079199	-0.277534	-0.000150
C171	C	0.049670	-0.280912	-0.043107
H172	H	0.068200	-0.245198	-0.073145
H173	H	0.043892	-0.336929	-0.057518
H174	H	0.013042	-0.263343	-0.033394
H175	H	0.647765	0.716034	-0.000065
H176	H	-0.201700	-0.200083	-0.000079
H177	H	-0.271795	0.031087	-0.000095
O178	O	0.636669	0.495612	0.057165
C179	C	0.684280	0.487325	0.041933
H180	H	0.683535	0.467228	0.001919
H181	H	0.708130	0.539800	0.044069
H182	H	0.699676	0.448246	0.067493
O183	O	0.505044	0.326344	-0.057404
C184	C	0.530348	0.289399	-0.092072
H185	H	0.568730	0.286143	-0.077814
H186	H	0.510532	0.234422	-0.096973
H187	H	0.532243	0.317757	-0.129463
O188	O	0.486907	0.099032	-0.000090
C189	C	0.447540	0.138811	-0.000067
H190	H	0.459923	0.193017	-0.015771
H191	H	0.416939	0.111763	-0.024148
H192	H	0.433924	0.143818	0.039736
O193	O	0.635795	0.004816	-0.130138
C194	C	0.664903	0.046779	-0.164381
H195	H	0.645087	0.047370	-0.201605
H196	H	0.672400	0.102323	-0.149293
H197	H	0.700759	0.024578	-0.169935
H198	H	0.477999	-0.222788	-0.531041
H199	H	0.630633	-0.002669	-0.865975
O200	O	-0.298124	-0.208579	-0.000104
C201	C	-0.346764	-0.194261	-0.000096
H202	H	-0.348581	-0.139724	-0.015802
H203	H	-0.369689	-0.234428	-0.024184
H204	H	-0.361353	-0.197054	0.039702
H205	H	0.208722	0.087508	-0.000090
H206	H	0.175561	-0.268994	-0.000062
H207	H	-0.180338	0.029761	-0.000100
O208	O	0.416355	-0.219095	0.000029
C209	C	0.400454	-0.257430	0.043003
H210	H	0.365526	-0.238874	0.057322
H211	H	0.393334	-0.315350	0.033345
H212	H	0.429645	-0.249067	0.073091
H213	H	0.653666	0.137757	-0.000108
O214	O	0.472849	-0.230362	-0.370297
C215	C	0.480545	-0.299044	-0.383071
H216	H	0.519243	-0.299004	-0.397423
H217	H	0.474904	-0.333965	-0.348733
H218	H	0.453711	-0.319702	-0.413386
O219	O	0.659231	0.276148	-0.000123
C220	C	0.698600	0.236372	-0.000122
H221	H	0.686211	0.182168	-0.015825
H222	H	0.729189	0.263425	-0.024215
H223	H	0.712235	0.231359	0.039674
O224	O	0.668685	0.052326	-0.370175
C225	C	0.698431	0.015590	-0.339857
H226	H	0.699325	-0.039144	-0.355587
H227	H	0.736851	0.044507	-0.339136
H228	H	0.683174	0.011700	-0.300332
H229	H	0.630600	-0.002702	-0.228893
H230	H	0.321921	-0.207711	-0.000053
O231	O	0.114300	0.098919	-0.000119
C232	C	0.152565	0.154333	-0.000110
H233	H	0.186775	0.135228	-0.015812
H234	H	0.142125	0.198843	-0.024201
H235	H	0.159739	0.173735	0.039688
H236	H	0.510959	-0.175279	-0.228915
H237	H	0.663584	0.044875	-0.531021
O238	O	0.472801	-0.230157	-0.629924
C239	C	0.443056	-0.193242	-0.660117
H240	H	0.462431	-0.138702	-0.667941
H241	H	0.435339	-0.222308	-0.696837
H242	H	0.407348	-0.188867	-0.639988
O243	O	-0.036965	0.101106	-0.000036
C244	C	-0.021069	0.139460	0.042931
H245	H	0.013857	0.120908	0.057263
H246	H	-0.013946	0.197375	0.033259
H247	H	-0.050263	0.131111	0.073015
O248	O	0.027265	-0.276870	-0.000104
C249	C	-0.011002	-0.332282	-0.000093
H250	H	-0.045211	-0.313177	-0.015798
H251	H	-0.000562	-0.376796	-0.024180
H252	H	-0.018178	-0.351681	0.039706
