data_functionalizedCrystal
_audit_creation_method	'MofGen! by Chris Wilmer'
_symmetry_space_group_name_H-M	'P1'
_symmetry_Int_Tables_number	1
_symmetry_cell_setting	triclinic
loop_
_symmetry_equiv_pos_as_xyz
  x,y,z
_cell_length_a	6.817900
_cell_length_b	11.102244
_cell_length_c	12.200875
_cell_angle_alpha	92.492141
_cell_angle_beta	107.143593
_cell_angle_gamma	108.604870
loop_
_atom_site_label
_atom_site_type_symbol
_atom_site_fract_x
_atom_site_fract_y
_atom_site_fract_z
V1	V	-4.094463	-0.176127	-0.357658
O2	O	-4.053827	0.008167	-0.350853
O3	O	-4.071351	-0.348945	-0.355209
O4	O	-4.063804	-0.173548	-0.513646
O5	O	-4.061427	-0.168444	-0.191318
V6	V	-4.572516	-0.154068	-0.337763
O7	O	-4.367722	-0.224515	-0.401300
O8	O	-4.749455	-0.105680	-0.294121
O9	O	-4.372422	0.018750	-0.340212
O10	O	-4.730549	-0.338362	-0.344568
O11	O	-4.722949	-0.161751	-0.504102
O12	O	-4.379969	-0.156647	-0.181774
C13	C	-3.921929	-0.391070	-0.349566
C14	C	-3.984437	-0.532351	-0.348603
C15	C	-3.958643	-0.580501	-0.243107
C16	C	-4.017390	-0.713253	-0.242216
C17	C	-4.127717	-0.749694	-0.452326
C18	C	-4.068985	-0.616946	-0.453217
C19	C	-3.894938	-0.559462	-0.121801
C20	C	-3.953685	-0.692214	-0.120910
C21	C	-3.912301	-0.167333	-0.551667
C22	C	-3.968684	-0.166368	-0.679188
C23	C	-4.071873	-0.164602	-0.912663
C24	C	-4.014443	-0.165584	-0.782741
C25	C	-4.185186	0.060868	-0.345852
C26	C	-4.101917	0.202148	-0.346822
C27	C	-4.194814	-0.162867	-0.143748
C28	C	-4.117668	-0.163825	-0.016225
H29	H	-4.097680	-0.731988	-0.087521
H30	H	-4.196561	-0.818587	-0.537499
C31	C	-4.030927	-0.506590	-0.065149
C32	C	-4.282439	-0.557236	-0.117094
C33	C	-4.418425	-0.504364	-0.060445
C34	C	-4.302899	-0.400847	0.048147
C35	C	-4.051373	-0.350196	0.100098
C36	C	-3.915387	-0.403068	0.043449
H37	H	-4.367970	-0.633871	-0.197486
H38	H	-4.604621	-0.541860	-0.098903
H39	H	-4.403564	-0.361709	0.090082
H40	H	-3.965842	-0.273562	0.180490
H41	H	-3.729191	-0.365572	0.081907
C42	C	-3.751636	-0.723273	-0.051741
C43	C	-3.632009	-0.664541	0.076918
C44	C	-3.429971	-0.695604	0.146082
C45	C	-3.347562	-0.785398	0.086586
C46	C	-3.467191	-0.844136	-0.042081
C47	C	-3.669228	-0.813074	-0.111244
H48	H	-3.693012	-0.598065	0.120967
H49	H	-3.341415	-0.652121	0.241329
H50	H	-3.198001	-0.808392	0.137785
H51	H	-3.406187	-0.910612	-0.086129
H52	H	-3.757785	-0.856556	-0.206492
H53	H	-4.090010	-0.577749	-0.539122
H54	H	-3.711418	-0.506627	-0.079906
