data_functionalizedCrystal
_audit_creation_method	'MofGen! by Chris Wilmer'
_symmetry_space_group_name_H-M	'P1'
_symmetry_Int_Tables_number	1
_symmetry_cell_setting	triclinic
loop_
_symmetry_equiv_pos_as_xyz
  x,y,z
_cell_length_a	6.817900
_cell_length_b	7.190334
_cell_length_c	19.453103
_cell_angle_alpha	88.400661
_cell_angle_beta	78.290822
_cell_angle_gamma	119.388224
loop_
_atom_site_label
_atom_site_type_symbol
_atom_site_fract_x
_atom_site_fract_y
_atom_site_fract_z
V1	V	4.214586	0.665981	-0.096059
O2	O	4.207232	0.652283	0.005769
O3	O	4.156443	0.662407	-0.191578
O4	O	4.251923	0.955990	-0.094076
O5	O	4.111091	0.356667	-0.092408
V6	V	4.688367	0.628865	-0.083939
O7	O	4.497215	0.747397	-0.122646
O8	O	4.855936	0.547449	-0.057353
O9	O	4.523303	0.632439	0.011580
O10	O	4.813118	0.642563	-0.185767
O11	O	4.909259	0.938178	-0.087590
O12	O	4.427823	0.338856	-0.085923
C13	C	3.996300	0.652154	-0.214879
C14	C	4.030620	0.651165	-0.292964
C15	C	4.118105	1.026646	-0.090502
C16	C	4.231951	1.268192	-0.089493
C17	C	4.231670	0.661366	-0.333202
C18	C	4.263928	0.660458	-0.406572
C19	C	4.095103	0.649307	-0.439699
C20	C	3.894030	0.639117	-0.399452
C21	C	3.861789	0.640046	-0.326084
N22	N	3.947478	0.517871	-0.546185
N23	N	3.978117	0.516985	-0.615881
C24	C	4.192236	0.646511	-0.660751
N25	N	4.374578	0.776932	-0.633291
N26	N	4.343937	0.777809	-0.563588
C27	C	4.130044	0.648299	-0.519253
C28	C	4.428279	0.655731	-0.780545
C29	C	4.460537	0.654837	-0.853917
C30	C	4.090622	0.633473	-0.846794
C31	C	4.058381	0.634390	-0.773425
C32	C	4.227212	0.645509	-0.740305
C33	C	4.346787	0.642686	0.034877
C34	C	4.291709	0.643689	0.112961
H35	H	4.427653	0.668764	-0.439341
H36	H	4.369156	0.670434	-0.306241
O37	O	3.863238	0.624546	-0.734231
C38	C	3.870948	0.627692	-0.662369
H39	H	4.059192	0.704885	-0.658777
H40	H	3.792232	0.725286	-0.637375
H41	H	3.767656	0.455453	-0.632846
O42	O	3.666697	0.630501	-0.286980
C43	C	3.729158	0.816031	-0.253525
H44	H	3.908256	0.951596	-0.284096
H45	H	3.596149	0.868911	-0.252632
H46	H	3.733573	0.777614	-0.196795
O47	O	4.655982	0.665100	-0.893060
C48	C	4.777886	0.850837	-0.944943
H49	H	4.727705	0.974865	-0.927255
H50	H	4.972769	0.922549	-0.952023
H51	H	4.731765	0.805291	-0.997504
H52	H	3.953167	0.624407	-0.873766
O53	O	4.592017	0.666169	-0.748314
C54	C	4.492227	0.481692	-0.696862
H55	H	4.332568	0.345580	-0.710515
H56	H	4.624497	0.428829	-0.696082
H57	H	4.438926	0.521491	-0.642385
O58	O	3.729906	0.627898	-0.431641
C59	C	3.645340	0.441074	-0.464662
H60	H	3.676142	0.317642	-0.438128
H61	H	3.451185	0.369296	-0.459252
H62	H	3.740305	0.485209	-0.523306
