data_functionalizedCrystal
_audit_creation_method	'MofGen! by Chris Wilmer'
_symmetry_space_group_name_H-M	'P1'
_symmetry_Int_Tables_number	1
_symmetry_cell_setting	triclinic
loop_
_symmetry_equiv_pos_as_xyz
  x,y,z
_cell_length_a	14.908520
_cell_length_b	19.805407
_cell_length_c	19.805399
_cell_angle_alpha	89.982197
_cell_angle_beta	93.270609
_cell_angle_gamma	93.317992
loop_
_atom_site_label
_atom_site_type_symbol
_atom_site_fract_x
_atom_site_fract_y
_atom_site_fract_z
Zn1	Zn	-0.359245	1.019201	-0.398241
Zn2	Zn	-0.025911	1.352534	-0.064907
Zn3	Zn	0.307422	1.685867	0.268426
Zn4	Zn	-0.510110	1.012592	-0.291584
Zn5	Zn	-0.176777	1.345925	0.041749
Zn6	Zn	0.156557	1.679258	0.375083
Zn7	Zn	-0.359263	0.906015	-0.285069
Zn8	Zn	-0.025929	1.239348	0.048264
Zn9	Zn	0.307404	1.572681	0.381597
Zn10	Zn	-0.510055	0.899457	-0.404732
Zn11	Zn	-0.176722	1.232791	-0.071398
Zn12	Zn	0.156612	1.566124	0.261935
O13	O	-0.434668	0.959316	-0.344906
O14	O	-0.101335	1.292649	-0.011573
O15	O	0.231999	1.625983	0.321760
O16	O	-0.379273	1.113040	-0.384102
O17	O	-0.045940	1.446373	-0.050769
O18	O	0.287394	1.779707	0.282565
O19	O	-0.490130	0.998432	-0.196004
O20	O	-0.156797	1.331766	0.137329
O21	O	0.176536	1.665099	0.470662
O22	O	-0.233015	0.926539	-0.294639
O23	O	0.100318	1.259872	0.038694
O24	O	0.433651	1.593206	0.372028
O25	O	-0.490113	1.108184	-0.305742
O26	O	-0.156780	1.441518	0.027591
O27	O	0.176554	1.774851	0.360925
O28	O	-0.233002	1.009697	-0.377785
O29	O	0.100331	1.343030	-0.044452
O30	O	0.433664	1.676363	0.288881
O31	O	-0.379303	0.920131	-0.191218
O32	O	-0.045970	1.253464	0.142115
O33	O	0.287363	1.586797	0.475448
O34	O	-0.379250	0.810429	-0.300933
O35	O	-0.045917	1.143762	0.032400
O36	O	0.287417	1.477096	0.365733
O37	O	-0.490019	0.915363	-0.498586
O38	O	-0.156686	1.248697	-0.165253
O39	O	0.176647	1.582030	0.168081
O40	O	-0.490037	0.805611	-0.388849
O41	O	-0.156703	1.138945	-0.055515
O42	O	0.176630	1.472278	0.277818
O43	O	-0.379220	1.003338	-0.493817
O44	O	-0.045886	1.336672	-0.160484
O45	O	0.287447	1.670005	0.172850
O46	O	-0.636348	0.992074	-0.312036
O47	O	-0.303014	1.325407	0.021297
O48	O	0.030319	1.658741	0.354631
O49	O	-0.636307	0.908955	-0.395165
O50	O	-0.302974	1.242288	-0.061832
O51	O	0.030359	1.575621	0.271501
C52	C	-0.434640	0.783461	-0.344889
C53	C	-0.101307	1.116795	-0.011555
C54	C	0.232027	1.450128	0.321778
C55	C	-0.434650	0.708229	-0.344898
C56	C	-0.101316	1.041562	-0.011565
C57	C	0.232017	1.374896	0.321768
C58	C	-0.377037	0.675409	-0.385771
C59	C	-0.043704	1.008743	-0.052437
C60	C	0.289630	1.342076	0.280896
C61	C	-0.377042	0.604721	-0.385773
C62	C	-0.043709	0.938054	-0.052440
C63	C	0.289625	1.271387	0.280893
C64	C	-0.434664	0.566853	-0.344907
C65	C	-0.101331	0.900186	-0.011574
C66	C	0.232002	1.233519	0.321760
C67	C	-0.492279	0.599677	-0.304030
C68	C	-0.158946	0.933010	0.029303
C69	C	0.174388	1.266344	0.362637
C70	C	-0.492269	0.670365	-0.304024
C71	C	-0.158936	1.003698	0.029309
C72	C	0.174398	1.337031	0.362643
C73	C	-0.492320	0.314602	-0.304052
C74	C	-0.158986	0.647935	0.029281
C75	C	0.174347	0.981269	0.362614
C76	C	-0.492327	0.243910	-0.304063
C77	C	-0.158994	0.577243	0.029270
C78	C	0.174340	0.910576	0.362604
C79	C	-0.377092	0.248958	-0.385802
C80	C	-0.043759	0.582291	-0.052469
C81	C	0.289574	0.915625	0.280865
C82	C	-0.377082	0.319646	-0.385796
C83	C	-0.043749	0.652979	-0.052463
C84	C	0.289584	0.986312	0.280871
C85	C	-0.434694	0.352464	-0.344917
C86	C	-0.101360	0.685797	-0.011583
C87	C	0.231973	1.019131	0.321750
C88	C	-0.434687	0.429113	-0.344913
C89	C	-0.101353	0.762446	-0.011580
C90	C	0.231980	1.095779	0.321754
C91	C	-0.434676	0.490205	-0.344914
C92	C	-0.101343	0.823538	-0.011580
C93	C	0.231990	1.156872	0.321753
C94	C	-0.669061	0.949104	-0.355027
C95	C	-0.335728	1.282437	-0.021693
C96	C	-0.002395	1.615771	0.311640
C97	C	-0.769336	0.944797	-0.359379
C98	C	-0.436002	1.278131	-0.026045
C99	C	-0.102669	1.611464	0.307288
C100	C	-0.957743	1.023345	-0.281064
C101	C	-0.624410	1.356679	0.052269
C102	C	-0.291076	1.690012	0.385602
C103	C	-1.051960	1.019301	-0.285151
C104	C	-0.718626	1.352634	0.048182
C105	C	-0.385293	1.685968	0.381515
C106	C	-1.051988	0.932668	-0.371643
C107	C	-0.718654	1.266001	-0.038310
C108	C	-0.385321	1.599335	0.295024
C109	C	-0.957771	0.936712	-0.367556
C110	C	-0.624437	1.270046	-0.034222
C111	C	-0.291104	1.603379	0.299111
C112	C	-0.910652	0.982052	-0.322264
C113	C	-0.577318	1.315385	0.011069
C114	C	-0.243985	1.648719	0.344402
C115	C	-0.816433	0.986092	-0.318174
C116	C	-0.483100	1.319426	0.015159
C117	C	-0.149767	1.652759	0.348492
C118	C	-0.816463	0.899463	-0.404669
C119	C	-0.483130	1.232797	-0.071336
C120	C	-0.149796	1.566130	0.261998
C121	C	-0.910680	0.895419	-0.408756
C122	C	-0.577346	1.228752	-0.075423
C123	C	-0.244013	1.562086	0.257911
C124	C	-0.199360	0.969587	-0.334761
C125	C	0.133974	1.302920	-0.001428
C126	C	0.467307	1.636253	0.331905
C127	C	-0.099085	0.973963	-0.330438
C128	C	0.234248	1.307296	0.002895
C129	C	0.567581	1.640630	0.336228
C130	C	-0.434611	0.959357	-0.521447
C131	C	-0.101278	1.292690	-0.188113
C132	C	0.232055	1.626023	0.145220
C133	C	-0.434587	0.959374	-0.596678
C134	C	-0.101254	1.292707	-0.263344
C135	C	0.232080	1.626040	0.069989
C136	C	-0.434697	1.135858	-0.344925
C137	C	-0.101364	1.469191	-0.011591
C138	C	0.231970	1.802524	0.321742
C139	C	-0.434709	1.211089	-0.344932
C140	C	-0.101376	1.544422	-0.011599
C141	C	0.231957	1.877756	0.321734
C142	C	-0.376891	1.005183	-0.629540
C143	C	-0.043557	1.338517	-0.296206
C144	C	0.289776	1.671850	0.037127
C145	C	-0.376865	1.005191	-0.700227
C146	C	-0.043531	1.338525	-0.366894
C147	C	0.289802	1.671858	-0.033560
C148	C	-0.434540	0.959393	-0.738051
C149	C	-0.101207	1.292726	-0.404718
C150	C	0.232127	1.626059	-0.071385
C151	C	-0.492239	0.913578	-0.705185
C152	C	-0.158905	1.246911	-0.371851
C153	C	0.174428	1.580245	-0.038518
C154	C	-0.492260	0.913567	-0.634498
C155	C	-0.158926	1.246901	-0.301165
C156	C	0.174407	1.580234	0.032168
C157	C	-0.492155	0.913620	-0.990254
C158	C	-0.158821	1.246953	-0.656921
C159	C	0.174512	1.580287	-0.323588
C160	C	-0.492131	0.913636	-1.060946
C161	C	-0.158798	1.246969	-0.727612
C162	C	0.174535	1.580302	-0.394279
C163	C	-0.376760	1.005244	-1.055983
C164	C	-0.043426	1.338577	-0.722650
C165	C	0.289907	1.671911	-0.389316
C166	C	-0.376781	1.005233	-0.985297
C167	C	-0.043447	1.338567	-0.651963
C168	C	0.289886	1.671900	-0.318630
C169	C	-0.434476	0.959417	-0.952436
C170	C	-0.101142	1.292750	-0.619103
C171	C	0.232191	1.626083	-0.285769
C172	C	-0.434502	0.959408	-0.875789
C173	C	-0.101169	1.292741	-0.542455
C174	C	0.232165	1.626074	-0.209122
C175	C	-0.434519	0.959404	-0.814698
C176	C	-0.101185	1.292738	-0.481364
C177	C	0.232148	1.626071	-0.148031
C178	C	-0.434660	0.959318	-0.169050
C179	C	-0.101326	1.292651	0.164283
C180	C	0.232007	1.625984	0.497617
C181	C	-0.434430	0.959443	-0.093809
C182	C	-0.101096	1.292776	0.239525
C183	C	0.232237	1.626109	0.572858
H184	H	-0.330163	0.350474	-0.419076
H185	H	0.003170	0.683808	-0.085743
H186	H	0.336503	1.017141	0.247591
H187	H	-0.329885	1.042496	-0.726980
H188	H	0.003449	1.375829	-0.393647
H189	H	0.336782	1.709162	-0.060313
H190	H	-0.330179	0.222229	-0.419085
H191	H	0.003154	0.555562	-0.085752
H192	H	0.336487	0.888896	0.247581
H193	H	-0.778070	1.023008	-0.281294
H194	H	-0.444737	1.356342	0.052039
H195	H	-0.111403	1.689675	0.385373
H196	H	-0.539196	0.876286	-0.735987
H197	H	-0.205862	1.209619	-0.402653
H198	H	0.127471	1.542952	-0.069320
C199	C	-0.555618	0.863218	-0.954117
C200	C	-0.222285	1.196552	-0.620783
C201	C	0.111048	1.529885	-0.287450
N202	N	-0.603421	0.825252	-0.926896
N203	N	-0.270087	1.158586	-0.593562
N204	N	0.063246	1.491919	-0.260229
C205	C	-1.103757	1.064725	-0.239825
C206	C	-0.770423	1.398058	0.093508
C207	C	-0.437090	1.731391	0.426841
N208	N	-1.142770	1.098939	-0.205683
N209	N	-0.809437	1.432273	0.127650
N210	N	-0.476103	1.765606	0.460983
H211	H	-0.539233	0.876258	-0.607743
H212	H	-0.205900	1.209591	-0.274410
H213	H	0.127434	1.542925	0.058924
H214	H	-0.539231	0.341314	-0.270766
H215	H	-0.205898	0.674647	0.062567
H216	H	0.127436	1.007981	0.395900
C217	C	-0.905910	1.073217	-0.231242
C218	C	-0.572577	1.406550	0.102091
C219	C	-0.239243	1.739883	0.435424
N220	N	-0.866871	1.110782	-0.193716
N221	N	-0.533537	1.444115	0.139617
N222	N	-0.200204	1.777449	0.472950
C223	C	-0.555712	0.202256	-0.259099
C224	C	-0.222378	0.535590	0.074235
C225	C	0.110955	0.868923	0.407568
N226	N	-0.603449	0.170883	-0.225232
N227	N	-0.270116	0.504216	0.108101
N228	N	0.063218	0.837550	0.441435
H229	H	-1.090368	0.895759	-0.408521
H230	H	-0.757035	1.229093	-0.075188
H231	H	-0.423701	1.562426	0.258145
C232	C	-0.313666	0.568622	-0.430739
C233	C	0.019667	0.901956	-0.097405
C234	C	0.353000	1.235289	0.235928
N235	N	-0.265929	0.541434	-0.464609
N236	N	0.067404	0.874767	-0.131275
N237	N	0.400737	1.208100	0.202058
C238	C	-0.555663	0.558020	-0.259075
C239	C	-0.222330	0.891353	0.074258
C240	C	0.111004	1.224686	0.407591
N241	N	-0.603408	0.526644	-0.225216
N242	N	-0.270074	0.859977	0.108117
N243	N	0.063259	1.193311	0.441450
H244	H	-0.539182	0.697085	-0.270741
H245	H	-0.205849	1.030419	0.062592
H246	H	0.127484	1.363752	0.395926
C247	C	-0.962521	0.845544	-0.458570
C248	C	-0.629188	1.178878	-0.125237
C249	C	-0.295855	1.512211	0.208097
N250	N	-1.001568	0.807975	-0.496088
N251	N	-0.668234	1.141308	-0.162755
N252	N	-0.334901	1.474641	0.170578
H253	H	-0.539099	0.876338	-1.091741
H254	H	-0.205766	1.209671	-0.758407
H255	H	0.127568	1.543004	-0.425074
H256	H	-0.778111	0.865837	-0.438215
H257	H	-0.444777	1.199170	-0.104881
H258	H	-0.111444	1.532504	0.228452
C259	C	-0.313441	1.055566	-0.587939
C260	C	0.019892	1.388899	-0.254606
C261	C	0.353225	1.722233	0.078728
N262	N	-0.265646	1.093514	-0.556607
N263	N	0.067687	1.426847	-0.223274
N264	N	0.401021	1.760180	0.110059
C265	C	-0.313330	1.055613	-0.943694
C266	C	0.020003	1.388946	-0.610360
C267	C	0.353337	1.722280	-0.277027
N268	N	-0.265533	1.093557	-0.912359
N269	N	0.067800	1.426891	-0.579025
N270	N	0.401134	1.760224	-0.245692
C271	C	-0.313282	1.055636	-1.092136
C272	C	0.020051	1.388969	-0.758802
C273	C	0.353385	1.722303	-0.425469
N274	N	-0.265472	1.093590	-1.119365
N275	N	0.067862	1.426923	-0.786031
N276	N	0.401195	1.760256	-0.452698
H277	H	-0.330117	0.706237	-0.419051
H278	H	0.003217	1.039570	-0.085718
H279	H	0.336550	1.372903	0.247616
