data_functionalizedCrystal
_audit_creation_method	'MofGen! by Chris Wilmer'
_symmetry_space_group_name_H-M	'P1'
_symmetry_Int_Tables_number	1
_symmetry_cell_setting	triclinic
loop_
_symmetry_equiv_pos_as_xyz
  x,y,z
_cell_length_a	15.995292
_cell_length_b	14.472311
_cell_length_c	10.540539
_cell_angle_alpha	90.005726
_cell_angle_beta	96.002946
_cell_angle_gamma	90.007223
loop_
_atom_site_label
_atom_site_type_symbol
_atom_site_fract_x
_atom_site_fract_y
_atom_site_fract_z
O1	O	1.111995	0.076862	-0.163250
O2	O	0.868334	0.076857	-0.183532
O3	O	0.995724	0.076858	0.011394
O4	O	0.984606	0.076861	-0.358176
O5	O	0.995707	-0.076824	0.011368
O6	O	0.868317	-0.076825	-0.183558
O7	O	1.111978	-0.076820	-0.163276
Cu8	Cu	0.990146	-0.090855	-0.173419
Cu9	Cu	0.990166	0.090892	-0.173389
O10	O	0.984589	-0.076821	-0.358201
C11	C	0.837125	0.000016	-0.182719
C12	C	0.744158	0.000015	-0.180245
N13	N	0.990138	-0.218686	-0.173440
C14	C	0.990153	-0.407186	-0.173412
C15	C	0.921978	-0.446417	-0.277674
C16	C	0.921740	-0.553505	-0.277390
C17	C	0.990167	-0.592777	-0.173386
C18	C	0.970648	-0.553888	-0.040785
C19	C	0.970150	-0.446767	-0.041412
C20	C	1.078050	-0.446643	-0.200553
C21	C	1.077488	-0.553772	-0.203548
C22	C	0.990176	-0.697665	-0.173363
C23	C	0.990141	-0.302298	-0.173425
C24	C	0.406365	0.000025	-0.171147
C25	C	0.430518	0.000369	-0.311839
C26	C	0.527210	0.000019	-0.314513
C27	C	0.573948	0.000020	-0.175661
C28	C	0.544416	-0.087737	-0.105336
C29	C	0.447615	-0.087807	-0.103643
C30	C	0.447762	0.086959	-0.100741
C31	C	0.544286	0.088115	-0.105954
C32	C	0.668659	0.000015	-0.178205
C33	C	0.311654	0.000024	-0.168599
C34	C	1.143187	0.000023	-0.164088
C35	C	1.236155	0.000031	-0.166563
C36	C	0.994881	0.000019	0.058672
C37	C	0.992387	0.000024	0.199585
N38	N	0.990181	0.218723	-0.173358
C39	C	0.985431	0.000020	-0.405480
C40	C	0.987926	0.000021	-0.546393
C41	C	0.896801	0.000367	0.381668
C42	C	0.899330	0.000021	0.235085
C43	C	1.037160	-0.087735	0.261858
C44	C	1.033984	-0.087809	0.408358
C45	C	1.035897	0.086956	0.408932
C46	C	1.036754	0.088116	0.261962
H47	H	0.933430	-0.579800	-0.375941
Br48	Br	1.049723	-0.403501	0.091828
Br49	Br	1.051186	-0.596276	0.091697
H50	H	1.128790	-0.421265	-0.124528
H51	H	0.907271	-0.580740	-0.016358
Br52	Br	1.109120	-0.401624	-0.358325
H53	H	0.564759	-0.153047	-0.154194
Br54	Br	0.985703	0.197822	0.460815
H55	H	1.092281	-0.579175	-0.301107
H56	H	0.433149	0.087553	0.002818
H57	H	1.006044	-0.153044	0.218810
H58	H	1.130639	-0.580504	-0.132563
Br59	Br	0.401008	0.197823	-0.174027
H60	H	1.103111	0.087547	0.457103
Br61	Br	0.835538	0.105263	0.428485
H62	H	0.933478	-0.420667	-0.376561
H63	H	0.563169	0.153037	-0.157158
H64	H	0.546573	0.062929	-0.369582
Br65	Br	0.384411	0.105267	-0.402217
H66	H	0.576650	0.093416	-0.004606
H67	H	0.864099	0.062931	0.191997
Br68	Br	0.835590	-0.103621	0.431744
H69	H	0.401815	-0.062212	-0.365777
Br70	Br	0.840169	-0.105005	0.164627
H71	H	0.545938	-0.062996	-0.369943
H72	H	0.421082	-0.153408	-0.152368
H73	H	1.000880	-0.153412	0.436081
H74	H	0.432447	-0.091792	-0.000488
H75	H	1.100909	-0.091789	0.457266
H76	H	0.856528	-0.579150	-0.259989
H77	H	1.105498	-0.090997	0.240464
Br78	Br	0.596498	-0.093172	0.064972
H79	H	1.003993	0.153038	0.220654
H80	H	1.104600	0.093417	0.238695
H81	H	0.906034	-0.421799	-0.017569
Br82	Br	0.813888	-0.401582	-0.249109
