data_functionalizedCrystal
_audit_creation_method	'MofGen! by Chris Wilmer'
_symmetry_space_group_name_H-M	'P1'
_symmetry_Int_Tables_number	1
_symmetry_cell_setting	triclinic
loop_
_symmetry_equiv_pos_as_xyz
  x,y,z
_cell_length_a	19.188930
_cell_length_b	10.654541
_cell_length_c	9.130307
_cell_angle_alpha	90.003083
_cell_angle_beta	90.015394
_cell_angle_gamma	83.814354
loop_
_atom_site_label
_atom_site_type_symbol
_atom_site_fract_x
_atom_site_fract_y
_atom_site_fract_z
O1	O	-0.927167	-0.156778	-0.122270
O2	O	-0.723993	-0.177883	-0.122170
O3	O	-0.830252	0.015508	-0.122213
O4	O	-0.820908	-0.350169	-0.122227
O5	O	-0.830249	0.015509	0.121386
O6	O	-0.723990	-0.177882	0.121429
O7	O	-0.927163	-0.156776	0.121329
Cu8	Cu	-0.825576	-0.167329	0.143622
Cu9	Cu	-0.825580	-0.167331	-0.144462
O10	O	-0.820904	-0.350167	0.121372
C11	C	-0.697976	-0.177199	-0.000357
C12	C	-0.620458	-0.175147	-0.000319
N13	N	-0.825578	-0.167326	0.346244
C14	C	-0.953180	-0.157461	-0.000487
C15	C	-1.030698	-0.159512	-0.000535
C16	C	-0.576276	-0.288623	-0.000346
C17	C	-0.503439	-0.286695	-0.000362
C18	C	-0.474788	-0.171286	-0.000380
C19	C	-0.518981	-0.057795	-0.000345
C20	C	-0.591815	-0.059726	-0.000314
N21	N	-0.366233	-0.083070	-0.083343
N22	N	-0.297042	-0.081244	-0.083376
C23	C	-0.255342	-0.165462	-0.000470
N24	N	-0.285444	-0.251594	0.082452
N25	N	-0.354641	-0.253424	0.082477
C26	C	-0.395812	-0.169180	-0.000413
C27	C	-0.132181	-0.276855	-0.000512
C28	C	-0.059344	-0.274923	-0.000519
C29	C	-0.074887	-0.046020	-0.000517
C30	C	-0.147723	-0.047955	-0.000495
C31	C	-0.176365	-0.163376	-0.000500
C32	C	-0.829565	0.062292	-0.000414
C33	C	-0.827513	0.201692	-0.000416
C34	C	-0.821592	-0.396952	-0.000430
C35	C	-0.823643	-0.536352	-0.000438
C36	C	-0.954574	0.232352	-0.000460
C37	C	-1.017138	0.313170	-0.000479
C38	C	-1.015206	0.444147	-0.000482
C39	C	-0.950703	0.494307	-0.000472
C40	C	-0.888139	0.413489	-0.000453
C41	C	-0.890078	0.282511	-0.000445
C42	C	-0.761079	0.382830	-0.000419
C43	C	-0.763010	0.251852	-0.000405
C44	C	-0.696577	0.432990	-0.000409
C45	C	-0.634011	0.352172	-0.000379
C46	C	-0.635946	0.221187	-0.000374
C47	C	-0.700446	0.171034	-0.000386
N48	N	-0.825583	-0.167323	-0.347085
C49	C	-0.919709	0.003872	0.346196
C50	C	-0.966779	0.089468	0.422838
C51	C	-0.966786	0.089469	0.576172
C52	C	-0.919717	0.003868	0.652866
C53	C	-0.872647	-0.081728	0.576224
C54	C	-0.872646	-0.081722	0.422887
C55	C	-0.778513	-0.252919	0.576272
C56	C	-0.778509	-0.252928	0.422939
C57	C	-0.731444	-0.338521	0.652967
C58	C	-0.684376	-0.424125	0.576324
C59	C	-0.684371	-0.424123	0.422982
C60	C	-0.731438	-0.338524	0.346297
H61	H	-0.599591	-0.382608	-0.000352
H62	H	-0.731441	-0.338520	0.221444
Cl63	Cl	-0.625190	-0.531730	0.326645
H64	H	-1.069655	0.272315	-0.000475
H65	H	-0.702028	0.064388	-0.000373
Cl66	Cl	-0.447885	-0.429361	-0.000393
H67	H	-0.495648	0.036172	-0.000380
Cl68	Cl	-0.919714	0.003864	0.153432
Cl69	Cl	-0.625205	-0.531719	0.672744
H70	H	-0.627789	0.032682	-0.000293
Cl71	Cl	-0.552931	0.415238	-0.000383
Cl72	Cl	-0.168193	-0.421953	-0.000503
Cl73	Cl	-0.003799	-0.417592	-0.000546
H74	H	-0.183697	0.044449	-0.000481
Cl75	Cl	-0.957008	0.067695	-0.000422
H76	H	-1.066151	0.509950	-0.000509
Cl77	Cl	-1.025948	0.197082	0.326420
Cl78	Cl	-0.557289	0.119597	-0.000362
Cl79	Cl	-0.948276	0.658966	-0.000576
H80	H	-0.695008	0.539640	-0.000420
Cl81	Cl	-0.038876	0.099068	-0.000523
H82	H	-1.005112	0.159173	0.638574
H83	H	-0.919720	0.003884	0.777718
H84	H	-0.731448	-0.338511	0.777819
