data_functionalizedCrystal
_audit_creation_method	'MofGen! by Chris Wilmer'
_symmetry_space_group_name_H-M	'P1'
_symmetry_Int_Tables_number	1
_symmetry_cell_setting	triclinic
loop_
_symmetry_equiv_pos_as_xyz
  x,y,z
_cell_length_a	13.032831
_cell_length_b	12.759399
_cell_length_c	12.759393
_cell_angle_alpha	90.032479
_cell_angle_beta	82.806365
_cell_angle_gamma	97.171589
loop_
_atom_site_label
_atom_site_type_symbol
_atom_site_fract_x
_atom_site_fract_y
_atom_site_fract_z
Zn1	Zn	1.597652	0.622478	-0.797692
Zn2	Zn	1.930985	0.955811	-0.464359
Zn3	Zn	2.264318	1.289145	-0.131025
Zn4	Zn	1.597519	0.798180	-0.621993
Zn5	Zn	1.930853	1.131514	-0.288659
Zn6	Zn	2.264186	1.464847	0.044674
Zn7	Zn	1.422888	0.600188	-0.599747
Zn8	Zn	1.756221	0.933521	-0.266414
Zn9	Zn	2.089554	1.266854	0.066919
Zn10	Zn	1.422849	0.775765	-0.775362
Zn11	Zn	1.756182	1.109099	-0.442029
Zn12	Zn	2.089516	1.442432	-0.108695
O13	O	1.510227	0.699153	-0.698698
O14	O	1.843560	1.032486	-0.365365
O15	O	2.176894	1.365819	-0.032032
O16	O	1.743874	0.664495	-0.793040
O17	O	2.077207	0.997828	-0.459707
O18	O	2.410540	1.331161	-0.126374
O19	O	1.574315	0.771968	-0.472016
O20	O	1.907648	1.105301	-0.138682
O21	O	2.240982	1.438635	0.194651
O22	O	1.446142	0.456133	-0.626041
O23	O	1.779475	0.789466	-0.292707
O24	O	2.112809	1.122799	0.040626
O25	O	1.743776	0.793582	-0.663955
O26	O	2.077110	1.126916	-0.330621
O27	O	2.410443	1.460249	0.002712
O28	O	1.574540	0.472509	-0.771470
O29	O	1.907874	0.805843	-0.438136
O30	O	2.241207	1.139176	-0.104803
O31	O	1.446014	0.626504	-0.455672
O32	O	1.779347	0.959837	-0.122339
O33	O	2.112680	1.293170	0.210995
O34	O	1.276643	0.604769	-0.604388
O35	O	1.609976	0.938102	-0.271055
O36	O	1.943310	1.271436	0.062279
O37	O	1.446076	0.755380	-0.925350
O38	O	1.779409	1.088713	-0.592017
O39	O	2.112743	1.422046	-0.258683
O40	O	1.276615	0.733765	-0.733411
O41	O	1.609948	1.067099	-0.400078
O42	O	1.943281	1.400432	-0.066745
O43	O	1.574503	0.642760	-0.941756
O44	O	1.907836	0.976093	-0.608423
O45	O	2.241170	1.309427	-0.275089
O46	O	1.574277	0.942219	-0.642302
O47	O	1.907611	1.275552	-0.308969
O48	O	2.240944	1.608885	0.024365
O49	O	1.445948	0.925751	-0.754982
O50	O	1.779281	1.259084	-0.421648
O51	O	2.112615	1.592417	-0.088315
C52	C	1.238711	0.664417	-0.664063
C53	C	1.572044	0.997750	-0.330730
C54	C	1.905377	1.331084	0.002604
C55	C	1.122555	0.649582	-0.649271
C56	C	1.455888	0.982915	-0.315938
C57	C	1.789221	1.316249	0.017396
C58	C	1.070782	0.706895	-0.706419
C59	C	1.404116	1.040229	-0.373085
C60	C	1.737449	1.373562	-0.039752
C61	C	0.950729	0.691564	-0.691131
C62	C	1.284062	1.024898	-0.357798
C63	C	1.617396	1.358231	-0.024465
C64	C	1.510123	0.972107	-0.698659
C65	C	1.843456	1.305440	-0.365326
C66	C	2.176789	1.638774	-0.031992
C67	C	1.510173	1.088890	-0.698690
C68	C	1.843507	1.422223	-0.365356
C69	C	2.176840	1.755557	-0.032023
C70	C	1.576993	1.152185	-0.774465
C71	C	1.910326	1.485518	-0.441132
C72	C	2.243659	1.818851	-0.107799
C73	C	1.577034	1.261914	-0.774496
C74	C	1.910368	1.595247	-0.441163
C75	C	2.243701	1.928581	-0.107830
C76	C	1.443434	1.245044	-0.622966
C77	C	1.776768	1.578377	-0.289633
C78	C	2.110101	1.911711	0.043701
C79	C	1.443388	1.135316	-0.622941
C80	C	1.776722	1.468649	-0.289607
C81	C	2.110055	1.801983	0.043726
C82	C	1.782804	0.734025	-0.733470
C83	C	2.116137	1.067358	-0.400136
C84	C	2.449470	1.400692	-0.066803
C85	C	1.898959	0.748886	-0.748287
C86	C	2.232293	1.082219	-0.414954
C87	C	2.565626	1.415552	-0.081620
C88	C	1.510321	1.425132	-0.698753
C89	C	1.843654	1.758465	-0.365419
C90	C	2.176988	2.091798	-0.032086
C91	C	1.510261	1.308347	-0.698746
C92	C	1.843594	1.641681	-0.365412
C93	C	2.176928	1.975014	-0.032079
C94	C	1.510300	0.699056	-0.972741
C95	C	1.843633	1.032389	-0.639408
C96	C	2.176967	1.365723	-0.306075
C97	C	1.510331	0.699015	-1.089522
C98	C	1.843664	1.032348	-0.756189
C99	C	2.176998	1.365681	-0.422855
C100	C	1.443549	0.623262	-1.135876
C101	C	1.776882	0.956595	-0.802543
C102	C	2.110215	1.289929	-0.469210
C103	C	1.443573	0.623233	-1.245604
C104	C	1.776906	0.956566	-0.912270
C105	C	2.110240	1.289900	-0.578937
C106	C	1.577171	0.774713	-1.262613
C107	C	1.910504	1.108046	-0.929280
C108	C	2.243838	1.441379	-0.595947
C109	C	1.577141	0.774746	-1.152887
C110	C	1.910474	1.108079	-0.819554
C111	C	2.243807	1.441412	-0.486221
C112	C	1.510214	0.699181	-0.425729
C113	C	1.843548	1.032515	-0.092396
C114	C	2.176881	1.365848	0.240937
C115	C	1.510386	0.698952	-0.308975
C116	C	1.843719	1.032286	0.024358
C117	C	2.177052	1.365619	0.357691
H118	H	1.078000	0.589160	-0.589031
H119	H	1.411334	0.922493	-0.255698
H120	H	1.744667	1.255826	0.077635
C121	C	1.650548	1.331535	-0.857850
C122	C	1.983882	1.664868	-0.524516
C123	C	2.317215	1.998201	-0.191183
N124	N	1.705924	1.383973	-0.920633
N125	N	2.039257	1.717306	-0.587300
N126	N	2.372591	2.050640	-0.253967
C127	C	0.890547	0.609935	-0.609739
C128	C	1.223880	0.943268	-0.276406
C129	C	1.557214	1.276601	0.056927
N130	N	0.845216	0.548453	-0.548435
N131	N	1.178549	0.881786	-0.215102
N132	N	1.511883	1.215120	0.118232
H133	H	0.943509	0.809302	-0.808542
H134	H	1.276842	1.142636	-0.475208
H135	H	1.610175	1.475969	-0.141875
C136	C	1.370046	1.296133	-0.539584
C137	C	1.703379	1.629466	-0.206251
C138	C	2.036713	1.962799	0.127083
N139	N	1.314795	1.334615	-0.476756
N140	N	1.648128	1.667948	-0.143422
N141	N	1.981462	2.001281	0.189911
H142	H	1.631526	0.836437	-1.115146
H143	H	1.964859	1.169770	-0.781812
H144	H	2.298192	1.503103	-0.448479
H145	H	1.389148	0.561597	-1.084287
H146	H	1.722481	0.894931	-0.750954
H147	H	2.055814	1.228264	-0.417620
H148	H	1.388971	1.083777	-0.561234
H149	H	1.722304	1.417110	-0.227901
H150	H	2.055638	1.750444	0.105433
C151	C	1.130968	0.788522	-0.787805
C152	C	1.464302	1.121856	-0.454472
C153	C	1.797635	1.455189	-0.121138
N154	N	1.176299	0.850008	-0.849105
N155	N	1.509633	1.183341	-0.515772
N156	N	1.842966	1.516675	-0.182439
H157	H	1.631566	0.836370	-1.314219
H158	H	1.964899	1.169703	-0.980885
H159	H	2.298233	1.503036	-0.647552
H160	H	1.389191	0.561548	-1.283340
H161	H	1.722524	0.894882	-0.950006
H162	H	2.055858	1.228215	-0.616673
C163	C	1.650452	1.101119	-0.857797
C164	C	1.983785	1.434453	-0.524464
C165	C	2.317118	1.767786	-0.191130
N166	N	1.705781	1.062660	-0.920567
N167	N	2.039114	1.395993	-0.587234
N168	N	2.372448	1.729326	-0.253901
