data_functionalizedCrystal
_audit_creation_method	'MofGen! by Chris Wilmer'
_symmetry_space_group_name_H-M	'P1'
_symmetry_Int_Tables_number	1
_symmetry_cell_setting	triclinic
loop_
_symmetry_equiv_pos_as_xyz
  x,y,z
_cell_length_a	21.395362
_cell_length_b	18.215405
_cell_length_c	18.215387
_cell_angle_alpha	89.906010
_cell_angle_beta	89.922988
_cell_angle_gamma	90.040762
loop_
_atom_site_label
_atom_site_type_symbol
_atom_site_fract_x
_atom_site_fract_y
_atom_site_fract_z
Zn1	Zn	0.958090	-0.292219	-0.416482
Zn2	Zn	1.291423	0.041115	-0.083148
Zn3	Zn	1.624756	0.374448	0.250185
Zn4	Zn	0.957942	-0.415426	-0.293409
Zn5	Zn	1.291276	-0.082093	0.039924
Zn6	Zn	1.624609	0.251241	0.373257
Zn7	Zn	0.853244	-0.292412	-0.293387
Zn8	Zn	1.186578	0.040921	0.039946
Zn9	Zn	1.519911	0.374255	0.373279
Zn10	Zn	0.853285	-0.415282	-0.416393
Zn11	Zn	1.186618	-0.081949	-0.083060
Zn12	Zn	1.519951	0.251385	0.250273
O13	O	0.905640	-0.353835	-0.354918
O14	O	1.238974	-0.020501	-0.021585
O15	O	1.572307	0.312832	0.311749
O16	O	1.045748	-0.308542	-0.400202
O17	O	1.379082	0.024792	-0.066869
O18	O	1.712415	0.358125	0.266465
O19	O	0.943975	-0.399249	-0.190422
O20	O	1.277309	-0.065916	0.142911
O21	O	1.610642	0.267417	0.476245
O22	O	0.867197	-0.189402	-0.309744
O23	O	1.200530	0.143931	0.023589
O24	O	1.533864	0.477265	0.356923
O25	O	1.045640	-0.399062	-0.309781
O26	O	1.378973	-0.065728	0.023552
O27	O	1.712307	0.267605	0.356885
O28	O	0.944227	-0.189260	-0.400181
O29	O	1.277560	0.144073	-0.066847
O30	O	1.610893	0.477407	0.266486
O31	O	0.867054	-0.308871	-0.190406
O32	O	1.200387	0.024462	0.142928
O33	O	1.533721	0.357795	0.476261
O34	O	0.765572	-0.308732	-0.309658
O35	O	1.098905	0.024602	0.023675
O36	O	1.432238	0.357935	0.357008
O37	O	0.867266	-0.398816	-0.519390
O38	O	1.200599	-0.065483	-0.186056
O39	O	1.533932	0.267851	0.147277
O40	O	0.765601	-0.399004	-0.400030
O41	O	1.098935	-0.065671	-0.066697
O42	O	1.432268	0.267663	0.266637
O43	O	0.944266	-0.308402	-0.519455
O44	O	1.277599	0.024931	-0.186121
O45	O	1.610932	0.358265	0.147212
O46	O	0.944014	-0.518391	-0.309696
O47	O	1.277348	-0.185058	0.023638
O48	O	1.610681	0.148275	0.356971
O49	O	0.867123	-0.518286	-0.400052
O50	O	1.200456	-0.184952	-0.066718
O51	O	1.533789	0.148381	0.266615
C52	C	0.742853	-0.353874	-0.354833
C53	C	1.076186	-0.020540	-0.021499
C54	C	1.409519	0.312793	0.311834
C55	C	0.673211	-0.353908	-0.354814
C56	C	1.006545	-0.020575	-0.021480
C57	C	1.339878	0.312759	0.311853
C58	C	0.640530	-0.400975	-0.401800
C59	C	0.973863	-0.067642	-0.068466
C60	C	1.307197	0.265691	0.264867
C61	C	0.575095	-0.400957	-0.401833
C62	C	0.908428	-0.067624	-0.068499
C63	C	1.241761	0.265709	0.264834
C64	C	0.542343	-0.353880	-0.354866
C65	C	0.875676	-0.020546	-0.021533
C66	C	1.209010	0.312787	0.311801
C67	C	0.575032	-0.306803	-0.307876
C68	C	0.908366	0.026530	0.025457
C69	C	1.241699	0.359863	0.358790
C70	C	0.640466	-0.306818	-0.307850
C71	C	0.973800	0.026516	0.025483
C72	C	1.307133	0.359849	0.358816
C73	C	0.438585	-0.348037	-0.288614
C74	C	0.771918	-0.014704	0.044720
C75	C	1.105252	0.318630	0.378053
C76	C	0.373152	-0.348028	-0.288639
C77	C	0.706486	-0.014694	0.044695
C78	C	1.039819	0.318639	0.378028
C79	C	0.340522	-0.353832	-0.354947
C80	C	0.673856	-0.020498	-0.021614
C81	C	1.007189	0.312835	0.311719
C82	C	0.373333	-0.359660	-0.421233
C83	C	0.706667	-0.026327	-0.087899
C84	C	1.040000	0.307007	0.245434
C85	C	0.438768	-0.359674	-0.421207
C86	C	0.772101	-0.026341	-0.087873
C87	C	1.105434	0.306993	0.245460
C88	C	0.471391	-0.353859	-0.354889
C89	C	0.804724	-0.020525	-0.021556
C90	C	1.138057	0.312808	0.311777
C91	C	0.236889	-0.400882	-0.401973
C92	C	0.570222	-0.067548	-0.068640
C93	C	0.903555	0.265785	0.264694
C94	C	0.171452	-0.400858	-0.402007
C95	C	0.504785	-0.067525	-0.068674
C96	C	0.838119	0.265808	0.264660
C97	C	0.171391	-0.306709	-0.308044
C98	C	0.504724	0.026625	0.025289
C99	C	0.838058	0.359958	0.358622
C100	C	0.236826	-0.306728	-0.308017
C101	C	0.570159	0.026605	0.025316
C102	C	0.903493	0.359939	0.358650
C103	C	0.269571	-0.353818	-0.354980
C104	C	0.602904	-0.020485	-0.021647
C105	C	0.936238	0.312848	0.311686
C106	C	0.905574	-0.545041	-0.354883
C107	C	1.238907	-0.211708	-0.021549
C108	C	1.572241	0.121626	0.311784
C109	C	0.905603	-0.626840	-0.354892
C110	C	1.238936	-0.293507	-0.021559
C111	C	1.572270	0.039827	0.311775
C112	C	0.945735	-0.815064	-0.307930
C113	C	1.279068	-0.481731	0.025403
C114	C	1.612401	-0.148398	0.358736
C115	C	0.945763	-0.891923	-0.307948
C116	C	1.279096	-0.558590	0.025385
C117	C	1.612429	-0.225256	0.358718
C118	C	0.865626	-0.891853	-0.401958
C119	C	1.198959	-0.558520	-0.068625
C120	C	1.532293	-0.225186	0.264708
C121	C	0.865602	-0.814996	-0.401944
C122	C	1.198935	-0.481662	-0.068610
C123	C	1.532268	-0.148329	0.264723
C124	C	0.905655	-0.776603	-0.354926
C125	C	1.238988	-0.443270	-0.021592
C126	C	1.572322	-0.109937	0.311741
C127	C	0.905707	-0.930319	-0.354958
C128	C	1.239041	-0.596986	-0.021625
C129	C	1.572374	-0.263653	0.311709
C130	C	0.905738	-1.013653	-0.354978
C131	C	1.239071	-0.680320	-0.021644
C132	C	1.572404	-0.346986	0.311689
C133	C	0.905626	-0.693264	-0.354907
C134	C	1.238959	-0.359931	-0.021573
C135	C	1.572293	-0.026598	0.311760
C136	C	1.069064	-0.353796	-0.355004
C137	C	1.402397	-0.020463	-0.021671
C138	C	1.735730	0.312871	0.311663
C139	C	1.138705	-0.353780	-0.355041
C140	C	1.472038	-0.020446	-0.021707
C141	C	1.805372	0.312887	0.311626
C142	C	0.905787	-0.353571	-0.546871
C143	C	1.239120	-0.020238	-0.213538
C144	C	1.572453	0.313095	0.119795
C145	C	0.905849	-0.353459	-0.628671
C146	C	1.239182	-0.020126	-0.295337
C147	C	1.572516	0.313208	0.037996
C148	C	0.905724	-0.161882	-0.354970
C149	C	1.239057	0.171452	-0.021636
C150	C	1.572390	0.504785	0.311697
C151	C	0.905759	-0.080083	-0.354992
C152	C	1.239093	0.253251	-0.021658
C153	C	1.572426	0.586584	0.311675
C154	C	0.905530	-0.354044	-0.163711
C155	C	1.238864	-0.020711	0.169622
C156	C	1.572197	0.312623	0.502955
C157	C	0.905589	-0.353949	-0.081913
C158	C	1.238923	-0.020615	0.251421
C159	C	1.572256	0.312718	0.584754
C160	C	0.945542	-0.306252	0.182917
C161	C	1.278875	0.027081	0.516250
C162	C	1.612208	0.360414	0.849584
C163	C	0.945497	-0.306334	0.106058
C164	C	1.278830	0.027000	0.439392
C165	C	1.612164	0.360333	0.772725
C166	C	0.865892	-0.401158	0.106505
C167	C	1.199226	-0.067824	0.439839
C168	C	1.532559	0.265509	0.773172
C169	C	0.865935	-0.401072	0.183362
C170	C	1.199268	-0.067739	0.516696
C171	C	1.532601	0.265594	0.850029
C172	C	0.905763	-0.353621	0.221566
C173	C	1.239096	-0.020287	0.554900
C174	C	1.572429	0.313046	0.888233
C175	C	0.905676	-0.353787	0.067851
C176	C	1.239009	-0.020454	0.401184
C177	C	1.572342	0.312879	0.734517
C178	C	0.905627	-0.353876	-0.015483
C179	C	1.238960	-0.020542	0.317850
C180	C	1.572293	0.312791	0.651184
C181	C	0.905811	-0.353531	0.304905
C182	C	1.239144	-0.020198	0.638238
C183	C	1.572478	0.313136	0.971572
H184	H	0.465147	-0.343308	-0.234614
H185	H	0.798480	-0.009974	0.098720
H186	H	1.131814	0.323359	0.432053
O187	O	0.988394	-0.255238	0.064368
O188	O	1.321728	0.078095	0.397701
O189	O	1.655061	0.411429	0.731034
H190	H	1.020434	-0.287932	0.029355
H191	H	1.353768	0.045401	0.362689
H192	H	1.687101	0.378734	0.696022
O193	O	0.988494	-0.255073	0.224127
O194	O	1.321828	0.078260	0.557460
O195	O	1.655161	0.411593	0.890794
H196	H	0.977408	-0.197425	0.209249
H197	H	1.310741	0.135908	0.542583
H198	H	1.644075	0.469242	0.875916
H199	H	0.263551	-0.439222	-0.440217
H200	H	0.596884	-0.105888	-0.106884
H201	H	0.930218	0.227445	0.226450
H202	H	0.548362	-0.268471	-0.269637
H203	H	0.881695	0.064862	0.063696
H204	H	1.215028	0.398195	0.397029
O205	O	0.988999	-0.933403	-0.257266
O206	O	1.322333	-0.600070	0.076067
O207	O	1.655666	-0.266736	0.409401
H208	H	0.982297	-0.993297	-0.265182
H209	H	1.315631	-0.659964	0.068152
H210	H	1.648964	-0.326630	0.401485
O211	O	0.337764	-0.341738	-0.217151
O212	O	0.671097	-0.008405	0.116183
O213	O	1.004430	0.324929	0.449516
H214	H	0.371445	-0.337688	-0.171039
H215	H	0.704778	-0.004355	0.162294
H216	H	1.038111	0.328979	0.495628
H217	H	0.667075	-0.268488	-0.269588
H218	H	1.000408	0.064846	0.063745
H219	H	1.333742	0.398179	0.397078
H220	H	0.833015	-0.923121	-0.440238
H221	H	1.166348	-0.589788	-0.106905
H222	H	1.499682	-0.256455	0.226429
O223	O	0.822937	-0.452338	0.065301
O224	O	1.156270	-0.119005	0.398634
O225	O	1.489603	0.214329	0.731968
H226	H	0.829593	-0.444445	0.005364
H227	H	1.162926	-0.111111	0.338697
H228	H	1.496259	0.222222	0.672030
O229	O	0.822362	-0.773504	-0.452623
O230	O	1.155695	-0.440171	-0.119289
O231	O	1.489028	-0.106837	0.214044
H232	H	0.794504	-0.813111	-0.485308
H233	H	1.127838	-0.479778	-0.151975
H234	H	1.461171	-0.146444	0.181358
O235	O	0.988946	-0.773660	-0.257230
O236	O	1.322279	-0.440327	0.076103
O237	O	1.655613	-0.106994	0.409437
H238	H	1.020808	-0.738545	-0.290219
H239	H	1.354142	-0.405211	0.043115
H240	H	1.687475	-0.071878	0.376448
H241	H	0.667187	-0.439319	-0.440042
H242	H	1.000520	-0.105986	-0.106709
H243	H	1.333853	0.227348	0.226625
O244	O	0.823010	-0.452143	0.225057
O245	O	1.156343	-0.118809	0.558391
O246	O	1.489676	0.214524	0.891724
H247	H	0.795307	-0.485153	0.185581
H248	H	1.128640	-0.151820	0.518914
H249	H	1.461974	0.181514	0.852248
H250	H	0.548480	-0.439285	-0.440097
H251	H	0.881814	-0.105951	-0.106764
H252	H	1.215147	0.227382	0.226570
H253	H	0.465480	-0.364418	-0.475179
H254	H	0.798813	-0.031084	-0.141845
H255	H	1.132146	0.302249	0.191488
H256	H	0.346768	-0.364385	-0.475228
H257	H	0.680101	-0.031051	-0.141894
H258	H	1.013434	0.302282	0.191439
H259	H	0.144725	-0.268374	-0.269807
H260	H	0.478059	0.064960	0.063527
H261	H	0.811392	0.398293	0.396860
O262	O	0.136197	-0.451723	-0.452590
O263	O	0.469531	-0.118390	-0.119256
O264	O	0.802864	0.214944	0.214077
H265	H	0.169963	-0.484508	-0.485198
H266	H	0.503296	-0.151175	-0.151865
H267	H	0.836630	0.182158	0.181468
H268	H	0.263436	-0.268404	-0.269752
H269	H	0.596769	0.064929	0.063581
H270	H	0.930102	0.398262	0.396915
