data_functionalizedCrystal
_audit_creation_method	'MofGen! by Chris Wilmer'
_symmetry_space_group_name_H-M	'P1'
_symmetry_Int_Tables_number	1
_symmetry_cell_setting	triclinic
loop_
_symmetry_equiv_pos_as_xyz
  x,y,z
_cell_length_a	16.109301
_cell_length_b	8.559649
_cell_length_c	14.586319
_cell_angle_alpha	89.997976
_cell_angle_beta	89.999213
_cell_angle_gamma	76.620073
loop_
_atom_site_label
_atom_site_type_symbol
_atom_site_fract_x
_atom_site_fract_y
_atom_site_fract_z
O1	O	1.090046	0.205389	-0.076179
O2	O	0.846355	0.230950	-0.076193
O3	O	0.989670	-0.014444	-0.076183
O4	O	0.946731	0.450783	-0.076188
O5	O	0.989661	-0.014447	0.076297
O6	O	0.846347	0.230946	0.076288
O7	O	1.090037	0.205386	0.076302
Cu8	Cu	0.968191	0.218165	0.090218
Cu9	Cu	0.968201	0.218170	-0.090108
O10	O	0.946722	0.450779	0.076293
C11	C	0.815442	0.229912	0.000046
C12	C	0.723344	0.226808	0.000040
C13	C	0.492255	0.365202	0.000050
C14	C	0.405721	0.362273	0.000056
C15	C	0.444145	0.071122	0.000054
C16	C	0.530677	0.074053	0.000055
C17	C	0.554729	0.221098	0.000048
C18	C	0.381663	0.215238	0.000053
C19	C	0.287840	0.212061	0.000060
C20	C	0.648558	0.224275	0.000043
C21	C	0.992919	-0.073977	0.000055
C22	C	1.002605	-0.251362	0.000051
C23	C	1.120950	0.206423	0.000062
C24	C	1.213048	0.209527	0.000061
C25	C	0.943473	0.510312	0.000052
C26	C	0.933787	0.687697	0.000051
N27	N	0.968190	0.218161	0.217050
N28	N	0.968210	0.218161	-0.216940
C29	C	1.031666	0.109538	0.452060
C30	C	1.031669	0.109534	0.548041
C31	C	0.904727	0.326790	0.548043
C32	C	0.904722	0.326785	0.452063
C33	C	0.968196	0.218161	0.404074
C34	C	0.968204	0.218162	0.596035
C35	C	0.968206	0.218158	0.700102
C36	C	0.968193	0.218162	0.300001
H37	H	0.354857	0.479618	0.000059
O38	O	0.854591	-0.212889	0.000081
C39	C	0.702852	-0.192254	0.000011
C40	C	0.792491	-0.305034	-0.000001
H41	H	0.652619	-0.266707	-0.000074
H42	H	0.694733	-0.113295	0.063835
H43	H	0.694846	-0.113248	-0.063791
H44	H	0.800558	-0.384140	0.063758
H45	H	0.800568	-0.383882	-0.063867
O46	O	1.081725	-0.351077	-0.000104
C47	C	1.181201	-0.561656	-0.079059
C48	C	1.091584	-0.448798	-0.079007
H49	H	1.189195	-0.640716	-0.142835
H50	H	1.231492	-0.487327	-0.079120
H51	H	1.189242	-0.640556	-0.015212
H52	H	1.083461	-0.369876	-0.142843
H53	H	1.041338	-0.523224	-0.078898
H54	H	1.083351	0.021081	0.587109
H55	H	1.083349	0.021087	0.412990
O56	O	0.420734	-0.071668	-0.000110
C57	C	0.345293	-0.243894	-0.079085
C58	C	0.371761	-0.082142	-0.079021
H59	H	0.305679	-0.252400	-0.142868
H60	H	0.404782	-0.346453	-0.079144
H61	H	0.305773	-0.252528	-0.015245
H62	H	0.411261	-0.073352	-0.142850
H63	H	0.312237	0.020340	-0.078915
H64	H	0.853049	0.415232	0.587125
H65	H	0.853033	0.415240	0.412990
H66	H	0.511835	0.484935	0.000051
O67	O	0.591261	-0.066087	0.000012
C68	C	0.620248	-0.355179	0.000067
C69	C	0.551550	-0.196602	0.000090
H70	H	0.588168	-0.460741	0.000150
H71	H	0.661714	-0.361188	-0.063760
H72	H	0.661729	-0.360995	0.063866
H73	H	0.510010	-0.190680	-0.063666
H74	H	0.510145	-0.190658	0.063959
