data_functionalizedCrystal
_audit_creation_method	'MofGen! by Chris Wilmer'
_symmetry_space_group_name_H-M	'P1'
_symmetry_Int_Tables_number	1
_symmetry_cell_setting	triclinic
loop_
_symmetry_equiv_pos_as_xyz
  x,y,z
_cell_length_a	15.995350
_cell_length_b	16.992694
_cell_length_c	15.455313
_cell_angle_alpha	92.857794
_cell_angle_beta	92.667328
_cell_angle_gamma	92.919701
loop_
_atom_site_label
_atom_site_type_symbol
_atom_site_fract_x
_atom_site_fract_y
_atom_site_fract_z
O1	O	0.174116	-1.043823	-0.072015
O2	O	0.172167	-0.815539	-0.072041
O3	O	0.051671	-0.935921	-0.072026
O4	O	0.294611	-0.923440	-0.072029
O5	O	0.058531	-0.929037	0.072235
O6	O	0.179027	-0.808655	0.072221
O7	O	0.180976	-1.036939	0.072246
Cu8	Cu	0.180628	-0.922168	0.085406
Cu9	Cu	0.172515	-0.930309	-0.085200
O10	O	0.301471	-0.916556	0.072232
C11	C	0.173091	-0.782884	0.000087
C12	C	0.165614	-0.695840	0.000077
C13	C	0.023872	-0.931963	0.000103
C14	C	-0.069182	-0.930416	0.000098
C15	C	0.180052	-1.069593	0.000117
C16	C	0.187528	-1.156637	0.000121
C17	C	-0.407301	-0.924861	0.000100
C18	C	-0.365620	-0.839142	-0.000233
C19	C	-0.268811	-0.840674	0.000092
C20	C	-0.239556	-0.927617	0.000098
C21	C	-0.273887	-0.965973	0.082482
C22	C	-0.370663	-0.963816	0.082550
C23	C	-0.378704	-0.973415	-0.081501
C24	C	-0.281812	-0.973447	-0.082590
C25	C	-0.144754	-0.929178	0.000100
C26	C	-0.502103	-0.923301	0.000104
C27	C	0.329271	-0.920514	0.000101
C28	C	0.422324	-0.922061	0.000101
N29	N	0.186334	-0.916448	0.205401
C30	C	0.237750	-0.645600	0.000077
C31	C	0.230720	-0.563813	0.000089
C32	C	0.151555	-0.532268	0.000095
C33	C	0.079414	-0.582515	0.000098
C34	C	0.086445	-0.664300	0.000092
C35	C	0.122418	-0.288669	0.000118
C36	C	0.115393	-0.206878	0.000122
C37	C	0.266700	-0.188181	0.000114
C38	C	0.273723	-0.269969	0.000103
C39	C	0.201582	-0.320208	0.000111
N40	N	0.144368	-0.448669	0.000104
N41	N	0.208770	-0.403806	0.000107
N42	N	0.166802	-0.936036	-0.205195
C43	C	0.135164	-0.967608	0.250801
C44	C	0.139488	-0.963289	0.341608
C45	C	0.194986	-0.907813	0.387014
C46	C	0.246157	-0.856647	0.341607
C47	C	0.241829	-0.860963	0.250801
C48	C	0.213646	-0.889185	0.658593
C49	C	0.217972	-0.884875	0.749405
C50	C	0.111301	-0.991517	0.749400
C51	C	0.106981	-0.995831	0.658592
C52	C	0.158150	-0.944662	0.613194
N53	N	0.199408	-0.903399	0.479833
N54	N	0.153722	-0.949073	0.520376
H55	H	-0.245421	-0.810251	-0.058964
F56	F	0.045638	-0.342127	0.000126
H57	H	0.325432	-0.147268	0.000110
F58	F	-0.411875	-0.940666	-0.163118
F59	F	0.031131	-0.173307	0.000143
F60	F	-0.414724	-1.056071	-0.082221
H61	H	-0.398522	-1.026582	0.086293
H62	H	0.097821	-1.004948	0.378573
F63	F	0.056846	-1.045969	0.797722
H64	H	-0.388100	-0.930041	0.144129
F65	F	0.305219	-0.797601	0.389932
F66	F	0.307497	-0.510346	0.000085
F67	F	-0.249648	-1.049270	0.086495
F68	F	0.277046	-0.825827	0.797723
F69	F	0.322009	-0.679165	0.000064
H70	H	0.255311	-0.847523	0.621636
H71	H	0.338187	-0.295647	0.000088
F72	F	0.296288	-0.806508	0.202484
H73	H	-0.244555	-0.933677	0.143784
F74	F	0.047916	-1.054875	0.610270
H75	H	-0.384703	-0.802224	0.058509
F76	F	-0.396509	-0.798035	-0.077455
H77	H	-0.240372	-0.804387	0.059241
H78	H	0.027704	-0.705206	0.000091
F79	F	-0.252279	-0.937148	-0.162262
F80	F	-0.004840	-0.548940	0.000110
H81	H	0.089976	-1.012786	0.213838
H82	H	-0.262444	-1.037086	-0.087560
