data_functionalizedCrystal
_audit_creation_method	'MofGen! by Chris Wilmer'
_symmetry_space_group_name_H-M	'P1'
_symmetry_Int_Tables_number	1
_symmetry_cell_setting	triclinic
loop_
_symmetry_equiv_pos_as_xyz
  x,y,z
_cell_length_a	16.992694
_cell_length_b	10.723024
_cell_length_c	16.053802
_cell_angle_alpha	92.591250
_cell_angle_beta	87.249047
_cell_angle_gamma	87.568046
loop_
_atom_site_label
_atom_site_type_symbol
_atom_site_fract_x
_atom_site_fract_y
_atom_site_fract_z
O1	O	1.045092	0.259813	-0.069321
O2	O	0.816792	0.256907	-0.069346
O3	O	0.936208	0.077238	-0.069330
O4	O	0.925676	0.439483	-0.069337
O5	O	0.929634	0.087084	0.069528
O6	O	0.810219	0.266753	0.069512
O7	O	1.038518	0.269659	0.069537
Zn8	Zn	0.923325	0.269769	0.091572
Zn9	Zn	0.931985	0.256797	-0.091380
O10	O	0.919103	0.449329	0.069521
C11	C	0.784273	0.258094	0.000080
C12	C	0.697169	0.246945	0.000071
C13	C	0.932155	0.035595	0.000098
C14	C	0.929862	-0.103157	0.000095
C15	C	0.647507	0.354505	0.000069
C16	C	0.565664	0.344024	0.000081
C17	C	0.533484	0.225982	0.000088
C18	C	0.583152	0.118414	0.000092
C19	C	0.664994	0.128896	0.000087
C20	C	0.289651	0.182535	0.000112
C21	C	0.207803	0.172060	0.000115
C22	C	0.190321	0.397672	0.000105
C23	C	0.272165	0.408144	0.000094
C24	C	0.321826	0.300577	0.000103
N25	N	0.449827	0.215265	0.000098
N26	N	0.405481	0.311294	0.000099
C27	C	0.996681	-0.172386	0.000101
C28	C	0.994312	-0.315793	0.000098
C29	C	1.071038	0.268472	0.000109
C30	C	1.158141	0.279620	0.000113
C31	C	0.923156	0.490971	0.000091
C32	C	0.925449	0.629723	0.000089
N33	N	0.917420	0.278623	0.216431
N34	N	0.937896	0.247934	-0.216239
C35	C	0.968250	0.202204	0.260132
C36	C	0.964127	0.208409	0.347538
C37	C	0.909177	0.291041	0.391242
C38	C	0.858341	0.367463	0.347535
C39	C	0.862461	0.361250	0.260130
C40	C	0.891180	0.318143	0.652649
C41	C	0.887066	0.324353	0.740060
C42	C	0.992852	0.165297	0.740057
C43	C	0.996970	0.159097	0.652650
C44	C	0.946131	0.235514	0.608951
N45	N	0.904963	0.297389	0.480585
N46	N	0.950342	0.229159	0.519610
H47	H	0.673701	0.450628	0.000063
O48	O	0.836358	0.400572	0.605520
H49	H	0.797464	0.459084	0.650597
H50	H	0.870902	-0.150057	0.000083
O51	O	0.799079	0.456600	0.394670
H52	H	0.738627	0.433347	0.377914
H53	H	0.868243	-0.310778	0.000090
O54	O	1.047675	0.082877	0.787196
H55	H	1.109705	0.103758	0.770415
H56	H	0.330076	0.094945	0.000119
H57	H	0.842316	0.391646	0.775640
O58	O	0.807642	0.443678	0.212989
H59	H	0.768744	0.502190	0.258062
H60	H	0.525232	0.431611	0.000079
O61	O	0.136755	0.513685	0.000115
H62	H	0.101711	0.510297	-0.056473
H63	H	1.013000	0.134922	0.224554
H64	H	0.298360	0.504266	0.000079
H65	H	0.181606	0.075931	0.000120
O66	O	1.018968	0.126002	0.394665
H67	H	1.009261	0.026472	0.377893
O68	O	0.548450	-0.008909	0.000103
H69	H	0.483197	0.001869	0.000099
O70	O	1.056231	0.069963	0.605512
H71	H	1.090879	0.017855	0.650585
H72	H	0.705428	0.041309	0.000087
H73	H	1.055640	-0.125486	0.000113
H74	H	1.051514	-0.375300	0.000107
