data_functionalizedCrystal
_audit_creation_method	'MofGen! by Chris Wilmer'
_symmetry_space_group_name_H-M	'P1'
_symmetry_Int_Tables_number	1
_symmetry_cell_setting	triclinic
loop_
_symmetry_equiv_pos_as_xyz
  x,y,z
_cell_length_a	12.837932
_cell_length_b	10.489716
_cell_length_c	11.892095
_cell_angle_alpha	93.932635
_cell_angle_beta	85.688545
_cell_angle_gamma	89.679419
loop_
_atom_site_label
_atom_site_type_symbol
_atom_site_fract_x
_atom_site_fract_y
_atom_site_fract_z
O1	O	1.384481	0.324542	-0.093986
O2	O	1.082554	0.308145	-0.093989
O3	O	1.240401	0.131502	-0.093991
O4	O	1.226634	0.501185	-0.093983
O5	O	1.227240	0.146205	0.094016
O6	O	1.069393	0.322848	0.094019
O7	O	1.371320	0.339245	0.094022
Zn8	Zn	1.218267	0.333381	0.123871
Zn9	Zn	1.235607	0.314009	-0.123838
O10	O	1.213473	0.515887	0.094024
C11	C	1.037312	0.309957	0.000015
C12	C	0.922113	0.293439	0.000013
C13	C	0.771249	0.155371	0.000012
C14	C	0.879490	0.170884	0.000012
C15	C	0.856486	0.400488	0.000018
C16	C	0.748245	0.384975	0.000018
C17	C	0.705631	0.262413	0.000013
C18	C	0.597389	0.246901	0.000005
C19	C	0.574386	0.476504	0.000019
C20	C	0.682627	0.492017	0.000019
C21	C	1.232787	0.091207	0.000009
C22	C	1.229693	-0.050766	-0.000001
C23	C	1.326489	-0.137766	0.000010
C24	C	1.281828	-0.228016	-0.092685
C25	C	1.268830	-0.213486	0.092676
C26	C	1.185078	-0.139151	-0.092773
C27	C	1.172088	-0.124608	0.092671
C28	C	1.127358	-0.214819	-0.000047
C29	C	1.416562	0.337432	0.000016
C30	C	1.531762	0.353950	0.000010
C31	C	1.221088	0.556182	0.000021
C32	C	1.224182	0.698155	0.000024
N33	N	1.206440	0.346602	0.292925
N34	N	1.247442	0.300779	-0.292892
C35	C	1.329738	0.208709	0.529571
C36	C	1.321479	0.217960	0.647913
C37	C	1.181658	0.374349	0.647953
C38	C	1.189917	0.365097	0.529611
C39	C	1.263961	0.282276	0.470424
C40	C	1.272224	0.273032	0.352080
C41	C	1.132399	0.429413	0.352122
C42	C	1.124140	0.438664	0.470464
H43	H	0.736554	0.055576	-0.000003
N44	N	1.101800	0.463654	0.711815
H45	H	1.138441	0.528855	0.760915
H46	H	1.061396	0.508775	0.656330
H47	H	1.328176	-0.273134	-0.171053
H48	H	1.304226	-0.246323	0.171040
H49	H	1.375040	0.158053	0.696067
N50	N	1.138271	-0.095882	-0.196699
H51	H	1.179430	-0.134487	-0.266628
H52	H	1.063312	-0.124555	-0.196917
H53	H	1.332517	0.205599	0.303891
H54	H	0.932914	0.083719	0.000012
N55	N	0.551414	0.114720	0.000016
H56	H	0.511896	0.097707	-0.069677
H57	H	0.609463	0.049346	0.000065
N58	N	0.728602	0.624197	0.000016
H59	H	0.709615	0.666230	-0.069681
H60	H	0.699843	0.677043	0.069754
H61	H	1.063852	0.506092	0.518668
H62	H	1.043101	-0.248543	-0.000097
H63	H	1.078842	0.489320	0.303952
H64	H	1.125776	-0.079463	0.171042
N65	N	0.902457	0.532672	0.000034
H66	H	0.980984	0.526250	0.000038
H67	H	0.883400	0.574645	-0.069663
H68	H	1.410692	-0.103814	-0.000084
N69	N	0.503613	0.591966	0.000009
H70	H	0.428576	0.563545	0.000005
H71	H	0.512627	0.650264	0.069706
N72	N	1.409604	0.119402	0.465724
H73	H	1.450026	0.074205	0.521152
H74	H	1.372899	0.054266	0.416628
