data_functionalizedCrystal
_audit_creation_method	'MofGen! by Chris Wilmer'
_symmetry_space_group_name_H-M	'P1'
_symmetry_Int_Tables_number	1
_symmetry_cell_setting	triclinic
loop_
_symmetry_equiv_pos_as_xyz
  x,y,z
_cell_length_a	16.959454
_cell_length_b	13.033304
_cell_length_c	13.032268
_cell_angle_alpha	90.922231
_cell_angle_beta	97.150351
_cell_angle_gamma	82.811145
loop_
_atom_site_label
_atom_site_type_symbol
_atom_site_fract_x
_atom_site_fract_y
_atom_site_fract_z
Zn1	Zn	-0.245947	-1.498442	-0.781535
Zn2	Zn	-0.359538	-1.520177	-0.609567
Zn3	Zn	-0.241770	-1.348303	-0.587706
Zn4	Zn	-0.392486	-1.326427	-0.759603
O5	O	-0.309935	-1.423337	-0.684603
O6	O	-0.248974	-1.645244	-0.777050
O7	O	-0.328379	-1.515629	-0.462759
O8	O	-0.131710	-1.368278	-0.613447
O9	O	-0.332430	-1.661213	-0.650707
O10	O	-0.134779	-1.478584	-0.755852
O11	O	-0.241855	-1.389354	-0.446697
O12	O	-0.273803	-1.201482	-0.592181
O13	O	-0.388583	-1.330993	-0.906421
O14	O	-0.384533	-1.185410	-0.718474
O15	O	-0.280922	-1.457372	-0.922534
O16	O	-0.474523	-1.494417	-0.629441
O17	O	-0.498729	-1.352069	-0.739672
C18	C	-0.332291	-1.156129	-0.650576
C19	C	-0.341876	-1.041813	-0.636043
C20	C	-0.304943	-0.982934	-0.692174
C21	C	-0.314849	-0.864782	-0.677155
C22	C	-0.515307	-1.423253	-0.684574
C23	C	-0.603161	-1.423307	-0.684609
C24	C	-0.987259	-1.349313	-0.742005
C25	C	-0.961995	-1.497634	-0.627342
C26	C	-0.879451	-1.497600	-0.627328
C27	C	-0.850808	-1.423419	-0.684652
C28	C	-0.904708	-1.349274	-0.741990
C29	C	-0.825545	-1.571737	-0.569982
C30	C	-0.742996	-1.571705	-0.569965
C31	C	-0.714351	-1.497528	-0.627296
C32	C	-0.768256	-1.423381	-0.684637
C33	C	-0.739612	-1.349200	-0.741962
C34	C	-0.793517	-1.275056	-0.799310
C35	C	-0.876062	-1.275097	-0.799321
C36	C	-0.631805	-1.497487	-0.627284
C37	C	-0.657061	-1.349161	-0.741947
C38	C	-0.103762	-1.423446	-0.684658
C39	C	-0.015903	-1.423493	-0.684681
C40	C	-0.338894	-1.389318	-0.952835
C41	C	-0.351234	-1.374821	-1.067139
C42	C	-0.287488	-0.691589	-0.718756
C43	C	-0.277910	-0.805905	-0.733293
C44	C	-0.303467	-1.430887	-1.126072
C45	C	-0.316221	-1.415905	-1.244212
C46	C	-0.281027	-1.457283	-0.417422
C47	C	-0.268447	-1.471979	-0.303143
H48	H	-0.353804	-0.827725	-0.617975
H49	H	-0.380828	-1.004751	-0.576868
C50	C	-0.384229	-1.336076	-1.294192
H51	H	-0.383884	-1.336485	-1.367039
H52	H	-0.376567	-1.269189	-1.267843
H53	H	-0.434199	-1.353322	-1.278542
C54	C	-0.625559	-1.267563	-0.805007
H55	H	-0.669486	-1.223412	-0.839155
H56	H	-0.594875	-1.301166	-0.854842
H57	H	-0.592892	-1.227755	-0.759917
C58	C	-0.252319	-1.032991	-0.772115
H59	H	-0.252569	-1.105835	-0.771727
H60	H	-0.199041	-1.017340	-0.754972
H61	H	-0.272894	-1.006688	-0.838975
C62	C	-0.200441	-1.551814	-1.253166
H63	H	-0.200792	-1.551417	-1.180320
H64	H	-0.150472	-1.534583	-1.268820
H65	H	-0.208115	-1.618702	-1.279517
C66	C	-0.225287	-0.855955	-0.813243
H67	H	-0.225537	-0.928799	-0.812858
H68	H	-0.172008	-0.840304	-0.796104
H69	H	-0.245866	-0.829648	-0.880101
H70	H	-0.770186	-1.214654	-0.845979
H71	H	-0.919958	-1.214732	-0.846010
C72	C	-0.419237	-1.294989	-1.117118
H73	H	-0.447548	-1.261751	-1.064824
H74	H	-0.454877	-1.329033	-1.164028
H75	H	-0.397233	-1.244913	-1.153322
C76	C	-1.046547	-1.267758	-0.805080
H77	H	-1.099812	-1.278398	-0.796878
H78	H	-1.039200	-1.273979	-0.876094
H79	H	-1.037213	-1.200577	-0.781162
H80	H	-0.587920	-1.557850	-0.580587
H81	H	-0.848874	-1.632124	-0.523303
C82	C	-0.993502	-1.579230	-0.564297
H83	H	-1.050384	-1.568638	-0.572524
H84	H	-0.973790	-1.573006	-0.493275
H85	H	-0.975782	-1.646397	-0.588216
C86	C	-0.683709	-1.653266	-0.506897
H87	H	-0.712592	-1.697454	-0.472766
H88	H	-0.649981	-1.619641	-0.457047
H89	H	-0.651985	-1.693040	-0.551981
H90	H	-0.253128	-1.489976	-1.089064
