data_functionalizedCrystal
_audit_creation_method	'MofGen! by Chris Wilmer'
_symmetry_space_group_name_H-M	'P1'
_symmetry_Int_Tables_number	1
_symmetry_cell_setting	triclinic
loop_
_symmetry_equiv_pos_as_xyz
  x,y,z
_cell_length_a	10.654546
_cell_length_b	15.186229
_cell_length_c	16.109301
_cell_angle_alpha	90.005167
_cell_angle_beta	83.972502
_cell_angle_gamma	90.010582
loop_
_atom_site_label
_atom_site_type_symbol
_atom_site_fract_x
_atom_site_fract_y
_atom_site_fract_z
O1	O	-1.666258	-0.073380	-0.116759
O2	O	-1.166258	0.426620	0.383241
O3	O	-1.300628	-0.073349	-0.127888
O4	O	-0.800628	0.426651	0.372112
O5	O	-1.493487	-0.073356	-0.001352
O6	O	-0.993487	0.426644	0.498648
O7	O	-1.473399	-0.073372	-0.243295
O8	O	-0.973399	0.426628	0.256705
O9	O	-1.493474	0.073101	-0.001350
O10	O	-0.993474	0.573101	0.498650
O11	O	-1.300615	0.073108	-0.127886
O12	O	-0.800615	0.573108	0.372114
O13	O	-1.666245	0.073078	-0.116758
O14	O	-1.166245	0.573078	0.383242
Zn15	Zn	-1.483428	0.096346	-0.122321
Zn16	Zn	-0.983428	0.596346	0.377679
Zn17	Zn	-1.483445	-0.096618	-0.122324
Zn18	Zn	-0.983445	0.403382	0.377676
O19	O	-1.473386	0.073085	-0.243293
O20	O	-0.973386	0.573085	0.256707
C21	C	-1.253834	-0.000117	-0.127070
C22	C	-0.753834	0.499883	0.372930
C23	C	-1.114424	-0.000105	-0.124628
C24	C	-0.614424	0.499895	0.375372
C25	C	-1.033928	-0.000119	-0.199129
C26	C	-0.533928	0.499881	0.300871
C27	C	-0.902938	-0.000128	-0.196829
C28	C	-0.402938	0.499872	0.303171
C29	C	-0.932954	-0.000112	-0.045518
C30	C	-0.432954	0.499888	0.454482
C31	C	-1.063941	-0.000097	-0.047820
C32	C	-0.563941	0.499903	0.452180
C33	C	-1.084411	-0.000127	-0.275937
C34	C	-0.584411	0.499873	0.224063
C35	C	-1.003913	-0.000143	-0.350445
C36	C	-0.503913	0.499857	0.149555
C37	C	-0.872923	-0.000152	-0.348145
C38	C	-0.372923	0.499848	0.151855
C39	C	-0.822431	-0.000145	-0.271336
C40	C	-0.322431	0.499855	0.228664
C41	C	-0.713038	-0.000145	-0.117577
C42	C	-0.213038	0.499855	0.382423
C43	C	-0.852447	-0.000129	-0.120026
C44	C	-0.352447	0.499871	0.379974
N45	N	-1.483426	0.228039	-0.122319
N46	N	-0.983426	0.728039	0.377681
C47	C	-1.492667	-0.000127	0.029628
C48	C	-0.992667	0.499873	0.529628
C49	C	-1.490227	-0.000126	0.121938
C50	C	-0.990227	0.499874	0.621938
N51	N	-1.483457	-0.228310	-0.122320
N52	N	-0.983457	0.271690	0.377680
C53	C	-1.568853	0.453759	-0.066309
C54	C	-1.068853	0.953759	0.433691
C55	C	-1.568857	0.545948	-0.066307
C56	C	-1.068857	1.045948	0.433693
C57	C	-1.398021	0.545964	-0.178333
C58	C	-0.898021	1.045964	0.321667
C59	C	-1.398012	0.453776	-0.178330
C60	C	-0.898012	0.953776	0.321670
C61	C	-1.483435	0.407675	-0.122319
C62	C	-0.983435	0.907675	0.377681
C63	C	-1.483448	0.592053	-0.122320
C64	C	-0.983448	1.092053	0.377680
C65	C	-1.483452	0.692009	-0.122318
C66	C	-0.983452	1.192009	0.377682
C67	C	-1.483430	0.307713	-0.122319
C68	C	-0.983430	0.807713	0.377681
C69	C	-1.474206	-0.000146	-0.274274
C70	C	-0.974206	0.499854	0.225726
C71	C	-1.476646	-0.000154	-0.366584
C72	C	-0.976646	0.499846	0.133416
C73	C	-1.598994	-0.000149	0.343565
C74	C	-1.098994	0.499851	0.843565
C75	C	-1.596691	-0.000156	0.430299
C76	C	-1.096691	0.499844	0.930299
C77	C	-1.367871	-0.000133	0.411783
C78	C	-0.867871	0.499867	0.911783
C79	C	-1.370174	-0.000132	0.325051
C80	C	-0.870174	0.499868	0.825051
C81	C	-1.485739	-0.000136	0.290944
C82	C	-0.985739	0.499864	0.790944
C83	C	-1.481134	-0.000143	0.464411
C84	C	-0.981134	0.499857	0.964411
C85	C	-1.478637	-0.000151	0.558451
C86	C	-0.978637	0.499849	1.058451
C87	C	-1.488237	-0.000130	0.196897
C88	C	-0.988237	0.499870	0.696897
H89	H	-0.715769	-0.000139	-0.269469
H90	H	-0.215769	0.499861	0.230531
Cl91	Cl	-1.222597	-0.000129	0.454666
Cl92	Cl	-0.722597	0.499871	0.954666
H93	H	-1.693094	-0.000153	0.315798
H94	H	-1.193094	0.499847	0.815798
H95	H	-1.191067	-0.000124	-0.277819
H96	H	-0.691067	0.499876	0.222181
H97	H	-1.328449	0.416252	-0.223941
H98	H	-0.828449	0.916252	0.276059
Cl99	Cl	-0.869476	-0.000109	0.051033
Cl100	Cl	-0.369476	0.499891	0.551033
Cl101	Cl	-1.676237	0.395808	0.004109
Cl102	Cl	-1.176237	0.895808	0.504109
Cl103	Cl	-1.676241	0.603879	0.004111
Cl104	Cl	-1.176241	1.103879	0.504111
H105	H	-1.277943	-0.000125	0.282204
H106	H	-0.777943	0.499875	0.782204
H107	H	-1.129484	-0.000087	0.012846
H108	H	-0.629484	0.499913	0.512846
H109	H	-1.328473	0.583507	-0.223937
H110	H	-0.828473	1.083507	0.276063
H111	H	-1.045032	-0.000140	-0.412980
H112	H	-0.545032	0.499860	0.087020
Cl113	Cl	-0.771729	-0.000163	-0.441810
Cl114	Cl	-0.271729	0.499837	0.058190
H115	H	-1.688915	-0.000168	0.473140
H116	H	-1.188915	0.499832	0.973140
