data_functionalizedCrystal
_audit_creation_method	'MofGen! by Chris Wilmer'
_symmetry_space_group_name_H-M	'P1'
_symmetry_Int_Tables_number	1
_symmetry_cell_setting	triclinic
loop_
_symmetry_equiv_pos_as_xyz
  x,y,z
_cell_length_a	33.428889
_cell_length_b	33.428139
_cell_length_c	33.424847
_cell_angle_alpha	60.004234
_cell_angle_beta	60.008465
_cell_angle_gamma	59.994972
loop_
_atom_site_label
_atom_site_type_symbol
_atom_site_fract_x
_atom_site_fract_y
_atom_site_fract_z
O1	O	0.055565	-0.584504	0.488714
O2	O	0.020982	-0.455083	0.393778
O3	O	0.102943	-0.536959	0.393689
O4	O	-0.026396	-0.502628	0.488803
O5	O	0.130140	-0.509767	0.420792
O6	O	0.048179	-0.427891	0.420881
O7	O	0.082762	-0.557312	0.515817
Cu8	Cu	0.067954	-0.490119	0.470823
Cu9	Cu	0.035790	-0.522276	0.438771
O10	O	0.000801	-0.475436	0.515906
N11	N	0.090577	-0.467504	0.493370
N12	N	0.013171	-0.544895	0.416225
C13	C	0.143377	-0.280390	0.546067
C14	C	0.143515	-0.414755	0.680369
C15	C	0.143392	-0.414735	0.546069
C16	C	0.277766	-0.414702	0.545966
C17	C	0.158177	-0.324719	0.560828
C18	C	0.158255	-0.399967	0.636038
C19	C	0.233434	-0.399936	0.560773
C20	C	0.158186	-0.399955	0.560829
C21	C	0.124540	-0.223964	0.527278
C22	C	0.124565	-0.433545	0.527281
C23	C	0.177014	-0.381145	0.579617
C24	C	0.359814	-0.400540	0.502735
C25	C	0.411105	-0.417624	0.485606
C26	C	0.411136	-0.500620	0.517255
C27	C	0.359845	-0.483534	0.534385
C28	C	0.136887	-0.198305	0.476855
C29	C	0.119761	-0.147011	0.459777
C30	C	0.077945	-0.147038	0.543547
C31	C	0.095072	-0.198332	0.560625
C32	C	0.074134	-0.421169	0.539710
C33	C	0.057023	-0.438269	0.522625
C34	C	0.140770	-0.480120	0.480694
C35	C	0.157883	-0.463020	0.497773
C36	C	0.074339	-0.421208	0.762475
C37	C	0.057288	-0.438323	0.813768
C38	C	0.141075	-0.480183	0.813699
C39	C	0.158125	-0.463069	0.762404
C40	C	0.124756	-0.433580	0.736794
C41	C	0.334186	-0.433494	0.527123
C42	C	-0.173769	-0.597444	0.363037
C43	C	-0.039302	-0.597595	0.228856
C44	C	-0.039496	-0.597587	0.363300
C45	C	-0.039512	-0.731889	0.363237
C46	C	-0.129442	-0.612265	0.348329
C47	C	-0.054138	-0.612351	0.273187
C48	C	-0.054257	-0.687554	0.348440
C49	C	-0.054247	-0.612346	0.348477
C50	C	-0.230191	-0.578579	0.381758
C51	C	-0.020722	-0.578803	0.382168
C52	C	-0.073020	-0.631130	0.329609
C53	C	-0.053713	-0.813916	0.406386
C54	C	-0.036654	-0.865210	0.423504
C55	C	0.046338	-0.865293	0.391984
C56	C	0.029278	-0.813999	0.374865
C57	C	-0.255900	-0.590938	0.432169
C58	C	-0.307191	-0.573786	0.449185
C59	C	-0.307060	-0.531922	0.365377
C60	C	-0.255769	-0.549074	0.348360
C61	C	-0.033081	-0.528377	0.369764
C62	C	-0.016014	-0.511306	0.386922
C63	C	0.025770	-0.595083	0.428877
C64	C	0.008703	-0.612156	0.411725
C65	C	-0.032755	-0.528393	0.146761
C66	C	-0.015585	-0.511324	0.095468
C67	C	0.026262	-0.595106	0.095516
C68	C	0.009094	-0.612174	0.146811
C69	C	-0.020417	-0.578816	0.172432
C70	C	-0.020748	-0.788312	0.382068
N71	N	0.436037	-0.467415	0.493101
O72	O	0.592642	-0.471896	0.376066
O73	O	0.592838	-0.567146	0.505347
O74	O	0.592754	-0.566928	0.423360
O75	O	0.592727	-0.472113	0.458053
O76	O	0.511269	-0.539835	0.450606
O77	O	0.511353	-0.540052	0.532594
O78	O	0.511157	-0.444802	0.403312
Cu79	Cu	0.503815	-0.489954	0.470441
Cu80	Cu	0.600180	-0.521995	0.438219
O81	O	0.511242	-0.445020	0.485300
N82	N	0.667959	-0.544533	0.415554
N83	N	0.090544	-0.122107	0.493359
O84	O	-0.026406	0.034587	0.488773
O85	O	0.102877	0.034627	0.393499
O86	O	0.020848	0.034591	0.393771
O87	O	0.055623	0.034623	0.488500
O88	O	0.048051	-0.046899	0.420925
O89	O	0.130080	-0.046864	0.420653
O90	O	0.000796	-0.046903	0.515927
Cu91	Cu	0.067922	-0.054324	0.470769
Cu92	Cu	0.035752	0.042048	0.438656
O93	O	0.082825	-0.046867	0.515655
N94	N	0.013123	0.109830	0.416068
N95	N	0.090892	-0.467554	0.838649
O96	O	0.086330	-0.584488	0.995334
O97	O	-0.008902	-0.455160	0.995379
O98	O	-0.008679	-0.537172	0.995355
O99	O	0.086107	-0.502475	0.995358
O100	O	0.018452	-0.509990	0.913868
O101	O	0.018230	-0.427978	0.913891
O102	O	0.113461	-0.557306	0.913847
Cu103	Cu	0.068323	-0.490160	0.906429
Cu104	Cu	0.036237	-0.522306	1.002797
O105	O	0.113239	-0.475293	0.913870
N106	N	0.013667	-0.544916	1.070577
C107	C	0.031339	-0.425179	0.394250
C108	C	0.132837	-0.526572	0.394139
C109	C	0.072405	-0.587216	0.515344
C110	C	-0.029093	-0.485823	0.515455
C111	C	0.552119	-0.566716	0.535258
C112	C	0.552016	-0.566447	0.433726
C113	C	0.551873	-0.445232	0.373402
C114	C	0.551980	-0.445502	0.474933
C115	C	0.132731	-0.006013	0.393923
C116	C	0.031182	-0.006158	0.394293
C117	C	-0.029092	-0.006163	0.515469
C118	C	0.072491	-0.006119	0.515133
C119	C	-0.008451	-0.425276	0.954641
C120	C	-0.008170	-0.526833	0.954596
C121	C	0.113010	-0.587190	0.954585
C122	C	0.112735	-0.485627	0.954611
H123	H	0.016234	-0.428240	0.834672
H124	H	0.551811	-0.415327	0.336274
C125	C	0.551942	-0.405839	0.484929
C126	C	0.551992	-0.423605	0.532753
C127	C	0.551951	-0.387080	0.541981
H128	H	0.580324	-0.396861	0.462349
H129	H	0.523489	-0.377987	0.481337
H130	H	0.580442	-0.451448	0.536341
H131	H	0.523612	-0.432579	0.555343
H132	H	0.523498	-0.359228	0.538389
H133	H	0.580333	-0.378105	0.519398
H134	H	0.551980	-0.399127	0.574431
H135	H	-0.066220	-0.006175	0.545378
H136	H	0.023949	-0.388000	0.364433
H137	H	0.023733	-0.006162	0.364531
C138	C	0.182157	-0.005668	0.353993
C139	C	0.212384	-0.005547	0.371490
C140	C	0.257916	-0.005223	0.334718
H141	H	0.196994	-0.034014	0.344933
H142	H	0.177702	0.022823	0.326242
H143	H	0.216841	-0.034036	0.399233
H144	H	0.197563	0.022797	0.380547
H145	H	0.253461	0.023268	0.306967
H146	H	0.272748	-0.033570	0.325660
H147	H	0.278430	-0.005136	0.346583
C148	C	0.552171	-0.606646	0.584741
C149	C	0.552187	-0.648510	0.584683
C150	C	0.552229	-0.685302	0.630259
H151	H	0.580593	-0.614394	0.590736
H152	H	0.523758	-0.595460	0.609704
H153	H	0.580597	-0.659695	0.559727
H154	H	0.523767	-0.640778	0.578697
H155	H	0.523816	-0.674115	0.655222
H156	H	0.580652	-0.693045	0.636250
H157	H	0.552235	-0.713709	0.630227
C158	C	0.182407	-0.536409	0.354383
C159	C	0.212618	-0.584219	0.372009
C160	C	0.258288	-0.593295	0.335401
H161	H	0.178187	-0.532764	0.326528
H162	H	0.197119	-0.513782	0.345454
H163	H	0.197910	-0.606839	0.380931
H164	H	0.216852	-0.587875	0.399859
H165	H	0.272999	-0.570669	0.326473
H166	H	0.254063	-0.589648	0.307548
H167	H	0.278793	-0.625733	0.347357
C168	C	0.552006	-0.606094	0.423746
C169	C	0.551932	-0.588319	0.375930
C170	C	0.551915	-0.624826	0.366722
H171	H	0.580438	-0.633964	0.427329
H172	H	0.523603	-0.615039	0.446350
H173	H	0.580332	-0.579381	0.353333
H174	H	0.523502	-0.560454	0.372337
H175	H	0.523513	-0.633771	0.389325
H176	H	0.580348	-0.652693	0.370307
H177	H	0.551861	-0.612769	0.334280
H178	H	0.079939	-0.006110	0.544893
H179	H	-0.038348	-0.388133	0.954654
H180	H	-0.037935	-0.534246	0.954563
C181	C	0.152809	-0.636753	0.954589
C182	C	0.135249	-0.667000	0.954593
C183	C	0.171895	-0.712663	0.954602
H184	H	0.180664	-0.632524	0.926177
H185	H	0.161718	-0.651445	0.983014
H186	H	0.126346	-0.652312	0.926171
H187	H	0.107398	-0.671244	0.983003
H188	H	0.180805	-0.727354	0.983026
H189	H	0.199749	-0.708428	0.926189
H190	H	0.159985	-0.733192	0.954609
H191	H	0.142514	-0.478200	0.954606
H192	H	0.047163	-0.397193	0.741627
C193	C	0.082247	-0.636831	0.555053
C194	C	0.093654	-0.673438	0.538316
C195	C	0.102717	-0.719149	0.574885
H196	H	0.108983	-0.642842	0.562710
H197	H	0.053914	-0.636998	0.583556
H198	H	0.121984	-0.673273	0.509822
H199	H	0.066925	-0.667443	0.530663
H200	H	0.074384	-0.719315	0.603387
H201	H	0.129452	-0.725155	0.582539
H202	H	0.110453	-0.743991	0.563535
C203	C	0.177383	-0.512212	0.841417
C204	C	0.225186	-0.519395	0.807948
C205	C	0.258644	-0.548908	0.833463
H206	H	0.172537	-0.496600	0.861430
H207	H	0.172502	-0.542980	0.861410
H208	H	0.230065	-0.488633	0.787963
H209	H	0.230047	-0.535013	0.787934
H210	H	0.253764	-0.579676	0.853457
H211	H	0.253794	-0.533293	0.853476
H212	H	0.291082	-0.553789	0.810759
C213	C	-0.078647	-0.475970	0.555228
C214	C	-0.108850	-0.428152	0.537610
C215	C	-0.154500	-0.419056	0.574237
H216	H	-0.093394	-0.498573	0.564189
H217	H	-0.074378	-0.479625	0.583064
H218	H	-0.113121	-0.424502	0.509783
H219	H	-0.094119	-0.405539	0.528652
H220	H	-0.150231	-0.422710	0.602073
H221	H	-0.169242	-0.441662	0.583196
H222	H	-0.174997	-0.386610	0.562290
H223	H	0.199181	-0.473148	0.741498
H224	H	0.015959	-0.428182	0.532734
C225	C	0.037883	-0.389149	0.571716
C226	C	-0.009945	-0.381959	0.578928
C227	C	-0.043353	-0.352459	0.608405
H228	H	0.042774	-0.404775	0.602476
H229	H	0.042768	-0.358384	0.556054
H230	H	-0.014828	-0.412719	0.594591
H231	H	-0.014851	-0.366327	0.548178
H232	H	-0.038467	-0.321693	0.592743
H233	H	-0.038457	-0.368088	0.639162
H234	H	-0.075807	-0.347572	0.613298
H235	H	0.167905	-0.504126	0.456671
H236	H	0.160882	-0.219171	0.449698
C237	C	0.212649	-0.476422	0.484178
C238	C	0.233711	-0.458972	0.433152
C239	C	0.284160	-0.471311	0.420608
H240	H	0.218133	-0.462023	0.498526
H241	H	0.227103	-0.511034	0.495928
H242	H	0.219262	-0.424367	0.421407
H243	H	0.228240	-0.473369	0.418791
H244	H	0.298614	-0.505923	0.432358
H245	H	0.289639	-0.456911	0.434959
H246	H	0.298457	-0.459478	0.385986
C247	C	0.332053	-0.519329	0.560770
C248	C	0.344504	-0.543141	0.529554
C249	C	0.318909	-0.576117	0.553839
H250	H	0.340469	-0.542862	0.589260
H251	H	0.297825	-0.502008	0.569921
H252	H	0.378725	-0.560461	0.520410
H253	H	0.336087	-0.519620	0.501064
H254	H	0.284681	-0.558796	0.562990
H255	H	0.327327	-0.599647	0.582328
H256	H	0.327350	-0.592274	0.532661
C257	C	0.438846	-0.381765	0.459113
C258	C	0.405397	-0.334282	0.456407
C259	C	0.430934	-0.301236	0.431996
H260	H	0.458879	-0.390277	0.476536
H261	H	0.458819	-0.383041	0.426959
H262	H	0.385432	-0.333008	0.488555
H263	H	0.385362	-0.325755	0.438980
H264	H	0.450908	-0.302512	0.399843
H265	H	0.450968	-0.309753	0.449422
H266	H	0.408244	-0.269015	0.430153
H267	H	0.050281	-0.622271	0.074658
C268	C	0.331865	-0.346224	0.494879
C269	C	0.281460	-0.338309	0.515086
C270	C	0.255701	-0.288279	0.507851
H271	H	0.340227	-0.335557	0.510368
H272	H	0.340216	-0.328322	0.460769
H273	H	0.273113	-0.356205	0.549189
H274	H	0.273084	-0.348964	0.499600
H275	H	0.264052	-0.270377	0.473741
H276	H	0.264067	-0.277617	0.523341
H277	H	0.221499	-0.282902	0.521556
C278	C	0.133235	-0.119236	0.405010
C279	C	0.162718	-0.152663	0.379463
C280	C	0.175144	-0.127097	0.329011
H281	H	0.104253	-0.099233	0.396561
H282	H	0.150655	-0.099227	0.396565
H283	H	0.145299	-0.172664	0.387904
H284	H	0.191706	-0.172667	0.387897
H285	H	0.192564	-0.107088	0.320566
H286	H	0.146160	-0.107095	0.320567
H287	H	0.195153	-0.149773	0.311671
H288	H	0.432025	-0.541365	0.523165
H289	H	0.085016	-0.219221	0.601683
C290	C	0.045941	-0.119295	0.579829
C291	C	0.038791	-0.152747	0.627645
C292	C	0.009305	-0.127210	0.661081
H293	H	0.061559	-0.099275	0.574951
H294	H	0.015164	-0.099305	0.574959
H295	H	0.069562	-0.172728	0.632514
H296	H	0.023167	-0.172768	0.632539
H297	H	-0.021472	-0.107220	0.656211
H298	H	0.024926	-0.107191	0.656198
H299	H	0.004446	-0.149903	0.693528
H300	H	-0.025639	-0.470264	0.074572
H301	H	-0.056788	-0.501226	0.167618
H302	H	-0.063498	-0.886058	0.443304
C303	C	0.022422	-0.666928	0.174655
C304	C	0.004993	-0.688006	0.162133
C305	C	0.017254	-0.738443	0.187777
H306	H	0.057017	-0.681433	0.166327
H307	H	0.007958	-0.672339	0.208877
H308	H	0.019458	-0.682600	0.127919
H309	H	-0.029601	-0.673517	0.170463
H310	H	0.002790	-0.743853	0.222000
H311	H	0.051849	-0.752942	0.179447
H312	H	0.005427	-0.752750	0.179288
C313	C	-0.065047	-0.492087	0.337705
C314	C	-0.072231	-0.444273	0.330531
C315	C	-0.101682	-0.410830	0.301006
H316	H	-0.049390	-0.496964	0.306938
H317	H	-0.095816	-0.496954	0.353318
H318	H	-0.041468	-0.439408	0.314918
H319	H	-0.087894	-0.439380	0.361290
H320	H	-0.132451	-0.415697	0.316618
H321	H	-0.086021	-0.415711	0.270241
H322	H	-0.106563	-0.378384	0.296138
H323	H	-0.026079	-0.470245	0.376824
H324	H	0.018765	-0.653217	0.421828
C325	C	0.057782	-0.631353	0.460897
C326	C	0.100494	-0.660822	0.435192
C327	C	0.129990	-0.694241	0.464676
H328	H	0.066232	-0.614027	0.469353
H329	H	0.040366	-0.651367	0.489878
H330	H	0.117906	-0.640811	0.406221
H331	H	0.092058	-0.678160	0.426737
H332	H	0.112575	-0.714255	0.493656
H333	H	0.138437	-0.676910	0.473130
H334	H	0.158971	-0.714243	0.447241
C335	C	0.065136	-0.786267	0.348405
C336	C	0.099741	-0.798789	0.306455
C337	C	0.132788	-0.773258	0.282072
H338	H	0.047881	-0.752031	0.339189
H339	H	0.081343	-0.794700	0.369536
H340	H	0.083535	-0.790353	0.285328
H341	H	0.117008	-0.833021	0.315657
H342	H	0.148995	-0.781690	0.303203
H343	H	0.115528	-0.739023	0.272860
H344	H	0.156273	-0.781753	0.253610
C345	C	-0.108041	-0.786114	0.414212
C346	C	-0.133254	-0.819519	0.439153
C347	C	-0.183299	-0.793928	0.446360
H348	H	-0.120169	-0.766090	0.433023
H349	H	-0.112759	-0.766124	0.383368
H350	H	-0.128539	-0.839501	0.469992
H351	H	-0.121141	-0.839544	0.420350
H352	H	-0.188016	-0.773938	0.415515
H353	H	-0.195422	-0.773905	0.465169
H354	H	-0.200411	-0.816590	0.463279
H355	H	-0.235077	-0.614964	0.459366
C356	C	-0.335085	-0.587303	0.503924
C357	C	-0.322666	-0.638322	0.525044
C358	C	-0.348357	-0.650792	0.575467
H359	H	-0.326727	-0.575571	0.518432
H360	H	-0.369300	-0.572892	0.509293
H361	H	-0.288459	-0.652727	0.519678
H362	H	-0.331026	-0.650067	0.510550
H363	H	-0.382571	-0.636381	0.580836
H364	H	-0.339996	-0.639057	0.589970
H365	H	-0.339937	-0.685409	0.589802
C366	C	-0.334745	-0.499878	0.329040
C367	C	-0.301251	-0.492723	0.281249
C368	C	-0.326734	-0.463200	0.247762
H369	H	-0.354759	-0.515473	0.333865
H370	H	-0.354735	-0.469103	0.333915
H371	H	-0.281270	-0.523492	0.276376
H372	H	-0.281236	-0.477122	0.276408
H373	H	-0.346724	-0.432425	0.252637
H374	H	-0.346747	-0.478798	0.252592
H375	H	-0.304012	-0.458338	0.215332
H376	H	-0.234840	-0.539009	0.307312
H377	H	0.087072	-0.886205	0.386121
