data_functionalizedCrystal
_audit_creation_method	'MofGen! by Chris Wilmer'
_symmetry_space_group_name_H-M	'P1'
_symmetry_Int_Tables_number	1
_symmetry_cell_setting	triclinic
loop_
_symmetry_equiv_pos_as_xyz
  x,y,z
_cell_length_a	12.759400
_cell_length_b	12.759401
_cell_length_c	12.759393
_cell_angle_alpha	90.020938
_cell_angle_beta	90.030490
_cell_angle_gamma	90.016209
loop_
_atom_site_label
_atom_site_type_symbol
_atom_site_fract_x
_atom_site_fract_y
_atom_site_fract_z
Zn1	Zn	-0.418173	1.606266	0.594020
Zn2	Zn	0.081827	2.106266	1.094020
Zn3	Zn	-0.593888	1.606158	0.418340
Zn4	Zn	-0.093888	2.106158	0.918340
Zn5	Zn	-0.418229	1.430565	0.418355
Zn6	Zn	0.081771	1.930565	0.918355
Zn7	Zn	-0.593815	1.430557	0.593978
Zn8	Zn	-0.093815	1.930557	1.093978
O9	O	-0.506026	1.518387	0.506173
O10	O	-0.006026	2.018387	1.006173
O11	O	-0.441489	1.753273	0.570727
O12	O	0.058511	2.253273	1.070727
O13	O	-0.570641	1.582823	0.271321
O14	O	-0.070641	2.082823	0.771321
O15	O	-0.271200	1.453921	0.441682
O16	O	0.228800	1.953921	0.941682
O17	O	-0.570587	1.753193	0.441656
O18	O	-0.070587	2.253193	0.941656
O19	O	-0.271159	1.583008	0.570742
O20	O	0.228841	2.083008	1.070742
O21	O	-0.441584	1.453816	0.271332
O22	O	0.058416	1.953816	0.771332
O23	O	-0.441513	1.283543	0.441640
O24	O	0.058487	1.783543	0.941640
O25	O	-0.570461	1.453908	0.741004
O26	O	-0.070461	1.953908	1.241004
O27	O	-0.570516	1.283537	0.570669
O28	O	-0.070516	1.783537	1.070669
O29	O	-0.441418	1.583000	0.741036
O30	O	0.058582	2.083000	1.241036
O31	O	-0.740900	1.582815	0.441615
O32	O	-0.240900	2.082815	0.941615
O33	O	-0.740846	1.453802	0.570655
O34	O	-0.240846	1.953802	1.070655
C35	C	-0.506013	1.245419	0.506152
C36	C	-0.006013	1.745419	1.006152
C37	C	-0.506033	1.128643	0.506168
C38	C	-0.006033	1.628643	1.006168
C39	C	-0.573307	1.073805	0.573248
C40	C	-0.073307	1.573805	1.073248
C41	C	-0.573311	0.964081	0.573269
C42	C	-0.073311	1.464081	1.073269
C43	C	-0.438764	0.964042	0.439122
C44	C	0.061236	1.464042	0.939122
C45	C	-0.438756	1.073764	0.439107
C46	C	0.061244	1.573764	0.939107
C47	C	-0.778994	1.518324	0.506151
C48	C	-0.278994	2.018324	1.006151
C49	C	-0.895770	1.518394	0.506177
C50	C	-0.395770	2.018394	1.006177
C51	C	-0.950625	1.585645	0.439060
C52	C	-0.450625	2.085645	0.939060
C53	C	-1.060349	1.585710	0.439093
C54	C	-0.560349	2.085710	0.939093
C55	C	-1.060353	1.451262	0.573362
C56	C	-0.560353	1.951262	1.073362
C57	C	-0.950631	1.451204	0.573334
C58	C	-0.450631	1.951204	1.073334
C59	C	-0.895764	1.652835	0.371904
C60	C	-0.395764	2.152835	0.871904
C61	C	-0.950619	1.720091	0.304781
C62	C	-0.450619	2.220091	0.804781
C63	C	-1.060343	1.720156	0.304813
C64	C	-0.560343	2.220156	0.804813
C65	C	-1.115212	1.652964	0.371969
C66	C	-0.615212	2.152964	0.871969
C67	C	-0.231993	1.518478	0.506218
C68	C	0.268007	2.018478	1.006218
C69	C	-0.115216	1.518517	0.506238
C70	C	0.384784	2.018517	1.006238
C71	C	-0.505925	1.518465	0.780207
C72	C	-0.005925	2.018465	1.280207
C73	C	-0.505882	1.518499	0.896984
C74	C	-0.005882	2.018499	1.396984
C75	C	-0.506040	1.792420	0.506195
C76	C	-0.006040	2.292420	1.006195
C77	C	-0.506046	1.909197	0.506204
C78	C	-0.006046	2.409197	1.006204
C79	C	-0.506051	1.518369	0.233206
C80	C	-0.006051	2.018369	0.733206
C81	C	-0.505798	1.518539	0.116430
C82	C	-0.005798	2.018539	0.616430
C83	C	-0.438679	1.585722	0.951864
C84	C	0.061321	2.085722	1.451864
C85	C	-0.438633	1.585740	1.061588
C86	C	0.061367	2.085740	1.561588
C87	C	-0.573004	1.451308	1.061542
C88	C	-0.073004	1.951308	1.561542
C89	C	-0.573044	1.451285	0.951820
C90	C	-0.073044	1.951285	1.451820
H91	H	-0.383991	0.919346	0.384521
H92	H	0.116009	1.419346	0.884521
O93	O	-1.119515	1.792691	0.232422
O94	O	-0.619515	2.292691	0.732422
H95	H	-1.062929	1.839393	0.185717
H96	H	-0.562929	2.339393	0.685717
H97	H	-1.204557	1.653031	0.371998
H98	H	-0.704557	2.153031	0.871998
O99	O	-0.645521	1.378773	0.892608
O100	O	-0.145521	1.878773	1.392608
H101	H	-0.598488	1.325335	0.842631
H102	H	-0.098488	1.825335	1.342631
O103	O	-0.366192	1.132907	0.366742
O104	O	0.133808	1.632907	0.866742
H105	H	-0.312783	1.182923	0.413848
H106	H	0.187217	1.682923	0.913848
O107	O	-0.777420	1.652746	0.371861
O108	O	-0.277420	2.152746	0.871861
H109	H	-0.748395	1.673913	0.451113
H110	H	-0.248395	2.173913	0.951113
O111	O	-0.645438	1.378818	1.120693
O112	O	-0.145438	1.878818	1.620693
H113	H	-0.727905	1.396793	1.099618
H114	H	-0.227905	1.896793	1.599618
O115	O	-0.366243	1.658213	0.892716
O116	O	0.133757	2.158213	1.392716
H117	H	-0.312810	1.611203	0.842719
H118	H	0.187190	2.111203	1.342719
H119	H	-0.628090	0.919437	0.627893
H120	H	-0.128090	1.419437	1.127893
H121	H	-0.905940	1.774803	0.250111
H122	H	-0.405940	2.274803	0.750111
O123	O	-1.119534	1.378792	0.645782
O124	O	-0.619534	1.878792	1.145782
H125	H	-1.062955	1.332022	0.692456
H126	H	-0.562955	1.832022	1.192456
H127	H	-0.905968	1.396442	0.627988
H128	H	-0.405968	1.896442	1.127988
O129	O	-0.366151	1.658241	1.120791
O130	O	0.133849	2.158241	1.620791
H131	H	-0.384191	1.740690	1.099757
H132	H	0.115809	2.240690	1.599757
O133	O	-0.645853	1.133001	0.645587
O134	O	-0.145853	1.633001	1.145587
H135	H	-0.692625	1.076431	0.692243
H136	H	-0.192625	1.576431	1.192243
