data_functionalizedCrystal
_audit_creation_method	'MofGen! by Chris Wilmer'
_symmetry_space_group_name_H-M	'P1'
_symmetry_Int_Tables_number	1
_symmetry_cell_setting	triclinic
loop_
_symmetry_equiv_pos_as_xyz
  x,y,z
_cell_length_a	10.723024
_cell_length_b	13.596369
_cell_length_c	10.723023
_cell_angle_alpha	90.004968
_cell_angle_beta	84.467709
_cell_angle_gamma	90.005008
loop_
_atom_site_label
_atom_site_type_symbol
_atom_site_fract_x
_atom_site_fract_y
_atom_site_fract_z
O1	O	1.657189	0.081783	0.175029
O2	O	1.990523	0.415116	0.508363
O3	O	2.323856	0.748449	0.841696
O4	O	1.294037	0.081786	0.191783
O5	O	1.627370	0.415119	0.525116
O6	O	1.960704	0.748453	0.858449
O7	O	1.483990	0.081780	0.001830
O8	O	1.817324	0.415114	0.335163
O9	O	2.150657	0.748447	0.668496
O10	O	1.467236	0.081788	0.364982
O11	O	1.800569	0.415122	0.698316
O12	O	2.133903	0.748455	1.031649
O13	O	1.483971	-0.081803	0.001820
O14	O	1.817304	0.251531	0.335153
O15	O	2.150638	0.584864	0.668486
O16	O	1.294018	-0.081797	0.191772
O17	O	1.627351	0.251536	0.525106
O18	O	1.960684	0.584870	0.858439
O19	O	1.657170	-0.081800	0.175019
O20	O	1.990503	0.251533	0.508352
O21	O	2.323837	0.584866	0.841686
Zn22	Zn	1.475591	-0.107771	0.183394
Zn23	Zn	1.808924	0.225562	0.516727
Zn24	Zn	2.142258	0.558896	0.850061
Zn25	Zn	1.475616	0.107757	0.183408
Zn26	Zn	1.808949	0.441090	0.516741
Zn27	Zn	2.142283	0.774423	0.850074
O28	O	1.467217	-0.081795	0.364972
O29	O	1.800550	0.251539	0.698305
O30	O	2.133883	0.584872	1.031639
C31	C	1.247528	-0.000005	0.190558
C32	C	1.580861	0.333328	0.523892
C33	C	1.914194	0.666661	0.857225
C34	C	1.108973	-0.000004	0.186911
C35	C	1.442307	0.333329	0.520244
C36	C	1.775640	0.666663	0.853577
N37	N	1.475583	-0.254863	0.183384
N38	N	1.808916	0.078471	0.516718
N39	N	2.142249	0.411804	0.850051
C40	C	1.033991	-0.000001	0.293198
C41	C	1.367324	0.333332	0.626532
C42	C	1.700657	0.666666	0.959865
C43	C	0.890787	0.000000	0.289431
C44	C	1.224120	0.333334	0.622764
C45	C	1.557454	0.666667	0.956097
C46	C	1.475614	-0.656154	0.183409
C47	C	1.808948	-0.322820	0.516742
C48	C	2.142281	0.010513	0.850076
C49	C	1.475602	-0.544502	0.183406
C50	C	1.808935	-0.211169	0.516740
C51	C	2.142269	0.122164	0.850073
C52	C	1.475599	-0.455512	0.183398
C53	C	1.808933	-0.122178	0.516731
C54	C	2.142266	0.211155	0.850064
C55	C	1.475586	-0.343853	0.183393
C56	C	1.808919	-0.010520	0.516726
C57	C	2.142252	0.322813	0.850060
C58	C	1.703679	-0.000007	0.176243
C59	C	2.037013	0.333326	0.509577
C60	C	2.370346	0.666660	0.842910
C61	C	1.842234	-0.000002	0.179891
C62	C	2.175567	0.333332	0.513224
C63	C	2.508900	0.666665	0.846558
C64	C	1.482762	-0.000010	-0.044675
C65	C	1.816095	0.333323	0.288658
C66	C	2.149428	0.666656	0.621992
C67	C	1.479114	-0.000007	-0.183229
C68	C	1.812448	0.333326	0.150104
C69	C	2.145781	0.666660	0.483437
N70	N	1.475634	0.254848	0.183408
N71	N	1.808967	0.588182	0.516741
N72	N	2.142301	0.921515	0.850075
C73	C	1.477498	0.084735	-0.244990
C74	C	1.810832	0.418068	0.088344
C75	C	2.144165	0.751402	0.421677
C76	C	1.473729	0.084740	-0.388193
C77	C	1.807062	0.418074	-0.054859
C78	C	2.140395	0.751407	0.278474
C79	C	1.468445	-0.000002	0.411477
C80	C	1.801779	0.333331	0.744810
C81	C	2.135112	0.666665	1.078143
C82	C	1.472093	0.000001	0.550031
C83	C	1.805426	0.333335	0.883364
C84	C	2.138759	0.666668	1.216698
H85	H	1.075812	-0.000004	0.386984
H86	H	1.409146	0.333329	0.720318
H87	H	1.742479	0.666662	1.053651
H88	H	0.826354	0.000007	0.380421
H89	H	1.159688	0.333340	0.713755
H90	H	1.493021	0.666673	1.047088
C91	C	1.004910	0.084086	0.052185
C92	C	1.338243	0.417419	0.385518
C93	C	1.671577	0.750753	0.718851
C94	C	0.929201	-0.000004	0.057045
C95	C	1.262534	0.333329	0.390378
C96	C	1.595867	0.666662	0.723712
H97	H	1.058611	0.084079	-0.023652
H98	H	1.391944	0.417413	0.309681
H99	H	1.725277	0.750746	0.643015
H100	H	0.953553	0.141120	0.055500
H101	H	1.286886	0.474453	0.388833
H102	H	1.620219	0.807786	0.722166
H103	H	1.053928	0.084077	0.121403
H104	H	1.387261	0.417411	0.454736
H105	H	1.720594	0.750744	0.788069
H106	H	0.880176	0.000008	-0.012168
H107	H	1.213509	0.333341	0.321165
H108	H	1.546843	0.666675	0.654498
H109	H	0.980564	-0.057053	0.053718
H110	H	1.313897	0.276280	0.387051
H111	H	1.647231	0.609614	0.720384
H112	H	1.472345	0.157291	-0.441306
H113	H	1.805678	0.490625	-0.107973
H114	H	2.139012	0.823958	0.225361
H115	H	1.067152	0.000019	0.093125
H116	H	1.400485	0.333352	0.426458
H117	H	1.733818	0.666686	0.759792
C118	C	1.482815	0.163714	-0.045290
C119	C	1.816148	0.497048	0.288043
C120	C	2.149482	0.830381	0.621377
C121	C	1.479432	0.182677	-0.173267
C122	C	1.812765	0.516011	0.160066
C123	C	2.146099	0.849344	0.493400
H124	H	1.484026	0.224183	-0.001019
H125	H	1.817359	0.557516	0.332315
H126	H	2.150693	0.890850	0.665648
H127	H	1.410720	0.127078	-0.015123
H128	H	1.744053	0.460411	0.318211
H129	H	2.077386	0.793745	0.651544
H130	H	1.556009	0.127034	-0.032936
H131	H	1.889342	0.460367	0.300397
H132	H	2.222675	0.793700	0.633730
H133	H	1.406233	0.219352	-0.185621
H134	H	1.739567	0.552685	0.147712
H135	H	2.072900	0.886019	0.481045
H136	H	1.551535	0.219329	-0.203444
H137	H	1.884868	0.552663	0.129890
H138	H	2.218201	0.885996	0.463223
C139	C	1.368843	-0.103317	-0.290318
C140	C	1.702176	0.230017	0.043015
C141	C	2.035510	0.563350	0.376348
C142	C	1.473963	-0.097950	-0.378286
C143	C	1.807296	0.235384	-0.044952
C144	C	2.140629	0.568717	0.288381
H145	H	1.369996	-0.163790	-0.246063
H146	H	1.703329	0.169543	0.087270
H147	H	2.036662	0.502876	0.420603
H148	H	1.370371	-0.050160	-0.233007
H149	H	1.703704	0.283174	0.100326
H150	H	2.037037	0.616507	0.433659
H151	H	1.294871	-0.099657	-0.332232
H152	H	1.628204	0.233677	0.001101
H153	H	1.961538	0.567010	0.334435
H154	H	1.547935	-0.101602	-0.336371
H155	H	1.881269	0.231731	-0.003038
H156	H	2.214602	0.565064	0.330296
H157	H	1.472446	-0.151122	-0.435605
H158	H	1.805780	0.182212	-0.102271
H159	H	2.139113	0.515545	0.231062
H160	H	1.477699	-0.072554	-0.236370
H161	H	1.811033	0.260779	0.096963
H162	H	2.144366	0.594113	0.430296
