data_functionalizedCrystal
_audit_creation_method	'MofGen! by Chris Wilmer'
_symmetry_space_group_name_H-M	'P1'
_symmetry_Int_Tables_number	1
_symmetry_cell_setting	triclinic
loop_
_symmetry_equiv_pos_as_xyz
  x,y,z
_cell_length_a	14.044220
_cell_length_b	14.044220
_cell_length_c	10.065875
_cell_angle_alpha	99.592716
_cell_angle_beta	80.449472
_cell_angle_gamma	93.188878
loop_
_atom_site_label
_atom_site_type_symbol
_atom_site_fract_x
_atom_site_fract_y
_atom_site_fract_z
O1	O	1.289934	0.217331	-0.113352
O2	O	1.789934	0.717331	0.386648
O3	O	1.013266	0.209022	-0.113386
O4	O	1.513266	0.709022	0.386614
O5	O	1.147446	0.074842	-0.113356
O6	O	1.647446	0.574842	0.386644
O7	O	1.155755	0.351511	-0.113382
O8	O	1.655755	0.851511	0.386618
O9	O	1.121869	0.100541	0.113627
O10	O	1.621869	0.600541	0.613627
O11	O	0.987690	0.234720	0.113597
O12	O	1.487690	0.734720	0.613597
O13	O	1.264357	0.243030	0.113631
O14	O	1.764357	0.743030	0.613631
Zn15	Zn	1.121963	0.242955	0.149653
Zn16	Zn	1.621963	0.742955	0.649653
Zn17	Zn	1.155661	0.209096	-0.149407
Zn18	Zn	1.655661	0.709096	0.350593
O19	O	1.130178	0.377209	0.113601
O20	O	1.630178	0.877209	0.613601
C21	C	0.964857	0.218235	0.000101
C22	C	1.464857	0.718235	0.500101
C23	C	0.858715	0.207389	0.000088
C24	C	1.358715	0.707389	0.500088
C25	C	1.131022	0.052070	0.000136
C26	C	1.631022	0.552070	0.500136
C27	C	1.120177	-0.054073	0.000136
C28	C	1.620177	0.445927	0.500136
C29	C	1.100354	-0.248413	0.000114
C30	C	1.600354	0.251587	0.500114
C31	C	1.177267	-0.299543	0.000119
C32	C	1.677267	0.200457	0.500119
C33	C	1.166237	-0.407680	0.000107
C34	C	1.666237	0.092320	0.500107
C35	C	1.111382	-0.140266	0.000126
C36	C	1.611382	0.359734	0.500126
C37	C	0.664374	0.187566	0.000117
C38	C	1.164374	0.687566	0.500117
C39	C	0.613245	0.264480	0.000116
C40	C	1.113245	0.764480	0.500116
C41	C	0.505107	0.253450	0.000132
C42	C	1.005107	0.753450	0.500132
C43	C	0.772522	0.198594	0.000101
C44	C	1.272522	0.698594	0.500101
C45	C	1.312767	0.233816	0.000141
C46	C	1.812767	0.733816	0.500141
C47	C	1.418910	0.244661	0.000145
C48	C	1.918910	0.744661	0.500145
C49	C	1.146602	0.399982	0.000107
C50	C	1.646602	0.899982	0.500107
C51	C	1.157448	0.506123	0.000097
C52	C	1.657448	1.006123	0.500097
N53	N	1.098971	0.266063	0.353753
N54	N	1.598971	0.766063	0.853753
N55	N	1.178659	0.185982	-0.353508
N56	N	1.678659	0.685982	0.146492
C57	C	1.147655	0.217130	0.421543
C58	C	1.647655	0.717130	0.921543
C59	C	1.129968	0.234922	0.578706
C60	C	1.629968	0.734922	1.078706
H61	H	1.026227	-0.285852	0.000101
H62	H	1.526227	0.214148	0.500101
H63	H	1.044193	0.321125	0.412067
H64	H	1.544193	0.821125	0.912067
H65	H	1.251410	-0.262113	0.000037
H66	H	1.751410	0.237887	0.500037
O67	O	0.619701	0.099123	-0.000120
O68	O	1.119701	0.599123	0.499880
C69	C	0.524788	-0.025325	-0.117670
C70	C	1.024788	0.474675	0.382330
C71	C	0.575372	0.074833	-0.117579
C72	C	1.075372	0.574833	0.382421
H73	H	0.488918	-0.044985	-0.212611
H74	H	0.988918	0.455015	0.287389
H75	H	0.580307	-0.081558	-0.117766
H76	H	1.080307	0.418442	0.382234
H77	H	0.467629	-0.023549	-0.022631
H78	H	0.967629	0.476451	0.477369
H79	H	0.632526	0.073152	-0.212602
H80	H	1.132526	0.573152	0.287398
H81	H	0.519795	0.131025	-0.117412
H82	H	1.019795	0.631025	0.382588
H83	H	0.650685	0.338612	0.000102
H84	H	1.150685	0.838612	0.500102
H85	H	1.202426	0.162060	0.363231
H86	H	1.702426	0.662060	0.863231
H87	H	1.075187	0.289988	0.637015
H88	H	1.575187	0.789988	1.137015
O89	O	1.243816	0.120160	0.576733
O90	O	1.743816	0.620160	1.076733
C91	C	1.320509	0.042073	0.356485
C92	C	1.820509	0.542073	0.856485
C93	C	1.246835	0.116782	0.435316
C94	C	1.746835	0.616782	0.935316
H95	H	1.322959	0.039303	0.242136
H96	H	1.822959	0.539303	0.742136
H97	H	1.395071	0.063680	0.384180
H98	H	1.895071	0.563680	0.884180
H99	H	1.297986	-0.032129	0.384795
H100	H	1.797986	0.467871	0.884795
H101	H	1.269268	0.191010	0.407048
H102	H	1.769268	0.691010	0.907048
H103	H	1.172290	0.095093	0.407614
H104	H	1.672290	0.595093	0.907614
