data_functionalizedCrystal
_audit_creation_method	'MofGen! by Chris Wilmer'
_symmetry_space_group_name_H-M	'P1'
_symmetry_Int_Tables_number	1
_symmetry_cell_setting	triclinic
loop_
_symmetry_equiv_pos_as_xyz
  x,y,z
_cell_length_a	14.628931
_cell_length_b	21.606444
_cell_length_c	21.606444
_cell_angle_alpha	119.998708
_cell_angle_beta	89.998390
_cell_angle_gamma	59.998844
loop_
_atom_site_label
_atom_site_type_symbol
_atom_site_fract_x
_atom_site_fract_y
_atom_site_fract_z
Zr1	Zr	0.880603	0.677449	0.081200
O2	O	0.734632	0.806572	0.180023
O3	O	0.925352	0.548330	0.050908
O4	O	0.925340	0.677453	0.180027
O5	O	0.734651	0.677444	-0.050950
O6	O	1.075772	0.677453	0.180027
O7	O	0.734644	0.677448	0.050904
O8	O	1.075793	0.446474	-0.050943
O9	O	0.734631	0.908423	0.180019
O10	O	1.056701	0.601437	0.037986
O11	O	0.944440	0.601434	-0.038027
O12	O	0.944427	0.753461	0.113993
O13	O	0.832167	0.753458	0.037981
Zr14	Zr	1.120536	0.677442	-0.081246
Zr15	Zr	1.120524	0.677449	0.081200
Zr16	Zr	0.880614	0.677442	-0.081246
Zr17	Zr	0.880600	0.839890	0.081195
Zr18	Zr	1.120539	0.515002	-0.081241
O19	O	1.075787	0.806562	-0.050954
O20	O	1.075770	0.806572	0.180022
O21	O	0.734649	0.806562	-0.050954
O22	O	1.266507	0.548319	-0.180069
O23	O	1.266490	0.548329	0.050908
O24	O	0.925369	0.548320	-0.180068
O25	O	1.266488	0.677447	0.050904
O26	O	1.075799	0.677438	-0.180073
O27	O	0.925367	0.677438	-0.180072
O28	O	1.266495	0.677443	-0.050950
O29	O	0.925337	0.908423	0.180019
O30	O	1.075802	0.446469	-0.180065
O31	O	1.266508	0.446468	-0.180065
O32	O	1.266499	0.446474	-0.050943
O33	O	0.734640	0.908417	0.050897
O34	O	0.925346	0.908417	0.050897
O35	O	1.056712	0.601430	-0.114039
O36	O	1.168972	0.601434	-0.038027
O37	O	1.056698	0.753457	0.037981
O38	O	0.944438	0.753454	-0.038032
C39	C	1.000573	0.474258	-0.000016
C40	C	1.000574	0.405297	-0.000014
C41	C	1.059170	0.372901	0.039665
C42	C	1.059174	0.308101	0.039660
C43	C	1.000574	0.275703	-0.000020
C44	C	0.941976	0.308102	-0.039704
C45	C	0.941980	0.372896	-0.039703
C46	C	0.941963	0.046792	-0.039710
C47	C	0.941962	-0.018005	-0.039707
C48	C	1.059157	-0.018002	0.039652
C49	C	1.059161	0.046792	0.039653
C50	C	1.000568	0.079182	-0.000033
C51	C	1.000566	0.149444	-0.000029
C52	C	1.000569	0.205446	-0.000021
C53	C	0.700464	0.677446	-0.000023
C54	C	0.598611	0.677446	-0.000023
C55	C	0.608897	0.602032	-0.037728
C56	C	0.503627	0.602031	-0.037728
C57	C	1.300675	0.677445	-0.000023
C58	C	1.402528	0.677445	-0.000023
C59	C	1.000555	0.677454	0.203172
C60	C	1.000549	0.677457	0.272134
C61	C	1.000566	0.880634	-0.000030
C62	C	1.000565	0.949594	-0.000032
C63	C	0.941943	0.756811	0.344208
C64	C	0.941953	0.756809	0.409003
C65	C	1.000563	0.677452	0.401722
C66	C	1.059177	0.598091	0.329641
C67	C	1.059173	0.598095	0.264847
C68	C	1.059195	0.598076	0.590944
C69	C	1.059191	0.598079	0.655744
C70	C	0.941975	0.756791	0.735099
C71	C	0.941971	0.756794	0.670306
C72	C	1.000589	0.677434	0.598230
C73	C	1.000580	0.677438	0.527973
C74	C	1.000567	0.677447	0.471978
C75	C	1.000585	0.677437	0.796782
C76	C	1.000591	0.677434	0.727820
C77	C	1.300678	0.474257	-0.000017
C78	C	1.402532	0.405297	-0.000015
C79	C	1.000587	0.474249	-0.203211
C80	C	1.000594	0.405286	-0.272171
C81	C	1.300693	0.474248	-0.203211
C82	C	1.402552	0.405285	-0.272172
C83	C	0.700446	0.880643	0.203165
C84	C	0.598586	0.949606	0.272126
C85	C	0.700461	0.880634	-0.000029
C86	C	0.598606	0.949595	-0.000031
C87	C	1.000551	0.880642	0.203165
C88	C	1.000545	0.949605	0.272125
C89	C	1.391760	0.372914	0.039671
C90	C	1.487453	0.308127	0.039688
C91	C	1.593919	0.275720	0.000015
C92	C	1.604689	0.308109	-0.039672
C93	C	1.508997	0.372899	-0.039684
C94	C	1.059201	0.372898	-0.344240
C95	C	1.059202	0.308109	-0.409042
C96	C	1.000602	0.275704	-0.401773
C97	C	0.941988	0.308098	-0.329696
C98	C	0.941980	0.372891	-0.264896
C99	C	1.508995	0.372901	-0.264878
C100	C	1.604712	0.308111	-0.329668
C101	C	1.593983	0.275703	-0.401749
C102	C	1.487529	0.308094	-0.409041
C103	C	1.391815	0.372886	-0.344253
C104	C	0.492144	0.981998	0.264832
C105	C	0.396427	1.046808	0.329622
C106	C	0.407155	1.079220	0.401703
C107	C	0.513610	1.046825	0.408995
C108	C	0.609324	0.982021	0.344207
C109	C	0.609379	0.981984	-0.039710
C110	C	0.513685	1.046789	-0.039710
C111	C	0.407220	1.079198	-0.000034
C112	C	0.396450	1.046806	0.039650
C113	C	0.492142	0.982007	0.039653
C114	C	1.059157	0.981990	0.264832
C115	C	1.059173	1.046779	0.329621
C116	C	1.000570	1.079188	0.401703
C117	C	0.941957	1.046797	0.408995
C118	C	0.941948	0.982004	0.344206
H119	H	1.106871	-0.044384	0.071965
H120	H	0.894209	0.821434	0.350145
H121	H	0.511871	0.742010	0.032256
Cl122	Cl	1.257929	0.413644	0.089556
H123	H	1.106937	0.281741	-0.467723
H124	H	0.894259	0.399252	-0.206217
Cl125	Cl	0.868286	0.856559	0.825713
Cl126	Cl	1.132881	0.413620	-0.353399
Cl127	Cl	0.868270	0.856573	0.499610
H128	H	0.894277	0.281705	-0.323789
H129	H	1.691386	0.281714	-0.071972
Cl130	Cl	1.000625	0.194248	-0.483244
H131	H	0.894270	0.281714	-0.072017
H132	H	0.483387	0.955612	0.206146
Cl133	Cl	1.132815	0.267395	0.089562
Cl134	Cl	1.522512	0.413635	-0.174269
Cl135	Cl	0.868271	0.856561	0.679464
Cl136	Cl	1.132826	0.087522	0.089542
H137	H	0.512259	0.537466	-0.070004
H138	H	0.522477	1.073151	-0.072028
Cl139	Cl	1.522559	0.413595	-0.089586
H140	H	1.106922	0.533452	0.649808
H141	H	1.671829	0.222963	0.000030
Cl142	Cl	1.738526	0.267401	-0.320483
Cl143	Cl	1.714323	0.194247	-0.483192
Cl144	Cl	0.389183	0.777137	0.049825
Cl145	Cl	0.868290	-0.058735	-0.089595
H146	H	1.478810	0.281697	-0.467739
Cl147	Cl	0.868245	0.941309	0.353389
Cl148	Cl	1.258005	0.413585	-0.353435
H149	H	0.309757	1.073173	0.323670
H150	H	1.106926	0.533456	0.532265
H151	H	0.894258	0.073153	-0.072029
H152	H	1.106882	0.399280	0.071980
H153	H	0.894261	0.399274	-0.072011
H154	H	0.329209	1.131987	0.454452
H155	H	1.106901	1.073145	0.323669
Cl156	Cl	0.527078	1.087577	0.499618
H157	H	0.695992	0.955648	0.350154
H158	H	0.696060	0.955601	-0.072024
Cl159	Cl	0.286930	1.160659	-0.000048
H160	H	0.309753	1.073204	0.071953
Cl161	Cl	0.478580	0.941291	0.089535
H162	H	0.695637	0.537469	-0.070011
Cl163	Cl	1.132840	0.941260	0.174222
H164	H	1.106904	0.533477	0.323717
H165	H	1.478662	0.281764	0.072006
H166	H	1.000586	1.131947	0.454452
H167	H	1.106896	0.533476	0.206161
H168	H	0.894244	1.073194	0.467692
