data_functionalizedCrystal
_audit_creation_method	'MofGen! by Chris Wilmer'
_symmetry_space_group_name_H-M	'P1'
_symmetry_Int_Tables_number	1
_symmetry_cell_setting	triclinic
loop_
_symmetry_equiv_pos_as_xyz
  x,y,z
_cell_length_a	19.288840
_cell_length_b	14.519731
_cell_length_c	18.366186
_cell_angle_alpha	89.992785
_cell_angle_beta	89.983729
_cell_angle_gamma	83.407434
loop_
_atom_site_label
_atom_site_type_symbol
_atom_site_fract_x
_atom_site_fract_y
_atom_site_fract_z
O1	O	0.921784	0.114934	-0.060673
O2	O	0.719578	0.130477	-0.060648
O3	O	0.826034	-0.011566	-0.060654
O4	O	0.815327	0.256977	-0.060666
O5	O	0.826016	-0.011573	0.060445
O6	O	0.719560	0.130470	0.060451
O7	O	0.921766	0.114927	0.060426
Zn8	Zn	0.820660	0.122697	0.079666
Zn9	Zn	0.820684	0.122706	-0.079888
O10	O	0.815309	0.256970	0.060433
C11	C	0.693690	0.129977	-0.000095
C12	C	0.616580	0.128487	-0.000085
C13	C	0.580384	0.127776	-0.066098
C14	C	0.507932	0.126366	-0.066107
C15	C	0.471681	0.125649	-0.000099
C16	C	0.507885	0.126366	0.065923
C17	C	0.580335	0.127785	0.065930
C18	C	0.362140	0.069381	0.050465
C19	C	0.289692	0.067956	0.050455
C20	C	0.248221	0.121275	-0.000118
C21	C	0.279208	0.176008	-0.050693
C22	C	0.351658	0.177427	-0.050686
C23	C	0.393121	0.124110	-0.000099
C24	C	0.133464	0.119036	-0.066145
C25	C	0.061010	0.117631	-0.066151
C26	C	0.060965	0.117623	0.065880
C27	C	0.133417	0.119036	0.065885
C28	C	0.169662	0.119738	-0.000130
C29	C	0.825524	-0.045926	-0.000105
C30	C	0.824020	-0.148297	-0.000104
C31	C	0.822799	-0.231433	-0.000105
C32	C	0.821272	-0.335732	-0.000111
C33	C	0.820061	-0.418863	-0.000115
C34	C	0.818535	-0.523168	-0.000119
C35	C	0.947654	0.115426	-0.000128
C36	C	1.024764	0.116916	-0.000143
C37	C	0.815820	0.291330	-0.000118
C38	C	0.817323	0.393700	-0.000124
N39	N	0.820649	0.122690	0.188557
N40	N	0.820701	0.122706	-0.188779
C41	C	0.867803	0.059824	0.226655
C42	C	0.867808	0.059820	0.302883
C43	C	0.820664	0.122698	0.341010
C44	C	0.773501	0.185569	0.302903
C45	C	0.773493	0.185565	0.226677
C46	C	0.811673	0.206727	0.461767
C47	C	0.811686	0.206732	0.537992
C48	C	0.820684	0.122710	0.576118
C49	C	0.829684	0.038679	0.538008
C50	C	0.829677	0.038675	0.461782
C51	C	0.820667	0.122709	0.423665
C52	C	0.867846	0.059834	0.696870
C53	C	0.867845	0.059829	0.773099
C54	C	0.773542	0.185585	0.773118
C55	C	0.773539	0.185582	0.696891
C56	C	0.820695	0.122708	0.658771
H57	H	0.245443	0.219430	-0.091872
N58	N	0.918678	-0.007996	0.655737
H59	H	0.949475	0.027126	0.624088
H60	H	0.948503	-0.047826	0.691478
H61	H	0.162975	0.119617	-0.119898
H62	H	0.478365	0.125785	0.119667
N63	N	0.801975	0.297360	0.579090
H64	H	0.758987	0.299516	0.610735
H65	H	0.844202	0.302641	0.610656
H66	H	0.609805	0.128366	0.119687
H67	H	0.478455	0.125787	-0.119865
H68	H	0.906242	0.008631	0.804119
N69	N	0.722687	0.253398	0.814230
H70	H	0.729845	0.243861	0.868301
H71	H	0.730790	0.318795	0.800896
H72	H	0.804333	0.275152	0.430732
H73	H	0.162889	0.119610	0.119640
H74	H	0.735115	0.236764	0.333950
H75	H	0.735144	0.236778	0.665870
N76	N	0.021965	0.116866	-0.137355
H77	H	0.055924	0.117523	-0.179170
H78	H	-0.002530	0.059120	-0.140224
H79	H	0.264468	0.023385	0.091633
H80	H	0.031450	0.117045	0.119625
N81	N	0.406864	0.011864	0.105014
H82	H	0.457462	0.021070	0.097347
H83	H	0.392215	0.031808	0.155951
N84	N	0.619477	0.128529	-0.137297
H85	H	0.585549	0.127863	-0.179117
H86	H	0.643975	0.186274	-0.140178
N87	N	0.385082	0.236453	-0.105231
H88	H	0.347822	0.270017	-0.137273
H89	H	0.410641	0.283178	-0.078575
H90	H	0.735093	0.236759	0.195657
N91	N	0.839407	-0.051956	0.579113
H92	H	0.800758	-0.090285	0.565866
H93	H	0.885957	-0.087015	0.565806
H94	H	0.906208	0.008625	0.333907
N95	N	0.918659	-0.007990	0.185540
H96	H	0.948532	-0.047817	0.221246
H97	H	0.892015	-0.048672	0.153931
N98	N	0.839381	-0.051949	0.420677
H99	H	0.845084	-0.105180	0.456390
H100	H	0.797176	-0.057185	0.389069
