data_functionalizedCrystal
_audit_creation_method	'MofGen! by Chris Wilmer'
_symmetry_space_group_name_H-M	'P1'
_symmetry_Int_Tables_number	1
_symmetry_cell_setting	triclinic
loop_
_symmetry_equiv_pos_as_xyz
  x,y,z
_cell_length_a	6.394989
_cell_length_b	16.992694
_cell_length_c	16.053802
_cell_angle_alpha	92.750953
_cell_angle_beta	87.356563
_cell_angle_gamma	88.582967
loop_
_atom_site_label
_atom_site_type_symbol
_atom_site_fract_x
_atom_site_fract_y
_atom_site_fract_z
O1	O	-0.435392	-1.047996	-0.069315
O2	O	-0.430522	-0.819664	-0.069340
O3	O	-0.129434	-0.937071	-0.069328
O4	O	-0.736480	-0.930589	-0.069327
O5	O	-0.145934	-0.930608	0.069530
O6	O	-0.447022	-0.813201	0.069518
O7	O	-0.451892	-1.041533	0.069543
Zn8	Zn	-0.452077	-0.926341	0.091577
Zn9	Zn	-0.430337	-0.934856	-0.091374
O10	O	-0.752980	-0.924126	0.069531
C11	C	-0.432511	-0.787158	0.000086
C12	C	-0.413828	-0.699930	0.000076
C13	C	-0.449903	-1.074039	0.000115
C14	C	-0.468585	-1.161268	0.000119
N15	N	-0.466913	-0.920535	0.216437
C16	C	-0.059648	-0.932558	0.000098
C17	C	0.177241	-0.928641	0.000097
N18	N	-0.415486	-0.940668	-0.216234
C19	C	-0.594076	-0.651471	0.000077
C20	C	-0.576512	-0.569510	0.000089
C21	C	-0.378698	-0.536010	0.000093
C22	C	-0.198436	-0.584476	0.000095
C23	C	-0.216003	-0.666435	0.000089
C24	C	-0.305891	-0.291692	0.000116
C25	C	-0.288337	-0.209727	0.000119
C26	C	-0.666415	-0.194766	0.000114
C27	C	-0.683964	-0.276728	0.000103
C28	C	-0.503703	-0.325186	0.000109
N29	N	-0.360739	-0.452234	0.000102
N30	N	-0.521664	-0.408961	0.000106
C31	C	-0.338851	-0.970511	0.260136
C32	C	-0.349250	-0.966457	0.347542
C33	C	-0.487723	-0.912431	0.391248
C34	C	-0.615790	-0.862449	0.347543
C35	C	-0.605379	-0.866500	0.260138
C36	C	-0.533141	-0.894737	0.652656
C37	C	-0.543548	-0.890692	0.740067
C38	C	-0.277004	-0.994700	0.740060
C39	C	-0.266614	-0.998749	0.652654
C40	C	-0.394673	-0.948764	0.608956
N41	N	-0.498361	-0.908288	0.480591
N42	N	-0.384023	-0.952904	0.519615
H43	H	-0.723290	-0.530057	0.000088
H44	H	-0.153858	-1.042741	0.617070
H45	H	-0.037372	-0.557194	0.000111
H46	H	-0.226101	-1.014509	0.224557
H47	H	-0.813173	-0.155303	0.000110
O48	O	-0.786401	-0.683878	0.000108
C49	C	-0.941721	-0.623528	0.000092
H50	H	-0.876901	-0.566080	0.026385
H51	H	-1.083799	-0.640104	0.040404
H52	H	-0.990059	-0.615600	-0.066525
O53	O	-0.876288	-0.309136	0.000140
C54	C	-1.031617	-0.248789	0.000123
H55	H	-0.966806	-0.191339	0.026416
H56	H	-1.173692	-0.265368	0.040436
H57	H	-1.079956	-0.240863	-0.066494
O58	O	-0.152684	-1.043165	0.782638
C59	C	-0.191594	-1.028022	0.869156
H60	H	-0.260698	-0.965801	0.881100
H61	H	-0.038574	-1.033657	0.902378
H62	H	-0.306967	-1.072363	0.893949
O63	O	-0.677775	-0.838166	0.782620
C64	C	-0.563558	-0.786265	0.833179
H65	H	-0.406672	-0.815331	0.846266
H66	H	-0.656099	-0.771860	0.894644
H67	H	-0.535547	-0.729637	0.799511
H68	H	-0.127244	-0.182455	0.000122
O69	O	-0.657251	-0.846118	0.610174
C70	C	-0.531044	-0.798913	0.559607
H71	H	-0.368957	-0.794727	0.585953
H72	H	-0.605797	-0.737381	0.558617
H73	H	-0.516323	-0.826457	0.493363
H74	H	-0.069225	-0.705890	0.000088
O75	O	-0.130707	-0.338728	-0.000032
C76	C	-0.002848	-0.326571	-0.071937
H77	H	-0.102660	-0.302002	-0.122202
H78	H	0.074238	-0.384982	-0.096077
H79	H	0.123268	-0.282901	-0.055676
O80	O	-0.224795	-1.015094	0.389862
C81	C	-0.100328	-1.063642	0.332544
H82	H	-0.178833	-1.068251	0.270233
H83	H	-0.082025	-1.124880	0.357787
H84	H	0.060519	-1.037053	0.323262
O85	O	-0.750253	-0.810036	0.390125
C86	C	-0.731953	-0.817165	0.476642
H87	H	-0.665698	-0.878280	0.488575
H88	H	-0.892885	-0.808451	0.509853
H89	H	-0.622484	-0.770528	0.501459
O90	O	-0.729996	-0.817922	0.217815
C91	C	-0.854415	-0.769354	0.275131
H92	H	-0.869630	-0.798690	0.337432
H93	H	-1.016473	-0.760190	0.249870
H94	H	-0.777755	-0.709912	0.284439
