data_functionalizedCrystal
_audit_creation_method	'MofGen! by Chris Wilmer'
_symmetry_space_group_name_H-M	'P1'
_symmetry_Int_Tables_number	1
_symmetry_cell_setting	triclinic
loop_
_symmetry_equiv_pos_as_xyz
  x,y,z
_cell_length_a	14.446369
_cell_length_b	17.052862
_cell_length_c	17.052832
_cell_angle_alpha	78.839794
_cell_angle_beta	67.550350
_cell_angle_gamma	90.000989
loop_
_atom_site_label
_atom_site_type_symbol
_atom_site_fract_x
_atom_site_fract_y
_atom_site_fract_z
Zr1	Zr	-0.036641	0.846797	0.935730
O2	O	-0.188532	0.882541	0.944794
O3	O	0.021991	0.730186	0.906177
O4	O	-0.139640	0.757483	1.050546
O5	O	0.086867	0.953895	0.717001
O6	O	-0.114802	0.779020	1.164422
O7	O	-0.026901	0.855243	0.800425
O8	O	0.174326	0.730190	0.906172
O9	O	-0.202261	1.002725	0.975251
O10	O	0.050951	0.824173	1.010905
O11	O	0.117319	0.881723	0.863663
O12	O	-0.072981	0.913862	1.033639
O13	O	-0.006613	0.971412	0.886396
Zr14	Zr	0.184419	1.038483	0.984298
Zr15	Zr	0.002972	0.881145	1.117349
Zr16	Zr	0.144806	1.004135	0.802678
Zr17	Zr	-0.058538	1.038477	0.984306
Zr18	Zr	0.206316	0.846803	0.935722
O19	O	0.125788	1.155095	1.013851
O20	O	-0.132207	0.931380	1.203033
O21	O	0.069462	1.106255	0.755612
O22	O	0.336311	1.002739	0.975234
O23	O	0.078316	0.779025	1.164416
O24	O	0.279985	0.953900	0.716994
O25	O	0.060912	0.931385	1.203027
O26	O	0.287418	1.127797	0.869482
O27	O	0.262580	1.106260	0.755606
O28	O	0.174680	1.030037	1.119603
O29	O	-0.170774	1.030028	1.119614
O30	O	0.318552	0.855252	0.800413
O31	O	0.350040	0.882555	0.944777
O32	O	0.205814	0.757492	1.050535
O33	O	-0.058035	1.127788	0.869493
O34	O	-0.026548	1.155091	1.013856
O35	O	0.220759	0.971418	0.886389
O36	O	0.154391	0.913868	1.033632
O37	O	0.030460	1.003557	1.056365
O38	O	0.096827	1.061107	0.909122
C39	C	0.101278	0.702877	0.899253
C40	C	0.110574	0.621504	0.878632
C41	C	-0.230013	0.942632	0.960024
C42	C	-0.333155	0.942629	0.960027
C43	C	-0.001810	0.271961	1.127947
C44	C	-0.010550	0.348414	1.147325
C45	C	0.019730	0.416690	1.080154
C46	C	0.058752	0.408506	0.993601
C47	C	0.067486	0.332045	0.974221
C48	C	0.089026	0.476774	0.926427
C49	C	0.128048	0.468590	0.839874
C50	C	0.136781	0.392136	0.820498
C51	C	0.106500	0.323860	0.887670
C52	C	0.080292	0.553235	0.945807
C53	C	0.149588	0.613319	0.792081
C54	C	0.158328	0.536866	0.772703
C55	C	-0.521714	0.906619	1.052955
C56	C	-0.414430	0.906314	1.052946
C57	C	-0.343382	0.891298	0.896322
C58	C	-0.450956	0.891016	0.896899
C59	C	-0.465980	1.029893	0.929991
C60	C	-0.359552	1.030119	0.931972
C61	C	0.377791	0.942648	0.960004
C62	C	0.480933	0.942651	0.960001
C63	C	0.024338	0.899675	0.732836
C64	C	0.007521	0.885093	0.655734
C65	C	0.046500	1.182403	1.020774
C66	C	0.037205	1.263776	1.041396
C67	C	0.210839	1.061387	0.254553
C68	C	0.226645	1.075085	0.326993
C69	C	0.171865	1.027589	0.409181
C70	C	0.101277	0.966391	0.418924
C71	C	0.085475	0.952687	0.346476
C72	C	0.046501	0.918889	0.501104
C73	C	-0.024087	0.857691	0.510847
C74	C	-0.039887	0.843991	0.438405
C75	C	0.014893	0.891487	0.356217
C76	C	0.062304	0.932593	0.573551
C77	C	-0.063060	0.823893	0.665474
C78	C	-0.078867	0.810195	0.593035
C79	C	0.123440	0.985605	1.187192
C80	C	0.140257	1.000187	1.264294
C81	C	-0.153073	0.745834	1.126441
C82	C	-0.230102	0.679040	1.182925
C83	C	0.150829	0.745842	1.126431
C84	C	0.176941	0.679051	1.182912
C85	C	0.328241	0.899683	0.732826
C86	C	0.414565	0.885104	0.655721
C87	C	-0.003050	1.139438	0.793596
C88	C	-0.029163	1.206229	0.737116
C89	C	0.300852	1.139446	0.793587
C90	C	0.377881	1.206240	0.737103
C91	C	-0.180462	0.985597	1.187202
C92	C	-0.266787	1.000176	1.264307
C93	C	-0.330976	0.694491	1.221325
C94	C	-0.403360	0.631740	1.274410
C95	C	-0.374871	0.553538	1.289089
C96	C	-0.273987	0.538088	1.250686
C97	C	-0.201603	0.600839	1.197607
C98	C	0.135202	0.600858	1.197578
C99	C	0.159718	0.538095	1.250656
C100	C	0.225979	0.553525	1.289061
C101	C	0.267719	0.631726	1.274394
C102	C	0.243197	0.694489	1.221322
C103	C	0.509106	0.925084	0.631368
C104	C	0.590223	0.911402	0.558914
C105	C	0.576797	0.857734	0.510817
C106	C	0.482245	0.817753	0.535172
C107	C	0.401130	0.831441	0.607621
C108	C	0.012568	1.284423	0.722457
C109	C	-0.011970	1.347190	0.669399
C110	C	-0.078234	1.331761	0.630997
C111	C	-0.119970	1.253559	0.645661
C112	C	-0.095437	1.190795	0.698722
C113	C	0.349361	1.284431	0.722438
C114	C	0.421725	1.347196	0.669357
C115	C	0.522610	1.331771	0.630947
C116	C	0.551130	1.253571	0.645612
C117	C	0.478765	1.190807	0.698687
C118	C	-0.253330	1.053844	1.312387
C119	C	-0.334429	1.067542	1.384845
C120	C	-0.428987	1.027575	1.409217
C121	C	-0.442442	0.973900	1.361133
C122	C	-0.361341	0.960199	1.288681
H123	H	0.012612	0.478940	1.095936
H124	H	-0.042322	0.355075	1.217796
C125	C	0.113809	0.452081	1.266775
H126	H	0.137889	0.416907	1.303890
H127	H	0.132548	0.435546	1.213061
H128	H	0.042661	0.450724	1.293333
H129	H	0.081237	0.588281	1.166323
H130	H	0.642855	0.846597	0.451825
H131	H	-0.355123	1.068286	0.978610
H132	H	-0.323455	1.111251	1.423984
C133	C	-0.192850	1.236595	0.603407
H134	H	-0.201467	1.285177	0.569700
H135	H	-0.255958	1.214660	0.647354
H136	H	-0.166068	1.199491	0.567080
H137	H	0.502002	1.127142	0.710625
C138	C	-0.123322	0.771645	0.755875
H139	H	-0.103809	0.788576	0.797625
H140	H	-0.110282	0.717117	0.755300
H141	H	-0.193055	0.777025	0.770479
C142	C	-0.362330	0.780508	1.205199
H143	H	-0.432774	0.780714	1.235686
H144	H	-0.345550	0.799356	1.144857
H145	H	-0.328024	0.814520	1.225131
H146	H	-0.176343	1.086396	1.292553
H147	H	0.398485	1.410864	0.657428
C148	C	0.340612	0.648688	1.316635
H149	H	0.349241	0.600104	1.350332
H150	H	0.313860	0.685800	1.352953
H151	H	0.403721	0.670610	1.272670
H152	H	0.284119	1.124912	0.319057
C153	C	0.252954	0.484480	1.347429
H154	H	0.218609	0.435702	1.350652
H155	H	0.233515	0.495152	1.403957
H156	H	0.323385	0.479979	1.323672
C157	C	0.523887	0.984122	0.684263
H158	H	0.462045	0.986550	0.730907
H159	H	0.545768	1.035882	0.647862
H160	H	0.572965	0.966347	0.706664
H161	H	-0.519441	0.941363	1.380989
H162	H	0.581524	1.382885	0.587731
H163	H	-0.410095	0.941887	1.101739
C164	C	-0.376157	0.901177	1.235785
H165	H	-0.314319	0.898734	1.189142
H166	H	-0.425236	0.918965	1.213398
H167	H	-0.398045	0.849412	1.272184
C168	C	-0.518190	1.042659	1.488910
H169	H	-0.496626	1.080354	1.514044
H170	H	-0.542898	0.993704	1.530328
H171	H	-0.570073	1.063244	1.471516
C172	C	0.037379	0.562235	1.041006
H173	H	0.036505	0.617547	1.042932
H174	H	0.078262	0.537359	1.069411
H175	H	-0.029121	0.537361	1.069408
C176	C	-0.141334	1.104782	0.714829
H177	H	-0.184301	1.104588	0.684348
H178	H	-0.178947	1.085926	0.775171
H179	H	-0.089064	1.070770	0.694884
H180	H	0.324154	0.798877	0.627444
C181	C	0.467494	0.758714	0.482267
H182	H	0.529352	0.756286	0.435641
H183	H	0.418424	0.776471	0.459857
H184	H	0.445623	0.706948	0.518670
H185	H	0.190099	0.530191	0.702231
H186	H	-0.026468	0.216368	1.182631
C187	C	0.085460	1.301411	0.764690
H188	H	0.106784	1.356975	0.748360
H189	H	0.142215	1.271292	0.745746
H190	H	0.052336	1.286464	0.826026
C191	C	0.694220	0.955378	0.532143
H192	H	0.690595	0.989287	0.571177
H193	H	0.714522	0.986760	0.474979
H194	H	0.741700	0.917209	0.533777
H195	H	0.022025	1.410860	0.657467
C196	C	-0.105209	1.400806	0.572628
H197	H	-0.070853	1.449582	0.569396
H198	H	-0.175635	1.405308	0.596372
H199	H	-0.085755	1.390130	0.516096
H200	H	-0.485500	0.644335	1.305669
C201	C	0.662103	1.236610	0.603363
H202	H	0.668735	1.181052	0.619690
H203	H	0.701769	1.266748	0.622302
H204	H	0.684266	1.251557	0.542028
C205	C	0.179694	0.383130	0.725295
H206	H	0.180550	0.327818	0.723374
H207	H	0.246187	0.408004	0.696887
H208	H	0.138800	0.408003	0.696893
C209	C	0.116144	0.239762	0.866352
H210	H	0.143730	0.244664	0.805185
H211	H	0.051649	0.211348	0.890353
H212	H	0.159031	0.211394	0.890357
H213	H	-0.569599	0.942137	1.102008
C214	C	0.182879	0.688415	0.718188
H215	H	0.172092	0.735121	0.742126
H216	H	0.144846	0.688220	0.683442
H217	H	0.252239	0.688240	0.683421
C218	C	-0.002497	0.876418	0.276534
H219	H	-0.052383	0.833170	0.294105
H220	H	0.058460	0.863443	0.235575
H221	H	-0.024317	0.923347	0.250771
H222	H	-0.433820	0.502449	1.332311
H223	H	-0.559387	0.842978	1.076696
H224	H	-0.250804	0.474408	1.262647
H225	H	-0.097356	0.794154	0.446339
C226	C	-0.496745	0.803669	0.923440
H227	H	-0.449559	0.768691	0.933773
H228	H	-0.512942	0.790901	0.878130
H229	H	-0.555977	0.797524	0.974808
H230	H	-0.399493	0.842271	1.076749
C231	C	0.271088	1.113624	0.164153
H232	H	0.251562	1.096698	0.122407
H233	H	0.340817	1.108250	0.149549
H234	H	0.258041	1.168155	0.164728
C235	C	-0.156501	0.742875	0.603741
H236	H	-0.158057	0.741516	0.548824
H237	H	-0.221052	0.752736	0.642089
H238	H	-0.138271	0.692835	0.626904
H239	H	-0.445843	0.914500	0.827952
H240	H	-0.286775	0.915420	0.827348
H241	H	-0.512454	1.070851	0.973037
C242	C	-0.318636	0.804645	0.921932
H243	H	-0.302063	0.799604	0.971402
H244	H	-0.263234	0.792114	0.875076
H245	H	-0.375363	0.768758	0.935137
H246	H	-0.302657	1.060804	0.865244
H247	H	-0.460603	1.057116	0.861694
H248	H	0.267219	1.297006	0.753708
C249	C	0.289129	0.780495	1.205183
H250	H	0.332111	0.780687	1.235652
H251	H	0.236884	0.814527	1.225104
H252	H	0.326754	0.799325	1.144834
H253	H	0.119778	0.982421	0.565611
H254	H	-0.119469	0.588247	1.166341
C255	C	0.189246	1.042660	0.488864
H256	H	0.239124	1.085914	0.471292
H257	H	0.211050	0.995736	0.514643
H258	H	0.128282	1.055648	0.529813
