data_functionalizedCrystal
_audit_creation_method	'MofGen! by Chris Wilmer'
_symmetry_space_group_name_H-M	'P1'
_symmetry_Int_Tables_number	1
_symmetry_cell_setting	triclinic
loop_
_symmetry_equiv_pos_as_xyz
  x,y,z
_cell_length_a	14.908520
_cell_length_b	18.215407
_cell_length_c	18.215399
_cell_angle_alpha	89.982187
_cell_angle_beta	93.269364
_cell_angle_gamma	93.315133
loop_
_atom_site_label
_atom_site_type_symbol
_atom_site_fract_x
_atom_site_fract_y
_atom_site_fract_z
Zn1	Zn	-0.359299	1.108171	-0.432985
Zn2	Zn	-0.025966	1.441504	-0.099651
Zn3	Zn	0.307368	1.774838	0.233682
Zn4	Zn	-0.510167	1.100983	-0.317018
Zn5	Zn	-0.176834	1.434316	0.016315
Zn6	Zn	0.156499	1.767649	0.349648
Zn7	Zn	-0.359313	0.985103	-0.309937
Zn8	Zn	-0.025980	1.318436	0.023396
Zn9	Zn	0.307354	1.651770	0.356730
Zn10	Zn	-0.510101	0.977976	-0.440045
Zn11	Zn	-0.176768	1.311309	-0.106711
Zn12	Zn	0.156565	1.644643	0.226622
O13	O	-0.434720	1.043058	-0.374996
O14	O	-0.101387	1.376391	-0.041663
O15	O	0.231946	1.709725	0.291670
O16	O	-0.379334	1.210201	-0.417611
O17	O	-0.046000	1.543534	-0.084277
O18	O	0.287333	1.876867	0.249056
O19	O	-0.490189	1.085585	-0.213096
O20	O	-0.156856	1.418919	0.120237
O21	O	0.176477	1.752252	0.453570
O22	O	-0.233067	1.007419	-0.320342
O23	O	0.100267	1.340752	0.012992
O24	O	0.433600	1.674086	0.346325
O25	O	-0.490176	1.204919	-0.332411
O26	O	-0.156843	1.538253	0.000923
O27	O	0.176491	1.871586	0.334256
O28	O	-0.233057	1.097837	-0.410744
O29	O	0.100277	1.431170	-0.077411
O30	O	0.433610	1.764503	0.255922
O31	O	-0.379357	1.000449	-0.207894
O32	O	-0.046024	1.333782	0.125440
O33	O	0.287309	1.667116	0.458773
O34	O	-0.379294	0.881174	-0.327187
O35	O	-0.045960	1.214508	0.006146
O36	O	0.287373	1.547841	0.339479
O37	O	-0.490064	0.995272	-0.542091
O38	O	-0.156730	1.328605	-0.208757
O39	O	0.176603	1.661939	0.124576
O40	O	-0.490077	0.875938	-0.422777
O41	O	-0.156744	1.209271	-0.089443
O42	O	0.176589	1.542605	0.243890
O43	O	-0.379270	1.090926	-0.536904
O44	O	-0.045937	1.424259	-0.203571
O45	O	0.287397	1.757593	0.129763
O46	O	-0.636403	1.078675	-0.339256
O47	O	-0.303069	1.412008	-0.005923
O48	O	0.030264	1.745341	0.327411
O49	O	-0.636354	0.988302	-0.429643
O50	O	-0.303021	1.321635	-0.096310
O51	O	0.030312	1.654969	0.237024
C52	C	-0.434680	0.851854	-0.374980
C53	C	-0.101347	1.185187	-0.041647
C54	C	0.231986	1.518520	0.291687
C55	C	-0.434685	0.770055	-0.374992
C56	C	-0.101352	1.103388	-0.041658
C57	C	0.231981	1.436721	0.291675
C58	C	-0.377116	0.507734	-0.419440
C59	C	-0.043782	0.841068	-0.086107
C60	C	0.289551	1.174401	0.247227
C61	C	-0.377101	0.584594	-0.419437
C62	C	-0.043768	0.917927	-0.086104
C63	C	0.289565	1.251261	0.247230
C64	C	-0.492354	0.579122	-0.330570
C65	C	-0.159020	0.912455	0.002764
C66	C	0.174313	1.245788	0.336097
C67	C	-0.492372	0.502263	-0.330577
C68	C	-0.159039	0.835597	0.002756
C69	C	0.174294	1.168930	0.336089
C70	C	-0.434748	0.466572	-0.375011
C71	C	-0.101415	0.799905	-0.041678
C72	C	0.231919	1.133239	0.291656
C73	C	-0.434715	0.620290	-0.375001
C74	C	-0.101382	0.953623	-0.041667
C75	C	0.231952	1.286956	0.291666
C76	C	-0.434700	0.703624	-0.374997
C77	C	-0.101366	1.036957	-0.041664
C78	C	0.231967	1.370291	0.291670
C79	C	-0.434764	0.383232	-0.375016
C80	C	-0.101431	0.716566	-0.041683
C81	C	0.231902	1.049899	0.291651
C82	C	-0.669112	1.031955	-0.386000
C83	C	-0.335779	1.365288	-0.052667
C84	C	-0.002446	1.698622	0.280667
C85	C	-0.769386	1.027272	-0.390732
C86	C	-0.436053	1.360606	-0.057399
C87	C	-0.102720	1.693939	0.275935
C88	C	-0.957801	1.112675	-0.305580
C89	C	-0.624468	1.446008	0.027753
C90	C	-0.291134	1.779341	0.361086
C91	C	-1.052017	1.108277	-0.310024
C92	C	-0.718684	1.441611	0.023309
C93	C	-0.385351	1.774944	0.356643
C94	C	-1.052037	1.014085	-0.404067
C95	C	-0.718704	1.347418	-0.070733
C96	C	-0.385370	1.680751	0.262600
C97	C	-0.957821	1.018482	-0.399623
C98	C	-0.624487	1.351815	-0.066290
C99	C	-0.291154	1.685149	0.267044
C100	C	-0.910706	1.067778	-0.350377
C101	C	-0.577373	1.401111	-0.017044
C102	C	-0.244039	1.734445	0.316289
C103	C	-0.816488	1.072171	-0.345930
C104	C	-0.483155	1.405504	-0.012597
C105	C	-0.149821	1.738838	0.320736
C106	C	-0.816509	0.977982	-0.439976
C107	C	-0.483176	1.311316	-0.106643
C108	C	-0.149843	1.644649	0.226691
C109	C	-0.910726	0.973585	-0.444420
C110	C	-0.577392	1.306918	-0.111087
C111	C	-0.244059	1.640252	0.222247
C112	C	-0.199413	1.054225	-0.363966
C113	C	0.133921	1.387558	-0.030632
C114	C	0.467254	1.720891	0.302701
C115	C	-0.099139	1.058983	-0.359265
C116	C	0.234195	1.392317	-0.025932
C117	C	0.567528	1.725650	0.307402
C118	C	-0.434658	1.043106	-0.566946
C119	C	-0.101325	1.376439	-0.233613
C120	C	0.232009	1.709773	0.099720
C121	C	-0.434631	1.043126	-0.648744
C122	C	-0.101298	1.376460	-0.315411
C123	C	0.232035	1.709793	0.017923
C124	C	-0.434761	1.235009	-0.375013
C125	C	-0.101427	1.568342	-0.041680
C126	C	0.231906	1.901676	0.291654
C127	C	-0.434778	1.316807	-0.375020
C128	C	-0.101445	1.650140	-0.041687
C129	C	0.231889	1.983474	0.291647
C130	C	-0.376887	1.092953	-0.834236
C131	C	-0.043554	1.426286	-0.500903
C132	C	0.289779	1.759619	-0.167569
C133	C	-0.376861	1.092963	-0.911093
C134	C	-0.043528	1.426296	-0.577760
C135	C	0.289806	1.759629	-0.244427
C136	C	-0.492236	0.993358	-0.916483
C137	C	-0.158903	1.326692	-0.583150
C138	C	0.174430	1.660025	-0.249817
C139	C	-0.492257	0.993346	-0.839627
C140	C	-0.158924	1.326679	-0.506294
C141	C	0.174409	1.660012	-0.172960
C142	C	-0.434584	1.043147	-0.798505
C143	C	-0.101251	1.376480	-0.465172
C144	C	0.232083	1.709813	-0.131839
C145	C	-0.434537	1.043170	-0.952219
C146	C	-0.101203	1.376503	-0.618886
C147	C	0.232130	1.709836	-0.285553
C148	C	-0.434509	1.043180	-1.035552
C149	C	-0.101175	1.376513	-0.702218
C150	C	0.232158	1.709847	-0.368885
C151	C	-0.434611	1.043136	-0.715168
C152	C	-0.101277	1.376469	-0.381834
C153	C	0.232056	1.709802	-0.048501
C154	C	-0.434717	1.043056	-0.183790
C155	C	-0.101384	1.376389	0.149544
C156	C	0.231950	1.709723	0.482877
C157	C	-0.434489	1.043190	-0.101981
C158	C	-0.101156	1.376523	0.231353
C159	C	0.232177	1.709857	0.564686
H160	H	-0.539267	0.608191	-0.294392
H161	H	-0.205934	0.941524	0.038942
H162	H	0.127399	1.274858	0.372275
Cl163	Cl	-0.304678	0.462868	-0.475302
Cl164	Cl	0.028656	0.796201	-0.141969
Cl165	Cl	0.361989	1.129534	0.191364
Cl166	Cl	-0.969964	0.911619	-0.506327
Cl167	Cl	-0.636631	1.244952	-0.172994
Cl168	Cl	-0.303297	1.578285	0.160339
H169	H	-1.090359	1.144839	-0.273547
H170	H	-0.757025	1.478172	0.059786
H171	H	-0.423692	1.811505	0.393120
Cl172	Cl	-0.564792	0.930723	-0.794705
Cl173	Cl	-0.231458	1.264056	-0.461372
Cl174	Cl	0.101875	1.597390	-0.128038
Cl175	Cl	-0.757259	1.134139	-0.284020
Cl176	Cl	-0.423926	1.467473	0.049314
Cl177	Cl	-0.090592	1.800806	0.382647
Cl178	Cl	-0.304332	1.155585	-0.956009
Cl179	Cl	0.029001	1.488918	-0.622676
Cl180	Cl	0.362335	1.822252	-0.289342
H181	H	-0.539308	0.468748	-0.294397
H182	H	-0.205975	0.802081	0.038936
H183	H	0.127358	1.135414	0.372269
Cl184	Cl	-0.898568	1.174634	-0.243663
Cl185	Cl	-0.565235	1.507967	0.089671
Cl186	Cl	-0.231901	1.841300	0.423004
H187	H	-1.090414	0.973955	-0.444165
H188	H	-0.757081	1.307288	-0.110832
H189	H	-0.423747	1.640622	0.222502
H190	H	-0.778154	0.941422	-0.476451
H191	H	-0.444821	1.274755	-0.143117
H192	H	-0.111487	1.608088	0.190216
H193	H	-0.539194	0.952814	-0.949974
H194	H	-0.205860	1.286147	-0.616641
H195	H	0.127473	1.619480	-0.283307
Cl196	Cl	-0.304649	0.636338	-0.475296
Cl197	Cl	0.028685	0.969671	-0.141963
Cl198	Cl	0.362018	1.303004	0.191371
Cl199	Cl	-0.304380	1.155557	-0.782542
Cl200	Cl	0.028953	1.488890	-0.449209
Cl201	Cl	0.362286	1.822223	-0.115876
