data_functionalizedCrystal
_audit_creation_method	'MofGen! by Chris Wilmer'
_symmetry_space_group_name_H-M	'P1'
_symmetry_Int_Tables_number	1
_symmetry_cell_setting	triclinic
loop_
_symmetry_equiv_pos_as_xyz
  x,y,z
_cell_length_a	25.639240
_cell_length_b	10.686154
_cell_length_c	10.685880
_cell_angle_alpha	90.360073
_cell_angle_beta	94.340055
_cell_angle_gamma	85.589076
loop_
_atom_site_label
_atom_site_type_symbol
_atom_site_fract_x
_atom_site_fract_y
_atom_site_fract_z
Zn1	Zn	-0.163255	-1.972143	-0.562440
Zn2	Zn	-0.244559	-1.955868	-0.352689
Zn3	Zn	-0.164316	-1.746272	-0.368756
Zn4	Zn	-0.257845	-1.762275	-0.578455
O5	O	-0.207494	-1.859139	-0.465585
O6	O	-0.168036	-2.145532	-0.521190
O7	O	-0.228798	-1.914555	-0.179279
O8	O	-0.091007	-1.776348	-0.394470
O9	O	-0.227770	-2.133574	-0.367087
O10	O	-0.090228	-1.942295	-0.536769
O11	O	-0.169844	-1.760566	-0.191083
O12	O	-0.182727	-1.572847	-0.409999
O13	O	-0.250413	-1.803623	-0.751872
O14	O	-0.251442	-1.584605	-0.564064
O15	O	-0.180919	-1.957813	-0.740106
O16	O	-0.319489	-1.930073	-0.382616
O17	O	-0.329250	-1.787841	-0.548485
C18	C	-0.218642	-1.533208	-0.490513
C19	C	-0.223424	-1.393776	-0.501207
C20	C	-0.343341	-1.858964	-0.465569
C21	C	-0.401455	-1.859007	-0.465596
C22	C	-0.652189	-1.945547	-0.539763
C23	C	-0.597586	-1.945509	-0.539756
O24	O	-0.568963	-2.018941	-0.602785
N25	N	-0.570724	-1.859145	-0.465601
C26	C	-0.598468	-1.772823	-0.391438
O27	O	-0.570607	-1.699361	-0.328362
C28	C	-0.653070	-1.772868	-0.391439
C29	C	-0.679930	-1.859229	-0.465608
C30	C	-0.679048	-2.031902	-0.613926
C31	C	-0.733648	-2.031938	-0.613934
C32	C	-0.761388	-1.945620	-0.539779
C33	C	-0.734529	-1.859266	-0.465616
C34	C	-0.680813	-1.686553	-0.317270
C35	C	-0.735419	-1.686606	-0.317276
C36	C	-0.762278	-1.772967	-0.391446
C37	C	-0.816869	-1.772984	-0.391470
N38	N	-0.843731	-1.859347	-0.465625
C39	C	-0.815990	-1.945665	-0.539780
C40	C	-0.483801	-1.772736	-0.391441
C41	C	-0.429200	-1.772684	-0.391446
C42	C	-0.428321	-1.945371	-0.539763
C43	C	-0.482923	-1.945417	-0.539763
C44	C	-0.510662	-1.859099	-0.465596
C45	C	-0.930654	-1.945735	-0.539792
C46	C	-0.985258	-1.945760	-0.539797
C47	C	-0.986132	-1.773078	-0.391476
C48	C	-0.931533	-1.773047	-0.391475
C49	C	-0.903794	-1.859386	-0.465636
O50	O	-0.845527	-1.699593	-0.328470
O51	O	-0.843858	-2.019125	-0.602833
C52	C	-0.071115	-1.859352	-0.465626
C53	C	-0.012999	-1.859442	-0.465643
C54	C	-0.217030	-1.884319	-0.792778
C55	C	-0.221093	-1.895049	-0.932208
C56	C	-0.196297	-1.186342	-0.440552
C57	C	-0.191512	-1.325775	-0.429864
C58	C	-0.197954	-1.834130	-0.139659
C59	C	-0.193735	-1.823643	-0.000211
H60	H	-0.160533	-1.374227	-0.360600
H61	H	-0.167205	-1.754291	-0.951765
C62	C	-0.265279	-1.328325	-0.594779
H63	H	-0.263111	-1.240053	-0.589940
H64	H	-0.299133	-1.348280	-0.574661
H65	H	-0.259407	-1.356250	-0.677474
C66	C	-0.397799	-2.040330	-0.621321
H67	H	-0.361434	-2.027937	-0.610682
H68	H	-0.409829	-2.028407	-0.707005
H69	H	-0.403298	-2.123235	-0.596570
H70	H	-0.755511	-2.102271	-0.674320
H71	H	-1.007125	-2.016084	-0.600203
C72	C	-0.512463	-2.040423	-0.621336
H73	H	-0.488116	-2.091825	-0.665489
H74	H	-0.537015	-1.996625	-0.679630
H75	H	-0.530473	-2.091458	-0.569201
H76	H	-0.908075	-2.016042	-0.600179
H77	H	-0.656467	-2.102198	-0.674310
C78	C	-0.765931	-1.591654	-0.235695
H79	H	-0.802297	-1.604045	-0.246308
H80	H	-0.760428	-1.508753	-0.260426
H81	H	-0.753896	-1.603604	-0.150011
C82	C	-0.399661	-1.677679	-0.309869
H83	H	-0.424007	-1.626287	-0.265704
H84	H	-0.381644	-1.626651	-0.361984
H85	H	-0.375115	-1.721497	-0.251564
C86	C	-0.514310	-1.677764	-0.309870
H87	H	-0.490489	-1.626321	-0.265721
H88	H	-0.532363	-1.721594	-0.251572
H89	H	-0.538894	-1.626766	-0.362007
H90	H	-0.658952	-1.616231	-0.256873
H91	H	-0.247627	-1.964400	-0.980661
C92	C	-0.901987	-1.678043	-0.309904
H93	H	-0.926330	-1.626643	-0.265740
H94	H	-0.883968	-1.627023	-0.362022
H95	H	-0.877442	-1.721863	-0.251598
C96	C	-1.016653	-1.678143	-0.309904
H97	H	-1.053017	-1.690552	-0.320525
H98	H	-1.011157	-1.595234	-0.334624
H99	H	-1.004619	-1.690098	-0.224220
