data_functionalizedCrystal
_audit_creation_method	'MofGen! by Chris Wilmer'
_symmetry_space_group_name_H-M	'P1'
_symmetry_Int_Tables_number	1
_symmetry_cell_setting	triclinic
loop_
_symmetry_equiv_pos_as_xyz
  x,y,z
_cell_length_a	31.640172
_cell_length_b	12.970454
_cell_length_c	12.970454
_cell_angle_alpha	89.998717
_cell_angle_beta	60.005852
_cell_angle_gamma	59.997970
loop_
_atom_site_label
_atom_site_type_symbol
_atom_site_fract_x
_atom_site_fract_y
_atom_site_fract_z
Zr1	Zr	0.462584	-0.135303	0.993376
O2	O	0.550752	-0.299922	0.828781
O3	O	0.374417	-0.084840	1.043813
O4	O	0.462585	-0.299928	1.043843
O5	O	0.462584	0.084834	0.828751
O6	O	0.462584	-0.299931	1.213510
O7	O	0.462585	-0.084834	0.828752
O8	O	0.304869	0.084823	1.213457
O9	O	0.620299	-0.299920	0.828805
O10	O	0.410681	-0.063318	1.191969
O11	O	0.410681	0.063305	1.065348
O12	O	0.514487	-0.189934	1.065383
O13	O	0.514487	-0.063311	0.938762
Zr14	Zr	0.462583	0.135293	1.263976
Zr15	Zr	0.462584	-0.135307	1.263976
Zr16	Zr	0.462584	0.135297	0.993376
Zr17	Zr	0.573505	-0.135300	0.993413
Zr18	Zr	0.351663	0.135290	1.263939
O19	O	0.550750	0.084830	1.213539
O20	O	0.550751	-0.299928	1.213540
O21	O	0.550751	0.084836	0.828781
O22	O	0.374416	0.299913	1.428571
O23	O	0.374416	-0.084846	1.428571
O24	O	0.374416	0.299919	1.043812
O25	O	0.462583	-0.084843	1.428601
O26	O	0.462583	0.299919	1.213509
O27	O	0.462583	0.299921	1.043842
O28	O	0.462583	0.084824	1.428601
O29	O	0.620299	-0.299924	1.043896
O30	O	0.304869	0.299914	1.213456
O31	O	0.304868	0.299911	1.428547
O32	O	0.304869	0.084820	1.428548
O33	O	0.620299	-0.084829	0.828804
O34	O	0.620298	-0.084833	1.043895
O35	O	0.410681	0.189924	1.191969
O36	O	0.410681	0.063301	1.318590
O37	O	0.514486	-0.063315	1.192004
O38	O	0.514486	0.063308	1.065383
C39	C	0.323839	-0.000009	1.128630
C40	C	0.276751	-0.000010	1.128614
C41	C	0.462584	0.000000	0.790197
C42	C	0.462585	0.000002	0.675320
C43	C	0.462583	0.338475	1.128676
C44	C	0.462583	0.453351	1.128675
C45	C	-0.015291	-0.066089	1.194796
C46	C	-0.192287	-0.066088	1.194822
O47	O	-0.215192	-0.122255	1.251080
N48	N	-0.214416	0.000005	1.128726
C49	C	-0.192296	0.066110	1.062625
O50	O	-0.215184	0.122337	1.006417
C51	C	-0.015304	0.066116	1.062607
C52	C	0.006827	0.000008	1.128697
C53	C	0.006840	-0.132190	1.260882
C54	C	0.051088	-0.132196	1.260870
C55	C	0.073206	-0.066099	1.194771
C56	C	0.051075	0.000002	1.128685
C57	C	0.006812	0.132227	0.996514
C58	C	0.051061	0.132225	0.996518
C59	C	0.073193	0.066117	1.062609
C60	C	0.117442	0.066094	1.062573
N61	N	0.139571	0.000000	1.128670
C62	C	0.117453	-0.066096	1.194768
C63	C	-0.285219	0.066100	1.062637
C64	C	-0.329466	0.066097	1.062639
C65	C	-0.329454	-0.066099	1.194839
C66	C	-0.285203	-0.066103	1.194828
C67	C	-0.263089	0.000007	1.128733
C68	C	0.210379	-0.066103	1.194736
C69	C	0.254633	-0.066106	1.194713
C70	C	0.254615	0.066095	1.062519
C71	C	0.210367	0.066094	1.062536
C72	C	0.188249	-0.000008	1.128654
O73	O	0.140369	0.122242	1.006357
O74	O	0.140339	-0.122292	1.250991
C75	C	-0.059540	-0.066084	1.194809
C76	C	-0.081670	0.000018	1.128723
C77	C	-0.059552	0.066114	1.062624
C78	C	-0.125917	0.000015	1.128725
C79	C	-0.148035	-0.066082	1.194824
C80	C	-0.125906	-0.132175	1.260921
C81	C	-0.081658	-0.132180	1.260908
C82	C	-0.081681	0.132207	0.996528
C83	C	-0.125930	0.132206	0.996545
C84	C	-0.148047	0.066110	1.062644
C85	C	0.601328	-0.000001	1.128723
C86	C	0.648417	0.000000	1.128738
C87	C	0.462584	-0.338484	1.128677
C88	C	0.462585	-0.453361	1.128677
C89	C	0.462583	-0.000010	1.467155
C90	C	0.462583	-0.000012	1.582032
C91	C	0.323839	-0.000014	1.467109
C92	C	0.276750	-0.000017	1.581970
C93	C	0.323839	0.338471	1.128629
C94	C	0.276750	0.453346	1.128613
C95	C	0.323838	0.338466	1.467108
C96	C	0.276749	0.453339	1.581969
C97	C	0.601329	-0.338475	0.790244
C98	C	0.648419	-0.453349	0.675383
C99	C	0.601329	0.000004	0.790243
C100	C	0.648418	0.000007	0.675382
C101	C	0.601329	-0.338480	1.128723
C102	C	0.648418	-0.453356	1.128739
C103	C	0.254637	-0.066123	1.569815
C104	C	0.210398	-0.066152	1.677729
C105	C	0.188270	-0.000065	1.797796
C106	C	0.210388	0.066044	1.809949
C107	C	0.254629	0.066064	1.702036
C108	C	0.254636	0.573398	1.194700
C109	C	0.210398	0.681346	1.194680
C110	C	0.188270	0.669240	1.128580
C111	C	0.210388	0.549175	1.062485
C112	C	0.254629	0.441230	1.062498
C113	C	0.254635	0.441189	1.702015
C114	C	0.210396	0.549115	1.809950
C115	C	0.188269	0.669189	1.797835
C116	C	0.210387	0.681337	1.677776
C117	C	0.254628	0.573412	1.569845
C118	C	0.670537	-0.441199	0.555337
C119	C	0.714790	-0.549125	0.447403
C120	C	0.736920	-0.669199	0.459517
C121	C	0.714799	-0.681346	0.579576
C122	C	0.670551	-0.573422	0.687507
C123	C	0.670535	0.066103	0.687537
C124	C	0.714786	0.066101	0.579623
C125	C	0.736916	0.000011	0.459556
C126	C	0.714796	-0.066093	0.447404
C127	C	0.670549	-0.066098	0.555316
C128	C	0.670531	-0.441209	1.194852
C129	C	0.714770	-0.549136	1.194892
C130	C	0.736898	-0.669209	1.128810
C131	C	0.714780	-0.681354	1.062695
C132	C	0.670539	-0.573428	1.062664
H133	H	0.272652	-0.119944	1.248530
O134	O	0.646699	-0.586514	0.816995
H135	H	0.597892	-0.540503	0.869337
O136	O	0.784624	-0.785609	1.128833
H137	H	0.767642	-0.785525	1.227255
H138	H	0.732804	-0.779132	1.008893
H139	H	0.192394	0.779097	1.248508
O140	O	0.646676	-0.311701	0.542243
H141	H	0.612185	-0.238681	0.637454
H142	H	0.272627	0.583323	1.472102
H143	H	0.732821	-0.119902	0.349630
H144	H	0.152247	0.757146	1.128580
H145	H	0.772950	-0.757068	0.371622
O146	O	0.278504	0.311687	1.715097
H147	H	0.255696	0.321391	1.816714
H148	H	0.652521	0.119930	0.785292
H149	H	0.732823	-0.779124	0.589425
O150	O	0.738632	0.137419	0.592743
H151	H	0.715798	0.183393	0.694365
O152	O	0.738632	-0.535991	0.317927
H153	H	0.787436	-0.581963	0.265597
O154	O	0.784623	0.000061	0.343167
H155	H	0.796272	0.057152	0.371803
H156	H	0.652542	-0.119917	0.545402
H157	H	0.652521	-0.343449	1.248664
H158	H	-0.347469	-0.119920	1.248657
H159	H	0.652539	-0.583336	1.008821
O160	O	0.186548	-0.137457	1.664604
H161	H	0.137740	-0.070742	1.710614
H162	H	0.732773	-0.539223	1.248729
O163	O	0.140544	0.785584	1.914259
H164	H	0.128870	0.871128	1.885678
H165	H	0.192374	-0.119927	1.248576
H166	H	0.069103	-0.186022	1.314690
O167	O	-0.353312	0.137343	0.991302
H168	H	-0.330491	0.183295	0.945337
O169	O	0.186538	0.536000	1.939433
H170	H	0.209351	0.434371	1.929713
H171	H	-0.011166	-0.186013	1.314714
H172	H	0.192366	0.539336	1.008668
H173	H	0.272628	0.343482	1.008686
H174	H	0.152246	-0.000090	1.885655
O175	O	-0.261363	0.137393	0.991330
H176	H	-0.284183	0.183332	0.945364
H177	H	0.192365	0.119848	1.907722
H178	H	-0.267187	-0.119933	1.248646
O179	O	0.278467	0.137394	1.715156
H180	H	0.298617	0.099215	1.767589
O181	O	-0.017020	0.203490	0.925169
H182	H	-0.037172	0.305076	0.963333
O183	O	0.074918	0.203532	0.925248
H184	H	0.095076	0.165350	0.823666
O185	O	0.186494	0.137389	0.991253
H186	H	0.209308	0.183354	0.945293
O187	O	0.278500	0.586471	1.265993
H188	H	0.255690	0.688094	1.311925
H189	H	0.192364	0.779116	1.667931
H190	H	0.272633	0.119905	1.008699
H191	H	-0.063642	-0.186011	1.314725
H192	H	-0.143942	0.186035	0.942714
O193	O	-0.149764	-0.203472	1.332212
H194	H	-0.184253	-0.192350	1.321113
H195	H	0.272653	-0.119954	1.472060
O196	O	-0.057823	0.203489	0.925220
H197	H	-0.080645	0.249433	0.879258
