data_functionalizedCrystal
_audit_creation_method	'MofGen! by Chris Wilmer'
_symmetry_space_group_name_H-M	'P1'
_symmetry_Int_Tables_number	1
_symmetry_cell_setting	triclinic
loop_
_symmetry_equiv_pos_as_xyz
  x,y,z
_cell_length_a	19.851628
_cell_length_b	14.560438
_cell_length_c	14.560438
_cell_angle_alpha	59.997697
_cell_angle_beta	59.999625
_cell_angle_gamma	90.004383
loop_
_atom_site_label
_atom_site_type_symbol
_atom_site_fract_x
_atom_site_fract_y
_atom_site_fract_z
Zr1	Zr	0.648982	-0.120481	1.005208
O2	O	0.541416	-0.267157	1.196831
O3	O	0.681956	-0.075508	0.813595
O4	O	0.681957	-0.267122	1.005200
O5	O	0.541416	0.075594	1.005228
O6	O	0.792818	-0.267103	1.005182
O7	O	0.541415	-0.075544	1.005226
O8	O	0.792818	0.075658	0.662436
O9	O	0.541417	-0.267167	1.347975
O10	O	0.778755	-0.056325	0.892391
O11	O	0.696021	0.056454	0.892406
O12	O	0.696021	-0.169146	1.117996
O13	O	0.613286	-0.056367	1.118012
Zr14	Zr	0.825795	0.120596	1.005184
Zr15	Zr	0.825794	-0.120452	1.005180
Zr16	Zr	0.648983	0.120567	1.005212
Zr17	Zr	0.648983	-0.120497	1.246265
Zr18	Zr	0.825793	0.120612	0.764127
O19	O	0.792821	0.075624	1.196796
O20	O	0.792819	-0.267116	1.196790
O21	O	0.541417	0.075582	1.196836
O22	O	0.933361	0.267273	0.813561
O23	O	0.933360	-0.075467	0.813555
O24	O	0.681958	0.267231	0.813601
O25	O	0.933361	-0.075479	1.005163
O26	O	0.792820	0.267237	1.005191
O27	O	0.681959	0.267219	1.005209
O28	O	0.933361	0.075659	1.005166
O29	O	0.681958	-0.267144	1.347952
O30	O	0.792819	0.267259	0.662439
O31	O	0.933360	0.267282	0.662417
O32	O	0.933360	0.075681	0.662414
O33	O	0.541417	-0.075566	1.347978
O34	O	0.681959	-0.075543	1.347955
O35	O	0.778756	0.169261	0.892395
O36	O	0.861490	0.056482	0.892380
O37	O	0.778756	-0.056339	1.117985
O38	O	0.696022	0.056440	1.118000
C39	C	0.516224	0.000021	1.005231
C40	C	0.441163	0.000008	1.005243
C41	C	0.737387	0.000077	0.703670
C42	C	0.737386	0.000084	0.601335
C43	C	0.737390	0.301572	1.005201
C44	C	0.737390	0.403903	1.005203
C45	C	0.214708	-0.061469	1.128224
C46	C	0.192346	-0.106032	1.066734
C47	C	0.303756	0.000041	1.005209
C48	C	0.192377	0.044583	1.066708
C49	C	0.171024	0.000071	1.005186
C50	C	0.282383	-0.044584	0.943719
C51	C	0.282412	0.106089	0.943710
C52	C	0.260103	0.061553	0.882130
C53	C	0.380218	0.000021	1.005227
C54	C	0.094567	0.000090	1.005159
C55	C	0.958553	0.000094	1.005160
C56	C	1.033614	0.000107	1.005148
C57	C	0.737387	-0.301457	1.005191
C58	C	0.737387	-0.403788	1.005189
C59	C	0.694205	0.393090	1.122964
C60	C	0.694201	0.489245	1.122958
C61	C	0.780573	0.607023	0.887418
C62	C	0.780572	0.510869	0.887426
C63	C	0.676310	-0.083208	0.636558
C64	C	0.676313	-0.083236	0.540418
C65	C	0.798473	0.083327	0.373834
C66	C	0.798472	0.083350	0.469973
C67	C	0.737390	0.000038	1.306721
C68	C	0.737391	0.000032	1.409056
C69	C	0.958551	0.000114	0.703635
C70	C	1.033612	0.000133	0.601288
C71	C	0.737388	0.301591	0.703675
C72	C	0.737388	0.403929	0.601342
C73	C	0.958553	0.301628	0.703640
C74	C	1.033614	0.403978	0.601295
C75	C	0.516224	-0.301513	1.306752
C76	C	0.441163	-0.403863	1.409097
C77	C	0.516226	0.000002	1.306757
C78	C	0.441165	-0.000017	1.409104
C79	C	0.737389	-0.301476	1.306716
C80	C	0.737389	-0.403814	1.409049
C81	C	1.025674	-0.058752	0.553230
C82	C	1.096195	-0.058757	0.457078
C83	C	1.174653	0.000131	0.408978
C84	C	1.182589	0.059017	0.457045
C85	C	1.112069	0.059015	0.553202
C86	C	1.112057	0.393173	0.553224
C87	C	1.182592	0.489333	0.457073
C88	C	1.174681	0.596297	0.408988
C89	C	1.096229	0.607099	0.457068
C90	C	1.025696	0.510941	0.553224
C91	C	0.362720	-0.393058	1.457179
C92	C	0.292185	-0.489218	1.553360
C93	C	0.300096	-0.596181	1.601450
C94	C	0.378548	-0.606984	1.553364
C95	C	0.449080	-0.510825	1.457192
C96	C	0.449103	0.058857	1.457171
C97	C	0.378582	0.058836	1.553350
C98	C	0.300124	-0.000055	1.601454
C99	C	0.292188	-0.058938	1.553382
C100	C	0.362708	-0.058922	1.457211
C101	C	0.780574	0.510891	0.553258
C102	C	0.780564	0.607045	0.457114
C103	C	0.694181	0.489260	0.457143
C104	C	0.694187	0.393109	0.553292
H105	H	0.196257	-0.113559	1.232238
H106	H	0.815732	0.694124	0.791529
F107	F	0.387045	0.121513	1.604490
F108	F	0.826534	0.522381	0.762081
H109	H	0.242657	-0.674471	1.679759
H110	H	1.089801	0.694202	0.417903
H111	H	1.246478	0.106961	0.417868
F112	F	0.648244	0.279252	1.248312
H113	H	0.815730	0.694135	0.417970
H114	H	0.512980	0.106821	1.418012
F115	F	1.120530	0.121699	0.604331
H116	H	0.321077	-0.082345	0.891764
H117	H	0.242709	-0.000059	1.679762
H118	H	0.659015	0.306009	0.592446
F119	F	0.648208	0.477756	0.405994
H120	H	1.232068	0.000125	0.330679
H121	H	0.356263	-0.305972	1.418029
F122	F	0.208681	-0.121607	1.604588
H123	H	0.153536	-0.195703	1.118723
F124	F	0.354247	-0.121581	1.406058
F125	F	0.826551	0.522411	0.604395
H126	H	0.278709	0.113570	0.778031
H127	H	0.848213	0.151178	0.441282
H128	H	0.321220	0.195742	0.891765
F129	F	0.208699	-0.477698	1.604516
H130	H	0.153576	0.082241	1.118723
H131	H	0.659034	0.480431	1.218851
H132	H	1.118514	0.306087	0.592361
F133	F	0.386954	-0.720832	1.604556
F134	F	0.942180	-0.121436	0.604408
F135	F	0.611299	-0.171830	0.776361
F136	F	0.611308	-0.171887	0.577914
H137	H	0.848207	0.151121	0.266870
F138	F	1.266078	0.477813	0.405916
F139	F	0.532564	-0.522342	1.406022
F140	F	1.087732	-0.121431	0.405935
F141	F	0.942213	0.522457	0.604368
F142	F	1.249756	0.698629	0.306648
