data_functionalizedCrystal
_audit_creation_method	'MofGen! by Chris Wilmer'
_symmetry_space_group_name_H-M	'P1'
_symmetry_Int_Tables_number	1
_symmetry_cell_setting	triclinic
loop_
_symmetry_equiv_pos_as_xyz
  x,y,z
_cell_length_a	27.732064
_cell_length_b	27.731996
_cell_length_c	9.482900
_cell_angle_alpha	99.248591
_cell_angle_beta	80.795769
_cell_angle_gamma	82.635407
loop_
_atom_site_label
_atom_site_type_symbol
_atom_site_fract_x
_atom_site_fract_y
_atom_site_fract_z
O1	O	0.648488	0.049947	-0.120649
O2	O	0.507698	0.058681	-0.120711
O3	O	0.582476	-0.016082	-0.120647
O4	O	0.573709	0.124710	-0.120713
O5	O	0.567287	-0.000836	0.121133
O6	O	0.492508	0.073927	0.121068
O7	O	0.633298	0.065194	0.121131
Cu8	Cu	0.561516	0.070953	0.143176
Cu9	Cu	0.579480	0.052922	-0.142756
O10	O	0.558519	0.139957	0.121066
C11	C	0.482096	0.066119	0.000171
C12	C	0.428444	0.065562	0.000148
C13	C	0.051373	0.017600	0.000254
C14	C	0.253035	0.019644	0.000215
O15	O	0.284291	-0.017574	0.000287
N16	N	0.272156	0.063977	0.000188
C17	C	0.240858	0.107804	0.000179
O18	O	0.261747	0.145560	0.000170
C19	C	0.039196	0.105760	0.000229
C20	C	0.020079	0.061423	0.000241
C21	C	0.032256	-0.026734	0.000268
C22	C	-0.018157	-0.027245	0.000270
C23	C	-0.049451	0.016578	0.000258
C24	C	-0.030333	0.060912	0.000243
C25	C	0.007897	0.149587	0.000231
C26	C	-0.042521	0.149072	0.000247
C27	C	-0.061638	0.104735	0.000260
C28	C	-0.112040	0.104223	0.000232
N29	N	-0.131161	0.059890	0.000260
C30	C	-0.099867	0.016067	0.000272
C31	C	0.346734	0.108873	0.000151
C32	C	0.397149	0.109384	0.000136
C33	C	0.409323	0.021224	0.000174
C34	C	0.358908	0.020713	0.000179
C35	C	0.327613	0.064540	0.000178
C36	C	-0.205736	0.014997	0.000275
C37	C	-0.256153	0.014490	0.000271
C38	C	-0.268323	0.102650	0.000240
C39	C	-0.217910	0.103157	0.000236
C40	C	-0.186618	0.059327	0.000259
O41	O	-0.143325	0.141422	0.000177
O42	O	-0.120768	-0.021682	0.000314
C43	C	0.101785	0.018111	0.000252
C44	C	0.120903	0.062445	0.000238
C45	C	0.089608	0.106267	0.000225
C46	C	0.171318	0.062955	0.000223
C47	C	0.202613	0.019133	0.000236
C48	C	0.183492	-0.025201	0.000263
C49	C	0.133080	-0.025712	0.000265
C50	C	0.108729	0.150601	0.000198
C51	C	0.159142	0.151108	0.000194
C52	C	0.190437	0.107286	0.000207
C53	C	0.574701	-0.026466	0.000248
C54	C	0.574157	-0.080121	0.000263
C55	C	0.579027	-0.421153	-0.131604
C56	C	0.576968	-0.622813	-0.131630
O57	O	0.583722	-0.655952	-0.243717
N58	N	0.568432	-0.639720	0.000162
C59	C	0.560407	-0.606207	0.131971
O60	O	0.553095	-0.625213	0.244068
C61	C	0.562463	-0.404547	0.131996
C62	C	0.571004	-0.387645	0.000194
C63	C	0.587567	-0.404250	-0.263394
C64	C	0.588085	-0.353838	-0.263386
C65	C	0.580062	-0.320330	-0.131588
C66	C	0.571522	-0.337233	0.000202
C67	C	0.554435	-0.371035	0.263803
C68	C	0.554949	-0.320618	0.263797
C69	C	0.563490	-0.303715	0.131996
C70	C	0.564017	-0.253313	0.132009
N71	N	0.572552	-0.236407	0.000216
C72	C	0.580575	-0.269915	-0.131582
C73	C	0.559329	-0.712082	0.131948
C74	C	0.558816	-0.762496	0.131942
C75	C	0.575376	-0.779099	-0.131659
C76	C	0.575893	-0.728684	-0.131652
C77	C	0.567865	-0.695175	0.000156
C78	C	0.581661	-0.164046	-0.131556
C79	C	0.582180	-0.113630	-0.131536
C80	C	0.565618	-0.097031	0.132065
C81	C	0.565102	-0.147443	0.132046
C82	C	0.573123	-0.180950	0.000224
O83	O	0.557261	-0.220146	0.244037
O84	O	0.587876	-0.250897	-0.243663
C85	C	0.578510	-0.471565	-0.131612
C86	C	0.569970	-0.488468	0.000179
C87	C	0.561947	-0.454960	0.131977
C88	C	0.569457	-0.538883	0.000173
C89	C	0.577479	-0.572391	-0.131626
C90	C	0.586015	-0.555485	-0.263418
C91	C	0.586532	-0.505073	-0.263410
C92	C	0.553411	-0.471866	0.263769
C93	C	0.552895	-0.522279	0.263751
C94	C	0.560918	-0.555787	0.131952
C95	C	0.658899	0.057756	0.000245
C96	C	0.712553	0.058312	0.000258
C97	C	0.566295	0.150340	0.000168
C98	C	0.566839	0.203995	0.000144
N99	N	0.548885	0.083634	0.344285
N100	N	0.592115	0.040237	-0.343866
C101	C	0.575751	0.056660	0.416507
C102	C	0.565245	0.067215	0.583916
H103	H	0.057731	-0.062422	0.000283
H104	H	0.606528	0.025750	0.354406
N105	N	0.217251	-0.072468	0.000271
H106	H	0.252087	-0.065412	0.000267
H107	H	0.205473	-0.086155	0.089913
N108	N	0.524471	0.108157	0.666166
H109	H	0.531520	0.140744	0.639741
H110	H	0.491849	0.101220	0.639727
H111	H	-0.033717	-0.063349	0.000287
H112	H	-0.293812	0.138329	0.000222
H113	H	0.622893	0.009325	0.594037
N114	N	0.508111	0.124574	0.426531
H115	H	0.506384	0.126310	0.534464
H116	H	0.515185	0.157137	0.399990
H117	H	0.083253	0.186288	0.000189
N118	N	-0.276771	-0.033333	0.000281
H119	H	-0.249294	-0.061016	0.000294
H120	H	-0.303050	-0.029816	0.089913
H121	H	-0.202345	0.139260	0.000224
H122	H	0.588190	-0.191322	-0.238898
H123	H	-0.180263	-0.020694	0.000293
H124	H	0.343346	-0.015390	0.000190
N125	N	0.443081	-0.026043	0.000187
H126	H	0.477919	-0.018987	0.000176
H127	H	0.431305	-0.039727	0.089834
H128	H	0.595038	-0.340081	-0.370713
H129	H	0.551868	-0.776254	0.239268
N130	N	0.417763	0.157206	0.000090
H131	H	0.400701	0.182038	0.089711
H132	H	0.454450	0.150843	0.000024
N133	N	0.312977	0.156153	0.000252
H134	H	0.332743	0.184314	0.000263
H135	H	0.297398	0.152239	-0.089340
H136	H	0.547481	-0.384788	0.371130
N137	N	0.028509	0.197407	0.000202
H138	H	0.001027	0.225087	0.000200
H139	H	0.043536	0.205195	0.089826
H140	H	-0.068000	0.184762	0.000253
H141	H	0.117520	-0.061816	0.000276
H142	H	0.589137	-0.099871	-0.238869
N143	N	0.179759	0.198931	0.000158
H144	H	0.152280	0.226613	0.000151
H145	H	0.194784	0.206717	0.089788
H146	H	0.594099	-0.431528	-0.370726
N147	N	0.585105	-0.710455	-0.273806
H148	H	0.590110	-0.739337	-0.357293
H149	H	0.555702	-0.685759	-0.279569
H150	H	0.581909	-0.806391	-0.238975
H151	H	0.552795	-0.684802	0.239288
N152	N	0.546292	-0.284474	0.405959
H153	H	0.512607	-0.285475	0.463560
H154	H	0.572584	-0.293782	0.463479
N155	N	0.555898	-0.165679	0.274197
H156	H	0.550896	-0.136800	0.357691
H157	H	0.525345	-0.182088	0.279925
N158	N	0.556968	-0.060881	0.274206
H159	H	0.526838	-0.035453	0.280052
H160	H	0.551503	-0.079271	0.357628
N161	N	0.595745	-0.486846	-0.405568
H162	H	0.600748	-0.515729	-0.489051
H163	H	0.566344	-0.462149	-0.411332
H164	H	0.592550	-0.582777	-0.370733
H165	H	0.546879	-0.444588	0.371098
N166	N	0.543687	-0.540507	0.405917
H167	H	0.538683	-0.511625	0.489404
H168	H	0.513134	-0.556916	0.411643
