data_functionalizedCrystal
_audit_creation_method	'MofGen! by Chris Wilmer'
_symmetry_space_group_name_H-M	'P1'
_symmetry_Int_Tables_number	1
_symmetry_cell_setting	triclinic
loop_
_symmetry_equiv_pos_as_xyz
  x,y,z
_cell_length_a	17.699104
_cell_length_b	19.188930
_cell_length_c	16.776229
_cell_angle_alpha	89.988225
_cell_angle_beta	89.991971
_cell_angle_gamma	83.218149
loop_
_atom_site_label
_atom_site_type_symbol
_atom_site_fract_x
_atom_site_fract_y
_atom_site_fract_z
O1	O	1.003952	0.088364	-0.066313
O2	O	0.783561	0.099836	-0.066313
O3	O	0.900117	-0.007548	-0.066297
O4	O	0.887397	0.195748	-0.066328
O5	O	0.900101	-0.007555	0.066279
O6	O	0.783545	0.099829	0.066264
O7	O	1.003937	0.088357	0.066263
Zn8	Zn	0.893739	0.094092	0.087313
Zn9	Zn	0.893759	0.094101	-0.087362
O10	O	0.887381	0.195741	0.066248
C11	C	0.755357	0.099419	-0.000024
C12	C	0.671341	0.098178	-0.000023
C13	C	0.899697	-0.033563	-0.000007
C14	C	0.898460	-0.111069	0.000000
C15	C	0.146397	0.154214	-0.000040
C16	C	0.225339	0.155375	-0.000042
C17	C	0.274039	0.092337	-0.000033
C18	C	0.243794	0.028132	-0.000028
C19	C	0.164853	0.026972	-0.000032
C20	C	0.562154	0.032812	-0.000016
C21	C	0.641100	0.033978	-0.000011
C22	C	0.622640	0.161216	-0.000027
C23	C	0.543699	0.160055	-0.000030
C24	C	0.513460	0.095851	-0.000030
C25	C	0.427862	0.094593	-0.000029
C26	C	0.359636	0.093595	-0.000028
C27	C	0.966851	-0.155912	0.000004
C28	C	0.965690	-0.228737	-0.000009
C29	C	0.896133	-0.256716	-0.000010
C30	C	0.827733	-0.211864	-0.000018
C31	C	0.828897	-0.139040	-0.000013
N32	N	0.842960	-0.364787	0.045109
N33	N	0.841859	-0.433967	0.045106
C34	C	0.892623	-0.476129	-0.000026
N35	N	0.944540	-0.446500	-0.045144
N36	N	0.945643	-0.377314	-0.045138
C37	C	0.894864	-0.335680	-0.000015
C38	C	0.959759	-0.599938	-0.000037
C39	C	0.958595	-0.672764	-0.000055
C40	C	0.820636	-0.655889	-0.000055
C41	C	0.821802	-0.583065	-0.000045
C42	C	0.891366	-0.555094	-0.000033
C43	C	1.032141	0.088774	-0.000027
C44	C	1.116156	0.090014	-0.000033
C45	C	0.887801	0.221756	-0.000044
C46	C	0.889037	0.299262	-0.000056
N47	N	0.893730	0.094086	0.206524
N48	N	0.893773	0.094101	-0.206574
C49	C	0.945357	0.046555	0.248248
C50	C	0.945361	0.046555	0.331700
C51	C	0.893742	0.094088	0.373427
C52	C	0.842110	0.141621	0.331697
C53	C	0.842103	0.141618	0.248247
C54	C	0.842137	0.141635	0.668245
C55	C	0.842150	0.141636	0.751701
C56	C	0.945396	0.046572	0.751698
C57	C	0.945388	0.046569	0.668247
C58	C	0.893754	0.094098	0.626525
C59	C	0.893749	0.094097	0.536037
C60	C	0.893750	0.094093	0.463914
H61	H	0.106749	0.205547	-0.000042
O62	O	0.760213	-0.239123	-0.000123
C63	C	0.755415	-0.280715	-0.068797
H64	H	0.815132	-0.298945	-0.091686
H65	H	0.725402	-0.328358	-0.053356
H66	H	0.721831	-0.248478	-0.116877
O67	O	1.032079	-0.272377	0.000106
C68	C	1.035523	-0.315005	0.068779
H69	H	0.975454	-0.318591	0.091661
H70	H	1.063899	-0.369783	0.053340
H71	H	1.069999	-0.291111	0.116864
O72	O	0.995544	0.000484	0.372322
C73	C	1.042117	0.037834	0.420558
H74	H	1.011785	0.092501	0.433047
H75	H	1.054192	0.008683	0.479248
H76	H	1.098033	0.042520	0.388384
O77	O	0.995455	0.000247	0.627816
C78	C	0.983325	-0.068816	0.648341
H79	H	0.922712	-0.069019	0.671257
H80	H	0.992156	-0.103938	0.593527
H81	H	1.025297	-0.089336	0.696835
H82	H	1.014289	-0.709275	-0.000056
H83	H	0.249956	0.207653	-0.000055
O84	O	0.762528	-0.095377	-0.000047
C85	C	0.778471	-0.025103	-0.000018
H86	H	0.837914	-0.022401	-0.025114
H87	H	0.734868	0.007973	-0.038506
H88	H	0.775523	-0.004053	0.063589
O89	O	0.791926	0.187834	0.792113
C90	C	0.746360	0.229795	0.737394
H91	H	0.745597	0.201170	0.677915
H92	H	0.685888	0.240505	0.761522
H93	H	0.770750	0.281640	0.728498
H94	H	0.537544	-0.019466	-0.000014
O95	O	1.027396	-0.572877	-0.000074
C96	C	1.087513	-0.628077	-0.000065
H97	H	1.066462	-0.677510	-0.025166
H98	H	1.136091	-0.612927	-0.038560
H99	H	1.108598	-0.638431	0.063535
O100	O	0.995476	0.000421	0.792352
C101	C	0.984429	0.010622	0.874956
H102	H	0.924171	0.036780	0.886363
H103	H	0.993033	-0.042263	0.906681
H104	H	1.027148	0.045597	0.898618
H105	H	0.800062	0.180321	0.214276
O106	O	0.753134	-0.683175	-0.000024
C107	C	0.766770	-0.757068	-0.000053
H108	H	0.825887	-0.774271	0.025049
H109	H	0.722269	-0.779367	0.038430
H110	H	0.763182	-0.777317	-0.063660
O111	O	0.792093	0.187842	0.627639
C112	C	0.832478	0.230884	0.579364
H113	H	0.891787	0.203004	0.566846
H114	H	0.800842	0.241974	0.520691
H115	H	0.837460	0.282476	0.611518
H116	H	0.504050	0.211388	-0.000034
H117	H	0.647269	0.213494	-0.000031
H118	H	0.766111	-0.546553	-0.000044
H119	H	0.800077	0.180321	0.365676
O120	O	0.688302	-0.027326	-0.000043
C121	C	0.644686	-0.084244	-0.000027
H122	H	0.585712	-0.066421	-0.025130
H123	H	0.673959	-0.128396	-0.038516
H124	H	0.639119	-0.103940	0.063576
H125	H	0.140234	-0.025306	-0.000028
O126	O	0.291207	-0.033040	0.000016
C127	C	0.367368	-0.018250	0.000000
H128	H	0.370215	0.036583	0.025092
H129	H	0.403255	-0.058442	0.038499
H130	H	0.390220	-0.020933	-0.063601
O131	O	1.034444	-0.128777	-0.000132
C132	C	1.076139	-0.151708	-0.068783
H133	H	1.035465	-0.166779	-0.116777
H134	H	1.108200	-0.107642	-0.091827
H135	H	1.118466	-0.199245	-0.053259
O136	O	0.995530	0.000313	0.207842
C137	C	1.041109	-0.041627	0.262568
H138	H	1.010086	-0.042378	0.322062
H139	H	1.052840	-0.097400	0.238471
H140	H	1.097254	-0.019017	0.271423
