data_functionalizedCrystal
_audit_creation_method	'MofGen! by Chris Wilmer'
_symmetry_space_group_name_H-M	'P1'
_symmetry_Int_Tables_number	1
_symmetry_cell_setting	triclinic
loop_
_symmetry_equiv_pos_as_xyz
  x,y,z
_cell_length_a	19.288864
_cell_length_b	17.038272
_cell_length_c	17.766277
_cell_angle_alpha	89.993732
_cell_angle_beta	89.976791
_cell_angle_gamma	87.123901
loop_
_atom_site_label
_atom_site_type_symbol
_atom_site_fract_x
_atom_site_fract_y
_atom_site_fract_z
O1	O	0.927386	0.097514	-0.062838
O2	O	0.725940	0.110668	-0.062787
O3	O	0.825466	-0.009720	-0.062806
O4	O	0.827860	0.217903	-0.062819
O5	O	0.825447	-0.009726	0.062382
O6	O	0.725920	0.110662	0.062402
O7	O	0.927367	0.097508	0.062351
Cu8	Cu	0.826642	0.104085	0.073807
Cu9	Cu	0.826665	0.104092	-0.074243
O10	O	0.827841	0.217897	0.062370
C11	C	0.700027	0.110242	-0.000186
C12	C	0.622845	0.108972	-0.000166
C13	C	0.582519	0.179610	-0.000182
C14	C	0.509998	0.178417	-0.000190
C15	C	0.477806	0.106580	-0.000198
C16	C	0.518141	0.035932	-0.000178
C17	C	0.590661	0.037128	-0.000162
C18	C	0.366057	0.050111	-0.044079
C19	C	0.293539	0.048918	-0.044100
C20	C	0.254132	0.102889	-0.000243
C21	C	0.287252	0.158066	0.043624
C22	C	0.359772	0.159262	0.043640
C23	C	0.399172	0.105276	-0.000214
C24	C	0.135171	0.172238	-0.000267
C25	C	0.062649	0.171042	-0.000270
C26	C	0.070793	0.028556	-0.000266
C27	C	0.143314	0.029754	-0.000254
C28	C	0.175498	0.101598	-0.000259
C29	C	0.823278	-0.038845	-0.000211
C30	C	0.816781	-0.125616	-0.000210
C31	C	0.876437	-0.175923	-0.000224
C32	C	0.870327	-0.257454	-0.000230
C33	C	0.804561	-0.288677	-0.000216
C34	C	0.744901	-0.238363	-0.000204
C35	C	0.751011	-0.156834	-0.000203
C36	C	0.782976	-0.534365	-0.000221
C37	C	0.776870	-0.615900	-0.000219
C38	C	0.902297	-0.634985	-0.000246
C39	C	0.908402	-0.553454	-0.000241
C40	C	0.848741	-0.503148	-0.000233
C41	C	0.798315	-0.372014	-0.000219
C42	C	0.854988	-0.419812	-0.000235
C43	C	0.953279	0.097934	-0.000252
C44	C	1.030462	0.099205	-0.000277
C45	C	0.830029	0.247021	-0.000227
C46	C	0.836526	0.333793	-0.000233
N47	N	0.826631	0.104079	0.177937
N48	N	0.826681	0.104091	-0.178373
C49	C	0.870718	0.050797	0.217315
C50	C	0.870722	0.050793	0.296117
C51	C	0.826646	0.104085	0.335538
C52	C	0.782551	0.157371	0.296150
C53	C	0.782543	0.157368	0.217350
C54	C	0.821754	0.175309	0.460373
C55	C	0.821767	0.175313	0.539172
C56	C	0.826665	0.104095	0.578584
C57	C	0.831566	0.032869	0.539188
C58	C	0.831559	0.032866	0.460387
C59	C	0.826649	0.104094	0.420983
C60	C	0.870759	0.050804	0.703408
C61	C	0.870758	0.050800	0.782212
C62	C	0.782590	0.157384	0.782243
C63	C	0.782587	0.157382	0.703441
C64	C	0.826676	0.104093	0.664028
H65	H	0.044583	-0.029935	-0.000318
H66	H	0.929990	-0.150509	-0.000231
N67	N	0.408554	-0.008103	-0.091388
H68	H	0.459520	0.001024	-0.084720
H69	H	0.399010	-0.063286	-0.074992
H70	H	0.908534	-0.394387	-0.000264
N71	N	0.918306	-0.006670	0.660892
H72	H	0.946232	-0.040430	0.697799
H73	H	0.889678	-0.041151	0.628215
N74	N	0.979341	-0.519794	-0.000273
H75	H	0.984675	-0.486391	-0.046685
H76	H	0.984632	-0.486436	0.046161
N77	N	0.019130	0.247220	-0.000278
H78	H	-0.011158	0.249880	0.046128
H79	H	0.050553	0.292883	-0.000305
H80	H	0.817753	0.233307	0.428290
H81	H	0.744768	-0.397444	-0.000206
N82	N	0.257824	-0.010593	-0.091411
H83	H	0.229633	-0.044658	-0.057817
H84	H	0.226154	0.017672	-0.128925
H85	H	0.161377	0.230738	-0.000259
H86	H	0.723313	-0.641318	-0.000195
H87	H	0.918906	-0.298411	-0.000240
N88	N	0.395490	0.218763	0.090961
H89	H	0.427197	0.190544	0.128472
H90	H	0.423641	0.252820	0.057322
N91	N	0.966642	-0.689242	-0.000254
H92	H	0.952795	-0.745629	-0.000251
H93	H	0.995104	-0.679154	-0.046669
N94	N	0.244761	0.216288	0.090926
H95	H	0.193795	0.207159	0.084265
H96	H	0.257828	0.209188	0.145636
H97	H	0.691353	-0.263791	-0.000197
H98	H	0.746691	0.200773	0.671377
N99	N	0.918266	-0.006679	0.174806
H100	H	0.946195	-0.040435	0.211715
H101	H	0.889637	-0.041165	0.142134
N102	N	0.918273	-0.006679	0.338603
H103	H	0.946199	-0.040438	0.301678
H104	H	0.950739	0.023167	0.371275
N105	N	0.718629	-0.480115	-0.000207
H106	H	0.718374	-0.445862	-0.046617
H107	H	0.676079	-0.512326	-0.000168
N108	N	0.735044	0.214859	0.824749
H109	H	0.741736	0.206776	0.880644
H110	H	0.746337	0.270292	0.810962
H111	H	0.746662	0.200761	0.328250
H112	H	0.835555	-0.025124	0.571275
H113	H	0.835548	-0.025128	0.428314
H114	H	0.491926	-0.022557	-0.000194
N115	N	0.186807	-0.046440	-0.000240
H116	H	0.175992	-0.077791	-0.046649
H117	H	0.237617	-0.034722	-0.000199
H118	H	0.906656	0.007407	0.814274
N119	N	0.634161	-0.039064	-0.000141
H120	H	0.602766	-0.084755	-0.000144
H121	H	0.664452	-0.041671	-0.046544
N122	N	0.816477	0.252129	0.581661
H123	H	0.813360	0.297245	0.544738
H124	H	0.773595	0.253878	0.614377
N125	N	0.734988	0.214836	0.174871
H126	H	0.707063	0.248595	0.211798
H127	H	0.763609	0.249320	0.142157
H128	H	0.477159	0.235941	-0.000201
N129	N	0.617233	0.257095	-0.000192
H130	H	0.580677	0.301664	-0.000205
H131	H	0.647120	0.260701	0.046222
N132	N	0.686668	-0.102571	-0.000193
H133	H	0.644078	-0.134720	-0.000183
H134	H	0.686462	-0.068331	0.046216
