data_functionalizedCrystal
_audit_creation_method	'MofGen! by Chris Wilmer'
_symmetry_space_group_name_H-M	'P1'
_symmetry_Int_Tables_number	1
_symmetry_cell_setting	triclinic
loop_
_symmetry_equiv_pos_as_xyz
  x,y,z
_cell_length_a	15.297475
_cell_length_b	12.645330
_cell_length_c	15.298431
_cell_angle_alpha	99.709148
_cell_angle_beta	91.630971
_cell_angle_gamma	80.315708
loop_
_atom_site_label
_atom_site_type_symbol
_atom_site_fract_x
_atom_site_fract_y
_atom_site_fract_z
Zn1	Zn	1.253602	-0.529514	0.726683
Zn2	Zn	1.278868	-0.741748	0.580195
Zn3	Zn	1.132451	-0.539823	0.554910
Zn4	Zn	1.107107	-0.682058	0.701332
O5	O	1.193007	-0.623286	0.640780
O6	O	1.379538	-0.578334	0.728443
O7	O	1.280625	-0.744257	0.454257
O8	O	1.148555	-0.390109	0.577724
O9	O	1.398101	-0.734261	0.620819
O10	O	1.237564	-0.382535	0.703925
O11	O	1.173053	-0.595904	0.435680
O12	O	1.006504	-0.538025	0.553141
O13	O	1.105360	-0.632527	0.827279
O14	O	0.987885	-0.642524	0.660717
O15	O	1.212990	-0.520454	0.845904
O16	O	1.256051	-0.882176	0.596236
O17	O	1.129859	-0.838322	0.685235
C18	C	0.965410	-0.584916	0.601435
C19	C	0.868039	-0.568522	0.584623
C20	C	0.554948	-0.740464	0.760936
C21	C	0.646433	-0.755875	0.776728
C22	C	0.701839	-0.709038	0.728704
C23	C	0.665751	-0.646787	0.664883
C24	C	0.574257	-0.631381	0.649084
C25	C	0.721148	-0.599956	0.616852
C26	C	0.685061	-0.537705	0.553031
C27	C	0.593576	-0.522301	0.537236
C28	C	0.538170	-0.569138	0.585260
C29	C	0.812642	-0.615362	0.632651
C30	C	0.831952	-0.506279	0.520799
C31	C	0.740466	-0.490867	0.505007
C32	C	1.192967	-0.898713	0.640752
C33	C	1.193025	-1.016549	0.640783
C34	C	1.272327	-1.211672	0.584638
C35	C	1.272518	-1.089109	0.584842
C36	C	1.202083	-1.043112	0.737442
C37	C	1.202681	-1.165886	0.737175
C38	C	1.104480	-1.173900	0.601174
C39	C	1.105282	-1.051865	0.599180
C40	C	1.421493	-0.661806	0.680280
C41	C	1.518860	-0.678221	0.697112
C42	C	1.153530	-0.568683	0.869265
C43	C	1.136707	-0.545414	0.966632
C44	C	1.193068	-0.346782	0.640832
C45	C	1.193094	-0.228953	0.640854
C46	C	1.232381	-0.677608	0.413193
C47	C	1.249374	-0.700607	0.315856
C48	C	1.072795	-0.457239	1.002695
C49	C	1.056977	-0.435376	1.094174
C50	C	1.105075	-0.501681	1.149599
C51	C	1.168993	-0.589854	1.113536
C52	C	1.184807	-0.611724	1.022048
C53	C	1.217088	-0.656167	1.168951
C54	C	1.281005	-0.744339	1.132888
C55	C	1.296817	-0.766205	1.041408
C56	C	1.248719	-0.699899	0.985984
C57	C	1.201274	-0.634297	1.260440
C58	C	1.313286	-0.788782	1.279792
C59	C	1.329103	-0.810645	1.188313
H60	H	0.564198	-0.471625	0.485260
C61	C	1.361620	-1.059953	0.622016
C62	C	1.379525	-0.942500	0.629595
C63	C	1.468629	-0.913345	0.666772
C64	C	1.539829	-1.001645	0.696370
C65	C	1.521926	-1.119106	0.688792
C66	C	1.432821	-1.148261	0.651615
H67	H	1.326816	-0.877128	0.607684
H68	H	1.481882	-0.826392	0.672382
H69	H	1.605790	-0.980063	0.723891
H70	H	1.574635	-1.184478	0.710703
H71	H	1.419569	-1.235214	0.646005
C72	C	0.700762	-0.422399	0.434802
C73	C	0.631297	-0.319560	0.462030
C74	C	0.591591	-0.251093	0.391826
C75	C	0.621350	-0.285463	0.294396
C76	C	0.690819	-0.388307	0.267164
C77	C	0.730525	-0.456775	0.337367
H78	H	0.609265	-0.294112	0.534158
H79	H	0.540166	-0.174960	0.411986
H80	H	0.591957	-0.234779	0.242427
H81	H	0.712851	-0.413755	0.195035
H82	H	0.781950	-0.532907	0.317207
C83	C	1.289545	-1.213380	0.780059
C84	C	1.354536	-1.306384	0.726474
C85	C	1.441403	-1.353873	0.769357
C86	C	1.463279	-1.308357	0.865823
C87	C	1.398286	-1.215348	0.919413
C88	C	1.311419	-1.167860	0.876531
H89	H	1.338344	-1.340082	0.655059
H90	H	1.489515	-1.422724	0.729685
H91	H	1.527583	-1.343511	0.897567
H92	H	1.414479	-1.181651	0.990828
H93	H	1.263308	-1.099009	0.916202
H94	H	1.093161	-1.216863	0.531083
C95	C	0.852331	-0.683827	0.702855
C96	C	0.903349	-0.632166	0.782561
C97	C	0.943037	-0.700634	0.852771
C98	C	0.931707	-0.820762	0.843275
C99	C	0.880688	-0.872429	0.763566
C100	C	0.841000	-0.803961	0.693355
H101	H	0.911737	-0.543234	0.789593
H102	H	0.980805	-0.662386	0.911777
H103	H	0.961087	-0.871446	0.895249
H104	H	0.872299	-0.961361	0.756533
H105	H	0.803232	-0.842209	0.634349
C106	C	0.494003	-0.791979	0.813757
C107	C	0.393370	-0.775032	0.796377
C108	C	0.332423	-0.826552	0.849203
C109	C	0.372110	-0.895019	0.919409
C110	C	0.472748	-0.911969	0.936791
C111	C	0.533694	-0.860449	0.883966
H112	H	0.363987	-0.724346	0.744404
H113	H	0.257924	-0.814004	0.836335
H114	H	0.326994	-0.933157	0.958513
H115	H	0.502131	-0.962655	0.988764
H116	H	0.608194	-0.872997	0.896834
H117	H	1.381145	-0.882436	1.158937
H118	H	1.337947	-1.250217	0.611913
C119	C	1.126942	-1.178409	0.796854
C120	C	1.066109	-1.076761	0.844607
C121	C	0.990376	-1.089278	0.904290
C122	C	0.975474	-1.203443	0.916221
C123	C	1.036308	-1.305099	0.868467
C124	C	1.112042	-1.292582	0.808784
H125	H	1.077139	-0.992242	0.835776
H126	H	0.945342	-1.014025	0.939640
H127	H	0.919412	-1.212709	0.960402
H128	H	1.025279	-1.389618	0.877298
H129	H	1.157075	-1.367835	0.773434
C130	C	1.095660	-1.030313	0.502975
C131	C	1.167114	-0.980879	0.462352
C132	C	1.157497	-0.959326	0.366146
C133	C	1.076425	-0.987206	0.310564
C134	C	1.004965	-1.036643	0.351187
C135	C	1.014582	-1.058196	0.447392
H136	H	1.227134	-0.960238	0.503498
H137	H	1.210397	-0.922730	0.336074
H138	H	1.069306	-0.971252	0.239346
H139	H	0.944945	-1.057284	0.310041
H140	H	0.961682	-1.094792	0.477464
H141	H	0.463674	-0.556591	0.572407
H142	H	1.145439	-0.993541	0.781136
C143	C	1.087684	-0.477631	1.250228
C144	C	1.163171	-0.452496	1.315103
C145	C	1.145780	-0.428438	1.415737
C146	C	1.052902	-0.429515	1.451495
C147	C	0.977408	-0.454651	1.386618
C148	C	0.994799	-0.478709	1.285985
H149	H	1.231931	-0.451698	1.288634
H150	H	1.201666	-0.409831	1.463762
H151	H	1.040028	-0.411706	1.525990
H152	H	0.908649	-0.455450	1.413088
H153	H	0.938913	-0.497317	1.237959
H154	H	1.265557	-1.018751	0.769395
C155	C	1.267404	-1.067111	0.488688
C156	C	1.342211	-1.020163	0.451211
C157	C	1.337120	-0.998191	0.355048
C158	C	1.257223	-1.023165	0.296362
C159	C	1.182411	-1.070116	0.333837
C160	C	1.187502	-1.092088	0.430000
H161	H	1.401360	-1.001673	0.494656
H162	H	1.392501	-0.963435	0.327307
H163	H	1.253455	-1.006900	0.225176
H164	H	1.123262	-1.088606	0.290393
H165	H	1.132120	-1.126844	0.457741
H166	H	1.044359	-1.001386	0.635836
H167	H	1.045642	-1.182635	0.641923
H168	H	0.776329	-0.721590	0.741566
C169	C	0.986675	-0.338388	1.133838
C170	C	0.907015	-0.357691	1.184824
C171	C	0.836709	-0.260696	1.224487
C172	C	0.846064	-0.144397	1.213165
C173	C	0.925728	-0.125089	1.162176
C174	C	0.996033	-0.222084	1.122513
H175	H	0.900087	-0.443787	1.193208
H176	H	0.777736	-0.274989	1.262232
H177	H	0.794019	-0.072595	1.242526
H178	H	0.932656	-0.038993	1.153792
H179	H	1.055006	-0.207791	1.084768
H180	H	0.877064	-0.468142	0.481692
H181	H	1.268741	-1.255006	0.513301
H182	H	1.261597	-0.717692	0.911494
H183	H	1.149232	-0.562505	1.289793
H184	H	0.675809	-0.806563	0.828689
H185	H	1.033635	-0.403268	0.957560
H186	H	1.348852	-0.838013	1.012047
H187	H	1.352453	-0.842772	1.324920
