data_functionalizedCrystal
_audit_creation_method	'MofGen! by Chris Wilmer'
_symmetry_space_group_name_H-M	'P1'
_symmetry_Int_Tables_number	1
_symmetry_cell_setting	triclinic
loop_
_symmetry_equiv_pos_as_xyz
  x,y,z
_cell_length_a	15.624803
_cell_length_b	13.101039
_cell_length_c	15.538191
_cell_angle_alpha	87.970672
_cell_angle_beta	66.736403
_cell_angle_gamma	111.406725
loop_
_atom_site_label
_atom_site_type_symbol
_atom_site_fract_x
_atom_site_fract_y
_atom_site_fract_z
O1	O	1.197552	0.530325	0.090549
O2	O	0.922259	0.428002	0.111445
O3	O	1.113494	0.499086	-0.037281
O4	O	1.006317	0.459240	0.239276
O5	O	1.099767	0.323554	-0.026593
O6	O	0.908532	0.252469	0.122134
O7	O	1.183826	0.354793	0.101238
Zn8	Zn	1.044000	0.275762	0.113383
Zn9	Zn	1.062085	0.507033	0.099300
O10	O	0.992590	0.283708	0.249964
C11	C	0.881023	0.327460	0.116907
C12	C	0.778607	0.289393	0.117244
N13	N	1.031664	0.117928	0.122993
C14	C	0.479306	0.642723	0.089164
C15	C	0.383079	0.606956	0.089462
C16	C	0.368092	0.415589	0.101114
C17	C	0.464321	0.451341	0.100812
C18	C	0.519921	0.564910	0.094838
C19	C	0.504936	0.373528	0.106486
C20	C	0.601154	0.409277	0.106189
C21	C	0.656759	0.522840	0.100218
C22	C	0.616139	0.600659	0.094541
C23	C	0.449331	0.259958	0.112467
C24	C	0.489946	0.182145	0.118141
C25	C	0.586170	0.217895	0.117838
C26	C	0.641774	0.331458	0.111867
C27	C	0.626789	0.140076	0.123515
C28	C	0.723008	0.175825	0.123218
C29	C	0.737993	0.367207	0.111570
C30	C	1.014877	-0.097355	0.136076
C31	C	1.091213	-0.119855	0.076602
C32	C	1.081873	-0.239646	0.083882
C33	C	1.024216	0.022446	0.128798
C34	C	1.225062	0.455337	0.095776
C35	C	1.327478	0.493410	0.095439
C36	C	1.117845	0.415492	-0.067273
C37	C	1.151247	0.427917	-0.172564
N38	N	1.074431	0.664871	0.089683
C39	C	0.819413	0.304556	-0.453239
C40	C	0.850821	0.316228	-0.552178
C41	C	1.027489	0.381894	-0.578408
C42	C	0.996096	0.370233	-0.479470
C43	C	0.892056	0.331562	-0.416892
C44	C	1.068739	0.397239	-0.443123
C45	C	1.037347	0.385573	-0.344193
C46	C	0.933312	0.346901	-0.281609
C47	C	0.860664	0.319896	-0.317962
C48	C	1.172778	0.435902	-0.505702
C49	C	1.245421	0.462908	-0.469356
C50	C	1.214030	0.451249	-0.370424
C51	C	1.109995	0.412577	-0.307840
C52	C	1.286678	0.478254	-0.334071
C53	C	1.255286	0.466588	-0.235141
C54	C	1.078603	0.400911	-0.208910
C55	C	0.988240	0.367305	0.279956
C56	C	0.954839	0.354887	0.385246
H57	H	0.783267	0.459686	0.106702
H58	H	1.371386	0.509729	-0.385036
Br59	Br	0.894265	-0.215188	0.230051
H60	H	0.993884	0.369430	-0.157956
Br61	Br	0.787340	0.571361	0.099823
H62	H	1.163581	-0.049153	0.020219
Br63	Br	0.691613	0.754793	0.086416
Br64	Br	0.890703	0.331052	-0.147343
H65	H	0.775945	0.288414	-0.267007
H66	H	0.734694	0.273075	-0.402284
Br67	Br	0.752221	0.279561	-0.601501
Br68	Br	0.292624	0.261464	0.109229
Br69	Br	0.554779	0.796857	0.081039
Br70	Br	0.327959	0.712572	0.081769
Br71	Br	0.414479	0.028020	0.126257
H72	H	0.370982	0.230854	0.112715
H73	H	1.330130	0.494389	-0.520319
H74	H	0.581501	0.047607	0.128389
Br75	Br	1.168680	0.434361	-0.663341
Br76	Br	0.778131	0.070220	0.130925
Br77	Br	1.353871	0.503213	-0.185806
H78	H	1.198334	0.445409	-0.586257
