data_functionalizedCrystal
_audit_creation_method	'MofGen! by Chris Wilmer'
_symmetry_space_group_name_H-M	'P1'
_symmetry_Int_Tables_number	1
_symmetry_cell_setting	triclinic
loop_
_symmetry_equiv_pos_as_xyz
  x,y,z
_cell_length_a	10.654550
_cell_length_b	11.792241
_cell_length_c	9.130313
_cell_angle_alpha	89.998583
_cell_angle_beta	89.996220
_cell_angle_gamma	84.339159
loop_
_atom_site_label
_atom_site_type_symbol
_atom_site_fract_x
_atom_site_fract_y
_atom_site_fract_z
O1	O	1.667383	0.159415	-0.121920
O2	O	1.301862	0.174603	-0.121897
O3	O	1.493493	0.001859	-0.121899
O4	O	1.475752	0.332159	-0.121918
O5	O	1.493490	0.001864	0.121700
O6	O	1.301859	0.174608	0.121702
O7	O	1.667381	0.159419	0.121678
Cu8	Cu	1.484620	0.167014	0.143933
Cu9	Cu	1.484623	0.167008	-0.144151
O10	O	1.475750	0.332164	0.121680
C11	C	1.255066	0.173490	-0.000095
C12	C	1.115632	0.170154	-0.000085
C13	C	1.492377	-0.040432	-0.000100
C14	C	1.489042	-0.166454	-0.000101
C15	C	1.035858	0.271863	-0.000113
C16	C	0.904847	0.268721	-0.000138
C17	C	0.933394	0.062152	-0.000114
C18	C	1.064404	0.065295	-0.000079
C19	C	1.019376	0.391124	-0.000133
C20	C	0.888364	0.387982	-0.000158
C21	C	1.482908	-0.397180	-0.000125
C22	C	1.486316	-0.268787	-0.000112
C23	C	1.714177	0.160532	-0.000127
C24	C	1.853611	0.163869	-0.000146
C25	C	1.476865	0.374455	-0.000122
C26	C	1.480201	0.500476	-0.000130
N27	N	1.484627	0.167017	0.346555
N28	N	1.484625	0.166996	-0.346774
C29	C	1.569503	0.090552	0.423206
C30	C	1.569500	0.090539	0.576543
C31	C	1.399740	0.243465	0.576564
C32	C	1.399739	0.243472	0.423230
C33	C	1.667516	0.002265	0.423195
C34	C	1.667513	0.002251	0.576532
H35	H	1.129352	-0.017527	-0.000036
N36	N	1.308194	0.325923	0.659276
H37	H	1.323194	0.406607	0.632598
H38	H	1.219018	0.312000	0.632561
H39	H	1.646320	-0.084976	0.381582
N40	N	1.788189	0.038880	0.360170
H41	H	1.846497	0.056564	0.442498
H42	H	1.830467	-0.024584	0.297871
N43	N	1.066473	0.441441	-0.139430
H44	H	1.161112	0.441917	-0.134318
H45	H	1.043700	0.394031	-0.225794
N46	N	0.827716	0.435712	0.139143
H47	H	0.894772	0.461088	0.206469
H48	H	0.765024	0.502963	0.114797
N49	N	1.795274	0.028010	0.631658
H50	H	1.814111	0.105300	0.594829
H51	H	1.795237	0.027945	0.742274
H52	H	0.891668	-0.023221	-0.000132
H53	H	1.637233	-0.080191	0.624086
H54	H	0.846505	0.432916	-0.102114
N55	N	1.058055	0.452916	0.134900
H56	H	1.032157	0.411645	0.225261
H57	H	1.152563	0.455204	0.134845
N58	N	1.308172	0.325924	0.340553
H59	H	1.254398	0.374352	0.412397
H60	H	1.356570	0.376520	0.276925
