data_functionalizedCrystal
_audit_creation_method	'MofGen! by Chris Wilmer'
_symmetry_space_group_name_H-M	'P1'
_symmetry_Int_Tables_number	1
_symmetry_cell_setting	triclinic
loop_
_symmetry_equiv_pos_as_xyz
  x,y,z
_cell_length_a	16.992694
_cell_length_b	10.489741
_cell_length_c	15.455313
_cell_angle_alpha	92.692689
_cell_angle_beta	87.142206
_cell_angle_gamma	87.603699
loop_
_atom_site_label
_atom_site_type_symbol
_atom_site_fract_x
_atom_site_fract_y
_atom_site_fract_z
O1	O	1.045321	0.265388	-0.072021
O2	O	0.817021	0.262418	-0.072047
O3	O	0.936366	0.078758	-0.072028
O4	O	0.925976	0.449049	-0.072040
O5	O	0.929541	0.089214	0.072233
O6	O	0.810196	0.272874	0.072214
O7	O	1.038496	0.275845	0.072240
Cu8	Cu	0.923723	0.275314	0.085399
Cu9	Cu	0.931794	0.262948	-0.085206
O10	O	0.919151	0.459505	0.072221
C11	C	0.784374	0.263826	0.000081
C12	C	0.697266	0.252430	0.000071
C13	C	0.647647	0.362380	0.000068
C14	C	0.565799	0.351666	0.000081
C15	C	0.533573	0.231001	0.000089
C16	C	0.583198	0.121044	0.000095
C17	C	0.665044	0.131759	0.000089
C18	C	0.289723	0.186590	0.000114
C19	C	0.207871	0.175882	0.000117
C20	C	0.190477	0.406505	0.000105
C21	C	0.272325	0.417210	0.000094
C22	C	0.321944	0.307253	0.000104
N23	N	0.449911	0.220047	0.000099
N24	N	0.405603	0.318209	0.000100
C25	C	0.932168	0.036386	0.000102
C26	C	0.929821	-0.105448	0.000100
C27	C	0.853885	-0.180195	0.000085
C28	C	0.886392	-0.264041	0.071217
C29	C	0.893138	-0.274324	-0.071013
C30	C	0.962356	-0.187422	0.071291
C31	C	0.969095	-0.197700	-0.071003
C32	C	1.001656	-0.281512	0.000146
C33	C	1.071143	0.274436	0.000111
C34	C	1.158251	0.285832	0.000115
C35	C	0.923349	0.501877	0.000090
C36	C	0.925697	0.643710	0.000086
N37	N	0.918052	0.284011	0.205394
N38	N	0.937472	0.254242	-0.205201
C39	C	0.968772	0.206019	0.250796
C40	C	0.964490	0.212608	0.341603
C41	C	0.909492	0.297199	0.387007
C42	C	0.858766	0.375195	0.341598
C43	C	0.863045	0.368597	0.250793
C44	C	0.891025	0.325640	0.658585
C45	C	0.886752	0.332234	0.749397
C46	C	0.992475	0.169646	0.749396
C47	C	0.996751	0.163062	0.658589
C48	C	0.946023	0.241053	0.613188
N49	N	0.905116	0.303939	0.479826
N50	N	0.950396	0.234305	0.520370
H51	H	0.330113	0.097055	0.000123
C52	C	0.683087	0.495121	0.000060
N53	N	0.709778	0.595106	0.000058
C54	C	1.016308	-0.157869	-0.152241
N55	N	1.051863	-0.127867	-0.213437
C56	C	0.511220	0.472621	0.000093
N57	N	0.470110	0.563730	0.000109
H58	H	0.791448	-0.135971	0.000150
H59	H	0.556953	0.022797	0.000114
H60	H	0.705444	0.042227	0.000090
C61	C	1.001874	-0.136105	0.152627
N62	N	1.031635	-0.097449	0.213890
C63	C	1.086071	-0.340946	0.000211
N64	N	1.149652	-0.385716	0.000265
H65	H	0.298558	0.515467	0.000076
H66	H	0.851416	-0.293490	0.131347
H67	H	0.181636	0.077618	0.000124
C68	C	0.835324	0.411610	0.608657
N69	N	0.793405	0.476429	0.571048
H70	H	0.841963	0.401123	0.786361
C71	C	0.853559	-0.325839	-0.152255
N72	N	0.823743	-0.364634	-0.213444
H73	H	1.013560	0.137142	0.213834
C74	C	1.020268	0.126777	0.391541
N75	N	1.062274	0.062112	0.429154
H76	H	1.041535	0.094182	0.621623
H77	H	0.150069	0.496026	0.000099
C78	C	1.048265	0.083851	0.799344
N79	N	1.090286	0.019221	0.836965
H80	H	0.813982	0.444065	0.378571
C81	C	0.807255	0.454407	0.200851
N82	N	0.765233	0.519042	0.163236
