data_functionalizedCrystal
_audit_creation_method	'MofGen! by Chris Wilmer'
_symmetry_space_group_name_H-M	'P1'
_symmetry_Int_Tables_number	1
_symmetry_cell_setting	triclinic
loop_
_symmetry_equiv_pos_as_xyz
  x,y,z
_cell_length_a	6.817900
_cell_length_b	11.168129
_cell_length_c	11.102193
_cell_angle_alpha	91.985940
_cell_angle_beta	108.604059
_cell_angle_gamma	108.508637
loop_
_atom_site_label
_atom_site_type_symbol
_atom_site_fract_x
_atom_site_fract_y
_atom_site_fract_z
V1	V	-4.111010	-0.174714	-0.396269
O2	O	-4.070572	0.008386	-0.388714
O3	O	-4.087291	-0.346419	-0.393569
O4	O	-4.087792	-0.172030	-0.569090
O5	O	-4.070067	-0.167210	-0.211978
V6	V	-4.588177	-0.152812	-0.374225
O7	O	-4.386211	-0.222756	-0.444624
O8	O	-4.763173	-0.104770	-0.325869
O9	O	-4.388689	0.018893	-0.376924
O10	O	-4.746011	-0.335913	-0.381779
O11	O	-4.746516	-0.160317	-0.558515
O12	O	-4.388188	-0.155496	-0.201403
C13	C	-3.937481	-0.388277	-0.387321
C14	C	-3.999542	-0.528648	-0.386266
C15	C	-3.970083	-0.574092	-0.275188
C16	C	-4.034226	-0.719172	-0.274095
C17	C	-3.938118	-0.165825	-0.611213
C18	C	-4.000582	-0.164768	-0.752496
C19	C	-4.120242	-0.396044	-0.788837
C20	C	-4.209409	-0.511180	-0.873381
C21	C	-4.268098	-0.510179	-1.006127
C22	C	-4.237621	-0.394030	-1.054330
C23	C	-4.148455	-0.278894	-0.969787
C24	C	-4.089765	-0.279907	-0.837040
C25	C	-4.028810	-0.047620	-0.933446
C26	C	-3.970105	-0.048618	-0.800699
C27	C	-3.998333	0.068529	-0.981650
C28	C	-3.909150	0.183669	-0.897106
C29	C	-3.850458	0.182663	-0.764353
C30	C	-3.880938	0.066518	-0.716156
C31	C	-4.201841	0.060744	-0.383169
C32	C	-4.119019	0.201114	-0.384232
C33	C	-4.201203	-0.161705	-0.159273
C34	C	-4.117977	-0.162756	-0.017990
H35	H	-4.144130	-0.759748	-0.479336
O36	O	-4.238413	-0.623893	-0.826360
C37	C	-4.066235	-0.752903	-0.691156
C38	C	-4.033189	-0.625259	-0.744407
H39	H	-3.900347	-0.754039	-0.624865
H40	H	-4.139867	-0.835171	-0.774221
H41	H	-4.183009	-0.763961	-0.634886
H42	H	-3.916376	-0.614077	-0.800660
H43	H	-3.959663	-0.543055	-0.661286
O44	O	-4.354606	-0.622132	-1.088076
C45	C	-4.467238	-0.851643	-1.110134
C46	C	-4.369196	-0.724951	-1.017182
H47	H	-4.479109	-0.934807	-1.052855
H48	H	-4.356439	-0.852193	-1.168201
H49	H	-4.638912	-0.861719	-1.178181
H50	H	-4.197543	-0.714793	-0.949057
H51	H	-4.480152	-0.724457	-0.959207
O52	O	-4.294677	-0.393282	-1.183312
C53	C	-4.444709	-0.518746	-1.393754
C54	C	-4.380141	-0.519778	-1.247711
H55	H	-4.513864	-0.621008	-1.445864
H56	H	-4.292909	-0.462454	-1.416862
H57	H	-4.575309	-0.472000	-1.426657
H58	H	-4.249599	-0.566545	-1.214705
H59	H	-4.532051	-0.576029	-1.224685
O60	O	-3.823545	0.065613	-0.587187
C61	C	-3.531682	0.133670	-0.380549
C62	C	-3.596352	0.134779	-0.526584
H63	H	-3.348005	0.189607	-0.331506
H64	H	-3.568615	0.030907	-0.360550
H65	H	-3.630613	0.179748	-0.341469
H66	H	-3.497462	0.088762	-0.565764
H67	H	-3.559473	0.237567	-0.546496
H68	H	-3.897388	-0.505590	-0.180900
H69	H	-3.884359	0.278228	-0.936366
H70	H	-4.009098	-0.758318	-0.178995
H71	H	-4.072256	-0.597150	-0.480555
H72	H	-4.072429	-0.396870	-0.680750
H73	H	-4.046142	0.069336	-1.089741
H74	H	-3.777864	0.276421	-0.695523
