data_functionalizedCrystal
_audit_creation_method	'MofGen! by Chris Wilmer'
_symmetry_space_group_name_H-M	'P1'
_symmetry_Int_Tables_number	1
_symmetry_cell_setting	triclinic
loop_
_symmetry_equiv_pos_as_xyz
  x,y,z
_cell_length_a	12.645331
_cell_length_b	25.639240
_cell_length_c	12.645323
_cell_angle_alpha	90.039057
_cell_angle_beta	90.022676
_cell_angle_gamma	90.031736
loop_
_atom_site_label
_atom_site_type_symbol
_atom_site_fract_x
_atom_site_fract_y
_atom_site_fract_z
Zn1	Zn	1.620620	-0.208161	0.599342
Zn2	Zn	1.620455	-0.295600	0.422038
Zn3	Zn	1.443335	-0.208179	0.422086
Zn4	Zn	1.443270	-0.295566	0.599253
O5	O	1.531920	-0.251876	0.510680
O6	O	1.768946	-0.219767	0.575839
O7	O	1.596918	-0.284025	0.273697
O8	O	1.466948	-0.135011	0.445657
O9	O	1.768824	-0.284008	0.445574
O10	O	1.597199	-0.134998	0.575886
O11	O	1.466788	-0.219797	0.273732
O12	O	1.294979	-0.219764	0.445571
O13	O	1.466838	-0.283949	0.747612
O14	O	1.294931	-0.283967	0.575735
O15	O	1.597136	-0.219734	0.747677
O16	O	1.596855	-0.368760	0.445489
O17	O	1.466678	-0.368735	0.575688
C18	C	1.256490	-0.251864	0.510649
C19	C	1.138660	-0.251871	0.510661
C20	C	0.971091	-0.211295	0.429227
C21	C	1.093651	-0.211400	0.428868
C22	C	1.094111	-0.306949	0.480119
C23	C	0.971512	-0.306727	0.479563
C24	C	0.971518	-0.237893	0.622952
C25	C	1.094125	-0.236663	0.622329
C26	C	1.531770	-0.387719	0.510597
C27	C	1.531803	-0.445833	0.510597
C28	C	1.599775	-0.806151	0.578612
C29	C	1.599807	-0.860755	0.578634
O30	O	1.657421	-0.888953	0.636378
N31	N	1.532067	-0.888115	0.510782
C32	C	1.464284	-0.860868	0.442912
O33	O	1.406669	-0.889154	0.385202
C34	C	1.464249	-0.806265	0.442897
C35	C	1.532000	-0.778908	0.510745
C36	C	1.667521	-0.778793	0.646456
C37	C	1.667490	-0.724193	0.646433
C38	C	1.599715	-0.696950	0.578566
C39	C	1.531970	-0.724307	0.510722
C40	C	1.396461	-0.779019	0.375033
C41	C	1.396431	-0.724412	0.375024
C42	C	1.464182	-0.697055	0.442872
C43	C	1.464165	-0.642464	0.442832
N44	N	1.531904	-0.615103	0.510683
C45	C	1.599679	-0.642346	0.578550
C46	C	1.464364	-0.975539	0.442951
C47	C	1.464404	-1.030141	0.442960
C48	C	1.599925	-1.030024	0.578684
C49	C	1.599889	-0.975421	0.578668
C50	C	1.532103	-0.948179	0.510803
C51	C	1.599612	-0.527681	0.578496
C52	C	1.599578	-0.473076	0.578464
C53	C	1.464054	-0.473198	0.442745
C54	C	1.464090	-0.527798	0.442773
C55	C	1.531873	-0.555039	0.510657
O56	O	1.406577	-0.614231	0.385120
O57	O	1.657275	-0.614054	0.636261
C58	C	1.808425	-0.251889	0.510711
C59	C	1.926255	-0.251895	0.510724
C60	C	1.531998	-0.251836	0.787185
C61	C	1.532031	-0.251819	0.905015
C62	C	1.532099	-0.115503	0.510786
C63	C	1.532176	-0.057389	0.510832
C64	C	1.531903	-0.251879	0.235250
C65	C	1.532075	-0.251749	0.117421
C66	C	1.449808	-0.292026	1.072539
C67	C	1.450023	-0.292225	0.949979
C68	C	1.643723	-0.266773	0.949528
C69	C	1.643272	-0.267025	1.072126
C70	C	1.503620	-0.196432	1.072241
C71	C	1.501127	-0.196764	0.949634
H72	H	1.124768	-0.264076	0.686301
H73	H	1.123773	-0.170558	0.448015
H74	H	0.940643	-0.198432	0.650724
C75	C	1.742005	-0.694102	0.721078
C76	C	1.695996	-0.656551	0.804254
C77	C	1.770510	-0.626463	0.878907
C78	C	1.891033	-0.633926	0.870385
C79	C	1.937048	-0.671479	0.787206
C80	C	1.862534	-0.701566	0.712553
H81	H	1.606772	-0.651025	0.810566
H82	H	1.736446	-0.598665	0.940482
H83	H	1.946192	-0.611653	0.925648
H84	H	2.026272	-0.677005	0.780894
H85	H	1.896599	-0.729365	0.650978
H86	H	0.941649	-0.170330	0.448169
C87	C	1.742087	-0.808753	0.721114
C88	C	1.862596	-0.801186	0.712556
C89	C	1.937176	-0.831141	0.787212
C90	C	1.891247	-0.868664	0.870426
C91	C	1.770731	-0.876233	0.878987
C92	C	1.696152	-0.846278	0.804331
H93	H	1.896601	-0.773407	0.650953
H94	H	2.026389	-0.825537	0.780874
H95	H	1.946455	-0.890839	0.925691
H96	H	1.736726	-0.904012	0.940590
H97	H	1.606938	-0.851882	0.810669
C98	C	0.932357	-0.277838	0.704994
C99	C	0.959461	-0.336027	0.691801
C100	C	0.920298	-0.375974	0.773833
C101	C	0.854030	-0.357733	0.869058
C102	C	0.826922	-0.299541	0.882255
C103	C	0.866086	-0.259594	0.800223
H104	H	1.008520	-0.349533	0.621306
H105	H	0.940365	-0.419052	0.764063
H106	H	0.825039	-0.387304	0.929783
H107	H	0.777864	-0.286035	0.952749
H108	H	0.846018	-0.216516	0.809992
H109	H	1.655058	-0.953149	0.633917
H110	H	1.123250	-0.196132	0.645359
H111	H	1.341228	-0.702234	0.319761
C112	C	1.674477	-1.059997	0.653346
C113	C	1.757746	-1.097523	0.607499
C114	C	1.832295	-1.127496	0.682155
C115	C	1.823574	-1.119945	0.802659
C116	C	1.740302	-1.082418	0.848512
C117	C	1.665753	-1.052444	0.773856
H118	H	1.764205	-1.103114	0.518289
H119	H	1.893939	-1.155277	0.648211
H120	H	1.878760	-1.142133	0.857924
H121	H	1.733843	-1.076826	0.937722
H122	H	1.604109	-1.024664	0.807800
H123	H	1.408875	-0.451008	0.387485
H124	H	1.409167	-0.953361	0.387678
C125	C	1.389883	-1.060230	0.368318
C126	C	1.398591	-1.052766	0.247811
C127	C	1.324061	-1.082852	0.173171
C128	C	1.240823	-1.120403	0.219039
C129	C	1.232111	-1.127869	0.339553
C130	C	1.306641	-1.097783	0.414192
H131	H	1.460212	-1.024967	0.213851
H132	H	1.330511	-1.077325	0.083959
H133	H	1.185652	-1.142675	0.163787
H134	H	1.170490	-1.155668	0.373512
H135	H	1.300192	-1.103310	0.503404
H136	H	1.341291	-0.801284	0.319783
C137	C	1.389579	-0.557898	0.368131
C138	C	1.398296	-0.550442	0.247622
C139	C	1.323779	-0.580537	0.172985
C140	C	1.240545	-0.618089	0.218857
C141	C	1.231824	-0.625547	0.339372
C142	C	1.306341	-0.595451	0.414009
H143	H	1.459914	-0.522642	0.213659
H144	H	1.330235	-0.575016	0.083772
H145	H	1.185383	-0.640368	0.163606
H146	H	1.170206	-0.653346	0.373335
H147	H	1.299885	-0.600972	0.503222
C148	C	1.338132	-0.279582	0.909323
C149	C	1.285608	-0.227349	0.938517
C150	C	1.173709	-0.214706	0.897874
C151	C	1.114333	-0.254297	0.828037
C152	C	1.166856	-0.306533	0.798839
C153	C	1.278756	-0.319175	0.839482
H154	H	1.329562	-0.198039	0.990218
H155	H	1.134829	-0.176038	0.919488
H156	H	1.031499	-0.244938	0.797950
H157	H	1.122903	-0.335843	0.747138
H158	H	1.317636	-0.357844	0.817867
H159	H	0.940238	-0.220447	0.346551
C160	C	1.474936	-0.347082	1.114135
C161	C	1.500359	-0.391397	1.035930
C162	C	1.525494	-0.446452	1.077526
C163	C	1.525207	-0.457192	1.197327
C164	C	1.499783	-0.412876	1.275539
C165	C	1.474648	-0.357821	1.233943
H166	H	1.500572	-0.383448	0.947240
H167	H	1.544315	-0.479258	1.019628
H168	H	1.543814	-0.497947	1.228119
H169	H	1.499570	-0.420826	1.364229
H170	H	1.455827	-0.325016	1.291842
H171	H	1.654754	-0.450803	0.633714
C172	C	1.676877	-0.320830	0.908055
C173	C	1.699255	-0.365450	0.986375
C174	C	1.732401	-0.419509	0.944905
C175	C	1.743170	-0.428949	0.825115
C176	C	1.720791	-0.384328	0.746788
C177	C	1.687644	-0.330269	0.788257
H178	H	1.691284	-0.358464	1.075058
H179	H	1.748967	-0.452541	1.002889
H180	H	1.767707	-0.468967	0.794417
H181	H	1.728762	-0.391314	0.658105
H182	H	1.671078	-0.297237	0.730273
H183	H	1.366738	-0.282758	1.102017
C184	C	1.584560	-0.155889	1.111457
C185	C	1.676027	-0.172859	1.184109
C186	C	1.756971	-0.132322	1.223330
C187	C	1.746448	-0.074816	1.189898
C188	C	1.654978	-0.057843	1.117242
C189	C	1.574034	-0.098380	1.078021
H190	H	1.683820	-0.215432	1.208861
H191	H	1.824683	-0.144887	1.277115
H192	H	1.806368	-0.044808	1.218932
H193	H	1.647185	-0.015271	1.092490
H194	H	1.506321	-0.085815	1.024235
C195	C	1.728894	-0.229125	1.112256
C196	C	1.819818	-0.249416	1.182022
C197	C	1.905444	-0.211522	1.222150
C198	C	1.900147	-0.153336	1.192512
C199	C	1.809220	-0.133042	1.122742
C200	C	1.723593	-0.170936	1.082614
H201	H	1.823742	-0.292491	1.203965
H202	H	1.972754	-0.226545	1.273798
H203	H	1.963533	-0.125284	1.222217
H204	H	1.805295	-0.089966	1.100799
H205	H	1.656283	-0.155913	1.030966
C206	C	1.390089	-0.181523	0.910333
C207	C	1.327738	-0.218877	0.838066
C208	C	1.216699	-0.203639	0.798760
C209	C	1.168009	-0.151047	0.831721
C210	C	1.230360	-0.113690	0.903992
C211	C	1.341400	-0.128928	0.943299
H212	H	1.363780	-0.257812	0.813663
H213	H	1.170543	-0.231294	0.745259
H214	H	1.085811	-0.139767	0.802624
H215	H	1.194318	-0.074755	0.928395
H216	H	1.387556	-0.101274	0.996799
H217	H	1.122924	-0.220654	0.345703
H218	H	1.468806	-0.333234	0.920644
H219	H	0.942860	-0.318601	0.397518
H220	H	0.941851	-0.338001	0.536332
H221	H	1.667396	-0.307463	1.100716
H222	H	1.654799	-0.549854	0.633781
H223	H	1.556672	-0.165168	0.919029
H224	H	1.123264	-0.338007	0.537613
H225	H	1.423594	-0.182801	1.103152
H226	H	1.706661	-0.238364	0.920407
H227	H	1.124760	-0.319027	0.398954
