data_functionalizedCrystal
_audit_creation_method	'MofGen! by Chris Wilmer'
_symmetry_space_group_name_H-M	'P1'
_symmetry_Int_Tables_number	1
_symmetry_cell_setting	triclinic
loop_
_symmetry_equiv_pos_as_xyz
  x,y,z
_cell_length_a	11.026607
_cell_length_b	14.044220
_cell_length_c	10.065875
_cell_angle_alpha	99.592716
_cell_angle_beta	79.302338
_cell_angle_gamma	100.887447
loop_
_atom_site_label
_atom_site_type_symbol
_atom_site_fract_x
_atom_site_fract_y
_atom_site_fract_z
O1	O	1.670494	0.393284	-0.113515
O2	O	1.312203	0.347236	-0.113514
O3	O	1.485969	0.231359	-0.113501
O4	O	1.496729	0.509161	-0.113528
O5	O	1.452846	0.253569	0.113485
O6	O	1.279081	0.369446	0.113472
O7	O	1.637372	0.415494	0.113471
Zn8	Zn	1.452967	0.395996	0.149510
Zn9	Zn	1.496608	0.366734	-0.149554
O10	O	1.463606	0.531371	0.113458
C11	C	1.249512	0.349846	-0.000021
C12	C	1.112056	0.324521	-0.000020
C13	C	1.045821	0.394445	-0.000028
C14	C	0.903753	0.368273	-0.000027
C15	C	1.464699	0.206346	-0.000008
C16	C	1.450655	0.098724	-0.000006
C17	C	1.424983	-0.098320	-0.000025
C18	C	1.524588	-0.138958	-0.000030
C19	C	1.510304	-0.248600	-0.000041
C20	C	1.439265	0.011332	-0.000015
C21	C	1.700064	0.412884	-0.000025
C22	C	1.837520	0.438207	-0.000035
C23	C	1.484876	0.556383	-0.000039
C24	C	1.498921	0.664004	-0.000049
N25	N	1.423193	0.415967	0.353614
N26	N	1.526391	0.346756	-0.353657
C27	C	1.486240	0.373675	0.421397
C28	C	1.463335	0.389055	0.578563
H29	H	1.620605	-0.091415	-0.000122
H30	H	1.063591	0.245278	-0.000048
H31	H	1.328988	-0.145870	-0.000029
H32	H	1.557169	0.326076	0.363079
H33	H	1.597325	0.299155	0.588028
H34	H	1.392391	0.436648	0.636878
N35	N	1.110015	0.499409	-0.000050
H36	H	1.046295	0.542477	-0.000057
H37	H	1.151104	0.521188	0.084096
N38	N	0.839568	0.263304	-0.000000
H39	H	0.747178	0.259486	0.000002
H40	H	0.876632	0.221872	-0.084142
N41	N	0.901689	0.543182	-0.000043
H42	H	0.942772	0.565050	0.084100
H43	H	0.967269	0.548509	-0.084244
N44	N	1.329221	0.479006	0.430850
H45	H	1.326176	0.481054	0.532176
H46	H	1.354768	0.547524	0.405939
