data_functionalizedCrystal
_audit_creation_method	'MofGen! by Chris Wilmer'
_symmetry_space_group_name_H-M	'P1'
_symmetry_Int_Tables_number	1
_symmetry_cell_setting	triclinic
loop_
_symmetry_equiv_pos_as_xyz
  x,y,z
_cell_length_a	17.077404
_cell_length_b	13.897448
_cell_length_c	17.077396
_cell_angle_alpha	89.971798
_cell_angle_beta	89.982756
_cell_angle_gamma	90.017917
loop_
_atom_site_label
_atom_site_type_symbol
_atom_site_fract_x
_atom_site_fract_y
_atom_site_fract_z
Zn1	Zn	1.200065	-0.384001	-0.443849
Zn2	Zn	1.199990	-0.545316	-0.312585
Zn3	Zn	1.068802	-0.384037	-0.312597
Zn4	Zn	1.068777	-0.545257	-0.443809
O5	O	1.134409	-0.464653	-0.378210
O6	O	1.309902	-0.405410	-0.426448
O7	O	1.182566	-0.523962	-0.202740
O8	O	1.086257	-0.249051	-0.330029
O9	O	1.309847	-0.523927	-0.330010
O10	O	1.182695	-0.249024	-0.426459
O11	O	1.086184	-0.405471	-0.202748
O12	O	0.958952	-0.405414	-0.329990
O13	O	1.086214	-0.523826	-0.553661
O14	O	0.958934	-0.523861	-0.426391
O15	O	1.182671	-0.405352	-0.553690
O16	O	1.182542	-0.680290	-0.329971
O17	O	1.086140	-0.680246	-0.426380
C18	C	0.930461	-0.464635	-0.378188
C19	C	0.843211	-0.464651	-0.378198
C20	C	0.802232	-0.526419	-0.428313
C21	C	0.720251	-0.526422	-0.428326
C22	C	0.679252	-0.464659	-0.378218
C23	C	0.720237	-0.402884	-0.328100
C24	C	0.802216	-0.402878	-0.328092
C25	C	0.549367	-0.402903	-0.328119
C26	C	0.467382	-0.402910	-0.328126
C27	C	0.467402	-0.526447	-0.428353
C28	C	0.549381	-0.526441	-0.428345
C29	C	0.590361	-0.464666	-0.378226
C30	C	1.134351	-0.715267	-0.378187
C31	C	1.134399	-0.822481	-0.378204
C32	C	1.134481	-1.018776	-0.378253
C33	C	1.134433	-0.909544	-0.378228
C34	C	1.339153	-0.464671	-0.378232
C35	C	1.426403	-0.464679	-0.378242
C36	C	1.134448	-0.464578	-0.582954
C37	C	1.134465	-0.464546	-0.670204
C38	C	1.134488	-0.213060	-0.378250
C39	C	1.134521	-0.105846	-0.378267
C40	C	1.084294	-0.402841	-0.711198
C41	C	1.084307	-0.402819	-0.793179
C42	C	1.134495	-0.464498	-0.834164
C43	C	1.184668	-0.526211	-0.793164
C44	C	1.184651	-0.526237	-0.711185
C45	C	1.184702	-0.526150	-0.964034
C46	C	1.184721	-0.526123	-1.046019
C47	C	1.084358	-0.402732	-1.046028
C48	C	1.084341	-0.402758	-0.964049
C49	C	1.134515	-0.464470	-0.923055
C50	C	1.134415	-0.464658	-0.174262
C51	C	1.134550	-0.464418	-0.087013
H52	H	0.434002	-0.352607	-0.287334
C53	C	1.239891	-0.593998	-1.091122
C54	C	1.233397	-0.703653	-1.079838
C55	C	1.288551	-0.771539	-1.124950
C56	C	1.350200	-0.729770	-1.181346
C57	C	1.356697	-0.620109	-1.192633
C58	C	1.301542	-0.552223	-1.147521
H59	H	1.187758	-0.734578	-1.038087
H60	H	1.283742	-0.852718	-1.116594
H61	H	1.391029	-0.780023	-1.214741
H62	H	1.402335	-0.589184	-1.234384
H63	H	1.306352	-0.471044	-1.155877
C64	C	1.029122	-0.334940	-0.838276
C65	C	1.063176	-0.259204	-0.894657
C66	C	1.007989	-0.191324	-0.939755
C67	C	0.918746	-0.199179	-0.928473
C68	C	0.884687	-0.274918	-0.872090
C69	C	0.939875	-0.342799	-0.826991
H70	H	1.129243	-0.253386	-0.903011
H71	H	1.033202	-0.135257	-0.981494
H72	H	0.877893	-0.148930	-0.961858
H73	H	0.818621	-0.280736	-0.863736
H74	H	0.914661	-0.398866	-0.785252
C75	C	0.675178	-0.594373	-0.483453
C76	C	0.686425	-0.704016	-0.476883
C77	C	0.641353	-0.771970	-0.532014
C78	C	0.585034	-0.730280	-0.593716
C79	C	0.573784	-0.620631	-0.600290
C80	C	0.618856	-0.552677	-0.545158
H81	H	0.728118	-0.734883	-0.431205
H82	H	0.649682	-0.853140	-0.527148
H83	H	0.551669	-0.780584	-0.634528
H84	H	0.532091	-0.589764	-0.645967
H85	H	0.610527	-0.471507	-0.550024
H86	H	1.043505	-0.352484	-1.079409
C87	C	0.847328	-0.594360	-0.483434
C88	C	0.903656	-0.670036	-0.449309
C89	C	0.948750	-0.737975	-0.504433
C90	C	0.937516	-0.730238	-0.593682
C91	C	0.881185	-0.654558	-0.627811
C92	C	0.836091	-0.586619	-0.572687
H93	H	0.911974	-0.675766	-0.383238
H94	H	0.990449	-0.793998	-0.479168
H95	H	0.970897	-0.780531	-0.634488
H96	H	0.872867	-0.648828	-0.693883
H97	H	0.794392	-0.530596	-0.597952
H98	H	1.043429	-0.352608	-0.677834
C99	C	0.594449	-0.334950	-0.272993
C100	C	0.583203	-0.225305	-0.279557
C101	C	0.628288	-0.157356	-0.224432
C102	C	0.684618	-0.199052	-0.162743
C103	C	0.695867	-0.308702	-0.156176
C104	C	0.650782	-0.376651	-0.211301
H105	H	0.541502	-0.194434	-0.325225
H106	H	0.619960	-0.076185	-0.229293
H107	H	0.717993	-0.148752	-0.121936
H108	H	0.737568	-0.339573	-0.110508
H109	H	0.659109	-0.457822	-0.206440
H110	H	0.686848	-0.352592	-0.287305
H111	H	0.835580	-0.352575	-0.287287
C112	C	1.239891	-0.594031	-0.918933
C113	C	1.329133	-0.586165	-0.930204
C114	C	1.384321	-0.654040	-0.885099
C115	C	1.350265	-0.729780	-0.828723
C116	C	1.261017	-0.737649	-0.817449
C117	C	1.205830	-0.669775	-0.862554
H118	H	1.354348	-0.530095	-0.971939
H119	H	1.450388	-0.648214	-0.893445
H120	H	1.391118	-0.780025	-0.795333
H121	H	1.235803	-0.793719	-0.775714
H122	H	1.139763	-0.675600	-0.854208
C123	C	1.239842	-0.594112	-0.666088
C124	C	1.295051	-0.661957	-0.711166
C125	C	1.350240	-0.729838	-0.666071
C126	C	1.350221	-0.729874	-0.575897
C127	C	1.295010	-0.662026	-0.530814
C128	C	1.239820	-0.594145	-0.575910
H129	H	1.295067	-0.661933	-0.777923
H130	H	1.391111	-0.780064	-0.699445
H131	H	1.391075	-0.780123	-0.542515
H132	H	1.294994	-0.662050	-0.464057
H133	H	1.198950	-0.543919	-0.542536
H134	H	0.434033	-0.576743	-0.469164
H135	H	0.582761	-0.576738	-0.469142
H136	H	1.043476	-0.352529	-0.930681
H137	H	1.225529	-0.576436	-0.826541
