data_functionalizedCrystal
_audit_creation_method	'MofGen! by Chris Wilmer'
_symmetry_space_group_name_H-M	'P1'
_symmetry_Int_Tables_number	1
_symmetry_cell_setting	triclinic
loop_
_symmetry_equiv_pos_as_xyz
  x,y,z
_cell_length_a	10.654550
_cell_length_b	14.971486
_cell_length_c	9.730223
_cell_angle_alpha	89.995390
_cell_angle_beta	89.999957
_cell_angle_gamma	84.049530
loop_
_atom_site_label
_atom_site_type_symbol
_atom_site_fract_x
_atom_site_fract_y
_atom_site_fract_z
O1	O	1.666491	0.125631	-0.114188
O2	O	1.300884	0.137600	-0.114213
O3	O	1.493487	0.001469	-0.114190
O4	O	1.473889	0.261762	-0.114211
O5	O	1.493475	0.001465	0.114390
O6	O	1.300872	0.137596	0.114366
O7	O	1.666479	0.125627	0.114392
Zn8	Zn	1.483674	0.131611	0.150671
Zn9	Zn	1.483690	0.131616	-0.150493
O10	O	1.473876	0.261759	0.114369
C11	C	1.254090	0.136720	0.000073
C12	C	1.114675	0.134090	0.000064
C13	C	1.492604	-0.031863	0.000099
C14	C	1.489978	-0.131174	0.000098
C15	C	1.034329	0.214242	0.000061
C16	C	0.903335	0.211766	0.000086
C17	C	0.933044	0.048979	0.000109
C18	C	1.064036	0.051456	0.000095
C19	C	1.603127	-0.187783	0.000107
C20	C	1.600651	-0.281096	0.000093
C21	C	1.485026	-0.317798	0.000080
C22	C	1.371868	-0.261181	0.000067
C23	C	1.374345	-0.167870	0.000071
C24	C	1.366714	-0.455672	0.000061
C25	C	1.364237	-0.548989	0.000060
C26	C	1.593020	-0.568898	0.000083
C27	C	1.595497	-0.475587	0.000087
C28	C	1.482339	-0.418976	0.000077
C29	C	1.713274	0.126508	0.000102
C30	C	1.852689	0.129137	0.000102
C31	C	1.474759	0.295090	0.000076
C32	C	1.477385	0.394401	0.000069
N33	N	1.483672	0.131607	0.356208
N34	N	1.483702	0.131613	-0.356029
C35	C	1.568985	0.071354	0.428144
C36	C	1.568997	0.071354	0.572027
C37	C	1.398379	0.191869	0.572025
C38	C	1.398362	0.191864	0.428144
H39	H	1.075554	0.281528	0.000047
H40	H	1.638466	0.022290	0.630593
O41	O	0.883997	-0.031341	-0.000060
C42	C	0.925011	-0.080239	-0.118460
H43	H	1.015894	-0.055298	-0.157935
H44	H	0.943081	-0.154615	-0.091830
H45	H	0.849223	-0.070347	-0.201353
O46	O	1.315470	0.250281	0.642062
C47	C	1.237924	0.201865	0.725289
H48	H	1.287844	0.132204	0.746849
H49	H	1.218127	0.239072	0.826462
H50	H	1.145096	0.195171	0.669859
O51	O	1.710681	-0.335958	0.000172
C52	C	1.813265	-0.283556	0.000162
H53	H	1.781486	-0.214124	0.043435
H54	H	1.892543	-0.317483	0.066538
H55	H	1.848717	-0.276685	-0.109492
H56	H	1.689649	-0.445708	0.000108
O57	O	1.142220	-0.026349	-0.000090
C58	C	1.218849	-0.029795	-0.118497
H59	H	1.225567	0.041244	-0.157977
H60	H	1.317253	-0.062498	-0.091876
H61	H	1.175693	-0.070918	-0.201384
O62	O	1.264514	-0.112786	0.000248
C63	C	1.259075	-0.058235	0.118648
H64	H	1.358759	-0.052902	0.158128
H65	H	1.212405	0.011597	0.092016
H66	H	1.201663	-0.089286	0.201538
H67	H	0.837922	0.277034	0.000086
O68	O	1.259469	-0.296723	0.000233
C69	C	1.190488	-0.267887	0.118626
H70	H	1.224812	-0.202972	0.158100
H71	H	1.085930	-0.255581	0.091988
H72	H	1.204942	-0.321789	0.201523
H73	H	1.697282	-0.157909	0.000126
H74	H	1.328883	0.240930	0.369570
O75	O	1.651745	0.012867	0.358050
C76	C	1.633392	0.025745	0.215631
H77	H	1.586631	0.096566	0.195947
H78	H	1.728453	0.016354	0.160907
H79	H	1.570255	-0.025269	0.174874
O80	O	1.702828	-0.624013	0.000017
C81	C	1.675855	-0.714242	0.000032
H82	H	1.577210	-0.718425	-0.043251
H83	H	1.747972	-0.756055	-0.066333
H84	H	1.680570	-0.741208	0.109689
H85	H	1.274568	-0.409581	0.000049
O86	O	1.251811	-0.584495	-0.000035
C87	C	1.152465	-0.514523	-0.000028
H88	H	1.187769	-0.450920	-0.043286
H89	H	1.071768	-0.534520	-0.066420
H90	H	1.117525	-0.501547	0.109622
