data_functionalizedCrystal
_audit_creation_method	'MofGen! by Chris Wilmer'
_symmetry_space_group_name_H-M	'P1'
_symmetry_Int_Tables_number	1
_symmetry_cell_setting	triclinic
loop_
_symmetry_equiv_pos_as_xyz
  x,y,z
_cell_length_a	10.654545
_cell_length_b	15.625429
_cell_length_c	9.730223
_cell_angle_alpha	71.918450
_cell_angle_beta	89.997167
_cell_angle_gamma	84.351614
loop_
_atom_site_label
_atom_site_type_symbol
_atom_site_fract_x
_atom_site_fract_y
_atom_site_fract_z
O1	O	1.666524	0.126605	-0.177363
O2	O	1.300919	0.138673	-0.183382
O3	O	1.493491	0.001463	-0.114999
O4	O	1.473953	0.263815	-0.245746
O5	O	1.493478	0.001459	0.113583
O6	O	1.300907	0.138669	0.045200
O7	O	1.666512	0.126601	0.051219
Zn8	Zn	1.483707	0.132635	0.084501
Zn9	Zn	1.483724	0.132640	-0.216665
O10	O	1.473941	0.263811	-0.017164
C11	C	1.254124	0.137786	-0.068651
C12	C	1.114708	0.135137	-0.067333
C13	C	1.049210	0.133889	0.057889
C14	C	0.918217	0.131385	0.059137
C15	C	0.918231	0.131383	-0.190073
C16	C	1.049223	0.133880	-0.191316
C17	C	1.492600	-0.032132	0.016031
C18	C	1.489950	-0.132228	0.065906
C19	C	1.481234	-0.461425	-0.393007
C20	C	1.478738	-0.555480	-0.346099
C21	C	1.478725	-0.555471	-0.096915
C22	C	1.481227	-0.461414	-0.143802
C23	C	1.482480	-0.414398	-0.291850
C24	C	1.482473	-0.414387	-0.042645
C25	C	1.484968	-0.320338	-0.089529
C26	C	1.486217	-0.273315	-0.237571
C27	C	1.484974	-0.320349	-0.338734
C28	C	1.481211	-0.461404	0.105402
C29	C	1.482457	-0.414377	0.206559
C30	C	1.484961	-0.320327	0.159675
C31	C	1.486210	-0.273304	0.011634
C32	C	1.486203	-0.273293	0.260839
C33	C	1.488698	-0.179244	0.213954
C34	C	1.488705	-0.179255	-0.035251
C35	C	1.713307	0.127488	-0.063516
C36	C	1.852723	0.130137	-0.064842
C37	C	1.474831	0.297406	-0.148197
C38	C	1.477481	0.397503	-0.198082
N39	N	1.483706	0.132631	0.290040
N40	N	1.483736	0.132636	-0.422200
C41	C	1.569005	0.071900	0.392233
C42	C	1.569017	0.071900	0.536116
C43	C	1.398427	0.193370	0.475596
C44	C	1.398410	0.193365	0.331718
H45	H	0.864894	0.130368	0.161105
H46	H	1.102524	0.134912	0.158844
Cl47	Cl	1.489359	-0.155081	-0.296516
H48	H	1.328942	0.242819	0.248505
H49	H	1.479166	-0.537983	0.143570
H50	H	1.102554	0.134895	-0.293292
Cl51	Cl	1.490272	-0.120121	0.341124
Cl52	Cl	1.490298	-0.120144	-0.221371
H53	H	1.486006	-0.282067	-0.459289
Cl54	Cl	1.676229	-0.004455	0.339845
Cl55	Cl	1.477140	-0.614584	0.089196
H56	H	1.482265	-0.423143	-0.513562
Cl57	Cl	1.676253	-0.004452	0.664586
Cl58	Cl	1.480871	-0.473490	0.392669
H59	H	1.485170	-0.311587	0.381379
H60	H	0.864896	0.130360	-0.291015
H61	H	1.328983	0.242820	0.509544
H62	H	1.477712	-0.593765	-0.428485
