data_functionalizedCrystal
_audit_creation_method	'MofGen! by Chris Wilmer'
_symmetry_space_group_name_H-M	'P1'
_symmetry_Int_Tables_number	1
_symmetry_cell_setting	triclinic
loop_
_symmetry_equiv_pos_as_xyz
  x,y,z
_cell_length_a	17.639762
_cell_length_b	17.640280
_cell_length_c	11.169409
_cell_angle_alpha	101.234358
_cell_angle_beta	78.825375
_cell_angle_gamma	92.188400
loop_
_atom_site_label
_atom_site_type_symbol
_atom_site_fract_x
_atom_site_fract_y
_atom_site_fract_z
Zn1	Zn	1.221996	-0.067252	0.283472
Zn2	Zn	1.247595	-0.194273	0.035984
Zn3	Zn	1.095021	-0.093000	0.113817
Zn4	Zn	1.120673	-0.219898	0.267661
O5	O	1.171321	-0.143606	0.175233
O6	O	1.331649	-0.062601	0.224687
O7	O	1.227334	-0.180891	-0.121650
O8	O	1.090415	0.016681	0.175512
O9	O	1.350456	-0.155923	0.042858
O10	O	1.183703	0.035599	0.300158
O11	O	1.115238	-0.106486	-0.064467
O12	O	0.992167	-0.131334	0.160180
O13	O	1.134136	-0.199598	0.437717
O14	O	1.011013	-0.224565	0.273209
O15	O	1.208577	-0.087449	0.449334
O16	O	1.252208	-0.303938	0.027526
O17	O	1.158959	-0.322765	0.197738
C18	C	0.974039	-0.183525	0.223425
C19	C	0.889644	-0.200620	0.244063
C20	C	1.211165	-0.340901	0.102491
C21	C	1.228280	-0.425291	0.071395
C22	C	0.780541	-0.273323	0.331843
C23	C	0.859841	-0.257253	0.312443
C24	C	0.840152	-0.160032	0.195061
C25	C	0.760847	-0.176091	0.214456
C26	C	0.731049	-0.232737	0.282847
C27	C	0.711356	-0.135505	0.165460
C28	C	0.632059	-0.151566	0.184848
C29	C	0.602254	-0.208211	0.253233
C30	C	0.651752	-0.248798	0.302236
C31	C	0.741157	-0.078862	0.097062
C32	C	0.691665	-0.038277	0.048066
C33	C	0.612366	-0.054333	0.067461
C34	C	0.582561	-0.110979	0.135846
C35	C	0.562868	-0.013747	0.018459
C36	C	0.483571	-0.029808	0.037847
C37	C	0.503264	-0.127040	0.155234
C38	C	1.041613	-0.752028	0.411828
C39	C	1.057696	-0.831325	0.382570
C40	C	1.154857	-0.811643	0.205469
C41	C	1.138784	-0.732342	0.234716
C42	C	1.082161	-0.702542	0.337896
C43	C	1.179332	-0.682856	0.160784
C44	C	1.163258	-0.603563	0.190025
C45	C	1.106635	-0.573756	0.293198
C46	C	1.066086	-0.623249	0.367137
C47	C	1.235952	-0.712659	0.057599
C48	C	1.276500	-0.663172	-0.016333
C49	C	1.260429	-0.583877	0.012913
C50	C	1.203807	-0.554070	0.116086
C51	C	1.300978	-0.534385	-0.061026
C52	C	1.284904	-0.455092	-0.031785
C53	C	1.187732	-0.474777	0.145327
C54	C	1.369374	-0.103532	0.126854
C55	C	1.453772	-0.086454	0.106238
C56	C	1.171363	-0.143510	0.488293
C57	C	1.171380	-0.143469	0.621700
C58	C	1.131342	0.054464	0.248281
C59	C	1.114306	0.138870	0.279409
C60	C	1.171313	-0.143638	-0.136599
C61	C	1.171399	-0.143435	-0.269962
H62	H	0.478999	-0.173160	0.210940
O63	O	0.591714	0.041360	-0.047867
C64	C	0.589896	0.175485	-0.064060
C65	C	0.557153	0.113152	0.011163
H66	H	0.561980	0.233547	-0.016350
H67	H	0.576920	0.159111	-0.161929
H68	H	0.655078	0.179950	-0.069547
H69	H	0.491967	0.108656	0.016748
H70	H	0.570189	0.129553	0.108991
H71	H	1.322600	-0.687448	-0.100345
H72	H	0.537685	-0.221288	0.269016
H73	H	0.995510	-0.727763	0.495855
H74	H	1.200958	-0.835918	0.121457
O75	O	0.907805	-0.296726	0.360183
C76	C	0.918973	-0.394891	0.478605
C77	C	0.864565	-0.350236	0.424638
H78	H	0.884037	-0.438176	0.530707
H79	H	0.949067	-0.352591	0.545282
H80	H	0.964110	-0.427003	0.399690
H81	H	0.819384	-0.318121	0.503471
H82	H	0.834528	-0.392573	0.357928
H83	H	0.805726	-0.065789	0.081276
O84	O	1.011031	-0.594221	0.467248
C85	C	0.890354	-0.525563	0.541299
C86	C	0.952651	-0.558382	0.427826
H87	H	0.843130	-0.496593	0.509464
H88	H	0.917611	-0.481294	0.609303
H89	H	0.864177	-0.574562	0.589135
H90	H	0.978851	-0.509435	0.379889
H91	H	0.925354	-0.602671	0.359908
O92	O	1.018261	-0.879284	0.454562
C93	C	0.920155	-0.890444	0.633282
C94	C	0.964769	-0.836043	0.551878
H95	H	0.876885	-0.855508	0.711965
H96	H	0.962470	-0.920448	0.674000
H97	H	0.888044	-0.935668	0.574080
H98	H	0.996882	-0.790776	0.610996
H99	H	0.922416	-0.806096	0.511150
O100	O	1.251642	-0.789669	0.029369
C101	C	1.294140	-0.899460	0.097787
C102	C	1.276414	-0.812239	0.129903
H103	H	1.314157	-0.917737	0.179059
H104	H	1.341605	-0.912293	0.011389
H105	H	1.239722	-0.932932	0.079158
H106	H	1.330787	-0.778708	0.148593
H107	H	1.228919	-0.799465	0.216267
H108	H	0.443272	0.003245	-0.002042
H109	H	1.347075	-0.558662	-0.145042
H110	H	0.627487	-0.294918	0.357941
H111	H	0.756276	-0.319443	0.387548
O112	O	0.720737	0.016748	-0.018289
C113	C	0.834176	0.084552	-0.100244
C114	C	0.801355	0.022227	-0.025055
H115	H	0.899361	0.088990	-0.105761
H116	H	0.806278	0.142637	-0.052623
H117	H	0.821186	0.068128	-0.198098
H118	H	0.814336	0.038577	0.072808
H119	H	0.829253	-0.035843	-0.072774
H120	H	1.317921	-0.414799	-0.091989
O121	O	0.869224	-0.105007	0.128707
C122	C	0.982663	-0.037203	0.046751
C123	C	0.949842	-0.099528	0.121941
H124	H	1.047848	-0.032765	0.041234
H125	H	0.954765	0.020883	0.094372
H126	H	0.969673	-0.053627	-0.051103
H127	H	0.962822	-0.083178	0.219803
H128	H	0.977740	-0.157597	0.074221
H129	H	1.093543	-0.509192	0.316997
O130	O	1.132791	-0.445892	0.245694
C131	C	1.090985	-0.428991	0.467800
C132	C	1.153245	-0.461761	0.354244
H133	H	1.107508	-0.441794	0.555593
H134	H	1.032920	-0.457038	0.455949
H135	H	1.086458	-0.363824	0.475927
H136	H	1.157842	-0.526924	0.346049
H137	H	1.211277	-0.433655	0.366143
