data_functionalizedCrystal
_audit_creation_method	'MofGen! by Chris Wilmer'
_symmetry_space_group_name_H-M	'P1'
_symmetry_Int_Tables_number	1
_symmetry_cell_setting	triclinic
loop_
_symmetry_equiv_pos_as_xyz
  x,y,z
_cell_length_a	16.974800
_cell_length_b	17.019294
_cell_length_c	15.455313
_cell_angle_alpha	88.788101
_cell_angle_beta	90.973911
_cell_angle_gamma	83.640951
loop_
_atom_site_label
_atom_site_type_symbol
_atom_site_fract_x
_atom_site_fract_y
_atom_site_fract_z
O1	O	1.049320	0.100201	-0.005927
O2	O	1.549320	0.600201	0.494073
O3	O	0.819917	0.112205	-0.022934
O4	O	1.319917	0.612205	0.477066
O5	O	0.940610	-0.008208	-0.005460
O6	O	1.440610	0.491792	0.494540
O7	O	0.928628	0.220613	-0.023401
O8	O	1.428628	0.720613	0.476599
O9	O	0.933708	-0.001351	0.137805
O10	O	1.433708	0.498649	0.637805
O11	O	0.813015	0.119062	0.120331
O12	O	1.313015	0.619062	0.620331
O13	O	1.042418	0.107058	0.137338
O14	O	1.542418	0.607058	0.637338
Cu15	Cu	0.927087	0.113686	0.141916
Cu16	Cu	1.427087	0.613686	0.641916
Cu17	Cu	0.935249	0.105576	-0.027512
Cu18	Cu	1.435249	0.605576	0.472488
O19	O	0.921726	0.227470	0.119864
O20	O	1.421726	0.727470	0.619864
C21	C	0.787105	0.115051	0.046680
C22	C	1.287105	0.615051	0.546680
C23	C	0.699619	0.113307	0.040666
C24	C	1.199619	0.613307	0.540666
C25	C	0.654761	0.116223	0.115936
C26	C	1.154761	0.616223	0.615936
C27	C	0.572560	0.114572	0.110289
C28	C	1.072560	0.614572	0.610289
C29	C	0.535219	0.110010	0.029370
C30	C	1.035219	0.610010	0.529370
C31	C	0.580084	0.107091	-0.045906
C32	C	1.080084	0.607091	0.454094
C33	C	0.662284	0.108736	-0.040258
C34	C	1.162284	0.608736	0.459742
C35	C	0.289781	0.104682	0.004103
C36	C	0.789781	0.604682	0.504103
C37	C	0.207575	0.103039	-0.001540
C38	C	0.707575	0.603039	0.498460
C39	C	0.200057	0.110519	0.154656
C40	C	0.700057	0.610519	0.654656
C41	C	0.282259	0.112169	0.160297
C42	C	0.782259	0.612169	0.660297
C43	C	0.327117	0.109245	0.085021
C44	C	0.827117	0.609245	0.585021
N45	N	0.451196	0.108324	0.023596
N46	N	0.951196	0.608324	0.523596
N47	N	0.411139	0.110925	0.090797
N48	N	0.911139	0.610925	0.590797
C49	C	0.936568	-0.034065	0.068317
C50	C	1.436568	0.465935	0.568317
C51	C	0.934800	-0.121328	0.074709
C52	C	1.434800	0.378672	0.574709
C53	C	0.937733	-0.166057	-0.000382
C54	C	1.437733	0.333943	0.499618
C55	C	0.936066	-0.248049	0.005626
C56	C	1.436066	0.251951	0.505626
C57	C	0.931471	-0.285311	0.086725
C58	C	1.431471	0.214689	0.586725
C59	C	0.928536	-0.240575	0.161821
C60	C	1.428536	0.259425	0.661821
C61	C	0.930197	-0.158584	0.155812
C62	C	1.430197	0.341416	0.655812
C63	C	0.926262	-0.532683	0.108774
C64	C	1.426262	-0.032683	0.608774
C65	C	0.924603	-0.614680	0.114778
C66	C	1.424603	-0.114680	0.614778
C67	C	0.932132	-0.622149	-0.041418
C68	C	1.432132	-0.122149	0.458582
C69	C	0.933798	-0.540157	-0.047419
C70	C	1.433798	-0.040157	0.452581
C71	C	0.930858	-0.495427	0.027676
C72	C	1.430858	0.004573	0.527676
C73	C	0.929770	-0.369120	0.092868
C74	C	1.429770	0.130880	0.592868
C75	C	0.932553	-0.411619	0.021532
C76	C	1.432553	0.088381	0.521532
C77	C	1.075230	0.104211	0.067722
C78	C	1.575230	0.604211	0.567722
C79	C	1.162716	0.105955	0.073730
C80	C	1.662716	0.605955	0.573730
C81	C	0.925767	0.253328	0.046084
C82	C	1.425767	0.753328	0.546084
C83	C	0.927536	0.340590	0.039687
C84	C	1.427536	0.840590	0.539687
N85	N	0.921352	0.119389	0.261082
N86	N	1.421352	0.619389	0.761082
N87	N	0.940990	0.099867	-0.146678
N88	N	1.440990	0.599867	0.353322
C89	C	0.972644	0.068253	0.313900
C90	C	1.472644	0.568253	0.813900
C91	C	0.968314	0.072573	0.404081
C92	C	1.468314	0.572573	0.904081
C93	C	0.912695	0.128035	0.441442
C94	C	1.412695	0.628035	0.941442
C95	C	0.861397	0.179173	0.388618
C96	C	1.361397	0.679173	0.888618
C97	C	0.865724	0.174849	0.298439
C98	C	1.365724	0.674849	0.798439
C99	C	0.894019	0.146681	0.710319
C100	C	1.394019	0.646681	1.210319
C101	C	0.889698	0.151003	0.800505
C102	C	1.389698	0.651003	1.300505
C103	C	0.996614	0.044402	0.815962
C104	C	1.496614	0.544402	1.315962
C105	C	1.000939	0.040085	0.725780
C106	C	1.500939	0.540085	1.225780
C107	C	0.949639	0.091221	0.672963
C108	C	1.449639	0.591221	1.172963
N109	N	0.908269	0.132454	0.533621
N110	N	1.408269	0.632454	1.033621
N111	N	0.954061	0.086798	0.580786
N112	N	1.454061	0.586798	1.080786
H113	H	0.536041	0.116934	0.171584
H114	H	1.036041	0.616934	0.671584
O115	O	1.051944	-0.010750	0.872927
O116	O	1.551944	0.489250	1.372927
H117	H	1.042592	-0.072885	0.859489
H118	H	1.542592	0.427115	1.359489
O119	O	0.924819	-0.409315	0.180337
O120	O	1.424819	0.090685	0.680337
H121	H	0.923055	-0.364440	0.231549
H122	H	1.423055	0.135560	0.731549
O123	O	0.923585	-0.280770	0.249290
O124	O	1.423585	0.219230	0.749290
H125	H	0.868436	-0.256367	0.281303
H126	H	1.368436	0.243633	0.781303
O127	O	0.322530	0.117126	0.247570
O128	O	0.822530	0.617126	0.747570
H129	H	0.277525	0.118886	0.298963
H130	H	0.777525	0.618886	0.798963
H131	H	0.163525	0.112898	0.215941
H132	H	0.663525	0.612898	0.715941
H133	H	0.823955	0.216489	0.255434
H134	H	1.323955	0.716489	0.755434
H135	H	0.177174	0.099326	-0.067438
H136	H	0.677174	0.599326	0.432562
O137	O	0.338153	0.101536	-0.077088
O138	O	0.838153	0.601536	0.422912
H139	H	0.401587	0.103438	-0.059572
H140	H	0.901587	0.603438	0.440428
H141	H	0.685157	0.119945	0.181829
H142	H	1.185157	0.619945	0.681829
H143	H	0.938458	-0.284465	-0.055521
H144	H	1.438458	0.215535	0.444479
O145	O	1.023653	0.017428	0.461042
O146	O	1.523653	0.517428	0.961042
H147	H	1.014314	-0.044710	0.447604
H148	H	1.514314	0.455290	0.947604
H149	H	0.549674	0.103370	-0.111792
H150	H	1.049674	0.603370	0.388208
H151	H	0.937540	-0.509825	-0.113459
H152	H	1.437540	-0.009825	0.386541
O153	O	1.060928	-0.019743	0.685495
O154	O	1.560928	0.480257	1.185495
H155	H	1.121549	-0.008727	0.706352
H156	H	1.621549	0.491273	1.206352
H157	H	0.927798	-0.122164	0.216958
H158	H	1.427798	0.377836	0.716958
O159	O	0.838698	0.201843	0.653362
O160	O	1.338698	0.701843	1.153362
H161	H	0.802281	0.166683	0.612081
H162	H	1.302281	0.666683	1.112081
O163	O	0.935282	-0.670390	-0.122412
O164	O	1.435282	-0.170390	0.377588
H165	H	0.991064	-0.663339	-0.156736
H166	H	1.491064	-0.163339	0.343264
O167	O	0.937505	-0.371437	-0.065940
O168	O	1.437505	0.128563	0.434060
H169	H	0.992104	-0.341150	-0.068127
H170	H	1.492104	0.158850	0.431873
H171	H	1.017938	0.023094	0.283487
H172	H	1.517938	0.523094	0.783487
H173	H	0.844404	0.196170	0.830919
H174	H	1.344404	0.696170	1.330919
H175	H	0.816107	0.224329	0.419042
H176	H	1.316107	0.724329	0.919042
O177	O	0.919639	-0.654873	0.202252
O178	O	1.419639	-0.154873	0.702252
H179	H	0.917865	-0.609995	0.253461
H180	H	1.417865	-0.109995	0.753461
O181	O	0.710677	0.105589	-0.121438
O182	O	1.210677	0.605589	0.378562
H183	H	0.689818	0.157008	-0.164456
H184	H	1.189818	0.657008	0.335544
O185	O	0.942682	-0.125868	-0.087854
O186	O	1.442682	0.374132	0.412146
H187	H	0.944431	-0.170748	-0.139060
H188	H	1.444431	0.329252	0.360940
O189	O	0.923111	-0.484446	0.189767
O190	O	1.423111	0.015554	0.689767
H191	H	0.919652	-0.524135	0.247169
H192	H	1.419652	-0.024135	0.747169
