data_functionalizedCrystal
_audit_creation_method	'MofGen! by Chris Wilmer'
_symmetry_space_group_name_H-M	'P1'
_symmetry_Int_Tables_number	1
_symmetry_cell_setting	triclinic
loop_
_symmetry_equiv_pos_as_xyz
  x,y,z
_cell_length_a	14.971486
_cell_length_b	13.101039
_cell_length_c	14.971486
_cell_angle_alpha	93.366125
_cell_angle_beta	96.385871
_cell_angle_gamma	93.356744
loop_
_atom_site_label
_atom_site_type_symbol
_atom_site_fract_x
_atom_site_fract_y
_atom_site_fract_z
O1	O	1.191853	0.085097	-0.111638
O2	O	0.931455	0.085125	-0.125595
O3	O	1.068633	0.085103	0.011583
O4	O	1.054675	0.085119	-0.248816
O5	O	1.058790	-0.085326	0.001724
O6	O	0.921612	-0.085304	-0.135454
O7	O	1.182011	-0.085332	-0.121497
Zn8	Zn	1.050249	-0.112377	-0.130041
Zn9	Zn	1.063217	0.112170	-0.117051
O10	O	1.044833	-0.085310	-0.258675
C11	C	0.893209	-0.000086	-0.129900
C12	C	0.793912	-0.000075	-0.128029
N13	N	1.041405	-0.265624	-0.138905
C14	C	0.736687	-0.000072	-0.208618
C15	C	0.643387	-0.000087	-0.206856
C16	C	0.607314	-0.000099	-0.124503
C17	C	0.664546	-0.000105	-0.043908
C18	C	0.757844	-0.000097	-0.045672
C19	C	0.470083	-0.000120	-0.040238
C20	C	0.376779	-0.000126	-0.038474
C21	C	0.355626	-0.000110	-0.201422
C22	C	0.448924	-0.000102	-0.203185
C23	C	0.506150	-0.000106	-0.122590
C24	C	1.029373	-0.474664	-0.150973
C25	C	1.084096	-0.525549	-0.096115
C26	C	1.077402	-0.641866	-0.102830
C27	C	1.036067	-0.358337	-0.144259
C28	C	1.220257	-0.000119	-0.117192
C29	C	1.319553	-0.000122	-0.119063
C30	C	1.063087	-0.000111	0.039978
C31	C	1.061217	-0.000110	0.139276
N32	N	1.072067	0.265417	-0.108180
C33	C	1.050378	-0.000093	-0.287070
C34	C	1.052249	-0.000088	-0.386367
C35	C	1.141805	-0.000119	0.196500
C36	C	1.140043	-0.000109	0.289800
C37	C	1.057690	-0.000096	0.325873
C38	C	0.977096	-0.000084	0.268642
C39	C	0.978860	-0.000087	0.175344
C40	C	0.973425	-0.000080	0.463104
C41	C	0.971661	-0.000078	0.556408
C42	C	1.134608	-0.000102	0.577561
C43	C	1.136372	-0.000105	0.484263
C44	C	1.055777	-0.000094	0.427037
H45	H	0.766050	-0.000062	-0.275679
H46	H	0.347411	-0.000137	0.028585
H47	H	1.205666	-0.000119	0.336390
H48	H	0.635168	-0.000130	0.023144
H49	H	0.913236	-0.000079	0.128751
H50	H	0.907796	-0.000068	0.416513
H51	H	0.516675	-0.000125	0.025392
H52	H	0.910043	-0.000067	0.298020
O53	O	0.813311	-0.000050	0.032699
C54	C	0.824448	-0.000123	0.194503
C55	C	0.761533	-0.000148	0.105816
H56	H	0.782610	-0.000225	0.253640
H57	H	0.872751	0.071221	0.201940
H58	H	0.864567	-0.071427	0.193576
H59	H	0.721355	0.071107	0.106681
H60	H	0.713289	-0.071539	0.098413
H61	H	0.977499	-0.518453	-0.202979
H62	H	1.208866	-0.000136	0.167137
O63	O	0.300171	-0.000068	-0.279795
C64	C	0.289033	-0.000110	-0.441606
C65	C	0.351942	-0.000139	-0.352920
H66	H	0.330863	-0.000190	-0.500752
H67	H	0.248946	0.071224	-0.440789
H68	H	0.240701	-0.071424	-0.448933
H69	H	0.400327	0.071126	-0.345537
H70	H	0.391965	-0.071521	-0.353777
H71	H	1.203430	-0.000122	0.454895
H72	H	1.135975	-0.481755	-0.044106
H73	H	0.904601	-0.000085	0.585775
O74	O	0.587929	-0.000037	-0.285220
C75	C	0.576791	-0.000079	-0.447031
C76	C	0.639700	-0.000108	-0.358345
H77	H	0.618621	-0.000158	-0.506177
H78	H	0.536705	0.071256	-0.446214
H79	H	0.528460	-0.071392	-0.454358
H80	H	0.688085	0.071157	-0.350962
H81	H	0.679723	-0.071490	-0.359202
H82	H	0.478291	-0.000082	-0.270243
H83	H	1.200232	-0.000107	0.624159
