data_functionalizedCrystal
_audit_creation_method	'MofGen! by Chris Wilmer'
_symmetry_space_group_name_H-M	'P1'
_symmetry_Int_Tables_number	1
_symmetry_cell_setting	triclinic
loop_
_symmetry_equiv_pos_as_xyz
  x,y,z
_cell_length_a	6.817900
_cell_length_b	12.200863
_cell_length_c	12.200737
_cell_angle_alpha	93.008149
_cell_angle_beta	107.141108
_cell_angle_gamma	107.143441
loop_
_atom_site_label
_atom_site_type_symbol
_atom_site_fract_x
_atom_site_fract_y
_atom_site_fract_z
V1	V	-4.086857	-0.158980	-0.357778
V2	V	-3.586857	0.341020	0.142222
O3	O	-4.054154	0.007364	-0.350847
O4	O	-3.554154	0.507364	0.149153
O5	O	-4.056305	-0.314966	-0.355447
O6	O	-3.556305	0.185034	0.144553
O7	O	-4.056297	-0.156656	-0.513765
O8	O	-3.556297	0.343344	-0.013765
O9	O	-4.054162	-0.152042	-0.191433
O10	O	-3.554162	0.347958	0.308567
V11	V	-4.565860	-0.139069	-0.337868
V12	V	-4.065860	0.360931	0.162132
O13	O	-4.358029	-0.202657	-0.401453
O14	O	-3.858029	0.297343	0.098547
O15	O	-4.744885	-0.095393	-0.294193
O16	O	-4.244885	0.404607	0.205807
O17	O	-4.373205	0.016917	-0.340199
O18	O	-3.873205	0.516917	0.159801
O19	O	-4.715959	-0.305414	-0.344798
O20	O	-4.215959	0.194586	0.155202
O21	O	-4.715951	-0.146007	-0.504213
O22	O	-4.215951	0.353993	-0.004213
O23	O	-4.373213	-0.141394	-0.181881
O24	O	-3.873213	0.358606	0.318119
C25	C	-3.905070	-0.352988	-0.349832
C26	C	-3.405070	0.147012	0.150168
C27	C	-3.961497	-0.480510	-0.348966
C28	C	-3.461497	0.019490	0.151034
C29	C	-3.905059	-0.151046	-0.551781
C30	C	-3.405059	0.348954	-0.051781
C31	C	-3.961475	-0.150178	-0.679302
C32	C	-3.461475	0.349822	-0.179302
C33	C	-4.007289	-0.149471	-0.782863
C34	C	-3.507289	0.350529	-0.282863
C35	C	-4.064778	-0.148580	-0.912784
C36	C	-3.564778	0.351420	-0.412784
C37	C	-4.064769	-0.713985	-0.347388
C38	C	-3.564769	-0.213985	0.152612
C39	C	-4.007293	-0.584063	-0.348266
C40	C	-3.507293	-0.084063	0.151734
C41	C	-4.187782	0.054933	-0.345811
C42	C	-3.687782	0.554933	0.154189
C43	C	-4.110595	0.182453	-0.346685
C44	C	-3.610595	0.682453	0.153315
C45	C	-4.187793	-0.147007	-0.143858
C46	C	-3.687793	0.352993	0.356142
C47	C	-4.110615	-0.147870	-0.016337
C48	C	-3.610615	0.352130	0.483663
