data_functionalizedCrystal
_audit_creation_method	'MofGen! by Chris Wilmer'
_symmetry_space_group_name_H-M	'P1'
_symmetry_Int_Tables_number	1
_symmetry_cell_setting	triclinic
loop_
_symmetry_equiv_pos_as_xyz
  x,y,z
_cell_length_a	14.853567
_cell_length_b	10.654550
_cell_length_c	9.730223
_cell_angle_alpha	90.003749
_cell_angle_beta	90.002458
_cell_angle_gamma	95.940083
loop_
_atom_site_label
_atom_site_type_symbol
_atom_site_fract_x
_atom_site_fract_y
_atom_site_fract_z
O1	O	0.126622	-1.666519	-0.114390
O2	O	0.138686	-1.300915	-0.114367
O3	O	0.001477	-1.493482	-0.114383
O4	O	0.263832	-1.473951	-0.114374
O5	O	0.001480	-1.493480	0.114197
O6	O	0.138690	-1.300912	0.114213
O7	O	0.126625	-1.666516	0.114190
Zn8	Zn	0.132658	-1.483714	0.150493
Zn9	Zn	0.132654	-1.483717	-0.150671
O10	O	0.263835	-1.473949	0.114206
C11	C	0.137802	-1.254125	-0.000074
C12	C	0.135152	-1.114709	-0.000066
C13	C	-0.032115	-1.492596	-0.000097
C14	C	-0.132213	-1.489944	-0.000109
C15	C	0.127510	-1.713306	-0.000106
C16	C	0.130160	-1.852722	-0.000123
C17	C	-0.545419	-1.364344	-0.000075
C18	C	-0.565475	-1.593119	-0.000090
C19	C	-0.471428	-1.595613	-0.000098
C20	C	-0.414372	-1.482470	-0.000093
C21	C	-0.451363	-1.366834	-0.000079
C22	C	-0.434430	-1.711247	-0.000097
C23	C	-0.340378	-1.713745	-0.000104
C24	C	-0.283320	-1.600601	-0.000109
C25	C	-0.320316	-1.484961	-0.000097
C26	C	-0.263260	-1.371818	-0.000091
C27	C	-0.300254	-1.256176	-0.000089
C28	C	-0.394305	-1.253691	-0.000084
C29	C	-0.189269	-1.603087	-0.000114
C30	C	-0.169204	-1.374308	-0.000096
C31	C	0.297427	-1.474835	-0.000083
C32	C	0.397525	-1.477487	-0.000080
N33	N	0.132661	-1.483721	0.356030
C34	C	0.215939	-1.034384	-0.000083
C35	C	0.213443	-0.903389	-0.000107
C36	C	0.049367	-0.933057	-0.000102
C37	C	0.051863	-1.064050	-0.000068
C38	C	0.310667	-1.017254	-0.000091
C39	C	0.308171	-0.886260	-0.000115
N40	N	0.132644	-1.483720	-0.356207
C41	C	0.071925	-1.569012	0.427949
C42	C	0.071914	-1.569009	0.571832
C43	C	0.193382	-1.398420	0.571864
C44	C	0.193388	-1.398418	0.427984
C45	C	0.001799	-1.667504	0.427931
C46	C	0.001788	-1.667501	0.571814
H47	H	-0.122754	-1.282173	-0.000097
H48	H	-0.575545	-1.270191	-0.000079
H49	H	-0.611936	-1.685234	-0.000083
H50	H	0.242836	-1.328957	0.369429
H51	H	-0.424435	-1.159541	-0.000080
H52	H	-0.013921	-1.129447	-0.000035
C53	C	0.260165	-1.304573	0.651012
H54	H	0.296328	-1.253763	0.587568
H55	H	0.298000	-1.349778	0.707163
H56	H	0.227355	-1.252250	0.707116
H57	H	0.347716	-1.046200	0.095576
H58	H	0.336801	-0.840290	0.098570
H59	H	-0.159152	-1.697240	-0.000107
H60	H	-0.063695	-1.637668	0.616429
H61	H	-0.067496	-1.646781	0.388876
H62	H	-0.253787	-1.164056	-0.000075
H63	H	-0.480892	-1.803361	-0.000089
C64	C	-0.299691	-1.840943	-0.000125
H65	H	-0.347143	-1.907967	-0.000138
H66	H	-0.263410	-1.846677	0.079577
H67	H	-0.263429	-1.846664	-0.079855
H68	H	-0.018444	-0.891794	-0.000125
H69	H	0.023756	-1.758459	0.383300
C70	C	0.356263	-0.829395	-0.129449
H71	H	0.377738	-0.894901	-0.182620
H72	H	0.405836	-0.770834	-0.103045
H73	H	0.314838	-0.787392	-0.182516
H74	H	0.340828	-1.052598	-0.098778
H75	H	0.017235	-1.763852	0.610859
