data_functionalizedCrystal
_audit_creation_method	'MofGen! by Chris Wilmer'
_symmetry_space_group_name_H-M	'P1'
_symmetry_Int_Tables_number	1
_symmetry_cell_setting	triclinic
loop_
_symmetry_equiv_pos_as_xyz
  x,y,z
_cell_length_a	27.732011
_cell_length_b	12.837942
_cell_length_c	11.295483
_cell_angle_alpha	85.469583
_cell_angle_beta	85.948896
_cell_angle_gamma	91.271650
loop_
_atom_site_label
_atom_site_type_symbol
_atom_site_fract_x
_atom_site_fract_y
_atom_site_fract_z
O1	O	0.649952	-0.116081	-0.098477
O2	O	0.510090	-0.134853	-0.098597
O3	O	0.576920	0.025385	-0.098532
O4	O	0.583123	-0.276319	-0.098542
O5	O	0.571049	0.011332	0.099513
O6	O	0.504220	-0.148905	0.099448
O7	O	0.644082	-0.130134	0.099568
Cu8	Cu	0.573615	-0.140803	0.117591
Cu9	Cu	0.580557	-0.124184	-0.116620
O10	O	0.577252	-0.290372	0.099503
C11	C	0.489129	-0.141490	0.000410
C12	C	0.435417	-0.140317	0.000364
C13	C	0.665043	-0.123497	0.000558
C14	C	0.718756	-0.124669	0.000596
C15	C	0.571889	0.056945	0.000488
C16	C	0.565640	0.171921	0.000480
C17	C	1.099146	-0.140688	0.108441
C18	C	0.897267	-0.136285	0.108501
O19	O	0.868454	-0.142189	0.200317
N20	N	0.875210	-0.128075	0.000552
C21	C	0.903627	-0.120957	-0.107419
O22	O	0.880235	-0.113862	-0.199235
C23	C	1.105505	-0.125353	-0.107478
C24	C	1.127559	-0.133574	0.000478
C25	C	1.121199	-0.148908	0.216387
C26	C	1.171666	-0.150014	0.216371
C27	C	1.200079	-0.142900	0.108409
C28	C	1.178025	-0.134680	0.000462
C29	C	1.133921	-0.118228	-0.215448
C30	C	1.184394	-0.119325	-0.215453
C31	C	1.206447	-0.127546	-0.107497
C32	C	1.256905	-0.128673	-0.107517
N33	N	1.278961	-0.136884	0.000431
C34	C	1.250548	-0.143997	0.108394
C35	C	0.797638	-0.118652	-0.107381
C36	C	0.747169	-0.117555	-0.107366
C37	C	0.740812	-0.132882	0.108554
C38	C	0.791282	-0.133986	0.108538
C39	C	0.819694	-0.126863	0.000568
C40	C	1.356532	-0.146321	0.108352
C41	C	1.407004	-0.147431	0.108327
C42	C	1.413356	-0.132099	-0.107593
C43	C	1.362889	-0.130995	-0.107568
C44	C	1.334478	-0.138103	0.000414
O45	O	1.285748	-0.122761	-0.199286
O46	O	1.273950	-0.151069	0.200196
C47	C	1.048679	-0.139582	0.108457
C48	C	1.026625	-0.131362	0.000510
C49	C	1.055038	-0.124248	-0.107453
C50	C	0.976156	-0.130265	0.000524
C51	C	0.947743	-0.137379	0.108487
C52	C	0.969799	-0.145589	0.216436
C53	C	1.020266	-0.146695	0.216420
C54	C	1.032982	-0.116037	-0.215401
C55	C	0.982515	-0.114933	-0.215376
C56	C	0.954102	-0.122047	-0.107414
C57	C	0.582283	-0.321932	0.000481
C58	C	0.588532	-0.436907	0.000480
N59	N	0.568735	-0.152491	0.282323
C60	C	0.640768	0.414101	0.000520
C61	C	0.634899	0.522132	0.000513
C62	C	0.548032	0.496016	0.000451
C63	C	0.553902	0.387985	0.000458
C64	C	0.600271	0.347032	0.000494
C65	C	0.606140	0.238998	0.000510
C66	C	0.519274	0.212885	0.000439
C67	C	0.513405	0.320916	0.000432
N68	N	0.585441	-0.112488	-0.281352
C69	C	0.620565	-0.028293	0.531662
C70	C	0.616881	-0.037133	0.656322
C71	C	0.557681	-0.179005	0.656305
C72	C	0.561365	-0.170165	0.531645
C73	C	0.592808	-0.094808	0.469328
C74	C	0.596495	-0.085973	0.344666
C75	C	0.537292	-0.227840	0.344651
C76	C	0.533608	-0.236680	0.469311
H77	H	1.424957	-0.154129	0.196241
Br78	Br	0.464310	0.121855	0.000425
Br79	Br	1.317982	-0.155964	0.254901
H80	H	0.646171	0.033059	0.480923
H81	H	0.510281	0.529380	0.000408
Br82	Br	0.515002	-0.281257	0.740890
Br83	Br	1.222951	-0.109652	-0.361993
H84	H	0.622099	-0.024616	0.293928
Br85	Br	0.689862	0.613154	0.000540
Br86	Br	0.450479	0.376506	0.000367
Br87	Br	0.654550	0.053145	0.740917
H88	H	0.508006	-0.298032	0.520064
Br89	Br	0.499626	-0.318123	0.260043
Br90	Br	0.931229	-0.155251	0.362955
H91	H	1.098070	-0.154699	0.304309
H92	H	1.189617	-0.156703	0.304280
H93	H	0.678523	0.380756	0.000561
H94	H	1.436499	-0.126312	-0.195493
H95	H	0.809234	-0.140682	0.196445
H96	H	0.729217	-0.110877	-0.195275
Br97	Br	0.836191	-0.108985	-0.253927
Br98	Br	1.104005	-0.107068	-0.361968
Br99	Br	0.702242	-0.142535	0.255074
H100	H	1.344932	-0.124317	-0.195474
H101	H	1.038217	-0.153390	0.304328
Br102	Br	0.669068	0.183418	0.000572
H103	H	0.964564	-0.108246	-0.303294
H104	H	1.056111	-0.110241	-0.303320
