data_functionalizedCrystal
_audit_creation_method	'MofGen! by Chris Wilmer'
_symmetry_space_group_name_H-M	'P1'
_symmetry_Int_Tables_number	1
_symmetry_cell_setting	triclinic
loop_
_symmetry_equiv_pos_as_xyz
  x,y,z
_cell_length_a	12.759401
_cell_length_b	16.120444
_cell_length_c	12.759393
_cell_angle_alpha	92.863572
_cell_angle_beta	89.980163
_cell_angle_gamma	92.928028
loop_
_atom_site_label
_atom_site_type_symbol
_atom_site_fract_x
_atom_site_fract_y
_atom_site_fract_z
Zn1	Zn	1.584966	-0.331824	-0.615188
Zn2	Zn	1.575914	-0.471263	-0.448403
Zn3	Zn	1.409265	-0.331871	-0.439526
Zn4	Zn	1.400314	-0.471202	-0.624036
O5	O	1.492615	-0.401540	-0.531788
O6	O	1.730786	-0.350327	-0.593075
O7	O	1.553765	-0.452817	-0.300207
O8	O	1.440106	-0.215199	-0.455410
O9	O	1.724135	-0.452772	-0.470539
O10	O	1.569193	-0.215164	-0.584468
O11	O	1.431329	-0.350407	-0.293685
O12	O	1.261057	-0.350348	-0.463989
O13	O	1.424851	-0.452668	-0.769880
O14	O	1.254481	-0.452713	-0.599548
O15	O	1.560514	-0.350267	-0.763380
O16	O	1.545086	-0.587920	-0.479119
O17	O	1.416074	-0.587875	-0.608156
C18	C	1.219648	-0.401530	-0.531766
C19	C	1.102870	-0.401545	-0.531783
C20	C	1.044607	-0.454928	-0.602268
C21	C	0.934882	-0.454931	-0.602289
C22	C	0.941695	-0.348167	-0.461331
C23	C	1.051418	-0.348160	-0.461316
C24	C	1.478655	-0.618148	-0.545584
C25	C	1.472779	-0.710814	-0.551521
C26	C	1.523353	-0.921758	-0.501215
C27	C	1.462071	-0.880470	-0.562371
C28	C	1.468031	-0.786065	-0.556332
C29	C	1.517395	-1.016172	-0.507253
C30	C	1.766647	-0.401551	-0.531810
C31	C	1.883424	-0.401555	-0.531820
C32	C	1.492693	-0.401455	-0.805816
C33	C	1.492727	-0.401420	-0.922590
C34	C	1.506657	-0.184086	-0.517961
C35	C	1.512642	-0.091420	-0.512069
C36	C	1.428999	-0.348085	-0.974055
C37	C	1.429025	-0.348059	-1.083778
C38	C	1.556516	-0.454705	-1.090561
C39	C	1.556484	-0.454735	-0.980841
C40	C	1.492601	-0.401564	-0.258822
C41	C	1.492786	-0.401365	-0.142033
H42	H	0.887448	-0.498400	-0.659687
H43	H	1.405129	-0.916023	-0.619264
H44	H	1.377084	-0.304672	-0.926631
O45	O	1.591184	-0.879223	-0.433365
C46	C	1.582111	-0.793068	-0.442380
H47	H	1.501742	-0.781327	-0.475990
H48	H	1.645937	-0.768267	-0.496822
C49	C	1.693259	-0.762742	-0.292000
C50	C	1.594544	-0.748321	-0.333272
H51	H	1.700933	-0.735139	-0.224699
H52	H	1.699376	-0.820786	-0.285929
H53	H	1.746436	-0.742075	-0.337379
H54	H	1.541369	-0.768998	-0.287901
H55	H	1.588419	-0.690279	-0.339334
O56	O	1.618334	-0.506607	-1.147106
C57	C	1.590016	-0.589705	-1.125553
H58	H	1.505802	-0.593919	-1.095657
H59	H	1.644915	-0.611516	-1.063251
C60	C	1.702116	-0.640142	-1.263276
C61	C	1.598680	-0.645320	-1.226564
H62	H	1.707464	-0.674450	-1.325582
H63	H	1.721198	-0.584158	-1.277794
H64	H	1.747853	-0.658317	-1.211348
H65	H	1.552947	-0.627135	-1.278486
H66	H	1.579590	-0.701303	-1.212057
H67	H	0.899789	-0.304703	-0.403958
O68	O	1.107862	-0.296275	-0.392741
C69	C	1.038924	-0.249147	-0.330559
H70	H	0.958507	-0.283295	-0.329030
H71	H	1.031350	-0.185866	-0.365137
C72	C	1.181249	-0.195082	-0.219870
C73	C	1.082482	-0.237026	-0.217985
H74	H	1.208119	-0.187601	-0.150430
H75	H	1.227695	-0.226830	-0.261765
H76	H	1.174924	-0.142353	-0.248690
H77	H	1.088811	-0.289758	-0.189178
H78	H	1.036038	-0.205287	-0.176082
H79	H	1.377131	-0.304629	-1.125676
H80	H	1.608381	-0.498169	-0.938937
H81	H	1.086496	-0.498396	-0.659650
