data_functionalizedCrystal
_audit_creation_method	'MofGen! by Chris Wilmer'
_symmetry_space_group_name_H-M	'P1'
_symmetry_Int_Tables_number	1
_symmetry_cell_setting	triclinic
loop_
_symmetry_equiv_pos_as_xyz
  x,y,z
_cell_length_a	15.995350
_cell_length_b	15.995350
_cell_length_c	14.472310
_cell_angle_alpha	90.001162
_cell_angle_beta	89.990621
_cell_angle_gamma	83.492375
loop_
_atom_site_label
_atom_site_type_symbol
_atom_site_fract_x
_atom_site_fract_y
_atom_site_fract_z
O1	O	1.110997	0.107921	-0.076758
O2	O	0.867221	0.121248	-0.076776
O3	O	0.995773	-0.007303	-0.076766
O4	O	0.982445	0.236472	-0.076769
O5	O	0.995740	-0.007296	0.076916
O6	O	0.867188	0.121256	0.076906
O7	O	1.110963	0.107928	0.076924
Cu8	Cu	0.989073	0.114593	0.090947
Cu9	Cu	0.989112	0.114584	-0.090800
O10	O	0.982412	0.236480	0.076913
C11	C	0.836010	0.120701	0.000062
C12	C	0.743060	0.119049	0.000055
C13	C	0.405312	0.113117	0.000074
C14	C	0.452746	0.021565	0.000418
C15	C	0.549436	0.023217	0.000065
C16	C	0.572873	0.116060	0.000065
C17	C	0.531804	0.161212	-0.087692
C18	C	0.435169	0.158912	-0.087759
C19	C	0.434792	0.160812	0.087007
C20	C	0.531737	0.160790	0.088160
C21	C	0.667570	0.117727	0.000057
C22	C	0.310614	0.111452	0.000076
C23	C	0.995205	-0.038494	0.000073
C24	C	0.993553	-0.131444	0.000068
C25	C	0.987621	-0.469192	0.000071
C26	C	0.896069	-0.421758	-0.000281
C27	C	0.897721	-0.325068	0.000066
C28	C	0.990564	-0.301631	0.000069
C29	C	1.035701	-0.342705	0.087831
C30	C	1.033401	-0.439340	0.087904
C31	C	1.035330	-0.439707	-0.086861
C32	C	1.035309	-0.342762	-0.088021
C33	C	0.992231	-0.206934	0.000071
C34	C	0.985956	-0.563890	0.000075
C35	C	1.142175	0.108476	0.000083
C36	C	1.235125	0.110127	0.000084
C37	C	0.982980	0.267671	0.000072
C38	C	0.984631	0.360621	0.000071
N39	N	0.989051	0.114598	0.218778
N40	N	0.989140	0.114572	-0.218631
C41	C	0.989111	0.114581	0.592869
C42	C	0.920095	0.183135	0.553698
C43	C	0.920254	0.183385	0.446610
C44	C	0.989081	0.114590	0.407278
C45	C	1.076445	0.133671	0.446122
C46	C	1.076057	0.134159	0.553243
C47	C	0.971542	0.026741	0.553398
C48	C	0.969538	0.027327	0.446270
C49	C	0.989069	0.114593	0.302390
C50	C	0.989128	0.114579	0.697757
H51	H	0.545930	0.229421	-0.090955
O52	O	0.426806	-0.026697	-0.082478
H53	H	0.460647	-0.091228	-0.081564
O54	O	1.122429	-0.482067	0.093204
H55	H	1.166933	-0.433679	0.095711
H56	H	0.931473	0.248569	0.420976
O57	O	0.569398	0.119659	-0.174205
H58	H	0.539857	0.152140	-0.235786
O59	O	0.834232	0.168341	0.411816
H60	H	0.786743	0.218970	0.437550
H61	H	1.103909	-0.328579	0.091097
O62	O	0.407593	0.121165	0.175123
H63	H	0.372755	0.067017	0.157937
H64	H	1.129029	0.085068	0.420643
O65	O	0.991660	-0.306601	-0.174026
H66	H	0.967655	-0.357938	-0.214240
O67	O	0.567897	0.117139	0.174165
H68	H	0.614973	0.063808	0.154262
H69	H	1.000459	-0.457639	0.153505
H70	H	1.004324	-0.314320	0.153137
H71	H	1.091540	0.198219	0.578220
O72	O	0.833792	0.168344	0.587860
H73	H	0.839162	0.111976	0.633127
O74	O	0.552088	0.250472	0.095196
H75	H	0.592010	0.264629	0.035744
H76	H	0.577308	-0.012521	-0.062951
O77	O	1.124997	-0.322425	-0.095044
H78	H	1.139146	-0.282511	-0.035590
H79	H	0.434210	-0.015027	0.063352
H80	H	1.005412	-0.460250	-0.153379
O81	O	1.124741	-0.481780	-0.087655
H82	H	1.135190	-0.523493	-0.026471
H83	H	1.021872	-0.024275	0.578728
H84	H	0.859626	-0.441349	0.062299
O85	O	0.934745	0.268999	0.589329
H86	H	0.990970	0.263061	0.634814
O87	O	1.146130	0.070544	0.587577
H88	H	1.180148	0.039574	0.527667
H89	H	1.016541	-0.026079	0.419500
O90	O	1.097448	0.217564	0.410593
H91	H	1.045804	0.245797	0.365281
O92	O	0.392713	0.250221	0.087797
H93	H	0.441438	0.294372	0.085534
H94	H	0.862239	-0.296649	-0.062846
H95	H	0.905272	0.012845	0.420883
O96	O	0.587085	-0.023785	0.083397
H97	H	0.536236	-0.047908	0.124309
O98	O	0.410927	0.115273	-0.174640
H99	H	0.468200	0.096005	-0.216210
H100	H	0.859490	-0.440293	-0.063217
O101	O	0.392442	0.247940	-0.093053
H102	H	0.440830	0.292444	-0.095562
O103	O	0.850388	-0.288144	0.083543
H104	H	0.826234	-0.339360	0.123827
O105	O	0.888974	0.002439	0.589208
H106	H	0.837102	0.050526	0.567742
