data_functionalizedCrystal
_audit_creation_method	'MofGen! by Chris Wilmer'
_symmetry_space_group_name_H-M	'P1'
_symmetry_Int_Tables_number	1
_symmetry_cell_setting	triclinic
loop_
_symmetry_equiv_pos_as_xyz
  x,y,z
_cell_length_a	12.827893
_cell_length_b	12.645330
_cell_length_c	12.827885
_cell_angle_alpha	89.968887
_cell_angle_beta	89.980728
_cell_angle_gamma	90.012807
loop_
_atom_site_label
_atom_site_type_symbol
_atom_site_fract_x
_atom_site_fract_y
_atom_site_fract_z
Zn1	Zn	1.597690	-0.421983	-0.590839
Zn2	Zn	1.597592	-0.599284	-0.416095
Zn3	Zn	1.422931	-0.422036	-0.416113
Zn4	Zn	1.422925	-0.599206	-0.590795
O5	O	1.510284	-0.510627	-0.503461
O6	O	1.743913	-0.445514	-0.567670
O7	O	1.574385	-0.575826	-0.269861
O8	O	1.446157	-0.273681	-0.439316
O9	O	1.743841	-0.575776	-0.439286
O10	O	1.574551	-0.273643	-0.567687
O11	O	1.446062	-0.445603	-0.269874
O12	O	1.276694	-0.445527	-0.439274
O13	O	1.446146	-0.575642	-0.737037
O14	O	1.276689	-0.575693	-0.567612
O15	O	1.574545	-0.445438	-0.737069
O16	O	1.574379	-0.747621	-0.439244
O17	O	1.446051	-0.747563	-0.567595
C18	C	1.238774	-0.510608	-0.503441
C19	C	1.122621	-0.510625	-0.503457
C20	C	1.070872	-0.446281	-0.567084
C21	C	0.950821	-0.446298	-0.567102
C22	C	1.510232	-0.786057	-0.503436
C23	C	1.510305	-0.903887	-0.503460
C24	C	1.590906	-1.071443	-0.422551
C25	C	1.591169	-0.948883	-0.422749
C26	C	1.540172	-0.948261	-0.613614
C27	C	1.540811	-1.070859	-0.613184
C28	C	1.399806	-1.071217	-0.475302
C29	C	1.400335	-0.948613	-0.472832
C30	C	1.782854	-0.510648	-0.503481
C31	C	1.899007	-0.510656	-0.503490
C32	C	1.510355	-0.510525	-0.776031
C33	C	1.510386	-0.510482	-0.892184
C34	C	1.510365	-0.234122	-0.503508
C35	C	1.510400	-0.116292	-0.503529
C36	C	1.573929	-0.446040	-0.943985
C37	C	1.573961	-0.445994	-1.064035
C38	C	1.510274	-0.510652	-0.231951
C39	C	1.510446	-0.510397	-0.115798
H40	H	1.572482	-0.918886	-0.341071
H41	H	1.078049	-0.565721	-0.448995
C42	C	1.701826	-0.909145	-0.447977
C43	C	1.760578	-0.839377	-0.369098
C44	C	1.871240	-0.799642	-0.394332
C45	C	1.923150	-0.829675	-0.498444
C46	C	1.864398	-0.899446	-0.577330
C47	C	1.753736	-0.939181	-0.552097
H48	H	1.722152	-0.817142	-0.292022
H49	H	1.914733	-0.747993	-0.335934
H50	H	2.005069	-0.800261	-0.517123
H51	H	1.902824	-0.921682	-0.654407
H52	H	1.710243	-0.990831	-0.610494
C53	C	1.566002	-1.111392	-0.311885
C54	C	1.472260	-1.185230	-0.293687
C55	C	1.447355	-1.225189	-0.183019
C56	C	1.516192	-1.191311	-0.090550
C57	C	1.609940	-1.117469	-0.108746
C58	C	1.634845	-1.077510	-0.219413
H59	H	1.421298	-1.210312	-0.362140
H60	H	1.377957	-1.279851	-0.169550
H61	H	1.497756	-1.220891	-0.008627
H62	H	1.660902	-1.092387	-0.040292
H63	H	1.704243	-1.022848	-0.232883
H64	H	1.372646	-1.102232	-0.396377
C65	C	1.463378	-0.908879	-0.697314
C66	C	1.346571	-0.935507	-0.688353
C67	C	1.269776	-0.896122	-0.772051
C68	C	1.309789	-0.830109	-0.864710
C69	C	1.426602	-0.803478	-0.873674
C70	C	1.503397	-0.842863	-0.789976
H71	H	1.316945	-0.984376	-0.619758
H72	H	1.183303	-0.915836	-0.765415
H73	H	1.252941	-0.800954	-0.926668
H74	H	1.456227	-0.754609	-0.942269
H75	H	1.589870	-0.823149	-0.796613
H76	H	1.456045	-0.565575	-1.071257
H77	H	1.672380	-1.102172	-0.441011
H78	H	1.456002	-0.565612	-0.936712
H79	H	1.115444	-0.391179	-0.621540
H80	H	0.943504	-0.565752	-0.449019
C81	C	0.890710	-0.371874	-0.640698
C82	C	0.815684	-0.417987	-0.722607
C83	C	0.755570	-0.343560	-0.796205
C84	C	0.770482	-0.223020	-0.787894
C85	C	0.845512	-0.176901	-0.705982
C86	C	0.905625	-0.251328	-0.632384
H87	H	0.804642	-0.507223	-0.728762
H88	H	0.700029	-0.377701	-0.856842
H89	H	0.725982	-0.167925	-0.842376
H90	H	0.856553	-0.087665	-0.699826
H91	H	0.961167	-0.217187	-0.571746
C92	C	1.465045	-1.110942	-0.697475
C93	C	1.404155	-1.031393	-0.764966
C94	C	1.328396	-1.071470	-0.849260
C95	C	1.313528	-1.191096	-0.866063
C96	C	1.374419	-1.270652	-0.798570
C97	C	1.450178	-1.230575	-0.714276
H98	H	1.415160	-0.942832	-0.752529
H99	H	1.283320	-1.012576	-0.899222
H100	H	1.257447	-1.220763	-0.928463
H101	H	1.363414	-1.359213	-0.811008
H102	H	1.495254	-1.289469	-0.664314
C103	C	1.647459	-0.371456	-1.124206
C104	C	1.647387	-0.371516	-1.244251
C105	C	1.720888	-0.296975	-1.304425
C106	C	1.794460	-0.222375	-1.244552
C107	C	1.794535	-0.222312	-1.124500
C108	C	1.721035	-0.296853	-1.064327
H109	H	1.592922	-0.426742	-1.288579
H110	H	1.720832	-0.297022	-1.393295
H111	H	1.848870	-0.167195	-1.289096
H112	H	1.849000	-0.167086	-1.080173
H113	H	1.721090	-0.296806	-0.975456
H114	H	1.621650	-1.099370	-0.637094
H115	H	1.620097	-0.917471	-0.637922
H116	H	1.628302	-0.390900	-0.899456
H117	H	1.377816	-0.919622	-0.391768
H118	H	1.337116	-0.917994	-0.527488
H119	H	1.339822	-1.100220	-0.534282
