data_functionalizedCrystal
_audit_creation_method	'MofGen! by Chris Wilmer'
_symmetry_space_group_name_H-M	'P1'
_symmetry_Int_Tables_number	1
_symmetry_cell_setting	triclinic
loop_
_symmetry_equiv_pos_as_xyz
  x,y,z
_cell_length_a	13.262402
_cell_length_b	14.519731
_cell_length_c	12.376457
_cell_angle_alpha	78.702522
_cell_angle_beta	85.818796
_cell_angle_gamma	84.079142
loop_
_atom_site_label
_atom_site_type_symbol
_atom_site_fract_x
_atom_site_fract_y
_atom_site_fract_z
O1	O	1.325841	0.182966	-0.313659
O2	O	1.039134	0.179962	-0.225501
O3	O	1.190076	0.047685	-0.271924
O4	O	1.174899	0.315243	-0.267236
O5	O	1.152354	0.080707	-0.448334
O6	O	1.001412	0.212984	-0.401911
O7	O	1.288119	0.215988	-0.490070
Zn8	Zn	1.138776	0.219729	-0.474000
Zn9	Zn	1.188477	0.176221	-0.241571
O10	O	1.137177	0.348264	-0.443647
C11	C	0.983580	0.193603	-0.302424
C12	C	0.874247	0.185040	-0.268805
C13	C	0.843444	0.163015	-0.156847
C14	C	0.740718	0.154980	-0.125262
C15	C	0.668786	0.168961	-0.205633
C16	C	0.699589	0.190979	-0.317594
C17	C	0.802324	0.199023	-0.349182
C18	C	0.627666	0.204968	-0.397968
C19	C	0.658469	0.226987	-0.509928
C20	C	0.761195	0.235029	-0.541511
C21	C	0.833127	0.221048	-0.461140
C22	C	0.524931	0.196924	-0.366380
C23	C	0.483811	0.232932	-0.558714
C24	C	0.586537	0.240968	-0.590299
C25	C	1.170504	0.029794	-0.359911
C26	C	1.168372	-0.072715	-0.359256
C27	C	1.166641	-0.155963	-0.358721
C28	C	1.164478	-0.260404	-0.358047
C29	C	1.162762	-0.343647	-0.357512
C30	C	1.160599	-0.448094	-0.356841
C31	C	1.343673	0.202346	-0.413145
C32	C	1.453008	0.210907	-0.446756
C33	C	1.156750	0.366155	-0.355658
C34	C	1.158883	0.468662	-0.356306
N35	N	1.104864	0.249421	-0.632628
C36	C	1.301117	0.077577	-1.047972
C37	C	1.324847	0.056794	-0.936930
C38	C	1.269853	0.104949	-0.860849
C39	C	1.191126	0.173890	-0.895821
C40	C	1.167399	0.194680	-1.006875
C41	C	1.136135	0.222052	-0.819752
C42	C	1.057408	0.290993	-0.854724
C43	C	1.033685	0.311779	-0.965767
C44	C	1.088678	0.263625	-1.041848
C45	C	1.159862	0.201263	-0.708698
C46	C	1.026143	0.318366	-0.667601
C47	C	1.002414	0.339148	-0.778643
N48	N	1.222397	0.146521	-0.082945
H49	H	0.715645	0.137053	-0.034104
H50	H	0.786269	0.252967	-0.632676
H51	H	0.499862	0.178998	-0.275221
C52	C	0.620431	0.265224	-0.713453
N53	N	0.645959	0.283506	-0.806211
C54	C	1.295952	0.082079	-0.738699
N55	N	1.315609	0.064845	-0.646690
C56	C	1.361603	0.024617	-1.131665
N57	N	1.407164	-0.015277	-1.194707
H58	H	1.223962	0.145131	-0.680235
H59	H	0.916778	0.227583	-0.486851
C60	C	1.062560	0.286463	-1.163997
N61	N	1.042883	0.303656	-1.256000
H62	H	0.585143	0.162417	-0.179910
C63	C	0.947087	0.387621	-1.004233
N64	N	0.881859	0.444743	-1.033203
H65	H	0.902017	0.151641	-0.091421
C66	C	0.404690	0.248310	-0.647129
N67	N	0.345090	0.259893	-0.713716
C68	C	1.411439	-0.019043	-0.898468
N69	N	1.476662	-0.076171	-0.869498
H70	H	0.938313	0.395282	-0.807131
H71	H	0.981364	0.357580	-0.605656
