data_functionalizedCrystal
_audit_creation_method	'MofGen! by Chris Wilmer'
_symmetry_space_group_name_H-M	'P1'
_symmetry_Int_Tables_number	1
_symmetry_cell_setting	triclinic
loop_
_symmetry_equiv_pos_as_xyz
  x,y,z
_cell_length_a	23.532407
_cell_length_b	14.044220
_cell_length_c	12.503584
_cell_angle_alpha	86.156211
_cell_angle_beta	86.509131
_cell_angle_gamma	91.981222
loop_
_atom_site_label
_atom_site_type_symbol
_atom_site_fract_x
_atom_site_fract_y
_atom_site_fract_z
O1	O	0.764493	-0.109505	-0.089188
O2	O	0.599533	-0.126144	-0.089220
O3	O	0.679536	0.020136	-0.089194
O4	O	0.684489	-0.255785	-0.089214
O5	O	0.673520	0.009115	0.089446
O6	O	0.593516	-0.137165	0.089420
O7	O	0.758477	-0.120526	0.089452
Cu8	Cu	0.675447	-0.129852	0.105747
Cu9	Cu	0.682562	-0.116818	-0.105515
O10	O	0.678473	-0.266806	0.089426
C11	C	0.575286	-0.131230	0.000096
C12	C	0.512000	-0.129956	0.000084
C13	C	0.674361	0.049920	0.000126
C14	C	0.667895	0.155085	0.000126
N15	N	0.670447	-0.139018	0.254338
C16	C	0.117154	-0.208534	0.000127
C17	C	0.057690	-0.207350	0.000134
O18	O	0.024892	-0.280193	0.000168
N19	N	0.030350	-0.120386	0.000139
C20	C	0.062477	-0.034600	0.000147
O21	O	0.033762	0.039478	0.000153
C22	C	0.121941	-0.035785	0.000148
C23	C	0.149278	-0.122754	0.000133
C24	C	0.144492	-0.295496	0.000113
C25	C	0.203952	-0.296678	0.000104
C26	C	0.236075	-0.210899	0.000110
C27	C	0.208738	-0.123937	0.000124
C28	C	0.154067	0.050000	0.000165
C29	C	0.213534	0.048807	0.000167
C30	C	0.240871	-0.038162	0.000151
C31	C	0.300322	-0.039340	0.000121
N32	N	0.327662	-0.126304	0.000117
C33	C	0.295539	-0.212083	0.000111
C34	C	-0.062400	-0.032119	0.000147
C35	C	-0.121862	-0.030933	0.000138
C36	C	-0.126645	-0.203684	0.000127
C37	C	-0.067182	-0.204868	0.000128
C38	C	-0.035060	-0.119083	0.000143
C39	C	0.420410	-0.214560	0.000092
C40	C	0.479877	-0.215735	0.000079
C41	C	0.484655	-0.042985	0.000096
C42	C	0.425194	-0.041810	0.000103
C43	C	0.393073	-0.127605	0.000105
O44	O	0.333156	0.033464	0.000092
O45	O	0.324261	-0.286150	0.000120
C46	C	0.782724	-0.115439	0.000134
C47	C	0.846010	-0.116714	0.000138
C48	C	0.683649	-0.296589	0.000104
C49	C	0.690115	-0.401754	0.000097
C50	C	0.656074	0.347636	0.000109
C51	C	0.701933	0.405701	0.000114
C52	C	0.695356	0.512843	0.000104
C53	C	0.662650	0.240484	0.000119
C54	C	0.663092	-0.152510	0.473451
C55	C	0.694918	-0.094165	0.526788
C56	C	0.690825	-0.101672	0.648710
C57	C	0.667184	-0.145004	0.351518
N58	N	0.687565	-0.107654	0.745894
H59	H	0.502131	-0.286559	0.000066
Br60	Br	0.775605	0.354445	0.000138
H61	H	0.725238	-0.038576	0.480885
H62	H	0.611877	0.378390	0.000098
Br63	Br	0.376827	-0.330998	0.000096
Br64	Br	0.241043	-0.414714	0.000088
Br65	Br	0.612560	-0.245161	0.549952
H66	H	-0.044928	-0.275687	0.000121
Br67	Br	0.100906	-0.411927	0.000105
H68	H	-0.152811	-0.273530	0.000127
H69	H	0.239685	0.118666	0.000180
Br70	Br	-0.158953	0.087103	0.000127
H71	H	-0.036249	0.037742	0.000149
H72	H	0.402936	0.029009	0.000100
Br73	Br	0.528262	0.073424	0.000106
Br74	Br	0.116983	0.168038	0.000162
