data_functionalizedCrystal
_audit_creation_method	'MofGen! by Chris Wilmer'
_symmetry_space_group_name_H-M	'P1'
_symmetry_Int_Tables_number	1
_symmetry_cell_setting	triclinic
loop_
_symmetry_equiv_pos_as_xyz
  x,y,z
_cell_length_a	15.944551
_cell_length_b	17.699083
_cell_length_c	16.176319
_cell_angle_alpha	90.001389
_cell_angle_beta	89.992246
_cell_angle_gamma	96.609123
loop_
_atom_site_label
_atom_site_type_symbol
_atom_site_fract_x
_atom_site_fract_y
_atom_site_fract_z
O1	O	0.106222	-1.004260	-0.068632
O2	O	0.606222	-0.504260	0.431368
O3	O	0.120042	-0.783905	-0.068660
O4	O	0.620042	-0.283905	0.431340
O5	O	-0.009156	-0.900100	-0.068638
O6	O	0.490844	-0.400100	0.431362
O7	O	0.235419	-0.888065	-0.068654
O8	O	0.735419	-0.388065	0.431346
O9	O	-0.009164	-0.900084	0.068855
O10	O	0.490836	-0.400084	0.568855
O11	O	0.120033	-0.783889	0.068833
O12	O	0.620033	-0.283889	0.568833
O13	O	0.106214	-1.004244	0.068861
O14	O	0.606214	-0.504244	0.568861
Cu15	Cu	0.113123	-0.894065	0.081401
Cu16	Cu	0.613123	-0.394065	0.581401
Cu17	Cu	0.113133	-0.894084	-0.081200
Cu18	Cu	0.613133	-0.394084	0.418800
O19	O	0.235411	-0.888049	0.068839
O20	O	0.735411	-0.388049	0.568839
C21	C	0.119542	-0.755700	0.000083
C22	C	0.619542	-0.255700	0.500083
C23	C	0.118057	-0.671679	0.000073
C24	C	0.618057	-0.171679	0.500073
C25	C	-0.040453	-0.899593	0.000109
C26	C	0.459547	-0.399593	0.500109
C27	C	-0.133696	-0.898095	0.000109
C28	C	0.366304	-0.398095	0.500109
C29	C	0.106713	-1.032450	0.000116
C30	C	0.606713	-0.532450	0.500116
C31	C	0.108199	-1.116471	0.000121
C32	C	0.608199	-0.616471	0.500121
C33	C	-0.348393	-0.822492	0.000088
C34	C	0.151607	-0.322492	0.500088
C35	C	-0.409488	-0.857591	0.067885
C36	C	0.090512	-0.357591	0.567885
C37	C	-0.304416	-0.895385	0.000102
C38	C	0.195584	-0.395385	0.500102
C39	C	-0.409464	-0.857624	-0.067672
C40	C	0.090536	-0.357624	0.432328
C41	C	-0.469323	-0.892762	0.000092
C42	C	0.030677	-0.392762	0.500092
C43	C	-0.364283	-0.930505	0.067955
C44	C	0.135717	-0.430505	0.567955
C45	C	-0.364252	-0.930527	-0.067663
C46	C	0.135748	-0.430527	0.432337
C47	C	-0.425329	-0.965680	0.000150
C48	C	0.074671	-0.465680	0.500150
C49	C	-0.209417	-0.896894	0.000109
C50	C	0.290583	-0.396894	0.500109
C51	C	-0.564321	-0.891259	0.000092
C52	C	-0.064321	-0.391259	0.500092
C53	C	0.266708	-0.888557	0.000090
C54	C	0.766708	-0.388557	0.500090
C55	C	0.359951	-0.890055	0.000085
C56	C	0.859951	-0.390055	0.500085
N57	N	0.113116	-0.894058	0.195767
N58	N	0.613116	-0.394058	0.695767
C59	C	0.193893	-0.623187	0.000068
C60	C	0.693893	-0.123187	0.500068
C61	C	0.192492	-0.544242	0.000079
C62	C	0.692492	-0.044242	0.500079
C63	C	0.115254	-0.513789	0.000089
C64	C	0.615254	-0.013789	0.500089
C65	C	0.039412	-0.562287	0.000096
C66	C	0.539412	-0.062287	0.500096
C67	C	0.040814	-0.641231	0.000091
C68	C	0.540814	-0.141231	0.500091
C69	C	0.033758	-0.243914	0.000117
C70	C	0.533758	0.256086	0.500117
C71	C	0.032362	-0.164964	0.000119
C72	C	0.532362	0.335036	0.500119
C73	C	0.185436	-0.146925	0.000105
C74	C	0.685436	0.353075	0.500105
C75	C	0.186837	-0.225869	0.000100
C76	C	0.686837	0.274131	0.500100
C77	C	0.110996	-0.274360	0.000112
C78	C	0.610996	0.225640	0.500112
C79	C	0.112516	-0.359962	0.000102
C80	C	0.612516	0.140038	0.500102
C81	C	0.113733	-0.428189	0.000093
C82	C	0.613733	0.071811	0.500093
N83	N	0.113133	-0.894098	-0.195565
N84	N	0.613133	-0.394098	0.304435
C85	C	0.055930	-0.945524	0.239040
C86	C	0.555930	-0.445524	0.739040
C87	C	0.055929	-0.945528	0.325588
C88	C	0.555929	-0.445528	0.825588
C89	C	0.113118	-0.894068	0.368859
C90	C	0.613118	-0.394068	0.868859
C91	C	0.170306	-0.842596	0.325579
C92	C	0.670306	-0.342596	0.825579
C93	C	0.170303	-0.842589	0.239034
C94	C	0.670303	-0.342589	0.739034
C95	C	0.170322	-0.842622	0.674608
C96	C	0.670322	-0.342622	1.174608
C97	C	0.170323	-0.842634	0.761159
C98	C	0.670323	-0.342634	1.261159
C99	C	0.055949	-0.945561	0.761161
C100	C	0.555949	-0.445561	1.261161
C101	C	0.055945	-0.945554	0.674616
C102	C	0.555945	-0.445554	1.174616
C103	C	0.113130	-0.894080	0.631343
C104	C	0.613130	-0.394080	1.131343
C105	C	0.113129	-0.894075	0.537499
C106	C	0.613129	-0.394075	1.037499
C107	C	0.113124	-0.894076	0.462702
C108	C	0.613124	-0.394076	0.962702
H109	H	-0.314958	-0.761987	0.000149
H110	H	0.185042	-0.261987	0.500149
H111	H	0.216868	-0.800693	0.360816
H112	H	0.716868	-0.300693	0.860816
F113	F	-0.338018	-0.970801	-0.142575
F114	F	0.161982	-0.470801	0.357425
H115	H	-0.027997	-0.283386	0.000127
H116	H	0.472003	0.216614	0.500127
H117	H	-0.429472	-0.826790	-0.124993
H118	H	0.070528	-0.326790	0.375007
F119	F	-0.338247	-0.970763	0.142954
F120	F	0.161753	-0.470763	0.642954
H121	H	-0.429535	-0.826754	0.125194
H122	H	0.070465	-0.326754	0.625194
F123	F	-0.468839	-1.044833	0.000207
F124	F	0.031161	-0.544833	0.500207
H125	H	0.256789	-0.647975	0.000060
H126	H	0.756789	-0.147975	0.500060
F127	F	0.231194	-0.787861	0.807211
F128	F	0.731194	-0.287861	1.307211
F129	F	0.273207	-0.492636	0.000071
F130	F	0.773207	0.007364	0.500071
H131	H	0.216868	-0.800679	0.203801
H132	H	0.716868	-0.300679	0.703801
F133	F	-0.004920	-1.000326	0.628566
F134	F	0.495080	-0.500326	1.128566
F135	F	0.269044	-0.258274	0.000085
F136	F	0.769044	0.241726	0.500085
H137	H	0.247189	-0.107434	0.000100
H138	H	0.747189	0.392566	0.500100
H139	H	0.009364	-0.987435	0.360821
H140	H	0.509364	-0.487435	0.860821
H141	H	0.216885	-0.800711	0.639382
H142	H	0.716885	-0.300711	1.139382
H143	H	-0.030538	-0.140173	0.000128
H144	H	0.469462	0.359827	0.500128
F145	F	-0.042790	-0.529875	0.000112
F146	F	0.457210	-0.029875	0.500112
H147	H	0.009364	-0.987432	0.203814
H148	H	0.509364	-0.487432	0.703814
F149	F	-0.039901	-0.692839	0.000099
F150	F	0.460099	-0.192839	0.500099
H151	H	0.009383	-0.987472	0.796403
H152	H	0.509383	-0.487472	1.296403
