data_functionalizedCrystal
_audit_creation_method	'MofGen! by Chris Wilmer'
_symmetry_space_group_name_H-M	'P1'
_symmetry_Int_Tables_number	1
_symmetry_cell_setting	triclinic
loop_
_symmetry_equiv_pos_as_xyz
  x,y,z
_cell_length_a	16.625548
_cell_length_b	12.645330
_cell_length_c	16.625539
_cell_angle_alpha	89.975749
_cell_angle_beta	89.979432
_cell_angle_gamma	90.018760
loop_
_atom_site_label
_atom_site_type_symbol
_atom_site_fract_x
_atom_site_fract_y
_atom_site_fract_z
Zn1	Zn	1.232707	-0.422007	-0.455932
Zn2	Zn	1.232622	-0.599293	-0.321109
Zn3	Zn	1.097869	-0.422048	-0.321113
Zn4	Zn	1.097851	-0.599232	-0.455899
O5	O	1.165262	-0.510645	-0.388513
O6	O	1.345528	-0.445533	-0.438060
O7	O	1.214718	-0.575824	-0.208277
O8	O	1.115799	-0.273695	-0.339012
O9	O	1.345465	-0.575784	-0.339006
O10	O	1.214864	-0.273665	-0.438064
O11	O	1.115716	-0.445602	-0.208280
O12	O	0.985034	-0.445543	-0.338980
O13	O	1.115768	-0.575681	-0.568736
O14	O	0.985021	-0.575720	-0.438007
O15	O	1.214846	-0.445474	-0.568760
O16	O	1.214701	-0.747632	-0.338973
O17	O	1.115685	-0.747588	-0.438003
C18	C	0.955771	-0.510630	-0.388491
C19	C	0.866150	-0.510649	-0.388500
C20	C	0.537975	-0.510656	-0.388534
C21	C	0.629283	-0.510651	-0.388522
C22	C	0.702059	-0.510653	-0.388517
C23	C	0.793374	-0.510647	-0.388506
C24	C	1.165203	-0.786075	-0.388502
C25	C	1.165252	-0.903905	-0.388524
C26	C	1.103218	-1.071485	-0.451015
C27	C	1.102901	-0.948925	-0.450815
C28	C	1.142250	-0.948498	-0.303549
C29	C	1.141872	-1.071097	-0.303928
C30	C	1.250667	-1.070992	-0.410318
C31	C	1.250144	-0.948386	-0.412177
C32	C	1.375571	-0.510661	-0.388536
C33	C	1.465192	-0.510668	-0.388546
C34	C	1.165315	-0.510566	-0.598822
C35	C	1.165337	-0.510533	-0.688443
C36	C	1.165343	-0.234140	-0.388542
C37	C	1.165378	-0.116310	-0.388554
C38	C	1.165374	-0.510414	-1.016619
C39	C	1.165362	-0.510450	-0.925311
C40	C	1.165356	-0.510474	-0.852534
C41	C	1.165343	-0.510509	-0.761220
C42	C	1.165256	-0.510647	-0.179022
C43	C	1.165390	-0.510382	-0.089402
H44	H	1.117292	-0.918772	-0.513823
H45	H	1.185181	-1.100752	-0.255803
H46	H	1.117477	-1.100897	-0.514231
C47	C	1.273598	-0.908960	-0.496645
N48	N	1.291268	-0.879245	-0.560261
H49	H	1.040384	-1.102387	-0.436781
C50	C	1.201469	-0.909098	-0.238956
N51	N	1.246072	-0.879417	-0.190305
H52	H	1.039671	-0.919692	-0.436396
C53	C	1.057642	-1.109862	-0.279026
N54	N	0.994197	-1.139054	-0.260272
C55	C	1.058896	-0.907158	-0.278193
N56	N	0.996111	-0.876022	-0.259100
C57	C	1.279011	-1.112654	-0.492609
N58	N	1.300351	-1.144034	-0.554595
H59	H	1.298894	-0.917733	-0.369996
C60	C	1.313232	-1.110158	-0.348864
N61	N	1.360349	-1.139664	-0.302574
