data_functionalizedCrystal
_audit_creation_method	'MofGen! by Chris Wilmer'
_symmetry_space_group_name_H-M	'P1'
_symmetry_Int_Tables_number	1
_symmetry_cell_setting	triclinic
loop_
_symmetry_equiv_pos_as_xyz
  x,y,z
_cell_length_a	17.019282
_cell_length_b	27.731996
_cell_length_c	16.098538
_cell_angle_alpha	92.693548
_cell_angle_beta	91.140572
_cell_angle_gamma	83.006485
loop_
_atom_site_label
_atom_site_type_symbol
_atom_site_fract_x
_atom_site_fract_y
_atom_site_fract_z
O1	O	1.045616	0.061728	0.005749
O2	O	1.545616	0.561728	0.505749
O3	O	0.816697	0.069076	-0.010677
O4	O	1.316697	0.569076	0.489323
O5	O	0.938287	-0.004952	-0.001934
O6	O	1.438287	0.495048	0.498066
O7	O	0.924026	0.135757	-0.002994
O8	O	1.424026	0.635757	0.497006
O9	O	0.931184	-0.000645	0.136068
O10	O	1.431184	0.499355	0.636068
O11	O	0.809594	0.073383	0.127325
O12	O	1.309594	0.573383	0.627325
O13	O	1.038514	0.066036	0.143751
O14	O	1.538514	0.566036	0.643751
Zn15	Zn	0.922926	0.070393	0.157449
Zn16	Zn	1.422926	0.570393	0.657449
Zn17	Zn	0.932284	0.064718	-0.024375
Zn18	Zn	1.432284	0.564718	0.475625
O19	O	0.916924	0.140064	0.135009
O20	O	1.416924	0.640064	0.635009
C21	C	0.783868	0.070867	0.056223
C22	C	1.283868	0.570867	0.556223
C23	C	0.696631	0.069781	0.049964
C24	C	1.196631	0.569781	0.549964
C25	C	0.651779	0.071618	0.122251
C26	C	1.151779	0.571618	0.622251
C27	C	0.569812	0.070590	0.116372
C28	C	1.069812	0.570590	0.616372
C29	C	0.532697	0.067729	0.038206
C30	C	1.032697	0.567729	0.538206
C31	C	0.577554	0.065891	-0.034086
C32	C	1.077554	0.565891	0.465914
C33	C	0.659521	0.066915	-0.028206
C34	C	1.159521	0.566915	0.471794
C35	C	0.285405	0.064516	0.016690
C36	C	0.785405	0.564516	0.516690
C37	C	0.203432	0.063493	0.010816
C38	C	0.703432	0.563493	0.510816
C39	C	0.195695	0.068192	0.161275
C40	C	0.695695	0.568192	0.661275
C41	C	0.277663	0.069219	0.167147
C42	C	0.777663	0.569219	0.667147
C43	C	0.322514	0.067378	0.094856
C44	C	0.822514	0.567378	0.594856
C45	C	0.448913	0.066680	0.032195
C46	C	0.948913	0.566680	0.532195
C47	C	0.406297	0.068423	0.100867
C48	C	0.906297	0.568423	0.600867
C49	C	0.934442	-0.020808	0.067049
C50	C	1.434442	0.479192	0.567049
C51	C	0.933559	-0.074469	0.066994
C52	C	1.433559	0.425531	0.566994
C53	C	0.931881	-0.409569	-0.008670
C54	C	1.431881	0.090431	0.491330
C55	C	0.928531	-0.611248	-0.008925
C56	C	1.428531	-0.111248	0.491075
O57	O	0.931356	-0.639318	-0.072935
O58	O	1.431356	-0.139318	0.427065
N59	N	0.924243	-0.634119	0.066269
N60	N	1.424243	-0.134119	0.566269
C61	C	0.920787	-0.606568	0.141532
C62	C	1.420787	-0.106568	0.641532
O63	O	0.917055	-0.630649	0.205483
O64	O	1.417055	-0.130649	0.705483
C65	C	0.924132	-0.404889	0.141786
C66	C	1.424132	0.095111	0.641786
C67	C	0.928428	-0.382021	0.066587
C68	C	1.428428	0.117979	0.566587
C69	C	0.936176	-0.386700	-0.083863
C70	C	1.436176	0.113300	0.416137
C71	C	0.937018	-0.336283	-0.083798
C72	C	1.437018	0.163717	0.416202
C73	C	0.933565	-0.308736	-0.008541
C74	C	1.433565	0.191264	0.491459
C75	C	0.929270	-0.331604	0.066652
C76	C	1.429270	0.168396	0.566652
C77	C	0.920671	-0.377338	0.217048
C78	C	1.420671	0.122662	0.717048
C79	C	0.921505	-0.326915	0.217105
C80	C	1.421505	0.173085	0.717105
C81	C	0.925801	-0.304047	0.141906
C82	C	1.425801	0.195953	0.641906
C83	C	0.926659	-0.253640	0.141974
C84	C	1.426659	0.246360	0.641974
N85	N	0.930946	-0.230768	0.066780
N86	N	1.430946	0.269232	0.566780
C87	C	0.934399	-0.258316	-0.008477
C88	C	1.434399	0.241684	0.491523
C89	C	0.919033	-0.712452	0.141394
C90	C	1.419033	-0.212452	0.641394
C91	C	0.918199	-0.762872	0.141331
C92	C	1.418199	-0.262872	0.641331
C93	C	0.925940	-0.767548	-0.009127
C94	C	1.425940	-0.267548	0.490873
C95	C	0.926781	-0.717128	-0.009063
C96	C	1.426781	-0.217128	0.490937
C97	C	0.923321	-0.689580	0.066199
C98	C	1.423321	-0.189580	0.566199
C99	C	0.936168	-0.152438	-0.008336
C100	C	1.436168	0.347562	0.491664
C101	C	0.937012	-0.102017	-0.008264
C102	C	1.437012	0.397983	0.491736
C103	C	0.929266	-0.097345	0.142193
C104	C	1.429266	0.402655	0.642193
C105	C	0.928426	-0.147761	0.142122
C106	C	1.428426	0.352239	0.642122
C107	C	0.931874	-0.175307	0.066851
C108	C	1.431874	0.324693	0.566851
O109	O	0.923826	-0.225539	0.205950
O110	O	1.423826	0.274461	0.705950
O111	O	0.938114	-0.234225	-0.072420
O112	O	1.438114	0.265775	0.427580
C113	C	0.931039	-0.459985	-0.008735
C114	C	1.431039	0.040015	0.491265
C115	C	0.926745	-0.482854	0.066458
C116	C	1.426745	0.017146	0.566458
C117	C	0.923292	-0.455306	0.141715
C118	C	1.423292	0.044694	0.641715
C119	C	0.925910	-0.533273	0.066395
C120	C	1.425910	-0.033273	0.566395
C121	C	0.929363	-0.560821	-0.008863
C122	C	1.429363	-0.060821	0.491137
C123	C	0.933650	-0.537949	-0.084057
C124	C	1.433650	-0.037949	0.415943
C125	C	0.934492	-0.487533	-0.083993
C126	C	1.434492	0.012467	0.416007
C127	C	0.919004	-0.478178	0.216910
C128	C	1.419004	0.021822	0.716910
C129	C	0.918163	-0.528594	0.216839
C130	C	1.418163	-0.028594	0.716839
C131	C	0.921616	-0.556142	0.141581
C132	C	1.421616	-0.056142	0.641581
C133	C	1.071343	0.064244	0.076849
C134	C	1.571343	0.564244	0.576849
C135	C	1.158580	0.065330	0.083103
C136	C	1.658580	0.565330	0.583103
C137	C	0.920768	0.155919	0.066024
C138	C	1.420768	0.655919	0.566024
C139	C	0.921652	0.209580	0.066073
C140	C	1.421652	0.709580	0.566073
N141	N	0.916546	0.074266	0.281539
N142	N	1.416546	0.574266	0.781539
N143	N	0.938671	0.060842	-0.148465
N144	N	1.438671	0.560842	0.351535
C145	C	0.968172	0.042857	0.328837
C146	C	1.468172	0.542857	0.828837
C147	C	0.963716	0.045571	0.415705
C148	C	1.463716	0.545571	0.915705
C149	C	0.907636	0.079696	0.455275
C150	C	1.407636	0.579696	0.955275
C151	C	0.856004	0.111107	0.407971
C152	C	1.356004	0.611107	0.907971
C153	C	0.860458	0.108391	0.321104
C154	C	1.360458	0.608391	0.821104
C155	C	0.891493	0.089536	0.717364
C156	C	1.391493	0.589536	1.217364
C157	C	0.887045	0.092251	0.804238
C158	C	1.387045	0.592251	1.304238
C159	C	0.994756	0.026713	0.811966
C160	C	1.494756	0.526713	1.311966
C161	C	0.999207	0.024002	0.725097
C162	C	1.499207	0.524002	1.225097
C163	C	0.947573	0.055411	0.677800
C164	C	1.447573	0.555411	1.177800
C165	C	0.903081	0.082472	0.544069
C166	C	1.403081	0.582472	1.044069
C167	C	0.952124	0.052632	0.589008
C168	C	1.452124	0.552632	1.089008
H169	H	0.307877	0.071546	0.230798
H170	H	0.807877	0.571546	0.730798
H171	H	0.857422	0.110259	0.576294
H172	H	1.357422	0.610259	1.076294
H173	H	0.681991	0.073952	0.185902
H174	H	1.181991	0.573952	0.685902
Br175	Br	0.942848	-0.070985	-0.110326
Br176	Br	1.442848	0.429015	0.389674
Br177	Br	1.033778	0.002942	0.479897
Br178	Br	1.533778	0.502942	0.979897
H179	H	0.533299	0.072078	0.175235
H180	H	1.033299	0.572078	0.675235
Br181	Br	0.810934	0.138571	0.857935
Br182	Br	1.310934	0.638571	1.357935
H183	H	0.159169	0.069690	0.220130
H184	H	0.659169	0.569690	0.720130
Br185	Br	1.075318	-0.022310	0.671393
Br186	Br	1.575318	0.477690	1.171393
Br187	Br	0.398541	0.062772	-0.073884
Br188	Br	0.898541	0.562772	0.426116
H189	H	0.436521	0.070751	0.164510
H190	H	0.936521	0.570751	0.664510
Br191	Br	0.779889	0.157418	0.461670
Br192	Br	1.279889	0.657418	0.961670
Br193	Br	0.940847	-0.189813	-0.110490
Br194	Br	1.440847	0.310187	0.389510
H195	H	0.940513	-0.317668	-0.145033
H196	H	1.440513	0.182332	0.354967
Br197	Br	0.914330	-0.675073	0.243546
Br198	Br	1.414330	-0.175073	0.743546
H199	H	0.173215	0.061165	-0.052839
H200	H	0.673215	0.561165	0.447161
H201	H	0.930278	-0.698512	-0.070297
H202	H	1.430278	-0.198512	0.429703
H203	H	0.321913	0.063015	-0.042175
H204	H	0.821913	0.563015	0.457825
Br205	Br	0.940862	-0.424077	-0.186013
Br206	Br	1.440862	0.075923	0.313987
Br207	Br	0.938343	-0.575346	-0.186191
Br208	Br	1.438343	-0.075346	0.313809
H209	H	0.928753	-0.789986	-0.070405
H210	H	1.428753	-0.289986	0.429595
H211	H	0.547329	0.063558	-0.097730
H212	H	1.047329	0.563558	0.402270
Br213	Br	0.922614	-0.178800	0.244180
Br214	Br	1.422614	0.321200	0.744180
Br215	Br	0.720393	0.064418	-0.126313
Br216	Br	1.220393	0.564418	0.373687
H217	H	0.997781	0.024845	0.556788
H218	H	1.497781	0.524845	1.056788
Br219	Br	0.912387	-0.793903	0.243392
Br220	Br	1.412387	-0.293903	0.743392
H221	H	1.036793	0.001141	0.850482
H222	H	1.536793	0.501141	1.350482
Br223	Br	0.914837	-0.408360	0.319110
Br224	Br	1.414837	0.091640	0.819110
Br225	Br	0.821421	0.132162	0.653181
Br226	Br	1.321421	0.632162	1.153181
H227	H	0.918676	-0.304487	0.278393
H228	H	1.418676	0.195513	0.778393
H229	H	0.926459	-0.074906	0.203466
H230	H	1.426459	0.425094	0.703466
H231	H	0.818417	0.133967	0.282595
H232	H	1.318417	0.633967	0.782595
H233	H	0.937990	-0.468918	-0.145227
H234	H	1.437990	0.031082	0.354773
H235	H	0.914671	-0.547210	0.278080
H236	H	1.414671	-0.047210	0.778080
H237	H	0.916193	-0.455753	0.278195
H238	H	1.416193	0.044247	0.778195
H239	H	1.013841	0.015070	0.296625
H240	H	1.513841	0.515070	0.796625
