data_functionalizedCrystal
_audit_creation_method	'MofGen! by Chris Wilmer'
_symmetry_space_group_name_H-M	'P1'
_symmetry_Int_Tables_number	1
_symmetry_cell_setting	triclinic
loop_
_symmetry_equiv_pos_as_xyz
  x,y,z
_cell_length_a	14.519709
_cell_length_b	16.109301
_cell_length_c	13.596369
_cell_angle_alpha	89.994680
_cell_angle_beta	89.993066
_cell_angle_gamma	83.570813
loop_
_atom_site_label
_atom_site_type_symbol
_atom_site_fract_x
_atom_site_fract_y
_atom_site_fract_z
O1	O	0.118543	1.103338	-0.081793
O2	O	0.133295	0.861301	-0.081796
O3	O	-0.008333	0.988737	-0.081785
O4	O	0.260171	0.975902	-0.081803
O5	O	-0.008341	0.988724	0.081797
O6	O	0.133287	0.861289	0.081787
O7	O	0.118535	1.103325	0.081790
Zn8	Zn	0.125910	0.982305	0.107761
Zn9	Zn	0.125920	0.982322	-0.107767
O10	O	0.260163	0.975890	0.081780
C11	C	-0.042696	0.988132	0.000006
C12	C	-0.145073	0.986340	0.000007
C13	C	0.132693	0.830319	-0.000004
C14	C	0.130902	0.738021	-0.000005
C15	C	0.119136	1.134307	-0.000004
C16	C	0.120928	1.226606	-0.000010
C17	C	-0.519955	0.979741	-0.000019
C18	C	-0.415651	0.981574	-0.000011
C19	C	-0.332517	0.983041	-0.000005
C20	C	-0.228207	0.984873	0.000000
C21	C	0.294526	0.976494	-0.000014
C22	C	0.396903	0.978287	-0.000021
N23	N	0.125903	0.982300	0.254853
C24	C	0.041054	1.448740	0.000001
C25	C	0.042745	1.535463	0.000004
C26	C	0.210782	1.515880	-0.000012
C27	C	0.209090	1.429158	-0.000008
C28	C	0.124224	1.395591	-0.000007
C29	C	0.127606	1.569036	-0.000007
C30	C	0.129440	1.663065	-0.000004
C31	C	0.122390	1.301556	-0.000009
N32	N	0.125920	0.982334	-0.254858
C33	C	0.125921	0.982321	0.656144
C34	C	0.125919	0.982312	0.544492
C35	C	0.125912	0.982311	0.455502
C36	C	0.125909	0.982301	0.343843
H37	H	-0.028049	1.421413	0.000004
Br38	Br	0.325952	1.561441	-0.000023
H39	H	-0.024980	1.578735	0.000012
H40	H	0.276821	1.385882	-0.000011
