data_functionalizedCrystal
_audit_creation_method	'MofGen! by Chris Wilmer'
_symmetry_space_group_name_H-M	'P1'
_symmetry_Int_Tables_number	1
_symmetry_cell_setting	triclinic
loop_
_symmetry_equiv_pos_as_xyz
  x,y,z
_cell_length_a	12.759401
_cell_length_b	16.625545
_cell_length_c	12.759393
_cell_angle_alpha	89.966045
_cell_angle_beta	89.980163
_cell_angle_gamma	90.027083
loop_
_atom_site_label
_atom_site_type_symbol
_atom_site_fract_x
_atom_site_fract_y
_atom_site_fract_z
Zn1	Zn	1.606176	-0.320921	-0.594003
Zn2	Zn	1.939509	0.012412	-0.260670
Zn3	Zn	2.272842	0.345746	0.072664
Zn4	Zn	1.606037	-0.455778	-0.418316
Zn5	Zn	1.939370	-0.122444	-0.084983
Zn6	Zn	2.272704	0.210889	0.248351
Zn7	Zn	1.430478	-0.320966	-0.418338
Zn8	Zn	1.763811	0.012367	-0.085005
Zn9	Zn	2.097144	0.345700	0.248328
Zn10	Zn	1.430433	-0.455719	-0.593953
Zn11	Zn	1.763766	-0.122385	-0.260620
Zn12	Zn	2.097100	0.210948	0.072713
O13	O	1.518281	-0.388346	-0.506153
O14	O	1.851614	-0.055013	-0.172819
O15	O	2.184948	0.278321	0.160514
O16	O	1.753178	-0.338816	-0.570709
O17	O	2.086512	-0.005482	-0.237376
O18	O	2.419845	0.327851	0.095957
O19	O	1.582709	-0.437938	-0.271298
O20	O	1.916043	-0.104605	0.062036
O21	O	2.249376	0.228728	0.395369
O22	O	1.453861	-0.208128	-0.441671
O23	O	1.787195	0.125205	-0.108337
O24	O	2.120528	0.458539	0.224996
O25	O	1.753076	-0.437894	-0.441633
O26	O	2.086410	-0.104561	-0.108300
O27	O	2.419743	0.228772	0.225034
O28	O	1.582946	-0.208094	-0.570731
O29	O	1.916279	0.125239	-0.237398
O30	O	2.249613	0.458572	0.095936
O31	O	1.453727	-0.338893	-0.271314
O32	O	1.787060	-0.005560	0.062019
O33	O	2.120393	0.327773	0.395353
O34	O	1.283451	-0.338836	-0.441622
O35	O	1.616784	-0.005503	-0.108289
O36	O	1.950118	0.327831	0.225044
O37	O	1.453785	-0.437794	-0.740981
O38	O	1.787118	-0.104460	-0.407648
O39	O	2.120452	0.228873	-0.074314
O40	O	1.283418	-0.437838	-0.570646
O41	O	1.616751	-0.104505	-0.237313
O42	O	1.950085	0.228829	0.096021
O43	O	1.582902	-0.338758	-0.741018
O44	O	1.916236	-0.005425	-0.407684
O45	O	2.249569	0.327908	-0.074351
O46	O	1.582666	-0.568602	-0.441585
O47	O	1.915999	-0.235269	-0.108251
O48	O	2.249332	0.098064	0.225082
O49	O	1.453650	-0.568559	-0.570624
O50	O	1.786984	-0.235226	-0.237291
O51	O	2.120317	0.098108	0.096042
C52	C	1.245313	-0.388336	-0.506132
C53	C	1.578647	-0.055003	-0.172798
C54	C	1.911980	0.278331	0.160535
C55	C	1.128537	-0.388351	-0.506148
C56	C	1.461870	-0.055018	-0.172814
C57	C	1.795204	0.278315	0.160519
C58	C	1.518167	-0.597837	-0.506120
C59	C	1.851500	-0.264504	-0.172786
C60	C	2.184833	0.068830	0.160547
C61	C	1.518214	-0.687458	-0.506141
C62	C	1.851547	-0.354125	-0.172807
C63	C	2.184881	-0.020791	0.160526
C64	C	1.073685	-0.439980	-0.573225
C65	C	1.407019	-0.106647	-0.239891
C66	C	1.740352	0.226687	0.093442
C67	C	0.963961	-0.439983	-0.573245
C68	C	1.297295	-0.106650	-0.239912
C69	C	1.630628	0.226684	0.093421
C70	C	0.963950	-0.336726	-0.439104
C71	C	1.297283	-0.003393	-0.105770
C72	C	1.630617	0.329940	0.227563
C73	C	1.073672	-0.336720	-0.439089
C74	C	1.407005	-0.003387	-0.105755
C75	C	1.740339	0.329947	0.227578
C76	C	1.518255	-0.760240	-0.506161
C77	C	1.851588	-0.426907	-0.172828
C78	C	2.184921	-0.093574	0.160505
C79	C	1.518316	-0.851549	-0.506185
C80	C	1.851649	-0.518215	-0.172851
C81	C	2.184983	-0.184882	0.160482
C82	C	1.518370	-0.924325	-0.506198
C83	C	1.851704	-0.590992	-0.172865
C84	C	2.185037	-0.257659	0.160469
C85	C	1.518431	-1.015639	-0.506219
C86	C	1.851764	-0.682306	-0.172886
C87	C	2.185097	-0.348973	0.160447
C88	C	1.792314	-0.388356	-0.506174
C89	C	2.125647	-0.055023	-0.172841
C90	C	2.458981	0.278310	0.160492
C91	C	1.909091	-0.388361	-0.506183
C92	C	2.242424	-0.055028	-0.172850
C93	C	2.575757	0.278306	0.160483
C94	C	1.518354	-0.388264	-0.780186
C95	C	1.851688	-0.054931	-0.446853
C96	C	2.185021	0.278402	-0.113519
C97	C	1.518385	-0.388230	-0.896963
C98	C	1.851719	-0.054896	-0.563630
C99	C	2.185052	0.278437	-0.230296
C100	C	1.518424	-0.178037	-0.506209
C101	C	1.851757	0.155296	-0.172876
C102	C	2.185091	0.488630	0.160458
C103	C	1.518485	-0.088416	-0.506233
C104	C	1.851818	0.244917	-0.172899
C105	C	2.185152	0.578251	0.160434
C106	C	1.451248	-0.336647	-0.951833
C107	C	1.784582	-0.003314	-0.618500
C108	C	2.117915	0.330019	-0.285166
C109	C	1.451273	-0.336623	-1.061557
C110	C	1.784606	-0.003289	-0.728224
C111	C	2.117940	0.330044	-0.394890
C112	C	1.585581	-0.439765	-1.061531
C113	C	1.918914	-0.106431	-0.728198
C114	C	2.252247	0.226902	-0.394865
C115	C	1.585550	-0.439793	-0.951809
C116	C	1.918883	-0.106460	-0.618476
C117	C	2.252217	0.226874	-0.285143
C118	C	1.518268	-0.388369	-0.233185
C119	C	1.851602	-0.055036	0.100148
C120	C	2.184935	0.278298	0.433481
C121	C	1.518441	-0.388177	-0.116409
C122	C	1.851774	-0.054843	0.216924
C123	C	2.185107	0.278490	0.550258
H124	H	0.919306	-0.482023	-0.627868
H125	H	1.252639	-0.148690	-0.294534
H126	H	1.585973	0.184643	0.038799
H127	H	1.640224	-0.481801	-0.907133
H128	H	1.973557	-0.148467	-0.573800
H129	H	2.306890	0.184866	-0.240466
H130	H	1.118353	-0.482020	-0.627831
H131	H	1.451686	-0.148686	-0.294498
H132	H	1.785020	0.184647	0.038836
H133	H	1.640264	-0.481745	-1.106201
H134	H	1.973598	-0.148412	-0.772867
H135	H	2.306931	0.184922	-0.439534
H136	H	0.919266	-0.294691	-0.384505
H137	H	1.252599	0.038642	-0.051172
H138	H	1.585932	0.371975	0.282162
H139	H	1.396559	-0.294661	-0.907180
H140	H	1.729892	0.038672	-0.573847
H141	H	2.063225	0.372005	-0.240513
C142	C	1.134013	-0.279927	-0.365299
C143	C	1.467346	0.053407	-0.031966
C144	C	1.800680	0.386740	0.301367
H145	H	1.085625	-0.249186	-0.325353
H146	H	1.418958	0.084147	0.007980
H147	H	1.752291	0.417481	0.341314
H148	H	1.176854	-0.244831	-0.405566
H149	H	1.510187	0.088503	-0.072232
H150	H	1.843520	0.421836	0.261101
H151	H	1.176777	-0.310732	-0.319443
H152	H	1.510110	0.022601	0.013891
H153	H	1.843443	0.355934	0.347224
H154	H	1.396602	-0.294620	-1.106227
H155	H	1.729936	0.038714	-0.772894
H156	H	2.063269	0.372047	-0.439561
