data_functionalizedCrystal
_audit_creation_method	'MofGen! by Chris Wilmer'
_symmetry_space_group_name_H-M	'P1'
_symmetry_Int_Tables_number	1
_symmetry_cell_setting	triclinic
loop_
_symmetry_equiv_pos_as_xyz
  x,y,z
_cell_length_a	15.297475
_cell_length_b	12.594516
_cell_length_c	12.594510
_cell_angle_alpha	90.032321
_cell_angle_beta	99.687339
_cell_angle_gamma	80.319586
loop_
_atom_site_label
_atom_site_type_symbol
_atom_site_fract_x
_atom_site_fract_y
_atom_site_fract_z
Zn1	Zn	1.379312	-0.705654	0.883027
Zn2	Zn	1.379220	-0.883665	0.705036
Zn3	Zn	1.228438	-0.674872	0.674303
Zn4	Zn	1.228423	-0.852741	0.852228
O5	O	1.303848	-0.779233	0.778648
O6	O	1.505550	-0.755092	0.885168
O7	O	1.359187	-0.856027	0.552007
O8	O	1.248497	-0.530019	0.702018
O9	O	1.505483	-0.885875	0.754398
O10	O	1.359343	-0.552634	0.855367
O11	O	1.248408	-0.702628	0.529427
O12	O	1.102186	-0.672643	0.672153
O13	O	1.248470	-0.833170	1.005266
O14	O	1.102175	-0.803322	0.802875
O15	O	1.359328	-0.725106	1.027894
O16	O	1.359171	-1.028499	0.724534
O17	O	1.248381	-1.005779	0.832676
C18	C	1.069445	-0.731287	0.730838
C19	C	0.969166	-0.710802	0.710409
C20	C	0.686573	-0.925655	0.924656
C21	C	0.780790	-0.944910	0.943847
C22	C	0.827889	-0.886384	0.885490
C23	C	0.780761	-0.808601	0.807938
C24	C	0.686535	-0.789349	0.788739
C25	C	0.827851	-0.750079	0.749572
C26	C	0.780723	-0.672295	0.672020
C27	C	0.686506	-0.653047	0.652826
C28	C	0.639408	-0.711573	0.711183
C29	C	0.922077	-0.769330	0.768771
C30	C	0.922039	-0.633025	0.632853
C31	C	0.827822	-0.613770	0.613663
C32	C	1.303789	-1.055762	0.778626
C33	C	1.303846	-1.174079	0.778669
C34	C	1.243582	-1.231012	0.837436
C35	C	1.221600	-1.297394	0.735832
C36	C	1.325910	-1.318513	0.880306
C37	C	1.281821	-1.238893	0.677005
C38	C	1.386169	-1.260014	0.821552
C39	C	1.364219	-1.326370	0.719888
C40	C	1.539167	-0.827366	0.826647
C41	C	1.639446	-0.847878	0.847101
C42	C	1.303908	-0.779122	1.056282
C43	C	1.303933	-0.779075	1.174592
C44	C	1.303932	-0.501629	0.778699
C45	C	1.303968	-0.383331	0.778721
C46	C	1.303841	-0.779277	0.502106
C47	C	1.303990	-0.779060	0.383831
C48	C	1.364247	-0.720298	1.256156
C49	C	1.281963	-0.677421	1.310174
C50	C	1.386266	-0.821887	1.331384
C51	C	1.221605	-0.736140	1.227043
C52	C	1.325964	-0.880662	1.248258
C53	C	1.243623	-0.837811	1.302232
H54	H	0.562688	-0.695897	0.695565
H55	H	0.648217	-0.973304	0.972156
H56	H	0.789437	-0.550438	0.550519
Br57	Br	0.955757	-0.912516	0.911536
H58	H	0.819154	-1.008244	1.006988
H59	H	1.344523	-1.353334	0.966239
Br60	Br	1.449254	-1.395166	0.636985
Br61	Br	1.502088	-1.231677	0.882017
Br62	Br	1.449114	-0.637371	1.221736
Br63	Br	1.250935	-0.534222	1.355750
Br64	Br	1.105555	-0.675631	1.151795
H65	H	0.960439	-0.832662	0.831915
Br66	Br	0.622549	-0.547495	0.547565
Br67	Br	1.158556	-0.920617	1.336305
H68	H	0.960386	-0.585370	0.585332
H69	H	1.192527	-1.189533	0.887027
H70	H	1.152038	-1.314393	0.699597
H71	H	1.344603	-0.966561	1.220899
H72	H	1.455869	-0.858099	1.376665
Br73	Br	1.250669	-1.181053	0.533710
