data_functionalizedCrystal
_audit_creation_method	'MofGen! by Chris Wilmer'
_symmetry_space_group_name_H-M	'P1'
_symmetry_Int_Tables_number	1
_symmetry_cell_setting	triclinic
loop_
_symmetry_equiv_pos_as_xyz
  x,y,z
_cell_length_a	8.559649
_cell_length_b	15.072220
_cell_length_c	8.559649
_cell_angle_alpha	90.007548
_cell_angle_beta	69.778664
_cell_angle_gamma	90.004291
loop_
_atom_site_label
_atom_site_type_symbol
_atom_site_fract_x
_atom_site_fract_y
_atom_site_fract_z
O1	O	2.126878	0.073769	-0.055024
O2	O	1.651393	0.073772	0.028758
O3	O	1.931026	0.073769	-0.250875
O4	O	1.847245	0.073772	0.224609
O5	O	1.931013	-0.073796	-0.250903
O6	O	1.651380	-0.073793	0.028730
O7	O	2.126865	-0.073797	-0.055052
Zn8	Zn	1.889120	-0.097224	-0.013165
Zn9	Zn	1.889137	0.097199	-0.013129
O10	O	1.847232	-0.073794	0.224581
C11	C	1.591077	-0.000010	0.035093
C12	C	1.411378	-0.000009	0.053992
N13	N	1.889121	-0.229913	-0.013193
C14	C	1.889140	-0.589114	-0.013141
C15	C	2.039144	-0.551481	-0.162375
C16	C	2.038855	-0.448656	-0.162823
C17	C	1.889132	-0.410910	-0.013167
C18	C	1.724414	-0.448252	-0.029366
C19	C	1.725321	-0.551110	-0.030402
C20	C	1.902281	-0.551191	0.152871
C21	C	1.906263	-0.448326	0.151259
C22	C	1.889116	-0.310197	-0.013177
C23	C	1.889145	-0.689828	-0.013133
C24	C	2.187180	-0.000012	-0.061387
C25	C	2.366879	-0.000008	-0.080286
C26	C	1.937369	-0.000012	-0.311198
C27	C	1.956268	-0.000007	-0.490898
N28	N	1.889151	0.229888	-0.013115
C29	C	1.840889	-0.000011	0.284904
C30	C	1.821990	-0.000010	0.464604
H31	H	1.311990	-0.000003	0.183420
H32	H	2.161968	-0.423408	-0.156248
O33	O	1.485365	0.000148	-0.234724
C34	C	1.601325	0.076569	-0.496832
C35	C	1.467067	0.076512	-0.321966
H36	H	1.586556	0.138294	-0.567430
H37	H	1.730035	0.076625	-0.485178
H38	H	1.586706	0.014785	-0.567388
H39	H	1.481530	0.138286	-0.251313
H40	H	1.338409	0.076410	-0.333739
H41	H	2.085696	-0.000015	-0.590286
H42	H	1.692570	-0.000012	-0.436018
H43	H	2.162723	-0.576211	-0.156208
H44	H	2.033132	-0.577340	-0.285328
O45	O	2.031319	-0.419453	-0.310365
C46	C	2.018113	-0.459566	-0.578039
C47	C	2.026612	-0.492757	-0.411001
H48	H	2.014341	-0.518814	-0.659463
H49	H	1.901153	-0.417769	-0.554233
H50	H	2.132684	-0.417531	-0.644127
H51	H	1.912125	-0.534827	-0.344826
H52	H	2.143645	-0.534505	-0.434918
O53	O	2.041003	-0.582220	0.177800
C54	C	2.151888	-0.664754	0.356946
C55	C	1.994636	-0.629684	0.328931
H56	H	2.114458	-0.703119	0.479149
H57	H	2.222856	-0.710512	0.249872
H58	H	2.234787	-0.606529	0.362603
H59	H	1.911612	-0.687852	0.323312
H60	H	1.923797	-0.583899	0.436011
H61	H	1.611418	-0.576006	0.075240
O62	O	1.707778	-0.579599	-0.174194
C63	C	1.675017	-0.538191	-0.433026
C64	C	1.694914	-0.505812	-0.270265
H65	H	1.664575	-0.478551	-0.510729
H66	H	1.787959	-0.579648	-0.506387
H67	H	1.557655	-0.580354	-0.402394
H68	H	1.812212	-0.463613	-0.300749
H69	H	1.581886	-0.464402	-0.196951
O70	O	1.589097	-0.418937	0.097752
C71	C	1.430657	-0.292383	0.239069
C72	C	1.583936	-0.325464	0.095018
H73	H	1.426454	-0.216807	0.236928
H74	H	1.312726	-0.320341	0.224423
H75	H	1.439383	-0.315517	0.362586
H76	H	1.575373	-0.302341	-0.028565
H77	H	1.701805	-0.297512	0.109811
H78	H	1.708746	-0.422501	-0.148299
H79	H	2.027331	-0.423920	0.164032
H80	H	1.792652	-0.575532	0.263682
H81	H	1.802493	-0.422630	0.265908
