data_functionalizedCrystal
_audit_creation_method	'MofGen! by Chris Wilmer'
_symmetry_space_group_name_H-M	'P1'
_symmetry_Int_Tables_number	1
_symmetry_cell_setting	triclinic
loop_
_symmetry_equiv_pos_as_xyz
  x,y,z
_cell_length_a	11.792254
_cell_length_b	16.974800
_cell_length_c	16.053802
_cell_angle_alpha	91.074188
_cell_angle_beta	87.412233
_cell_angle_gamma	96.206824
loop_
_atom_site_label
_atom_site_type_symbol
_atom_site_fract_x
_atom_site_fract_y
_atom_site_fract_z
O1	O	-0.144679	1.049700	0.001532
O2	O	-0.162053	0.820313	-0.013974
O3	O	0.011836	0.940568	-0.005849
O4	O	-0.318569	0.929445	-0.006593
O5	O	0.002304	0.933948	0.132562
O6	O	-0.171585	0.813694	0.124438
O7	O	-0.154211	1.043080	0.139943
Zn8	Zn	-0.164412	0.927336	0.154166
Zn9	Zn	-0.151853	0.936057	-0.028197
O10	O	-0.328101	0.922825	0.131818
C11	C	-0.165984	0.787637	0.053246
C12	C	-0.163481	0.700133	0.047331
C13	C	-0.167499	0.655420	0.120002
C14	C	-0.165129	0.573203	0.114447
C15	C	-0.158750	0.535699	0.036219
C16	C	-0.154729	0.580418	-0.036457
C17	C	-0.157091	0.662635	-0.030901
C18	C	-0.151123	0.290196	0.011511
C19	C	-0.148765	0.207973	0.005959
C20	C	-0.159163	0.200764	0.156864
C21	C	-0.161531	0.282981	0.162414
C22	C	-0.157504	0.327694	0.089737
N23	N	-0.156332	0.451660	0.030538
N24	N	-0.159914	0.411733	0.095419
C25	C	-0.365621	0.926836	0.062661
C26	C	-0.491622	0.928933	0.062805
C27	C	-0.593948	0.930637	0.062916
C28	C	-0.722322	0.932768	0.063050
C29	C	0.049357	0.936558	0.063307
C30	C	0.175358	0.934461	0.063157
C31	C	-0.150280	1.075757	0.072721
C32	C	-0.152783	1.163260	0.078631
N33	N	-0.172982	0.921390	0.278625
N34	N	-0.143274	0.942010	-0.152655
C35	C	-0.099018	0.972577	0.325777
C36	C	-0.105024	0.968425	0.412903
C37	C	-0.185000	0.913089	0.452876
C38	C	-0.258967	0.861896	0.405717
C39	C	-0.252955	0.866045	0.318592
C40	C	-0.211229	0.894966	0.713061
C41	C	-0.217238	0.890822	0.800192
C42	C	-0.063292	0.997351	0.807373
C43	C	-0.057292	1.001498	0.720246
C44	C	-0.131255	0.950303	0.673095
N45	N	-0.191143	0.908845	0.541933
N46	N	-0.125106	0.954543	0.584039
H47	H	-0.153822	0.699039	-0.090078
H48	H	-0.313182	0.824361	0.280201
F49	F	-0.289948	0.840482	0.662886
H50	H	-0.033898	1.017641	0.293238
H51	H	0.007831	1.046558	0.687703
F52	F	-0.344079	0.802998	0.448259
F53	F	-0.141979	0.168061	-0.077305
F54	F	-0.174295	0.695326	0.203264
H55	H	-0.168382	0.536803	0.173623
F56	F	-0.147906	0.540505	-0.119713
H57	H	-0.044796	1.010106	0.451295
F58	F	0.015422	1.051832	0.857559
H59	H	-0.147840	0.326592	-0.047668
H60	H	-0.166720	0.313511	0.226115
F61	F	-0.163445	0.153172	0.234206
F62	F	-0.302366	0.831923	0.842728
