data_functionalizedCrystal
_audit_creation_method	'MofGen! by Chris Wilmer'
_symmetry_space_group_name_H-M	'P1'
_symmetry_Int_Tables_number	1
_symmetry_cell_setting	triclinic
loop_
_symmetry_equiv_pos_as_xyz
  x,y,z
_cell_length_a	13.330367
_cell_length_b	19.288864
_cell_length_c	19.288865
_cell_angle_alpha	96.863755
_cell_angle_beta	90.009880
_cell_angle_gamma	89.978603
loop_
_atom_site_label
_atom_site_type_symbol
_atom_site_fract_x
_atom_site_fract_y
_atom_site_fract_z
O1	O	0.083757	-0.921351	0.086647
O2	O	0.083690	-0.719091	0.098336
O3	O	0.083705	-0.826065	-0.008639
O4	O	0.083741	-0.814377	0.193622
O5	O	-0.083142	-0.826050	-0.008641
O6	O	-0.083158	-0.719075	0.098334
O7	O	-0.083091	-0.921336	0.086645
Cu8	Cu	-0.098359	-0.820204	0.092489
Cu9	Cu	0.098958	-0.820223	0.092492
O10	O	-0.083106	-0.814361	0.193620
C11	C	0.000257	-0.693207	0.097959
C12	C	0.000231	-0.616103	0.096830
N13	N	-0.237140	-0.820196	0.092487
C14	C	0.000278	-0.825682	-0.034516
C15	C	0.000269	-0.824553	-0.111620
C16	C	-0.709770	-0.772852	0.139842
C17	C	-0.709724	-0.867612	0.045136
C18	C	-0.604706	-0.867604	0.045134
C19	C	-0.552215	-0.820220	0.092487
C20	C	-0.604742	-0.772844	0.139842
C21	C	-0.552171	-0.914983	-0.002215
C22	C	-0.447146	-0.914978	-0.002219
C23	C	-0.394653	-0.867590	0.045132
C24	C	-0.447186	-0.820212	0.092488
C25	C	-0.394695	-0.772829	0.139841
C26	C	-0.447227	-0.725446	0.187195
C27	C	-0.552249	-0.725457	0.187193
C28	C	-0.289631	-0.867580	0.045134
C29	C	-0.289667	-0.772821	0.139842
N30	N	0.237739	-0.820236	0.092489
C31	C	0.000344	-0.947220	0.087022
C32	C	0.000377	-1.024324	0.088151
C33	C	0.000258	-0.571407	0.159598
C34	C	0.000268	-0.498960	0.158537
C35	C	0.000273	-0.471212	0.094705
C36	C	0.000240	-0.515918	0.031929
C37	C	0.000219	-0.588364	0.032991
C38	C	0.058751	-0.362956	0.044526
C39	C	0.058779	-0.290511	0.043467
C40	C	0.000333	-0.247767	0.091425
C41	C	-0.058127	-0.277474	0.140455
C42	C	-0.058148	-0.349919	0.141518
C43	C	0.000295	-0.392658	0.093546
C44	C	0.000370	-0.124514	0.153047
C45	C	0.000375	-0.052066	0.151984
C46	C	0.000356	-0.069026	0.025374
C47	C	0.000342	-0.141473	0.026439
C48	C	0.000353	-0.169212	0.090278
C49	C	0.000285	-0.887321	-0.156316
C50	C	0.000301	-0.886260	-0.228763
C51	C	0.000280	-0.822428	-0.256511
C52	C	0.000270	-0.759652	-0.211805
C53	C	0.000264	-0.760714	-0.139359
C54	C	-0.058179	-0.772243	-0.364799
C55	C	-0.058180	-0.771183	-0.437244
C56	C	0.000302	-0.819148	-0.479956
C57	C	0.058771	-0.868185	-0.450218
C58	C	0.058766	-0.869247	-0.377772
C59	C	0.000287	-0.821269	-0.335065
C60	C	0.000336	-0.880770	-0.603209
C61	C	0.000357	-0.879707	-0.675657
C62	C	0.000317	-0.753097	-0.658697
C63	C	0.000305	-0.754162	-0.586250
C64	C	0.000310	-0.818001	-0.558511
C65	C	0.000323	-0.814745	0.219497
C66	C	0.000339	-0.815874	0.296601
H67	H	-0.246935	-0.734232	0.178400
H68	H	0.000344	-0.932751	-0.580622
F69	F	0.000319	-0.953069	-0.276341
F70	F	0.000294	-0.451382	0.225346
H71	H	-0.105784	-0.731251	-0.461451
H72	H	-0.404477	-0.686869	0.225753
F73	F	-0.608160	-0.675034	0.237587
H74	H	0.000365	-0.147101	0.205028
H75	H	0.000325	-0.177866	-0.024674
F76	F	-0.120367	-0.381534	0.193696
F77	F	0.000300	-0.685161	-0.688223
H78	H	0.000422	-0.046435	-0.026600
H79	H	-0.752544	-0.734272	0.178395
H80	H	0.106375	-0.909173	-0.353562
F81	F	0.000284	-0.687355	-0.538679
F82	F	0.121005	-0.258900	-0.008709
F83	F	-0.765588	-0.918043	-0.005254
F84	F	0.120961	-0.408441	-0.006522
F85	F	-0.120334	-0.231988	0.191501
F86	F	0.000381	-0.946517	-0.723227
F87	F	0.000398	-0.004496	0.218794
F88	F	0.000255	-0.691717	-0.241336
F89	F	-0.120430	-0.721189	-0.319347
H90	H	0.000257	-0.493322	-0.020044
F91	F	-0.608035	-0.965414	-0.052605
F92	F	0.000248	-0.693905	-0.091788
H93	H	0.106393	-0.907243	-0.484993
H94	H	-0.404381	-0.953558	-0.040777
H95	H	0.000269	-0.593987	0.211580
F96	F	0.000190	-0.635935	-0.033818
H97	H	-0.246865	-0.906161	0.006582
H98	H	0.000293	-0.939303	-0.133736
