data_functionalizedCrystal
_audit_creation_method	'MofGen! by Chris Wilmer'
_symmetry_space_group_name_H-M	'P1'
_symmetry_Int_Tables_number	1
_symmetry_cell_setting	triclinic
loop_
_symmetry_equiv_pos_as_xyz
  x,y,z
_cell_length_a	12.759401
_cell_length_b	21.295417
_cell_length_c	12.759393
_cell_angle_alpha	89.961905
_cell_angle_beta	89.979062
_cell_angle_gamma	90.032032
loop_
_atom_site_label
_atom_site_type_symbol
_atom_site_fract_x
_atom_site_fract_y
_atom_site_fract_z
Zn1	Zn	1.606151	-0.250553	-0.593965
Zn2	Zn	1.605994	-0.355835	-0.418261
Zn3	Zn	1.430450	-0.250587	-0.418300
Zn4	Zn	1.430393	-0.355791	-0.593899
O5	O	1.518247	-0.303192	-0.506106
O6	O	1.753151	-0.264523	-0.570669
O7	O	1.582665	-0.341906	-0.271245
O8	O	1.453846	-0.162493	-0.441646
O9	O	1.753035	-0.341874	-0.441580
O10	O	1.582933	-0.162468	-0.570706
O11	O	1.453694	-0.264581	-0.271274
O12	O	1.283421	-0.264538	-0.441582
O13	O	1.453750	-0.341799	-0.740929
O14	O	1.283380	-0.341831	-0.570594
O15	O	1.582879	-0.264481	-0.740977
O16	O	1.582610	-0.443919	-0.441516
O17	O	1.453597	-0.443886	-0.570556
C18	C	1.245279	-0.303184	-0.506085
C19	C	1.128503	-0.303196	-0.506101
C20	C	1.518109	-0.466743	-0.506048
C21	C	1.518146	-0.536711	-0.506058
C22	C	1.073647	-0.343504	-0.573172
C23	C	0.963923	-0.343506	-0.573193
C24	C	0.963921	-0.262891	-0.439063
C25	C	1.073643	-0.262886	-0.439048
C26	C	1.585383	-0.569574	-0.438936
C27	C	1.585432	-0.635316	-0.438960
C28	C	1.518226	-0.668194	-0.506094
C29	C	1.450985	-0.635323	-0.573230
C30	C	1.450945	-0.569582	-0.573212
N31	N	1.426319	-0.771460	-0.514097
N32	N	1.426360	-0.833912	-0.514108
C33	C	1.518344	-0.866268	-0.506155
N34	N	1.610287	-0.833814	-0.498169
N35	N	1.610245	-0.771357	-0.498153
C36	C	1.518262	-0.739479	-0.506122
C37	C	1.585640	-0.970417	-0.439054
C38	C	1.585691	-1.036160	-0.439085
C39	C	1.451233	-1.036166	-0.573350
C40	C	1.451192	-0.970423	-0.573325
C41	C	1.518393	-0.937553	-0.506171
C42	C	1.792280	-0.303200	-0.506128
C43	C	1.909057	-0.303203	-0.506137
C44	C	1.518325	-0.303131	-0.780140
C45	C	1.518359	-0.303105	-0.896916
C46	C	1.518414	-0.139001	-0.506188
C47	C	1.518485	-0.069033	-0.506222
C48	C	1.585601	-0.262839	-0.951805
C49	C	1.585619	-0.262812	-1.061529
C50	C	1.451149	-0.343322	-1.061466
C51	C	1.451127	-0.343346	-0.951744
C52	C	1.518229	-0.303206	-0.233139
C53	C	1.518399	-0.303055	-0.116363
H54	H	0.919264	-0.376328	-0.627810
C55	C	1.658508	-0.219116	-1.121312
C56	C	1.644118	-0.227691	-1.229138
C57	C	1.711234	-0.187439	-1.284242
H58	H	1.729130	-0.228294	-1.103469
H59	H	1.643159	-0.176812	-1.103403
H60	H	1.659474	-0.269986	-1.247040
H61	H	1.573510	-0.218508	-1.247013
H62	H	1.695885	-0.145135	-1.266333
H63	H	1.781852	-0.196620	-1.266391
H64	H	1.701472	-0.193247	-1.357407
C65	C	1.377977	-0.670902	-0.646235
C66	C	1.319101	-0.628047	-0.705036
C67	C	1.251847	-0.660798	-0.772315
H68	H	1.332141	-0.696595	-0.606130
H69	H	1.418136	-0.696490	-0.692109
H70	H	1.278944	-0.602470	-0.659168
H71	H	1.364909	-0.602353	-0.745162
H72	H	1.292007	-0.686386	-0.818189
H73	H	1.206019	-0.686490	-0.732202
H74	H	1.211899	-0.631727	-0.812226
H75	H	1.396414	-0.376086	-1.106120
C76	C	1.133021	-0.387286	-0.646094
C77	C	1.061490	-0.422573	-0.704857
C78	C	1.116143	-0.462904	-0.772058
H79	H	1.175786	-0.414740	-0.605934
H80	H	1.175842	-0.363249	-0.691995
H81	H	1.018687	-0.446608	-0.658961
H82	H	1.018722	-0.395135	-0.745038
H83	H	1.158965	-0.438867	-0.817959
H84	H	1.158907	-0.490354	-0.731890
H85	H	1.067618	-0.486847	-0.811943
H86	H	1.396192	-0.542825	-0.627872
H87	H	1.640105	-0.542812	-0.384258
C88	C	0.904545	-0.219064	-0.366218
C89	C	0.976074	-0.183751	-0.307496
C90	C	0.921419	-0.143366	-0.240386
H91	H	0.861698	-0.243044	-0.320278
H92	H	0.861805	-0.191633	-0.406474
H93	H	1.018796	-0.211178	-0.267243
H94	H	1.018923	-0.159758	-0.353408
H95	H	0.878679	-0.115935	-0.280642
H96	H	0.878574	-0.167351	-0.194454
H97	H	0.969943	-0.119397	-0.200543
C98	C	1.133343	-0.219223	-0.366161
C99	C	1.196295	-0.254814	-0.298723
C100	C	1.251316	-0.214614	-0.231582
H101	H	1.085078	-0.195205	-0.326124
H102	H	1.176248	-0.191833	-0.406406
H103	H	1.153394	-0.282193	-0.258483
H104	H	1.244579	-0.278830	-0.338732
H105	H	1.294220	-0.187224	-0.271826
H106	H	1.203044	-0.190598	-0.191552
H107	H	1.294042	-0.238756	-0.185824
C108	C	1.658471	-0.670892	-0.365960
C109	C	1.717296	-0.628035	-0.307130
C110	C	1.784577	-0.660782	-0.239862
H111	H	1.704337	-0.696497	-0.406074
H112	H	1.618333	-0.696568	-0.320104
H113	H	1.757430	-0.602370	-0.352980
H114	H	1.671457	-0.602428	-0.266994
H115	H	1.744440	-0.686457	-0.194006
H116	H	1.830436	-0.686386	-0.279985
H117	H	1.824491	-0.631708	-0.199931
C118	C	1.378225	-1.071740	-0.646357
C119	C	1.319345	-1.028884	-0.705152
C120	C	1.252091	-1.061635	-0.772432
H121	H	1.332393	-1.097434	-0.606253
H122	H	1.418385	-1.097325	-0.692235
H123	H	1.279189	-1.003309	-0.659280
H124	H	1.365150	-1.003188	-0.745278
H125	H	1.292250	-1.087220	-0.818309
H126	H	1.206265	-1.087328	-0.732319
H127	H	1.212139	-1.032563	-0.812339
C128	C	1.658717	-0.934837	-0.366113
C129	C	1.717638	-0.977691	-0.307358
C130	C	1.784976	-0.944940	-0.240163
H131	H	1.618649	-0.909237	-0.320199
H132	H	1.704512	-0.909156	-0.406310
H133	H	1.671849	-1.003361	-0.267165
H134	H	1.757728	-1.003292	-0.353245
H135	H	1.830771	-0.919259	-0.280359
H136	H	1.744899	-0.919342	-0.194256
H137	H	1.824969	-0.974012	-0.200297
C138	C	1.658412	-0.219107	-0.892145
C139	C	1.598951	-0.178783	-0.829147
C140	C	1.665987	-0.138490	-0.774168
H141	H	1.698482	-0.195062	-0.940435
H142	H	1.704143	-0.243177	-0.849275
H143	H	1.553238	-0.154715	-0.872013
H144	H	1.558884	-0.202811	-0.780838
H145	H	1.711718	-0.162560	-0.731298
H146	H	1.706053	-0.114449	-0.822465
H147	H	1.625653	-0.111129	-0.731410
C148	C	1.378249	-0.387172	-0.892196
C149	C	1.401082	-0.449452	-0.918832
C150	C	1.333979	-0.489838	-0.863987
H151	H	1.307633	-0.378037	-0.910124
H152	H	1.387873	-0.381463	-0.818988
H153	H	1.391449	-0.455159	-0.992024
H154	H	1.471686	-0.458607	-0.900901
H155	H	1.343603	-0.484129	-0.790778
H156	H	1.263367	-0.480697	-0.881919
H157	H	1.349468	-0.532100	-0.882044
H158	H	1.396437	-0.943665	-0.627977
H159	H	1.640449	-1.062916	-0.384429
