data_functionalizedCrystal
_audit_creation_method	'MofGen! by Chris Wilmer'
_symmetry_space_group_name_H-M	'P1'
_symmetry_Int_Tables_number	1
_symmetry_cell_setting	triclinic
loop_
_symmetry_equiv_pos_as_xyz
  x,y,z
_cell_length_a	19.121141
_cell_length_b	13.897448
_cell_length_c	13.897441
_cell_angle_alpha	90.030599
_cell_angle_beta	92.462673
_cell_angle_gamma	87.571228
loop_
_atom_site_label
_atom_site_type_symbol
_atom_site_fract_x
_atom_site_fract_y
_atom_site_fract_z
Zn1	Zn	-1.073786	0.447014	-0.608295
Zn2	Zn	-0.573786	0.947014	-0.108295
Zn3	Zn	-1.073708	0.608331	-0.446992
Zn4	Zn	-0.573708	1.108331	0.053008
Zn5	Zn	-0.956329	0.440162	-0.440132
Zn6	Zn	-0.456329	0.940162	0.059868
Zn7	Zn	-0.956316	0.601373	-0.601367
Zn8	Zn	-0.456316	1.101373	-0.101367
O9	O	-1.015035	0.524220	-0.524197
O10	O	-0.515035	1.024220	-0.024197
O11	O	-1.172061	0.474193	-0.592669
O12	O	-0.672061	0.974193	-0.092669
O13	O	-1.058111	0.586067	-0.311099
O14	O	-0.558111	1.086067	0.188901
O15	O	-0.971948	0.306091	-0.462468
O16	O	-0.471948	0.806091	0.037532
O17	O	-1.172004	0.592712	-0.474160
O18	O	-0.672004	1.092712	0.025840
O19	O	-1.058243	0.311126	-0.586017
O20	O	-0.558243	0.811126	-0.086017
O21	O	-0.971873	0.462514	-0.306059
O22	O	-0.471873	0.962514	0.193941
O23	O	-0.858042	0.455767	-0.455749
O24	O	-0.358042	0.955767	0.044251
O25	O	-0.971925	0.580853	-0.737269
O26	O	-0.471925	1.080853	-0.237269
O27	O	-0.858033	0.574209	-0.574208
O28	O	-0.358033	1.074209	-0.074208
O29	O	-1.058230	0.467446	-0.742360
O30	O	-0.558230	0.967446	-0.242360
O31	O	-1.058098	0.742388	-0.467442
O32	O	-0.558098	1.242388	0.032558
O33	O	-0.971850	0.737276	-0.580860
O34	O	-0.471850	1.237276	-0.080860
C35	C	-0.832553	0.513490	-0.513483
C36	C	-0.332553	1.013490	-0.013483
C37	C	-0.754487	0.508923	-0.508922
C38	C	-0.254487	1.008923	-0.008922
C39	C	-0.717824	0.568537	-0.568358
C40	C	-0.217824	1.068537	-0.068358
C41	C	-0.644473	0.564233	-0.564077
C42	C	-0.144473	1.064233	-0.064077
C43	C	-0.607785	0.500319	-0.500356
C44	C	-0.107785	1.000319	-0.000356
C45	C	-0.644452	0.440699	-0.440918
C46	C	-0.144452	0.940699	0.059082
C47	C	-0.717803	0.444999	-0.445204
C48	C	-0.217803	0.944999	0.054796
C49	C	-0.386313	0.484243	-0.484339
C50	C	0.113687	0.984243	0.015661
C51	C	-0.312958	0.479949	-0.480055
C52	C	0.187042	0.979949	0.019945
C53	C	-0.312983	0.603482	-0.603216
C54	C	0.187017	1.103482	-0.103216
C55	C	-0.386335	0.607780	-0.607493
C56	C	0.113665	1.107780	-0.107493
C57	C	-0.422996	0.548157	-0.548058
C58	C	0.077004	1.048157	-0.048058
C59	C	-0.532808	0.495921	-0.495977
C60	C	-0.032808	0.995921	0.004023
C61	C	-0.497972	0.552551	-0.552443
C62	C	0.002028	1.052551	-0.052443
C63	C	-1.014984	0.774831	-0.524166
C64	C	-0.514984	1.274831	-0.024166
C65	C	-1.015026	0.882048	-0.524188
C66	C	-0.515026	1.382048	-0.024188
C67	C	-1.015085	0.524138	-0.775793
C68	C	-0.515085	1.024138	-0.275793
C69	C	-1.015106	0.524103	-0.883008
C70	C	-0.515106	1.024103	-0.383008
C71	C	-0.198229	0.534987	-0.534941
C72	C	0.301771	1.034987	-0.034941
C73	C	-0.276295	0.539563	-0.539491
C74	C	0.223705	1.039563	-0.039491
C75	C	-1.015105	0.272631	-0.524250
C76	C	-0.515105	0.772631	-0.024250
C77	C	-1.015135	0.165419	-0.524272
C78	C	-0.515135	0.665419	-0.024272
C79	C	-1.015100	1.078347	-0.524253
C80	C	-0.515100	1.578347	-0.024253
C81	C	-1.015057	0.969112	-0.524220
C82	C	-0.515057	1.469112	-0.024220
C83	C	-1.015125	0.524039	-1.079304
C84	C	-0.515125	1.024039	-0.579304
C85	C	-1.015112	0.524077	-0.970071
C86	C	-0.515112	1.024077	-0.470071
C87	C	-1.015026	0.524235	-0.273582
C88	C	-0.515026	1.024235	0.226418
C89	C	-1.015140	0.524006	-0.166375
C90	C	-0.515140	1.024006	0.333625
H91	H	-0.283126	0.652023	-0.651606
H92	H	0.216874	1.152023	-0.151606
H93	H	-0.747652	0.396450	-0.396810
H94	H	-0.247652	0.896450	0.103190
H95	H	-0.283089	0.427892	-0.428171
H96	H	0.216911	0.927892	0.071829
N97	N	-0.423745	0.423340	-0.423618
N98	N	0.076255	0.923340	0.076382
N99	N	-0.390977	0.366286	-0.366724
N100	N	0.109023	0.866286	0.133276
H101	H	-0.417414	0.323273	-0.323833
H102	H	0.082586	0.823273	0.176167
H103	H	-0.614575	0.388655	-0.389038
H104	H	-0.114575	0.888655	0.110962
N105	N	-0.607038	0.625147	-0.624788
N106	N	-0.107038	1.125147	-0.124788
N107	N	-0.615218	0.714624	-0.618702
N108	N	-0.115218	1.214624	-0.118702
H109	H	-0.588783	0.757650	-0.661583
H110	H	-0.088783	1.257650	-0.161583
H111	H	-0.416201	0.659827	-0.659379
H112	H	0.083799	1.159827	-0.159379
H113	H	-0.502928	0.443884	-0.444093
H114	H	-0.002928	0.943884	0.055907
N115	N	-0.755286	0.633838	-0.633446
N116	N	-0.255286	1.133838	-0.133446
N117	N	-0.722539	0.687059	-0.686508
N118	N	-0.222539	1.187059	-0.186508
H119	H	-0.748994	0.733179	-0.732479
H120	H	-0.248994	1.233179	-0.232479
N121	N	-0.535433	0.617850	-0.617527
N122	N	-0.035433	1.117850	-0.117527
N123	N	-0.502695	0.671083	-0.670587
N124	N	-0.002695	1.171083	-0.170587
H125	H	-0.529157	0.717205	-0.716551
H126	H	-0.029157	1.217205	-0.216551
