data_functionalizedCrystal
_audit_creation_method	'MofGen! by Chris Wilmer'
_symmetry_space_group_name_H-M	'P1'
_symmetry_Int_Tables_number	1
_symmetry_cell_setting	triclinic
loop_
_symmetry_equiv_pos_as_xyz
  x,y,z
_cell_length_a	17.077404
_cell_length_b	12.594516
_cell_length_c	17.077396
_cell_angle_alpha	90.023145
_cell_angle_beta	90.019501
_cell_angle_gamma	90.016278
loop_
_atom_site_label
_atom_site_type_symbol
_atom_site_fract_x
_atom_site_fract_y
_atom_site_fract_z
Zn1	Zn	1.200092	-0.423736	0.443872
Zn2	Zn	1.200015	-0.601736	0.312618
Zn3	Zn	1.068824	-0.423773	0.312620
Zn4	Zn	1.068807	-0.601673	0.443842
O5	O	1.134434	-0.512730	0.378238
O6	O	1.309929	-0.447359	0.426473
O7	O	1.182586	-0.578171	0.202771
O8	O	1.086276	-0.274822	0.330044
O9	O	1.309872	-0.578135	0.330041
O10	O	1.182718	-0.274795	0.426474
O11	O	1.086201	-0.447422	0.202773
O12	O	0.958975	-0.447361	0.330015
O13	O	1.086248	-0.578027	0.553693
O14	O	0.958963	-0.578064	0.426423
O15	O	1.182702	-0.447297	0.553715
O16	O	1.182571	-0.750674	0.330012
O17	O	1.086173	-0.750627	0.426421
C18	C	0.930487	-0.512710	0.378216
C19	C	0.843237	-0.512728	0.378226
C20	C	0.802261	-0.580887	0.428345
C21	C	0.720280	-0.580890	0.428357
C22	C	0.679277	-0.512737	0.378246
C23	C	0.720259	-0.444570	0.328125
C24	C	0.802238	-0.444563	0.328117
C25	C	0.549389	-0.444591	0.328144
C26	C	0.467404	-0.444599	0.328150
C27	C	0.467431	-0.580917	0.428384
C28	C	0.549410	-0.580910	0.428376
C29	C	0.590386	-0.512745	0.378253
C30	C	1.134383	-0.789271	0.378230
C31	C	1.134433	-0.907576	0.378253
C32	C	1.081997	-0.976843	0.430653
C33	C	1.062873	-1.047703	0.359026
C34	C	1.153628	-1.047515	0.449893
C35	C	1.115271	-0.976878	0.306587
C36	C	1.206059	-0.976684	0.397503
C37	C	1.186963	-1.047512	0.325826
C38	C	1.339179	-0.512750	0.378260
C39	C	1.426428	-0.512758	0.378269
C40	C	1.134482	-0.512651	0.582982
C41	C	1.134502	-0.512618	0.670232
C42	C	1.134507	-0.235109	0.378263
C43	C	1.134539	-0.116803	0.378273
C44	C	1.134432	-0.512731	0.174290
C45	C	1.134564	-0.512465	0.087041
C46	C	1.184728	-0.444541	0.711235
C47	C	1.184737	-0.444506	0.793216
C48	C	1.134524	-0.512553	0.834192
C49	C	1.084293	-0.580633	0.793183
C50	C	1.084281	-0.580662	0.711204
C51	C	1.084325	-0.580569	0.964053
C52	C	1.084339	-0.580541	1.046038
C53	C	1.184782	-0.444412	1.046065
C54	C	1.184769	-0.444442	0.964086
C55	C	1.134538	-0.512523	0.923083
H56	H	0.686922	-0.636393	0.469169
N57	N	0.846483	-0.654403	0.482388
H58	H	0.808082	-0.697580	0.514141
H59	H	0.880521	-0.611139	0.518766
N60	N	1.238893	-0.371157	0.667041
H61	H	1.226727	-0.295098	0.681307
H62	H	1.231239	-0.381603	0.608900
N63	N	1.245755	-1.088373	0.267076
H64	H	1.286575	-1.132457	0.294893
H65	H	1.271914	-1.026382	0.240200
N66	N	1.023165	-0.935712	0.489264
H67	H	1.037068	-0.962509	0.543240
H68	H	0.969133	-0.961554	0.474558
H69	H	0.835599	-0.389055	0.287309
N70	N	0.423163	-0.371111	0.274102
H71	H	0.437427	-0.295073	0.286380
H72	H	0.365031	-0.381579	0.281747
H73	H	0.686868	-0.389074	0.287327
N74	N	1.286212	-0.935333	0.419092
H75	H	1.282210	-0.890032	0.467741
H76	H	1.307557	-0.891263	0.374548
N77	N	1.030115	-0.654090	0.666970
H78	H	0.993746	-0.610838	0.632957
H79	H	0.998359	-0.697184	0.705411
N80	N	1.175080	-1.088627	0.530129
H81	H	1.135393	-1.062921	0.569656
H82	H	1.228771	-1.061676	0.545001
N83	N	1.238893	-0.371059	0.837441
H84	H	1.270699	-0.327955	0.799043
H85	H	1.275216	-0.414358	0.871467
H86	H	1.099008	-0.945978	0.245994
N87	N	1.238931	-0.371058	0.919887
H88	H	1.270753	-0.327923	0.958300
H89	H	1.206986	-0.321812	0.885871
H90	H	1.043406	-0.636034	0.826552
H91	H	1.002349	-1.078921	0.342760
H92	H	1.225680	-0.388976	1.079453
N93	N	1.030183	-0.653933	1.090236
H94	H	0.998356	-0.697062	1.051823
H95	H	0.993879	-0.610585	1.124250
H96	H	1.043410	-0.635991	0.930671
H97	H	0.582793	-0.636412	0.469177
H98	H	0.434065	-0.636417	0.469198
H99	H	0.582749	-0.389073	0.287335
