data_functionalizedCrystal
_audit_creation_method	'MofGen! by Chris Wilmer'
_symmetry_space_group_name_H-M	'P1'
_symmetry_Int_Tables_number	1
_symmetry_cell_setting	triclinic
loop_
_symmetry_equiv_pos_as_xyz
  x,y,z
_cell_length_a	10.654541
_cell_length_b	10.489741
_cell_length_c	8.965430
_cell_angle_alpha	89.992235
_cell_angle_beta	89.998203
_cell_angle_gamma	84.511551
loop_
_atom_site_label
_atom_site_type_symbol
_atom_site_fract_x
_atom_site_fract_y
_atom_site_fract_z
O1	O	1.667925	0.179154	-0.123993
O2	O	1.302454	0.196226	-0.124006
O3	O	1.493505	0.002088	-0.123990
O4	O	1.476873	0.373292	-0.124008
O5	O	1.493495	0.002069	0.124089
O6	O	1.302443	0.196207	0.124073
O7	O	1.667914	0.179135	0.124086
Cu8	Cu	1.485178	0.187669	0.146731
Cu9	Cu	1.485190	0.187692	-0.146651
O10	O	1.476862	0.373273	0.124070
C11	C	1.255650	0.194964	0.000032
C12	C	1.116205	0.191216	0.000027
C13	C	1.088342	0.423360	-0.000003
C14	C	1.008902	0.537667	-0.000024
C15	C	0.877882	0.534137	-0.000025
C16	C	0.826301	0.416288	-0.000001
C17	C	0.905742	0.301982	0.000020
C18	C	1.036763	0.305524	0.000017
C19	C	0.933604	0.069840	0.000061
C20	C	1.064624	0.073367	0.000052
C21	C	0.882024	-0.048009	0.000085
C22	C	0.961465	-0.162318	0.000096
C23	C	1.092492	-0.158783	0.000095
C24	C	1.144065	-0.040939	0.000073
C25	C	1.492244	-0.045452	0.000048
C26	C	1.488486	-0.187080	0.000046
C27	C	1.366925	-0.255160	0.000030
C28	C	1.424344	-0.347320	0.122348
C29	C	1.424383	-0.347276	-0.122238
C30	C	1.545954	-0.277375	0.122464
C31	C	1.545977	-0.277321	-0.122232
C32	C	1.603484	-0.369454	0.000116
C33	C	1.714718	0.180397	0.000045
C34	C	1.854163	0.184146	0.000040
C35	C	1.478124	0.420814	0.000029
C36	C	1.481882	0.562441	0.000022
N37	N	1.485178	0.187653	0.353080
C38	C	1.572841	0.097163	0.549758
C39	C	1.599261	0.212298	0.450276
C40	C	1.458814	0.072528	0.450354
C41	C	1.511677	0.302889	0.549707
C42	C	1.371180	0.163043	0.549794
C43	C	1.397553	0.278261	0.450357
N44	N	1.485200	0.187696	0.647000
H45	H	1.157166	-0.251866	0.000118
F46	F	1.725275	0.239525	0.393107
H47	H	1.323426	0.354887	0.406988
F48	F	1.429648	-0.054752	0.393318
H49	H	1.534090	0.400291	0.593167
H50	H	1.250746	-0.038050	0.000055
H51	H	0.919457	-0.258261	0.000114
H52	H	1.647016	0.020707	0.593400
F53	F	1.357112	-0.387833	0.257510
F54	F	1.245197	0.135755	0.606976
H55	H	1.597373	-0.246294	-0.225645
H56	H	0.719617	0.413424	0.000016
F57	F	1.613124	-0.237124	0.257779
F58	F	1.227784	0.427127	-0.000026
F59	F	1.063806	0.663084	-0.000050
H60	H	0.775340	-0.050875	0.000092
F61	F	1.236288	-0.190200	0.000179
F62	F	1.734237	-0.434122	0.000205
H63	H	1.372937	-0.378207	-0.225658
H64	H	0.813200	0.627215	-0.000032
