data_functionalizedCrystal
_audit_creation_method	'MofGen! by Chris Wilmer'
_symmetry_space_group_name_H-M	'P1'
_symmetry_Int_Tables_number	1
_symmetry_cell_setting	triclinic
loop_
_symmetry_equiv_pos_as_xyz
  x,y,z
_cell_length_a	17.699083
_cell_length_b	27.731996
_cell_length_c	16.176319
_cell_angle_alpha	89.999539
_cell_angle_beta	89.997690
_cell_angle_gamma	82.952202
loop_
_atom_site_label
_atom_site_type_symbol
_atom_site_fract_x
_atom_site_fract_y
_atom_site_fract_z
O1	O	1.003520	0.061119	0.068642
O2	O	0.783069	0.069072	0.068670
O3	O	0.900161	-0.005278	0.068637
O4	O	0.886427	0.135470	0.068675
O5	O	0.900150	-0.005265	-0.068856
O6	O	0.783057	0.069086	-0.068823
O7	O	1.003508	0.061133	-0.068852
Cu8	Cu	0.893282	0.065111	-0.081392
Cu9	Cu	0.893295	0.065095	0.081210
O10	O	0.886416	0.135483	-0.068819
C11	C	0.754869	0.068794	-0.000073
C12	C	0.670858	0.067939	-0.000063
C13	C	0.899874	-0.023280	-0.000112
C14	C	0.899024	-0.076939	-0.000121
C15	C	0.621840	0.111581	-0.000052
C16	C	0.542904	0.110775	-0.000063
C17	C	0.512988	0.066326	-0.000079
C18	C	0.562013	0.022681	-0.000093
C19	C	0.640947	0.023488	-0.000088
C20	C	0.243679	0.019427	-0.000114
C21	C	0.164739	0.018623	-0.000117
C22	C	0.145636	0.106714	-0.000089
C23	C	0.224571	0.107521	-0.000084
C24	C	0.273588	0.063876	-0.000102
C25	C	0.359180	0.064750	-0.000092
C26	C	0.427398	0.065451	-0.000083
C27	C	0.893683	-0.409682	0.074868
C28	C	0.890456	-0.611352	0.074883
O29	O	0.890012	-0.637430	0.138624
N30	N	0.890049	-0.636563	-0.000064
C31	C	0.890444	-0.611353	-0.075020
O32	O	0.890016	-0.637424	-0.138766
C33	C	0.893666	-0.409684	-0.075034
C34	C	0.894080	-0.384476	-0.000082
C35	C	0.894097	-0.384474	0.149814
C36	C	0.894908	-0.334060	0.149809
C37	C	0.895305	-0.308854	0.074859
C38	C	0.894891	-0.334062	-0.000087
C39	C	0.894055	-0.384475	-0.149989
C40	C	0.894859	-0.334054	-0.149986
C41	C	0.895273	-0.308846	-0.075034
C42	C	0.896099	-0.258442	-0.075041
N43	N	0.896506	-0.233230	-0.000094
C44	C	0.896109	-0.258436	0.074856
C45	C	0.888754	-0.717233	-0.075007
C46	C	0.887950	-0.767650	-0.075004
C47	C	0.887961	-0.767645	0.074899
C48	C	0.888771	-0.717227	0.074895
C49	C	0.889161	-0.692021	-0.000060
C50	C	0.897813	-0.152563	0.074841
C51	C	0.898627	-0.102145	0.074829
C52	C	0.898612	-0.102154	-0.075073
C53	C	0.897802	-0.152568	-0.075062
C54	C	0.897400	-0.177771	-0.000099
O55	O	0.896536	-0.232331	-0.138748
O56	O	0.896520	-0.232356	0.138593
C57	C	0.892873	-0.460096	0.074872
C58	C	0.892459	-0.485304	-0.000073
C59	C	0.892856	-0.460098	-0.075023
C60	C	0.891655	-0.535721	-0.000070
C61	C	0.891258	-0.560927	0.074880
C62	C	0.891665	-0.535716	0.149827
C63	C	0.892475	-0.485302	0.149823
C64	C	0.892449	-0.485309	-0.149970
C65	C	0.891639	-0.535723	-0.149959
C66	C	0.891242	-0.560929	-0.075009
C67	C	1.031708	0.061411	-0.000107
C68	C	1.115719	0.062266	-0.000111
C69	C	0.886703	0.153485	-0.000067
C70	C	0.887553	0.207144	-0.000054
N71	N	0.893278	0.065121	-0.195757
C72	C	0.847754	0.035803	-0.761149
C73	C	0.847753	0.035807	-0.674602
C74	C	0.893299	0.065090	-0.631332
C75	C	0.938855	0.094369	-0.674614
C76	C	0.938860	0.094362	-0.761160
C77	C	0.938836	0.094396	-0.325586
C78	C	0.938825	0.094401	-0.239034
C79	C	0.847729	0.035841	-0.239028
C80	C	0.847734	0.035834	-0.325573
C81	C	0.893293	0.065110	-0.368848
C82	C	0.893295	0.065105	-0.462692
C83	C	0.893293	0.065099	-0.537490
N84	N	0.893305	0.065080	0.195575
H85	H	0.646191	0.147777	-0.000038
H86	H	0.810634	0.012001	-0.203783
Cl87	Cl	0.790462	-0.000985	-0.620201
Cl88	Cl	0.889289	-0.685542	0.169123
Cl89	Cl	0.262174	0.163401	-0.000059
Cl90	Cl	0.524404	-0.033198	-0.000119
H91	H	0.810643	0.011990	-0.360799
Cl92	Cl	0.996088	0.131218	-0.184639
Cl93	Cl	0.887457	-0.799341	0.169122
H94	H	0.105716	0.142252	-0.000079
Cl95	Cl	0.702571	-0.031379	-0.000106
H96	H	0.895166	-0.313533	-0.211025
H97	H	0.897471	-0.173094	-0.136094
H98	H	0.283581	-0.016112	-0.000130
Cl99	Cl	0.892942	-0.453629	-0.244203
H100	H	0.892813	-0.464782	0.210856
Cl101	Cl	0.895422	-0.302376	0.244039
Cl102	Cl	0.481283	0.165642	-0.000043
Cl103	Cl	0.887444	-0.799335	-0.169233
Cl104	Cl	0.899111	-0.070457	-0.169291
Cl105	Cl	0.127132	-0.037259	-0.000138
Cl106	Cl	0.899150	-0.070458	0.169062
H107	H	0.975932	0.118235	-0.360810
H108	H	0.810661	0.011959	-0.796372
Cl109	Cl	0.897309	-0.184239	0.169082
Cl110	Cl	0.996117	0.131180	-0.620218
Cl111	Cl	0.996130	0.131167	-0.815564
H112	H	0.893771	-0.404991	0.210850
H113	H	0.889076	-0.696715	-0.136048
H114	H	0.893719	-0.404990	-0.211023
H115	H	0.891307	-0.556244	-0.210999
Cl116	Cl	0.891169	-0.567413	0.244049
