data_functionalizedCrystal
_audit_creation_method	'MofGen! by Chris Wilmer'
_symmetry_space_group_name_H-M	'P1'
_symmetry_Int_Tables_number	1
_symmetry_cell_setting	triclinic
loop_
_symmetry_equiv_pos_as_xyz
  x,y,z
_cell_length_a	19.077236
_cell_length_b	21.295417
_cell_length_c	21.295411
_cell_angle_alpha	90.021644
_cell_angle_beta	92.326577
_cell_angle_gamma	92.323097
loop_
_atom_site_label
_atom_site_type_symbol
_atom_site_fract_x
_atom_site_fract_y
_atom_site_fract_z
Zn1	Zn	1.076025	-0.212106	0.394645
Zn2	Zn	1.576025	0.287894	0.894645
Zn3	Zn	1.075915	-0.317361	0.289366
Zn4	Zn	1.575915	0.182639	0.789366
Zn5	Zn	0.958313	-0.216326	0.285153
Zn6	Zn	1.458313	0.283674	0.785153
Zn7	Zn	0.958279	-0.321562	0.390364
Zn8	Zn	1.458279	0.178438	0.890364
O9	O	1.017133	-0.266839	0.339882
O10	O	1.517133	0.233161	0.839882
O11	O	1.174504	-0.222544	0.384235
O12	O	1.674504	0.277456	0.884235
O13	O	1.060284	-0.303967	0.200717
O14	O	1.560284	0.196033	0.700717
O15	O	0.973988	-0.127675	0.299705
O16	O	1.473988	0.372325	0.799705
O17	O	1.174424	-0.299875	0.306887
O18	O	1.674424	0.200125	0.806887
O19	O	1.060470	-0.124574	0.380149
O20	O	1.560470	0.375426	0.880149
O21	O	0.973882	-0.229737	0.197621
O22	O	1.473882	0.270263	0.697621
O23	O	0.859814	-0.233810	0.295554
O24	O	1.359814	0.266190	0.795554
O25	O	0.973929	-0.307034	0.479022
O26	O	1.473929	0.192966	0.979022
O27	O	0.859789	-0.311127	0.372852
O28	O	1.359789	0.188873	0.872852
O29	O	1.060437	-0.226617	0.482168
O30	O	1.560437	0.273383	0.982168
O31	O	1.060251	-0.406010	0.302736
O32	O	1.560251	0.093990	0.802736
O33	O	0.973824	-0.409096	0.376938
O34	O	1.473824	0.090904	0.876938
C35	C	0.834263	-0.273383	0.333282
C36	C	1.334263	0.226617	0.833282
C37	C	0.756031	-0.276197	0.330473
C38	C	1.256031	0.223803	0.830473
C39	C	0.719320	-0.237321	0.369485
C40	C	1.219320	0.262679	0.869485
C41	C	0.645812	-0.239963	0.366841
C42	C	1.145812	0.260037	0.866841
C43	C	0.609017	-0.281484	0.325186
C44	C	1.109017	0.218516	0.825186
C45	C	0.645733	-0.320361	0.286169
C46	C	1.145733	0.179639	0.786169
C47	C	0.719240	-0.317716	0.288811
C48	C	1.219240	0.182284	0.788811
C49	C	0.389172	-0.293703	0.312957
C50	C	0.889172	0.206297	0.812957
C51	C	0.315660	-0.296347	0.310320
C52	C	0.815660	0.203653	0.810320
C53	C	0.315744	-0.215947	0.390991
C54	C	0.815744	0.284053	0.890991
C55	C	0.389252	-0.213308	0.393632
C56	C	0.889252	0.286692	0.893632
C57	C	0.425962	-0.252183	0.354612
C58	C	0.925962	0.247817	0.854612
N59	N	0.533880	-0.284187	0.322484
N60	N	1.033880	0.215813	0.822484
N61	N	0.501097	-0.249477	0.357312
N62	N	1.001097	0.250523	0.857312
C63	C	1.017041	-0.430394	0.339844
C64	C	1.517041	0.069606	0.839844
C65	C	1.017066	-0.500361	0.339851
C66	C	1.517066	-0.000361	0.839851
C67	C	1.062108	-0.531598	0.301256
C68	C	1.562108	-0.031598	0.801256
C69	C	1.062141	-0.597340	0.301272
C70	C	1.562141	-0.097340	0.801272
C71	C	1.017119	-0.631842	0.339874
C72	C	1.517119	-0.131842	0.839874
C73	C	0.972073	-0.600596	0.378477
C74	C	1.472073	-0.100596	0.878477
C75	C	0.972047	-0.534856	0.378465
C76	C	1.472047	-0.034856	0.878465
N77	N	0.955548	-0.737315	0.342451
N78	N	1.455548	-0.237315	0.842451
N79	N	0.955575	-0.799766	0.342459
N80	N	1.455575	-0.299766	0.842459
C81	C	1.017198	-0.829913	0.339913
C82	C	1.517198	-0.329913	0.839913
N83	N	1.078794	-0.795251	0.337348
N84	N	1.578794	-0.295251	0.837348
N85	N	1.078765	-0.732795	0.337337
N86	N	1.578765	-0.232795	0.837337
C87	C	1.017143	-0.703126	0.339892
C88	C	1.517143	-0.203126	0.839892
C89	C	1.062280	-0.932435	0.301334
C90	C	1.562280	-0.432435	0.801334
C91	C	1.062314	-0.998177	0.301353
C92	C	1.562314	-0.498177	0.801353
C93	C	0.972240	-1.001433	0.378555
C94	C	1.472240	-0.501433	0.878555
C95	C	0.972212	-0.935692	0.378538
C96	C	1.472212	-0.435692	0.878538
C97	C	1.017231	-0.901196	0.339924
C98	C	1.517231	-0.401196	0.839924
C99	C	1.200717	-0.260270	0.346509
C100	C	1.700717	0.239730	0.846509
C101	C	1.278949	-0.257471	0.349332
C102	C	1.778949	0.242529	0.849332
C103	C	1.017191	-0.266823	0.504074
C104	C	1.517191	0.233177	1.004074
C105	C	1.017216	-0.266817	0.574043
C106	C	1.517216	0.233183	1.074043
C107	C	1.017245	-0.102645	0.339935
C108	C	1.517245	0.397355	0.839935
C109	C	1.017292	-0.032675	0.339957
C110	C	1.517292	0.467325	0.839957
C111	C	1.017115	-0.266807	0.176330
C112	C	1.517115	0.233193	0.676330
C113	C	1.017227	-0.266632	0.106366
C114	C	1.517227	0.233368	0.606366
C115	C	1.062259	-0.224942	0.608549
C116	C	1.562259	0.275058	1.108549
C117	C	1.062258	-0.224915	0.674291
C118	C	1.562258	0.275085	1.174291
C119	C	1.017222	-0.266773	0.705526
C120	C	1.517222	0.233227	1.205526
C121	C	0.972171	-0.308651	0.671012
C122	C	1.472171	0.191349	1.171012
C123	C	0.972168	-0.308673	0.605271
C124	C	1.472168	0.191327	1.105271
N125	N	1.011791	-0.322036	0.808546
N126	N	1.511791	0.177964	1.308546
N127	N	1.011798	-0.322013	0.870998
N128	N	1.511798	0.177987	1.370998
C129	C	1.017226	-0.266709	0.903601
C130	C	1.517226	0.233291	1.403601
N131	N	1.022661	-0.211427	0.871394
N132	N	1.522661	0.288573	1.371394
N133	N	1.022658	-0.211451	0.808937
N134	N	1.522658	0.288549	1.308937
C135	C	1.017219	-0.266754	0.776812
C136	C	1.517219	0.233246	1.276812
C137	C	1.062270	-0.224801	1.009392
C138	C	1.562270	0.275199	1.509392
C139	C	1.062264	-0.224773	1.075136
C140	C	1.562264	0.275227	1.575136
C141	C	0.972181	-0.308515	1.071856
C142	C	1.472181	0.191485	1.571856
C143	C	0.972183	-0.308538	1.006113
C144	C	1.472183	0.191462	1.506113
C145	C	1.017231	-0.266682	0.974886
C146	C	1.517231	0.233318	1.474886
H147	H	0.285847	-0.184296	0.422757
H148	H	0.785847	0.315704	0.922757
H149	H	1.098998	-1.023609	0.269927
H150	H	1.598998	-0.523609	0.769927
H151	H	1.098767	-0.503514	0.269816
H152	H	1.598767	-0.003514	0.769816
H153	H	1.098942	-0.190670	1.103229
H154	H	1.598942	0.309330	1.603229
H155	H	1.098940	-0.190858	0.583127
H156	H	1.598940	0.309142	1.083127
C157	C	0.937907	-1.022868	0.483886
C158	C	1.437907	-0.522868	0.983886
C159	C	0.922752	-1.039350	0.420991
C160	C	1.422752	-0.539350	0.920991
H161	H	0.907358	-1.046282	0.510085
H162	H	1.407358	-0.546282	1.010085
H163	H	0.931441	-0.979250	0.489395
H164	H	1.431441	-0.479250	0.989395
H165	H	0.985199	-1.031907	0.494833
H166	H	1.485199	-0.531907	0.994833
H167	H	0.875461	-1.030307	0.410042
H168	H	1.375461	-0.530307	0.910042
H169	H	0.929212	-1.082978	0.415478
H170	H	1.429212	-0.582978	0.915478
C171	C	0.883043	-0.597213	0.454788
C172	C	1.383043	-0.097213	0.954788
C173	C	0.922585	-0.638518	0.420911
C174	C	1.422585	-0.138518	0.920911
H175	H	0.852496	-0.620624	0.480990
H176	H	1.352496	-0.120624	0.980990
H177	H	0.856125	-0.572574	0.426367
H178	H	1.356125	-0.072574	0.926367
H179	H	0.913695	-0.570434	0.479988
H180	H	1.413695	-0.070434	0.979988
H181	H	0.891933	-0.665293	0.395707
H182	H	1.391933	-0.165293	0.895707
H183	H	0.949505	-0.663167	0.449335
H184	H	1.449505	-0.163167	0.949335
C185	C	0.563200	-0.234321	0.448563
C186	C	1.063200	0.265679	0.948563
C187	C	0.605460	-0.197233	0.409729
C188	C	1.105460	0.302767	0.909729
H189	H	0.538287	-0.207939	0.475040
H190	H	1.038287	0.292061	0.975040
H191	H	0.591877	-0.260749	0.473616
H192	H	1.091877	0.239251	0.973616
H193	H	0.530768	-0.259421	0.423369
H194	H	1.030768	0.240579	0.923369
H195	H	0.637896	-0.172136	0.434924
H196	H	1.137896	0.327864	0.934924
H197	H	0.576780	-0.170794	0.384674
H198	H	1.076780	0.329206	0.884674
C199	C	1.072110	-0.139808	0.935810
C200	C	1.572110	0.360192	1.435810
C201	C	1.111781	-0.178794	0.975057
C202	C	1.611781	0.321206	1.475057
H203	H	1.102678	-0.111409	0.914611
H204	H	1.602678	0.388591	1.414611
H205	H	1.041469	-0.116814	0.960340
H206	H	1.541469	0.383186	1.460340
H207	H	1.045288	-0.164762	0.905853
H208	H	1.545288	0.335238	1.405853
H209	H	1.138599	-0.153839	1.005017
H210	H	1.638599	0.346161	1.505017
H211	H	1.142434	-0.201790	0.950525
H212	H	1.642434	0.298210	1.450525
H213	H	0.935500	-0.342731	0.696448
H214	H	1.435500	0.157269	1.196448
H215	H	0.419205	-0.179499	0.427553
H216	H	0.919205	0.320501	0.927553
H217	H	0.935504	-0.342592	1.097286
H218	H	1.435504	0.157408	1.597286
C219	C	0.322957	-0.375552	0.230836
C220	C	0.822957	0.124448	0.730836
C221	C	0.275214	-0.341989	0.264529
C222	C	0.775214	0.158011	0.764529
H223	H	0.297985	-0.403726	0.202568
H224	H	0.797985	0.096274	0.702568
H225	H	0.351634	-0.398639	0.259245
H226	H	0.851634	0.101361	0.759245
H227	H	0.351624	-0.347050	0.207838
H228	H	0.851624	0.152950	0.707838
H229	H	0.246550	-0.370490	0.287531
H230	H	0.746550	0.129510	0.787531
H231	H	0.246525	-0.318901	0.236116
H232	H	0.746525	0.181099	0.736116
C233	C	0.623043	-0.427725	0.254491
C234	C	1.123043	0.072275	0.754491
C235	C	0.605291	-0.366004	0.240382
C236	C	1.105291	0.133996	0.740382
H237	H	0.598079	-0.455903	0.226221
H238	H	1.098079	0.044097	0.726221
H239	H	0.611014	-0.437427	0.296332
H240	H	1.111014	0.062573	0.796332
H241	H	0.672077	-0.431703	0.250479
H242	H	1.172077	0.068297	0.750479
H243	H	0.556258	-0.362024	0.244399
H244	H	1.056258	0.137976	0.744399
H245	H	0.617315	-0.356298	0.198531
H246	H	1.117315	0.143702	0.698531
C247	C	1.151158	-0.587525	0.224946
C248	C	1.651158	-0.087525	0.724946
C249	C	1.111650	-0.631686	0.258841
C250	C	1.611650	-0.131686	0.758841
H251	H	1.181718	-0.608730	0.198749
H252	H	1.681718	-0.108730	0.698749
H253	H	1.178061	-0.560887	0.253355
H254	H	1.678061	-0.060887	0.753355
H255	H	1.120485	-0.563017	0.199739
H256	H	1.620485	-0.063017	0.699739
H257	H	1.142323	-0.656191	0.284052
H258	H	1.642323	-0.156191	0.784052
H259	H	1.084745	-0.658335	0.230429
H260	H	1.584745	-0.158335	0.730429
H261	H	0.935508	-0.342641	0.978019
H262	H	1.435508	0.157359	1.478019
H263	H	0.749273	-0.203512	0.403407
H264	H	1.249273	0.296488	0.903407
C265	C	0.801848	-0.323365	0.207087
C266	C	1.301848	0.176635	0.707087
C267	C	0.759594	-0.360451	0.245927
C268	C	1.259594	0.139549	0.745927
H269	H	0.826756	-0.349749	0.180608
H270	H	1.326756	0.150251	0.680608
H271	H	0.834278	-0.298265	0.232272
H272	H	1.334278	0.201735	0.732272
H273	H	0.773162	-0.296937	0.182032
H274	H	1.273162	0.203063	0.682032
H275	H	0.788281	-0.386876	0.270986
H276	H	1.288281	0.113124	0.770986
H277	H	0.727160	-0.385562	0.220740
H278	H	1.227160	0.114438	0.720740
H279	H	0.935486	-0.342772	0.577177
H280	H	1.435486	0.157228	1.077177
H281	H	0.935531	-0.910257	0.409963
H282	H	1.435531	-0.410257	0.909963
C283	C	0.471785	-0.375394	0.307022
C284	C	0.971785	0.124606	0.807022
C285	C	0.429516	-0.336440	0.270073
C286	C	0.929516	0.163560	0.770073
H287	H	0.496696	-0.401777	0.280545
H288	H	0.996696	0.098223	0.780545
H289	H	0.443114	-0.400539	0.333371
H290	H	0.943114	0.099461	0.833371
H291	H	0.504219	-0.350280	0.332200
H292	H	1.004219	0.149720	0.832200
H293	H	0.397078	-0.361554	0.244898
H294	H	0.897078	0.138446	0.744898
H295	H	0.458189	-0.311292	0.243713
H296	H	0.958189	0.188708	0.743713
H297	H	0.935367	-0.509422	0.409894
H298	H	1.435367	-0.009422	0.909894
C299	C	1.096618	-0.910996	0.196000
C300	C	1.596618	-0.410996	0.696000
C301	C	1.111768	-0.894512	0.258895
C302	C	1.611768	-0.394512	0.758895
H303	H	1.127173	-0.887587	0.169802
H304	H	1.627173	-0.387587	0.669802
H305	H	1.049333	-0.901961	0.185049
H306	H	1.549333	-0.401961	0.685049
H307	H	1.103087	-0.954620	0.190494
H308	H	1.603087	-0.454620	0.690494
H309	H	1.105294	-0.850888	0.264402
H310	H	1.605294	-0.350888	0.764402
H311	H	1.159064	-0.903543	0.269850
H312	H	1.659064	-0.403543	0.769850
C313	C	1.151315	-0.142153	0.670937
C314	C	1.651315	0.357847	1.170937
C315	C	1.111776	-0.178886	0.712230
C316	C	1.611776	0.321114	1.212230
H317	H	1.181889	-0.113741	0.694359
H318	H	1.681889	0.386259	1.194359
H319	H	1.120669	-0.119175	0.644187
H320	H	1.620669	0.380825	1.144187
H321	H	1.178213	-0.168634	0.646269
H322	H	1.678213	0.331366	1.146269
H323	H	1.084875	-0.152406	0.736896
H324	H	1.584875	0.347594	1.236896
H325	H	1.142426	-0.201867	0.738992
H326	H	1.642426	0.298133	1.238992
