data_functionalizedCrystal
_audit_creation_method	'MofGen! by Chris Wilmer'
_symmetry_space_group_name_H-M	'P1'
_symmetry_Int_Tables_number	1
_symmetry_cell_setting	triclinic
loop_
_symmetry_equiv_pos_as_xyz
  x,y,z
_cell_length_a	19.288864
_cell_length_b	16.098524
_cell_length_c	19.288865
_cell_angle_alpha	93.078255
_cell_angle_beta	83.136245
_cell_angle_gamma	93.086928
loop_
_atom_site_label
_atom_site_type_symbol
_atom_site_fract_x
_atom_site_fract_y
_atom_site_fract_z
O1	O	0.924123	0.069534	0.089422
O2	O	1.424123	0.569534	0.589422
O3	O	0.721860	0.069479	0.101109
O4	O	1.221860	0.569479	0.601109
O5	O	0.828836	0.069492	-0.005865
O6	O	1.328836	0.569492	0.494135
O7	O	0.817148	0.069521	0.196397
O8	O	1.317148	0.569521	0.696397
O9	O	0.823298	-0.069024	-0.011396
O10	O	1.323298	0.430976	0.488604
O11	O	0.716323	-0.069037	0.095578
O12	O	1.216323	0.430963	0.595578
O13	O	0.918586	-0.068981	0.083892
O14	O	1.418586	0.431019	0.583892
Zn15	Zn	0.816576	-0.091002	0.088857
Zn16	Zn	1.316576	0.408998	0.588857
Zn17	Zn	0.823871	0.091499	0.096144
Zn18	Zn	1.323871	0.591499	0.596144
O19	O	0.811611	-0.068994	0.190866
O20	O	1.311611	0.431006	0.690866
C21	C	0.693215	0.000213	0.097967
C22	C	1.193215	0.500213	0.597967
C23	C	0.616111	0.000192	0.096837
C24	C	1.116111	0.500192	0.596837
N25	N	0.811602	-0.215553	0.083884
N26	N	1.311602	0.284447	0.583884
C27	C	0.571415	0.000214	0.159606
C28	C	1.071415	0.500214	0.659606
C29	C	0.498969	0.000223	0.158546
C30	C	0.998969	0.500223	0.658546
C31	C	0.471221	0.000226	0.094714
C32	C	0.971221	0.500226	0.594714
C33	C	0.515926	0.000199	0.031937
C34	C	1.015926	0.500199	0.531937
C35	C	0.588371	0.000182	0.032998
C36	C	1.088371	0.500182	0.532998
C37	C	0.364900	0.048775	0.046473
C38	C	0.864900	0.548775	0.546473
C39	C	0.292456	0.048798	0.045414
C40	C	0.792456	0.548798	0.545414
C41	C	0.247778	0.000276	0.091436
C42	C	0.747778	0.500276	0.591436
C43	C	0.275550	-0.048257	0.138529
C44	C	0.775550	0.451743	0.638529
C45	C	0.347995	-0.048274	0.139591
C46	C	0.847995	0.451726	0.639591
C47	C	0.392668	0.000245	0.093555
C48	C	0.892668	0.500245	0.593555
C49	C	0.124527	0.000307	0.153059
C50	C	0.624527	0.500307	0.653059
C51	C	0.052079	0.000311	0.151996
C52	C	0.552079	0.500311	0.651996
C53	C	0.069038	0.000296	0.025386
C54	C	0.569038	0.500296	0.525386
C55	C	0.141484	0.000284	0.026450
C56	C	0.641484	0.500284	0.526450
C57	C	0.169224	0.000293	0.090289
C58	C	0.669224	0.500293	0.590289
C59	C	0.851855	-0.259117	0.124166
C60	C	1.351855	0.240883	0.624166
C61	C	0.848385	-0.346308	0.120682
C62	C	1.348385	0.153692	0.620682
C63	C	0.804657	-0.389934	0.076919
C64	C	1.304657	0.110066	0.576919
C65	C	0.764402	-0.346364	0.036632
C66	C	1.264402	0.153636	0.536632
C67	C	0.767877	-0.259175	0.040112
C68	C	1.267877	0.240825	0.540112
C69	C	0.792070	-0.653190	0.064305
C70	C	1.292070	-0.153190	0.564305
C71	C	0.788597	-0.740386	0.060829
C72	C	1.288597	-0.240386	0.560829
C73	C	0.872581	-0.740324	0.144879
C74	C	1.372581	-0.240324	0.644879
C75	C	0.876048	-0.653133	0.148359
C76	C	1.376048	-0.153133	0.648359
C77	C	0.835796	-0.609571	0.108069
C78	C	1.335796	-0.109571	0.608069
C79	C	0.801108	-0.479057	0.073359
C80	C	1.301108	0.020943	0.573359
C81	C	0.839350	-0.520449	0.111626
C82	C	1.339350	-0.020449	0.611626
C83	C	0.947232	0.000286	0.087034
C84	C	1.447232	0.500286	0.587034
C85	C	1.024336	0.000313	0.088164
C86	C	1.524336	0.500313	0.588164
C87	C	0.825691	0.000231	-0.034507
C88	C	1.325691	0.500231	0.465493
C89	C	0.824562	0.000224	-0.111611
C90	C	1.324562	0.500224	0.388389
N91	N	0.828850	0.216051	0.101112
N92	N	1.328850	0.716051	0.601112
C93	C	0.887330	0.000237	-0.156307
C94	C	1.387330	0.500237	0.343693
C95	C	0.886270	0.000250	-0.228753
C96	C	1.386270	0.500250	0.271247
C97	C	0.822437	0.000233	-0.256502
C98	C	1.322437	0.500233	0.243498
C99	C	0.759660	0.000224	-0.211796
C100	C	1.259660	0.500224	0.288204
C101	C	0.760723	0.000220	-0.139351
C102	C	1.260723	0.500220	0.360649
C103	C	0.770317	-0.048300	-0.366727
C104	C	1.270317	0.451700	0.133273
C105	C	0.769257	-0.048301	-0.439171
C106	C	1.269257	0.451699	0.060829
C107	C	0.819158	0.000250	-0.479946
C108	C	1.319158	0.500250	0.020054
C109	C	0.870130	0.048791	-0.448270
C110	C	1.370130	0.548791	0.051730
C111	C	0.871192	0.048787	-0.375825
C112	C	1.371192	0.548787	0.124175
C113	C	0.821278	0.000238	-0.335055
C114	C	1.321278	0.500238	0.164945
C115	C	0.880781	0.000279	-0.603198
C116	C	1.380781	0.500279	-0.103198
C117	C	0.879719	0.000297	-0.675645
C118	C	1.379719	0.500297	-0.175645
C119	C	0.753107	0.000263	-0.658686
C120	C	1.253107	0.500263	-0.158686
C121	C	0.754172	0.000253	-0.586240
C122	C	1.254172	0.500253	-0.086240
C123	C	0.818011	0.000257	-0.558501
C124	C	1.318011	0.500257	-0.058501
C125	C	0.814756	0.000268	0.219508
C126	C	1.314756	0.500268	0.719508
C127	C	0.815885	0.000281	0.296612
C128	C	1.315885	0.500281	0.796612
H129	H	0.593996	0.000223	0.211589
H130	H	1.093996	0.500223	0.711589
Br131	Br	0.741760	-0.538270	0.013972
Br132	Br	1.241760	-0.038270	0.513972
H133	H	0.874955	-0.484925	0.147255
H134	H	1.374955	0.015075	0.647255
Br135	Br	0.967417	0.000276	-0.565547
Br136	Br	1.467417	0.500276	-0.065547
H137	H	0.370604	-0.087795	0.177934
H138	H	0.870604	0.412205	0.677934
Br139	Br	0.973969	0.000265	-0.118662
Br140	Br	1.473969	0.500265	0.381338
Br141	Br	0.254771	0.114675	-0.018488
Br142	Br	0.754771	0.614675	0.481512
Br143	Br	0.666475	0.000248	-0.696336
Br144	Br	1.166475	0.500248	-0.196336
Br145	Br	0.713255	-0.200051	-0.014569
Br146	Br	1.213255	0.299949	0.485431
Br147	Br	0.202147	0.000255	-0.058741
Br148	Br	0.702147	0.500255	0.441259
H149	H	0.401273	0.088292	0.008995
H150	H	0.901273	0.588292	0.508995
H151	H	0.937385	0.000264	-0.265151
H152	H	1.437385	0.500264	0.234849
H153	H	0.911658	-0.617618	0.183993
H154	H	1.411658	-0.117618	0.683993
H155	H	0.493330	0.000213	-0.020036
H156	H	0.993330	0.500213	0.479964
H157	H	0.462570	0.000239	0.209661
H158	H	0.962570	0.500239	0.709661
H159	H	0.703059	0.000238	-0.549848
H160	H	1.203059	0.500238	-0.049848
H161	H	0.727750	-0.087821	-0.464956
H162	H	1.227750	0.412179	0.035044
Br163	Br	0.927206	-0.799447	0.199555
Br164	Br	1.427206	-0.299447	0.699555
Br165	Br	0.940361	0.114665	-0.332836
Br166	Br	1.440361	0.614665	0.167164
H167	H	0.910764	0.088327	-0.481468
H168	H	1.410764	0.588327	0.018532
Br169	Br	0.964913	0.000324	-0.736306
Br170	Br	1.464913	0.500324	-0.236306
H171	H	0.709607	0.000209	-0.102958
H172	H	1.209607	0.500209	0.397042
Br173	Br	0.911200	-0.199919	0.183565
Br174	Br	1.411200	0.300081	0.683565
H175	H	0.729680	-0.087841	-0.333533
H176	H	1.229680	0.412159	0.166467
H177	H	0.239174	-0.087769	0.176005
H178	H	0.739174	0.412231	0.676005
Br179	Br	0.162178	0.000314	0.239695
Br180	Br	0.662178	0.500314	0.739695
Br181	Br	0.649033	0.000150	-0.052195
Br182	Br	1.149033	0.500150	0.447805
H183	H	0.707687	0.000212	-0.234393
H184	H	1.207687	0.500212	0.265607
Br185	Br	0.903018	-0.405427	0.175354
Br186	Br	1.403018	0.094573	0.675354
Br187	Br	0.729247	-0.799592	0.001433
Br188	Br	1.229247	-0.299592	0.501433
Br189	Br	0.031389	0.000287	-0.061246
Br190	Br	0.531389	0.500287	0.438754
Br191	Br	0.705060	-0.405569	-0.022765
Br192	Br	1.205060	0.094431	0.477235
H193	H	0.759294	-0.617733	0.031497
H194	H	1.259294	-0.117733	0.531497
H195	H	0.015687	0.000324	0.203112
H196	H	0.515687	0.500324	0.703112
