data_functionalizedCrystal
_audit_creation_method	'MofGen! by Chris Wilmer'
_symmetry_space_group_name_H-M	'P1'
_symmetry_Int_Tables_number	1
_symmetry_cell_setting	triclinic
loop_
_symmetry_equiv_pos_as_xyz
  x,y,z
_cell_length_a	14.971506
_cell_length_b	17.019294
_cell_length_c	14.048226
_cell_angle_alpha	93.881217
_cell_angle_beta	90.008441
_cell_angle_gamma	83.508029
loop_
_atom_site_label
_atom_site_type_symbol
_atom_site_fract_x
_atom_site_fract_y
_atom_site_fract_z
O1	O	1.186683	0.102871	0.087598
O2	O	1.686683	0.602871	0.587598
O3	O	0.926255	0.115165	0.088606
O4	O	1.426255	0.615165	0.588606
O5	O	1.063734	-0.005807	0.078685
O6	O	1.563734	0.494193	0.578685
O7	O	1.049205	0.223843	0.097519
O8	O	1.549205	0.723843	0.597519
O9	O	1.063711	-0.005804	-0.079636
O10	O	1.563711	0.494196	0.420364
O11	O	0.926233	0.115168	-0.069715
O12	O	1.426233	0.615168	0.430285
O13	O	1.186661	0.102874	-0.070723
O14	O	1.686661	0.602874	0.429277
Zn15	Zn	1.056443	0.109021	-0.095356
Zn16	Zn	1.556443	0.609021	0.404644
Zn17	Zn	1.056473	0.109017	0.113239
Zn18	Zn	1.556473	0.609017	0.613239
O19	O	1.049183	0.223846	-0.060802
O20	O	1.549183	0.723846	0.439198
C21	C	0.892921	0.114614	0.009400
C22	C	1.392921	0.614614	0.509400
C23	C	0.793629	0.112958	0.009265
C24	C	1.293629	0.612958	0.509265
C25	C	0.355186	0.177706	0.014585
C26	C	0.855186	0.677706	0.514585
C27	C	0.448482	0.179256	0.014716
C28	C	0.948482	0.679256	0.514716
C29	C	0.505878	0.108180	0.008883
C30	C	1.005878	0.608180	0.508883
C31	C	0.469974	0.035550	0.002927
C32	C	0.969974	0.535550	0.502927
C33	C	0.376679	0.034001	0.002803
C34	C	0.876679	0.534001	0.502803
C35	C	0.664429	0.038784	0.003185
C36	C	1.164429	0.538784	0.503185
C37	C	0.757730	0.040333	0.003307
C38	C	1.257730	0.540333	0.503307
C39	C	0.736232	0.184039	0.015097
C40	C	1.236232	0.684039	0.515097
C41	C	0.642937	0.182490	0.014973
C42	C	1.142937	0.682490	0.514973
C43	C	0.607039	0.109859	0.009016
C44	C	1.107039	0.609859	0.509016
C45	C	1.063171	-0.035195	-0.002883
C46	C	1.563171	0.464805	0.497117
C47	C	1.061518	-0.122767	-0.010059
C48	C	1.561518	0.377233	0.489941
C49	C	1.060755	-0.163906	0.072870
C50	C	1.560755	0.336094	0.572870
C51	C	1.059196	-0.246188	0.066124
C52	C	1.559196	0.253812	0.566124
C53	C	1.058406	-0.287331	-0.023551
C54	C	1.558406	0.212669	0.476449
C55	C	1.059166	-0.246186	-0.106486
C56	C	1.559166	0.253814	0.393514
C57	C	1.060719	-0.163905	-0.099740
C58	C	1.560719	0.336095	0.400260
C59	C	1.053711	-0.535768	-0.048238
C60	C	1.553711	-0.035768	0.451762
C61	C	1.052161	-0.618055	-0.054978
C62	C	1.552161	-0.118055	0.445022
C63	C	1.052189	-0.618051	0.117633
C64	C	1.552189	-0.118051	0.617633
C65	C	1.053748	-0.535769	0.124372
C66	C	1.553748	-0.035769	0.624372
C67	C	1.054503	-0.494631	0.041437
C68	C	1.554503	0.005369	0.541437
C69	C	1.056815	-0.371437	-0.030448
C70	C	1.556815	0.128563	0.469552
C71	C	1.056087	-0.410525	0.048335
C72	C	1.556087	0.089475	0.548335
C73	C	1.219995	0.103425	0.008485
C74	C	1.719995	0.603425	0.508485
C75	C	1.319287	0.105081	0.008627
C76	C	1.819287	0.605081	0.508627
C77	C	1.049745	0.253234	0.020769
C78	C	1.549745	0.753234	0.520769
C79	C	1.051398	0.340806	0.027951
C80	C	1.551398	0.840806	0.527951
N81	N	1.056430	0.109024	-0.237716
N82	N	1.556430	0.609024	0.262284
C83	C	1.117377	0.055465	-0.698948
C84	C	1.617377	0.555465	-0.198948
C85	C	1.117369	0.055470	-0.599290
C86	C	1.617369	0.555470	-0.099290
C87	C	1.056472	0.109017	-0.545087
C88	C	1.556472	0.609017	-0.045087
C89	C	0.995585	0.162567	-0.590546
C90	C	1.495585	0.662567	-0.090546
C91	C	0.995598	0.162565	-0.690202
C92	C	1.495598	0.662565	-0.190202
C93	C	0.995561	0.162567	-0.382832
C94	C	1.495561	0.662567	0.117168
C95	C	0.995546	0.162568	-0.283169
C96	C	1.495546	0.662568	0.216831
C97	C	1.117331	0.055472	-0.291920
C98	C	1.617331	0.555472	0.208080
C99	C	1.117344	0.055470	-0.391576
C100	C	1.617344	0.555470	0.108424
C101	C	1.056456	0.109019	-0.437028
C102	C	1.556456	0.609019	0.062972
N103	N	1.056493	0.109009	0.255599
N104	N	1.556493	0.609009	0.755599
H105	H	0.635205	-0.020360	-0.001661
H106	H	1.135205	0.479640	0.498339
H107	H	1.056175	-0.404945	-0.103462
H108	H	1.556175	0.095055	0.396538
H109	H	0.596207	0.240366	0.019717
H110	H	1.096207	0.740366	0.519717
H111	H	0.945982	0.206175	-0.419835
H112	H	1.445982	0.706175	0.080165
H113	H	0.308459	0.235585	0.019327
H114	H	0.808459	0.735585	0.519327
H115	H	0.946005	0.206170	-0.546408
H116	H	1.446005	0.706170	-0.046408
H117	H	0.945958	0.206172	-0.239041
H118	H	1.445958	0.706172	0.260959
C119	C	1.061624	-0.118655	0.171513
C120	C	1.561624	0.381345	0.671513
H121	H	1.060938	-0.154943	0.219936
H122	H	1.560938	0.345057	0.719936
H123	H	1.114364	-0.092519	0.177247
H124	H	1.614364	0.407481	0.677247
H125	H	1.010089	-0.080596	0.178221
H126	H	1.510089	0.419404	0.678221
C127	C	0.775715	0.263931	0.021662
C128	C	1.275715	0.763931	0.521662
H129	H	0.839498	0.254677	0.020914
H130	H	1.339498	0.754677	0.520914
H131	H	0.756005	0.293205	-0.031145
H132	H	1.256005	0.793205	0.468855
H133	H	0.756014	0.293193	0.079281
H134	H	1.256014	0.793193	0.579281
H135	H	0.477705	0.238394	0.019576
H136	H	0.977705	0.738394	0.519576
C137	C	1.051369	-0.663302	0.208856
C138	C	1.551369	-0.163302	0.708856
H139	H	1.052074	-0.627015	0.263228
H140	H	1.552074	-0.127015	0.763228
H141	H	0.998636	-0.689445	0.210315
H142	H	1.498636	-0.189445	0.710315
H143	H	1.102911	-0.701356	0.209312
H144	H	1.602911	-0.201356	0.709312
H145	H	1.166946	0.011871	-0.562283
H146	H	1.666946	0.511871	-0.062283
H147	H	0.516714	-0.022321	-0.001816
H148	H	1.016714	0.477679	0.498184
C149	C	1.054605	-0.490516	0.223015
C150	C	1.554605	0.009484	0.723015
H151	H	1.053919	-0.526801	0.271440
H152	H	1.553919	-0.026801	0.771440
H153	H	1.107343	-0.464377	0.228749
H154	H	1.607343	0.035623	0.728749
H155	H	1.003068	-0.452458	0.229716
H156	H	1.503068	0.047542	0.729716
H157	H	1.051513	-0.651551	-0.128006
H158	H	1.551513	-0.151551	0.371994
C159	C	1.184364	-0.003439	-0.758563
C160	C	1.684364	0.496561	-0.258563
H161	H	1.220628	-0.035322	-0.717216
H162	H	1.720628	0.464678	-0.217216
H163	H	1.152243	-0.036329	-0.800146
H164	H	1.652243	0.463671	-0.300146
H165	H	1.221564	0.025001	-0.795095
H166	H	1.721564	0.525001	-0.295095
C167	C	1.184331	-0.003429	-0.451198
C168	C	1.684331	0.496571	0.048802
H169	H	1.220598	-0.035315	-0.409856
H170	H	1.720598	0.464685	0.090144
H171	H	1.152209	-0.036316	-0.492783
H172	H	1.652209	0.463684	0.007217
H173	H	1.221528	0.025016	-0.487727
H174	H	1.721528	0.525016	0.012273
C175	C	1.054557	-0.490528	-0.139463
C176	C	1.554557	0.009472	0.360537
H177	H	1.053877	-0.526819	-0.193834
H178	H	1.553877	-0.026819	0.306166
H179	H	1.003030	-0.452466	-0.139940
H180	H	1.503030	0.047534	0.360060
H181	H	1.107305	-0.464396	-0.140905
H182	H	1.607305	0.035604	0.359095
H183	H	0.804461	-0.017543	-0.001435
H184	H	1.304461	0.482457	0.498565
H185	H	1.058517	-0.279691	-0.179502
H186	H	1.558517	0.220309	0.320498
C187	C	1.061560	-0.118653	-0.190961
C188	C	1.561560	0.381347	0.309039
H189	H	1.060875	-0.154940	-0.245336
H190	H	1.560875	0.345060	0.254664
H191	H	1.010031	-0.080593	-0.191428
H192	H	1.510031	0.419407	0.308572
H193	H	1.114305	-0.092518	-0.192407
H194	H	1.614305	0.407482	0.307593
H195	H	0.347453	-0.025138	-0.002046
H196	H	0.847453	0.474862	0.497954
H197	H	1.056725	-0.377022	0.121348
H198	H	1.556725	0.122978	0.621348
H199	H	1.166909	0.011871	-0.254907
H200	H	1.666909	0.511871	0.245093
C201	C	1.058342	-0.291435	0.157347
C202	C	1.558342	0.208565	0.657347
H203	H	1.059040	-0.255148	0.211719
H204	H	1.559040	0.244852	0.711719
H205	H	1.005596	-0.317563	0.158785
H206	H	1.505596	0.182437	0.658785
H207	H	1.109870	-0.329502	0.157823
H208	H	1.609870	0.170498	0.657823
C209	C	0.928605	0.221445	-0.740202
C210	C	1.428605	0.721445	-0.240202
H211	H	0.892323	0.253326	-0.693650
H212	H	1.392323	0.753326	-0.193650
H213	H	0.960719	0.254339	-0.776382
H214	H	1.460719	0.754339	-0.276382
H215	H	0.891423	0.192987	-0.781410
H216	H	1.391423	0.692987	-0.281410
