data_functionalizedCrystal
_audit_creation_method	'MofGen! by Chris Wilmer'
_symmetry_space_group_name_H-M	'P1'
_symmetry_Int_Tables_number	1
_symmetry_cell_setting	triclinic
loop_
_symmetry_equiv_pos_as_xyz
  x,y,z
_cell_length_a	16.109301
_cell_length_b	12.811415
_cell_length_c	15.186229
_cell_angle_alpha	84.565396
_cell_angle_beta	89.999362
_cell_angle_gamma	83.754001
loop_
_atom_site_label
_atom_site_type_symbol
_atom_site_fract_x
_atom_site_fract_y
_atom_site_fract_z
O1	O	1.103626	0.134912	-0.083945
O2	O	1.603626	0.634912	0.416055
O3	O	0.861626	0.151702	-0.085299
O4	O	1.361626	0.651702	0.414701
O5	O	0.988714	-0.009488	-0.072416
O6	O	1.488714	0.490512	0.427584
O7	O	0.976538	0.296101	-0.096828
O8	O	1.476538	0.796101	0.403172
O9	O	0.988706	-0.009490	0.074041
O10	O	1.488706	0.490510	0.574041
O11	O	0.861618	0.151699	0.061158
O12	O	1.361618	0.651699	0.561158
O13	O	1.103618	0.134910	0.062513
O14	O	1.603618	0.634910	0.562513
Zn15	Zn	0.982616	0.143304	0.085089
Zn16	Zn	1.482616	0.643304	0.585089
Zn17	Zn	0.982628	0.143307	-0.107875
Zn18	Zn	1.482628	0.643307	0.392125
O19	O	0.976530	0.296099	0.049629
O20	O	1.476530	0.796099	0.549629
C21	C	0.830645	0.151021	-0.012018
C22	C	1.330645	0.651021	0.487982
C23	C	0.738342	0.148982	-0.011861
C24	C	1.238342	0.648982	0.488139
C25	C	0.988028	-0.048593	0.003934
C26	C	1.488028	0.451407	0.503934
C27	C	0.985984	-0.165110	0.013236
C28	C	1.485984	0.334890	0.513236
C29	C	0.516404	0.239887	-0.019112
C30	C	1.016404	0.739887	0.480888
C31	C	0.429676	0.237963	-0.018953
C32	C	0.929676	0.737963	0.481047
C33	C	0.448847	0.046717	-0.003679
C34	C	0.948847	0.546717	0.496321
C35	C	0.535573	0.048642	-0.003832
C36	C	1.035573	0.548642	0.496168
C37	C	0.569349	0.145230	-0.011553
C38	C	1.069349	0.645230	0.488447
C39	C	0.395895	0.141381	-0.011241
C40	C	0.895895	0.641381	0.488759
C41	C	0.301862	0.139294	-0.011068
C42	C	0.801862	0.639294	0.488932
C43	C	0.663388	0.147318	-0.011725
C44	C	1.163388	0.647318	0.488275
C45	C	0.982139	-0.384045	-0.128971
C46	C	1.482139	0.115955	0.371029
C47	C	0.980219	-0.493523	-0.120235
C48	C	1.480219	0.006477	0.379765
C49	C	0.980218	-0.493547	0.039443
C50	C	1.480218	0.006453	0.539443
C51	C	0.982138	-0.384068	0.030707
C52	C	1.482138	0.115932	0.530707
C53	C	0.983100	-0.329321	-0.053502
C54	C	1.483100	0.170679	0.446498
C55	C	0.985026	-0.219842	-0.062237
C56	C	1.485026	0.280158	0.437763
C57	C	0.985019	-0.219866	0.097439
C58	C	1.485019	0.280134	0.597439
C59	C	0.983099	-0.329345	0.106175
C60	C	1.483099	0.170655	0.606175
C61	C	1.134600	0.135591	-0.010771
C62	C	1.634600	0.635591	0.489229
C63	C	1.226902	0.137630	-0.010934
C64	C	1.726902	0.637630	0.489066
C65	C	0.977216	0.335204	-0.026723
C66	C	1.477216	0.835204	0.473277
C67	C	0.979260	0.451722	-0.036031
C68	C	1.479260	0.951722	0.463969
N69	N	0.982615	0.143302	0.216781
N70	N	1.482615	0.643302	0.716781
N71	N	0.982636	0.143302	-0.239568
N72	N	1.482636	0.643302	0.260432
C73	C	1.038909	0.071951	0.448207
C74	C	1.538909	0.571951	0.948207
C75	C	1.038911	0.071949	0.540397
C76	C	1.538911	0.571949	1.040397
C77	C	0.926336	0.214656	0.529000
C78	C	1.426336	0.714656	1.029000
C79	C	0.926330	0.214652	0.436812
C80	C	1.426330	0.714652	0.936812
C81	C	0.982621	0.143301	0.396418
C82	C	1.482621	0.643301	0.896418
C83	C	0.982630	0.143302	0.580796
C84	C	1.482630	0.643302	1.080796
C85	C	0.982632	0.143300	0.680752
C86	C	1.482632	0.643300	1.180752
C87	C	0.982618	0.143302	0.296456
C88	C	1.482618	0.643302	0.796456
H89	H	0.543900	0.318535	-0.025393
H90	H	1.043900	0.818535	0.474607
Cl91	Cl	0.406380	-0.074701	0.006022
Cl92	Cl	0.906380	0.425299	0.506022
H93	H	0.979433	-0.538074	-0.181689
H94	H	1.479433	-0.038074	0.318311
Cl95	Cl	0.983360	-0.315218	-0.234830
Cl96	Cl	1.483360	0.184782	0.265170
H97	H	0.880490	0.272755	0.394643
H98	H	1.380490	0.772755	0.894643
Cl99	Cl	0.978985	-0.562385	0.145297
Cl100	Cl	1.478985	-0.062385	0.645297
H101	H	0.386571	0.315042	-0.025106
H102	H	0.886571	0.815042	0.474894
H103	H	0.985805	-0.175299	0.158891
H104	H	1.485805	0.324701	0.658891
H105	H	0.578684	-0.028443	0.002326
H106	H	1.078684	0.471557	0.502326
H107	H	0.880506	0.272750	0.561898
H108	H	1.380506	0.772750	1.061898
Cl109	Cl	0.981884	-0.398178	0.212032
Cl110	Cl	1.481884	0.101822	0.712032
H111	H	0.985811	-0.175269	-0.130805
H112	H	1.485811	0.324731	0.369195
Cl113	Cl	1.109672	-0.017752	0.397430
Cl114	Cl	1.609672	0.482248	0.897430
H115	H	1.084745	0.013848	0.582562
H116	H	1.584745	0.513848	1.082562
