data_functionalizedCrystal
_audit_creation_method	'MofGen! by Chris Wilmer'
_symmetry_space_group_name_H-M	'P1'
_symmetry_Int_Tables_number	1
_symmetry_cell_setting	triclinic
loop_
_symmetry_equiv_pos_as_xyz
  x,y,z
_cell_length_a	27.732048
_cell_length_b	14.421503
_cell_length_c	15.944493
_cell_angle_alpha	90.010165
_cell_angle_beta	83.058849
_cell_angle_gamma	89.997938
loop_
_atom_site_label
_atom_site_type_symbol
_atom_site_fract_x
_atom_site_fract_y
_atom_site_fract_z
O1	O	0.641351	-0.076981	0.099936
O2	O	0.500621	-0.077007	0.115133
O3	O	0.574844	-0.077001	-0.014794
O4	O	0.567129	-0.076987	0.229863
O5	O	0.574832	0.077222	-0.014775
O6	O	0.500609	0.077216	0.115152
O7	O	0.641339	0.077242	0.099955
Cu8	Cu	0.570973	0.091311	0.107555
Cu9	Cu	0.570987	-0.091076	0.107533
O10	O	0.567116	0.077236	0.229882
C11	C	0.482607	0.000101	0.114824
C12	C	0.428948	0.000090	0.113863
N13	N	0.570966	0.219592	0.107571
N14	N	0.570998	-0.219357	0.107510
C15	C	0.090431	0.000134	0.184594
C16	C	-0.111244	0.000142	0.181030
O17	O	-0.142227	0.000186	0.245709
N18	N	-0.130692	0.000136	0.103989
C19	C	-0.099718	0.000134	0.027833
O20	O	-0.120887	0.000139	-0.037777
C21	C	0.101956	0.000133	0.031398
C22	C	0.121401	0.000129	0.108444
C23	C	0.109877	0.000132	0.261634
C24	C	0.160292	0.000125	0.262524
C25	C	0.191262	0.000120	0.186374
C26	C	0.171817	0.000122	0.109334
C27	C	0.132929	0.000137	-0.044757
C28	C	0.183350	0.000139	-0.043859
C29	C	0.202795	0.000136	0.033187
C30	C	0.253202	0.000111	0.034074
N31	N	0.272650	0.000117	0.111116
C32	C	0.241680	0.000121	0.187266
C33	C	-0.205600	0.000133	0.025967
C34	C	-0.256018	0.000132	0.025075
C35	C	-0.267540	0.000142	0.178273
C36	C	-0.217121	0.000136	0.179163
C37	C	-0.186152	0.000139	0.103008
C38	C	0.347558	0.000106	0.189129
C39	C	0.397978	0.000095	0.190013
C40	C	0.409496	0.000090	0.036816
C41	C	0.359080	0.000096	0.035932
C42	C	0.328111	0.000107	0.112096
O43	O	0.284214	0.000077	-0.030569
O44	O	0.262859	0.000137	0.252866
C45	C	0.040015	0.000141	0.183704
C46	C	0.020570	0.000144	0.106664
C47	C	0.051540	0.000139	0.030514
C48	C	-0.029849	0.000142	0.105772
C49	C	-0.060819	0.000147	0.181922
C50	C	-0.041370	0.000153	0.258964
C51	C	0.009045	0.000146	0.259854
C52	C	0.032091	0.000133	-0.046528
C53	C	-0.018325	0.000139	-0.047412
C54	C	-0.049295	0.000144	0.028738
C55	C	0.659353	0.000132	0.100264
C56	C	0.713012	0.000137	0.101225
C57	C	0.574522	0.000106	-0.046075
C58	C	0.573577	0.000094	-0.139311
C59	C	0.536640	0.469243	0.167623
C60	C	0.580315	0.531055	0.183359
C61	C	0.570978	0.408754	0.107551
C62	C	0.527314	0.531035	0.091834
C63	C	0.570985	0.591475	0.107533
C64	C	0.614675	0.469205	0.123325
C65	C	0.561645	0.469180	0.031767
C66	C	0.605352	0.530964	0.047471
C67	C	0.570973	0.303492	0.107563
C68	C	0.570995	0.696734	0.107520
C69	C	0.617266	0.000120	-0.375643
C70	C	0.593712	-0.075924	-0.425912
C71	C	0.571825	0.000105	-0.310010
C72	C	0.593689	0.076128	-0.425869
C73	C	0.570137	0.000120	-0.474897
C74	C	0.548284	-0.076001	-0.359051
C75	C	0.548268	0.076119	-0.359005
C76	C	0.524681	0.000056	-0.409241
C77	C	0.572799	0.000096	-0.215022
C78	C	0.569159	0.000123	-0.569881
C79	C	0.567438	0.000126	0.261163
C80	C	0.568383	0.000132	0.354400
H81	H	0.413807	0.000092	0.252756
Cl82	Cl	0.448439	0.000088	-0.058910
H83	H	0.084665	0.000139	0.323648
H84	H	0.529110	-0.140359	-0.329989
H85	H	0.588215	0.558233	0.247440
H86	H	0.024872	0.000145	0.322593
H87	H	0.485509	0.000007	-0.424194
Cl88	Cl	-0.192681	0.000135	0.276025
Cl89	Cl	0.518667	0.175373	-0.313869
H90	H	-0.271845	0.000120	-0.037664
Cl91	Cl	-0.166673	0.000134	-0.069782
H92	H	0.490385	0.558197	0.078548
H93	H	0.651612	0.442160	0.136688
H94	H	0.656407	0.000051	-0.360526
Cl95	Cl	0.108496	0.000126	-0.141622
Cl96	Cl	0.623347	-0.175171	-0.471006
Cl97	Cl	-0.306483	0.000151	0.274003
Cl98	Cl	0.623323	0.175381	-0.470910
Cl99	Cl	-0.080314	0.000155	0.354694
Cl100	Cl	0.549427	0.427181	-0.067138
Cl101	Cl	-0.042763	0.000131	-0.144280
H102	H	0.507630	0.442143	0.218463
Cl103	Cl	0.650238	0.572551	-0.030977
Cl104	Cl	0.184730	0.000127	0.359388
Cl105	Cl	0.308633	0.000118	0.284880
H106	H	0.208563	0.000143	-0.105876
H107	H	0.343247	0.000085	-0.026806
H108	H	0.057303	0.000131	-0.108540
