data_functionalizedCrystal
_audit_creation_method	'MofGen! by Chris Wilmer'
_symmetry_space_group_name_H-M	'P1'
_symmetry_Int_Tables_number	1
_symmetry_cell_setting	triclinic
loop_
_symmetry_equiv_pos_as_xyz
  x,y,z
_cell_length_a	10.654550
_cell_length_b	27.732048
_cell_length_c	9.130313
_cell_angle_alpha	89.993840
_cell_angle_beta	89.996220
_cell_angle_gamma	83.563778
loop_
_atom_site_label
_atom_site_type_symbol
_atom_site_fract_x
_atom_site_fract_y
_atom_site_fract_z
O1	O	1.664980	0.067884	-0.121937
O2	O	1.299230	0.074351	-0.121916
O3	O	1.493465	0.000792	-0.121899
O4	O	1.470746	0.141444	-0.121954
O5	O	1.493462	0.000794	0.121700
O6	O	1.299228	0.074353	0.121683
O7	O	1.664978	0.067886	0.121661
Cu8	Cu	1.482103	0.071120	0.143915
Cu9	Cu	1.482105	0.071117	-0.144169
O10	O	1.470743	0.141446	0.121645
C11	C	1.252451	0.073878	-0.000113
C12	C	1.113067	0.072457	-0.000103
C13	C	1.031761	0.115768	-0.000142
C14	C	0.900796	0.114430	-0.000166
C15	C	0.932457	0.026466	-0.000121
C16	C	1.063419	0.027805	-0.000086
C17	C	1.081409	0.160420	-0.000159
C18	C	1.000101	0.203734	-0.000199
C19	C	0.869136	0.202396	-0.000224
C20	C	0.819479	0.157744	-0.000209
C21	C	1.492987	-0.017217	-0.000096
C22	C	1.491551	-0.070881	-0.000084
C23	C	1.597290	-0.409038	-0.000165
C24	C	1.591962	-0.610731	-0.000185
O25	O	1.688653	-0.641384	-0.000255
N26	N	1.476789	-0.630572	-0.000177
C27	C	1.362940	-0.599986	-0.000173
O28	O	1.264856	-0.621490	-0.000182
C29	C	1.368269	-0.398294	-0.000164
C30	C	1.483449	-0.378456	-0.000157
C31	C	1.712461	-0.389199	-0.000160
C32	C	1.713792	-0.338779	-0.000147
C33	C	1.599951	-0.308197	-0.000139
C34	C	1.484780	-0.328036	-0.000144
C35	C	1.254421	-0.367709	-0.000171
C36	C	1.255764	-0.317284	-0.000172
C37	C	1.370944	-0.297446	-0.000165
C38	C	1.372271	-0.247034	-0.000123
N39	N	1.487444	-0.227193	-0.000131
C40	C	1.601284	-0.257775	-0.000139
C41	C	1.360150	-0.705877	-0.000175
C42	C	1.358817	-0.756300	-0.000175
C43	C	1.587840	-0.767041	-0.000190
C44	C	1.589171	-0.716618	-0.000180
C45	C	1.475323	-0.686036	-0.000184
C46	C	1.604070	-0.151888	-0.000111
C47	C	1.605391	-0.101463	-0.000092
C48	C	1.376369	-0.090726	-0.000085
C49	C	1.375047	-0.141147	-0.000096
C50	C	1.488908	-0.171727	-0.000114
O51	O	1.275631	-0.216352	-0.000070
O52	O	1.699354	-0.236261	-0.000163
C53	C	1.595959	-0.459458	-0.000178
C54	C	1.480788	-0.479296	-0.000183
C55	C	1.366948	-0.448715	-0.000175
C56	C	1.479455	-0.529719	-0.000183
C57	C	1.593296	-0.560301	-0.000191
C58	C	1.708469	-0.540460	-0.000199
C59	C	1.709800	-0.490040	-0.000186
C60	C	1.251774	-0.468556	-0.000167
C61	C	1.250453	-0.518976	-0.000178
C62	C	1.364293	-0.549558	-0.000186
C63	C	1.711757	0.068360	-0.000144
C64	C	1.851141	0.069780	-0.000164
C65	C	1.471221	0.159454	-0.000162
C66	C	1.472657	0.213118	-0.000183
N67	N	1.482110	0.071121	0.346538
N68	N	1.482108	0.071112	-0.346792
C69	C	1.568138	0.038560	0.423197
C70	C	1.568135	0.038554	0.576534
C71	C	1.396071	0.103675	0.576538
C72	C	1.396069	0.103678	0.423204
C73	C	1.654179	0.006003	0.346530
C74	C	1.740216	-0.026560	0.423189
C75	C	1.740212	-0.026566	0.576526
C76	C	1.654173	0.005991	0.653203
H77	H	1.188045	0.161514	-0.000146
H78	H	1.810258	-0.053084	0.638940
C79	C	1.654184	0.006011	0.177865
H80	H	1.590630	0.030069	0.143189
H81	H	1.637615	-0.024942	0.143169
H82	H	1.734312	0.012922	0.143184
H83	H	1.281258	-0.157300	-0.000061
H84	H	1.654169	0.005981	0.778061
C85	C	1.123746	-0.540792	-0.000190
H86	H	1.056144	-0.515353	-0.000199
H87	H	1.118446	-0.560246	0.084746
H88	H	1.118473	-0.560230	-0.085161
H89	H	1.283683	-0.065818	-0.000073
C90	C	1.834856	-0.062369	0.338851
H91	H	1.822548	-0.057699	0.236551
H92	H	1.821863	-0.094678	0.363975
H93	H	1.918555	-0.056812	0.363984
C94	C	1.126543	-0.434922	-0.000143
H95	H	1.057768	-0.453965	-0.000127
H96	H	1.122284	-0.415021	-0.085080
H97	H	1.122303	-0.415037	0.084827
H98	H	1.805169	-0.414094	-0.000172
C99	C	1.301447	0.139489	0.660880
H100	H	1.313779	0.134826	0.763180
H101	H	1.217745	0.133942	0.635764
H102	H	1.314464	0.171797	0.635743
H103	H	1.326015	0.130192	0.360788
C104	C	1.054712	0.252849	-0.000210
H105	H	0.987529	0.278451	-0.000222
H106	H	1.105161	0.255198	-0.085149
H107	H	1.105123	0.255200	0.084759
H108	H	1.129622	-0.007463	-0.000059
C109	C	0.779702	0.250039	-0.000266
H110	H	0.828032	0.276821	-0.000282
H111	H	0.727932	0.251350	0.084668
H112	H	0.727979	0.251341	-0.085240
H113	H	1.807584	-0.322632	-0.000148
H114	H	0.892016	-0.009888	-0.000133
C115	C	0.675422	0.156270	-0.000225
H116	H	0.657497	0.123475	-0.000206
H117	H	0.639961	0.172210	-0.085182
H118	H	0.639938	0.172210	0.084725
C119	C	1.732094	-0.079644	-0.000093
H120	H	1.799700	-0.105082	-0.000116
H121	H	1.737381	-0.060202	0.084858
H122	H	1.737374	-0.060194	-0.085050
H123	H	1.680533	-0.791950	-0.000196
C124	C	1.729314	-0.185519	-0.000118
H125	H	1.798087	-0.166476	-0.000100
H126	H	1.733574	-0.205409	-0.085067
H127	H	1.733555	-0.205415	0.084840
H128	H	1.682961	-0.700469	-0.000176
H129	H	1.265026	-0.772447	-0.000155
H130	H	1.267435	-0.680982	-0.000178
H131	H	1.160629	-0.383852	-0.000185
C132	C	1.833693	-0.574104	-0.000211
H133	H	1.902487	-0.555071	-0.000201
H134	H	1.837924	-0.593993	-0.085163
H135	H	1.837927	-0.594001	0.084745
C136	C	1.130530	-0.283645	-0.000175
H137	H	1.147810	-0.250773	-0.000180
H138	H	1.083255	-0.289707	0.084768
H139	H	1.083274	-0.289699	-0.085139
C140	C	1.836499	-0.468224	-0.000194
H141	H	1.904098	-0.493665	-0.000214
H142	H	1.841792	-0.448781	0.084753
H143	H	1.841784	-0.448776	-0.085154
