data_functionalizedCrystal
_audit_creation_method	'MofGen! by Chris Wilmer'
_symmetry_space_group_name_H-M	'P1'
_symmetry_Int_Tables_number	1
_symmetry_cell_setting	triclinic
loop_
_symmetry_equiv_pos_as_xyz
  x,y,z
_cell_length_a	19.077236
_cell_length_b	21.295416
_cell_length_c	19.076919
_cell_angle_alpha	92.269099
_cell_angle_beta	90.112677
_cell_angle_gamma	87.676979
loop_
_atom_site_label
_atom_site_type_symbol
_atom_site_fract_x
_atom_site_fract_y
_atom_site_fract_z
Zn1	Zn	1.058266	0.228507	0.440531
Zn2	Zn	1.062894	0.329388	0.323019
Zn3	Zn	0.945481	0.228177	0.318311
Zn4	Zn	0.940713	0.337786	0.435757
O5	O	1.001838	0.280965	0.379404
O6	O	1.157214	0.238513	0.428911
O7	O	1.051252	0.312309	0.224064
O8	O	0.960501	0.140131	0.334551
O9	O	1.160614	0.312629	0.342576
O10	O	1.043363	0.140373	0.424345
O11	O	0.964989	0.237950	0.220605
O12	O	0.846515	0.246094	0.329922
O13	O	0.952373	0.326943	0.534721
O14	O	0.843011	0.326623	0.416209
O15	O	1.038739	0.246656	0.538228
O16	O	1.046628	0.418593	0.337947
O17	O	0.956862	0.424763	0.420775
C18	C	0.819266	0.287234	0.372037
C19	C	0.741160	0.289932	0.368902
C20	C	0.702693	0.252678	0.412448
C21	C	0.629304	0.255209	0.409496
C22	C	0.594384	0.294999	0.363001
C23	C	0.632856	0.332255	0.319451
C24	C	0.706244	0.329720	0.322399
C25	C	0.375089	0.306710	0.349351
C26	C	0.301696	0.309244	0.346407
C27	C	0.298149	0.232197	0.436452
C28	C	0.371538	0.229668	0.439399
C29	C	0.410004	0.266921	0.395846
N30	N	0.519369	0.297589	0.359984
N31	N	0.485018	0.264327	0.398860
C32	C	1.001748	0.444518	0.379370
C33	C	1.001773	0.514486	0.379381
C34	C	1.048552	0.544119	0.336302
C35	C	1.048585	0.609861	0.336322
C36	C	1.001825	0.645968	0.379414
C37	C	0.955042	0.616327	0.422502
C38	C	0.955016	0.550586	0.422485
N39	N	0.940138	0.751549	0.382295
N40	N	0.940165	0.814000	0.382306
C41	C	1.001903	0.844042	0.379467
N42	N	1.063614	0.809273	0.376601
N43	N	1.063586	0.746816	0.376586
C44	C	1.001849	0.717253	0.379437
C45	C	1.048721	0.944960	0.336407
C46	C	1.048755	1.010703	0.336432
C47	C	0.955206	1.017167	0.422608
C48	C	0.955179	0.951425	0.422587
C49	C	1.001936	0.915325	0.379483
C50	C	1.185124	0.274671	0.386801
C51	C	1.263229	0.271989	0.389953
C52	C	1.001948	1.116773	0.379468
C53	C	1.001996	1.046805	0.379525
C54	C	0.994508	0.287773	0.562683
C55	C	0.991384	0.290674	0.640786
C56	C	1.009181	0.274136	0.196840
C57	C	1.012441	0.271053	0.118743
C58	C	1.034880	0.250239	0.679306
C59	C	1.031937	0.252963	0.752691
C60	C	0.985500	0.296126	0.787555
C61	C	0.941999	0.336564	0.749030
C62	C	0.944940	0.333836	0.675646
C63	C	0.971880	0.308763	1.006834
C64	C	0.968944	0.311489	1.080224
C65	C	1.058882	0.227886	1.083879
C66	C	1.061821	0.225165	1.010494
C67	C	1.018318	0.265600	0.971975
N68	N	0.982492	0.298913	0.862567
N69	N	1.021323	0.262810	0.896965
H70	H	0.604418	0.364650	0.281590
F71	F	0.925580	0.351798	0.965849
H72	H	1.086852	1.034829	0.301354
H73	H	0.273266	0.341649	0.308545
H74	H	0.597987	0.224874	0.444957
H75	H	0.904187	0.371706	0.777422
F76	F	0.416019	0.346347	0.302986
H77	H	0.909513	0.366757	0.644284
F78	F	0.257206	0.192551	0.482800
F79	F	0.919515	0.357429	1.117327
H80	H	0.731119	0.220278	0.450311
F81	F	0.905445	1.055590	0.468474
H82	H	1.067358	0.220037	0.784051
F83	F	0.747183	0.369372	0.276052
F84	F	1.084309	0.204301	0.642207
F85	F	0.408698	0.187321	0.488889
H86	H	1.086626	0.514728	0.301206
H87	H	1.086681	0.633994	0.301242
H88	H	0.917084	0.927296	0.457663
H89	H	0.916972	0.645729	0.457588
F90	F	1.111246	0.179225	0.973394
F91	F	1.105176	0.184854	1.124879
F92	F	0.905225	0.519047	0.468338
H93	H	1.086796	0.915566	0.301311
