data_functionalizedCrystal
_audit_creation_method	'MofGen! by Chris Wilmer'
_symmetry_space_group_name_H-M	'P1'
_symmetry_Int_Tables_number	1
_symmetry_cell_setting	triclinic
loop_
_symmetry_equiv_pos_as_xyz
  x,y,z
_cell_length_a	16.992694
_cell_length_b	16.974885
_cell_length_c	16.176319
_cell_angle_alpha	93.647026
_cell_angle_beta	90.001613
_cell_angle_gamma	92.975758
loop_
_atom_site_label
_atom_site_type_symbol
_atom_site_fract_x
_atom_site_fract_y
_atom_site_fract_z
O1	O	-1.040213	0.167649	-0.057432
O2	O	-0.540213	0.667649	0.442568
O3	O	-0.811929	0.165809	-0.057579
O4	O	-0.311929	0.665809	0.442421
O5	O	-0.932436	0.052030	-0.065170
O6	O	-0.432436	0.552030	0.434830
O7	O	-0.919706	0.281428	-0.049841
O8	O	-0.419706	0.781428	0.450159
O9	O	-0.932419	0.052021	0.072323
O10	O	-0.432419	0.552021	0.572323
O11	O	-0.811913	0.165801	0.079913
O12	O	-0.311913	0.665801	0.579913
O13	O	-1.040196	0.167640	0.080061
O14	O	-0.540196	0.667640	0.580061
Cu15	Cu	-0.926053	0.166719	0.092541
Cu16	Cu	-0.426053	0.666719	0.592541
Cu17	Cu	-0.926073	0.166730	-0.070060
Cu18	Cu	-0.426073	0.666730	0.429940
O19	O	-0.919690	0.281420	0.087651
O20	O	-0.419690	0.781420	0.587651
C21	C	-0.782711	0.163439	0.011006
C22	C	-0.282711	0.663439	0.511006
C23	C	-0.695675	0.156379	0.010525
C24	C	-0.195675	0.656379	0.510525
C25	C	-0.931943	0.022537	0.001604
C26	C	-0.431943	0.522537	0.501604
C27	C	-0.930492	-0.065330	-0.004273
C28	C	-0.430492	0.434670	0.495727
C29	C	-1.069414	0.170010	0.011474
C30	C	-0.569414	0.670010	0.511474
C31	C	-1.156451	0.177070	0.011950
C32	C	-0.656451	0.677070	0.511950
C33	C	-0.645360	0.224494	0.015077
C34	C	-0.145360	0.724494	0.515077
C35	C	-0.563581	0.217856	0.014645
C36	C	-0.063581	0.717856	0.514645
C37	C	-0.532117	0.143103	0.009654
C38	C	-0.032117	0.643103	0.509654
C39	C	-0.582438	0.074983	0.005104
C40	C	-0.082438	0.574983	0.505104
C41	C	-0.664216	0.081622	0.005542
C42	C	-0.164216	0.581622	0.505542
C43	C	-0.288549	0.115589	0.007838
C44	C	0.211451	0.615589	0.507838
C45	C	-0.206765	0.108955	0.007398
C46	C	0.293235	0.608955	0.507398
C47	C	-0.187914	0.251829	0.016939
C48	C	0.312086	0.751829	0.516939
C49	C	-0.269694	0.258461	0.017372
C50	C	0.230306	0.758461	0.517372
C51	C	-0.320007	0.190341	0.012827
C52	C	0.179993	0.690341	0.512827
N53	N	-0.448526	0.136316	0.009210
N54	N	0.051474	0.636316	0.509210
N55	N	-0.403597	0.197128	0.013277
N56	N	0.096403	0.697128	0.513277
N57	N	-0.926045	0.166712	0.206906
N58	N	-0.426045	0.666712	0.706906
C59	C	-0.929799	-0.106622	0.067909
C60	C	-0.429799	0.393378	0.567909
C61	C	-0.928440	-0.189183	0.062380
C62	C	-0.428440	0.310817	0.562380
C63	C	-0.927768	-0.230450	-0.015333
C64	C	-0.427768	0.269550	0.484667
C65	C	-0.928464	-0.189152	-0.087521
C66	C	-0.428464	0.310848	0.412479
C67	C	-0.929828	-0.106594	-0.081991
C68	C	-0.429828	0.393406	0.418009
C69	C	-0.923694	-0.477364	-0.039910
C70	C	-0.423694	0.022636	0.460090
C71	C	-0.922327	-0.559928	-0.045435
C72	C	-0.422327	-0.059928	0.454565
C73	C	-0.922305	-0.559954	0.104466
C74	C	-0.422305	-0.059954	0.604466
C75	C	-0.923664	-0.477393	0.109990
C76	C	-0.423664	0.022607	0.609990
C77	C	-0.924364	-0.436103	0.037802
C78	C	-0.424364	0.063897	0.537802
N79	N	-0.926377	-0.314840	-0.020987
N80	N	-0.426377	0.185160	0.479013
N81	N	-0.925761	-0.351714	0.043457
N82	N	-0.425761	0.148286	0.543457
C83	C	-0.920182	0.310912	0.020876
C84	C	-0.420182	0.810912	0.520876
C85	C	-0.921634	0.398780	0.026748
C86	C	-0.421634	0.898780	0.526748
N87	N	-0.926087	0.166731	-0.184425
N88	N	-0.426087	0.666731	0.315575
C89	C	-0.979421	0.116353	0.246811
C90	C	-0.479421	0.616353	0.746811
C91	C	-0.979425	0.116353	0.333358
C92	C	-0.479425	0.616353	0.833358
C93	C	-0.926056	0.166715	0.379999
C94	C	-0.426056	0.666715	0.879999
C95	C	-0.872674	0.217076	0.340088
C96	C	-0.372674	0.717076	0.840088
C97	C	-0.872667	0.217072	0.253543
C98	C	-0.372667	0.717072	0.753543
C99	C	-0.872701	0.217093	0.689118
C100	C	-0.372701	0.717093	1.189118
C101	C	-0.872714	0.217095	0.775669
C102	C	-0.372714	0.717095	1.275669
C103	C	-0.979459	0.116373	0.768933
C104	C	-0.479459	0.616373	1.268933
C105	C	-0.979452	0.116369	0.682387
C106	C	-0.479452	0.616369	1.182387
C107	C	-0.926068	0.166727	0.642484
C108	C	-0.426068	0.666727	1.142484
C109	C	-0.926063	0.166726	0.548640
C110	C	-0.426063	0.666726	1.048640
C111	C	-0.926064	0.166721	0.473842
C112	C	-0.426064	0.666721	0.973842
H113	H	-0.670971	0.285366	0.019140
H114	H	-0.170971	0.785366	0.519140
H115	H	-0.927922	-0.222759	-0.150796
H116	H	-0.427922	0.277241	0.349204
H117	H	-0.556814	0.014118	0.001053
H118	H	-0.056814	0.514118	0.501053
H119	H	-0.930333	-0.073028	0.131191
H120	H	-0.430333	0.426972	0.631191
H121	H	-1.022888	0.075346	0.365847
H122	H	-0.522888	0.575346	0.865847
H123	H	-0.924228	-0.443800	0.173272
H124	H	-0.424228	0.056200	0.673272
H125	H	-0.829251	0.258107	0.813644
H126	H	-0.329251	0.758107	1.313644
H127	H	-1.022913	0.075362	0.644414
H128	H	-0.522913	0.575362	1.144414
H129	H	-0.930393	-0.072975	-0.140769
H130	H	-0.430393	0.427025	0.359231
H131	H	-0.921772	-0.593525	-0.108721
H132	H	-0.421772	-0.093525	0.391279
H133	H	-0.295305	0.319332	0.021426
H134	H	0.204695	0.819332	0.521426
H135	H	-1.022884	0.075346	0.208841
H136	H	-0.522884	0.575346	0.708841
H137	H	-0.924262	-0.443755	-0.098690
H138	H	-0.424262	0.056245	0.401310
H139	H	-0.927879	-0.222800	0.121158
H140	H	-0.427879	0.277200	0.621158
H141	H	-0.146940	0.307287	0.020642
H142	H	0.353060	0.807287	0.520642
H143	H	-0.829202	0.258078	0.221053
H144	H	-0.329202	0.758078	0.721053
H145	H	-0.181151	0.048079	0.003333
H146	H	0.318849	0.548079	0.503333
H147	H	-1.022925	0.075367	0.801431
H148	H	-0.522925	0.575367	1.301431
H149	H	-0.829235	0.258097	0.656635
H150	H	-0.329235	0.758097	1.156635
H151	H	-0.522618	0.273322	0.018350
H152	H	-0.022618	0.773322	0.518350
H153	H	-0.329506	0.060121	0.004137
H154	H	0.170494	0.560121	0.504137
H155	H	-0.829216	0.258080	0.378068
H156	H	-0.329216	0.758080	0.878068
H157	H	-0.705182	0.026156	0.001835
H158	H	-0.205182	0.526156	0.501835
H159	H	-0.921736	-0.593581	0.163238
H160	H	-0.421736	-0.093581	0.663238
