data_functionalizedCrystal
_audit_creation_method	'MofGen! by Chris Wilmer'
_symmetry_space_group_name_H-M	'P1'
_symmetry_Int_Tables_number	1
_symmetry_cell_setting	triclinic
loop_
_symmetry_equiv_pos_as_xyz
  x,y,z
_cell_length_a	19.121102
_cell_length_b	12.759400
_cell_length_c	19.122798
_cell_angle_alpha	87.637541
_cell_angle_beta	90.016213
_cell_angle_gamma	92.430863
loop_
_atom_site_label
_atom_site_type_symbol
_atom_site_fract_x
_atom_site_fract_y
_atom_site_fract_z
Zn1	Zn	1.055446	0.513336	-0.442020
Zn2	Zn	1.555446	1.013336	0.057980
Zn3	Zn	1.060242	0.682021	-0.324806
Zn4	Zn	1.560242	1.182021	0.175194
Zn5	Zn	0.943064	0.498556	-0.319821
Zn6	Zn	1.443064	0.998556	0.180179
Zn7	Zn	0.938190	0.681165	-0.436993
Zn8	Zn	1.438190	1.181165	0.063007
O9	O	0.999236	0.593770	-0.380910
O10	O	1.499236	1.093770	0.119090
O11	O	1.154193	0.542256	-0.430662
O12	O	1.654193	1.042256	0.069338
O13	O	1.048745	0.651857	-0.226053
O14	O	1.548745	1.151857	0.273947
O15	O	0.958003	0.353499	-0.336048
O16	O	1.458003	0.853499	0.163952
O17	O	1.157717	0.666189	-0.344545
O18	O	1.657717	1.166189	0.155455
O19	O	1.040570	0.364357	-0.425828
O20	O	1.540570	0.864357	0.074172
O21	O	0.962655	0.517066	-0.222390
O22	O	1.462655	1.017066	0.277610
O23	O	0.844306	0.516236	-0.331173
O24	O	1.344306	1.016236	0.168827
O25	O	0.949698	0.664729	-0.535752
O26	O	1.449698	1.164729	-0.035752
O27	O	0.840726	0.650398	-0.417259
O28	O	1.340726	1.150398	0.082741
O29	O	1.035844	0.541426	-0.539445
O30	O	1.535844	1.041426	-0.039445
O31	O	1.044020	0.828926	-0.339670
O32	O	1.544020	1.328926	0.160330
O33	O	0.954349	0.828296	-0.422094
O34	O	1.454349	1.328296	0.077906
C35	C	0.817077	0.581621	-0.373130
C36	C	1.317077	1.081621	0.126870
C37	C	0.739148	0.576450	-0.369819
C38	C	1.239148	1.076450	0.130181
C39	C	0.999195	0.866733	-0.380894
C40	C	1.499195	1.366733	0.119106
C41	C	0.999240	0.983514	-0.380913
C42	C	1.499240	1.483514	0.119087
C43	C	0.991692	0.604630	-0.563744
C44	C	1.491692	1.104630	-0.063744
C45	C	0.988478	0.609259	-0.641656
C46	C	1.488478	1.109259	-0.141656
C47	C	0.700694	0.643968	-0.413013
C48	C	1.200694	1.143968	0.086987
C49	C	0.627471	0.639096	-0.409904
C50	C	1.127471	1.139096	0.090096
C51	C	0.592704	0.566709	-0.363598
C52	C	1.092704	1.066709	0.136402
C53	C	0.631163	0.499183	-0.320402
C54	C	1.131163	0.999183	0.179598
C55	C	0.704384	0.504051	-0.323514
C56	C	1.204384	1.004051	0.176486
C57	C	0.371715	0.548507	-0.351965
C58	C	0.871715	1.048507	0.148035
C59	C	0.298488	0.543646	-0.348855
C60	C	0.798488	1.043646	0.151145
C61	C	0.294801	0.683558	-0.438359
C62	C	0.794801	1.183558	0.061641
C63	C	0.368024	0.688424	-0.441464
C64	C	0.868024	1.188424	0.058536
C65	C	0.406477	0.620894	-0.398271
C66	C	0.906477	1.120894	0.101729
C67	C	0.517858	0.561729	-0.360418
C68	C	1.017858	1.061729	0.139582
C69	C	0.481321	0.625869	-0.401454
C70	C	0.981321	1.125869	0.098546
C71	C	1.182106	0.605967	-0.388721
C72	C	1.682106	1.105967	0.111279
C73	C	1.260034	0.611164	-0.392049
C74	C	1.760034	1.111164	0.107951
C75	C	0.999295	0.319742	-0.380943
C76	C	1.499295	0.819742	0.119057
C77	C	0.999321	0.202968	-0.380957
C78	C	1.499321	0.702968	0.119043
C79	C	1.045980	1.038675	-0.338047
C80	C	1.545980	1.538675	0.161953
C81	C	1.046022	1.148403	-0.338070
C82	C	1.546022	1.648403	0.161930
C83	C	0.952579	1.147799	-0.423827
C84	C	1.452579	1.647799	0.076173
C85	C	0.952541	1.038074	-0.423807
C86	C	1.452541	1.538074	0.076193
C87	C	1.099926	1.039024	-0.288533
C88	C	1.599926	1.539024	0.211467
C89	C	1.099968	1.148753	-0.288557
C90	C	1.599968	1.648753	0.211443
C91	C	1.006790	0.582878	-0.198789
C92	C	1.506790	1.082878	0.301211
C93	C	1.010140	0.577963	-0.120883
C94	C	1.510140	1.077963	0.379117
C95	C	1.031410	0.546878	0.319631
C96	C	1.531410	1.046878	0.819631
C97	C	1.028244	0.551500	0.246431
C98	C	1.528244	1.051500	0.746431
C99	C	0.982148	0.618510	0.211944
C100	C	1.482148	1.118510	0.711944
C101	C	0.939210	0.680893	0.250661
C102	C	1.439210	1.180893	0.750661
C103	C	0.942374	0.676264	0.323861
C104	C	1.442374	1.176264	0.823861
C105	C	0.970366	0.635717	-0.008966
C106	C	1.470366	1.135717	0.491034
C107	C	0.967207	0.640344	-0.082170
C108	C	1.467207	1.140344	0.417830
C109	C	1.056240	0.510949	-0.086396
C110	C	1.556240	1.010949	0.413604
C111	C	1.059403	0.506331	-0.013195
C112	C	1.559403	1.006331	0.486805
C113	C	1.016463	0.568710	0.025516
C114	C	1.516463	1.068710	0.525516
C115	C	0.978912	0.623239	0.137121
C116	C	1.478912	1.123239	0.637121
C117	C	1.019696	0.563975	0.100338
C118	C	1.519696	1.063975	0.600338
H119	H	0.728996	0.702917	-0.450718
H120	H	1.228996	1.202917	0.049282
H121	H	0.735693	0.449065	-0.288345
H122	H	1.235693	0.949065	0.211655
Br123	Br	0.470668	0.463489	-0.297577
Br124	Br	0.970668	0.963489	0.202423
Br125	Br	1.071082	0.975118	-0.201172
Br126	Br	1.571082	1.475118	0.298828
Br127	Br	1.189389	0.996730	-0.316690
Br128	Br	1.689389	1.496730	0.183310
H129	H	0.907406	0.727050	0.355380
H130	H	1.407406	1.227050	0.855380
Br131	Br	0.242612	0.775204	-0.496972
Br132	Br	0.742612	1.275204	0.003028
Br133	Br	0.583979	0.400933	-0.257563
Br134	Br	1.083979	0.900933	0.242437
Br135	Br	0.889119	0.963216	-0.481999
Br136	Br	1.389119	1.463216	0.018001
H137	H	0.270183	0.484688	-0.311151
H138	H	0.770183	0.984688	0.188849
H139	H	0.403014	0.493527	-0.316789
H140	H	0.903014	0.993527	0.183211
H141	H	1.096941	0.451767	0.014879
H142	H	1.596941	0.951767	0.514879
Br143	Br	1.184591	1.213014	-0.324723
Br144	Br	1.684591	1.713014	0.175277
H145	H	0.914559	1.192235	-0.458751
H146	H	1.414559	1.692235	0.041249
H147	H	0.901675	0.735450	0.222576
H148	H	1.401675	1.235450	0.722576
H149	H	0.509631	0.684802	-0.439160
H150	H	1.009631	1.184802	0.060840
Br151	Br	1.093978	0.455940	0.366428
Br152	Br	1.593978	0.955940	0.866428
H153	H	1.087717	1.174393	-0.233642
H154	H	1.587717	1.674393	0.266358
H155	H	1.063206	0.500706	0.214914
H156	H	1.563206	1.000706	0.714914
H157	H	1.057224	0.509411	0.128421
H158	H	1.557224	1.009411	0.628421
H159	H	1.091199	0.460162	-0.117923
H160	H	1.591199	0.960162	0.382077
Br161	Br	0.916356	0.714181	0.090311
Br162	Br	1.416356	1.214181	0.590311
H163	H	0.929668	0.694913	-0.110247
H164	H	1.429668	1.194913	0.389753
H165	H	0.596164	0.694078	-0.445077
H166	H	1.096164	1.194078	0.054923
H167	H	0.396326	0.747371	-0.479170
H168	H	0.896326	1.247371	0.020830
H169	H	0.935412	0.686527	0.022544
H170	H	1.435412	1.186527	0.522544
