data_functionalizedCrystal
_audit_creation_method	'MofGen! by Chris Wilmer'
_symmetry_space_group_name_H-M	'P1'
_symmetry_Int_Tables_number	1
_symmetry_cell_setting	triclinic
loop_
_symmetry_equiv_pos_as_xyz
  x,y,z
_cell_length_a	14.971486
_cell_length_b	13.448316
_cell_length_c	14.971494
_cell_angle_alpha	89.995115
_cell_angle_beta	96.384157
_cell_angle_gamma	90.001801
loop_
_atom_site_label
_atom_site_type_symbol
_atom_site_fract_x
_atom_site_fract_y
_atom_site_fract_z
O1	O	-1.186951	-0.082574	0.116564
O2	O	-0.926551	-0.082600	0.130523
O3	O	-1.063726	-0.082584	-0.006656
O4	O	-1.049776	-0.082590	0.253743
O5	O	-1.063709	0.082800	-0.006664
O6	O	-0.926534	0.082784	0.130515
O7	O	-1.186934	0.082810	0.116556
Cu8	Cu	-1.056732	0.097898	0.123534
Cu9	Cu	-1.056753	-0.097688	0.123544
O10	O	-1.049758	0.082794	0.253735
C11	C	-0.893218	0.000088	0.129895
C12	C	-0.793921	0.000078	0.128024
C13	C	-1.220267	0.000120	0.117184
C14	C	-1.319564	0.000123	0.119055
C15	C	-1.063093	0.000106	-0.039985
C16	C	-1.061219	0.000102	-0.139281
N17	N	-1.056724	0.235462	0.123527
C18	C	-0.736698	0.000078	0.208613
C19	C	-0.643398	0.000092	0.206850
C20	C	-0.607323	0.000101	0.124497
C21	C	-0.664554	0.000104	0.043902
C22	C	-0.757851	0.000096	0.045666
C23	C	-0.470091	0.000118	0.040231
C24	C	-0.376787	0.000124	0.038466
C25	C	-0.355638	0.000114	0.201415
C26	C	-0.448936	0.000106	0.203179
C27	C	-0.506160	0.000108	0.122583
N28	N	-1.056768	-0.235252	0.123545
C29	C	-1.117484	0.287510	0.062809
C30	C	-1.117490	0.391613	0.062808
C31	C	-1.056739	0.443667	0.123530
C32	C	-0.995973	0.391612	0.184251
C33	C	-0.995963	0.287510	0.184247
C34	C	-0.995997	0.608592	0.184257
C35	C	-0.996007	0.712700	0.184263
C36	C	-1.117524	0.712694	0.062819
C37	C	-1.117515	0.608593	0.062814
C38	C	-1.056749	0.556545	0.123536
C39	C	-1.060350	-0.090050	-0.185921
C40	C	-1.058584	-0.090052	-0.279221
C41	C	-1.057693	0.000100	-0.325879
C42	C	-1.058559	0.090259	-0.279232
C43	C	-1.060319	0.090259	-0.185933
C44	C	-1.054893	0.090252	-0.473695
C45	C	-1.053135	0.090252	-0.567000
C46	C	-1.053158	-0.090059	-0.566982
C47	C	-1.054918	-0.090059	-0.473684
C48	C	-1.055786	0.000100	-0.427043
C49	C	-1.050392	0.000101	0.287064
C50	C	-1.052266	0.000100	0.386360
H51	H	-0.766062	0.000070	0.275674
F52	F	-0.818752	0.000100	-0.040108
F53	F	-0.582501	0.000088	0.292624
H54	H	-1.057828	0.163662	-0.317227
H55	H	-0.635174	0.000125	-0.023152
F56	F	-1.182150	0.232120	-0.001817
H57	H	-1.055650	-0.163468	-0.435698
F58	F	-1.182157	0.447006	-0.001815
H59	H	-0.478304	0.000090	0.270238
H60	H	-1.061080	-0.163463	-0.147940
H61	H	-0.516681	0.000121	-0.025399
H62	H	-1.166987	0.566211	0.013374
H63	H	-1.167001	0.755078	0.013377
F64	F	-1.057660	-0.186004	-0.328854
H65	H	-1.052449	-0.163470	-0.604961
F66	F	-1.061242	0.186211	-0.136296
F67	F	-0.294735	0.000114	0.287191
F68	F	-1.052188	0.186201	-0.616655
H69	H	-0.946537	0.755077	0.233708
H70	H	-0.347418	0.000132	-0.028593
H71	H	-1.055580	0.163669	-0.435721
F72	F	-0.931320	0.553203	0.248883
H73	H	-0.946503	0.434000	0.233689
F74	F	-0.931291	0.232119	0.248869
