data_functionalizedCrystal
_audit_creation_method	'MofGen! by Chris Wilmer'
_symmetry_space_group_name_H-M	'P1'
_symmetry_Int_Tables_number	1
_symmetry_cell_setting	triclinic
loop_
_symmetry_equiv_pos_as_xyz
  x,y,z
_cell_length_a	18.215407
_cell_length_b	12.827892
_cell_length_c	18.215399
_cell_angle_alpha	89.975972
_cell_angle_beta	89.982632
_cell_angle_gamma	90.012645
loop_
_atom_site_label
_atom_site_type_symbol
_atom_site_fract_x
_atom_site_fract_y
_atom_site_fract_z
Zn1	Zn	1.125121	-0.416115	-0.416088
Zn2	Zn	1.375121	-0.166115	-0.166088
Zn3	Zn	1.625121	0.083885	0.083912
Zn4	Zn	1.875121	0.333885	0.333912
Zn5	Zn	1.125051	-0.590874	-0.293030
Zn6	Zn	1.375051	-0.340874	-0.043030
Zn7	Zn	1.625051	-0.090874	0.206970
Zn8	Zn	1.875051	0.159126	0.456970
Zn9	Zn	1.002054	-0.416140	-0.293040
Zn10	Zn	1.252054	-0.166140	-0.043040
Zn11	Zn	1.502054	0.083860	0.206960
Zn12	Zn	1.752054	0.333860	0.456960
Zn13	Zn	1.002041	-0.590807	-0.416060
Zn14	Zn	1.252041	-0.340807	-0.166060
Zn15	Zn	1.502041	-0.090807	0.083940
Zn16	Zn	1.752041	0.159193	0.333940
O17	O	1.063567	-0.503484	-0.354554
O18	O	1.313567	-0.253484	-0.104554
O19	O	1.563567	-0.003484	0.145446
O20	O	1.813567	0.246516	0.395446
O21	O	1.228096	-0.439315	-0.399771
O22	O	1.478096	-0.189315	-0.149771
O23	O	1.728096	0.060685	0.100229
O24	O	1.978096	0.310685	0.350229
O25	O	1.108711	-0.567734	-0.190047
O26	O	1.358711	-0.317734	0.059953
O27	O	1.608711	-0.067734	0.309953
O28	O	1.858711	0.182266	0.559953
O29	O	1.018414	-0.269901	-0.309379
O30	O	1.268414	-0.019901	-0.059379
O31	O	1.518414	0.230099	0.190621
O32	O	1.768414	0.480099	0.440621
O33	O	1.228044	-0.567710	-0.309361
O34	O	1.478044	-0.317710	-0.059361
O35	O	1.728044	-0.067710	0.190639
O36	O	1.978044	0.182290	0.440639
O37	O	1.108831	-0.269882	-0.399781
O38	O	1.358831	-0.019882	-0.149781
O39	O	1.608831	0.230118	0.100219
O40	O	1.858831	0.480118	0.350219
O41	O	1.018346	-0.439358	-0.190054
O42	O	1.268346	-0.189358	0.059946
O43	O	1.518346	0.060642	0.309946
O44	O	1.768346	0.310642	0.559946
O45	O	0.899068	-0.439292	-0.309352
O46	O	1.149068	-0.189292	-0.059352
O47	O	1.399068	0.060708	0.190648
O48	O	1.649068	0.310708	0.440648
O49	O	1.018392	-0.567595	-0.519048
O50	O	1.268392	-0.317595	-0.269048
O51	O	1.518392	-0.067595	-0.019048
O52	O	1.768392	0.182405	0.230952
O53	O	0.899058	-0.567619	-0.399734
O54	O	1.149058	-0.317619	-0.149734
O55	O	1.399058	-0.067619	0.100266
O56	O	1.649058	0.182381	0.350266
O57	O	1.108819	-0.439250	-0.519068
O58	O	1.358819	-0.189250	-0.269068
O59	O	1.608819	0.060750	-0.019068
O60	O	1.858819	0.310750	0.230932
O61	O	1.108698	-0.737101	-0.309334
O62	O	1.358698	-0.487101	-0.059334
O63	O	1.608698	-0.237101	0.190666
O64	O	1.858698	0.012899	0.440666
O65	O	1.018323	-0.737052	-0.399724
O66	O	1.268323	-0.487052	-0.149724
O67	O	1.518323	-0.237052	0.100276
O68	O	1.768323	0.012948	0.350276
C69	C	0.872360	-0.503452	-0.354541
C70	C	1.122360	-0.253452	-0.104541
C71	C	1.372360	-0.003452	0.145459
C72	C	1.622360	0.246548	0.395459
C73	C	0.790562	-0.503463	-0.354553
C74	C	1.040562	-0.253463	-0.104553
C75	C	1.290562	-0.003463	0.145447
C76	C	1.540562	0.246537	0.395447
C77	C	0.602394	-0.436746	-0.401704
C78	C	0.852394	-0.186746	-0.151704
C79	C	1.102394	0.063254	0.098296
C80	C	1.352394	0.313254	0.348296
C81	C	0.525535	-0.436755	-0.401707
C82	C	0.775535	-0.186755	-0.151707
C83	C	1.025535	0.063245	0.098293
C84	C	1.275535	0.313245	0.348293
C85	C	0.525492	-0.570252	-0.307417
C86	C	0.775492	-0.320252	-0.057417
C87	C	1.025492	-0.070252	0.192583
C88	C	1.275492	0.179748	0.442583
C89	C	0.602349	-0.570237	-0.307412
C90	C	0.852349	-0.320237	-0.057412
C91	C	1.102349	-0.070237	0.192588
C92	C	1.352349	0.179763	0.442588
C93	C	0.640798	-0.503485	-0.354559
C94	C	0.890798	-0.253485	-0.104559
C95	C	1.140798	-0.003485	0.145441
C96	C	1.390798	0.246515	0.395441
C97	C	0.487082	-0.503509	-0.354567
C98	C	0.737082	-0.253509	-0.104567
C99	C	0.987082	-0.003509	0.145433
C100	C	1.237082	0.246491	0.395433
C101	C	0.403748	-0.503519	-0.354570
C102	C	0.653748	-0.253519	-0.104570
C103	C	0.903748	-0.003519	0.145430
C104	C	1.153748	0.246481	0.395430
C105	C	0.724137	-0.503473	-0.354556
C106	C	0.974137	-0.253473	-0.104556
C107	C	1.224137	-0.003473	0.145444
C108	C	1.474137	0.246527	0.395444
C109	C	1.063521	-0.774994	-0.354541
C110	C	1.313521	-0.524994	-0.104541
C111	C	1.563521	-0.274994	0.145459
C112	C	1.813521	-0.024994	0.395459
C113	C	1.063569	-0.891147	-0.354559
C114	C	1.313569	-0.641147	-0.104559
C115	C	1.563569	-0.391147	0.145441
C116	C	1.813569	-0.141147	0.395441
C117	C	1.018838	-0.942942	-0.399254
C118	C	1.268838	-0.692942	-0.149254
C119	C	1.518838	-0.442942	0.100746
C120	C	1.768838	-0.192942	0.350746
C121	C	1.018887	-1.062992	-0.399275
C122	C	1.268887	-0.812992	-0.149275
C123	C	1.518887	-0.562992	0.100725
C124	C	1.768887	-0.312992	0.350725
C125	C	1.255520	-0.503517	-0.354568
C126	C	1.505520	-0.253517	-0.104568
C127	C	1.755520	-0.003517	0.145432
C128	C	2.005520	0.246483	0.395432
C129	C	1.337318	-0.503531	-0.354573
C130	C	1.587318	-0.253531	-0.104573
C131	C	1.837318	-0.003531	0.145427
C132	C	2.087318	0.246469	0.395427
C133	C	1.063612	-0.503412	-0.546507
C134	C	1.313612	-0.253412	-0.296507
C135	C	1.563612	-0.003412	-0.046507
C136	C	1.813612	0.246588	0.203493
C137	C	1.063631	-0.503381	-0.628306
C138	C	1.313631	-0.253381	-0.378306
C139	C	1.563631	-0.003381	-0.128306
C140	C	1.813631	0.246619	0.121694
C141	C	1.063632	-0.230914	-0.354584
C142	C	1.313632	0.019086	-0.104584
C143	C	1.563632	0.269086	0.145416
C144	C	1.813632	0.519086	0.395416
C145	C	1.063660	-0.114761	-0.354597
C146	C	1.313660	0.135239	-0.104597
C147	C	1.563660	0.385239	0.145403
C148	C	1.813660	0.635239	0.395403
C149	C	1.110733	-0.436489	-0.816512
C150	C	1.360733	-0.186489	-0.566512
C151	C	1.610733	0.063511	-0.316512
C152	C	1.860733	0.313511	-0.066512
C153	C	1.110742	-0.436459	-0.893371
C154	C	1.360742	-0.186459	-0.643371
C155	C	1.610742	0.063541	-0.393371
C156	C	1.860742	0.313541	-0.143371
C157	C	1.016580	-0.570112	-0.893338
C158	C	1.266580	-0.320112	-0.643338
C159	C	1.516580	-0.070112	-0.393338
C160	C	1.766580	0.179888	-0.143338
C161	C	1.016569	-0.570136	-0.816481
C162	C	1.266569	-0.320136	-0.566481
C163	C	1.516569	-0.070136	-0.316481
C164	C	1.766569	0.179864	-0.066481
C165	C	1.063649	-0.503327	-0.778070
C166	C	1.313649	-0.253327	-0.528070
C167	C	1.563649	-0.003327	-0.278070
C168	C	1.813649	0.246673	-0.028070
C169	C	1.063670	-0.503272	-0.931786
C170	C	1.313670	-0.253272	-0.681786
C171	C	1.563670	-0.003272	-0.431786
C172	C	1.813670	0.246728	-0.181786
C173	C	1.063679	-0.503239	-1.015120
C174	C	1.313679	-0.253239	-0.765120
C175	C	1.563679	-0.003239	-0.515120
C176	C	1.813679	0.246761	-0.265120
C177	C	1.063639	-0.503357	-0.694731
C178	C	1.313639	-0.253357	-0.444731
C179	C	1.563639	-0.003357	-0.194731
C180	C	1.813639	0.246643	0.055269
C181	C	1.063564	-0.503480	-0.163348
C182	C	1.313564	-0.253480	0.086652
C183	C	1.563564	-0.003480	0.336652
C184	C	1.813564	0.246520	0.586652
C185	C	1.063688	-0.503217	-0.081550
C186	C	1.313688	-0.253217	0.168450
C187	C	1.563688	-0.003217	0.418450
C188	C	1.813688	0.246783	0.668450
H189	H	0.494270	-0.382407	-0.440096
H190	H	0.744270	-0.132407	-0.190096
H191	H	0.994270	0.117593	0.059904
H192	H	1.244270	0.367593	0.309904
O193	O	1.114344	-0.950130	-0.303889
O194	O	1.364344	-0.700130	-0.053889
O195	O	1.614344	-0.450130	0.196111
O196	O	1.864344	-0.200130	0.446111
H197	H	1.147099	-0.893927	-0.271141
H198	H	1.397099	-0.643927	-0.021141
H199	H	1.647099	-0.393927	0.228859
H200	H	1.897099	-0.143927	0.478859
H201	H	1.149081	-0.382032	-0.924667
H202	H	1.399081	-0.132032	-0.674667
H203	H	1.649081	0.117968	-0.424667
H204	H	1.899081	0.367968	-0.174667
O205	O	0.643865	-0.364746	-0.452550
O206	O	0.893865	-0.114746	-0.202550
O207	O	1.143865	0.135254	0.047450
O208	O	1.393865	0.385254	0.297450
H209	H	0.678876	-0.311522	-0.419668
H210	H	0.928876	-0.061522	-0.169668
H211	H	1.178876	0.188478	0.080332
H212	H	1.428876	0.438478	0.330332
H213	H	0.980503	-0.898411	-0.437502
H214	H	1.230503	-0.648411	-0.187502
H215	H	1.480503	-0.398411	0.062498
H216	H	1.730503	-0.148411	0.312498
H217	H	1.149067	-0.382086	-0.785240
H218	H	1.399067	-0.132086	-0.535240
H219	H	1.649067	0.117914	-0.285240
H220	H	1.899067	0.367914	-0.035240
O221	O	0.965803	-0.642171	-0.934766
O222	O	1.215803	-0.392171	-0.684766
O223	O	1.465803	-0.142171	-0.434766
O224	O	1.715803	0.107829	-0.184766
H225	H	0.973724	-0.630932	-0.994669
H226	H	1.223724	-0.380932	-0.744669
H227	H	1.473724	-0.130932	-0.494669
H228	H	1.723724	0.119068	-0.244669
O229	O	0.484022	-0.642247	-0.256567
O230	O	0.734022	-0.392247	-0.006567
O231	O	0.984022	-0.142247	0.243433
O232	O	1.234022	0.107753	0.493433
H233	H	0.449020	-0.695488	-0.289444
H234	H	0.699020	-0.445488	-0.039444
H235	H	0.949020	-0.195488	0.210556
H236	H	1.199020	0.054512	0.460556
H237	H	0.978222	-0.624562	-0.785180
H238	H	1.228222	-0.374562	-0.535180
H239	H	1.478222	-0.124562	-0.285180
H240	H	1.728222	0.125438	-0.035180
O241	O	0.643780	-0.642219	-0.256558
O242	O	0.893780	-0.392219	-0.006558
O243	O	1.143780	-0.142219	0.243442
O244	O	1.393780	0.107781	0.493442
H245	H	0.604133	-0.688648	-0.223781
H246	H	0.854133	-0.438648	0.026219
H247	H	1.104133	-0.188648	0.276219
H248	H	1.354133	0.061352	0.526219
O249	O	0.968149	-1.121980	-0.449960
O250	O	1.218149	-0.871980	-0.199960
O251	O	1.468149	-0.621980	0.050040
O252	O	1.718149	-0.371980	0.300040
H253	H	0.976142	-1.207014	-0.442015
H254	H	1.226142	-0.957014	-0.192015
H255	H	1.476142	-0.707014	0.057985
H256	H	1.726142	-0.457014	0.307985
H257	H	1.101961	-1.070226	-0.316332
H258	H	1.351961	-0.820226	-0.066332
H259	H	1.601961	-0.570226	0.183668
H260	H	1.851961	-0.320226	0.433668
