data_functionalizedCrystal
_audit_creation_method	'MofGen! by Chris Wilmer'
_symmetry_space_group_name_H-M	'P1'
_symmetry_Int_Tables_number	1
_symmetry_cell_setting	triclinic
loop_
_symmetry_equiv_pos_as_xyz
  x,y,z
_cell_length_a	10.489741
_cell_length_b	10.489763
_cell_length_c	8.965430
_cell_angle_alpha	89.987107
_cell_angle_beta	90.004975
_cell_angle_gamma	95.456232
loop_
_atom_site_label
_atom_site_type_symbol
_atom_site_fract_x
_atom_site_fract_y
_atom_site_fract_z
O1	O	1.694074	-0.179972	0.123965
O2	O	1.322879	-0.196865	0.123990
O3	O	1.516908	-0.002822	0.123949
O4	O	1.500045	-0.374014	0.124006
O5	O	1.516880	-0.002804	-0.124130
O6	O	1.322852	-0.196847	-0.124089
O7	O	1.694046	-0.179954	-0.124114
Cu8	Cu	1.508446	-0.188399	-0.146753
Cu9	Cu	1.508479	-0.188420	0.146629
O10	O	1.500017	-0.373997	-0.124073
C11	C	1.275334	-0.195580	-0.000047
C12	C	1.133704	-0.191763	-0.000039
C13	C	1.065554	-0.068299	-0.000072
C14	C	0.973445	-0.126631	0.122250
C15	C	0.973452	-0.126643	-0.122336
C16	C	1.043461	-0.250145	0.122384
C17	C	1.043477	-0.250140	-0.122312
C18	C	0.951396	-0.308561	0.000039
C19	C	1.515614	0.044718	-0.000095
C20	C	1.511786	0.186346	-0.000106
C21	C	1.388316	0.254485	-0.000095
C22	C	1.446618	0.346616	-0.122424
C23	C	1.446675	0.346573	0.122163
C24	C	1.570139	0.276611	-0.122536
C25	C	1.570179	0.276558	0.122160
C26	C	1.628571	0.368661	-0.000198
C27	C	1.741591	-0.181239	-0.000074
C28	C	1.883221	-0.185056	-0.000073
N29	N	1.508433	-0.188383	-0.353102
C30	C	1.501291	0.578461	-0.000052
C31	C	1.505059	0.436826	-0.000108
N32	N	1.508503	-0.188425	0.352978
C33	C	1.598382	-0.098828	0.549633
C34	C	1.482990	-0.072793	0.450133
C35	C	1.623885	-0.214404	0.450269
C36	C	1.392981	-0.162290	0.549587
C37	C	1.533952	-0.303952	0.549732
C38	C	1.418477	-0.277965	0.450278
H39	H	0.901980	-0.410164	0.000121
O40	O	1.263659	-0.133006	0.607127
H41	H	1.199427	-0.118523	0.511462
H42	H	1.115235	0.033196	0.000066
O43	O	0.932347	-0.057451	0.259208
H44	H	0.978477	0.042263	0.258943
O45	O	1.253866	0.188698	-0.000232
H46	H	1.202910	0.216577	-0.101924
H47	H	1.622389	0.245507	0.225575
H48	H	1.074516	-0.302330	-0.225718
O49	O	1.317646	-0.378295	0.392823
H50	H	1.267043	-0.427487	0.488523
O51	O	1.562554	-0.433346	0.607743
H52	H	1.658459	-0.454712	0.568041
O53	O	1.084304	-0.319252	0.259561
H54	H	1.189877	-0.321485	0.258538
O55	O	1.763186	0.434041	-0.000308
H56	H	1.814717	0.404649	0.100278
O57	O	1.377477	0.387612	0.259141
H58	H	1.345060	0.302008	0.326830
H59	H	1.622325	0.245787	-0.226060
H60	H	1.674331	-0.023025	0.593258
O61	O	1.753171	-0.243558	0.392487
H62	H	1.827630	-0.169072	0.432300
H63	H	1.461426	0.024922	0.406386
H64	H	0.942458	-0.074373	-0.225751
H65	H	1.394363	0.377634	-0.225833
