data_functionalizedCrystal
_audit_creation_method	'MofGen! by Chris Wilmer'
_symmetry_space_group_name_H-M	'P1'
_symmetry_Int_Tables_number	1
_symmetry_cell_setting	triclinic
loop_
_symmetry_equiv_pos_as_xyz
  x,y,z
_cell_length_a	17.699083
_cell_length_b	17.699083
_cell_length_c	16.176319
_cell_angle_alpha	90.004339
_cell_angle_beta	89.999950
_cell_angle_gamma	83.283015
loop_
_atom_site_label
_atom_site_type_symbol
_atom_site_fract_x
_atom_site_fract_y
_atom_site_fract_z
O1	O	1.004078	0.095710	0.068632
O2	O	1.504078	0.595710	0.568632
O3	O	0.783699	0.108162	0.068660
O4	O	1.283699	0.608162	0.568660
O5	O	0.900115	-0.008253	0.068638
O6	O	1.400115	0.491747	0.568638
O7	O	0.887662	0.212125	0.068654
O8	O	1.387662	0.712125	0.568654
O9	O	0.900101	-0.008254	-0.068855
O10	O	1.400101	0.491746	0.431145
O11	O	0.783686	0.108162	-0.068834
O12	O	1.283686	0.608162	0.431166
O13	O	1.004064	0.095709	-0.068861
O14	O	1.504064	0.595709	0.431139
Cu15	Cu	0.893874	0.101935	-0.081401
Cu16	Cu	1.393874	0.601935	0.418599
Cu17	Cu	0.893890	0.101936	0.081200
Cu18	Cu	1.393890	0.601936	0.581200
O19	O	0.887649	0.212125	-0.068839
O20	O	1.387649	0.712125	0.431161
C21	C	0.755495	0.107716	-0.000084
C22	C	1.255495	0.607716	0.499916
C23	C	0.671477	0.106377	-0.000073
C24	C	1.171477	0.606377	0.499927
C25	C	0.622856	0.174710	-0.000069
C26	C	1.122856	0.674710	0.499931
C27	C	0.543913	0.173448	-0.000079
C28	C	1.043913	0.673448	0.499921
C29	C	0.513592	0.103852	-0.000089
C30	C	1.013592	0.603852	0.499911
C31	C	0.562219	0.035513	-0.000096
C32	C	1.062219	0.535513	0.499904
C33	C	0.641161	0.036776	-0.000091
C34	C	1.141161	0.536776	0.499909
C35	C	0.243856	0.030418	-0.000117
C36	C	0.743856	0.530418	0.499883
C37	C	0.164908	0.029160	-0.000120
C38	C	0.664908	0.529160	0.499880
C39	C	0.146608	0.167090	-0.000105
C40	C	0.646608	0.667090	0.499895
C41	C	0.225550	0.168353	-0.000100
C42	C	0.725550	0.668353	0.499900
C43	C	0.274170	0.100015	-0.000112
C44	C	0.774170	0.600015	0.499888
C45	C	0.359769	0.101384	-0.000102
C46	C	0.859769	0.601384	0.499898
C47	C	0.427995	0.102481	-0.000093
C48	C	0.927995	0.602481	0.499907
C49	C	0.899662	-0.036451	-0.000109
C50	C	1.399662	0.463549	0.499891
C51	C	0.898323	-0.120469	-0.000109
C52	C	1.398323	0.379531	0.499891
C53	C	0.966656	-0.169090	-0.000119
C54	C	1.466656	0.330910	0.499881
C55	C	0.965394	-0.248033	-0.000111
C56	C	1.465394	0.251967	0.499889
C57	C	0.895798	-0.278354	-0.000100
C58	C	1.395798	0.221646	0.499900
C59	C	0.827459	-0.229727	-0.000088
C60	C	1.327459	0.270273	0.499912
C61	C	0.828722	-0.150785	-0.000089
C62	C	1.328722	0.349215	0.499911
C63	C	0.822364	-0.548090	-0.000080
C64	C	1.322364	-0.048090	0.499920
C65	C	0.821106	-0.627038	-0.000081
C66	C	1.321106	-0.127038	0.499919
C67	C	0.959036	-0.645338	-0.000102
C68	C	1.459036	-0.145338	0.499898
C69	C	0.960299	-0.566396	-0.000104
C70	C	1.460299	-0.066396	0.499896
C71	C	0.891961	-0.517776	-0.000087
C72	C	1.391961	-0.017776	0.499913
C73	C	0.893330	-0.432177	-0.000094
C74	C	1.393330	0.067823	0.499906
C75	C	0.894427	-0.363951	-0.000099
C76	C	1.394427	0.136049	0.499901
C77	C	1.032268	0.096156	-0.000116
C78	C	1.532268	0.596156	0.499884
C79	C	1.116286	0.097494	-0.000121
C80	C	1.616286	0.597494	0.499879
C81	C	0.888102	0.240322	-0.000091
C82	C	1.388102	0.740322	0.499909
C83	C	0.889440	0.324340	-0.000085
C84	C	1.389440	0.824340	0.499915
N85	N	0.893868	0.101935	-0.195767
N86	N	1.393868	0.601935	0.304233
C87	C	0.939683	0.147783	-0.239030
C88	C	1.439683	0.647783	0.260970
C89	C	0.939691	0.147781	-0.325577
C90	C	1.439691	0.647781	0.174423
C91	C	0.893879	0.101933	-0.368859
C92	C	1.393879	0.601933	0.131141
C93	C	0.848063	0.056079	-0.325590
C94	C	1.348063	0.556079	0.174410
C95	C	0.848059	0.056078	-0.239045
C96	C	1.348059	0.556078	0.260955
C97	C	0.848077	0.056080	-0.674618
C98	C	1.348077	0.556080	-0.174618
C99	C	0.848082	0.056085	-0.761170
C100	C	1.348082	0.556085	-0.261170
C101	C	0.939708	0.147782	-0.761151
C102	C	1.439708	0.647782	-0.261151
C103	C	0.939705	0.147781	-0.674605
C104	C	1.439705	0.647781	-0.174605
C105	C	0.893891	0.101925	-0.631344
C106	C	1.393891	0.601925	-0.131344
C107	C	0.893884	0.101927	-0.537499
C108	C	1.393884	0.601927	-0.037499
C109	C	0.893882	0.101933	-0.462702
C110	C	1.393882	0.601933	0.037298
N111	N	0.893902	0.101931	0.195565
N112	N	1.393902	0.601931	0.695565
H113	H	0.283434	-0.025228	-0.000127
H114	H	0.783434	0.474772	0.499873
H115	H	0.976983	0.185123	-0.203795
H116	H	1.476983	0.685123	0.296205
N117	N	0.798646	0.006629	-0.372265
N118	N	1.298646	0.506629	0.127735
H119	H	0.813680	-0.048459	-0.357210
H120	H	1.313680	0.451541	0.142790
H121	H	0.805615	0.013650	-0.433642
H122	H	1.305615	0.513650	0.066358
H123	H	0.647537	0.231384	-0.000060
H124	H	1.147537	0.731384	0.499940
H125	H	0.504328	0.229092	-0.000075
H126	H	1.004328	0.729092	0.499925
N127	N	1.035364	-0.533696	-0.000109
N128	N	1.535364	-0.033696	0.499891
H129	H	1.025795	-0.476308	-0.000109
H130	H	1.525795	0.023692	0.499891
H131	H	1.065257	-0.551494	-0.051082
H132	H	1.565257	-0.051494	0.448918
H133	H	0.810773	0.018740	-0.639405
H134	H	1.310773	0.518740	-0.139405
H135	H	0.140225	-0.027517	-0.000128
H136	H	0.640225	0.472483	0.499872
N137	N	1.041722	-0.136389	-0.000138
N138	N	1.541722	0.363611	0.499862
H139	H	1.084819	-0.179172	-0.000142
H140	H	1.584819	0.320828	0.499858
H141	H	1.045257	-0.104030	0.050830
H142	H	1.545257	0.395970	0.550830
H143	H	0.250232	0.225025	-0.000089
H144	H	0.750232	0.725025	0.499911
H145	H	0.770792	-0.254420	-0.000073
H146	H	1.270792	0.245580	0.499927
H147	H	1.021038	-0.287618	-0.000121
H148	H	1.521038	0.212382	0.499879
N149	N	0.746033	-0.659734	-0.000062
N150	N	1.246033	-0.159734	0.499938
H151	H	0.742446	-0.692079	0.050906
H152	H	1.242446	-0.192079	0.550906
H153	H	0.742470	-0.692042	-0.051065
H154	H	1.242470	-0.192042	0.448935
H155	H	0.107012	0.222734	-0.000100
H156	H	0.607012	0.722734	0.499900
H157	H	1.014680	-0.684934	-0.000111
H158	H	1.514680	-0.184934	0.499889
H159	H	0.766718	-0.508512	-0.000067
H160	H	1.266718	-0.008512	0.499933
N161	N	0.989142	0.197194	-0.372240
N162	N	1.489142	0.697194	0.127760
H163	H	1.018171	0.226230	-0.331688
H164	H	1.518171	0.726230	0.168312
H165	H	0.956109	0.234244	-0.408170
H166	H	1.456109	0.734244	0.091830
H167	H	0.977006	0.185118	-0.639369
H168	H	1.477006	0.685118	-0.139369
N169	N	0.755020	-0.098340	-0.000074
N170	N	1.255020	0.401660	0.499926
H171	H	0.710739	-0.129525	-0.000068
H172	H	1.210739	0.370475	0.499932
H173	H	0.752532	-0.065189	-0.051043
H174	H	1.252532	0.434811	0.448957
N175	N	0.529521	-0.039553	-0.000120
N176	N	1.029521	0.460447	0.499880
H177	H	0.472134	-0.029986	-0.000122
H178	H	0.972134	0.470014	0.499878
H179	H	0.547314	-0.069454	0.050845
H180	H	1.047314	0.430546	0.550845
H181	H	0.977014	0.185119	-0.796385
H182	H	1.477014	0.685119	-0.296385
H183	H	0.810775	0.018748	-0.796408
H184	H	1.310775	0.518748	-0.296408
H185	H	0.810752	0.018743	-0.203821
H186	H	1.310752	0.518743	0.296179
H187	H	0.680748	-0.018868	-0.000095
H188	H	1.180748	0.481132	0.499905
