data_functionalizedCrystal
_audit_creation_method	'MofGen! by Chris Wilmer'
_symmetry_space_group_name_H-M	'P1'
_symmetry_Int_Tables_number	1
_symmetry_cell_setting	triclinic
loop_
_symmetry_equiv_pos_as_xyz
  x,y,z
_cell_length_a	16.109301
_cell_length_b	10.654550
_cell_length_c	14.586319
_cell_angle_alpha	89.997374
_cell_angle_beta	89.999213
_cell_angle_gamma	83.973192
loop_
_atom_site_label
_atom_site_type_symbol
_atom_site_fract_x
_atom_site_fract_y
_atom_site_fract_z
O1	O	1.104091	0.161419	-0.076180
O2	O	0.862148	0.181507	-0.076194
O3	O	0.988682	-0.011352	-0.076183
O4	O	0.977557	0.354278	-0.076191
O5	O	0.988673	-0.011354	0.076297
O6	O	0.862139	0.181504	0.076287
O7	O	1.104082	0.161416	0.076301
Cu8	Cu	0.983110	0.171460	0.090216
Cu9	Cu	0.983120	0.171463	-0.090110
O10	O	0.977548	0.354275	0.076290
C11	C	0.831164	0.180692	0.000044
C12	C	0.738854	0.178253	0.000039
C13	C	0.517228	0.287019	0.000047
C14	C	0.430494	0.284717	0.000053
C15	C	0.449008	0.055896	0.000054
C16	C	0.535741	0.058199	0.000055
C17	C	0.569848	0.173764	0.000047
C18	C	0.396382	0.169159	0.000052
C19	C	0.302341	0.166662	0.000058
C20	C	0.663895	0.176262	0.000042
C21	C	0.987861	-0.058140	0.000056
C22	C	0.985417	-0.197550	0.000053
C23	C	1.059918	-0.278046	0.000060
C24	C	1.057616	-0.409036	0.000053
C25	C	0.906306	-0.379020	0.000036
C26	C	0.908608	-0.248033	0.000036
C27	C	1.136726	-0.227564	0.000076
C28	C	1.211233	-0.308061	0.000084
C29	C	1.208932	-0.439051	0.000078
C30	C	1.132123	-0.489543	0.000063
C31	C	1.135066	0.162231	0.000060
C32	C	1.227376	0.164671	0.000060
C33	C	0.978369	0.401063	0.000049
C34	C	0.980813	0.540473	0.000046
N35	N	0.983108	0.171457	0.217048
N36	N	0.983128	0.171457	-0.216942
C37	C	1.039156	0.086088	0.452059
C38	C	1.039159	0.086084	0.548041
C39	C	0.927074	0.256830	0.548040
C40	C	0.927068	0.256826	0.452061
C41	C	0.983114	0.171456	0.404073
C42	C	0.983122	0.171457	0.596034
C43	C	0.983124	0.171455	0.700101
C44	C	0.983111	0.171457	0.299999
H45	H	0.544995	0.381119	0.000048
N46	N	1.289291	-0.525866	0.000087
H47	H	1.291701	-0.580887	0.056611
H48	H	1.291673	-0.580796	-0.056476
N49	N	0.412211	-0.068737	0.000063
H50	H	0.376639	-0.074790	-0.056462
H51	H	0.458751	-0.140066	0.000102
H52	H	0.881444	0.326338	0.587122
H53	H	0.387654	0.376940	0.000056
N54	N	0.828256	-0.161201	0.000023
H55	H	0.779249	-0.213055	0.000019
H56	H	0.825911	-0.106199	0.056548
N57	N	0.592503	-0.063959	0.000065
H58	H	0.557736	-0.137518	0.000065
H59	H	0.628897	-0.067987	-0.056459
N60	N	1.139208	-0.086284	0.000083
H61	H	1.199168	-0.066515	0.000093
H62	H	1.110027	-0.048930	-0.056449
H63	H	1.084791	0.016573	0.412990
N64	N	0.866612	0.348904	0.400304
H65	H	0.876697	0.438043	0.416997
H66	H	0.875137	0.335835	0.332236
N67	N	1.294073	-0.253611	0.000099
H68	H	1.284229	-0.158417	0.000107
H69	H	1.326697	-0.283073	0.056631
N70	N	1.099616	-0.005974	0.599799
H71	H	1.135121	-0.060045	0.554831
H72	H	1.136640	0.042144	0.639609
N73	N	1.129630	-0.630822	0.000051
H74	H	1.158781	-0.668261	-0.056473
H75	H	1.158758	-0.668174	0.056613
N76	N	0.823467	-0.433473	0.000023
H77	H	0.833314	-0.528668	0.000026
H78	H	0.790829	-0.404026	0.056547
