data_functionalizedCrystal
_audit_creation_method	'MofGen! by Chris Wilmer'
_symmetry_space_group_name_H-M	'P1'
_symmetry_Int_Tables_number	1
_symmetry_cell_setting	triclinic
loop_
_symmetry_equiv_pos_as_xyz
  x,y,z
_cell_length_a	18.100771
_cell_length_b	18.101398
_cell_length_c	12.759393
_cell_angle_alpha	90.013487
_cell_angle_beta	90.278589
_cell_angle_gamma	89.693566
loop_
_atom_site_label
_atom_site_type_symbol
_atom_site_fract_x
_atom_site_fract_y
_atom_site_fract_z
Zn1	Zn	0.294899	1.130709	0.596067
Zn2	Zn	0.418766	1.129992	0.421335
Zn3	Zn	0.294926	1.006859	0.420426
Zn4	Zn	0.418702	1.006214	0.596995
O5	O	0.356823	1.068444	0.508706
O6	O	0.311347	1.234246	0.572881
O7	O	0.402377	1.113628	0.274194
O8	O	0.191283	1.023858	0.442956
O9	O	0.402351	1.233720	0.444506
O10	O	0.191264	1.114850	0.571999
O11	O	0.311392	1.023163	0.273526
O12	O	0.311329	0.903141	0.443855
O13	O	0.402241	1.022758	0.743893
O14	O	0.402266	0.902667	0.573580
O15	O	0.311284	1.114224	0.743211
O16	O	0.522397	1.113002	0.445406
O17	O	0.522349	1.022063	0.574462
C18	C	0.356794	0.876033	0.508720
C19	C	0.356800	0.793719	0.508751
C20	C	0.356843	0.494628	0.508708
C21	C	0.414335	0.525678	0.589929
C22	C	0.414155	0.611297	0.590259
C23	C	0.356822	0.643010	0.508730
C24	C	0.278813	0.612338	0.538383
C25	C	0.279158	0.526692	0.538960
C26	C	0.376672	0.526073	0.397634
C27	C	0.378384	0.611715	0.398241
C28	C	0.356806	0.726870	0.508740
C29	C	0.356855	0.410768	0.508700
C30	C	0.163650	1.069506	0.507273
C31	C	0.081331	1.069959	0.506662
C32	C	-0.217738	1.068010	0.509421
C33	C	-0.186423	1.125267	0.590596
C34	C	-0.100816	1.126050	0.589568
C35	C	-0.069367	1.068977	0.508053
C36	C	-0.101583	1.089944	0.397635
C37	C	-0.187223	1.089801	0.398896
C38	C	-0.185025	0.989852	0.537402
C39	C	-0.099366	0.990823	0.539057
C40	C	0.014487	1.069522	0.507273
C41	C	-0.301591	1.067467	0.510193
C42	C	0.549246	1.067405	0.510156
C43	C	0.631565	1.067029	0.510812
C44	C	0.356752	1.068499	0.782739
C45	C	0.356722	1.068523	0.899515
C46	C	0.356853	1.261605	0.508692
C47	C	0.356866	1.343919	0.508686
C48	C	0.356841	1.068431	0.235739
C49	C	0.356662	1.068552	0.118961
C50	C	0.309353	1.116153	0.954024
C51	C	0.309321	1.116166	1.063748
C52	C	0.404033	1.020917	1.064445
C53	C	0.404061	1.020901	0.954723
C54	C	0.221944	1.143129	1.213053
C55	C	0.174581	1.190771	1.267565
C56	C	0.163232	1.263089	1.231874
C57	C	0.199256	1.287781	1.141671
C58	C	0.246624	1.240143	1.087164
C59	C	0.257959	1.167815	1.122854
C60	C	0.491439	0.993945	0.805416
C61	C	0.538812	0.946310	0.750907
C62	C	0.550168	0.873991	0.786597
C63	C	0.514158	0.849302	0.876803
C64	C	0.466785	0.896936	0.931311
C65	C	0.455427	0.969255	0.895614
H66	H	0.472372	0.504779	0.571626
N67	N	0.397663	0.637104	0.693507
N68	N	0.342032	0.676830	0.708639
H69	H	0.330377	0.695053	0.781562
N70	N	-0.076071	1.039607	0.319183
N71	N	-0.039582	1.062905	0.243238
H72	H	-0.021563	1.027354	0.187831
N73	N	0.452374	0.972268	1.120850
N74	N	0.426281	0.925235	1.181880
H75	H	0.460421	0.890875	1.221719
H76	H	0.234816	0.632915	0.481045
H77	H	0.261692	0.633890	0.618679
H78	H	-0.080998	1.146739	0.373056
N79	N	-0.073456	1.109573	0.692308
N80	N	-0.088989	1.049427	0.734732
H81	H	-0.069680	1.037784	0.807300
N82	N	0.398099	0.498787	0.692600
N83	N	0.444944	0.461043	0.741407
H84	H	0.433477	0.442049	0.813919
H85	H	-0.078211	0.974992	0.620338
H86	H	0.234787	0.506184	0.482481
N87	N	0.479838	1.067826	0.768981
N88	N	0.437543	1.110349	0.817659
H89	H	0.429353	1.162529	0.791930
H90	H	-0.208769	1.182859	0.572309
N91	N	0.486722	0.637284	0.567022
N92	N	0.516478	0.620564	0.481996
H93	H	0.567733	0.638913	0.465587
N94	N	0.258074	0.501767	0.640812
N95	N	0.295706	0.519262	0.719288
H96	H	0.280817	0.501663	0.791226
N97	N	0.446805	0.498597	0.363680
N98	N	0.483028	0.455500	0.420942
H99	H	0.532561	0.436092	0.396972
N100	N	0.283429	1.265345	0.995033
N101	N	0.352433	1.265644	0.991766
H102	H	0.378424	1.283443	0.926692
N103	N	-0.211047	0.965508	0.637177
N104	N	-0.254024	1.005473	0.688879
H105	H	-0.272403	0.988287	0.759349
N106	N	0.575595	0.971541	0.658768
N107	N	0.565445	1.036113	0.626902
H108	H	0.591420	1.053932	0.561827
H109	H	0.435787	0.631738	0.375865
H110	H	0.145251	1.170660	1.341008
N111	N	0.329667	0.638802	0.318314
N112	N	0.278029	0.681801	0.341587
H113	H	0.243618	0.700933	0.285140
H114	H	0.334796	0.506017	0.337124
H115	H	-0.206200	1.112036	0.673134
N116	N	0.187666	1.361662	1.105241
N117	N	0.145374	1.404188	1.153919
H118	H	0.137187	1.456368	1.128189
N119	N	-0.213264	1.039799	0.320356
N120	N	-0.253657	1.062900	0.247562
H121	H	-0.272042	1.027596	0.192078
H122	H	0.124668	1.301879	1.276266
N123	N	-0.213376	1.161499	0.369091
N124	N	-0.252364	1.198336	0.430786
H125	H	-0.270833	1.248975	0.409736
H126	H	-0.081162	1.184244	0.570664
H127	H	0.231174	1.084240	1.242116
N128	N	0.430008	0.871708	1.023457
N129	N	0.440154	0.807135	1.055320
H130	H	0.414181	0.789318	1.120397
N131	N	0.598556	0.825340	0.730901
N132	N	0.585386	0.809665	0.637267
H133	H	0.619557	0.775304	0.597932
N134	N	-0.072416	0.934822	0.469802
N135	N	-0.030476	0.951675	0.396134
H136	H	-0.011441	0.912126	0.347214
N137	N	-0.210420	0.936366	0.463198
N138	N	-0.252425	0.955624	0.389995
H139	H	-0.270365	0.917855	0.337586
N140	N	0.260994	1.164800	0.897646
N141	N	0.218703	1.207321	0.946334
H142	H	0.184547	1.241679	0.906521
N143	N	0.525767	0.775428	0.913256
N144	N	0.568063	0.732905	0.864579
H145	H	0.576266	0.680730	0.890323
