data_functionalizedCrystal
_audit_creation_method	'MofGen! by Chris Wilmer'
_symmetry_space_group_name_H-M	'P1'
_symmetry_Int_Tables_number	1
_symmetry_cell_setting	triclinic
loop_
_symmetry_equiv_pos_as_xyz
  x,y,z
_cell_length_a	8.497374
_cell_length_b	12.827893
_cell_length_c	12.827892
_cell_angle_alpha	89.984638
_cell_angle_beta	89.992687
_cell_angle_gamma	90.001575
loop_
_atom_site_label
_atom_site_type_symbol
_atom_site_fract_x
_atom_site_fract_y
_atom_site_fract_z
Zn1	Zn	0.891962	1.597487	0.416215
Zn2	Zn	0.628170	1.597435	0.590924
Zn3	Zn	0.628190	1.422782	0.416197
Zn4	Zn	0.891902	1.422714	0.590915
O5	O	0.760056	1.510105	0.503563
O6	O	0.856986	1.743716	0.439402
O7	O	0.407411	1.574274	0.567742
O8	O	0.663214	1.446008	0.269964
O9	O	0.663179	1.743678	0.567760
O10	O	0.857006	1.574363	0.269977
O11	O	0.407425	1.445958	0.439372
O12	O	0.663156	1.276537	0.439363
O13	O	1.112673	1.445891	0.567744
O14	O	0.856904	1.276487	0.567727
O15	O	1.112717	1.574296	0.439393
O16	O	0.663121	1.574207	0.737159
O17	O	0.856884	1.445840	0.737152
C18	C	0.760026	1.238595	0.503543
C19	C	0.760051	1.122442	0.503559
C20	C	0.855776	1.070659	0.567177
C21	C	0.855803	0.950609	0.567195
C22	C	0.760028	1.510039	0.775073
C23	C	0.760069	1.510107	0.891226
C24	C	1.171537	1.510097	0.503564
C25	C	1.350181	1.510099	0.503575
C26	C	0.760087	1.782675	0.503584
C27	C	0.760101	1.898828	0.503593
C28	C	0.760119	1.510199	0.230993
C29	C	0.760145	1.510239	0.114839
C30	C	0.664296	1.573702	0.942979
C31	C	0.664336	1.573774	1.063030
H32	H	0.937752	0.906078	0.621664
H33	H	0.678137	0.943352	0.449128
O34	O	0.662072	1.069431	0.438646
C35	C	0.504742	1.095991	0.461317
H36	H	0.501255	1.175258	0.501407
H37	H	0.434185	1.099622	0.385823
H38	H	0.451565	1.034571	0.515052
O39	O	0.566267	1.638446	0.889771
C40	C	0.464392	1.578913	0.826688
H41	H	0.454502	1.496663	0.859720
H42	H	0.343035	1.616774	0.825334
H43	H	0.513254	1.575160	0.744002
O44	O	0.566706	1.638729	1.116278
C45	C	0.588497	1.624351	1.224287
H46	H	0.710198	1.590008	1.239080
H47	H	0.578055	1.702633	1.265761
H48	H	0.494861	1.568788	1.255359
H49	H	0.842139	1.455785	1.070340
O50	O	0.953452	1.123674	0.632285
C51	C	0.918725	1.097085	0.736432
H52	H	0.858196	1.017805	0.738621
H53	H	1.032467	1.093468	0.783412
H54	H	0.837434	1.158481	0.771480
H55	H	0.842100	1.455718	0.935794
