data_functionalizedCrystal
_audit_creation_method	'MofGen! by Chris Wilmer'
_symmetry_space_group_name_H-M	'P1'
_symmetry_Int_Tables_number	1
_symmetry_cell_setting	triclinic
loop_
_symmetry_equiv_pos_as_xyz
  x,y,z
_cell_length_a	17.699083
_cell_length_b	16.176319
_cell_length_c	17.699083
_cell_angle_alpha	90.007696
_cell_angle_beta	83.283015
_cell_angle_gamma	90.001389
loop_
_atom_site_label
_atom_site_type_symbol
_atom_site_fract_x
_atom_site_fract_y
_atom_site_fract_z
O1	O	-1.004079	-0.068632	-0.095713
O2	O	-0.783700	-0.068660	-0.108166
O3	O	-0.900116	-0.068638	0.008250
O4	O	-0.887663	-0.068654	-0.212129
O5	O	-0.900100	0.068855	0.008257
O6	O	-0.783684	0.068834	-0.108158
O7	O	-1.004063	0.068861	-0.095706
Cu8	Cu	-0.893872	0.081401	-0.101931
Cu9	Cu	-0.893891	-0.081200	-0.101940
O10	O	-0.887647	0.068839	-0.212121
C11	C	-0.755495	0.000084	-0.107716
C12	C	-0.671477	0.000073	-0.106377
N13	N	-0.893864	0.195767	-0.101925
N14	N	-0.893905	-0.195565	-0.101941
C15	C	-1.032268	0.000116	-0.096156
C16	C	-1.116286	0.000121	-0.097494
C17	C	-0.622856	0.000069	-0.174710
C18	C	-0.543913	0.000079	-0.173448
C19	C	-0.513592	0.000089	-0.103852
C20	C	-0.562219	0.000096	-0.035513
C21	C	-0.641161	0.000091	-0.036776
C22	C	-0.243856	0.000117	-0.030418
C23	C	-0.164908	0.000120	-0.029160
C24	C	-0.146608	0.000105	-0.167090
C25	C	-0.225550	0.000100	-0.168353
C26	C	-0.274170	0.000112	-0.100015
C27	C	-0.359769	0.000102	-0.101384
C28	C	-0.427995	0.000093	-0.102481
C29	C	-0.899662	0.000109	0.036451
C30	C	-0.898323	0.000109	0.120469
C31	C	-0.945429	0.239040	-0.050397
C32	C	-0.945432	0.325588	-0.050396
C33	C	-0.893875	0.368859	-0.101927
C34	C	-0.842305	0.325579	-0.153457
C35	C	-0.842299	0.239034	-0.153454
C36	C	-0.842331	0.674608	-0.153472
C37	C	-0.842344	0.761159	-0.153473
C38	C	-0.945465	0.761161	-0.050414
C39	C	-0.945458	0.674616	-0.050410
C40	C	-0.893886	0.631344	-0.101937
C41	C	-0.893882	0.537499	-0.101937
C42	C	-0.893883	0.462702	-0.101932
C43	C	-0.888102	0.000091	-0.240322
C44	C	-0.889440	0.000085	-0.324340
C45	C	-0.966656	0.000119	0.169090
C46	C	-0.965394	0.000111	0.248033
C47	C	-0.895798	0.000100	0.278354
C48	C	-0.827459	0.000088	0.229727
C49	C	-0.828722	0.000089	0.150785
C50	C	-0.822364	0.000080	0.548090
C51	C	-0.821106	0.000081	0.627038
C52	C	-0.959036	0.000102	0.645338
C53	C	-0.960299	0.000104	0.566396
C54	C	-0.891961	0.000087	0.517776
C55	C	-0.893330	0.000094	0.432177
C56	C	-0.894427	0.000099	0.363951
H57	H	-0.647537	0.000060	-0.231384
Br58	Br	-0.733005	0.000059	0.270875
Br59	Br	-0.772369	0.819886	-0.223413
H60	H	-0.504328	0.000075	-0.229092
Br61	Br	-0.266696	0.000079	-0.262808
Br62	Br	-1.015409	0.180324	0.019537
H63	H	-0.800309	0.203801	-0.195412
Br64	Br	-1.061114	0.000146	0.127948
Br65	Br	-1.015411	0.384319	0.019538
H66	H	-0.800341	0.639382	-0.195428
Br67	Br	-1.015435	0.615892	0.019522
H68	H	-0.987456	0.796403	-0.008455
Br69	Br	-1.058137	0.000124	0.314016
Br70	Br	-0.729619	0.000053	0.482115
H71	H	-0.107012	0.000100	-0.222734
Br72	Br	-1.054754	0.000118	0.525250
H73	H	-0.764429	0.000074	0.651721
Br74	Br	-1.051783	0.000124	0.711327
Br75	Br	-0.772327	0.384302	-0.223389
H76	H	-0.773078	0.000081	0.111198
H77	H	-0.140225	0.000128	0.027517
H78	H	-0.283434	0.000127	0.025228
Br79	Br	-0.707148	0.000105	0.055966
Br80	Br	-0.521071	0.000118	0.058941
