data_functionalizedCrystal
_audit_creation_method	'MofGen! by Chris Wilmer'
_symmetry_space_group_name_H-M	'P1'
_symmetry_Int_Tables_number	1
_symmetry_cell_setting	triclinic
loop_
_symmetry_equiv_pos_as_xyz
  x,y,z
_cell_length_a	10.685980
_cell_length_b	16.625546
_cell_length_c	10.685880
_cell_angle_alpha	94.335175
_cell_angle_beta	80.918858
_cell_angle_gamma	94.388851
loop_
_atom_site_label
_atom_site_type_symbol
_atom_site_fract_x
_atom_site_fract_y
_atom_site_fract_z
Zn1	Zn	1.995681	-0.265671	-0.866636
Zn2	Zn	1.979243	-0.390938	-0.654362
Zn3	Zn	1.767121	-0.265714	-0.638108
Zn4	Zn	1.783352	-0.410061	-0.850263
O5	O	1.881349	-0.333096	-0.752342
O6	O	2.171135	-0.274267	-0.852132
O7	O	1.937433	-0.366342	-0.474581
O8	O	1.797526	-0.152874	-0.668473
O9	O	2.159058	-0.366300	-0.696175
O10	O	1.965448	-0.152843	-0.836371
O11	O	1.781588	-0.274340	-0.462640
O12	O	1.591639	-0.292883	-0.652597
O13	O	1.825189	-0.398893	-1.030059
O14	O	1.603564	-0.398934	-0.808466
O15	O	1.981187	-0.292810	-1.042089
O16	O	1.953171	-0.506309	-0.680299
O17	O	1.809250	-0.520359	-0.824226
C18	C	1.551543	-0.347989	-0.726991
C19	C	1.410453	-0.354381	-0.716176
C20	C	1.881225	-0.542590	-0.752280
C21	C	1.881291	-0.632209	-0.752305
C22	C	1.881523	-0.960381	-0.752454
C23	C	1.881455	-0.869074	-0.752416
C24	C	1.881406	-0.796298	-0.752378
C25	C	1.881340	-0.704985	-0.752342
C26	C	2.212443	-0.318146	-0.777793
C27	C	2.353535	-0.311775	-0.788638
C28	C	1.906832	-0.347980	-1.083418
C29	C	1.917691	-0.354322	-1.224503
C30	C	1.881511	-0.122784	-0.752435
C31	C	1.881579	-0.033161	-0.752475
C32	C	1.856038	-0.318209	-0.422560
C33	C	1.845425	-0.311628	-0.281495
H34	H	1.351237	-0.395749	-0.645854
H35	H	1.775237	-0.270227	-1.222354
H36	H	1.987878	-0.395730	-1.283650
H37	H	1.412744	-0.270404	-0.858948
