data_functionalizedCrystal
_audit_creation_method	'MofGen! by Chris Wilmer'
_symmetry_space_group_name_H-M	'P1'
_symmetry_Int_Tables_number	1
_symmetry_cell_setting	triclinic
loop_
_symmetry_equiv_pos_as_xyz
  x,y,z
_cell_length_a	14.519710
_cell_length_b	10.654541
_cell_length_c	9.130307
_cell_angle_alpha	90.002621
_cell_angle_beta	89.999276
_cell_angle_gamma	95.917963
loop_
_atom_site_label
_atom_site_type_symbol
_atom_site_fract_x
_atom_site_fract_y
_atom_site_fract_z
O1	O	1.224716	-0.164620	-0.121767
O2	O	0.956340	-0.184007	-0.121777
O3	O	1.096700	0.008485	-0.121763
O4	O	1.084357	-0.357113	-0.121781
O5	O	1.096695	0.008485	0.121836
O6	O	0.956335	-0.184007	0.121822
O7	O	1.224711	-0.164620	0.121832
Cu8	Cu	1.090523	-0.174314	0.144070
Cu9	Cu	1.090529	-0.174314	-0.144014
O10	O	1.084351	-0.357112	0.121818
C11	C	0.921973	-0.183103	0.000022
C12	C	0.819578	-0.180396	0.000018
C13	C	1.259078	-0.165524	0.000031
C14	C	1.361474	-0.168231	0.000025
C15	C	1.095791	0.055275	0.000036
C16	C	1.093081	0.194692	0.000034
C17	C	1.736421	-0.178198	0.000023
C18	C	1.632099	-0.175431	0.000023
C19	C	1.548951	-0.173215	0.000023
C20	C	1.444622	-0.170447	0.000025
C21	C	1.085260	-0.403902	0.000016
C22	C	1.087970	-0.543319	0.000009
N23	N	1.090525	-0.174313	0.346693
C24	C	1.260920	0.224277	0.000058
C25	C	1.343562	0.304566	0.000074
C26	C	1.341010	0.435559	0.000069
C27	C	1.255806	0.486265	0.000045
C28	C	1.173164	0.405976	0.000029
C29	C	1.175725	0.274981	0.000038
C30	C	1.005328	0.376392	-0.000006
C31	C	1.007878	0.245398	0.000009
C32	C	0.920124	0.427098	-0.000030
C33	C	0.837480	0.346809	-0.000035
C34	C	0.840036	0.215808	-0.000029
C35	C	0.925236	0.165109	-0.000006
C36	C	1.214865	-0.003910	0.346695
C37	C	1.277041	0.081287	0.423363
C38	C	1.277050	0.081287	0.576697
C39	C	1.214874	-0.003917	0.653366
C40	C	1.152698	-0.089114	0.576698
C41	C	1.152698	-0.089107	0.423361
C42	C	1.028355	-0.259509	0.576695
C43	C	1.028349	-0.259517	0.423362
C44	C	0.966180	-0.344713	0.653364
C45	C	0.904007	-0.429918	0.576696
C46	C	0.904001	-0.429915	0.423353
C47	C	0.966174	-0.344714	0.346694
N48	N	1.090531	-0.174312	0.653363
H49	H	1.263006	0.117616	0.000082
N50	N	0.966188	-0.344728	0.818744
H51	H	0.903421	-0.326258	0.855693
H52	H	1.015053	-0.277841	0.855566
N53	N	0.966172	-0.344717	0.181314
H54	H	1.014992	-0.277815	0.144384
H55	H	0.903368	-0.326284	0.144503
H56	H	0.772738	0.150442	-0.000048
H57	H	0.768114	0.388105	-0.000064
H58	H	1.412933	0.263266	0.000106
H59	H	1.408304	0.500931	0.000070
N60	N	1.344113	0.173166	0.659401
H61	H	1.308527	0.228881	0.723033
H62	H	1.383484	0.227058	0.587482
H63	H	0.927325	0.058449	0.000008
H64	H	1.253736	0.592928	0.000023
N65	N	1.214853	-0.003929	0.181315
H66	H	1.277621	-0.022405	0.144372
H67	H	1.200864	0.081455	0.144495
N68	N	1.344078	0.173212	0.340673
H69	H	1.334636	0.160296	0.231903
H70	H	1.409598	0.158522	0.367450
H71	H	1.214878	-0.003902	0.778218
N72	N	0.836946	-0.521798	0.659384
H73	H	0.846381	-0.508863	0.768152
H74	H	0.848157	-0.610928	0.632587
N75	N	0.836930	-0.521805	0.340676
H76	H	0.848107	-0.610973	0.367356
H77	H	0.846387	-0.508774	0.231931
H78	H	0.918052	0.533761	-0.000043
