data_functionalizedCrystal
_audit_creation_method	'MofGen! by Chris Wilmer'
_symmetry_space_group_name_H-M	'P1'
_symmetry_Int_Tables_number	1
_symmetry_cell_setting	triclinic
loop_
_symmetry_equiv_pos_as_xyz
  x,y,z
_cell_length_a	17.038272
_cell_length_b	27.732048
_cell_length_c	16.098538
_cell_angle_alpha	92.695138
_cell_angle_beta	87.069734
_cell_angle_gamma	86.877106
loop_
_atom_site_label
_atom_site_type_symbol
_atom_site_fract_x
_atom_site_fract_y
_atom_site_fract_z
O1	O	1.039664	0.102899	-0.069167
O2	O	0.812054	0.101233	-0.069192
O3	O	0.932928	0.031993	-0.069163
O4	O	0.918791	0.172139	-0.069196
O5	O	0.925867	0.036021	0.069348
O6	O	0.804994	0.105261	0.069320
O7	O	1.032604	0.106927	0.069344
Zn8	Zn	0.917678	0.106733	0.091323
Zn9	Zn	0.926980	0.101427	-0.091171
O10	O	0.911730	0.176167	0.069315
C11	C	0.779414	0.101731	0.000061
C12	C	0.692674	0.097211	0.000053
C13	C	0.929100	0.015987	0.000095
C14	C	0.928206	-0.037709	0.000102
C15	C	0.642076	0.138713	0.000043
C16	C	0.560575	0.134463	0.000056
C17	C	0.529672	0.088710	0.000072
C18	C	0.580276	0.047205	0.000083
C19	C	0.661776	0.051455	0.000077
C20	C	0.284088	0.073694	0.000098
C21	C	0.202582	0.069446	0.000102
C22	C	0.182886	0.156706	0.000076
C23	C	0.264389	0.160952	0.000064
C24	C	0.314985	0.119446	0.000080
C25	C	0.446365	0.084365	0.000082
C26	C	0.398290	0.123792	0.000076
C27	C	0.994011	-0.373515	0.000066
C28	C	0.990696	-0.575327	0.000054
O29	O	1.050870	-0.603831	0.000024
N30	N	0.919023	-0.597729	0.000047
C31	C	0.848173	-0.569676	0.000038
O32	O	0.787135	-0.593361	0.000023
C33	C	0.851490	-0.367865	0.000044
C34	C	0.923167	-0.345465	0.000059
C35	C	1.065683	-0.351115	0.000080
C36	C	1.066511	-0.300665	0.000088
C37	C	0.995667	-0.272615	0.000081
C38	C	0.923995	-0.295015	0.000067
C39	C	0.780641	-0.339813	0.000029
C40	C	0.781477	-0.289357	0.000028
C41	C	0.853155	-0.266957	0.000043
C42	C	0.853979	-0.216515	0.000067
N43	N	0.925652	-0.194113	0.000074
C44	C	0.996496	-0.222163	0.000081
C45	C	0.846437	-0.675629	0.000036
C46	C	0.845608	-0.726081	0.000036
C47	C	0.988131	-0.731729	0.000051
C48	C	0.988959	-0.681276	0.000057
C49	C	0.918111	-0.653227	0.000043
C50	C	0.998229	-0.116214	0.000098
C51	C	0.999051	-0.065759	0.000109
C52	C	0.856528	-0.060116	0.000090
C53	C	0.855706	-0.110566	0.000083
C54	C	0.926563	-0.138614	0.000084
O55	O	0.793838	-0.187981	0.000088
O56	O	1.057527	-0.198469	0.000077
C57	C	0.993184	-0.423965	0.000059
C58	C	0.921512	-0.446365	0.000044
C59	C	0.850668	-0.418315	0.000037
C60	C	0.920682	-0.496818	0.000044
C61	C	0.991526	-0.524868	0.000051
C62	C	1.063200	-0.502465	0.000058
C63	C	1.064028	-0.452015	0.000065
C64	C	0.778994	-0.440718	0.000030
C65	C	0.778172	-0.491168	0.000024
C66	C	0.849016	-0.519218	0.000031
C67	C	1.065245	0.106428	0.000089
C68	C	1.151985	0.110949	0.000092
C69	C	0.915558	0.192173	0.000055
C70	C	0.916452	0.245869	0.000043
N71	N	0.911335	0.110355	0.215871
N72	N	0.933330	0.097802	-0.215719
C73	C	0.962657	0.080979	0.259468
C74	C	0.958226	0.083517	0.346656
C75	C	0.902478	0.115434	0.390245
C76	C	0.851150	0.144812	0.346642
C77	C	0.855577	0.142270	0.259456
C78	C	0.886429	0.124638	0.653492
C79	C	0.882008	0.127178	0.740684
C80	C	0.989084	0.065882	0.740692
C81	C	0.993509	0.063346	0.653504
C82	C	0.942179	0.092721	0.609908
C83	C	0.897950	0.118031	0.479365
C84	C	0.946704	0.090122	0.520790
H85	H	0.667230	0.175970	0.000030
H86	H	0.423454	0.161044	0.000068
H87	H	1.045815	-0.754576	0.000057
H88	H	0.805754	0.170798	0.382137
H89	H	0.702973	0.017659	0.000084
O90	O	0.511537	0.174827	0.000009
C91	C	0.556288	0.216121	0.000010
H92	H	0.618603	0.205597	-0.026218
H93	H	0.527893	0.244237	-0.040210
H94	H	0.558554	0.231923	0.066455
H95	H	0.836608	0.153170	0.776170
H96	H	0.421194	0.047113	0.000118
H97	H	0.177426	0.032187	0.000113
H98	H	0.797339	-0.128804	0.000094
H99	H	0.723782	-0.266522	0.000016
O100	O	1.047571	0.032182	0.611389
C101	C	1.034163	-0.015476	0.632998
H102	H	0.970326	-0.017485	0.656856
H103	H	1.046393	-0.041144	0.575835
H104	H	1.074928	-0.026335	0.683775
H105	H	0.722274	-0.358042	0.000011
H106	H	1.055928	-0.139045	0.000095
H107	H	0.813784	0.166191	0.223960
H108	H	0.992092	0.064133	0.485297
O109	O	0.294305	0.205423	-0.000065
C110	C	0.272046	0.228826	-0.071820
H111	H	0.216894	0.212629	-0.095722
H112	H	0.259412	0.269062	-0.055704
H113	H	0.321832	0.223712	-0.122057
O114	O	0.710218	-0.413419	0.000137
C115	C	0.702764	-0.381998	0.071889
H116	H	0.763539	-0.376196	0.095810
H117	H	0.674001	-0.345793	0.055760
H118	H	0.664725	-0.398598	0.122116
O119	O	0.133624	0.196973	0.000104
C120	C	0.055064	0.183413	0.000092
H121	H	0.051064	0.146100	0.026324
H122	H	0.015757	0.210831	0.040302
H123	H	0.034845	0.182344	-0.066357
H124	H	1.124878	-0.282432	0.000097
O125	O	0.333122	0.033327	0.000073
C126	C	0.288365	-0.007965	0.000107
H127	H	0.228717	0.001035	-0.026120
H128	H	0.320845	-0.038422	-0.040097
H129	H	0.279344	-0.019897	0.066562
O130	O	0.550229	0.002767	-0.000048
C131	C	0.507308	-0.004384	-0.071771
H132	H	0.528829	0.020196	-0.121919
H133	H	0.516318	-0.043720	-0.095840
H134	H	0.442069	0.004588	-0.055553
O135	O	0.775913	-0.747761	-0.000006
C136	C	0.713567	-0.712178	0.000007
H137	H	0.736393	-0.677804	-0.026211
H138	H	0.665536	-0.725941	-0.040215
H139	H	0.688356	-0.704016	0.066455
O140	O	1.068753	-0.044079	0.000083
C141	C	1.131100	-0.079659	0.000105
H142	H	1.110951	-0.115554	-0.026124
H143	H	1.183229	-0.068224	-0.040102
H144	H	1.149537	-0.083970	0.066557
H145	H	0.844636	0.148557	0.618003
H146	H	1.123376	-0.373948	0.000083
O147	O	1.058658	-0.659597	0.000026
C148	C	1.121001	-0.695179	0.000056
H149	H	1.100848	-0.731075	-0.026165
H150	H	1.173132	-0.683750	-0.040155
H151	H	1.139438	-0.699485	0.066509
H152	H	0.788740	-0.652796	0.000025
O153	O	0.787787	-0.032792	0.000045
C154	C	0.803896	0.016541	0.000071
H155	H	0.866592	0.020238	-0.026138
H156	H	0.760759	0.036357	-0.040152
H157	H	0.797362	0.032919	0.066522
O158	O	1.133727	-0.430338	0.000038
C159	C	1.196068	-0.465922	0.000062
H160	H	1.175912	-0.501816	-0.026164
H161	H	1.248200	-0.454492	-0.040146
H162	H	1.214504	-0.470233	0.066515
O163	O	1.132006	-0.529743	-0.000085
C164	C	1.139426	-0.561181	-0.071815
H165	H	1.101794	-0.545821	-0.121954
H166	H	1.203668	-0.564956	-0.095892
H167	H	1.118817	-0.598187	-0.055604
O168	O	0.708472	-0.512848	-0.000027
C169	C	0.646125	-0.477264	-0.000012
H170	H	0.668953	-0.442888	-0.026221
H171	H	0.598099	-0.491025	-0.040241
H172	H	0.620909	-0.469107	0.066435
H173	H	1.008056	0.054990	0.223984
H174	H	1.000016	0.059596	0.382153
H175	H	1.030873	0.041965	0.776196
H176	H	0.852559	0.144019	0.514863
