data_functionalizedCrystal
_audit_creation_method	'MofGen! by Chris Wilmer'
_symmetry_space_group_name_H-M	'P1'
_symmetry_Int_Tables_number	1
_symmetry_cell_setting	triclinic
loop_
_symmetry_equiv_pos_as_xyz
  x,y,z
_cell_length_a	10.654541
_cell_length_b	19.188930
_cell_length_c	9.130307
_cell_angle_alpha	89.991600
_cell_angle_beta	89.999822
_cell_angle_gamma	83.814355
loop_
_atom_site_label
_atom_site_type_symbol
_atom_site_fract_x
_atom_site_fract_y
_atom_site_fract_z
O1	O	1.665764	0.098053	-0.121773
O2	O	1.300087	0.107397	-0.121788
O3	O	1.493478	0.001138	-0.121751
O4	O	1.472373	0.204312	-0.121809
O5	O	1.493472	0.001137	0.121848
O6	O	1.300081	0.107396	0.121811
O7	O	1.665758	0.098052	0.121826
Cu8	Cu	1.482919	0.102724	0.144061
Cu9	Cu	1.482926	0.102725	-0.144023
O10	O	1.472367	0.204311	0.121790
C11	C	1.253300	0.106711	0.000011
C12	C	1.113900	0.104659	0.000006
C13	C	1.083241	0.231721	-0.000048
C14	C	1.002423	0.294284	-0.000081
C15	C	0.871446	0.292352	-0.000082
C16	C	0.821285	0.227849	-0.000046
C17	C	0.902103	0.165286	-0.000013
C18	C	1.033082	0.167225	-0.000016
C19	C	0.932762	0.038226	0.000052
C20	C	1.063740	0.040156	0.000043
C21	C	0.882602	-0.026277	0.000089
C22	C	0.963421	-0.088842	0.000111
C23	C	1.094405	-0.086908	0.000111
C24	C	1.144558	-0.022408	0.000076
C25	C	1.492792	-0.024878	0.000052
C26	C	1.490740	-0.102396	0.000065
C27	C	1.604215	-0.146578	0.000076
C28	C	1.602288	-0.219414	0.000053
C29	C	1.486878	-0.248065	0.000047
C30	C	1.373388	-0.203873	0.000028
C31	C	1.375319	-0.131038	0.000036
N32	N	1.398659	-0.356647	0.082945
N33	N	1.396833	-0.425838	0.082940
C34	C	1.481054	-0.467512	0.000017
N35	N	1.567190	-0.437383	-0.082881
N36	N	1.569020	-0.368186	-0.082869
C37	C	1.484772	-0.327041	0.000037
C38	C	1.592448	-0.590672	0.000001
C39	C	1.590515	-0.663510	-0.000031
C40	C	1.361612	-0.647967	-0.000042
C41	C	1.363548	-0.575131	-0.000024
C42	C	1.478969	-0.546488	0.000005
C43	C	1.712544	0.098738	0.000025
C44	C	1.851944	0.100790	0.000019
C45	C	1.473053	0.230327	-0.000017
C46	C	1.475105	0.307845	-0.000039
N47	N	1.482923	0.102723	0.346684
N48	N	1.482932	0.102721	-0.346646
C49	C	1.654240	0.008658	0.346706
C50	C	1.739906	-0.038372	0.423384
C51	C	1.739919	-0.038373	0.576717
C52	C	1.654253	0.008661	0.653377
C53	C	1.568586	0.055691	0.576699
C54	C	1.568585	0.055688	0.423362
C55	C	1.397265	0.149751	0.576677
C56	C	1.397257	0.149756	0.423343
C57	C	1.311599	0.196785	0.653336
C58	C	1.225937	0.243819	0.576658
C59	C	1.225929	0.243818	0.423315
C60	C	1.311590	0.196786	0.346665
H61	H	0.775953	-0.027846	0.000096
Cl62	Cl	1.216524	-0.683978	-0.000058
H63	H	0.805642	0.343297	-0.000099
H64	H	1.311608	0.196779	0.778188
Cl65	Cl	1.232651	-0.075492	0.000023
Cl66	Cl	1.118247	0.302937	0.673033
H67	H	1.809671	-0.076671	0.639149
H68	H	1.160201	-0.137855	0.000143
H69	H	1.189888	0.233300	-0.000080
Cl70	Cl	1.065488	0.375370	-0.000128
Cl71	Cl	1.118219	0.302942	0.326934
H72	H	1.251205	-0.020826	0.000058
H73	H	1.654258	0.008652	0.778229
Cl74	Cl	1.749316	-0.110574	0.000071
H75	H	0.922569	-0.141356	0.000140
Cl76	Cl	1.744954	-0.274968	0.000066
H77	H	1.311595	0.196784	0.221813
H78	H	1.279421	-0.227205	0.000020
Cl79	Cl	0.656627	0.225423	-0.000021
Cl80	Cl	1.737545	-0.554661	0.000046
Cl81	Cl	1.220884	-0.519584	-0.000032
Cl82	Cl	1.733184	-0.719055	-0.000027
Cl83	Cl	1.654249	0.008662	0.153943
H84	H	1.809653	-0.076668	0.360955
