data_functionalizedCrystal
_audit_creation_method	'MofGen! by Chris Wilmer'
_symmetry_space_group_name_H-M	'P1'
_symmetry_Int_Tables_number	1
_symmetry_cell_setting	triclinic
loop_
_symmetry_equiv_pos_as_xyz
  x,y,z
_cell_length_a	14.908571
_cell_length_b	19.120786
_cell_length_c	14.908308
_cell_angle_alpha	89.316475
_cell_angle_beta	89.824947
_cell_angle_gamma	89.019960
loop_
_atom_site_label
_atom_site_type_symbol
_atom_site_fract_x
_atom_site_fract_y
_atom_site_fract_z
Zn1	Zn	1.326486	-0.364755	0.566477
Zn2	Zn	1.329365	-0.475309	0.409721
Zn3	Zn	1.185494	-0.351330	0.408252
Zn4	Zn	1.170436	-0.474479	0.551420
O5	O	1.252945	-0.416468	0.483967
O6	O	1.452386	-0.385386	0.552599
O7	O	1.317787	-0.453592	0.284006
O8	O	1.209293	-0.255305	0.434927
O9	O	1.454502	-0.466610	0.437431
O10	O	1.312880	-0.265169	0.551175
O11	O	1.212085	-0.362505	0.282927
O12	O	1.057978	-0.361700	0.420327
O13	O	1.183630	-0.465195	0.678937
O14	O	1.046915	-0.452177	0.525513
O15	O	1.298279	-0.384581	0.689999
O16	O	1.303186	-0.573005	0.422831
O17	O	1.186422	-0.572395	0.526937
C18	C	1.019901	-0.405392	0.471127
C19	C	0.920201	-0.400672	0.465654
C20	C	0.721386	-0.486147	0.564738
C21	C	0.627709	-0.481714	0.559598
C22	C	0.639169	-0.387369	0.450242
C23	C	0.732846	-0.391802	0.455381
C24	C	0.773951	-0.441194	0.512630
C25	C	0.867630	-0.445630	0.517764
C26	C	0.879087	-0.351282	0.408413
C27	C	0.785410	-0.346849	0.403274
C28	C	1.243506	-0.598062	0.473430
C29	C	1.239548	-0.675754	0.468957
C30	C	1.291575	-0.717328	0.527424
C31	C	1.287852	-0.790327	0.523222
C32	C	1.232106	-0.821751	0.460549
C33	C	1.180074	-0.780171	0.402079
C34	C	1.183792	-0.707173	0.406286
C35	C	1.218179	-1.041904	0.444821
C36	C	1.214466	-1.114908	0.440617
C37	C	1.322244	-1.125059	0.561761
C38	C	1.325961	-1.052059	0.565958
C39	C	1.273925	-1.010486	0.507492
C40	C	1.228302	-0.896368	0.456250
C41	C	1.277725	-0.935870	0.511796
C42	C	1.486900	-0.427588	0.496858
C43	C	1.586597	-0.432327	0.502352
C44	C	1.238954	-0.426293	0.717924
C45	C	1.232991	-0.430480	0.817623
C46	C	1.262445	-0.234168	0.494567
C47	C	1.266493	-0.156482	0.499083
C48	C	1.266937	-0.406634	0.250926
C49	C	1.273083	-0.402259	0.151249
C50	C	1.341170	-0.354387	1.016488
C51	C	1.335570	-0.358318	1.110164
C52	C	1.216189	-0.442270	1.098652
C53	C	1.221789	-0.438338	1.004976
C54	C	1.284282	-0.394396	0.963898
C55	C	1.289885	-0.390469	0.870220
C56	C	1.170500	-0.474416	0.858710
C57	C	1.164901	-0.478347	0.952386
H58	H	0.584914	-0.518318	0.602032
H59	H	0.751929	-0.306634	0.356666
H60	H	1.124180	-0.506996	0.815880
H61	H	0.921896	-0.314679	0.365981
N62	N	1.351699	-0.683433	0.595019
H63	H	1.415983	-0.698558	0.583946
H64	H	1.333159	-0.698166	0.657564
H65	H	0.754855	-0.526367	0.611347
H66	H	0.605684	-0.347153	0.403639
H67	H	1.114019	-0.514122	0.985845
H68	H	1.141425	-0.673323	0.358678
H69	H	1.169067	-1.140490	0.389580
N70	N	0.911969	-0.498901	0.579503
H71	H	0.864451	-0.526705	0.611734
H72	H	0.949833	-0.474085	0.624850
H73	H	1.340771	-0.354690	0.836776
N74	N	1.343918	-0.835169	0.586325
H75	H	1.379785	-0.804186	0.626676
H76	H	1.386107	-0.865903	0.550435
N77	N	1.386083	-1.018168	0.633559
H78	H	1.418476	-1.055583	0.669963
H79	H	1.348594	-0.987902	0.674767
N80	N	1.408590	-0.307013	0.972178
H81	H	1.403511	-0.310600	0.904855
H82	H	1.471094	-0.321643	0.991458
N83	N	1.378347	-1.169907	0.624824
H84	H	1.361173	-1.159219	0.688860
H85	H	1.443909	-1.159610	0.615143
H86	H	1.175811	-1.008060	0.397214
H87	H	1.381892	-0.325737	1.152980
N88	N	1.119949	-0.814059	0.334479
H89	H	1.125491	-0.866612	0.340680
H90	H	1.138448	-0.799279	0.271940
H91	H	1.323110	-0.910283	0.562827
H92	H	1.182917	-0.921961	0.405219
N93	N	1.148756	-0.489630	1.142965
H94	H	1.153833	-0.486037	1.210288
H95	H	1.161064	-0.539532	1.124482
