data_functionalizedCrystal
_audit_creation_method	'MofGen! by Chris Wilmer'
_symmetry_space_group_name_H-M	'P1'
_symmetry_Int_Tables_number	1
_symmetry_cell_setting	triclinic
loop_
_symmetry_equiv_pos_as_xyz
  x,y,z
_cell_length_a	12.827893
_cell_length_b	21.295417
_cell_length_c	12.827885
_cell_angle_alpha	89.962947
_cell_angle_beta	89.980918
_cell_angle_gamma	90.029863
loop_
_atom_site_label
_atom_site_type_symbol
_atom_site_fract_x
_atom_site_fract_y
_atom_site_fract_z
Zn1	Zn	1.597566	-0.250576	-0.590791
Zn2	Zn	1.597416	-0.355858	-0.416029
Zn3	Zn	1.422807	-0.250607	-0.416065
Zn4	Zn	1.422749	-0.355812	-0.590729
O5	O	1.510134	-0.303213	-0.503403
O6	O	1.743782	-0.264548	-0.567619
O7	O	1.574216	-0.341929	-0.269797
O8	O	1.446076	-0.162514	-0.439283
O9	O	1.743672	-0.341899	-0.439222
O10	O	1.574471	-0.162491	-0.567654
O11	O	1.445931	-0.264601	-0.269824
O12	O	1.276563	-0.264556	-0.439224
O13	O	1.445977	-0.341819	-0.736974
O14	O	1.276520	-0.341850	-0.567549
O15	O	1.574414	-0.264503	-0.737019
O16	O	1.574159	-0.443941	-0.439162
O17	O	1.445832	-0.443907	-0.567514
C18	C	1.238625	-0.303202	-0.503384
C19	C	1.122471	-0.303212	-0.503401
C20	C	1.070680	-0.264914	-0.440014
C21	C	0.950630	-0.264924	-0.440030
C22	C	1.510001	-0.466765	-0.503350
C23	C	1.510040	-0.536733	-0.503363
C24	C	1.576857	-0.569531	-0.570253
C25	C	1.576893	-0.635273	-0.570279
C26	C	1.510125	-0.668215	-0.503396
C27	C	1.443295	-0.635410	-0.436501
C28	C	1.443253	-0.569669	-0.436484
N29	N	1.502229	-0.771484	-0.411940
N30	N	1.502275	-0.833935	-0.411959
C31	C	1.510247	-0.866290	-0.503443
N32	N	1.518191	-0.833834	-0.594910
N33	N	1.518150	-0.771377	-0.594890
C34	C	1.510163	-0.739501	-0.503407
C35	C	1.577107	-0.970373	-0.570367
C36	C	1.577136	-1.036117	-0.570394
C37	C	1.443543	-1.036252	-0.436607
C38	C	1.443508	-0.970510	-0.436589
C39	C	1.510296	-0.937574	-0.503467
C40	C	1.782704	-0.303225	-0.503423
C41	C	1.898858	-0.303230	-0.503431
C42	C	1.510206	-0.303153	-0.775974
C43	C	1.510236	-0.303127	-0.892127
C44	C	1.510297	-0.139023	-0.503479
C45	C	1.510366	-0.069055	-0.503512
C46	C	1.446734	-0.341342	-1.063934
C47	C	1.446701	-0.341370	-0.943883
C48	C	1.510124	-0.303228	-0.231893
C49	C	1.510296	-0.303076	-0.115741
H50	H	1.077935	-0.336009	-0.557677
C51	C	1.369742	-0.533590	-0.362901
N52	N	1.314371	-0.506415	-0.307477
H53	H	1.115217	-0.232121	-0.385731
C54	C	0.959018	-0.347530	-0.576749
N55	N	1.004339	-0.380898	-0.631971
C56	C	0.890463	-0.220626	-0.366715
N57	N	0.845142	-0.187260	-0.311490
H58	H	1.631236	-0.542716	-0.624712
H59	H	1.392288	-0.374133	-0.899331
C60	C	1.650559	-0.934142	-0.643948
N61	N	1.705881	-0.906854	-0.699373
C62	C	1.373238	-0.385569	-1.124077
N63	N	1.317876	-0.418880	-1.169376
H64	H	1.631295	-0.661982	-0.624761
H65	H	1.388929	-0.662236	-0.382047
H66	H	1.564684	-0.270333	-1.071218
H67	H	1.631546	-1.062820	-0.624869
C68	C	1.370082	-1.072485	-0.363049
N69	N	1.314743	-1.099779	-0.307649
C70	C	1.583755	-0.258863	-0.952306
N71	N	1.639127	-0.225523	-0.997640
C72	C	1.369998	-0.934431	-0.363009
N73	N	1.314619	-0.907257	-0.307592
