data_functionalizedCrystal
_audit_creation_method	'MofGen! by Chris Wilmer'
_symmetry_space_group_name_H-M	'P1'
_symmetry_Int_Tables_number	1
_symmetry_cell_setting	triclinic
loop_
_symmetry_equiv_pos_as_xyz
  x,y,z
_cell_length_a	11.026660
_cell_length_b	19.188930
_cell_length_c	9.482900
_cell_angle_alpha	99.297616
_cell_angle_beta	78.636107
_cell_angle_gamma	95.864808
loop_
_atom_site_label
_atom_site_type_symbol
_atom_site_fract_x
_atom_site_fract_y
_atom_site_fract_z
O1	O	1.627573	0.283612	-0.120962
O2	O	1.274444	0.250344	-0.120956
O3	O	1.461194	0.166623	-0.120930
O4	O	1.440822	0.367333	-0.120987
O5	O	1.423261	0.183716	0.120857
O6	O	1.236510	0.267437	0.120832
O7	O	1.589639	0.300705	0.120826
Cu8	Cu	1.409611	0.285632	0.142906
Cu9	Cu	1.454472	0.265417	-0.143036
O10	O	1.402889	0.384426	0.120800
C11	C	1.210299	0.252754	-0.000061
C12	C	1.075682	0.234458	-0.000057
C13	C	0.862477	0.266072	-0.000070
C14	C	1.001610	0.284983	-0.000073
C15	C	1.441567	0.149075	-0.000033
C16	C	1.439584	0.071319	-0.000020
C17	C	1.549164	0.040360	-0.000015
C18	C	1.547306	-0.032703	-0.000038
C19	C	1.435857	-0.074802	-0.000037
C20	C	1.326264	-0.043836	-0.000051
C21	C	1.328127	0.029224	-0.000042
N22	N	1.337758	-0.187846	0.082249
N23	N	1.335995	-0.257250	0.082244
C24	C	1.430238	-0.294929	-0.000067
N25	N	1.526325	-0.260581	-0.082354
N26	N	1.528091	-0.191170	-0.082342
C27	C	1.433825	-0.154025	-0.000048
C28	C	1.537812	-0.405111	-0.000089
C29	C	1.535951	-0.478176	-0.000121
C30	C	1.314903	-0.489307	-0.000119
C31	C	1.316769	-0.416244	-0.000101
C32	C	1.428226	-0.374150	-0.000079
C33	C	1.653784	0.298295	-0.000073
C34	C	1.788403	0.316590	-0.000086
C35	C	1.422517	0.401974	-0.000101
C36	C	1.424501	0.479730	-0.000123
N37	N	1.378067	0.299850	0.344022
N38	N	1.486026	0.251195	-0.344152
C39	C	1.445159	0.269606	0.416230
C40	C	1.418923	0.281443	0.583644
H41	H	1.041189	0.342238	-0.000079
H42	H	1.301199	0.334503	0.406141
H43	H	0.822887	0.208823	-0.000033
N44	N	1.026019	0.162636	-0.000014
N45	N	0.913066	0.147375	0.000000
H46	H	0.877988	0.096652	0.000035
H47	H	0.827988	0.373842	-0.000093
N48	N	1.582498	0.207749	0.577916
N49	N	1.691984	0.223867	0.594769
H50	H	1.760127	0.193193	0.539719
H51	H	1.238890	0.054430	-0.000045
H52	H	1.342050	0.316098	0.645758
N53	N	1.201051	-0.532292	-0.000136
N54	N	1.143252	-0.535051	-0.102056
H55	H	1.062840	-0.565413	-0.102075
N56	N	1.663001	0.083366	0.000009
N57	N	1.672708	0.132572	0.101934
H58	H	1.753106	0.162947	0.101952
N59	N	1.659256	-0.064325	-0.000035
N60	N	1.758759	-0.026734	-0.000019
H61	H	1.837825	-0.049064	-0.000014
N62	N	1.541517	0.226102	0.338224
N63	N	1.516179	0.172039	0.253290
H64	H	1.584213	0.141306	0.198166
H65	H	1.235522	-0.078118	-0.000053
H66	H	1.628568	-0.370836	-0.000078
H67	H	1.625190	-0.503381	-0.000125
H68	H	1.227535	-0.391037	-0.000097
