data_functionalizedCrystal
_audit_creation_method	'MofGen! by Chris Wilmer'
_symmetry_space_group_name_H-M	'P1'
_symmetry_Int_Tables_number	1
_symmetry_cell_setting	triclinic
loop_
_symmetry_equiv_pos_as_xyz
  x,y,z
_cell_length_a	19.121275
_cell_length_b	19.121063
_cell_length_c	13.897441
_cell_angle_alpha	92.405670
_cell_angle_beta	92.419189
_cell_angle_gamma	89.926756
loop_
_atom_site_label
_atom_site_type_symbol
_atom_site_fract_x
_atom_site_fract_y
_atom_site_fract_z
Zn1	Zn	1.059828	-0.324789	-0.502259
Zn2	Zn	1.054729	-0.442035	-0.348113
Zn3	Zn	0.942590	-0.319820	-0.347557
Zn4	Zn	0.937558	-0.436989	-0.515938
O5	O	0.998676	-0.380908	-0.428467
O6	O	1.157253	-0.344533	-0.476319
O7	O	1.039826	-0.425855	-0.213061
O8	O	0.962381	-0.222375	-0.362121
O9	O	1.153507	-0.430673	-0.363069
O10	O	1.048516	-0.226026	-0.475779
O11	O	0.957437	-0.336064	-0.212653
O12	O	0.843821	-0.331171	-0.375385
O13	O	0.953806	-0.422073	-0.649101
O14	O	0.840124	-0.417255	-0.499094
O15	O	1.043637	-0.339640	-0.639051
O16	O	1.034947	-0.539469	-0.376333
O17	O	0.948861	-0.535762	-0.499633
C18	C	0.816536	-0.373127	-0.438664
C19	C	0.738615	-0.369815	-0.443051
C20	C	0.700057	-0.413035	-0.386052
C21	C	0.626842	-0.409923	-0.390186
C22	C	0.592186	-0.363588	-0.451314
C23	C	0.630749	-0.320366	-0.508319
C24	C	0.703962	-0.323482	-0.504190
C25	C	0.371225	-0.351943	-0.466743
C26	C	0.298006	-0.348829	-0.470866
C27	C	0.294104	-0.438388	-0.352734
C28	C	0.367320	-0.441496	-0.348605
C29	C	0.405876	-0.398277	-0.405614
C30	C	0.517348	-0.360404	-0.455540
C31	C	0.480712	-0.401465	-0.401393
C32	C	0.990824	-0.563053	-0.439548
C33	C	0.987529	-0.640979	-0.444317
C34	C	1.030835	-0.679496	-0.382411
C35	C	1.027740	-0.752715	-0.386902
C36	C	0.981335	-0.787415	-0.453295
C37	C	0.938026	-0.748892	-0.515207
C38	C	0.941125	-0.675675	-0.510720
C39	C	0.969737	-1.008390	-0.470056
C40	C	0.966639	-1.081612	-0.474536
C41	C	1.056355	-1.085430	-0.346232
C42	C	1.059447	-1.012211	-0.341747
C43	C	1.016141	-0.973695	-0.403662
C44	C	0.978168	-0.862257	-0.457885
C45	C	1.019311	-0.898855	-0.399077
C46	C	1.181528	-0.388720	-0.418230
C47	C	1.259448	-0.392049	-0.413868
C48	C	0.998729	-0.380848	-0.680053
C49	C	0.998751	-0.380823	-0.787264
C50	C	1.006579	-0.198052	-0.417362
C51	C	1.009946	-0.120130	-0.412630
C52	C	0.998772	-0.380776	-0.983556
C53	C	0.998758	-0.380804	-0.874326
C54	C	0.998667	-0.380919	-0.177854
C55	C	0.998789	-0.380753	-0.070623
H56	H	0.489123	-0.322677	-0.505309
H57	H	0.728269	-0.450763	-0.336271
Cl58	Cl	0.879691	-0.792515	-0.598679
Cl59	Cl	0.752435	-0.269148	-0.575851
Cl60	Cl	0.908287	-1.125234	-0.557996
H61	H	1.097234	-0.983960	-0.287684
Cl62	Cl	0.915293	-0.959979	-0.547892
H63	H	0.905861	-0.644314	-0.561132
Cl64	Cl	1.077651	-0.855231	-0.315618
H65	H	0.508932	-0.439194	-0.351628
H66	H	0.395531	-0.479227	-0.298827
Cl67	Cl	1.082188	-0.801135	-0.309076
Cl68	Cl	1.089173	-0.635881	-0.298936
H69	H	0.595451	-0.445117	-0.343772
Cl70	Cl	1.110798	-1.133855	-0.268406
Cl71	Cl	0.919831	-0.905886	-0.541347
H72	H	0.262704	-0.473575	-0.306322
H73	H	0.402609	-0.316752	-0.513165
Cl74	Cl	0.587181	-0.262121	-0.585175
Cl75	Cl	0.254440	-0.290571	-0.547714
