data_functionalizedCrystal
_audit_creation_method	'MofGen! by Chris Wilmer'
_symmetry_space_group_name_H-M	'P1'
_symmetry_Int_Tables_number	1
_symmetry_cell_setting	triclinic
loop_
_symmetry_equiv_pos_as_xyz
  x,y,z
_cell_length_a	17.699077
_cell_length_b	11.792253
_cell_length_c	10.868271
_cell_angle_alpha	90.010695
_cell_angle_beta	89.996241
_cell_angle_gamma	96.260413
loop_
_atom_site_label
_atom_site_type_symbol
_atom_site_fract_x
_atom_site_fract_y
_atom_site_fract_z
O1	O	1.004848	-0.143492	-0.102321
O2	O	0.784569	-0.162172	-0.102329
O3	O	0.900049	0.012402	-0.102299
O4	O	0.889368	-0.318065	-0.102351
O5	O	0.900039	0.012409	0.102345
O6	O	0.784559	-0.162165	0.102316
O7	O	1.004838	-0.143485	0.102324
Zn8	Zn	0.894697	-0.152824	0.134811
Zn9	Zn	0.894710	-0.152833	-0.134817
O10	O	0.889358	-0.318059	0.102294
C11	C	0.756363	-0.161500	-0.000007
C12	C	0.672334	-0.159496	-0.000009
C13	C	0.632856	-0.158547	0.111544
C14	C	0.553904	-0.156646	0.111546
C15	C	0.514429	-0.155700	-0.000007
C16	C	0.553913	-0.156645	-0.111569
C17	C	0.632865	-0.158539	-0.111570
C18	C	0.235509	-0.149008	-0.111570
C19	C	0.156551	-0.147117	-0.111562
C20	C	0.156548	-0.147114	0.111545
C21	C	0.235500	-0.149008	0.111544
C22	C	0.274977	-0.149947	-0.000017
C23	C	0.360586	-0.152007	-0.000017
C24	C	0.428821	-0.153649	-0.000008
C25	C	0.899371	0.054688	0.000027
C26	C	0.897357	0.180677	0.000039
C27	C	0.895721	0.282994	0.000045
C28	C	0.893675	0.411356	0.000046
C29	C	1.033043	-0.144156	-0.000001
C30	C	1.117072	-0.146161	-0.000007
N31	N	0.894694	-0.152817	0.318825
C32	C	0.890036	0.639655	-0.000009
C33	C	0.892050	0.513667	0.000047
N34	N	0.894719	-0.152830	-0.318831
C35	C	0.894706	-0.152830	0.569831
C36	C	0.894697	-0.152826	0.430154
H37	H	0.124396	-0.146345	0.202383
H38	H	0.521767	-0.155868	-0.202398
H39	H	0.664990	-0.159326	0.202384
Cl40	Cl	0.106927	-0.145927	-0.251811
Cl41	Cl	0.504276	-0.155474	0.251791
H42	H	0.665006	-0.159313	-0.202408
Cl43	Cl	0.285120	-0.150203	0.251788
Cl44	Cl	0.285127	-0.150190	-0.251819
