data_functionalizedCrystal
_audit_creation_method	'MofGen! by Chris Wilmer'
_symmetry_space_group_name_H-M	'P1'
_symmetry_Int_Tables_number	1
_symmetry_cell_setting	triclinic
loop_
_symmetry_equiv_pos_as_xyz
  x,y,z
_cell_length_a	19.188930
_cell_length_b	12.811457
_cell_length_c	18.266242
_cell_angle_alpha	95.423010
_cell_angle_beta	89.989745
_cell_angle_gamma	83.596719
loop_
_atom_site_label
_atom_site_type_symbol
_atom_site_fract_x
_atom_site_fract_y
_atom_site_fract_z
O1	O	0.094033	1.392223	0.031546
O2	O	0.594033	1.892223	0.531546
O3	O	0.104260	1.086598	0.011252
O4	O	0.604260	1.586598	0.511252
O5	O	-0.002466	1.248230	0.021999
O6	O	0.497534	1.748230	0.521999
O7	O	0.200758	1.230591	0.020799
O8	O	0.700758	1.730591	0.520799
O9	O	-0.002469	1.248203	0.143759
O10	O	0.497531	1.748203	0.643759
O11	O	0.104257	1.086570	0.133012
O12	O	0.604257	1.586570	0.633012
O13	O	0.094030	1.392196	0.153306
O14	O	0.594030	1.892196	0.653306
Zn15	Zn	0.099143	1.239379	0.162491
Zn16	Zn	0.599143	1.739379	0.662491
Zn17	Zn	0.099147	1.239415	0.002067
Zn18	Zn	0.599147	1.739415	0.502067
O19	O	0.200755	1.230563	0.142559
O20	O	0.700755	1.730563	0.642559
C21	C	0.103686	1.047483	0.069536
C22	C	0.603686	1.547483	0.569536
C23	C	0.101970	0.930976	0.061800
C24	C	0.601970	1.430976	0.561800
C25	C	0.098731	0.712016	0.180021
C26	C	0.598731	1.212016	0.680021
C27	C	0.097119	0.602547	0.172757
C28	C	0.597119	1.102547	0.672757
C29	C	0.097130	0.602566	0.040006
C30	C	0.597130	1.102566	0.540006
C31	C	0.098742	0.712036	0.047271
C32	C	0.598742	1.212036	0.547271
C33	C	0.099543	0.766757	0.117281
C34	C	0.599543	1.266757	0.617281
C35	C	0.101160	0.876227	0.124545
C36	C	0.601160	1.376227	0.624545
C37	C	0.101166	0.876246	-0.008205
C38	C	0.601166	1.376246	0.491795
C39	C	0.099554	0.766776	-0.015469
C40	C	0.599554	1.266776	0.484531
C41	C	-0.028481	1.247645	0.082843
C42	C	0.471519	1.747645	0.582843
C43	C	-0.105994	1.245930	0.082735
C44	C	0.394006	1.745930	0.582735
C45	C	-0.150450	1.340771	0.089037
C46	C	0.349550	1.840771	0.589037
C47	C	-0.223282	1.339160	0.088918
C48	C	0.276718	1.839160	0.588918
C49	C	-0.251654	1.242703	0.082512
C50	C	0.248346	1.742703	0.582512
C51	C	-0.207188	1.147850	0.076206
C52	C	0.292812	1.647850	0.576206
C53	C	-0.134358	1.149464	0.076318
C54	C	0.365642	1.649464	0.576318
N55	N	-0.360024	1.168964	0.119054
N56	N	0.139976	1.668964	0.619054
N57	N	-0.429210	1.167437	0.118950
N58	N	0.070790	1.667437	0.618950
C59	C	-0.471087	1.237835	0.082174
C60	C	0.028913	1.737835	0.582174
N61	N	-0.441166	1.309833	0.045517
N62	N	0.058834	1.809833	0.545517
N63	N	-0.371973	1.311363	0.045624
N64	N	0.128027	1.811363	0.545624
C65	C	-0.330626	1.240943	0.082390
C66	C	0.169374	1.740943	0.582390
C67	C	-0.594516	1.330936	0.088346
C68	C	-0.094516	1.830936	0.588346
C69	C	-0.667349	1.329321	0.088223
C70	C	-0.167349	1.829321	0.588223
C71	C	-0.651254	1.138008	0.075518
C72	C	-0.151254	1.638008	0.575518
C73	C	-0.578423	1.139626	0.075635
C74	C	-0.078423	1.639626	0.575635
C75	C	-0.550059	1.236092	0.082052
C76	C	-0.050059	1.736092	0.582052
C77	C	0.226771	1.231148	0.081713
C78	C	0.726771	1.731148	0.581713
C79	C	0.304284	1.232863	0.081816
C80	C	0.804284	1.732863	0.581816
C81	C	0.094604	1.431310	0.095021
C82	C	0.594604	1.931310	0.595021
C83	C	0.096319	1.547818	0.102752
C84	C	0.596319	2.047818	0.602752
N85	N	0.099139	1.239362	0.271977
N86	N	0.599139	1.739362	0.771977
N87	N	0.099145	1.239440	-0.107418
N88	N	0.599145	1.739440	0.392582
C89	C	0.141698	1.302812	0.314487
C90	C	0.641698	1.802812	0.814487
C91	C	0.141696	1.302829	0.391133
C92	C	0.641696	1.802829	0.891133
C93	C	0.099144	1.239377	0.425265
C94	C	0.599144	1.739377	0.925265
C95	C	0.056577	1.175922	0.382746
C96	C	0.556577	1.675922	0.882746
C97	C	0.056575	1.175915	0.306102
C98	C	0.556575	1.675915	0.806102
N99	N	0.096970	1.147457	0.539514
N100	N	0.596970	1.647457	1.039514
N101	N	0.096976	1.147467	0.612323
N102	N	0.596976	1.647467	1.112323
C103	C	0.099146	1.239398	0.656189
C104	C	0.599146	1.739398	1.156189
N105	N	0.101324	1.331319	0.624495
N106	N	0.601324	1.831319	1.124495
N107	N	0.101321	1.331307	0.551679
N108	N	0.601321	1.831307	1.051679
C109	C	0.099141	1.239379	0.508372
C110	C	0.599141	1.739379	1.008372
C111	C	0.141705	1.302872	0.781807
C112	C	0.641705	1.802872	1.281807
C113	C	0.141698	1.302892	0.858455
C114	C	0.641698	1.802892	1.358455
C115	C	0.056583	1.175975	0.850065
C116	C	0.556583	1.675975	1.350065
C117	C	0.056586	1.175965	0.773420
C118	C	0.556586	1.675965	1.273420
C119	C	0.099151	1.239412	0.739295
C120	C	0.599151	1.739412	1.239295
H121	H	-0.127362	1.419322	0.094260
H122	H	0.372638	1.919322	0.594260
N123	N	-0.088943	1.052582	0.069870
N124	N	0.411057	1.552582	0.569870
N125	N	-0.091674	0.988372	0.014276
N126	N	0.408326	1.488372	0.514276
H127	H	-0.059597	0.919948	0.009722
H128	H	0.440403	1.419948	0.509722
N129	N	0.185163	1.367644	0.434577
N130	N	0.685163	1.867644	0.934577
N131	N	0.158131	1.437162	0.481958
N132	N	0.658131	1.937162	0.981958
H133	H	0.188830	1.482938	0.512640
H134	H	0.688830	1.982938	1.012640
H135	H	0.101817	0.920778	0.181550
H136	H	0.601817	1.420778	0.681550
H137	H	0.099392	0.756569	0.237026
H138	H	0.599392	1.256569	0.737026
H139	H	0.176355	1.354480	0.286707
H140	H	0.676355	1.854480	0.786707
N141	N	0.096284	0.546647	0.236852
N142	N	0.596284	1.046647	0.736852
N143	N	0.096997	0.595523	0.299353
N144	N	0.596997	1.095523	0.799353
H145	H	0.096406	0.556045	0.344624
H146	H	0.596406	1.056045	0.844624
N147	N	0.013116	1.111171	0.884933
N148	N	0.513116	1.611171	1.384933
N149	N	0.013122	1.111187	0.953365
N150	N	0.513122	1.611187	1.453365
H151	H	-0.017579	1.065419	0.977994
H152	H	0.482421	1.565419	1.477994
H153	H	-0.230294	1.069314	0.070989
H154	H	0.269706	1.569314	0.570989
H155	H	-0.259485	1.416393	0.094046
H156	H	0.240515	1.916393	0.594046
N157	N	-0.680226	1.039478	0.068989
N158	N	-0.180226	1.539478	0.568989
N159	N	-0.666716	0.975602	0.116075
N160	N	-0.166716	1.475602	0.616075
H161	H	-0.687180	0.906011	0.111462
H162	H	-0.187180	1.406011	0.611462
H163	H	0.021918	1.124244	0.271490
H164	H	0.521918	1.624244	0.771490
H165	H	0.096465	0.557996	-0.016992
H166	H	0.596465	1.057996	0.483008
N167	N	0.098729	0.710861	-0.086973
N168	N	0.598729	1.210861	0.413027
N169	N	0.097287	0.613122	-0.093452
N170	N	0.597287	1.113122	0.406548
H171	H	0.096706	0.573632	-0.143952
H172	H	0.596706	1.073632	0.356048
N173	N	0.013114	1.111137	0.730003
N174	N	0.513114	1.611137	1.230003
N175	N	-0.024877	1.054486	0.760484
N176	N	0.475123	1.554486	1.260484
H177	H	-0.055582	1.008698	0.729822
H178	H	0.444418	1.508698	1.229822
H179	H	0.176352	1.354568	0.893066
H180	H	0.676352	1.854568	1.393066
N181	N	0.013110	1.111120	0.417619
N182	N	0.513110	1.611120	0.917619
N183	N	0.013118	1.111134	0.486051
N184	N	0.513118	1.611134	0.986051
H185	H	-0.017584	1.065368	0.510681
H186	H	0.482416	1.565368	1.010681
N187	N	0.101987	0.932180	-0.072290
N188	N	0.601987	1.432180	0.427710
N189	N	0.103421	1.029921	-0.065796
N190	N	0.603421	1.529921	0.434204
H191	H	0.103998	1.069428	-0.111055
H192	H	0.603998	1.569428	0.388945
H193	H	-0.703545	1.406555	0.093350
H194	H	-0.203545	1.906555	0.593350
N195	N	-0.565549	1.429478	0.094904
N196	N	-0.065549	1.929478	0.594904
N197	N	-0.605255	1.514153	0.100525
N198	N	-0.105255	2.014153	0.600525
H199	H	-0.584799	1.583751	0.105158
H200	H	-0.084799	2.083751	0.605158
N201	N	-0.533017	1.042737	0.069200
N202	N	-0.033017	1.542737	0.569200
N203	N	-0.558355	0.956620	0.063478
N204	N	-0.058355	1.456620	0.563478
H205	H	-0.526288	0.888187	0.058931
H206	H	-0.026288	1.388187	0.558931
H207	H	0.176363	1.354535	0.754021
H208	H	0.676363	1.854535	1.254021
