data_functionalizedCrystal
_audit_creation_method	'MofGen! by Chris Wilmer'
_symmetry_space_group_name_H-M	'P1'
_symmetry_Int_Tables_number	1
_symmetry_cell_setting	triclinic
loop_
_symmetry_equiv_pos_as_xyz
  x,y,z
_cell_length_a	19.377625
_cell_length_b	16.704494
_cell_length_c	16.704494
_cell_angle_alpha	60.174809
_cell_angle_beta	75.549556
_cell_angle_gamma	55.196854
loop_
_atom_site_label
_atom_site_type_symbol
_atom_site_fract_x
_atom_site_fract_y
_atom_site_fract_z
Zr1	Zr	0.741041	0.842850	-0.346510
O2	O	0.639036	0.999874	-0.447855
O3	O	0.766708	0.679337	-0.308245
O4	O	0.781358	0.829220	-0.478890
O5	O	0.619203	0.863005	-0.150789
O6	O	0.899999	0.825850	-0.511559
O7	O	0.624386	0.849991	-0.277210
O8	O	0.873791	0.557736	-0.206306
O9	O	0.645411	1.131119	-0.456042
O10	O	0.872964	0.746480	-0.325001
O11	O	0.780557	0.758708	-0.206275
O12	O	0.797806	0.935176	-0.407188
O13	O	0.705398	0.947403	-0.288461
Zr14	Zr	0.921993	0.858231	-0.196987
Zr15	Zr	0.930259	0.837475	-0.398613
Zr16	Zr	0.732776	0.863606	-0.144884
Zr17	Zr	0.751207	1.052170	-0.359568
Zr18	Zr	0.911827	0.648911	-0.183929
O19	O	0.896327	1.021744	-0.235252
O20	O	0.908079	0.992232	-0.521938
O21	O	0.627284	1.029386	-0.161169
O22	O	1.023998	0.701207	-0.095642
O23	O	1.035751	0.671694	-0.382328
O24	O	0.754955	0.708849	-0.021559
O25	O	1.043831	0.838076	-0.392707
O26	O	0.881676	0.871861	-0.064607
O27	O	0.763036	0.875231	-0.031938
O28	O	1.038649	0.851090	-0.266287
O29	O	0.795813	1.126846	-0.497457
O30	O	0.867222	0.574234	-0.046040
O31	O	1.017624	0.569962	-0.087454
O32	O	1.024194	0.553464	-0.247720
O33	O	0.638841	1.147617	-0.295777
O34	O	0.789243	1.143345	-0.337191
O35	O	0.865229	0.765905	-0.136309
O36	O	0.957636	0.753677	-0.255035
O37	O	0.882478	0.942373	-0.337222
O38	O	0.790071	0.954600	-0.218495
C39	C	0.818801	0.588713	-0.255415
C40	C	0.814485	0.499851	-0.249871
C41	C	0.902869	0.320089	-0.363404
C42	C	0.898817	0.236595	-0.358199
C43	C	0.802333	0.249362	-0.234251
C44	C	0.806385	0.332856	-0.239457
C45	C	0.856654	0.368218	-0.304036
C46	C	0.860702	0.451718	-0.309246
C47	C	0.764223	0.464479	-0.185294
C48	C	0.760170	0.380985	-0.180089
C49	C	0.594835	0.857264	-0.206576
C50	C	0.514507	0.859546	-0.184457
C51	C	0.264583	0.831163	-0.459886
C52	C	0.189105	0.833302	-0.439073
C53	C	0.183416	0.847640	-0.299790
C54	C	0.258892	0.845508	-0.320594
C55	C	0.299471	0.837268	-0.400642
C56	C	0.293780	0.851613	-0.261350
C57	C	0.369253	0.849476	-0.282150
C58	C	0.409837	0.841233	-0.362193
C59	C	0.374943	0.835131	-0.421442
C60	C	0.253204	0.859845	-0.181298
C61	C	0.288092	0.865950	-0.122055
C62	C	0.363563	0.863820	-0.142857
C63	C	0.404147	0.855578	-0.222901
C64	C	0.398457	0.869923	-0.083609
C65	C	0.473929	0.867785	-0.104408
C66	C	0.479619	0.853440	-0.243701
C67	C	1.068200	0.843817	-0.336921
C68	C	1.148527	0.841535	-0.359040
C69	C	0.841856	0.824578	-0.523952
C70	C	0.845365	0.815766	-0.609547
C71	C	0.844234	1.112368	-0.288082
C72	C	0.848549	1.201230	-0.293626
C73	C	0.773500	0.996224	-0.856206
C74	C	0.776795	0.987950	-0.936633
C75	C	0.855255	0.790945	-0.850831
C76	C	0.851960	0.799219	-0.770404
C77	C	0.811080	0.901862	-0.773096
C78	C	0.807780	0.910136	-0.692666
C79	C	0.886245	0.713131	-0.606868
C80	C	0.889540	0.704857	-0.687294
C81	C	0.821179	0.876503	-0.019545
C82	C	0.817670	0.885314	0.066050
C83	C	1.055483	0.581990	-0.320587
C84	C	1.131495	0.490846	-0.337163
C85	C	0.808462	0.614675	-0.003211
C86	C	0.800638	0.534625	0.087928
C87	C	1.045145	0.607952	-0.068384
C88	C	1.117648	0.525620	0.000636
C89	C	0.617890	1.093129	-0.475113
C90	C	0.545387	1.175461	-0.544133
C91	C	0.607551	1.119091	-0.222910
C92	C	0.531539	1.210235	-0.206334
C93	C	0.854572	1.086405	-0.540285
C94	C	0.862397	1.166456	-0.631424
C95	C	1.122994	0.444286	-0.381476
C96	C	1.194409	0.358657	-0.397068
C97	C	1.274325	0.319584	-0.368340
C98	C	1.282825	0.366152	-0.324024
C99	C	1.211411	0.451785	-0.308439
C100	C	0.841161	0.500790	0.167257
C101	C	0.833806	0.425587	0.252900
C102	C	0.785932	0.384214	0.259210
C103	C	0.745404	0.418056	0.179872
C104	C	0.752755	0.493264	0.094232
C105	C	1.199940	0.480573	-0.028927
C106	C	1.268072	0.403224	0.035914
C107	C	1.253911	0.370917	0.130319
C108	C	1.171610	0.415972	0.159882
C109	C	1.103480	0.493326	0.095041
C110	C	0.463096	1.220518	-0.514570
C111	C	0.394964	1.297893	-0.579413
C112	C	0.409126	1.330204	-0.673818
C113	C	0.491426	1.285144	-0.703381
C114	C	0.559556	1.207776	-0.638539
C115	C	0.540042	1.256802	-0.162029
C116	C	0.468628	1.342452	-0.146461
C117	C	0.388713	1.381528	-0.175193
C118	C	0.380212	1.334956	-0.219504
C119	C	0.451625	1.249313	-0.235077
C120	C	0.910277	1.207805	-0.637705
C121	C	0.917646	1.283010	-0.723336
C122	C	0.877128	1.316870	-0.802684
C123	C	0.829246	1.275513	-0.796401
C124	C	0.821883	1.200303	-0.710772
H125	H	0.761417	0.220545	-0.181664
C126	C	0.704876	0.342087	-0.109061
H127	H	0.709076	0.285473	-0.114466
H128	H	0.723451	0.315541	-0.048518
H129	H	0.647976	0.401259	-0.120393
C130	C	0.477990	1.393670	-0.097720
H131	H	0.424018	1.450284	-0.092568
H132	H	0.503780	1.339507	-0.037824
H133	H	0.511939	1.422836	-0.132717
C134	C	0.309222	0.822112	-0.547942
H135	H	0.359163	0.821721	-0.551845
H136	H	0.323124	0.756507	-0.545716
H137	H	0.272917	0.882542	-0.600595
C138	C	0.353820	0.878984	0.004440
H139	H	0.385410	0.882309	0.036748
H140	H	0.299156	0.943125	-0.011995
H141	H	0.349369	0.817092	0.042898
H142	H	1.211486	0.506865	-0.105793
H143	H	0.353643	1.393203	-0.726607
H144	H	1.335079	0.366547	0.011827
H145	H	0.502947	1.311461	-0.780253
H146	H	0.160704	0.828328	-0.487322
H147	H	0.502336	0.872755	-0.056165
H148	H	0.880144	0.534469	0.162137
H149	H	0.315136	1.366785	-0.242894
H150	H	0.943794	0.348888	-0.415994
C151	C	0.650072	1.158207	-0.671068
H152	H	0.648740	1.188528	-0.736579
H153	H	0.680917	1.174003	-0.651240
H154	H	0.676396	1.081505	-0.645470
H155	H	1.332468	0.249855	-0.381035
H156	H	0.706425	0.384359	0.185023
H157	H	0.883130	1.378112	-0.872403
H158	H	0.444690	1.211400	-0.271151
H159	H	0.936451	0.197409	-0.406541
C160	C	1.328859	0.285821	0.201635
H161	H	1.379895	0.263616	0.170500
H162	H	1.328713	0.316920	0.236315
H163	H	1.324215	0.224410	0.242076
C164	C	0.713357	0.517453	-0.120012
H165	H	0.722963	0.572251	-0.132365
H166	H	0.655139	0.549241	-0.129651
H167	H	0.730594	0.463556	-0.057752
C168	C	1.185048	0.307435	-0.445804
H169	H	1.239021	0.250846	-0.450985
H170	H	1.151111	0.278257	-0.410806
H171	H	1.159244	0.361608	-0.505699
H172	H	0.605106	1.224995	-0.138624
C173	C	0.419582	0.826079	-0.509499
H174	H	0.469524	0.825689	-0.513401
H175	H	0.433485	0.760475	-0.507272
H176	H	0.383277	0.886510	-0.562151
C177	C	0.954855	1.170569	-0.550435
H178	H	0.984431	1.205965	-0.566454
H179	H	0.914262	1.188829	-0.506880
H180	H	0.993394	1.093934	-0.524143
H181	H	0.956634	1.316676	-0.728434
C182	C	0.447506	1.184991	-0.410731
H183	H	0.499862	1.132453	-0.376336
H184	H	0.418774	1.246549	-0.398782
H185	H	0.414269	1.154038	-0.393010
C186	C	1.156043	0.380417	0.263728
H187	H	1.208409	0.327887	0.298103
H188	H	1.127305	0.441959	0.275700
H189	H	1.122822	0.349443	0.281451
C190	C	0.310166	1.475731	-0.158053
H191	H	0.326682	1.497857	-0.127543
H192	H	0.281753	1.535394	-0.215456
H193	H	0.273611	1.452048	-0.120565
C194	C	0.784674	1.312776	-0.883687
H195	H	0.795913	1.363500	-0.935576
H196	H	0.804863	1.251477	-0.893305
H197	H	0.725736	1.346368	-0.876034
H198	H	1.347902	0.334326	-0.300638
H199	H	1.218345	0.489684	-0.272350
H200	H	0.916840	0.636295	-0.539186
H201	H	0.901631	0.480511	-0.361832
H202	H	0.512655	0.846742	-0.308890
H203	H	0.782891	1.166645	-0.705670
H204	H	0.471294	0.839488	-0.379125
C205	C	0.878398	0.388364	0.340156
H206	H	0.907973	0.423765	0.324123
H207	H	0.837810	0.406628	0.383713
H208	H	0.916939	0.311730	0.366452
C209	C	1.012961	0.542865	0.127568
H210	H	0.974406	0.593567	0.075437
H211	H	1.002074	0.486540	0.166551
H212	H	1.006556	0.579068	0.160775
C213	C	0.138774	0.856709	-0.211745
H214	H	0.088825	0.857115	-0.207844
H215	H	0.175073	0.796298	-0.159090
H216	H	0.124868	0.922330	-0.213995
C217	C	0.304444	1.347436	-0.546879
H218	H	0.305774	1.317093	-0.481367
H219	H	0.278104	1.424134	-0.572468
H220	H	0.273615	1.331622	-0.566717
H221	H	0.255046	0.872654	-0.056877
C222	C	0.762817	1.023034	-0.695620
H223	H	0.766229	1.014450	-0.635816
H224	H	0.789055	1.060957	-0.737939
H225	H	0.705419	1.063341	-0.714915
H226	H	0.740204	1.079801	-0.858396
C227	C	0.735451	1.091748	-1.028049
H228	H	0.710629	1.154059	-1.018127
H229	H	0.776918	1.091428	-1.072723
H230	H	0.693285	1.093804	-1.049689
C231	C	0.900193	0.678050	-0.847874
H232	H	0.922101	0.623031	-0.786856
H233	H	0.861276	0.671949	-0.865957
H234	H	0.944933	0.669513	-0.888974
H235	H	1.057929	0.476097	-0.404885
C236	C	0.934488	0.591958	-0.684333
H237	H	0.956396	0.536945	-0.623314
H238	H	0.895578	0.585845	-0.702414
H239	H	0.979228	0.583426	-0.725432
C240	C	0.777858	0.301481	0.353416
H241	H	0.808859	0.287252	0.399752
H242	H	0.720307	0.330510	0.367939
H243	H	0.799449	0.235623	0.350677
H244	H	0.719757	0.520801	0.029642
H245	H	0.191752	0.861579	-0.164365
