data_functionalizedCrystal
_audit_creation_method	'MofGen! by Chris Wilmer'
_symmetry_space_group_name_H-M	'P1'
_symmetry_Int_Tables_number	1
_symmetry_cell_setting	triclinic
loop_
_symmetry_equiv_pos_as_xyz
  x,y,z
_cell_length_a	25.639242
_cell_length_b	29.839125
_cell_length_c	25.639239
_cell_angle_alpha	89.983129
_cell_angle_beta	90.033587
_cell_angle_gamma	89.979564
loop_
_atom_site_label
_atom_site_type_symbol
_atom_site_fract_x
_atom_site_fract_y
_atom_site_fract_z
Zn1	Zn	0.799219	-0.254109	-0.208295
Zn2	Zn	0.799144	-0.178980	-0.295711
Zn3	Zn	0.711797	-0.178981	-0.208284
Zn4	Zn	0.711741	-0.254071	-0.295694
O5	O	0.755475	-0.216535	-0.251996
O6	O	0.872374	-0.244159	-0.219903
O7	O	0.787550	-0.116113	-0.284116
O8	O	0.723449	-0.188963	-0.135120
O9	O	0.872319	-0.188962	-0.284127
O10	O	0.787677	-0.244160	-0.135128
O11	O	0.723376	-0.116114	-0.219884
O12	O	0.638624	-0.188926	-0.219867
O13	O	0.723352	-0.316943	-0.284098
O14	O	0.638583	-0.244094	-0.284086
O15	O	0.787622	-0.316971	-0.219886
O16	O	0.787495	-0.188925	-0.368874
O17	O	0.723280	-0.244093	-0.368861
C18	C	0.619633	-0.216506	-0.251974
C19	C	0.561519	-0.216504	-0.251977
C20	C	0.755489	-0.333714	-0.251991
C21	C	0.755495	-0.383648	-0.251989
C22	C	0.310338	-0.187859	-0.218501
C23	C	0.364942	-0.187853	-0.218496
O24	O	0.393190	-0.163473	-0.190003
N25	N	0.392245	-0.216527	-0.251983
C26	C	0.364940	-0.245211	-0.285474
O27	O	0.393177	-0.269600	-0.313957
C28	C	0.310337	-0.245219	-0.285476
C29	C	0.283037	-0.216540	-0.251990
C30	C	0.283039	-0.159183	-0.185017
C31	C	0.228438	-0.159188	-0.185023
C32	C	0.201137	-0.187869	-0.218512
C33	C	0.228437	-0.216545	-0.251996
C34	C	0.283033	-0.273905	-0.318964
C35	C	0.228426	-0.273911	-0.318962
C36	C	0.201126	-0.245232	-0.285476
C37	C	0.146535	-0.245232	-0.285491
N38	N	0.119233	-0.216558	-0.252003
C39	C	0.146534	-0.187877	-0.218514
C40	C	0.479611	-0.245193	-0.285467
C41	C	0.534213	-0.245184	-0.285468
C42	C	0.534212	-0.187826	-0.218490
C43	C	0.479608	-0.187834	-0.218491
C44	C	0.452308	-0.216520	-0.251980
C45	C	0.031869	-0.187890	-0.218529
C46	C	-0.022737	-0.187896	-0.218539
C47	C	-0.022731	-0.245255	-0.285516
C48	C	0.031870	-0.245247	-0.285508
C49	C	0.059168	-0.216563	-0.252010
O50	O	0.118253	-0.269601	-0.313968
O51	O	0.118290	-0.163496	-0.190031
C52	C	0.788996	-0.693309	-0.218467
C53	C	0.789022	-0.880982	-0.218422
O54	O	0.817467	-0.905262	-0.189970
N55	N	0.755565	-0.904433	-0.251849
C56	C	0.722096	-0.880963	-0.285287
O57	O	0.693636	-0.905216	-0.313714
C58	C	0.722068	-0.693291	-0.285329
C59	C	0.755531	-0.669842	-0.251903
C60	C	0.822456	-0.669861	-0.185044
C61	C	0.822451	-0.622945	-0.185057
C62	C	0.788987	-0.599478	-0.218494
C63	C	0.755526	-0.622927	-0.251917
C64	C	0.688597	-0.669821	-0.318764
C65	C	0.688592	-0.622900	-0.318770
C66	C	0.722055	-0.599452	-0.285345
C67	C	0.722057	-0.552544	-0.285367
N68	N	0.755514	-0.529093	-0.251940
C69	C	0.788979	-0.552560	-0.218503
C70	C	0.722114	-0.979494	-0.285264
C71	C	0.722122	-1.026412	-0.285254
C72	C	0.789047	-1.026428	-0.218388
C73	C	0.789042	-0.979509	-0.218401
C74	C	0.755571	-0.956043	-0.251837
C75	C	0.788967	-0.454035	-0.218535
C76	C	0.788960	-0.407115	-0.218553
C77	C	0.722033	-0.407103	-0.285416
C78	C	0.722041	-0.454018	-0.285400
C79	C	0.755510	-0.477483	-0.251955
O80	O	0.693623	-0.528236	-0.313800
O81	O	0.817427	-0.528300	-0.190073
C82	C	0.789001	-0.740225	-0.218453
C83	C	0.755541	-0.763673	-0.251876
C84	C	0.722076	-0.740206	-0.285313
C85	C	0.755549	-0.810591	-0.251867
C86	C	0.789013	-0.834058	-0.218430
C87	C	0.822471	-0.810607	-0.185003
C88	C	0.822466	-0.763692	-0.185017
C89	C	0.688619	-0.763657	-0.318740
C90	C	0.688627	-0.810573	-0.318724
C91	C	0.722092	-0.834040	-0.285288
C92	C	0.891848	-0.216565	-0.252018
C93	C	0.949962	-0.216577	-0.252028
C94	C	0.755387	-0.216515	-0.387839
C95	C	0.755398	-0.216521	-0.445953
C96	C	0.755491	-0.099813	-0.251963
C97	C	0.755587	-0.049879	-0.251818
C98	C	0.788999	-0.187858	-0.806310
C99	C	0.789020	-0.187864	-0.860914
O100	O	0.817498	-0.163471	-0.889146
N101	N	0.755567	-0.216565	-0.888235
C102	C	0.722096	-0.245265	-0.860949
O103	O	0.693644	-0.269679	-0.889201
C104	C	0.722079	-0.245261	-0.806345
C105	C	0.755530	-0.216555	-0.779027
C106	C	0.822448	-0.159154	-0.778991
C107	C	0.822427	-0.159148	-0.724391
C108	C	0.788957	-0.187845	-0.697109
C109	C	0.755509	-0.216548	-0.724427
C110	C	0.688611	-0.273963	-0.779060
C111	C	0.688597	-0.273957	-0.724453
C112	C	0.722047	-0.245251	-0.697135
C113	C	0.722018	-0.245239	-0.642544
N114	N	0.755470	-0.216538	-0.615223
C115	C	0.788940	-0.187841	-0.642505
C116	C	0.722135	-0.245272	-0.975619
C117	C	0.722150	-0.245274	-1.030222
C118	C	0.789074	-0.187873	-1.030183
C119	C	0.789057	-0.187869	-0.975580
C120	C	0.755588	-0.216571	-0.948298
C121	C	0.788893	-0.187829	-0.527840
C122	C	0.788867	-0.187824	-0.473235
C123	C	0.721945	-0.245226	-0.473278
C124	C	0.721968	-0.245230	-0.527879
C125	C	0.755447	-0.216530	-0.555158
O126	O	0.693556	-0.269621	-0.614278
O127	O	0.817392	-0.163436	-0.614246
C128	C	0.755578	-0.216566	-0.115623
C129	C	0.755621	-0.216579	-0.057509
H130	H	-0.044962	-0.164541	-0.191270
Cl131	Cl	0.317350	-0.123122	-0.142910
Cl132	Cl	0.066178	-0.151828	-0.176418
Cl133	Cl	0.194127	-0.123138	-0.142918
Cl134	Cl	0.831110	-0.950036	-0.176378
Cl135	Cl	0.194109	-0.309976	-0.361064
H136	H	0.457385	-0.164483	-0.191222
Cl137	Cl	0.864535	-0.734221	-0.142993
Cl138	Cl	0.646561	-0.310059	-0.813390
Cl139	Cl	0.680089	-0.281358	-1.064558
H140	H	0.849721	-0.829722	-0.157780
H141	H	0.054098	-0.268596	-0.312778
H142	H	0.694859	-0.960392	-0.312495
Cl143	Cl	0.317339	-0.309962	-0.361062
Cl144	Cl	0.680051	-0.281354	-0.941328
H145	H	0.556450	-0.164473	-0.191220
H146	H	0.849707	-0.688963	-0.157813
H147	H	0.816296	-0.164495	-0.953341
Cl148	Cl	0.680060	-1.055884	-0.327285
Cl149	Cl	0.568526	-0.281232	-0.327574
H150	H	0.661348	-0.688905	-0.345982
H151	H	0.661343	-0.297331	-0.702243
H152	H	0.816296	-1.045542	-0.191163
Cl153	Cl	0.679964	-0.377593	-0.327447
H154	H	0.661331	-0.603797	-0.345993
Cl155	Cl	-0.057062	-0.281304	-0.327620
Cl156	Cl	0.445296	-0.281256	-0.327576
H157	H	0.661378	-0.829660	-0.345948
Cl158	Cl	0.831032	-0.377640	-0.176530
Cl159	Cl	0.646544	-0.734163	-0.360779
Cl160	Cl	0.830923	-0.151733	-0.438895
Cl161	Cl	0.830979	-0.151748	-0.562126
Cl162	Cl	0.864490	-0.123065	-0.690056
H163	H	0.816329	-0.164508	-1.052406
H164	H	0.849706	-0.135786	-0.801199
H165	H	0.816218	-0.473134	-0.191299
Cl166	Cl	0.679874	-0.281303	-0.438970
Cl167	Cl	0.864518	-0.593474	-0.143031
Cl168	Cl	0.679976	-0.483497	-0.327424
Cl169	Cl	0.679905	-0.281309	-0.562223
