data_functionalizedCrystal
_audit_creation_method	'MofGen! by Chris Wilmer'
_symmetry_space_group_name_H-M	'P1'
_symmetry_Int_Tables_number	1
_symmetry_cell_setting	triclinic
loop_
_symmetry_equiv_pos_as_xyz
  x,y,z
_cell_length_a	16.120490
_cell_length_b	12.594515
_cell_length_c	16.120297
_cell_angle_alpha	92.876747
_cell_angle_beta	89.870317
_cell_angle_gamma	92.879353
loop_
_atom_site_label
_atom_site_type_symbol
_atom_site_fract_x
_atom_site_fract_y
_atom_site_fract_z
Zn1	Zn	1.247412	0.539329	0.534565
Zn2	Zn	1.580745	0.872663	0.867898
Zn3	Zn	1.914079	1.205996	1.201232
Zn4	Zn	1.254352	0.708771	0.395517
Zn5	Zn	1.587685	1.042104	0.728850
Zn6	Zn	1.921018	1.375438	1.062183
Zn7	Zn	1.115403	0.521334	0.388485
Zn8	Zn	1.448736	0.854667	0.721818
Zn9	Zn	1.782069	1.188001	1.055152
Zn10	Zn	1.108307	0.707781	0.527490
Zn11	Zn	1.441641	1.041114	0.860823
Zn12	Zn	1.774974	1.374447	1.194156
O13	O	1.181368	0.619304	0.461514
O14	O	1.514702	0.952637	0.794847
O15	O	1.848035	1.285970	1.128181
O16	O	1.364699	0.569752	0.522024
O17	O	1.698032	0.903085	0.855357
O18	O	2.031365	1.236418	1.188690
O19	O	1.241793	0.676790	0.278218
O20	O	1.575127	1.010124	0.611551
O21	O	1.908460	1.343457	0.944885
O22	O	1.132979	0.374781	0.407881
O23	O	1.466312	0.708114	0.741215
O24	O	1.799646	1.041447	1.074548
O25	O	1.369797	0.694240	0.419866
O26	O	1.703131	1.027573	0.753199
O27	O	2.036464	1.360906	1.086532
O28	O	1.229966	0.388002	0.515206
O29	O	1.563299	0.721335	0.848539
O30	O	1.896632	1.054668	1.181872
O31	O	1.139708	0.539081	0.273052
O32	O	1.473042	0.872415	0.606385
O33	O	1.806375	1.205748	0.939719
O34	O	0.998095	0.538121	0.401021
O35	O	1.331428	0.871455	0.734354
O36	O	1.664762	1.204788	1.067687
O37	O	1.120886	0.692552	0.644794
O38	O	1.454219	1.025885	0.978127
O39	O	1.787553	1.359218	1.311461
O40	O	0.992882	0.675103	0.503146
O41	O	1.326215	1.008436	0.836480
O42	O	1.659549	1.341769	1.169813
O43	O	1.223086	0.568791	0.649992
O44	O	1.556419	0.902125	0.983326
O45	O	1.889752	1.235458	1.316659
O46	O	1.234913	0.857580	0.413005
O47	O	1.568247	1.190913	0.746338
O48	O	1.901580	1.524247	1.079672
O49	O	1.127615	0.856852	0.509965
O50	O	1.460949	1.190186	0.843298
O51	O	1.794282	1.523519	1.176631
C52	C	0.965316	0.604553	0.450553
C53	C	1.298649	0.937886	0.783887
C54	C	1.631983	1.271219	1.117220
C55	C	0.872887	0.598269	0.445884
C56	C	1.206220	0.931602	0.779217
C57	C	1.539554	1.264935	1.112550
C58	C	0.659922	0.651891	0.485736
C59	C	0.993255	0.985224	0.819070
C60	C	1.326588	1.318557	1.152403
C61	C	0.703663	0.586806	0.437357
C62	C	1.036996	0.920139	0.770691
C63	C	1.370330	1.253472	1.104024
C64	C	0.797828	0.593186	0.442103
C65	C	1.131161	0.926519	0.775436
C66	C	1.464495	1.259852	1.108770
C67	C	0.565748	0.645512	0.480992
C68	C	0.899081	0.978846	0.814325
C69	C	1.232415	1.312179	1.147659
C70	C	1.181269	0.895837	0.461499
C71	C	1.514602	1.229171	0.794833
C72	C	1.847936	1.562504	1.128166
C73	C	1.181301	1.014147	0.461525
C74	C	1.514635	1.347480	0.794858
C75	C	1.847968	1.680813	1.128191
C76	C	1.122970	1.153806	0.514235
C77	C	1.456303	1.487140	0.847569
C78	C	1.789636	1.820473	1.180902
C79	C	1.197755	1.089320	0.538475
C80	C	1.531088	1.422653	0.871808
C81	C	1.864421	1.755987	1.205141
C82	C	1.106522	1.077064	0.437323
C83	C	1.439855	1.410397	0.770656
C84	C	1.773189	1.743731	1.103989
C85	C	1.256230	1.160460	0.485843
C86	C	1.589564	1.493794	0.819177
C87	C	1.922897	1.827127	1.152510
C88	C	1.164948	1.148205	0.384653
C89	C	1.498282	1.481538	0.717987
C90	C	1.831615	1.814871	1.051320
C91	C	1.239787	1.083752	0.408867
C92	C	1.573121	1.417085	0.742200
C93	C	1.906454	1.750419	1.075533
C94	C	1.398264	0.634113	0.472518
C95	C	1.731598	0.967447	0.805852
C96	C	2.064931	1.300780	1.139185
C97	C	1.490692	0.640424	0.477208
C98	C	1.824026	0.973758	0.810541
C99	C	2.157359	1.307091	1.143874
C100	C	1.170420	0.632568	0.678409
C101	C	1.503754	0.965902	1.011743
C102	C	1.837087	1.299235	1.345076
C103	C	1.165755	0.638221	0.770837
C104	C	1.499088	0.971554	1.104170
C105	C	1.832422	1.304888	1.437504
C106	C	1.181456	1.341691	0.461548
C107	C	1.514789	1.675024	0.794881
C108	C	1.848122	2.008357	1.128215
C109	C	1.181406	1.223383	0.461562
C110	C	1.514740	1.556716	0.794896
C111	C	1.848073	1.890050	1.128229
C112	C	1.192322	0.606017	0.245465
C113	C	1.525655	0.939350	0.578798
C114	C	1.858988	1.272684	0.912132
C115	C	1.197148	0.600076	0.153046
C116	C	1.530482	0.933409	0.486379
C117	C	1.863815	1.266742	0.819713
C118	C	1.157206	0.648515	0.940062
C119	C	1.490540	0.981849	1.273396
C120	C	1.823873	1.315182	1.606729
C121	C	1.205694	0.589784	0.983826
C122	C	1.539027	0.923118	1.317159
C123	C	1.872361	1.256451	1.650492
C124	C	1.200938	0.595512	1.077989
C125	C	1.534271	0.928846	1.411322
C126	C	1.867604	1.262179	1.744655
C127	C	1.161962	0.642789	0.845891
C128	C	1.495295	0.976122	1.179224
C129	C	1.828628	1.309456	1.512558
H130	H	1.073652	1.184582	0.558834
H131	H	1.406986	1.517916	0.892167
H132	H	1.740319	1.851249	1.225500
O133	O	1.097494	0.720816	0.984104
O134	O	1.430827	1.054149	1.317438
O135	O	1.764160	1.387482	1.650771
H136	H	1.062701	0.762957	0.937522
H137	H	1.396034	1.096290	1.270855
H138	H	1.729367	1.429623	1.604189
H139	H	1.043238	1.040639	0.416838
H140	H	1.376571	1.373972	0.750171
H141	H	1.709904	1.707306	1.083504
O142	O	1.305259	1.043253	0.349847
O143	O	1.638593	1.376587	0.683181
O144	O	1.971926	1.709920	1.016514
H145	H	1.292122	1.067985	0.286268
H146	H	1.625455	1.401318	0.619601
H147	H	1.958789	1.734651	0.952935
O148	O	0.659602	0.506663	0.377756
O149	O	0.992935	0.839996	0.711089
O150	O	1.326269	1.173330	1.044422
H151	H	0.591484	0.514177	0.383323
H152	H	0.924817	0.847511	0.716656
H153	H	1.258150	1.180844	1.049989
O154	O	1.216150	1.054789	0.624602
O155	O	1.549483	1.388122	0.957935
O156	O	1.882817	1.721456	1.291269
H157	H	1.216532	0.966634	0.623663
H158	H	1.549865	1.299967	0.956997
H159	H	1.883198	1.633300	1.290330
O160	O	0.703983	0.732029	0.545333
O161	O	1.037316	1.065363	0.878666
O162	O	1.370649	1.398696	1.211999
H163	H	0.772100	0.724518	0.539754
H164	H	1.105434	1.057852	0.873087
H165	H	1.438767	1.391185	1.206420
H166	H	1.319530	1.196758	0.506404
H167	H	1.652863	1.530091	0.839737
H168	H	1.986196	1.863425	1.173071
H169	H	1.151044	1.174289	0.319646
H170	H	1.484377	1.507623	0.652979
H171	H	1.817710	1.840956	0.986313
H172	H	1.250777	0.535200	0.950574
H173	H	1.584111	0.868533	1.283907
H174	H	1.917444	1.201867	1.617241
