data_functionalizedCrystal
_audit_creation_method	'MofGen! by Chris Wilmer'
_symmetry_space_group_name_H-M	'P1'
_symmetry_Int_Tables_number	1
_symmetry_cell_setting	triclinic
loop_
_symmetry_equiv_pos_as_xyz
  x,y,z
_cell_length_a	10.489746
_cell_length_b	8.965430
_cell_length_c	14.519709
_cell_angle_alpha	90.000526
_cell_angle_beta	84.110723
_cell_angle_gamma	90.000925
loop_
_atom_site_label
_atom_site_type_symbol
_atom_site_fract_x
_atom_site_fract_y
_atom_site_fract_z
O1	O	1.692693	0.123943	0.130130
O2	O	1.321371	0.123968	0.142339
O3	O	1.516877	0.123941	0.002050
O4	O	1.497187	0.123969	0.270419
O5	O	1.516861	-0.124138	0.002059
O6	O	1.321355	-0.124111	0.142348
O7	O	1.692677	-0.124136	0.130140
Cu8	Cu	1.507014	-0.146775	0.136245
Cu9	Cu	1.507034	0.146607	0.136234
O10	O	1.497171	-0.124109	0.270428
C11	C	1.273841	-0.000068	0.141420
C12	C	1.132241	-0.000059	0.138659
C13	C	0.980330	-0.000090	0.047762
C14	C	1.057242	-0.122396	0.093211
C15	C	1.057214	0.122190	0.093223
C16	C	0.956854	-0.122504	0.179233
C17	C	0.956820	0.122192	0.179233
C18	C	1.033683	-0.000144	0.224745
N19	N	1.507010	-0.353124	0.136252
C20	C	1.416567	-0.450418	0.201109
C21	C	1.531869	-0.549837	0.219772
C22	C	1.391757	-0.549832	0.117598
C23	C	1.622370	-0.450355	0.154956
C24	C	1.482182	-0.450341	0.052746
C25	C	1.597567	-0.549716	0.071373
C26	C	1.740207	-0.000097	0.131058
C27	C	1.881807	-0.000096	0.133820
C28	C	1.515951	-0.000098	-0.032310
C29	C	1.513201	-0.000099	-0.134707
N30	N	1.507048	0.352956	0.136219
C31	C	1.503078	-0.000060	-0.509658
C32	C	1.505889	-0.000071	-0.405334
C33	C	1.508139	-0.000081	-0.322185
C34	C	1.510951	-0.000089	-0.217856
C35	C	1.498096	-0.000066	0.304789
C36	C	1.500846	-0.000056	0.407185
H37	H	0.956389	-0.000221	-0.027068
H38	H	0.912948	0.225609	0.215525
Br39	Br	1.229281	-0.622672	0.091322
Br40	Br	1.130320	-0.294763	0.032672
H41	H	1.719875	-0.406842	0.170804
H42	H	0.913189	-0.226025	0.215542
Br43	Br	1.073175	-0.000228	0.349561
Br44	Br	1.566920	-0.622678	0.337450
Br45	Br	1.725206	-0.621940	-0.020072
Br46	Br	1.447079	-0.377437	-0.064900
Br47	Br	1.130270	0.294533	0.032641
H48	H	1.340152	-0.406819	0.256008
