data_functionalizedCrystal
_audit_creation_method	'MofGen! by Chris Wilmer'
_symmetry_space_group_name_H-M	'P1'
_symmetry_Int_Tables_number	1
_symmetry_cell_setting	triclinic
loop_
_symmetry_equiv_pos_as_xyz
  x,y,z
_cell_length_a	16.992694
_cell_length_b	10.489741
_cell_length_c	15.455313
_cell_angle_alpha	92.692689
_cell_angle_beta	87.142206
_cell_angle_gamma	87.603699
loop_
_atom_site_label
_atom_site_type_symbol
_atom_site_fract_x
_atom_site_fract_y
_atom_site_fract_z
O1	O	1.045321	0.265388	-0.072021
O2	O	1.545321	0.765388	0.427979
O3	O	0.817021	0.262418	-0.072047
O4	O	1.317021	0.762418	0.427953
O5	O	0.936366	0.078758	-0.072028
O6	O	1.436366	0.578758	0.427972
O7	O	0.925976	0.449049	-0.072040
O8	O	1.425976	0.949049	0.427960
O9	O	0.929541	0.089214	0.072233
O10	O	1.429541	0.589214	0.572233
O11	O	0.810196	0.272874	0.072214
O12	O	1.310196	0.772874	0.572214
O13	O	1.038496	0.275845	0.072240
O14	O	1.538496	0.775845	0.572240
Cu15	Cu	0.923723	0.275314	0.085399
Cu16	Cu	1.423723	0.775314	0.585399
Cu17	Cu	0.931794	0.262948	-0.085206
Cu18	Cu	1.431794	0.762948	0.414794
O19	O	0.919151	0.459505	0.072221
O20	O	1.419151	0.959505	0.572221
C21	C	0.784374	0.263826	0.000081
C22	C	1.284374	0.763826	0.500081
C23	C	0.697266	0.252430	0.000071
C24	C	1.197266	0.752430	0.500071
C25	C	0.647647	0.362380	0.000068
C26	C	1.147647	0.862380	0.500068
C27	C	0.565799	0.351666	0.000081
C28	C	1.065799	0.851666	0.500081
C29	C	0.533573	0.231001	0.000089
C30	C	1.033573	0.731001	0.500089
C31	C	0.583198	0.121044	0.000095
C32	C	1.083198	0.621044	0.500095
C33	C	0.665044	0.131759	0.000089
C34	C	1.165044	0.631759	0.500089
C35	C	0.289723	0.186590	0.000114
C36	C	0.789723	0.686590	0.500114
C37	C	0.207871	0.175882	0.000117
C38	C	0.707871	0.675882	0.500117
C39	C	0.190477	0.406505	0.000105
C40	C	0.690477	0.906505	0.500105
C41	C	0.272325	0.417210	0.000094
C42	C	0.772325	0.917210	0.500094
C43	C	0.321944	0.307253	0.000104
C44	C	0.821944	0.807253	0.500104
N45	N	0.449911	0.220047	0.000099
N46	N	0.949911	0.720047	0.500099
N47	N	0.405603	0.318209	0.000100
N48	N	0.905603	0.818209	0.500100
C49	C	0.932168	0.036386	0.000102
C50	C	1.432168	0.536386	0.500102
C51	C	0.929821	-0.105448	0.000100
C52	C	1.429821	0.394552	0.500100
C53	C	0.853885	-0.180195	0.000085
C54	C	1.353885	0.319805	0.500085
C55	C	0.886392	-0.264041	0.071217
C56	C	1.386392	0.235959	0.571217
C57	C	0.893138	-0.274324	-0.071013
C58	C	1.393138	0.225676	0.428987
C59	C	0.962356	-0.187422	0.071291
C60	C	1.462356	0.312578	0.571291
C61	C	0.969095	-0.197700	-0.071003
C62	C	1.469095	0.302300	0.428997
C63	C	1.001656	-0.281512	0.000146
C64	C	1.501656	0.218488	0.500146
C65	C	1.071143	0.274436	0.000111
C66	C	1.571143	0.774436	0.500111
C67	C	1.158251	0.285832	0.000115
C68	C	1.658251	0.785832	0.500115
C69	C	0.923349	0.501877	0.000090
C70	C	1.423349	1.001877	0.500090
C71	C	0.925697	0.643710	0.000086
C72	C	1.425697	1.143710	0.500086
N73	N	0.918052	0.284011	0.205394
N74	N	1.418052	0.784011	0.705394
N75	N	0.937472	0.254242	-0.205201
N76	N	1.437472	0.754242	0.294799
C77	C	0.968772	0.206019	0.250796
C78	C	1.468772	0.706019	0.750796
C79	C	0.964490	0.212608	0.341603
C80	C	1.464490	0.712608	0.841603
C81	C	0.909492	0.297199	0.387007
C82	C	1.409492	0.797199	0.887007
C83	C	0.858766	0.375195	0.341598
C84	C	1.358766	0.875195	0.841598
C85	C	0.863045	0.368597	0.250793
C86	C	1.363045	0.868597	0.750793
C87	C	0.891025	0.325640	0.658585
C88	C	1.391025	0.825640	1.158585
C89	C	0.886752	0.332234	0.749397
C90	C	1.386752	0.832234	1.249397
C91	C	0.992475	0.169646	0.749396
C92	C	1.492475	0.669646	1.249396
C93	C	0.996751	0.163062	0.658589
C94	C	1.496751	0.663062	1.158589
C95	C	0.946023	0.241053	0.613188
C96	C	1.446023	0.741053	1.113188
N97	N	0.905116	0.303939	0.479826
N98	N	1.405116	0.803939	0.979826
N99	N	0.950396	0.234305	0.520370
N100	N	1.450396	0.734305	1.020370
H101	H	0.330113	0.097055	0.000123
H102	H	0.830113	0.597055	0.500123
F103	F	0.800228	0.465217	0.389921
F104	F	1.300228	0.965217	0.889921
F105	F	1.000596	-0.137773	0.149982
F106	F	1.500596	0.362227	0.649982
H107	H	1.004043	-0.168221	-0.131136
H108	H	1.504043	0.331779	0.368864
F109	F	0.717853	0.014736	0.000095
F110	F	1.217853	0.514736	0.500095
F111	F	0.137664	0.523521	0.000096
F112	F	0.637664	1.023521	0.500096
F113	F	0.828212	0.422275	0.797714
F114	F	1.328212	0.922275	1.297714
H115	H	1.005790	0.149100	0.378569
H116	H	1.505790	0.649100	0.878569
F117	F	0.854843	-0.324176	-0.149612
F118	F	1.354843	0.175824	0.350388
H119	H	0.791448	-0.135971	0.000150
H120	H	1.291448	0.364029	0.500150
F121	F	0.809059	0.451605	0.202474
F122	F	1.309059	0.951605	0.702474
F123	F	0.840678	-0.302533	0.149813
F124	F	1.340678	0.197467	0.649813
F125	F	1.046458	0.086645	0.797720
F126	F	1.546458	0.586645	1.297720
F127	F	1.055287	0.073033	0.610268
F128	F	1.555287	0.573033	1.110268
F129	F	0.681937	0.490808	0.000053
F130	F	1.181937	0.990808	0.500053
H131	H	1.064144	-0.325496	0.000193
H132	H	1.564144	0.174504	0.500193
H133	H	0.556953	0.022797	0.000114
H134	H	1.056953	0.522797	0.500114
H135	H	0.849721	0.389146	0.621627
H136	H	1.349721	0.889146	1.121627
F137	F	0.173575	0.047450	0.000142
F138	F	0.673575	0.547450	0.500142
H139	H	0.525401	0.441198	0.000077
H140	H	1.025401	0.941198	0.500077
H141	H	0.298558	0.515467	0.000076
H142	H	0.798558	1.015467	0.500076
F143	F	1.027313	0.115992	0.202483
F144	F	1.527313	0.615992	0.702483
