data_functionalizedCrystal
_audit_creation_method	'MofGen! by Chris Wilmer'
_symmetry_space_group_name_H-M	'P1'
_symmetry_Int_Tables_number	1
_symmetry_cell_setting	triclinic
loop_
_symmetry_equiv_pos_as_xyz
  x,y,z
_cell_length_a	15.995350
_cell_length_b	16.109301
_cell_length_c	14.586319
_cell_angle_alpha	89.999213
_cell_angle_beta	90.001560
_cell_angle_gamma	96.523072
loop_
_atom_site_label
_atom_site_type_symbol
_atom_site_fract_x
_atom_site_fract_y
_atom_site_fract_z
O1	O	0.107624	-1.103160	0.076178
O2	O	0.607624	-0.603160	0.576178
O3	O	0.121018	-0.861101	0.076192
O4	O	0.621018	-0.361101	0.576192
O5	O	-0.007569	-0.988747	0.076184
O6	O	0.492431	-0.488747	0.576184
O7	O	0.236210	-0.975514	0.076186
O8	O	0.736210	-0.475514	0.576186
O9	O	-0.007570	-0.988739	-0.076297
O10	O	0.492430	-0.488739	0.423703
O11	O	0.121016	-0.861093	-0.076289
O12	O	0.621016	-0.361093	0.423711
O13	O	0.107622	-1.103151	-0.076303
O14	O	0.607622	-0.603151	0.423697
Cu15	Cu	0.114319	-0.982121	-0.090219
Cu16	Cu	0.614319	-0.482121	0.409781
Cu17	Cu	0.114321	-0.982131	0.090107
Cu18	Cu	0.614321	-0.482131	0.590107
O19	O	0.236208	-0.975505	-0.076295
O20	O	0.736208	-0.475505	0.423705
C21	C	0.120474	-0.830122	-0.000047
C22	C	0.620474	-0.330122	0.499953
C23	C	0.118848	-0.737826	-0.000041
C24	C	0.618848	-0.237826	0.499959
C25	C	-0.038764	-0.988196	-0.000055
C26	C	0.461236	-0.488196	0.499945
C27	C	-0.131714	-0.986556	-0.000050
C28	C	0.368286	-0.486556	0.499950
N29	N	0.114317	-0.982120	-0.217050
N30	N	0.614317	-0.482120	0.282950
C31	C	-0.469460	-0.980665	-0.000053
C32	C	0.030540	-0.480665	0.499947
C33	C	-0.422001	-0.889758	0.000295
C34	C	0.077999	-0.389758	0.500295
C35	C	-0.325311	-0.891399	-0.000049
C36	C	0.174689	-0.391399	0.499951
C37	C	-0.301900	-0.983587	-0.000051
C38	C	0.198100	-0.483587	0.499949
C39	C	-0.342991	-1.028421	-0.087126
C40	C	0.157009	-0.528421	0.412874
C41	C	-0.439626	-1.026137	-0.087198
C42	C	0.060374	-0.526137	0.412802
C43	C	-0.439983	-1.028025	0.086201
C44	C	0.060017	-0.528025	0.586201
C45	C	-0.343037	-1.028003	0.087351
C46	C	0.156963	-0.528003	0.587351
C47	C	-0.207203	-0.985243	-0.000053
C48	C	0.292797	-0.485243	0.499947
C49	C	-0.564157	-0.979012	-0.000057
C50	C	-0.064157	-0.479012	0.499943
C51	C	0.267404	-0.976056	-0.000054
C52	C	0.767404	-0.476056	0.499946
C53	C	0.360354	-0.977697	-0.000053
C54	C	0.860354	-0.477697	0.499947
C55	C	0.108166	-1.134130	-0.000062
C56	C	0.608166	-0.634130	0.499938
C57	C	0.109792	-1.226426	-0.000062
C58	C	0.609792	-0.726426	0.499938
C59	C	0.191366	-0.515573	-0.000051
C60	C	0.691366	-0.015573	0.499949
C61	C	0.189831	-0.428853	-0.000057
C62	C	0.689831	0.071147	0.499943
C63	C	0.037268	-0.448686	-0.000055
C64	C	0.537268	0.051314	0.499945
C65	C	0.038804	-0.535405	-0.000055
C66	C	0.538804	-0.035405	0.499945
C67	C	0.115855	-0.568846	-0.000049
C68	C	0.615855	-0.068846	0.499951
C69	C	0.112785	-0.395406	-0.000054
C70	C	0.612785	0.104594	0.499946
C71	C	0.111120	-0.301380	-0.000061
C72	C	0.611120	0.198620	0.499939
C73	C	0.117520	-0.662879	-0.000044
C74	C	0.617520	-0.162879	0.499956
C75	C	0.057398	-1.038660	-0.452061
C76	C	0.557398	-0.538660	0.047939
C77	C	0.057396	-1.038662	-0.548042
C78	C	0.557396	-0.538662	-0.048042
C79	C	0.171238	-0.925593	-0.548044
C80	C	0.671238	-0.425593	-0.048044
C81	C	0.171236	-0.925587	-0.452064
C82	C	0.671236	-0.425587	0.047936
C83	C	0.114316	-0.982125	-0.404075
C84	C	0.614316	-0.482125	0.095925
C85	C	0.114317	-0.982134	-0.596036
C86	C	0.614317	-0.482134	-0.096036
C87	C	0.114315	-0.982136	-0.700103
C88	C	0.614315	-0.482136	-0.200103
C89	C	0.114317	-0.982122	-0.300001
C90	C	0.614317	-0.482122	0.199999
N91	N	0.114317	-0.982139	0.216939
N92	N	0.614317	-0.482139	0.716939
H93	H	-0.296879	-0.856156	0.062370
H94	H	0.203121	-0.356156	0.562370
Cl95	Cl	-0.056132	-0.602382	-0.000060
Cl96	Cl	0.443868	-0.102382	0.499940
Cl97	Cl	-0.014164	-1.109736	-0.608364
Cl98	Cl	0.485836	-0.609736	-0.108364
Cl99	Cl	-0.059591	-0.406639	-0.000057
Cl100	Cl	0.440409	0.093361	0.499943
H101	H	0.011050	-1.084696	-0.412990
H102	H	0.511050	-0.584696	0.087010
Cl103	Cl	-0.471667	-0.982134	0.188097
Cl104	Cl	0.028333	-0.482134	0.688097
Cl105	Cl	-0.319345	-1.131799	0.095474
Cl106	Cl	0.180655	-0.631799	0.595474
H107	H	0.217582	-0.879562	-0.587126
H108	H	0.717582	-0.379562	-0.087126
Cl109	Cl	0.284764	-0.361884	-0.000061
Cl110	Cl	0.784764	0.138116	0.499939
H111	H	-0.314602	-0.997274	-0.151923
H112	H	0.185398	-0.497274	0.348077
Cl113	Cl	-0.300463	-0.977811	0.186821
Cl114	Cl	0.199537	-0.477811	0.686821
H115	H	0.217586	-0.879546	-0.412992
H116	H	0.717586	-0.379546	0.087008
H117	H	-0.440522	-0.853427	0.062738
H118	H	0.059478	-0.353427	0.562738
Cl119	Cl	-0.282270	-0.836607	-0.096576
Cl120	Cl	0.217730	-0.336607	0.403424
Cl121	Cl	-0.452595	-0.833747	-0.095286
Cl122	Cl	0.047405	-0.333747	0.404714
H123	H	-0.457919	-0.993437	-0.152287
H124	H	0.042081	-0.493437	0.347713
H125	H	-0.328884	-1.096149	-0.090365
H126	H	0.171116	-0.596149	0.409635
Cl127	Cl	-0.489447	-1.129178	-0.093313
Cl128	Cl	0.010553	-0.629178	0.406687
H129	H	-0.471762	-1.095050	0.086785
H130	H	0.028238	-0.595050	0.586785
Cl131	Cl	0.288230	-0.557611	-0.000049
Cl132	Cl	0.788230	-0.057611	0.499951
