data_functionalizedCrystal
_audit_creation_method	'MofGen! by Chris Wilmer'
_symmetry_space_group_name_H-M	'P1'
_symmetry_Int_Tables_number	1
_symmetry_cell_setting	triclinic
loop_
_symmetry_equiv_pos_as_xyz
  x,y,z
_cell_length_a	11.026607
_cell_length_b	23.532416
_cell_length_c	10.065875
_cell_angle_alpha	98.736444
_cell_angle_beta	79.302338
_cell_angle_gamma	95.719132
loop_
_atom_site_label
_atom_site_type_symbol
_atom_site_fract_x
_atom_site_fract_y
_atom_site_fract_z
O1	O	-1.625139	-0.231644	0.113478
O2	O	-1.272159	-0.204521	0.113482
O3	O	-1.459288	-0.136270	0.113480
O4	O	-1.438011	-0.299895	0.113481
O5	O	-1.423604	-0.149351	-0.113509
O6	O	-1.236475	-0.217603	-0.113506
O7	O	-1.589456	-0.244725	-0.113510
Zn8	Zn	-1.407300	-0.233241	-0.149547
Zn9	Zn	-1.454315	-0.216005	0.149519
O10	O	-1.402327	-0.312976	-0.113508
C11	C	-1.209166	-0.206058	-0.000012
C12	C	-1.074631	-0.191142	-0.000010
C13	C	-1.440903	-0.121537	-0.000012
C14	C	-1.439270	-0.058148	-0.000003
N15	N	-1.375222	-0.245004	-0.353653
C16	C	-1.652449	-0.243188	-0.000013
C17	C	-1.786985	-0.258103	-0.000006
C18	C	-1.000332	-0.232327	-0.000009
C19	C	-0.861283	-0.216912	-0.000007
C20	C	-1.451772	0.222957	0.123727
C21	C	-1.453289	0.163398	0.123729
O22	O	-1.470659	0.138650	0.228954
N23	N	-1.434589	0.126486	-0.000004
C24	C	-1.414382	0.149136	-0.123746
O25	O	-1.398617	0.112270	-0.228990
C26	C	-1.412873	0.208694	-0.123747
C27	C	-1.431563	0.245604	-0.000006
C28	C	-1.470461	0.259866	0.247458
C29	C	-1.468941	0.319422	0.247455
C30	C	-1.448732	0.342068	0.123722
C31	C	-1.430043	0.305159	-0.000008
C32	C	-1.392675	0.231342	-0.247488
C33	C	-1.391169	0.290905	-0.247478
C34	C	-1.409858	0.327815	-0.123737
C35	C	-1.408313	0.387361	-0.123744
N36	N	-1.427014	0.424273	-0.000011
C37	C	-1.447223	0.401626	0.123722
C38	C	-1.417554	0.024060	-0.123736
C39	C	-1.419054	-0.035497	-0.123737
C40	C	-1.457964	-0.021231	0.123738
C41	C	-1.456455	0.038328	0.123738
C42	C	-1.436255	0.060972	-0.000004
C43	C	-1.444028	0.526697	0.123708
C44	C	-1.442501	0.586257	0.123694
C45	C	-1.403598	0.571986	-0.123780
C46	C	-1.405119	0.512431	-0.123768
C47	C	-1.425339	0.489788	-0.000013
O48	O	-1.390957	0.412149	-0.228915
O49	O	-1.463001	0.438497	0.228948
C50	C	-1.420699	0.672292	-0.000020
C51	C	-1.422292	0.608903	-0.000039
C52	C	-1.443146	-0.220094	-0.421432
C53	C	-1.418468	-0.229152	-0.578599
N54	N	-1.486402	-0.204239	0.353625
H55	H	-0.821962	-0.170235	0.000027
C56	C	-0.782142	-0.354961	-0.116685
C57	C	-0.840072	-0.321113	-0.000002
H58	H	-0.814926	-0.393858	-0.116682
H59	H	-0.695675	-0.352872	-0.116673
H60	H	-0.796556	-0.341114	-0.195835
H61	H	-0.825650	-0.334958	0.079148
H62	H	-0.926560	-0.323205	-0.000002
C63	C	-0.894077	-0.125059	0.000002
C64	C	-1.021549	-0.128134	-0.000003
H65	H	-0.861314	-0.086158	0.000016
H66	H	-0.854790	-0.148020	-0.079151
H67	H	-0.879681	-0.138905	0.079161
H68	H	-1.035945	-0.114292	-0.079168
H69	H	-1.060849	-0.105165	0.079158
H70	H	-1.562825	-0.176202	-0.588055
H71	H	-1.389852	0.482379	-0.224528
H72	H	-1.039663	-0.279000	-0.000016
H73	H	-1.457716	0.616308	0.224463
C74	C	-1.497446	0.078473	-0.267353
C75	C	-1.395314	0.048952	-0.259762
H76	H	-1.483713	0.093835	-0.351332
H77	H	-1.508361	0.108978	-0.193677
H78	H	-1.569525	0.052621	-0.262222
H79	H	-1.323236	0.074805	-0.264883
H80	H	-1.384384	0.018444	-0.333459
H81	H	-1.342036	-0.257185	-0.636919
C82	C	-1.482315	0.546798	0.368328
C83	C	-1.466242	0.501815	0.259740
H84	H	-1.496015	0.531436	0.452305
H85	H	-1.551598	0.566819	0.363178
H86	H	-1.410221	0.572640	0.363153
H87	H	-1.538340	0.475974	0.264909
H88	H	-1.396952	0.481784	0.264893
C89	C	-1.507620	0.327519	0.492066
C90	C	-1.489539	0.359986	0.383477
H91	H	-1.520358	0.352559	0.576043
H92	H	-1.436709	0.306914	0.486945
H93	H	-1.578070	0.301071	0.486864
H94	H	-1.419083	0.386431	0.388672
H95	H	-1.560457	0.380601	0.388600
C96	C	-1.354135	0.223247	-0.492097
C97	C	-1.372165	0.190780	-0.383510
H98	H	-1.341488	0.198204	-0.576075
H99	H	-1.283659	0.249675	-0.486966
H100	H	-1.425042	0.243873	-0.486900
H101	H	-1.301254	0.170157	-0.388701
H102	H	-1.442648	0.164342	-0.388644
C103	C	-1.502375	-0.115034	-0.267324
C104	C	-1.398494	-0.076064	-0.259755
H105	H	-1.489680	-0.140079	-0.351296
H106	H	-1.573264	-0.094411	-0.262184
H107	H	-1.514617	-0.137047	-0.193634
H108	H	-1.386257	-0.054048	-0.333440
H109	H	-1.327585	-0.096689	-0.264909
H110	H	-1.486922	0.241435	0.348221
C111	C	-1.495028	0.046434	0.368351
C112	C	-1.476985	0.078896	0.259756
H113	H	-1.507704	0.071479	0.452325
H114	H	-1.424127	0.025815	0.363181
H115	H	-1.565504	0.019998	0.363204
H116	H	-1.406503	0.105329	0.264897
H117	H	-1.547893	0.099525	0.264929
H118	H	-1.298795	-0.273034	-0.411978
H119	H	-1.474415	-0.039680	0.224489
C120	C	-1.262694	0.353893	-0.391063
C121	C	-1.368955	0.315796	-0.383501
H122	H	-1.248984	0.369260	-0.475034
H123	H	-1.193423	0.333862	-0.385920
H124	H	-1.273622	0.384399	-0.317371
H125	H	-1.358024	0.285287	-0.457187
H126	H	-1.438243	0.335827	-0.388657
H127	H	-1.387140	0.590435	-0.224521
H128	H	-1.519565	-0.192058	-0.363109
