data_functionalizedCrystal
_audit_creation_method	'MofGen! by Chris Wilmer'
_symmetry_space_group_name_H-M	'P1'
_symmetry_Int_Tables_number	1
_symmetry_cell_setting	triclinic
loop_
_symmetry_equiv_pos_as_xyz
  x,y,z
_cell_length_a	14.044220
_cell_length_b	14.971486
_cell_length_c	14.048226
_cell_angle_alpha	90.001501
_cell_angle_beta	89.992807
_cell_angle_gamma	91.598497
loop_
_atom_site_label
_atom_site_type_symbol
_atom_site_fract_x
_atom_site_fract_y
_atom_site_fract_z
O1	O	0.123538	-1.196679	-0.079053
O2	O	0.138332	-0.937444	-0.079079
O3	O	-0.007054	-1.063171	-0.079057
O4	O	0.268924	-1.070953	-0.079075
O5	O	-0.007063	-1.063153	0.079264
O6	O	0.138323	-0.937427	0.079242
O7	O	0.123529	-1.196662	0.079268
Zn8	Zn	0.130925	-1.067042	0.104392
Zn9	Zn	0.130936	-1.067064	-0.104203
O10	O	0.268915	-1.070936	0.079246
C11	C	0.137666	-0.904059	0.000078
C12	C	0.135683	-0.804606	0.000069
C13	C	-0.042377	-1.059755	0.000104
C14	C	-0.147614	-1.049594	0.000104
C15	C	0.124195	-1.230047	0.000109
C16	C	0.126178	-1.329501	0.000112
C17	C	-0.340297	-1.031018	0.000088
C18	C	-0.397848	-1.103085	0.000093
C19	C	-0.505063	-1.092748	0.000084
C20	C	-0.233071	-1.041353	0.000097
C21	C	0.304238	-1.074351	0.000083
C22	C	0.409475	-1.084512	0.000077
N23	N	0.130916	-1.067033	0.246753
C24	C	0.221093	-0.754109	0.000064
C25	C	0.219225	-0.660662	0.000079
C26	C	0.131945	-0.617714	0.000090
C27	C	0.046528	-0.668218	0.000097
C28	C	0.048398	-0.761663	0.000090
C29	C	0.042638	-0.473449	0.000111
C30	C	0.040767	-0.379997	0.000117
C31	C	0.213465	-0.372448	0.000100
C32	C	0.215334	-0.465893	0.000092
C33	C	0.129917	-0.516390	0.000097
N34	N	0.130937	-1.067080	-0.246564
C35	C	0.066566	-1.122726	0.296581
C36	C	0.066566	-1.122732	0.396238
C37	C	0.130921	-1.067049	0.446066
C38	C	0.195274	-1.011350	0.396232
C39	C	0.195269	-1.011340	0.296576
C40	C	0.195281	-1.011376	0.603946
C41	C	0.195287	-1.011387	0.703609
C42	C	0.066577	-1.122768	0.703608
C43	C	0.066573	-1.122758	0.603953
C44	C	0.130927	-1.067060	0.554125
H45	H	-0.366598	-1.172546	0.000036
H46	H	0.247669	-0.965988	0.256007
Cl47	Cl	-0.014323	-1.192788	0.766252
H48	H	-0.371545	-0.961562	0.000079
H49	H	0.014165	-1.168073	0.256017
H50	H	0.292167	-0.789070	0.000054
H51	H	0.247670	-0.966007	0.436807
Cl52	Cl	-0.064746	-0.536930	0.000119
H53	H	0.288775	-0.619551	0.000074
H54	H	0.283015	-0.331329	0.000099
Cl55	Cl	0.325059	-0.519884	0.000067
H56	H	-0.024537	-0.633242	0.000121
H57	H	-0.030303	-0.345032	0.000127
Cl58	Cl	-0.058980	-0.825145	0.000099
Cl59	Cl	-0.014334	-1.192746	0.458881
Cl60	Cl	-0.014325	-1.192765	0.541310
Cl61	Cl	0.276192	-0.941380	0.766242
H62	H	0.247683	-0.966018	0.563379
