data_functionalizedCrystal
_audit_creation_method	'MofGen! by Chris Wilmer'
_symmetry_space_group_name_H-M	'P1'
_symmetry_Int_Tables_number	1
_symmetry_cell_setting	triclinic
loop_
_symmetry_equiv_pos_as_xyz
  x,y,z
_cell_length_a	15.944551
_cell_length_b	19.288864
_cell_length_c	14.421503
_cell_angle_alpha	89.979999
_cell_angle_beta	90.010110
_cell_angle_gamma	96.682508
loop_
_atom_site_label
_atom_site_type_symbol
_atom_site_fract_x
_atom_site_fract_y
_atom_site_fract_z
O1	O	0.104788	-0.921625	0.077411
O2	O	0.604788	-0.421625	0.577411
O3	O	0.118923	-0.719402	0.077348
O4	O	0.618923	-0.219402	0.577348
O5	O	-0.010441	-0.826036	0.077373
O6	O	0.489559	-0.326036	0.577373
O7	O	0.234151	-0.814991	0.077386
O8	O	0.734151	-0.314991	0.577386
O9	O	-0.010455	-0.826024	-0.076851
O10	O	0.489545	-0.326024	0.423149
O11	O	0.118908	-0.719390	-0.076876
O12	O	0.618908	-0.219390	0.423124
O13	O	0.104773	-0.921614	-0.076812
O14	O	0.604773	-0.421614	0.423188
Cu15	Cu	0.111839	-0.820501	-0.090926
Cu16	Cu	0.611839	-0.320501	0.409074
Cu17	Cu	0.111856	-0.820515	0.091461
Cu18	Cu	0.611856	-0.320515	0.591461
O19	O	0.234137	-0.814980	-0.076837
O20	O	0.734137	-0.314980	0.423163
C21	C	0.118461	-0.693519	0.000228
C22	C	0.618461	-0.193519	0.500228
C23	C	0.117095	-0.616411	0.000204
C24	C	0.617095	-0.116411	0.500204
C25	C	-0.041740	-0.825572	0.000261
C26	C	0.458260	-0.325572	0.500261
C27	C	-0.134981	-0.824197	0.000260
C28	C	0.365019	-0.324197	0.500260
C29	C	0.105235	-0.947497	0.000310
C30	C	0.605235	-0.447497	0.500310
C31	C	0.106600	-1.024604	0.000340
C32	C	0.606600	-0.524604	0.500340
C33	C	-0.349571	-0.754815	0.000251
C34	C	0.150429	-0.254815	0.500251
C35	C	-0.410719	-0.787028	-0.075780
C36	C	0.089281	-0.287028	0.424220
C37	C	-0.305697	-0.821710	0.000266
C38	C	0.194303	-0.321710	0.500266
C39	C	-0.410688	-0.787055	0.076272
C40	C	0.089312	-0.287055	0.576272
C41	C	-0.470601	-0.819303	0.000276
C42	C	0.029399	-0.319303	0.500276
C43	C	-0.365618	-0.853942	-0.075828
C44	C	0.134382	-0.353942	0.424172
C45	C	-0.365581	-0.853960	0.076293
C46	C	0.134419	-0.353960	0.576293
C47	C	-0.426712	-0.886222	0.000243
C48	C	0.073288	-0.386222	0.500243
C49	C	-0.210700	-0.823095	0.000260
C50	C	0.289300	-0.323095	0.500260
C51	C	-0.565597	-0.817924	0.000276
C52	C	-0.065597	-0.317924	0.500276
C53	C	0.265436	-0.815444	0.000277
C54	C	0.765436	-0.315444	0.500277
C55	C	0.358677	-0.816819	0.000284
C56	C	0.858677	-0.316819	0.500284
N57	N	0.111827	-0.820497	-0.219207
N58	N	0.611827	-0.320497	0.280793
C59	C	0.193000	-0.571915	0.000222
C60	C	0.693000	-0.071915	0.500222
C61	C	0.191717	-0.499465	0.000233
C62	C	0.691717	0.000535	0.500233
C63	C	0.114526	-0.471514	0.000243
C64	C	0.614526	0.028486	0.500243
C65	C	0.038611	-0.516020	0.000219
C66	C	0.538611	-0.016020	0.500219
C67	C	0.039896	-0.588469	0.000199
C68	C	0.539896	-0.088469	0.500199
C69	C	0.053849	-0.363096	0.054302
C70	C	0.553849	0.136904	0.554302
C71	C	0.052568	-0.290648	0.054327
C72	C	0.552568	0.209352	0.554327
C73	C	0.110560	-0.248058	0.000299
C74	C	0.610560	0.251942	0.500299
C75	C	0.169847	-0.277923	-0.053743
C76	C	0.669847	0.222077	0.446257
C77	C	0.171132	-0.350371	-0.053763
C78	C	0.671132	0.149629	0.446237
C79	C	0.113124	-0.392956	0.000263
C80	C	0.613124	0.107044	0.500263
C81	C	0.185079	-0.125002	0.000327
C82	C	0.685079	0.374998	0.500327
C83	C	0.183793	-0.052550	0.000331
C84	C	0.683793	0.447450	0.500331
C85	C	0.030684	-0.069107	0.000327
C86	C	0.530684	0.430893	0.500327
C87	C	0.031972	-0.141557	0.000313
C88	C	0.531972	0.358443	0.500313
C89	C	0.109172	-0.169500	0.000318
C90	C	0.609172	0.330500	0.500318
N91	N	0.111862	-0.820525	0.219743
N92	N	0.611862	-0.320525	0.719743
C93	C	0.052128	-0.869931	0.469377
C94	C	0.552128	-0.369931	0.969377
C95	C	0.128029	-0.883255	0.531224
C96	C	0.628029	-0.383255	1.031224
C97	C	0.111852	-0.820515	0.408904
C98	C	0.611852	-0.320515	0.908904
C99	C	0.035940	-0.807215	0.531151
C100	C	0.535940	-0.307215	1.031151
C101	C	0.111836	-0.820508	0.591625
C102	C	0.611836	-0.320508	1.091625
C103	C	0.187792	-0.833871	0.469390
C104	C	0.687792	-0.333871	0.969390
C105	C	0.095653	-0.757804	0.469311
C106	C	0.595653	-0.257804	0.969311
C107	C	0.171610	-0.771101	0.531131
C108	C	0.671610	-0.271101	1.031131
C109	C	0.111860	-0.820522	0.303643
C110	C	0.611860	-0.320522	0.803643
C111	C	0.111836	-0.820502	0.696884
C112	C	0.611836	-0.320502	1.196884
H113	H	-0.316049	-0.699288	0.000158
H114	H	0.183951	-0.199288	0.500158
H115	H	-0.021917	-0.624699	0.000185
H116	H	0.478083	-0.124699	0.500185
H117	H	-0.024239	-0.493258	0.000240
H118	H	0.475761	0.006742	0.500240
H119	H	-0.028250	-0.795968	0.558281
H120	H	0.471750	-0.295968	1.058281
N121	N	-0.437219	-0.749539	-0.160942
N122	N	0.062781	-0.249539	0.339058
H123	H	-0.500526	-0.749285	-0.160618
H124	H	-0.000526	-0.249285	0.339382
H125	H	-0.419963	-0.774326	-0.218321
H126	H	0.080037	-0.274326	0.281679
H127	H	0.001685	-0.911750	0.442263
H128	H	0.501685	-0.411750	0.942263
N129	N	0.272843	-0.848847	0.433616
N130	N	0.772843	-0.348847	0.933616
H131	H	0.272317	-0.848777	0.363585
H132	H	0.772317	-0.348777	0.863585
H133	H	0.285162	-0.896042	0.456752
H134	H	0.785162	-0.396042	0.956752
H135	H	0.219404	-0.374684	-0.097768
H136	H	0.719404	0.125316	0.402232
H137	H	0.081929	-0.704789	0.442097
H138	H	0.581929	-0.204789	0.942097
H139	H	0.141730	-0.936285	0.558419
H140	H	0.641730	-0.436285	1.058419
N141	N	-0.011377	-0.258444	0.112612
N142	N	0.488623	0.241556	0.612612
H143	H	-0.047983	-0.232266	0.071227
H144	H	0.452017	0.267734	0.571227
H145	H	0.018998	-0.225104	0.158826
H146	H	0.518998	0.274896	0.658826
N147	N	0.232397	-0.232003	-0.112036
N148	N	0.732397	0.267997	0.387964
H149	H	0.291723	-0.238226	-0.091867
H150	H	0.791723	0.261774	0.408133
H151	H	0.222516	-0.181595	-0.103814
H152	H	0.722516	0.318405	0.396186
N153	N	-0.470932	-0.959831	0.000207
N154	N	0.029068	-0.459831	0.500207
H155	H	-0.507054	-0.967544	0.057643
H156	H	-0.007054	-0.467544	0.557643
H157	H	-0.427499	-0.993990	-0.000389
H158	H	0.072501	-0.493990	0.499611
H159	H	0.222165	-0.729306	0.558074
H160	H	0.722165	-0.229306	1.058074
H161	H	-0.345742	-0.882207	-0.140177
H162	H	0.154258	-0.382207	0.359823
H163	H	0.247939	-0.147754	0.000317
H164	H	0.747939	0.352246	0.500317
H165	H	0.255862	-0.594661	0.000228
H166	H	0.755862	-0.094661	0.500228
H167	H	0.253530	-0.463229	0.000245
H168	H	0.753530	0.036771	0.500245
H169	H	-0.345553	-0.882234	0.140592
H170	H	0.154447	-0.382234	0.640592
H171	H	-0.430650	-0.758757	0.140555
H172	H	0.069350	-0.258757	0.640555
H173	H	0.245606	-0.016321	0.000341
H174	H	0.745606	0.483679	0.500341
N175	N	-0.052575	-0.038971	0.000327
N176	N	0.447425	0.461029	0.500327
H177	H	-0.041872	0.013677	0.000339
H178	H	0.458128	0.513677	0.500339
H179	H	-0.085776	-0.055271	0.057494
H180	H	0.414224	0.444729	0.557494
H181	H	-0.029838	-0.177787	0.000303
H182	H	0.470162	0.322213	0.500303
N183	N	-0.008705	-0.409030	0.112576
N184	N	0.491295	0.090970	0.612576
H185	H	-0.046452	-0.379119	0.146819
H186	H	0.453548	0.120881	0.646819
H187	H	0.022743	-0.435766	0.158719
H188	H	0.522743	0.064234	0.658719
