data_functionalizedCrystal
_audit_creation_method	'MofGen! by Chris Wilmer'
_symmetry_space_group_name_H-M	'P1'
_symmetry_Int_Tables_number	1
_symmetry_cell_setting	triclinic
loop_
_symmetry_equiv_pos_as_xyz
  x,y,z
_cell_length_a	13.032831
_cell_length_b	12.759399
_cell_length_c	12.759393
_cell_angle_alpha	90.032479
_cell_angle_beta	82.806365
_cell_angle_gamma	97.171589
loop_
_atom_site_label
_atom_site_type_symbol
_atom_site_fract_x
_atom_site_fract_y
_atom_site_fract_z
Zn1	Zn	1.597652	0.622478	-0.797692
Zn2	Zn	1.597519	0.798180	-0.621993
Zn3	Zn	1.422888	0.600188	-0.599747
Zn4	Zn	1.422849	0.775765	-0.775362
O5	O	1.510227	0.699153	-0.698698
O6	O	1.743874	0.664495	-0.793040
O7	O	1.574315	0.771968	-0.472016
O8	O	1.446142	0.456133	-0.626041
O9	O	1.743776	0.793582	-0.663955
O10	O	1.574540	0.472509	-0.771470
O11	O	1.446014	0.626504	-0.455672
O12	O	1.276643	0.604769	-0.604388
O13	O	1.446076	0.755380	-0.925350
O14	O	1.276615	0.733765	-0.733411
O15	O	1.574503	0.642760	-0.941756
O16	O	1.574277	0.942219	-0.642302
O17	O	1.445948	0.925751	-0.754982
C18	C	1.238711	0.664417	-0.664063
C19	C	1.122555	0.649582	-0.649271
C20	C	1.070782	0.706895	-0.706419
C21	C	0.950729	0.691564	-0.691131
C22	C	1.510123	0.972107	-0.698659
C23	C	1.510173	1.088890	-0.698690
C24	C	1.576993	1.152185	-0.774465
C25	C	1.577034	1.261914	-0.774496
C26	C	1.443434	1.245044	-0.622966
C27	C	1.443388	1.135316	-0.622941
C28	C	1.782804	0.734025	-0.733470
C29	C	1.898959	0.748886	-0.748287
C30	C	1.510321	1.425132	-0.698753
C31	C	1.510261	1.308347	-0.698746
C32	C	1.510300	0.699056	-0.972741
C33	C	1.510331	0.699015	-1.089522
C34	C	1.443549	0.623262	-1.135876
C35	C	1.443573	0.623233	-1.245604
C36	C	1.577171	0.774713	-1.262613
C37	C	1.577141	0.774746	-1.152887
C38	C	1.510214	0.699181	-0.425729
C39	C	1.510386	0.698952	-0.308975
H40	H	1.078000	0.589160	-0.589031
C41	C	1.650548	1.331535	-0.857850
N42	N	1.705924	1.383973	-0.920633
C43	C	0.890547	0.609935	-0.609739
N44	N	0.845216	0.548453	-0.548435
H45	H	0.943509	0.809302	-0.808542
C46	C	1.370046	1.296133	-0.539584
N47	N	1.314795	1.334615	-0.476756
H48	H	1.631526	0.836437	-1.115146
H49	H	1.389148	0.561597	-1.084287
H50	H	1.388971	1.083777	-0.561234
C51	C	1.130968	0.788522	-0.787805
N52	N	1.176299	0.850008	-0.849105
H53	H	1.631566	0.836370	-1.314219
H54	H	1.389191	0.561548	-1.283340
C55	C	1.650452	1.101119	-0.857797
N56	N	1.705781	1.062660	-0.920567
