data_functionalizedCrystal
_audit_creation_method	'MofGen! by Chris Wilmer'
_symmetry_space_group_name_H-M	'P1'
_symmetry_Int_Tables_number	1
_symmetry_cell_setting	triclinic
loop_
_symmetry_equiv_pos_as_xyz
  x,y,z
_cell_length_a	17.917603
_cell_length_b	23.196402
_cell_length_c	23.196401
_cell_angle_alpha	59.999265
_cell_angle_beta	90.005396
_cell_angle_gamma	57.012000
loop_
_atom_site_label
_atom_site_type_symbol
_atom_site_fract_x
_atom_site_fract_y
_atom_site_fract_z
Zr1	Zr	0.754916	0.577933	-0.049094
O2	O	0.629772	0.707013	-0.145547
O3	O	0.793276	0.454966	-0.019529
O4	O	0.793250	0.575253	-0.139805
O5	O	0.629821	0.586707	0.069608
O6	O	0.922208	0.566186	-0.135271
O7	O	0.629797	0.586725	-0.025271
O8	O	0.922254	0.351013	0.079880
O9	O	0.629775	0.801880	-0.145543
O10	O	0.905879	0.496513	-0.003533
O11	O	0.809657	0.503266	0.063892
O12	O	0.809627	0.644890	-0.077717
O13	O	0.713405	0.651643	-0.010293
Zr14	Zr	0.960627	0.563443	0.109459
Zr15	Zr	0.960589	0.563472	-0.041863
Zr16	Zr	0.754954	0.577904	0.102228
Zr17	Zr	0.754921	0.729235	-0.049087
Zr18	Zr	0.960621	0.412141	0.109452
O19	O	0.922266	0.686410	0.079895
O20	O	0.922212	0.686451	-0.135266
O21	O	0.629826	0.706972	0.069614
O22	O	1.085770	0.434363	0.205912
O23	O	1.085716	0.434404	-0.009248
O24	O	0.793330	0.454925	0.195631
O25	O	1.085721	0.554669	-0.009243
O26	O	0.922292	0.566123	0.200170
O27	O	0.793334	0.575190	0.195637
O28	O	1.085745	0.554651	0.085637
O29	O	0.793258	0.790385	-0.139795
O30	O	0.922284	0.350991	0.200161
O31	O	1.085767	0.339496	0.205908
O32	O	1.085737	0.339519	0.085627
O33	O	0.629805	0.801857	-0.025262
O34	O	0.793288	0.790362	-0.019514
O35	O	0.905915	0.496486	0.138083
O36	O	1.002137	0.489733	0.070658
O37	O	0.905885	0.638110	-0.003526
O38	O	0.809663	0.644863	0.063898
C39	C	0.857764	0.381432	0.030174
C40	C	0.857762	0.317201	0.030171
C41	C	0.600505	0.588776	0.021138
C42	C	0.513192	0.594915	0.018069
C43	C	0.907982	0.283505	-0.005026
C44	C	0.907991	0.223144	-0.005020
C45	C	0.857761	0.196492	0.030173
C46	C	0.807539	0.230192	0.065379
C47	C	0.807539	0.290546	0.065378
C48	C	0.773613	0.140380	0.021940
C49	C	0.773610	0.080031	0.021936
C50	C	0.857763	0.010337	0.030180
C51	C	0.941917	0.001008	0.038415
C52	C	0.941917	0.061362	0.038414
C53	C	0.857756	0.131048	0.030179
C54	C	0.907998	-0.088810	-0.005012
C55	C	0.908009	-0.149176	-0.005001
C56	C	0.807548	-0.142121	0.065393
C57	C	0.807545	-0.081762	0.065387
C58	C	0.857768	-0.055107	0.030180
C59	C	0.353347	0.606129	0.012463
C60	C	0.362188	0.535251	0.047901
C61	C	0.273245	0.541490	0.044781
C62	C	0.442296	0.599891	0.015581
C63	C	1.115037	0.552600	0.039227
C64	C	1.202350	0.546461	0.042297
C65	C	0.857723	0.570724	-0.159098
C66	C	0.857707	0.570736	-0.223338
C67	C	0.857778	0.759944	0.030191
C68	C	0.857781	0.824175	0.030194
C69	C	0.928754	0.565742	-0.251004
C70	C	0.928775	0.565724	-0.311350
C71	C	0.857735	0.570718	-0.344037
C72	C	0.786683	0.575707	-0.316362
C73	C	0.786669	0.575716	-0.256013
C74	C	0.771037	0.624308	-0.466464
C75	C	0.771050	0.624304	-0.526815
C76	C	0.857777	0.570686	-0.530171
C77	C	0.944497	0.517082	-0.473175
C78	C	0.944484	0.517091	-0.412826
C79	C	0.857743	0.570708	-0.409475
C80	C	0.928853	0.565671	-0.623270
C81	C	0.928875	0.565648	-0.683614
C82	C	0.786774	0.575640	-0.688630
C83	C	0.786760	0.575654	-0.628282
C84	C	0.857799	0.570673	-0.595608
C85	C	0.857819	0.570652	0.219463
C86	C	0.857835	0.570640	0.283704
C87	C	1.115030	0.363344	0.039219
C88	C	1.202341	0.292973	0.042285
C89	C	0.857812	0.381396	0.219455
C90	C	0.857825	0.317152	0.283692
C91	C	1.115077	0.363308	0.228499
C92	C	1.202405	0.292925	0.295806
C93	C	0.600465	0.778068	-0.168134
C94	C	0.513137	0.848451	-0.235441
C95	C	0.600512	0.778032	0.021147
C96	C	0.513201	0.848403	0.018080
C97	C	0.857731	0.759980	-0.159090
C98	C	0.857717	0.824223	-0.223327
C99	C	1.193098	0.263465	0.004992
C100	C	1.275128	0.197354	0.007859
C101	C	1.366401	0.160747	0.048024
C102	C	1.375642	0.190260	0.085318
C103	C	1.293613	0.256375	0.082447
C104	C	0.908077	0.283444	0.352592
C105	C	0.908087	0.223089	0.412956
C106	C	0.857849	0.196439	0.404418
C107	C	0.807591	0.230154	0.335511
C108	C	0.807576	0.290512	0.275149
C109	C	1.293650	0.256347	0.292220
C110	C	1.375711	0.190223	0.355456
C111	C	1.366525	0.160674	0.422279
C112	C	1.275270	0.197258	0.425863
C113	C	1.193211	0.263386	0.362628
C114	C	0.421892	0.885036	-0.231855
C115	C	0.339831	0.951179	-0.295091
C116	C	0.349017	0.980732	-0.361913
C117	C	0.440272	0.944143	-0.365498
C118	C	0.522331	0.878005	-0.302262
C119	C	0.522444	0.877917	0.055367
C120	C	0.440414	0.944045	0.052483
C121	C	0.349142	0.980654	0.012316
C122	C	0.339900	0.951138	-0.024975
C123	C	0.421930	0.885015	-0.022095
C124	C	0.907964	0.850853	-0.214767
C125	C	0.907970	0.911208	-0.275118
C126	C	0.857722	0.944936	-0.344029
C127	C	0.807473	0.918300	-0.352589
C128	C	0.807474	0.857942	-0.292238
H129	H	0.948879	0.305204	-0.033691
H130	H	0.857729	0.994083	-0.393165
C131	C	0.752284	0.200875	0.104090
N132	N	0.710666	0.178793	0.133251
C133	C	0.752297	0.327606	0.104105
N134	N	0.710690	0.355519	0.133277
C135	C	0.239460	0.991414	-0.291132
N136	N	0.163862	1.021717	-0.288148
C137	C	0.708542	0.581194	-0.352316
N138	N	0.649687	0.585323	-0.379394
H139	H	0.596756	0.848114	0.088080
H140	H	0.766552	0.836267	-0.299218
H141	H	0.705076	0.197136	0.015212
H142	H	1.450008	0.160441	0.352525
H143	H	0.278984	0.671491	-0.020217
H144	H	0.414394	0.860980	-0.177451
H145	H	1.433351	0.106828	0.473764
H146	H	1.015094	0.473443	-0.366421
H147	H	0.282192	1.034585	-0.413399
C148	C	0.752244	0.955378	-0.428397
N149	N	0.710656	0.983298	-0.485497
C150	C	1.039906	0.458094	-0.476859
N151	N	1.111764	0.413668	-0.479638
C152	C	1.265181	0.164738	0.499375
N153	N	1.257585	0.140237	0.554746
H154	H	0.436557	0.469884	0.080582
C155	C	0.450361	0.976653	-0.439010
N156	N	0.457957	1.001136	-0.494381
H157	H	0.948888	0.195704	-0.033683
H158	H	0.700438	0.667955	-0.573220
H159	H	1.301152	0.280392	0.112820
C160	C	1.034488	0.051093	0.047480
N161	N	1.104214	0.043355	0.054313
C162	C	0.450601	0.976494	0.093515
N163	N	0.458277	1.000931	0.124422
H164	H	1.010445	-0.055745	0.045137
H165	H	0.949016	0.195644	0.469057
C166	C	1.092842	0.303613	0.366585
N167	N	1.017246	0.333911	0.369571
C168	C	0.857884	0.130033	0.470826
N169	N	0.857920	0.080012	0.520848
C170	C	0.963254	-0.059496	-0.043731
N171	N	1.004876	-0.037421	-0.072893
C172	C	0.258915	1.053388	0.009159
N173	N	0.190960	1.108168	0.006786
C174	C	0.963247	-0.186231	-0.043733
N175	N	1.004846	-0.214136	-0.072911
C176	C	1.303779	0.288842	0.218722
N177	N	1.311415	0.313318	0.163365
H178	H	0.596625	0.848217	-0.305191
H179	H	0.986599	0.561684	-0.224401
H180	H	0.766689	0.208446	0.328570
C181	C	0.411746	0.852548	-0.063107
N182	N	0.404068	0.828096	-0.093999
H183	H	0.948987	0.305135	0.359558
C184	C	0.239491	0.991406	-0.069145
N185	N	0.163860	1.021732	-0.102407
C186	C	0.963245	0.940500	-0.265687
N187	N	1.004877	0.962562	-0.258581
C188	C	0.752296	-0.171435	0.104108
N189	N	0.710680	-0.193519	0.133270
C190	C	1.006926	0.560243	-0.341795
N191	N	1.065787	0.556120	-0.364726
H192	H	0.948882	0.823401	-0.158661
H193	H	0.705086	0.087636	0.015227
C194	C	0.752309	-0.044705	0.104116
N195	N	0.710712	-0.016801	0.133296
C196	C	1.007003	0.560181	-0.587320
N197	N	1.065869	0.556043	-0.560244
H198	H	0.766658	0.317950	0.219050
C199	C	1.007049	0.560132	-0.714035
N200	N	1.065936	0.555972	-0.736946
C201	C	0.708629	0.581133	-0.724582
N202	N	0.649767	0.585271	-0.751664
H203	H	0.728904	0.579725	-0.605758
H204	H	0.700406	0.667963	-0.463736
H205	H	1.118786	0.293270	-0.027723
C206	C	0.708474	0.581264	-0.225607
N207	N	0.649563	0.585463	-0.202715
H208	H	1.449967	0.160445	0.118019
H209	H	1.433186	0.106911	0.050357
C210	C	1.264941	0.164894	-0.033162
N211	N	1.257265	0.140445	-0.064058
