data_functionalizedCrystal
_audit_creation_method	'MofGen! by Chris Wilmer'
_symmetry_space_group_name_H-M	'P1'
_symmetry_Int_Tables_number	1
_symmetry_cell_setting	triclinic
loop_
_symmetry_equiv_pos_as_xyz
  x,y,z
_cell_length_a	16.992694
_cell_length_b	15.538191
_cell_length_c	16.053810
_cell_angle_alpha	91.559086
_cell_angle_beta	87.261482
_cell_angle_gamma	68.970158
loop_
_atom_site_label
_atom_site_type_symbol
_atom_site_fract_x
_atom_site_fract_y
_atom_site_fract_z
O1	O	0.989063	0.191905	-0.069317
O2	O	0.761390	0.189758	-0.069342
O3	O	0.919545	0.057039	-0.069328
O4	O	0.830908	0.324625	-0.069330
O5	O	0.910867	0.064343	0.069530
O6	O	0.752712	0.197063	0.069517
O7	O	0.980385	0.199210	0.069541
Zn8	Zn	0.865170	0.199296	0.091576
Zn9	Zn	0.876604	0.189672	-0.091376
O10	O	0.822229	0.331929	0.069528
C11	C	0.728624	0.190651	0.000084
C12	C	0.643924	0.182415	0.000075
C13	C	0.571070	0.261869	0.000075
C14	C	0.491487	0.254127	0.000086
C15	C	0.484759	0.166930	0.000092
C16	C	0.557620	0.087471	0.000094
C17	C	0.637202	0.095214	0.000089
C18	C	0.250294	0.134837	0.000114
C19	C	0.170704	0.127099	0.000117
C20	C	0.104576	0.293756	0.000111
C21	C	0.184163	0.301491	0.000101
C22	C	0.257017	0.222032	0.000107
N23	N	0.403412	0.159014	0.000101
N24	N	0.338361	0.229949	0.000104
C25	C	0.924480	0.026294	0.000099
C26	C	0.952104	-0.076201	0.000094
C27	C	0.677671	-0.384652	0.000082
C28	C	0.703646	-0.480962	0.000086
C29	C	0.849754	-0.492405	0.000102
C30	C	0.823791	-0.396094	0.000093
C31	C	0.737748	-0.342225	0.000084
C32	C	0.883869	-0.353667	0.000095
C33	C	0.857907	-0.257364	0.000091
C34	C	0.771868	-0.203488	0.000084
C35	C	0.711787	-0.245922	0.000080
C36	C	0.969911	-0.407537	0.000110
C37	C	1.029988	-0.365110	0.000113
C38	C	1.004027	-0.268806	0.000102
C39	C	0.917988	-0.214931	0.000096
C40	C	1.064108	-0.226373	0.000107
C41	C	1.038147	-0.130070	0.000103
C42	C	0.892026	-0.118628	0.000091
C43	C	1.013151	0.198317	0.000114
C44	C	1.097851	0.206552	0.000118
C45	C	0.817295	0.362675	0.000099
C46	C	0.789671	0.465169	0.000099
N47	N	0.857373	0.205864	0.216435
N48	N	0.884410	0.183097	-0.216235
C49	C	0.817107	0.239554	0.740064
C50	C	0.822573	0.234978	0.652658
C51	C	0.895345	0.173949	0.608954
C52	C	0.962652	0.117486	0.652661
C53	C	0.957183	0.122058	0.740065
C54	C	0.919211	0.153973	0.347547
C55	C	0.924676	0.149408	0.260136
C56	C	0.784595	0.266899	0.260139
C57	C	0.779134	0.271469	0.347545
C58	C	0.846440	0.215002	0.391244
N59	N	0.900935	0.169273	0.519611
N60	N	0.840846	0.219675	0.480586
H61	H	0.165234	0.056089	0.000121
Br62	Br	0.193287	0.419833	0.000084
Br63	Br	0.349157	0.026998	0.000126
H64	H	1.011988	0.076084	0.775646
H65	H	0.654717	-0.515501	0.000097
H66	H	0.696521	0.030514	0.000088
H67	H	0.919811	-0.536278	0.000113
Br68	Br	0.560897	-0.311535	0.000057
H69	H	0.821962	-0.074765	0.000078
H70	H	0.767769	0.280949	0.617077
Br71	Br	0.595013	-0.172805	0.000055
Br72	Br	0.736629	-0.072789	0.000090
Br73	Br	1.146756	-0.438225	0.000135
Br74	Br	1.005145	-0.538235	0.000126
Br75	Br	0.580192	0.380213	0.000059
H76	H	1.134164	-0.270247	0.000123
H77	H	0.719877	0.321163	0.383127
Br78	Br	1.119679	-0.072483	0.000126
H79	H	0.729797	0.312870	0.224551
H80	H	1.021904	0.067790	0.617072
Br81	Br	0.718342	0.322390	0.799367
H82	H	0.432170	0.318826	0.000086
H83	H	0.983940	0.099708	0.224556
H84	H	0.045252	0.358447	0.000107
H85	H	0.974015	0.107997	0.383120
H86	H	0.552136	0.016474	0.000111
