data_functionalizedCrystal
_audit_creation_method	'MofGen! by Chris Wilmer'
_symmetry_space_group_name_H-M	'P1'
_symmetry_Int_Tables_number	1
_symmetry_cell_setting	triclinic
loop_
_symmetry_equiv_pos_as_xyz
  x,y,z
_cell_length_a	17.699083
_cell_length_b	17.699104
_cell_length_c	9.730223
_cell_angle_alpha	89.994021
_cell_angle_beta	90.005576
_cell_angle_gamma	83.287266
loop_
_atom_site_label
_atom_site_type_symbol
_atom_site_fract_x
_atom_site_fract_y
_atom_site_fract_z
O1	O	-1.004078	-0.095711	0.114100
O2	O	-0.670745	0.237622	0.447433
O3	O	-0.337412	0.570956	0.780767
O4	O	-0.783701	-0.108163	0.114145
O5	O	-0.450368	0.225170	0.447479
O6	O	-0.117034	0.558503	0.780812
O7	O	-0.900108	0.008251	0.114109
O8	O	-0.566774	0.341584	0.447443
O9	O	-0.233441	0.674917	0.780776
O10	O	-0.887672	-0.212125	0.114136
O11	O	-0.554338	0.121208	0.447470
O12	O	-0.221005	0.454541	0.780803
O13	O	-0.900107	0.008256	-0.114471
O14	O	-0.566773	0.341589	0.218863
O15	O	-0.233440	0.674923	0.552196
O16	O	-0.783700	-0.108158	-0.114434
O17	O	-0.450367	0.225175	0.218899
O18	O	-0.117033	0.558509	0.552232
O19	O	-1.004077	-0.095706	-0.114480
O20	O	-0.670744	0.237628	0.218853
O21	O	-0.337411	0.570961	0.552187
Zn22	Zn	-0.893889	-0.101931	-0.150749
Zn23	Zn	-0.560555	0.231402	0.182584
Zn24	Zn	-0.227222	0.564736	0.515918
Zn25	Zn	-0.893890	-0.101938	0.150415
Zn26	Zn	-0.560557	0.231395	0.483748
Zn27	Zn	-0.227223	0.564729	0.817081
O28	O	-0.887671	-0.212120	-0.114444
O29	O	-0.554337	0.121213	0.218890
O30	O	-0.221004	0.454547	0.552223
C31	C	-0.755503	-0.107715	-0.000139
C32	C	-0.422170	0.225619	0.333195
C33	C	-0.088837	0.558952	0.666528
C34	C	-0.671485	-0.106376	-0.000122
C35	C	-0.338152	0.226957	0.333211
C36	C	-0.004819	0.560291	0.666545
C37	C	-0.899659	0.036450	-0.000181
C38	C	-0.566326	0.369784	0.333152
C39	C	-0.232992	0.703117	0.666486
C40	C	-0.898314	0.120467	-0.000181
C41	C	-0.564981	0.453801	0.333152
C42	C	-0.231647	0.787134	0.666485
C43	C	-1.032275	-0.096155	-0.000193
C44	C	-0.698942	0.237179	0.333141
C45	C	-0.365608	0.570512	0.666474
C46	C	-1.116293	-0.097493	-0.000200
C47	C	-0.782960	0.235840	0.333133
C48	C	-0.449626	0.569173	0.666466
C49	C	-0.622869	-0.174709	-0.000114
C50	C	-0.289536	0.158625	0.333219
C51	C	0.043797	0.491958	0.666553
C52	C	-0.543926	-0.173446	-0.000132
C53	C	-0.210593	0.159887	0.333202
C54	C	0.122741	0.493220	0.666535
C55	C	-0.513600	-0.103851	-0.000148
C56	C	-0.180267	0.229483	0.333185
C57	C	0.153067	0.562816	0.666519
C58	C	-0.562222	-0.035513	-0.000160
C59	C	-0.228889	0.297821	0.333173
C60	C	0.104445	0.631154	0.666507
C61	C	-0.641164	-0.036776	-0.000152
C62	C	-0.307831	0.296558	0.333181
C63	C	0.025503	0.629891	0.666515
C64	C	-0.243859	-0.030418	-0.000195
C65	C	0.089475	0.302916	0.333139
C66	C	0.422808	0.636249	0.666472
C67	C	-0.164911	-0.029160	-0.000199
C68	C	0.168423	0.304174	0.333135
C69	C	0.501756	0.637507	0.666468
C70	C	-0.146621	-0.167088	-0.000175
C71	C	0.186713	0.166245	0.333159
C72	C	0.520046	0.499578	0.666492
C73	C	-0.225563	-0.168351	-0.000166
C74	C	0.107771	0.164982	0.333167
C75	C	0.441104	0.498315	0.666500
C76	C	-0.274178	-0.100014	-0.000186
C77	C	0.059156	0.233320	0.333148
C78	C	0.392489	0.566653	0.666481
C79	C	-0.359777	-0.101383	-0.000169
C80	C	-0.026444	0.231950	0.333164
C81	C	0.306890	0.565283	0.666498
C82	C	-0.428002	-0.102480	-0.000155
C83	C	-0.094669	0.230853	0.333178
C84	C	0.238664	0.564186	0.666512
C85	C	-0.888120	-0.240319	-0.000150
C86	C	-0.554786	0.093014	0.333183
C87	C	-0.221453	0.426347	0.666516
C88	C	-0.889464	-0.324337	-0.000141
C89	C	-0.556131	0.008997	0.333192
C90	C	-0.222798	0.342330	0.666526
C91	C	-0.959058	0.645338	-0.000155
C92	C	-0.625725	0.978672	0.333179
C93	C	-0.292391	1.312005	0.666512
C94	C	-0.960317	0.566395	-0.000167
C95	C	-0.626984	0.899728	0.333166
C96	C	-0.293650	1.233061	0.666500
C97	C	-0.891982	0.517777	-0.000156
C98	C	-0.558648	0.851110	0.333177
C99	C	-0.225315	1.184444	0.666510
C100	C	-0.822383	0.548107	-0.000147
C101	C	-0.489050	0.881440	0.333187
C102	C	-0.155716	1.214774	0.666520
C103	C	-0.821125	0.627049	-0.000144
C104	C	-0.487791	0.960383	0.333189
C105	C	-0.154458	1.293716	0.666523
C106	C	-0.827456	0.229741	-0.000159
C107	C	-0.494123	0.563074	0.333174
C108	C	-0.160789	0.896408	0.666507
C109	C	-0.828720	0.150794	-0.000158
C110	C	-0.495386	0.484127	0.333175
C111	C	-0.162053	0.817460	0.666509
C112	C	-0.966648	0.169086	-0.000182
C113	C	-0.633315	0.502420	0.333151
C114	C	-0.299982	0.835753	0.666484
C115	C	-0.965390	0.248029	-0.000180
C116	C	-0.632057	0.581362	0.333154
C117	C	-0.298723	0.914695	0.666487
C118	C	-0.895792	0.278352	-0.000177
C119	C	-0.562458	0.611685	0.333156
C120	C	-0.229125	0.945018	0.666489
C121	C	-0.894427	0.363951	-0.000167
C122	C	-0.561094	0.697285	0.333167
C123	C	-0.227761	1.030618	0.666500
C124	C	-0.893345	0.432179	-0.000157
C125	C	-0.560012	0.765512	0.333176
C126	C	-0.226679	1.098845	0.666509
N127	N	-0.893891	-0.101937	0.355951
N128	N	-0.560558	0.231396	0.689284
N129	N	-0.227225	0.564729	1.022618
N130	N	-0.893893	-0.101926	-0.356286
N131	N	-0.560560	0.231407	-0.022952
N132	N	-0.227227	0.564741	0.310381
C133	C	-0.945532	-0.050489	0.427861
C134	C	-0.612198	0.282844	0.761194
C135	C	-0.278865	0.616177	1.094528
C136	C	-0.945535	-0.050485	0.571744
C137	C	-0.612202	0.282848	0.905077
C138	C	-0.278868	0.616182	1.238411
C139	C	-0.842250	-0.153380	0.571794
C140	C	-0.508917	0.179954	0.905128
C141	C	-0.175584	0.513287	1.238461
C142	C	-0.842251	-0.153387	0.427914
C143	C	-0.508918	0.179947	0.761247
C144	C	-0.175585	0.513280	1.094581
H145	H	-0.647554	-0.231382	-0.000100
H146	H	-0.314221	0.101952	0.333234
H147	H	0.019113	0.435285	0.666567
H148	H	-0.800199	-0.195286	0.369361
H149	H	-0.466866	0.138048	0.702694
H150	H	-0.133532	0.471381	1.036028
H151	H	-0.504346	-0.229090	-0.000124
H152	H	-0.171012	0.104243	0.333210
H153	H	0.162321	0.437577	0.666543
H154	H	-0.800205	-0.195268	0.630401
H155	H	-0.466872	0.138066	0.963734
H156	H	-0.133538	0.471399	1.297068
H157	H	-0.250249	-0.225023	-0.000147
H158	H	0.083084	0.108310	0.333186
H159	H	0.416417	0.441643	0.666520
H160	H	-0.987586	-0.008592	0.630289
H161	H	-0.654253	0.324741	0.963622
H162	H	-0.320919	0.658074	1.296956
F163	F	-0.094875	-0.239820	-0.000159
F164	F	0.238459	0.093513	0.333174
F165	F	0.571792	0.426847	0.666507
H166	H	-0.140223	0.027517	-0.000214
H167	H	0.193110	0.360850	0.333120
H168	H	0.526444	0.694183	0.666453
H169	H	-1.016987	0.541708	-0.000180
H170	H	-0.683654	0.875042	0.333154
H171	H	-0.350320	1.208375	0.666487
F172	F	-0.749655	0.496362	-0.000142
F173	F	-0.416322	0.829696	0.333191
F174	F	-0.082989	1.163029	0.666525
H175	H	-0.987581	-0.008597	0.369272
H176	H	-0.654248	0.324736	0.702605
H177	H	-0.320914	0.658070	1.035939
H178	H	-0.773070	0.111210	-0.000152
H179	H	-0.439736	0.444543	0.333181
H180	H	-0.106403	0.777877	0.666515
F181	F	-0.295589	0.042314	-0.000215
F182	F	0.037745	0.375647	0.333118
F183	F	0.371078	0.708980	0.666452
F184	F	-0.753383	0.262003	-0.000147
F185	F	-0.420050	0.595336	0.333186
F186	F	-0.086717	0.928669	0.666520
F187	F	-0.529945	0.038557	-0.000186
F188	F	-0.196612	0.371890	0.333147
F189	F	0.136722	0.705223	0.666481
H190	H	-0.764455	0.651738	-0.000144
H191	H	-0.431121	0.985071	0.333189
H192	H	-0.097788	1.318405	0.666522
H193	H	-0.680747	0.018868	-0.000158
H194	H	-0.347414	0.352201	0.333176
H195	H	-0.014080	0.685535	0.666509
H196	H	-1.021036	0.287610	-0.000182
H197	H	-0.687702	0.620943	0.333152
H198	H	-0.354369	0.954277	0.666485
F199	F	-1.040722	0.136808	-0.000191
F200	F	-0.707389	0.470142	0.333142
F201	F	-0.374055	0.803475	0.666476
F202	F	-1.031791	0.697074	-0.000156
F203	F	-0.698458	1.030408	0.333177
F204	F	-0.365124	1.363741	0.666511
