data_functionalizedCrystal
_audit_creation_method	'MofGen! by Chris Wilmer'
_symmetry_space_group_name_H-M	'P1'
_symmetry_Int_Tables_number	1
_symmetry_cell_setting	triclinic
loop_
_symmetry_equiv_pos_as_xyz
  x,y,z
_cell_length_a	23.532355
_cell_length_b	17.699083
_cell_length_c	22.610064
_cell_angle_alpha	89.988418
_cell_angle_beta	89.986942
_cell_angle_gamma	96.944743
loop_
_atom_site_label
_atom_site_type_symbol
_atom_site_fract_x
_atom_site_fract_y
_atom_site_fract_z
O1	O	0.755532	-0.091699	0.049105
O2	O	1.255532	0.408301	0.549105
O3	O	0.589702	-0.105034	0.049124
O4	O	1.089702	0.394966	0.549124
O5	O	0.677302	0.011848	0.049109
O6	O	1.177302	0.511848	0.549109
O7	O	0.667932	-0.208580	0.049121
O8	O	1.167932	0.291420	0.549121
O9	O	0.677315	0.011868	-0.049260
O10	O	1.177315	0.511868	0.450740
O11	O	0.589716	-0.105014	-0.049245
O12	O	1.089716	0.394986	0.450755
O13	O	0.755545	-0.091679	-0.049264
O14	O	1.255545	0.408321	0.450736
Zn15	Zn	0.672632	-0.098343	-0.064873
Zn16	Zn	1.172632	0.401657	0.435127
Zn17	Zn	0.672615	-0.098369	0.064733
Zn18	Zn	1.172615	0.401631	0.564733
O19	O	0.667945	-0.208560	-0.049249
O20	O	1.167945	0.291440	0.450751
C21	C	0.568492	-0.104690	-0.000058
C22	C	1.068492	0.395310	0.499942
C23	C	0.505270	-0.103688	-0.000051
C24	C	1.005270	0.396312	0.499949
C25	C	0.113245	-0.097380	-0.053697
C26	C	0.613245	0.402620	0.446303
C27	C	0.053843	-0.096427	-0.053699
C28	C	0.553843	0.403573	0.446301
O29	O	0.023129	-0.095899	-0.099301
O30	O	0.523129	0.404101	0.400699
N31	N	0.024126	-0.095965	-0.000078
N32	N	0.524126	0.404035	0.499922
C33	C	0.053815	-0.096449	0.053548
C34	C	0.553815	0.403551	0.553548
O35	O	0.023084	-0.095968	0.099157
O36	O	0.523084	0.404032	0.599157
C37	C	0.113217	-0.097397	0.053550
C38	C	0.613217	0.402603	0.553550
C39	C	0.142930	-0.097867	-0.000074
C40	C	0.642930	0.402133	0.499926
C41	C	0.142959	-0.097849	-0.107317
C42	C	0.642959	0.402151	0.392683
C43	C	0.202357	-0.098804	-0.107314
C44	C	0.702357	0.401196	0.392686
C45	C	0.232041	-0.099290	-0.053692
C46	C	0.732041	0.400710	0.446308
C47	C	0.202328	-0.098821	-0.000072
C48	C	0.702328	0.401179	0.499928
C49	C	0.142905	-0.097875	0.107176
C50	C	0.642905	0.402125	0.607176
C51	C	0.202311	-0.098823	0.107173
C52	C	0.702311	0.401177	0.607173
C53	C	0.232024	-0.099292	0.053549
C54	C	0.732024	0.400708	0.553549
C55	C	0.291410	-0.100262	0.053553
C56	C	0.791410	0.399738	0.553553
N57	N	0.321127	-0.100724	-0.000068
N58	N	0.821127	0.399276	0.499932
C59	C	0.291443	-0.100238	-0.053690
C60	C	0.791443	0.399762	0.446310
C61	C	-0.070932	-0.094457	0.053541
C62	C	0.429068	0.405543	0.553541
C63	C	-0.130333	-0.093514	0.053539
C64	C	0.369667	0.406486	0.553539
C65	C	-0.130301	-0.093491	-0.053708
C66	C	0.369699	0.406509	0.446292
C67	C	-0.070899	-0.094439	-0.053707
C68	C	0.429101	0.405561	0.446293
C69	C	-0.041215	-0.094919	-0.000080
C70	C	0.458785	0.405081	0.499920
C71	C	0.416183	-0.102244	-0.053681
C72	C	0.916183	0.397756	0.446319
C73	C	0.475586	-0.103202	-0.053673
C74	C	0.975586	0.396798	0.446327
C75	C	0.475548	-0.103221	0.053574
C76	C	0.975548	0.396779	0.553574
C77	C	0.416150	-0.102267	0.053567
C78	C	0.916150	0.397733	0.553567
C79	C	0.386469	-0.101776	-0.000065
C80	C	0.886469	0.398224	0.499935
O81	O	0.322162	-0.100788	0.099132
O82	O	0.822162	0.399212	0.599132
O83	O	0.322182	-0.100709	-0.099291
O84	O	0.822182	0.399291	0.400709
C85	C	0.676973	0.040053	-0.000076
C86	C	1.176973	0.540053	0.499924
C87	C	0.675966	0.124066	-0.000076
C88	C	1.175966	0.624066	0.499924
C89	C	0.776756	-0.092022	-0.000080
C90	C	1.276756	0.407978	0.499920
C91	C	0.839977	-0.093024	-0.000084
C92	C	1.339977	0.406976	0.499916
N93	N	0.672649	-0.098325	-0.153325
N94	N	1.172649	0.401675	0.346675
C95	C	0.668274	-0.236765	-0.000063
C96	C	1.168274	0.263235	0.499937
C97	C	0.669282	-0.320778	-0.000059
C98	C	1.169282	0.179222	0.499941
C99	C	0.727385	0.172961	-0.000082
C100	C	1.227385	0.672961	0.499918
C101	C	0.726435	0.251899	-0.000077
C102	C	1.226435	0.751899	0.499923
C103	C	0.674066	0.281941	-0.000069
C104	C	1.174066	0.781941	0.499931
C105	C	0.622642	0.233040	-0.000061
C106	C	1.122642	0.733040	0.499939
C107	C	0.623593	0.154103	-0.000062
C108	C	1.123593	0.654103	0.499938
C109	C	0.618808	0.551383	-0.000055
C110	C	1.118808	1.051383	0.499945
C111	C	0.617862	0.630326	-0.000056
C112	C	1.117862	1.130326	0.499944
C113	C	0.721651	0.649178	-0.000071
C114	C	1.221651	1.149178	0.499929
C115	C	0.722601	0.570241	-0.000072
C116	C	1.222601	1.070241	0.499928
C117	C	0.671178	0.521348	-0.000060
C118	C	1.171178	1.021348	0.499940
C119	C	0.672209	0.435754	-0.000065
C120	C	1.172209	0.935754	0.499935
C121	C	0.673034	0.367533	-0.000069
C122	C	1.173034	0.867533	0.499931
N123	N	0.672603	-0.098382	0.153185
N124	N	1.172603	0.401618	0.653185
C125	C	0.711502	-0.046701	0.561820
C126	C	1.211502	0.453299	1.061820
C127	C	0.711507	-0.046697	0.623740
C128	C	1.211507	0.453303	1.123740
O129	O	0.744571	-0.002787	0.655753
O130	O	1.244571	0.497213	1.155753
N131	N	0.672644	-0.098344	0.654723
N132	N	1.172644	0.401656	1.154723
C133	C	0.633779	-0.150002	0.623782
C134	C	1.133779	0.349998	1.123782
O135	O	0.600724	-0.193932	0.655821
O136	O	1.100724	0.306068	1.155821
C137	C	0.633778	-0.150009	0.561863
C138	C	1.133778	0.349991	1.061863
C139	C	0.672639	-0.098354	0.530884
C140	C	1.172639	0.401646	1.030884
C141	C	0.750361	0.004950	0.530841
C142	C	1.250361	0.504950	1.030841
C143	C	0.750356	0.004947	0.468925
C144	C	1.250356	0.504947	0.968925
C145	C	0.711492	-0.046706	0.437989
C146	C	1.211492	0.453294	0.937989
C147	C	0.672634	-0.098357	0.468968
C148	C	1.172634	0.401643	0.968968
C149	C	0.594916	-0.201671	0.530924
C150	C	1.094916	0.298329	1.030924
C151	C	0.594918	-0.201674	0.469001
C152	C	1.094918	0.298326	0.969001
C153	C	0.633779	-0.150018	0.438022
C154	C	1.133779	0.349982	0.938022
C155	C	0.633765	-0.150013	0.376116
C156	C	1.133765	0.349987	0.876116
N157	N	0.672628	-0.098366	0.345134
N158	N	1.172628	0.401634	0.845134
C159	C	0.711491	-0.046713	0.376070
C160	C	1.211491	0.453287	0.876070
C161	C	0.633785	-0.149985	0.753816
C162	C	1.133785	0.350015	1.253816
C163	C	0.633783	-0.149976	0.815733
C164	C	1.133783	0.350024	1.315733
C165	C	0.711511	-0.046671	0.815687
C166	C	1.211511	0.453329	1.315687
C167	C	0.711510	-0.046677	0.753768
C168	C	1.211510	0.453323	1.253768
C169	C	0.672647	-0.098339	0.722833
C170	C	1.172647	0.401661	1.222833
C171	C	0.711477	-0.046723	0.246043
C172	C	1.211477	0.453277	0.746043
C173	C	0.711467	-0.046728	0.184122
C174	C	1.211467	0.453272	0.684122
C175	C	0.633741	-0.150035	0.184173
C176	C	1.133741	0.349965	0.684173
C177	C	0.633748	-0.150028	0.246089
C178	C	1.133748	0.349972	0.746089
C179	C	0.672621	-0.098368	0.277022
C180	C	1.172621	0.401632	0.777022
O181	O	0.600720	-0.193903	0.344064
O182	O	1.100720	0.306097	0.844064
O183	O	0.744545	-0.002797	0.344024
O184	O	1.244545	0.497203	0.844024
H185	H	-0.154481	-0.093094	-0.097371
H186	H	0.345519	0.406906	0.402629
C187	C	0.753726	0.009391	0.150595
C188	C	1.253726	0.509391	0.650595
C189	C	0.787771	0.054611	0.190945
C190	C	1.287771	0.554611	0.690945
C191	C	0.826710	0.106306	0.160084
C192	C	1.326710	0.606306	0.660084
H193	H	0.733400	0.040887	0.126439
H194	H	1.233400	0.540887	0.626439
H195	H	0.777380	-0.017717	0.126450
H196	H	1.277380	0.482283	0.626450
H197	H	0.764120	0.081716	0.215080
H198	H	1.264120	0.581716	0.715080
H199	H	0.808109	0.023136	0.215102
H200	H	1.308109	0.523136	0.715102
H201	H	0.850365	0.079199	0.135940
H202	H	1.350365	0.579199	0.635940
H203	H	0.806380	0.137797	0.135930
H204	H	1.306380	0.637797	0.635930
H205	H	0.849818	0.136989	0.187457
H206	H	1.349818	0.636989	0.687457
C207	C	-0.038662	-0.094836	0.111750
C208	C	0.461338	0.405164	0.611750
C209	C	0.001932	-0.030249	0.114898
C210	C	0.501932	0.469751	0.614898
C211	C	0.031661	-0.030567	0.168514
C212	C	0.531661	0.469433	0.668514
H213	H	-0.019847	-0.139299	0.114041
H214	H	0.480153	0.360701	0.614041
H215	H	-0.064850	-0.094386	0.143698
H216	H	0.435150	0.405614	0.643698
H217	H	0.028116	-0.030706	0.082959
H218	H	0.528116	0.469294	0.582959
H219	H	-0.016868	0.014225	0.112617
H220	H	0.483132	0.514225	0.612617
H221	H	0.005472	-0.030117	0.200462
H222	H	0.505472	0.469883	0.700462
H223	H	0.050472	-0.075033	0.170800
H224	H	0.550472	0.424967	0.670800
H225	H	0.059203	0.013258	0.170659
H226	H	0.559203	0.513258	0.670659
H227	H	0.743132	-0.004658	0.271222
H228	H	1.243132	0.495342	0.771222
H229	H	0.226544	-0.099182	-0.150981
H230	H	0.726544	0.400818	0.349019
C231	C	0.110763	-0.097318	0.165460
C232	C	0.610763	0.402682	0.665460
C233	C	0.149488	-0.097919	0.212413
C234	C	0.649488	0.402081	0.712413
C235	C	0.119902	-0.097392	0.266117
C236	C	0.619902	0.402608	0.766117
H237	H	0.083179	-0.141074	0.167788
H238	H	0.583179	0.358926	0.667788
H239	H	0.092015	-0.052784	0.167716
H240	H	0.592015	0.447216	0.667716
H241	H	0.168226	-0.142449	0.210159
H242	H	0.668226	0.357551	0.710159
H243	H	0.177073	-0.054166	0.210105
H244	H	0.677073	0.445834	0.710105
H245	H	0.101154	-0.052858	0.268372
H246	H	0.601154	0.447142	0.768372
H247	H	0.092319	-0.141149	0.268439
H248	H	0.592319	0.358851	0.768439
H249	H	0.146173	-0.097793	0.297980
H250	H	0.646173	0.402207	0.797980
H251	H	0.602099	-0.192083	0.271313
H252	H	1.102099	0.307917	0.771313
C253	C	0.234600	-0.099468	0.165354
C254	C	0.734600	0.400532	0.665354
C255	C	0.262208	-0.165131	0.168489
C256	C	0.762208	0.334869	0.668489
C257	C	0.291963	-0.165748	0.222072
C258	C	0.791963	0.334252	0.722072
H259	H	0.208455	-0.099093	0.197337
H260	H	0.708455	0.400907	0.697337
H261	H	0.262211	-0.055721	0.167587
H262	H	0.762211	0.444279	0.667587
H263	H	0.234600	-0.208866	0.166262
H264	H	0.734600	0.291134	0.666262
H265	H	0.288362	-0.165520	0.136519
H266	H	0.788362	0.334480	0.636519
H267	H	0.319574	-0.122002	0.224304
H268	H	0.819574	0.377998	0.724304
H269	H	0.265814	-0.165371	0.254050
H270	H	0.765814	0.334629	0.754050
H271	H	0.310703	-0.210296	0.224203
H272	H	0.810703	0.289704	0.724203
H273	H	0.563272	-0.243745	0.443817
H274	H	1.063272	0.256255	0.943817
H275	H	0.499728	-0.103620	0.097232
H276	H	0.999728	0.396380	0.597232
H277	H	0.576937	0.511582	-0.000046
H278	H	1.076937	1.011582	0.499954
C279	C	0.753733	0.009282	0.720062
C280	C	1.253733	0.509282	1.220062
C281	C	0.788467	-0.030888	0.684505
C282	C	1.288467	0.469112	1.184505
C283	C	0.827367	0.020639	0.653446
C284	C	1.327367	0.520639	1.153446
H285	H	0.776931	0.040066	0.747293
H286	H	1.276931	0.540066	1.247293
H287	H	0.733358	0.040694	0.695871
H288	H	1.233358	0.540694	1.195871
H289	H	0.808840	-0.062286	0.708695
H290	H	1.308840	0.437714	1.208695
H291	H	0.765286	-0.061668	0.657264
H292	H	1.265286	0.438332	1.157264
H293	H	0.806992	0.052050	0.629254
H294	H	1.306992	0.552050	1.129254
H295	H	0.850560	0.051419	0.680681
H296	H	1.350560	0.551419	1.180681
H297	H	0.850935	-0.006609	0.629313
H298	H	1.350935	0.493391	1.129313
C299	C	0.591522	-0.205994	0.150500
C300	C	1.091522	0.294006	0.650500
C301	C	0.556793	-0.165825	0.114941
C302	C	1.056793	0.334175	0.614941
C303	C	0.517903	-0.217352	0.083905
C304	C	1.017903	0.282648	0.583905
H305	H	0.568320	-0.236783	0.177745
H306	H	1.068320	0.263217	0.677745
H307	H	0.611904	-0.237400	0.126312
H308	H	1.111904	0.262600	0.626312
H309	H	0.536412	-0.134432	0.139127
H310	H	1.036412	0.365568	0.639127
H311	H	0.579979	-0.135039	0.087685
H312	H	1.079979	0.364961	0.587685
H313	H	0.538286	-0.248758	0.059717
H314	H	1.038286	0.251242	0.559717
H315	H	0.494706	-0.248138	0.111154
H316	H	0.994706	0.251862	0.611154
H317	H	0.494338	-0.190105	0.059770
H318	H	0.994338	0.309895	0.559770
H319	H	0.118796	-0.097452	-0.150985
H320	H	0.618796	0.402548	0.349015
C321	C	0.567704	0.101140	-0.000084
C322	C	1.067704	0.601140	0.499916
C323	C	0.521637	0.144343	-0.000093
C324	C	1.021637	0.644343	0.499907
C325	C	0.470142	0.095580	-0.000117
C326	C	0.970142	0.595580	0.499883
H327	H	0.565834	0.069929	0.034211
H328	H	1.065834	0.569929	0.534211
H329	H	0.565889	0.069974	-0.034401
H330	H	1.065889	0.569974	0.465599
H331	H	0.523451	0.175496	0.034220
H332	H	1.023451	0.675496	0.534220
H333	H	0.523488	0.175552	-0.034385
H334	H	1.023488	0.675552	0.465615
H335	H	0.468327	0.064413	-0.034434
H336	H	0.968327	0.564413	0.465566
H337	H	0.468278	0.064371	0.034178
H338	H	0.968278	0.564371	0.534178
H339	H	0.438880	0.124885	-0.000128
H340	H	0.938880	0.624885	0.499872
C341	C	0.753646	0.009598	0.849190
C342	C	1.253646	0.509598	1.349190
C343	C	0.744561	0.083907	0.834059
C344	C	1.244561	0.583907	1.334059
C345	C	0.783356	0.135789	0.864889
C346	C	1.283356	0.635789	1.364889
H347	H	0.791646	0.001667	0.839041
H348	H	1.291646	0.501667	1.339041
H349	H	0.748115	0.002323	0.890520
H350	H	1.248115	0.502323	1.390520
H351	H	0.750096	0.091179	0.792738
H352	H	1.250096	0.591179	1.292738
H353	H	0.706568	0.091862	0.844209
H354	H	1.206568	0.591862	1.344209
H355	H	0.777825	0.128514	0.906219
H356	H	1.277825	0.628514	1.406219
H357	H	0.821354	0.127851	0.854738
H358	H	1.321354	0.627851	1.354738
H359	H	0.777193	0.186213	0.854632
H360	H	1.277193	0.686213	1.354632
H361	H	0.575214	0.654782	-0.000051
H362	H	1.075214	1.154782	0.499949
C363	C	0.792464	0.061111	0.435267
C364	C	1.292464	0.561111	0.935267
C365	C	0.762277	0.107341	0.399727
C366	C	1.262277	0.607341	0.899727
C367	C	0.801053	0.159095	0.368724
C368	C	1.301053	0.659095	0.868724
H369	H	0.816105	0.034072	0.411065
H370	H	1.316105	0.534072	0.911065
H371	H	0.815600	0.091911	0.462549
H372	H	1.315600	0.591911	0.962549
H373	H	0.739152	0.076545	0.372448
H374	H	1.239152	0.576545	0.872448
H375	H	0.738639	0.134397	0.423914
H376	H	1.238639	0.634397	0.923914
H377	H	0.824188	0.189895	0.396007
H378	H	1.324188	0.689895	0.896007
H379	H	0.824691	0.132049	0.344526
H380	H	1.324691	0.632049	0.844526
H381	H	0.780577	0.190472	0.344612
H382	H	1.280577	0.690472	0.844612
C383	C	0.792583	0.061124	0.564315
C384	C	1.292583	0.561124	1.064315
C385	C	0.826598	0.106361	0.523920
C386	C	1.326598	0.606361	1.023920
C387	C	0.865494	0.158132	0.554729
C388	C	1.365494	0.658132	1.054729
H389	H	0.816267	0.034099	0.588473
H390	H	1.316267	0.534099	1.088473
H391	H	0.772206	0.092595	0.588452
H392	H	1.272206	0.592595	1.088452
H393	H	0.846974	0.074895	0.499793
H394	H	1.346974	0.574895	0.999793
H395	H	0.802930	0.133403	0.499760
H396	H	1.302930	0.633403	0.999760
H397	H	0.845117	0.189602	0.578866
H398	H	1.345117	0.689602	1.078866
H399	H	0.889174	0.131100	0.578887
H400	H	1.389174	0.631100	1.078887
H401	H	0.888574	0.188836	0.527326
H402	H	1.388574	0.688836	1.027326
H403	H	0.563272	-0.243734	0.556139
H404	H	1.063272	0.256266	1.056139
C405	C	-0.038740	-0.094900	-0.111989
C406	C	0.461260	0.405100	0.388011
C407	C	-0.077456	-0.094254	-0.158946
C408	C	0.422544	0.405746	0.341054
C409	C	-0.047854	-0.094666	-0.212646
C410	C	0.452146	0.405334	0.287354
H411	H	-0.019968	-0.139398	-0.114303
H412	H	0.480032	0.360602	0.385697
H413	H	-0.011173	-0.051107	-0.114254
H414	H	0.488827	0.448893	0.385746
H415	H	-0.105013	-0.138043	-0.156682
H416	H	0.394987	0.361957	0.343318
H417	H	-0.096230	-0.049760	-0.156651
H418	H	0.403770	0.450240	0.343349
H419	H	-0.020287	-0.050873	-0.214911
H420	H	0.479713	0.449127	0.285089
H421	H	-0.029083	-0.139165	-0.214954
H422	H	0.470917	0.360835	0.285046
H423	H	-0.074117	-0.094221	-0.244513
H424	H	0.425883	0.405779	0.255487
H425	H	0.602133	-0.192030	0.840953
H426	H	1.102133	0.307970	1.340953
C427	C	0.383949	-0.101558	-0.111892
C428	C	0.883949	0.398442	0.388108
C429	C	0.356364	-0.035877	-0.115047
C430	C	0.856364	0.464123	0.384953
C431	C	0.326671	-0.035219	-0.168664
C432	C	0.826671	0.464781	0.331336
H433	H	0.356328	-0.145276	-0.114179
H434	H	0.856328	0.354724	0.385821
H435	H	0.410146	-0.101934	-0.143838
H436	H	0.910146	0.398066	0.356162
H437	H	0.330169	-0.035508	-0.083109
H438	H	0.830169	0.464492	0.416891
H439	H	0.383972	0.007852	-0.112770
H440	H	0.883972	0.507852	0.387230
H441	H	0.352868	-0.035595	-0.200611
H442	H	0.852868	0.464405	0.299389
H443	H	0.299053	-0.078940	-0.170947
H444	H	0.799053	0.421060	0.329053
H445	H	0.307955	0.009348	-0.170815
H446	H	0.807955	0.509348	0.329185
H447	H	0.770030	0.148507	-0.000092
H448	H	1.270030	0.648507	0.499908
H449	H	0.602133	-0.192052	0.728631
H450	H	1.102133	0.307948	1.228631
C451	C	0.383991	-0.101736	0.111848
C452	C	0.883991	0.398264	0.611848
C453	C	0.422706	-0.102355	0.158809
C454	C	0.922706	0.397645	0.658809
C455	C	0.393109	-0.101851	0.212507
C456	C	0.893109	0.398149	0.712507
H457	H	0.356408	-0.145494	0.114161
H458	H	0.856408	0.354506	0.614161
H459	H	0.365243	-0.057203	0.114111
H460	H	0.865243	0.442797	0.614111
H461	H	0.441446	-0.146883	0.156548
H462	H	0.941446	0.353117	0.656548
H463	H	0.450291	-0.058600	0.156516
H464	H	0.950291	0.441400	0.656516
H465	H	0.374360	-0.057319	0.214769
H466	H	0.874360	0.442681	0.714769
H467	H	0.365526	-0.145610	0.214813
H468	H	0.865526	0.354390	0.714813
H469	H	0.419373	-0.102264	0.244375
H470	H	0.919373	0.397736	0.744375
H471	H	-0.154522	-0.093144	0.097206
H472	H	0.345478	0.406856	0.597206
H473	H	0.499775	-0.103587	-0.097343
H474	H	0.999775	0.396413	0.402657
C475	C	0.565841	0.265802	-0.000082
C476	C	1.065841	0.765802	0.499918
C477	C	0.576012	0.345397	-0.000101
C478	C	1.076012	0.845397	0.499899
C479	C	0.523699	0.375600	-0.000131
C480	C	1.023699	0.875600	0.499869
H481	H	0.544625	0.249066	0.034214
H482	H	1.044625	0.749066	0.534214
H483	H	0.544673	0.249042	-0.034397
H484	H	1.044673	0.749042	0.465603
H485	H	0.597171	0.362149	0.034211
H486	H	1.097171	0.862149	0.534211
H487	H	0.597219	0.362153	-0.034395
H488	H	1.097219	0.862153	0.465605
H489	H	0.502532	0.358840	-0.034446
H490	H	1.002532	0.858840	0.465554
H491	H	0.502487	0.358859	0.034167
H492	H	1.002487	0.858859	0.534167
H493	H	0.530593	0.429608	-0.000149
H494	H	1.030593	0.929608	0.499851
H495	H	0.768306	0.291706	-0.000084
H496	H	1.268306	0.791706	0.499916
C497	C	0.779477	0.537669	0.000043
C498	C	1.279477	1.037669	0.500043
C499	C	0.810540	0.562528	0.050657
C500	C	1.310540	1.062528	0.550657
C501	C	0.862935	0.532531	0.050789
C502	C	1.362935	1.032531	0.550789
H503	H	0.800720	0.554469	-0.034222
H504	H	1.300720	1.054469	0.465778
H505	H	0.772703	0.483651	0.000075
H506	H	1.272703	0.983651	0.500075
H507	H	0.817316	0.616534	0.050619
H508	H	1.317316	1.116534	0.550619
H509	H	0.789315	0.545729	0.084930
H510	H	1.289315	1.045729	0.584930
H511	H	0.856161	0.478513	0.050822
H512	H	1.356161	0.978513	0.550822
H513	H	0.884172	0.549333	0.016522
H514	H	1.384172	1.049333	0.516522
H515	H	0.884015	0.549387	0.085133
H516	H	1.384015	1.049387	0.585133
C517	C	0.777466	0.702302	0.000046
C518	C	1.277466	1.202302	0.500046
C519	C	0.779956	0.748139	0.050664
C520	C	1.279956	1.248139	0.550664
C521	C	0.831366	0.797075	0.050795
C522	C	1.331366	1.297075	0.550795
H523	H	0.779312	0.733571	-0.034216
H524	H	1.279312	1.233571	0.465784
H525	H	0.808807	0.673130	0.000071
H526	H	1.308807	1.173130	0.500071
H527	H	0.748624	0.777308	0.050634
H528	H	1.248624	1.277308	0.550634
H529	H	0.778119	0.716890	0.084935
H530	H	1.278119	1.216890	0.584935
H531	H	0.862706	0.767904	0.050819
H532	H	1.362706	1.267904	0.550819
H533	H	0.833207	0.828340	0.016530
H534	H	1.333207	1.328340	0.516530
H535	H	0.833064	0.828177	0.085141
H536	H	1.333064	1.328177	0.585141
