data_functionalizedCrystal
_audit_creation_method	'MofGen! by Chris Wilmer'
_symmetry_space_group_name_H-M	'P1'
_symmetry_Int_Tables_number	1
_symmetry_cell_setting	triclinic
loop_
_symmetry_equiv_pos_as_xyz
  x,y,z
_cell_length_a	19.188905
_cell_length_b	23.532407
_cell_length_c	17.666332
_cell_angle_alpha	89.988854
_cell_angle_beta	89.983521
_cell_angle_gamma	82.991616
loop_
_atom_site_label
_atom_site_type_symbol
_atom_site_fract_x
_atom_site_fract_y
_atom_site_fract_z
O1	O	0.925934	0.071034	-0.063081
O2	O	0.722590	0.080620	-0.063056
O3	O	0.830394	-0.007092	-0.063055
O4	O	0.818130	0.158746	-0.063081
O5	O	0.830375	-0.007096	0.062842
O6	O	0.722571	0.080616	0.062841
O7	O	0.925915	0.071030	0.062816
Cu8	Cu	0.824241	0.075822	0.074324
Cu9	Cu	0.824264	0.075828	-0.074564
O10	O	0.818111	0.158742	0.062815
C11	C	0.696570	0.080310	-0.000104
C12	C	0.619067	0.079385	-0.000094
C13	C	0.582687	0.078944	-0.068722
C14	C	0.509866	0.078068	-0.068732
C15	C	0.473430	0.077623	-0.000109
C16	C	0.509819	0.078068	0.068529
C17	C	0.582637	0.078949	0.068536
N18	N	0.364510	0.043829	0.050966
N19	N	0.295336	0.042991	0.050954
C20	C	0.254032	0.074970	-0.000127
N21	N	0.284517	0.107812	-0.051207
N22	N	0.353698	0.108648	-0.051197
C23	C	0.394471	0.076668	-0.000109
C24	C	0.138691	0.073580	-0.068770
C25	C	0.065869	0.072709	-0.068776
C26	C	0.065823	0.072703	0.068486
C27	C	0.138644	0.073580	0.068491
C28	C	0.175074	0.074016	-0.000139
C29	C	0.830072	-0.028311	-0.000105
C30	C	0.829133	-0.091530	-0.000099
C31	C	0.887040	-0.490514	-0.000147
C32	C	0.886168	-0.549916	-0.000153
O33	O	0.939848	-0.586551	-0.000188
N34	N	0.822078	-0.572674	-0.000145
C35	C	0.758857	-0.536026	-0.000138
O36	O	0.704264	-0.560837	-0.000132
C37	C	0.759730	-0.476625	-0.000138
C38	C	0.823824	-0.453871	-0.000139
C39	C	0.951129	-0.467759	-0.000149
C40	C	0.952000	-0.408362	-0.000142
C41	C	0.888784	-0.371718	-0.000133
C42	C	0.824696	-0.394473	-0.000132
C43	C	0.696509	-0.439978	-0.000137
C44	C	0.697388	-0.380574	-0.000138
C45	C	0.761482	-0.357820	-0.000138
C46	C	0.762351	-0.298432	-0.000116
N47	N	0.826440	-0.275674	-0.000125
C48	C	0.889657	-0.312317	-0.000133
C49	C	0.757029	-0.660772	-0.000140
C50	C	0.756155	-0.720172	-0.000135
C51	C	0.883466	-0.734058	-0.000151
C52	C	0.884339	-0.674657	-0.000151
C53	C	0.821118	-0.638014	-0.000149
C54	C	0.891483	-0.187577	-0.000118
C55	C	0.892350	-0.128173	-0.000107
C56	C	0.765039	-0.114292	-0.000095
C57	C	0.764172	-0.173691	-0.000102
C58	C	0.827400	-0.210332	-0.000115
O59	O	0.708699	-0.261762	-0.000085
O60	O	0.944241	-0.287498	-0.000149
C61	C	0.951935	0.071340	-0.000137
C62	C	1.029437	0.072265	-0.000152
C63	C	0.818433	0.179961	-0.000137
C64	C	0.819372	0.243180	-0.000148
N65	N	0.824231	0.075818	0.179043
N66	N	0.824280	0.075827	-0.179283
C67	C	0.871982	0.036998	0.218653
C68	C	0.871986	0.036995	0.297901
C69	C	0.824246	0.075822	0.337535
C70	C	0.776486	0.114645	0.297916
C71	C	0.776478	0.114643	0.218670
N72	N	0.815008	0.126238	0.461947
N73	N	0.815020	0.126238	0.537227
C74	C	0.824264	0.075830	0.576299
N75	N	0.833510	0.025420	0.537247
N76	N	0.833503	0.025421	0.461960
C77	C	0.824248	0.075829	0.423465
C78	C	0.872022	0.037004	0.701839
C79	C	0.872021	0.037001	0.781088
C80	C	0.776524	0.114656	0.781101
C81	C	0.776522	0.114654	0.701854
C82	C	0.824274	0.075829	0.662227
H83	H	0.480240	0.077710	-0.124619
N84	N	0.724993	0.156520	0.340663
H85	H	0.751497	0.181684	0.373522
H86	H	0.694751	0.181074	0.303496
N87	N	0.923495	-0.004870	0.340640
H88	H	0.896999	-0.030031	0.373541
H89	H	0.953733	-0.029427	0.303467
N90	N	0.621885	0.079419	0.142557
H91	H	0.646186	0.115079	0.145612
H92	H	0.587718	0.078983	0.185989
H93	H	0.910863	0.005383	0.186392
H94	H	0.713570	-0.084446	-0.000086
H95	H	0.936530	-0.656135	-0.000152
H96	H	0.168353	0.073941	-0.124652
H97	H	1.002610	-0.497589	-0.000159
H98	H	0.036157	0.072344	0.124360
H99	H	0.910904	0.005385	0.813339
N100	N	0.026626	0.072234	-0.142800
H101	H	0.060757	0.072642	-0.186272
H102	H	0.002326	0.036572	-0.145780
N103	N	0.177888	0.074056	0.142512
H104	H	0.143758	0.073642	0.185984
H105	H	0.214014	0.039125	0.145512
H106	H	0.645904	-0.350741	-0.000137
H107	H	0.737641	0.146267	0.669601
N108	N	0.724971	0.156513	0.175942
H109	H	0.694725	0.181109	0.213072
H110	H	0.751519	0.181636	0.143043
N111	N	0.961481	-0.103632	-0.000104
H112	H	1.001395	-0.135862	-0.000112
H113	H	0.964626	-0.079279	-0.046772
N114	N	0.951652	-0.773587	-0.000160
H115	H	0.941368	-0.814668	-0.000163
H116	H	0.979609	-0.766231	-0.046835
H117	H	0.910903	0.005388	0.669574
H118	H	0.480148	0.077707	0.124402
H119	H	0.703964	-0.738692	-0.000121
H120	H	0.737651	0.146267	0.813371
H121	H	0.942970	-0.217404	-0.000132
H122	H	0.612344	0.079299	-0.124606
H123	H	1.004192	-0.389841	-0.000146
H124	H	0.705543	-0.630940	-0.000132
H125	H	0.644318	-0.458493	-0.000141
H126	H	0.711982	-0.192218	-0.000080
