data_functionalizedCrystal
_audit_creation_method	'MofGen! by Chris Wilmer'
_symmetry_space_group_name_H-M	'P1'
_symmetry_Int_Tables_number	1
_symmetry_cell_setting	triclinic
loop_
_symmetry_equiv_pos_as_xyz
  x,y,z
_cell_length_a	16.959455
_cell_length_b	19.121063
_cell_length_c	16.959447
_cell_angle_alpha	92.408052
_cell_angle_beta	89.982031
_cell_angle_gamma	92.465894
loop_
_atom_site_label
_atom_site_type_symbol
_atom_site_fract_x
_atom_site_fract_y
_atom_site_fract_z
Zn1	Zn	1.194944	-0.279665	-0.460312
Zn2	Zn	1.528277	0.053668	-0.126979
Zn3	Zn	1.861610	0.387001	0.206355
Zn4	Zn	1.189201	-0.397123	-0.333763
Zn5	Zn	1.522535	-0.063790	-0.000430
Zn6	Zn	1.855868	0.269543	0.332904
Zn7	Zn	1.062763	-0.279685	-0.328151
Zn8	Zn	1.396096	0.053649	0.005183
Zn9	Zn	1.729430	0.386982	0.338516
Zn10	Zn	1.057083	-0.397074	-0.465899
Zn11	Zn	1.390416	-0.063740	-0.132566
Zn12	Zn	1.723749	0.269593	0.200767
O13	O	1.125998	-0.338387	-0.397031
O14	O	1.459331	-0.005053	-0.063698
O15	O	1.792664	0.328280	0.269635
O16	O	1.304792	-0.295259	-0.443536
O17	O	1.638126	0.038074	-0.110202
O18	O	1.971459	0.371408	0.223131
O19	O	1.172403	-0.381574	-0.222409
O20	O	1.505736	-0.048241	0.110924
O21	O	1.839069	0.285093	0.444258
O22	O	1.085077	-0.181398	-0.340995
O23	O	1.418411	0.151936	-0.007662
O24	O	1.751744	0.485269	0.325672
O25	O	1.300573	-0.381555	-0.350561
O26	O	1.633907	-0.048222	-0.017227
O27	O	1.967240	0.285112	0.316106
O28	O	1.182190	-0.181384	-0.438094
O29	O	1.515524	0.151950	-0.104760
O30	O	1.848857	0.485283	0.228573
O31	O	1.079509	-0.295292	-0.218286
O32	O	1.412842	0.038041	0.115048
O33	O	1.746176	0.371374	0.448381
O34	O	0.951399	-0.295244	-0.346413
O35	O	1.284732	0.038090	-0.013079
O36	O	1.618066	0.371423	0.320254
O37	O	1.075396	-0.381470	-0.575768
O38	O	1.408730	-0.048137	-0.242434
O39	O	1.742063	0.285197	0.090899
O40	O	0.947226	-0.381489	-0.447616
O41	O	1.280559	-0.048156	-0.114283
O42	O	1.613893	0.285178	0.219051
O43	O	1.176682	-0.295211	-0.571663
O44	O	1.510016	0.038123	-0.238329
O45	O	1.843349	0.371456	0.095004
O46	O	1.166895	-0.495401	-0.355978
O47	O	1.500228	-0.162068	-0.022645
O48	O	1.833562	0.171266	0.310689
O49	O	1.069828	-0.495364	-0.453058
O50	O	1.403161	-0.162031	-0.119725
O51	O	1.736495	0.171302	0.213609
C52	C	0.920632	-0.338364	-0.397012
C53	C	1.253966	-0.005030	-0.063679
C54	C	1.587299	0.328303	0.269655
C55	C	0.832776	-0.338371	-0.397023
C56	C	1.166109	-0.005037	-0.063690
C57	C	1.499442	0.328296	0.269643
C58	C	0.463450	-0.293442	-0.344438
C59	C	0.796783	0.039891	-0.011105
C60	C	1.130116	0.373225	0.322228
C61	C	0.459146	-0.383389	-0.449672
C62	C	0.792479	-0.050056	-0.116339
C63	C	1.125813	0.283278	0.216995
C64	C	0.541692	-0.383379	-0.449667
C65	C	0.875026	-0.050046	-0.116333
C66	C	1.208359	0.283288	0.217000
C67	C	0.585121	-0.338401	-0.397046
C68	C	0.918454	-0.005067	-0.063712
C69	C	1.251788	0.328266	0.269621
C70	C	0.546004	-0.293432	-0.344430
C71	C	0.879337	0.039901	-0.011097
C72	C	1.212670	0.373235	0.322237
C73	C	0.580816	-0.428352	-0.502276
C74	C	0.914149	-0.095018	-0.168943
C75	C	1.247483	0.238315	0.164391
C76	C	0.663367	-0.428344	-0.502272
C77	C	0.996701	-0.095011	-0.168939
C78	C	1.330034	0.238323	0.164394
C79	C	0.706798	-0.383361	-0.449654
C80	C	1.040131	-0.050028	-0.116321
C81	C	1.373464	0.283305	0.217012
C82	C	0.667675	-0.338391	-0.397037
C83	C	1.001008	-0.005057	-0.063704
C84	C	1.334342	0.328276	0.269630
C85	C	0.711104	-0.293412	-0.344416
C86	C	1.044437	0.039921	-0.011083
C87	C	1.377771	0.373255	0.322251
C88	C	0.671983	-0.248437	-0.291802
C89	C	1.005316	0.084896	0.041531
C90	C	1.338650	0.418229	0.374865
C91	C	0.589434	-0.248450	-0.291812
C92	C	0.922767	0.084884	0.041521
C93	C	1.256101	0.418217	0.374855
C94	C	0.789347	-0.383349	-0.449644
C95	C	1.122680	-0.050016	-0.116311
C96	C	1.456013	0.283318	0.217022
C97	C	0.793658	-0.293402	-0.344408
C98	C	1.126991	0.039931	-0.011074
C99	C	1.460325	0.373265	0.322259
C100	C	1.117143	-0.520867	-0.405751
C101	C	1.450477	-0.187533	-0.072417
C102	C	1.783810	0.145800	0.260916
C103	C	1.113428	-0.598933	-0.409507
C104	C	1.446761	-0.265599	-0.076174
C105	C	1.780094	0.067734	0.257159
C106	C	1.162259	-0.635604	-0.360770
C107	C	1.495592	-0.302270	-0.027436
C108	C	1.828926	0.031063	0.305897
C109	C	1.158769	-0.708955	-0.364307
C110	C	1.492102	-0.375621	-0.030974
C111	C	1.825436	-0.042288	0.302359
C112	C	1.106444	-0.745633	-0.416579
C113	C	1.439777	-0.412300	-0.083246
C114	C	1.773110	-0.078967	0.250087
C115	C	1.057610	-0.708957	-0.465322
C116	C	1.390944	-0.375624	-0.131989
C117	C	1.724277	-0.042290	0.201345
C118	C	1.061105	-0.635607	-0.461788
C119	C	1.394438	-0.302274	-0.128455
C120	C	1.727771	0.031059	0.204879
C121	C	1.093366	-0.967102	-0.429781
C122	C	1.426700	-0.633769	-0.096448
C123	C	1.760033	-0.300436	0.236886
C124	C	1.089874	-1.040457	-0.433310
C125	C	1.423207	-0.707124	-0.099976
C126	C	1.756541	-0.373790	0.233357
C127	C	1.191034	-1.040450	-0.332296
C128	C	1.524368	-0.707117	0.001038
C129	C	1.857701	-0.373783	0.334371
C130	C	1.194521	-0.967099	-0.328763
C131	C	1.527854	-0.633765	0.004571
C132	C	1.861187	-0.300432	0.337904
C133	C	1.145690	-0.930429	-0.377508
C134	C	1.479024	-0.597096	-0.044175
C135	C	1.812357	-0.263762	0.289158
C136	C	1.102873	-0.820610	-0.420195
C137	C	1.436207	-0.487277	-0.086862
C138	C	1.769540	-0.153943	0.246472
C139	C	1.149265	-0.855454	-0.373896
C140	C	1.482598	-0.522120	-0.040563
C141	C	1.815932	-0.188787	0.292770
C142	C	1.332165	-0.338411	-0.397051
C143	C	1.665498	-0.005077	-0.063718
C144	C	1.998831	0.328256	0.269616
C145	C	1.420021	-0.338421	-0.397059
C146	C	1.753354	-0.005087	-0.063726
C147	C	2.086687	0.328246	0.269607
C148	C	1.126046	-0.338333	-0.603197
C149	C	1.459380	-0.004999	-0.269864
C150	C	1.792713	0.328334	0.063470
C151	C	1.126067	-0.338310	-0.691052
C152	C	1.459400	-0.004976	-0.357719
C153	C	1.792734	0.328357	-0.024386
C154	C	1.134908	-0.155194	-0.388295
C155	C	1.468241	0.178139	-0.054962
C156	C	1.801575	0.511473	0.278372
C157	C	1.138705	-0.077128	-0.384572
C158	C	1.472038	0.256205	-0.051239
C159	C	1.805372	0.589538	0.282094
C160	C	1.174443	-0.383221	-0.734474
C161	C	1.507776	-0.049887	-0.401141
C162	C	1.841110	0.283446	-0.067808
C163	C	1.077705	-0.293381	-0.730183
C164	C	1.411039	0.039953	-0.396850
C165	C	1.744372	0.373286	-0.063517
C166	C	1.077720	-0.293360	-0.812728
C167	C	1.411053	0.039973	-0.479395
C168	C	1.744386	0.373307	-0.146062
C169	C	1.126096	-0.338271	-0.856150
C170	C	1.459429	-0.004938	-0.522817
C171	C	1.792763	0.328395	-0.189483
C172	C	1.174457	-0.383203	-0.817027
C173	C	1.507791	-0.049870	-0.483694
C174	C	1.841124	0.283464	-0.150360
C175	C	1.029353	-0.248434	-0.851858
C176	C	1.362687	0.084899	-0.518524
C177	C	1.696020	0.418232	-0.185191
C178	C	1.029365	-0.248412	-0.934408
C179	C	1.362699	0.084921	-0.601074
C180	C	1.696032	0.418254	-0.267741
C181	C	1.077746	-0.293320	-0.977831
C182	C	1.411079	0.040013	-0.644498
C183	C	1.744413	0.373346	-0.311164
C184	C	1.126110	-0.338253	-0.938703
C185	C	1.459444	-0.004920	-0.605370
C186	C	1.792777	0.328413	-0.272036
C187	C	1.174486	-0.383165	-0.982125
C188	C	1.507820	-0.049831	-0.648792
C189	C	1.841153	0.283502	-0.315458
C190	C	1.222855	-0.428095	-0.942998
C191	C	1.556188	-0.094761	-0.609665
C192	C	1.889522	0.238572	-0.276331
C193	C	1.222838	-0.428111	-0.860450
C194	C	1.556171	-0.094778	-0.527117
C195	C	1.889505	0.238555	-0.193784
C196	C	1.077763	-0.293304	-1.060379
C197	C	1.411096	0.040029	-0.727045
C198	C	1.744430	0.373363	-0.393712
C199	C	1.174501	-0.383147	-1.064678
C200	C	1.507834	-0.049814	-0.731344
C201	C	1.841167	0.283520	-0.398011
C202	C	1.125997	-0.338390	-0.191665
C203	C	1.459330	-0.005057	0.141668
C204	C	1.792664	0.328277	0.475002
C205	C	1.126139	-0.338215	-0.103801
C206	C	1.459472	-0.004882	0.229533
C207	C	1.792806	0.328452	0.562866
H208	H	0.829012	-0.256770	-0.301561
H209	H	1.162346	0.076563	0.031772
H210	H	1.495679	0.409896	0.365106
Cl211	Cl	1.024078	-1.086566	-0.499018
Cl212	Cl	1.357411	-0.753233	-0.165684
Cl213	Cl	1.690745	-0.419900	0.167649
H214	H	1.038315	-0.256820	-0.694825
H215	H	1.371648	0.076513	-0.361491
H216	H	1.704982	0.409847	-0.028158
Cl217	Cl	1.252422	-1.086553	-0.271025
Cl218	Cl	1.585755	-0.753220	0.062309
Cl219	Cl	1.919089	-0.419887	0.395642
Cl220	Cl	1.031977	-0.921012	-0.491060
Cl221	Cl	1.365311	-0.587679	-0.157727
Cl222	Cl	1.698644	-0.254346	0.175606
Cl223	Cl	0.991834	-0.755067	-0.531040
Cl224	Cl	1.325167	-0.421734	-0.197707
Cl225	Cl	1.658500	-0.088401	0.135626
H226	H	0.989963	-0.211875	-0.816498
H227	H	1.323296	0.121459	-0.483165
H228	H	1.656629	0.454792	-0.149831
H229	H	0.557574	-0.211834	-0.248976
H230	H	0.890908	0.121499	0.084358
H231	H	1.224241	0.454832	0.417691
H232	H	1.262217	-0.464692	-0.828586
H233	H	1.595550	-0.131358	-0.495253
H234	H	1.928883	0.201975	-0.161919
Cl235	Cl	0.404549	-0.439945	-0.515804
Cl236	Cl	0.737882	-0.106612	-0.182471
Cl237	Cl	1.071215	0.226722	0.150862
Cl238	Cl	1.283662	-0.484557	-0.997596
Cl239	Cl	1.616995	-0.151224	-0.664262
Cl240	Cl	1.950329	0.182109	-0.330929
H241	H	0.431594	-0.256823	-0.301603
H242	H	0.764927	0.076511	0.031730
H243	H	1.098260	0.409844	0.365063
H244	H	1.204865	-0.605745	-0.318201
H245	H	1.538198	-0.272412	0.015132
H246	H	1.871531	0.060922	0.348466
H247	H	1.237128	-0.937237	-0.286199
H248	H	1.570462	-0.603903	0.047135
H249	H	1.903795	-0.270570	0.380468
H250	H	0.989981	-0.211827	-0.966257
H251	H	1.323314	0.121506	-0.632924
H252	H	1.656647	0.454839	-0.299591
H253	H	1.021342	-0.605750	-0.501476
H254	H	1.354675	-0.272417	-0.168143
H255	H	1.688009	0.060917	0.165191
H256	H	1.213826	-0.419800	-0.702614
H257	H	1.547159	-0.086466	-0.369280
H258	H	1.880493	0.246867	-0.035947
H259	H	0.545450	-0.464976	-0.545112
H260	H	0.878783	-0.131642	-0.211778
H261	H	1.212117	0.201691	0.121555
H262	H	0.695212	-0.464965	-0.545114
H263	H	1.028546	-0.131631	-0.211781
H264	H	1.361879	0.201702	0.121552
H265	H	0.821195	-0.419969	-0.492480
H266	H	1.154529	-0.086636	-0.159146
H267	H	1.487862	0.246698	0.174187
H268	H	1.038381	-0.256724	-1.092232
H269	H	1.371714	0.076610	-0.758899
H270	H	1.705047	0.409943	-0.425565
H271	H	1.198532	-0.738809	-0.324619
H272	H	1.531866	-0.405476	0.008714
H273	H	1.865199	-0.072143	0.342047
H274	H	1.213898	-0.419717	-1.100026
H275	H	1.547231	-0.086383	-0.766693
H276	H	1.880565	0.246950	-0.433359
H277	H	0.707353	-0.211819	-0.248955
H278	H	1.040687	0.121514	0.084379
H279	H	1.374020	0.454848	0.417712
Cl280	Cl	1.215046	-0.809342	-0.308188
Cl281	Cl	1.548380	-0.476009	0.025145
Cl282	Cl	1.881713	-0.142676	0.358478
H283	H	1.060268	-0.850482	-0.462753
H284	H	1.393601	-0.517148	-0.129420
H285	H	1.726935	-0.183815	0.203913
