data_functionalizedCrystal
_audit_creation_method	'MofGen! by Chris Wilmer'
_symmetry_space_group_name_H-M	'P1'
_symmetry_Int_Tables_number	1
_symmetry_cell_setting	triclinic
loop_
_symmetry_equiv_pos_as_xyz
  x,y,z
_cell_length_a	27.440280
_cell_length_b	12.477989
_cell_length_c	12.477952
_cell_angle_alpha	61.136533
_cell_angle_beta	84.696866
_cell_angle_gamma	55.719733
loop_
_atom_site_label
_atom_site_type_symbol
_atom_site_fract_x
_atom_site_fract_y
_atom_site_fract_z
Zr1	Zr	0.437209	1.177995	-0.064032
O2	O	0.359321	1.402550	-0.221157
O3	O	0.466138	0.953450	-0.026075
O4	O	0.468281	1.177988	-0.235891
O5	O	0.349740	1.178013	0.165780
O6	O	0.548484	1.177971	-0.235898
O7	O	0.357178	1.178012	-0.011341
O8	O	0.544650	0.776314	0.139423
O9	O	0.353575	1.579670	-0.209541
O10	O	0.532226	1.045792	0.002443
O11	O	0.466821	1.045806	0.134632
O12	O	0.469345	1.310170	-0.112398
O13	O	0.403940	1.310184	0.019791
Zr14	Zr	0.553261	1.177970	0.218444
Zr15	Zr	0.565123	1.177967	-0.064044
Zr16	Zr	0.425347	1.177997	0.218456
Zr17	Zr	0.428044	1.460482	-0.045507
Zr18	Zr	0.562426	0.895482	0.199919
O19	O	0.524332	1.402514	0.180488
O20	O	0.541199	1.402510	-0.221174
O21	O	0.342455	1.402553	0.180505
O22	O	0.631149	0.953415	0.375569
O23	O	0.648015	0.953411	-0.026093
O24	O	0.449271	0.953454	0.375586
O25	O	0.640730	1.177951	-0.011368
O26	O	0.522188	1.177976	0.390303
O27	O	0.441986	1.177994	0.390311
O28	O	0.633292	1.177952	0.165753
O29	O	0.455249	1.579649	-0.209551
O30	O	0.535221	0.776316	0.363963
O31	O	0.636895	0.776294	0.363954
O32	O	0.646324	0.776292	0.139413
O33	O	0.344146	1.579672	0.014999
O34	O	0.445820	1.579651	0.014989
O35	O	0.521125	1.045794	0.266810
O36	O	0.586530	1.045780	0.134621
O37	O	0.523649	1.310158	0.019780
O38	O	0.458244	1.310172	0.151969
C39	C	0.506699	0.824633	0.054034
C40	C	0.510590	0.704710	0.046170
C41	C	0.335234	1.178016	0.077221
C42	C	0.280931	1.178028	0.077226
C43	C	-0.051666	1.177947	-0.020376
C44	C	-0.102684	1.177936	-0.020377
O45	O	-0.125573	1.177879	-0.103339
N46	N	-0.132299	1.177940	0.077199
C47	C	-0.110891	1.177939	0.174790
O48	O	-0.140765	1.177940	0.257786
C49	C	-0.059871	1.177939	0.174795
C50	C	-0.030262	1.177951	0.077205
C51	C	-0.022057	1.177957	-0.117956
C52	C	0.028957	1.177971	-0.117956
C53	C	0.050361	1.177975	-0.020374
C54	C	0.020751	1.177965	0.077206
C55	C	-0.038462	1.177927	0.272389
C56	C	0.012562	1.177926	0.272386
C57	C	0.042171	1.177938	0.174797
C58	C	0.093168	1.177982	0.174788
N59	N	0.122784	1.177978	0.077212
C60	C	0.101380	1.177975	-0.020369
C61	C	-0.218034	1.177937	0.174773
C62	C	-0.269055	1.177948	0.174764
C63	C	-0.260843	1.177942	-0.020402
C64	C	-0.209824	1.177942	-0.020397
C65	C	-0.188418	1.177933	0.077197
C66	C	0.208511	1.178005	-0.020361
C67	C	0.259527	1.178025	-0.020355
C68	C	0.251313	1.178022	0.174814
C69	C	0.200300	1.178010	0.174805
C70	C	0.178901	1.177996	0.077210
O71	O	0.116093	1.178033	0.257710
O72	O	0.131265	1.177954	-0.103343
C73	C	0.655236	1.177948	0.077191
C74	C	0.709539	1.177936	0.077186
C75	C	0.510073	1.177979	-0.276143
C76	C	0.515109	1.177978	-0.396067
C77	C	0.483770	1.531331	0.100378
C78	C	0.479879	1.651254	0.108242
C79	C	0.480397	1.177985	0.430555
C80	C	0.475361	1.177986	0.550479
C81	C	0.666701	0.824599	0.054019
C82	C	0.724895	0.704664	0.046150
C83	C	0.491862	0.824637	0.407384
C84	C	0.490717	0.704714	0.519443
C85	C	0.651863	0.824602	0.407368
C86	C	0.705021	0.704668	0.519423
C87	C	0.338607	1.531362	-0.252956
C88	C	0.285449	1.651296	-0.365010
C89	C	0.323769	1.531365	0.100393
C90	C	0.265575	1.651300	0.108262
C91	C	0.498608	1.531328	-0.252971
C92	C	0.499753	1.651250	-0.365031
C93	C	0.723878	0.648347	-0.026553
C94	C	0.778553	0.535671	-0.033972
C95	C	0.834244	0.479306	0.031319
C96	C	0.835259	0.535634	0.104025
C97	C	0.780585	0.648316	0.111436
C98	C	0.764131	0.648339	0.503043
C99	C	0.814083	0.535664	0.608320
C100	C	0.804925	0.479313	0.729975
C101	C	0.745809	0.535653	0.746353
C102	C	0.695857	0.648334	0.641077
C103	C	0.226339	1.707639	-0.348630
C104	C	0.176385	1.820349	-0.453905
C105	C	0.185543	1.876706	-0.575559
C106	C	0.244660	1.820358	-0.591937
C107	C	0.294612	1.707658	-0.486663
C108	C	0.266592	1.707629	0.180954
C109	C	0.211918	1.820336	0.188344
C110	C	0.156226	1.876705	0.123049
C111	C	0.155211	1.820372	0.050348
C112	C	0.209885	1.707674	0.042952
H113	H	0.450606	0.697241	0.167393
C114	C	0.531509	1.713350	-0.347224
N115	N	0.555428	1.760123	-0.333813
C116	C	0.735745	0.473638	0.880184
N117	N	0.728167	0.426916	0.980988
H118	H	0.539861	0.658731	-0.012996
C119	C	0.441572	1.642618	-0.498365
N120	N	0.417655	1.595839	-0.511772
H121	H	0.029988	1.177914	0.351862
C122	C	0.327847	1.645651	0.252784
N123	N	0.373983	1.598984	0.306885
C124	C	0.896526	0.473605	0.175849
N125	N	0.942674	0.426872	0.229955
C126	C	0.662623	0.710336	-0.098394
N127	N	0.616487	0.757027	-0.152516
C128	C	0.216250	1.645677	-0.214818
N129	N	0.208645	1.599023	-0.114033
C130	C	0.254724	1.882353	-0.725770
N131	N	0.262303	1.929042	-0.826577
C132	C	0.213048	1.882269	0.268333
N133	N	0.213902	1.928911	0.328584
H134	H	0.144864	1.968473	-0.661269
C135	C	0.292097	1.178029	-0.127712
N136	N	0.316628	1.178027	-0.208568
H137	H	0.552990	1.177978	-0.442055
C138	C	0.111363	1.882308	-0.435860
N139	N	0.062389	1.928973	-0.422266
C140	C	-0.071017	1.177898	0.379754
N141	N	-0.095536	1.177869	0.460631
H142	H	0.437478	1.178003	-0.403546
H143	H	0.777714	0.489823	-0.093176
H144	H	0.862214	0.489803	0.594962
H145	H	0.781421	0.694154	0.170646
H146	H	0.191095	1.177991	-0.099830
C147	C	0.093944	1.882373	-0.021450
N148	N	0.047795	1.929064	-0.075517
C149	C	-0.194493	1.177931	0.282139
N150	N	-0.176764	1.177920	0.363010
H151	H	0.209048	1.661815	-0.016238
H152	H	0.176186	1.178023	0.254261
H153	H	0.342741	1.661784	-0.500016
H154	H	-0.039477	1.177949	-0.197419
C155	C	0.061527	1.177959	-0.225302
N156	N	0.086058	1.177941	-0.306157
C157	C	-0.177255	1.177940	-0.127745
N158	N	-0.152724	1.177932	-0.208602
H159	H	-0.278279	1.177936	-0.099857
H160	H	-0.293165	1.177962	0.254220
H161	H	0.268746	1.178032	0.254261
H162	H	0.111711	1.968470	0.129083
H163	H	0.878759	0.387552	0.025275
H164	H	0.845604	0.387561	0.815686
C165	C	0.774219	0.710312	0.369232
N166	N	0.781823	0.756991	0.268448
H167	H	0.647729	0.694183	0.654431
