data_functionalizedCrystal
_audit_creation_method	'MofGen! by Chris Wilmer'
_symmetry_space_group_name_H-M	'P1'
_symmetry_Int_Tables_number	1
_symmetry_cell_setting	triclinic
loop_
_symmetry_equiv_pos_as_xyz
  x,y,z
_cell_length_a	16.109301
_cell_length_b	15.944493
_cell_length_c	14.421503
_cell_angle_alpha	89.997074
_cell_angle_beta	89.997488
_cell_angle_gamma	83.468262
loop_
_atom_site_label
_atom_site_type_symbol
_atom_site_fract_x
_atom_site_fract_y
_atom_site_fract_z
O1	O	1.103145	0.107975	-0.077041
O2	O	1.353145	0.357975	0.172959
O3	O	1.603145	0.607975	0.422959
O4	O	1.853145	0.857975	0.672959
O5	O	0.861085	0.121412	-0.077054
O6	O	1.111085	0.371412	0.172946
O7	O	1.361085	0.621412	0.422946
O8	O	1.611085	0.871412	0.672946
O9	O	0.988750	-0.007587	-0.077055
O10	O	1.238750	0.242413	0.172945
O11	O	1.488750	0.492413	0.422945
O12	O	1.738750	0.742413	0.672945
O13	O	0.975479	0.236974	-0.077040
O14	O	1.225479	0.486974	0.172960
O15	O	1.475479	0.736974	0.422960
O16	O	1.725479	0.986974	0.672960
O17	O	0.988738	-0.007601	0.077169
O18	O	1.238738	0.242399	0.327169
O19	O	1.488738	0.492399	0.577169
O20	O	1.738738	0.742399	0.827169
O21	O	0.861073	0.121398	0.077169
O22	O	1.111073	0.371398	0.327169
O23	O	1.361073	0.621398	0.577169
O24	O	1.611073	0.871398	0.827169
O25	O	1.103133	0.107961	0.077183
O26	O	1.353133	0.357961	0.327183
O27	O	1.603133	0.607961	0.577183
O28	O	1.853133	0.857961	0.827183
Cu29	Cu	0.982102	0.114678	0.091258
Cu30	Cu	1.232102	0.364678	0.341258
Cu31	Cu	1.482102	0.614678	0.591258
Cu32	Cu	1.732102	0.864678	0.841258
Cu33	Cu	0.982116	0.114695	-0.091129
Cu34	Cu	1.232116	0.364695	0.158871
Cu35	Cu	1.482116	0.614695	0.408871
Cu36	Cu	1.732116	0.864695	0.658871
O37	O	0.975468	0.236960	0.077183
O38	O	1.225468	0.486960	0.327183
O39	O	1.475468	0.736960	0.577183
O40	O	1.725468	0.986960	0.827183
C41	C	0.830104	0.120861	0.000056
C42	C	1.080104	0.370861	0.250056
C43	C	1.330104	0.620861	0.500056
C44	C	1.580104	0.870861	0.750056
C45	C	0.737808	0.119229	0.000050
C46	C	0.987808	0.369229	0.250050
C47	C	1.237808	0.619229	0.500050
C48	C	1.487808	0.869229	0.750050
C49	C	0.515544	0.191980	0.000065
C50	C	0.765544	0.441980	0.250065
C51	C	1.015544	0.691980	0.500065
C52	C	1.265544	0.941980	0.750065
C53	C	0.428824	0.190440	0.000071
C54	C	0.678824	0.440440	0.250071
C55	C	0.928824	0.690440	0.500071
C56	C	1.178824	0.940440	0.750071
C57	C	0.448680	0.037388	0.000058
C58	C	0.698680	0.287388	0.250058
C59	C	0.948680	0.537388	0.500058
C60	C	1.198680	0.787388	0.750058
C61	C	0.535399	0.038928	0.000059
C62	C	0.785399	0.288928	0.250059
C63	C	1.035399	0.538928	0.500059
C64	C	1.285399	0.788928	0.750059
C65	C	0.568829	0.116227	0.000058
C66	C	0.818829	0.366227	0.250058
C67	C	1.068829	0.616227	0.500058
C68	C	1.318829	0.866227	0.750058
C69	C	0.395389	0.113146	0.000063
C70	C	0.645389	0.363146	0.250063
C71	C	0.895389	0.613146	0.500063
C72	C	1.145389	0.863146	0.750063
C73	C	0.301363	0.111476	0.000069
C74	C	0.551363	0.361476	0.250069
C75	C	0.801363	0.611476	0.500069
C76	C	1.051363	0.861476	0.750069
C77	C	0.662861	0.117897	0.000053
C78	C	0.912861	0.367897	0.250053
C79	C	1.162861	0.617897	0.500053
C80	C	1.412861	0.867897	0.750053
C81	C	0.988202	-0.038888	0.000053
C82	C	1.238202	0.211112	0.250053
C83	C	1.488202	0.461112	0.500053
C84	C	1.738202	0.711112	0.750053
C85	C	0.986576	-0.132136	0.000041
C86	C	1.236576	0.117864	0.250041
C87	C	1.486576	0.367864	0.500041
C88	C	1.736576	0.617864	0.750041
C89	C	1.061722	-0.367921	0.000063
C90	C	1.311722	-0.117921	0.250063
C91	C	1.561722	0.132079	0.500063
C92	C	1.811722	0.382079	0.750063
C93	C	1.021204	-0.418469	-0.075979
C94	C	1.271204	-0.168469	0.174021
C95	C	1.521204	0.081531	0.424021
C96	C	1.771204	0.331531	0.674021
C97	C	0.983563	-0.302856	0.000052
C98	C	1.233563	-0.052856	0.250052
C99	C	1.483563	0.197144	0.500052
C100	C	1.733563	0.447144	0.750052
C101	C	1.021175	-0.418459	0.076073
C102	C	1.271175	-0.168459	0.326073
C103	C	1.521175	0.081541	0.576073
C104	C	1.771175	0.331541	0.826073
C105	C	0.980658	-0.467765	0.000067
C106	C	1.230658	-0.217765	0.250067
C107	C	1.480658	0.032235	0.500067
C108	C	1.730658	0.282235	0.750067
C109	C	0.943066	-0.352176	-0.076052
C110	C	1.193066	-0.102176	0.173948
C111	C	1.443066	0.147824	0.423948
C112	C	1.693066	0.397824	0.673948
C113	C	0.943047	-0.352162	0.076068
C114	C	1.193047	-0.102162	0.326068
C115	C	1.443047	0.147838	0.576068
C116	C	1.693047	0.397838	0.826068
C117	C	0.902472	-0.402677	0.000008
C118	C	1.152472	-0.152677	0.250008
C119	C	1.402472	0.097323	0.500008
C120	C	1.652472	0.347323	0.750008
C121	C	0.985238	-0.207857	0.000043
C122	C	1.235238	0.042143	0.250043
C123	C	1.485238	0.292143	0.500043
C124	C	1.735238	0.542143	0.750043
C125	C	0.978976	-0.562762	0.000070
C126	C	1.228976	-0.312762	0.250070
C127	C	1.478976	-0.062762	0.500070
C128	C	1.728976	0.187238	0.750070
C129	C	1.134114	0.108513	0.000071
C130	C	1.384114	0.358513	0.250071
C131	C	1.634114	0.608513	0.500071
C132	C	1.884114	0.858513	0.750071
C133	C	1.226410	0.110144	0.000070
C134	C	1.476410	0.360144	0.250070
C135	C	1.726410	0.610144	0.500070
C136	C	1.976410	0.860144	0.750070
C137	C	0.976016	0.268262	0.000074
C138	C	1.226016	0.518262	0.250074
C139	C	1.476016	0.768262	0.500074
C140	C	1.726016	1.018262	0.750074
C141	C	0.977642	0.361510	0.000079
C142	C	1.227642	0.611510	0.250079
C143	C	1.477642	0.861510	0.500079
C144	C	1.727642	1.111510	0.750079
N145	N	0.982098	0.114666	0.219539
N146	N	1.232098	0.364666	0.469539
N147	N	1.482098	0.614666	0.719539
N148	N	1.732098	0.864666	0.969539
N149	N	0.982126	0.114700	-0.219410
N150	N	1.232126	0.364700	0.030590
N151	N	1.482126	0.614700	0.280590
N152	N	1.732126	0.864700	0.530590
C153	C	1.040688	0.054543	0.530967
C154	C	1.290688	0.304543	0.780967
C155	C	1.540688	0.554543	1.030967
C156	C	1.790688	0.804543	1.280967
C157	C	1.057487	0.130210	0.469137
C158	C	1.307487	0.380210	0.719137
C159	C	1.557487	0.630210	0.969137
C160	C	1.807487	0.880210	1.219137
C161	C	0.982117	0.114691	0.591428
C162	C	1.232117	0.364691	0.841428
C163	C	1.482117	0.614691	1.091428
C164	C	1.732117	0.864691	1.341428
C165	C	0.965348	0.039014	0.469165
C166	C	1.215348	0.289014	0.719165
C167	C	1.465348	0.539014	0.969165
C168	C	1.715348	0.789014	1.219165
C169	C	0.982110	0.114675	0.408707
C170	C	1.232110	0.364675	0.658707
C171	C	1.482110	0.614675	0.908707
C172	C	1.732110	0.864675	1.158707
C173	C	0.998953	0.190396	0.530958
C174	C	1.248953	0.440396	0.780958
C175	C	1.498953	0.690396	1.030958
C176	C	1.748953	0.940396	1.280958
C177	C	0.906782	0.099150	0.530992
C178	C	1.156782	0.349150	0.780992
C179	C	1.406782	0.599150	1.030992
C180	C	1.656782	0.849150	1.280992
C181	C	0.923549	0.174872	0.469189
C182	C	1.173549	0.424872	0.719189
C183	C	1.423549	0.674872	0.969189
C184	C	1.673549	0.924872	1.219189
C185	C	0.982123	0.114699	0.696689
C186	C	1.232123	0.364699	0.946689
C187	C	1.482123	0.614699	1.196689
C188	C	1.732123	0.864699	1.446689
C189	C	0.982103	0.114675	0.303448
C190	C	1.232103	0.364675	0.553448
C191	C	1.482103	0.614675	0.803448
C192	C	1.732103	0.864675	1.053448
H193	H	0.542760	0.254921	0.000071
H194	H	0.792760	0.504921	0.250071
H195	H	1.042760	0.754921	0.500071
H196	H	1.292760	1.004921	0.750071
H197	H	0.910081	-0.323340	-0.140409
H198	H	1.160081	-0.073340	0.109591
H199	H	1.410081	0.176660	0.359591
H200	H	1.660081	0.426660	0.609591
Br201	Br	0.403306	-0.067513	0.000056
Br202	Br	0.653306	0.182487	0.250056
Br203	Br	0.903306	0.432487	0.500056
Br204	Br	1.153306	0.682487	0.750056
H205	H	1.129047	-0.352315	-0.000010
H206	H	1.379047	-0.102315	0.249990
H207	H	1.629047	0.147685	0.499990
H208	H	1.879047	0.397685	0.749990
H209	H	0.835095	-0.418121	-0.000038
H210	H	1.085095	-0.168121	0.249962
H211	H	1.335095	0.081879	0.499962
H212	H	1.585095	0.331879	0.749962
H213	H	0.385443	0.252126	0.000079
H214	H	0.635443	0.502126	0.250079
H215	H	0.885443	0.752126	0.500079
H216	H	1.135443	1.002126	0.750079
H217	H	0.874012	0.225785	0.442235
H218	H	1.124012	0.475785	0.692235
H219	H	1.374012	0.725785	0.942235
H220	H	1.624012	0.975785	1.192235
H221	H	0.578786	-0.022763	0.000055
H222	H	0.828786	0.227237	0.250055
H223	H	1.078786	0.477237	0.500055
H224	H	1.328786	0.727237	0.750055
Br225	Br	1.022715	0.297077	0.576002
Br226	Br	1.272715	0.547077	0.826002
Br227	Br	1.522715	0.797077	1.076002
Br228	Br	1.772715	1.047077	1.326002
H229	H	1.054217	-0.447420	-0.140264
H230	H	1.304217	-0.197420	0.109736
H231	H	1.554217	0.052580	0.359736
H232	H	1.804217	0.302580	0.609736
Br233	Br	0.888088	-0.303859	0.183220
Br234	Br	1.138088	-0.053859	0.433220
Br235	Br	1.388088	0.196141	0.683220
Br236	Br	1.638088	0.446141	0.933220
Br237	Br	1.163661	0.152105	0.423825
Br238	Br	1.413661	0.402105	0.673825
Br239	Br	1.663661	0.652105	0.923825
Br240	Br	1.913661	0.902105	1.173825
H241	H	0.843096	0.085982	0.558182
H242	H	1.093096	0.335982	0.808182
H243	H	1.343096	0.585982	1.058182
H244	H	1.593096	0.835982	1.308182
Br245	Br	1.123299	-0.030130	0.576183
Br246	Br	1.373299	0.219870	0.826183
Br247	Br	1.623299	0.469870	1.076183
Br248	Br	1.873299	0.719870	1.326183
H249	H	1.054194	-0.447406	0.140356
H250	H	1.304194	-0.197406	0.390356
H251	H	1.554194	0.052594	0.640356
H252	H	1.804194	0.302594	0.890356
Br253	Br	0.941707	-0.067643	0.423927
Br254	Br	1.191707	0.182357	0.673927
Br255	Br	1.441707	0.432357	0.923927
Br256	Br	1.691707	0.682357	1.173927
