data_functionalizedCrystal
_audit_creation_method	'MofGen! by Chris Wilmer'
_symmetry_space_group_name_H-M	'P1'
_symmetry_Int_Tables_number	1
_symmetry_cell_setting	triclinic
loop_
_symmetry_equiv_pos_as_xyz
  x,y,z
_cell_length_a	6.817900
_cell_length_b	17.253917
_cell_length_c	16.255661
_cell_angle_alpha	99.041633
_cell_angle_beta	103.488922
_cell_angle_gamma	102.659311
loop_
_atom_site_label
_atom_site_type_symbol
_atom_site_fract_x
_atom_site_fract_y
_atom_site_fract_z
V1	V	-4.027639	-0.111964	-0.271952
O2	O	-4.014151	0.004712	-0.258508
O3	O	-3.980096	-0.221362	-0.278043
O4	O	-3.979189	-0.110535	-0.386932
O5	O	-4.015065	-0.106883	-0.148865
V6	V	-4.511162	-0.097973	-0.256264
O7	O	-4.288896	-0.142653	-0.306365
O8	O	-4.700102	-0.067284	-0.221851
O9	O	-4.335498	0.011425	-0.250173
O10	O	-4.642046	-0.214649	-0.269708
O11	O	-4.641133	-0.103054	-0.379351
O12	O	-4.336405	-0.099402	-0.141284
C13	C	-3.825307	-0.248022	-0.275804
C14	C	-3.867722	-0.337458	-0.281551
C15	C	-3.847325	-0.367795	-0.205906
C16	C	-3.887198	-0.451831	-0.211308
C17	C	-3.947453	-0.505528	-0.292356
C18	C	-3.967856	-0.475187	-0.368007
C19	C	-3.927998	-0.391153	-0.362604
C20	C	-4.070997	-0.758108	-0.316916
C21	C	-4.110849	-0.842147	-0.322313
C22	C	-4.030192	-0.818786	-0.165614
C23	C	-3.990325	-0.734751	-0.160218
C24	C	-4.010742	-0.704416	-0.235869
N25	N	-3.988204	-0.591427	-0.297880
N26	N	-3.970005	-0.618520	-0.230345
C27	C	-3.824149	-0.106650	-0.414702
C28	C	-3.865825	-0.106206	-0.508751
C29	C	-3.776337	-0.100898	-0.731187
C30	C	-3.933320	-0.169400	-0.805607
C31	C	-3.942202	-0.105373	-0.680940
C32	C	-3.859503	-0.036087	-0.774100
C33	C	-4.015964	-0.104564	-0.847265
C34	C	-4.098668	-0.173935	-0.754134
C35	C	-4.024788	-0.040562	-0.722608
C36	C	-4.181908	-0.109083	-0.797010
C37	C	-3.899705	-0.105839	-0.585124
C38	C	-4.058478	-0.104104	-0.943080
C39	C	-4.153629	0.038081	-0.252409
C40	C	-4.090453	0.127516	-0.246668
C41	C	-4.154787	-0.103290	-0.113509
C42	C	-4.092350	-0.103730	-0.019459
H43	H	-3.941275	-0.691035	-0.094220
F44	F	-3.865504	-0.484114	-0.130796
H45	H	-4.159908	-0.885867	-0.388316
F46	F	-4.008478	-0.851076	-0.085107
F47	F	-3.551808	-0.096490	-0.693639
H48	H	-4.353809	-0.112562	-0.825608
H49	H	-4.016933	-0.518914	-0.433998
H50	H	-4.062932	0.013911	-0.686568
F51	F	-4.092716	-0.725834	-0.397431
F52	F	-3.727864	0.040060	-0.786356
H53	H	-3.895098	-0.223870	-0.841624
H54	H	-3.944629	-0.366455	-0.424203
H55	H	-3.798246	-0.324079	-0.139907
H56	H	-4.199367	-0.232256	-0.744877
