data_functionalizedCrystal
_audit_creation_method	'MofGen! by Chris Wilmer'
_symmetry_space_group_name_H-M	'P1'
_symmetry_Int_Tables_number	1
_symmetry_cell_setting	triclinic
loop_
_symmetry_equiv_pos_as_xyz
  x,y,z
_cell_length_a	6.817900
_cell_length_b	17.078472
_cell_length_c	16.255661
_cell_angle_alpha	96.262601
_cell_angle_beta	103.488922
_cell_angle_gamma	99.306020
loop_
_atom_site_label
_atom_site_type_symbol
_atom_site_fract_x
_atom_site_fract_y
_atom_site_fract_z
V1	V	-4.005724	-0.110408	-0.263786
O2	O	-4.015074	0.004646	-0.258852
O3	O	-3.936769	-0.218286	-0.261897
O4	O	-3.957554	-0.108999	-0.378870
O5	O	-3.994145	-0.105398	-0.141069
V6	V	-4.491986	-0.096612	-0.249118
O7	O	-4.260975	-0.140671	-0.295960
O8	O	-4.686932	-0.066349	-0.216943
O9	O	-4.337734	0.011266	-0.251006
O10	O	-4.600033	-0.211666	-0.254052
O11	O	-4.620962	-0.101622	-0.371834
O12	O	-4.316949	-0.098021	-0.134034
C13	C	-3.776761	-0.244575	-0.257714
C14	C	-3.801671	-0.332769	-0.256938
C15	C	-3.994710	-0.378254	-0.260791
C16	C	-4.018106	-0.461122	-0.260066
C17	C	-3.848456	-0.498502	-0.255482
C18	C	-3.655402	-0.453012	-0.251631
C19	C	-3.632012	-0.370147	-0.252362
C20	C	-3.898967	-0.745900	-0.252849
C21	C	-3.922372	-0.828771	-0.252116
C22	C	-4.285076	-0.836875	-0.260553
C23	C	-4.261666	-0.754007	-0.261278
C24	C	-4.068617	-0.708525	-0.257432
N25	N	-3.872364	-0.583206	-0.254738
N26	N	-4.044714	-0.623823	-0.258181
C27	C	-3.803274	-0.105168	-0.406923
C28	C	-3.845037	-0.104730	-0.501005
C29	C	-3.756589	-0.099496	-0.723828
C30	C	-3.900164	-0.167046	-0.793252
C31	C	-3.921578	-0.103908	-0.673254
C32	C	-3.852440	-0.035585	-0.771468
C33	C	-3.995497	-0.103111	-0.839638
C34	C	-4.064623	-0.171518	-0.741448
C35	C	-4.016849	-0.039998	-0.719649
C36	C	-4.160557	-0.107567	-0.789054
C37	C	-3.878989	-0.104368	-0.577405
C38	C	-4.038102	-0.102657	-0.935487
C39	C	-4.161083	0.037551	-0.255187
C40	C	-4.115412	0.125744	-0.255969
C41	C	-4.134570	-0.101855	-0.105976
C42	C	-4.072047	-0.102289	-0.011893
H43	H	-4.399820	-0.723579	-0.265017
Br44	Br	-3.692122	-0.879504	-0.245905
H45	H	-3.585467	-0.096171	-0.695350
Br46	Br	-4.445932	-0.113279	-0.836297
H47	H	-4.175297	-0.498152	-0.263205
Br48	Br	-3.818697	-0.256573	-0.846662
H49	H	-4.065655	0.013718	-0.687582
H50	H	-4.132858	-0.347824	-0.264516
H51	H	-4.442249	-0.873916	-0.263684
Br52	Br	-4.213448	-0.267372	-0.718935
H53	H	-3.741777	-0.708877	-0.249712
Br54	Br	-3.425163	-0.503743	-0.245417
H55	H	-3.763123	0.021847	-0.785122
Br56	Br	-3.370024	-0.308417	-0.247141
