data_functionalizedCrystal
_audit_creation_method	'MofGen! by Chris Wilmer'
_symmetry_space_group_name_H-M	'P1'
_symmetry_Int_Tables_number	1
_symmetry_cell_setting	triclinic
loop_
_symmetry_equiv_pos_as_xyz
  x,y,z
_cell_length_a	11.792254
_cell_length_b	10.868271
_cell_length_c	10.654550
_cell_angle_alpha	89.995020
_cell_angle_beta	95.658236
_cell_angle_gamma	90.004259
loop_
_atom_site_label
_atom_site_type_symbol
_atom_site_fract_x
_atom_site_fract_y
_atom_site_fract_z
O1	O	1.507298	0.102321	-0.172212
O2	O	2.007298	0.602321	0.327788
O3	O	1.176999	0.102324	-0.189936
O4	O	1.676999	0.602324	0.310064
O5	O	1.349743	0.102314	0.001687
O6	O	1.849743	0.602314	0.501687
O7	O	1.334554	0.102330	-0.363834
O8	O	1.834554	0.602330	0.136166
O9	O	1.349728	-0.102330	0.001694
O10	O	1.849728	0.397670	0.501694
O11	O	1.176985	-0.102321	-0.189928
O12	O	1.676985	0.397679	0.310072
O13	O	1.507283	-0.102324	-0.172204
O14	O	2.007283	0.397676	0.327796
Zn15	Zn	1.342132	-0.134814	-0.181065
Zn16	Zn	1.842132	0.365186	0.318935
Zn17	Zn	1.342151	0.134814	-0.181075
Zn18	Zn	1.842151	0.634814	0.318925
O19	O	1.334540	-0.102315	-0.363827
O20	O	1.834540	0.397685	0.136173
C21	C	1.134699	0.000002	-0.188815
C22	C	1.634699	0.500002	0.311185
C23	C	1.008678	0.000002	-0.185474
C24	C	1.508678	0.500002	0.314526
C25	C	0.906335	0.000007	-0.182758
C26	C	1.406335	0.500007	0.317242
C27	C	0.777941	0.000008	-0.179363
C28	C	1.277941	0.500008	0.320637
N29	N	1.342127	-0.318828	-0.181058
N30	N	1.842127	0.181172	0.318942
C31	C	1.342145	-0.569834	-0.181072
C32	C	1.842145	-0.069834	0.318928
C33	C	1.342131	-0.430157	-0.181068
C34	C	1.842131	0.069843	0.318932
C35	C	1.549584	0.000001	-0.173325
C36	C	2.049584	0.500001	0.326675
C37	C	1.675605	0.000008	-0.176666
C38	C	2.175605	0.500008	0.323334
C39	C	1.348620	-0.000007	0.048485
C40	C	1.848620	0.499993	0.548485
C41	C	1.345284	-0.000005	0.187919
C42	C	1.845284	0.499995	0.687919
N43	N	1.342164	0.318828	-0.181073
N44	N	1.842164	0.818828	0.318927
C45	C	1.335662	0.000010	-0.410625
C46	C	1.835662	0.500010	0.089375
C47	C	1.338999	0.000016	-0.550059
C48	C	1.838999	0.500016	-0.050059
C49	C	1.446992	-0.000006	0.267687
C50	C	1.946992	0.499994	0.767687
C51	C	1.443850	0.000009	0.398699
C52	C	1.943850	0.500009	0.898699
C53	C	1.237283	0.000020	0.370162
C54	C	1.737283	0.500020	0.870162
C55	C	1.240426	0.000014	0.239153
C56	C	1.740426	0.500014	0.739153
C57	C	1.563644	0.071712	0.594875
C58	C	2.063644	0.571712	1.094875
C59	C	1.665358	0.071690	0.674648
C60	C	2.165358	0.571690	1.174648
C61	C	1.757559	-0.000026	0.644735
C62	C	2.257559	0.499974	1.144735
C63	C	1.748051	-0.071751	0.535051
C64	C	2.248051	0.428249	1.035051
C65	C	1.646335	-0.071741	0.455284
C66	C	2.146335	0.428259	0.955284
C67	C	1.554138	0.000004	0.485196
C68	C	2.054138	0.500004	0.985196
C69	C	1.120640	-0.071699	0.042976
C70	C	1.620640	0.428301	0.542976
C71	C	1.018923	-0.071697	-0.036793
C72	C	1.518923	0.428303	0.463207
C73	C	0.926712	0.000012	-0.006884
C74	C	1.426712	0.500012	0.493116
C75	C	0.936208	0.071718	0.102803
C76	C	1.436208	0.571718	0.602803
C77	C	1.037925	0.071716	0.182572
C78	C	1.537925	0.571716	0.682572
C79	C	1.130137	0.000010	0.152654
C80	C	1.630137	0.500010	0.652654
H81	H	1.532374	-0.000019	0.225978
H82	H	2.032374	0.499981	0.725978
N83	N	1.124196	0.000023	0.425434
N84	N	1.624196	0.500023	0.925434
H85	H	1.079585	-0.075839	0.396402
H86	H	1.579585	0.424161	0.896402
H87	H	1.079684	0.075935	0.396377
H88	H	1.579684	0.575935	0.896377
N89	N	1.675615	0.149038	0.792950
N90	N	2.175615	0.649038	1.292950
H91	H	1.601774	0.194487	0.799793
H92	H	2.101774	0.694487	1.299793
H93	H	1.739637	0.210258	0.789251
H94	H	2.239637	0.710258	1.289251
H95	H	0.843883	-0.000009	-0.071835
H96	H	1.343883	0.499991	0.428165
N97	N	1.464195	0.149068	0.627133
N98	N	1.964195	0.649068	1.127133
H99	H	1.443767	0.210382	0.557312
H100	H	1.943767	0.710382	1.057312
H101	H	1.485724	0.194409	0.708751
H102	H	1.985724	0.694409	1.208751
H103	H	1.045658	0.130122	0.271876
H104	H	1.545658	0.630122	0.771876
H105	H	0.861113	0.130084	0.127173
H106	H	1.361113	0.630084	0.627173
H107	H	1.011192	-0.130100	-0.126098
H108	H	1.511192	0.369900	0.373902
H109	H	1.823130	-0.130158	0.510714
H110	H	2.323130	0.369842	1.010714
N111	N	1.636066	-0.149093	0.336992
N112	N	2.136066	0.350907	0.836992
H113	H	1.709908	-0.194537	0.330147
H114	H	2.209908	0.305463	0.830147
H115	H	1.619285	-0.094100	0.261015
H116	H	2.119285	0.405900	0.761015
N117	N	1.220106	-0.149034	0.010711
N118	N	1.720106	0.350966	0.510711
H119	H	1.198651	-0.194467	-0.070873
H120	H	1.698651	0.305533	0.429127
H121	H	1.240505	-0.210268	0.080610
H122	H	1.740505	0.289732	0.580610
H123	H	1.840377	-0.000042	0.709696
H124	H	2.340377	0.499958	1.209696
