data_functionalizedCrystal
_audit_creation_method	'MofGen! by Chris Wilmer'
_symmetry_space_group_name_H-M	'P1'
_symmetry_Int_Tables_number	1
_symmetry_cell_setting	triclinic
loop_
_symmetry_equiv_pos_as_xyz
  x,y,z
_cell_length_a	10.654554
_cell_length_b	13.262508
_cell_length_c	9.730223
_cell_angle_alpha	105.916979
_cell_angle_beta	89.999646
_cell_angle_gamma	84.460141
loop_
_atom_site_label
_atom_site_type_symbol
_atom_site_fract_x
_atom_site_fract_y
_atom_site_fract_z
O1	O	1.667065	0.147442	-0.059176
O2	O	1.301514	0.161483	-0.053929
O3	O	1.493486	0.001739	-0.113636
O4	O	1.475094	0.307185	0.000531
O5	O	1.493484	0.001743	0.114945
O6	O	1.301512	0.161487	0.174652
O7	O	1.667063	0.147446	0.169405
Zn8	Zn	1.484287	0.154467	0.208321
Zn9	Zn	1.484290	0.154462	-0.092845
O10	O	1.475091	0.307189	0.229112
C11	C	1.254721	0.160453	0.059976
C12	C	1.115294	0.157365	0.058821
C13	C	1.492454	-0.037370	-0.013967
C14	C	1.489367	-0.153909	-0.057535
C15	C	0.904312	0.248522	0.092890
C16	C	1.035318	0.251424	0.093974
C17	C	1.064257	0.060399	0.022567
C18	C	0.933253	0.057498	0.021473
C19	C	0.887605	0.358810	0.134122
C20	C	1.018612	0.361711	0.135207
C21	C	1.480655	-0.482417	0.318070
C22	C	1.483545	-0.372922	0.359005
C23	C	1.485001	-0.318163	0.254874
C24	C	1.483566	-0.372910	0.109800
C25	C	1.480665	-0.482415	0.068860
C26	C	1.485012	-0.318161	0.005664
C27	C	1.483576	-0.372908	-0.139410
C28	C	1.480677	-0.482402	-0.180342
C29	C	1.479221	-0.537161	-0.076211
C30	C	1.487912	-0.208657	0.046604
C31	C	1.487923	-0.208655	-0.202606
C32	C	1.485032	-0.318150	-0.243542
C33	C	1.713856	0.148476	0.055497
C34	C	1.853283	0.151563	0.056643
C35	C	1.476123	0.346298	0.129440
C36	C	1.479210	0.462837	0.172999
N37	N	1.484294	0.154470	0.413858
N38	N	1.484293	0.154450	-0.298386
C39	C	1.569321	0.083760	0.459355
C40	C	1.569318	0.083747	0.603233
C41	C	1.399257	0.225164	0.656109
C42	C	1.399255	0.225171	0.512231
C43	C	1.667508	0.002117	0.428830
C44	C	1.667505	0.002104	0.572708
H45	H	0.891712	-0.021455	-0.008060
H46	H	1.483862	-0.362740	-0.361663
O47	O	1.489497	-0.149611	-0.314937
H48	H	1.491769	-0.064274	-0.262099
H49	H	1.129384	-0.016185	-0.006069
O50	O	0.831995	0.413928	0.028079
H51	H	0.908667	0.443194	-0.022995
O52	O	1.788119	0.035957	0.382345
H53	H	1.852067	0.053890	0.474056
O54	O	0.826886	0.402952	0.281339
H55	H	0.900638	0.428706	0.360272
H56	H	1.479497	-0.526973	-0.298471
O57	O	1.065591	0.408239	0.021877
H58	H	1.020966	0.490154	0.040274
H59	H	1.489069	-0.164091	0.164725
H60	H	1.047748	0.404829	0.246995
O61	O	1.488137	-0.200066	0.299014
H62	H	1.488905	-0.171198	0.417385
O63	O	1.485116	-0.313884	0.515468
H64	H	1.399073	-0.326180	0.570629
O65	O	1.479105	-0.541475	0.430374
H66	H	1.476861	-0.626814	0.377530
O67	O	1.476104	-0.655264	-0.120372
H68	H	1.389842	-0.675411	-0.074124
O69	O	1.307543	0.301430	0.463150
H70	H	1.248422	0.350596	0.555731
H71	H	1.330020	0.282726	0.736218
H72	H	1.637388	-0.074135	0.588828
O73	O	1.639647	-0.104738	0.337138
H74	H	1.625995	-0.157056	0.406353
H75	H	1.763923	0.020089	0.618482
