data_functionalizedCrystal
_audit_creation_method	'MofGen! by Chris Wilmer'
_symmetry_space_group_name_H-M	'P1'
_symmetry_Int_Tables_number	1
_symmetry_cell_setting	triclinic
loop_
_symmetry_equiv_pos_as_xyz
  x,y,z
_cell_length_a	18.050591
_cell_length_b	18.050588
_cell_length_c	18.050582
_cell_angle_alpha	89.978848
_cell_angle_beta	89.979078
_cell_angle_gamma	90.025567
loop_
_atom_site_label
_atom_site_type_symbol
_atom_site_fract_x
_atom_site_fract_y
_atom_site_fract_z
Zn1	Zn	1.135286	-0.295786	-0.420039
Zn2	Zn	1.385286	-0.045786	-0.170039
Zn3	Zn	1.635286	0.204214	0.079961
Zn4	Zn	1.885286	0.454214	0.329961
Zn5	Zn	1.135193	-0.419969	-0.295852
Zn6	Zn	1.385193	-0.169969	-0.045852
Zn7	Zn	1.635193	0.080031	0.204148
Zn8	Zn	1.885193	0.330031	0.454148
Zn9	Zn	1.011105	-0.295789	-0.295850
Zn10	Zn	1.261105	-0.045789	-0.045850
Zn11	Zn	1.511105	0.204211	0.204150
Zn12	Zn	1.761105	0.454211	0.454150
Zn13	Zn	1.011050	-0.419930	-0.419987
Zn14	Zn	1.261050	-0.169930	-0.169987
Zn15	Zn	1.511050	0.080070	0.080013
Zn16	Zn	1.761050	0.330070	0.330013
O17	O	1.073158	-0.357868	-0.357932
O18	O	1.323158	-0.107868	-0.107932
O19	O	1.573158	0.142132	0.142068
O20	O	1.823158	0.392132	0.392068
O21	O	1.239198	-0.312274	-0.403587
O22	O	1.489198	-0.062274	-0.153587
O23	O	1.739198	0.187726	0.096413
O24	O	1.989198	0.437726	0.346413
O25	O	1.118717	-0.403514	-0.191927
O26	O	1.368717	-0.153514	0.058073
O27	O	1.618717	0.096486	0.308073
O28	O	1.868717	0.346486	0.558073
O29	O	1.027639	-0.191864	-0.312344
O30	O	1.277639	0.058136	-0.062344
O31	O	1.527639	0.308136	0.187656
O32	O	1.777639	0.558136	0.437656
O33	O	1.239130	-0.403511	-0.312348
O34	O	1.489130	-0.153511	-0.062348
O35	O	1.739130	0.096489	0.187652
O36	O	1.989130	0.346489	0.437652
O37	O	1.118874	-0.191862	-0.403586
O38	O	1.368874	0.058138	-0.153586
O39	O	1.618874	0.308138	0.096414
O40	O	1.868874	0.558138	0.346414
O41	O	1.027550	-0.312279	-0.191925
O42	O	1.277550	-0.062279	0.058075
O43	O	1.527550	0.187721	0.308075
O44	O	1.777550	0.437721	0.558075
O45	O	0.907173	-0.312241	-0.312295
O46	O	1.157173	-0.062241	-0.062295
O47	O	1.407173	0.187759	0.187705
O48	O	1.657173	0.437759	0.437705
O49	O	1.027546	-0.403444	-0.523919
O50	O	1.277546	-0.153444	-0.273919
O51	O	1.527546	0.096556	-0.023919
O52	O	1.777546	0.346556	0.226081
O53	O	0.907133	-0.403447	-0.403498
O54	O	1.157133	-0.153447	-0.153498
O55	O	1.407133	0.096553	0.096502
O56	O	1.657133	0.346553	0.346502
O57	O	1.118821	-0.312236	-0.523957
O58	O	1.368821	-0.062236	-0.273957
O59	O	1.618821	0.187764	-0.023957
O60	O	1.868821	0.437764	0.226043
O61	O	1.118664	-0.523888	-0.312298
O62	O	1.368664	-0.273888	-0.062298
O63	O	1.618664	-0.023888	0.187702
O64	O	1.868664	0.226112	0.437702
O65	O	1.027456	-0.523860	-0.403500
O66	O	1.277456	-0.273860	-0.153500
O67	O	1.527456	-0.023860	0.096500
O68	O	1.777456	0.226140	0.346500
C69	C	0.880206	-0.357841	-0.357891
C70	C	1.130206	-0.107841	-0.107891
C71	C	1.380206	0.142159	0.142109
C72	C	1.630206	0.392159	0.392109
C73	C	0.797661	-0.357847	-0.357891
C74	C	1.047661	-0.107847	-0.107891
C75	C	1.297661	0.142153	0.142109
C76	C	1.547661	0.392153	0.392109
C77	C	1.073064	-0.550821	-0.357910
C78	C	1.323064	-0.300821	-0.107910
C79	C	1.573064	-0.050821	0.142090
C80	C	1.823064	0.199179	0.392090
C81	C	1.073092	-0.633366	-0.357925
C82	C	1.323092	-0.383366	-0.107925
C83	C	1.573092	-0.133366	0.142075
C84	C	1.823092	0.116634	0.392075
C85	C	1.023571	-0.882203	-0.407521
C86	C	1.273571	-0.632203	-0.157521
C87	C	1.523571	-0.382203	0.092479
C88	C	1.773571	-0.132203	0.342479
C89	C	1.091288	-0.832739	-0.425752
C90	C	1.341288	-0.582739	-0.175752
C91	C	1.591288	-0.332739	0.074248
C92	C	1.841288	-0.082739	0.324248
C93	C	1.073246	-0.930487	-0.357966
C94	C	1.323246	-0.680487	-0.107966
C95	C	1.573246	-0.430487	0.142034
C96	C	1.823246	-0.180487	0.392034
C97	C	1.005457	-0.832869	-0.339750
C98	C	1.255457	-0.582869	-0.089750
C99	C	1.505457	-0.332869	0.160250
C100	C	1.755457	-0.082869	0.410250
C101	C	1.073167	-0.784502	-0.357948
C102	C	1.323167	-0.534502	-0.107948
C103	C	1.573167	-0.284502	0.142052
C104	C	1.823167	-0.034502	0.392052
C105	C	1.140999	-0.882110	-0.376233
C106	C	1.390999	-0.632110	-0.126233
C107	C	1.640999	-0.382110	0.123767
C108	C	1.890999	-0.132110	0.373767
C109	C	1.055123	-0.882244	-0.290199
C110	C	1.305123	-0.632244	-0.040199
C111	C	1.555123	-0.382244	0.209801
C112	C	1.805123	-0.132244	0.459801
C113	C	1.122886	-0.832802	-0.308404
C114	C	1.372886	-0.582802	-0.058404
C115	C	1.622886	-0.332802	0.191596
C116	C	1.872886	-0.082802	0.441596
C117	C	1.073291	-1.014585	-0.357979
C118	C	1.323291	-0.764585	-0.107979
C119	C	1.573291	-0.514585	0.142021
C120	C	1.823291	-0.264585	0.392021
C121	C	1.073130	-0.700405	-0.357935
C122	C	1.323130	-0.450405	-0.107935
C123	C	1.573130	-0.200405	0.142065
C124	C	1.823130	0.049595	0.392065
C125	C	0.598210	-0.308191	-0.308409
C126	C	0.848210	-0.058191	-0.058409
C127	C	1.098210	0.191809	0.191591
C128	C	1.348210	0.441809	0.441591
C129	C	0.548789	-0.375927	-0.290134
C130	C	0.798789	-0.125927	-0.040134
C131	C	1.048789	0.124073	0.209866
C132	C	1.298789	0.374073	0.459866
C133	C	0.646530	-0.357869	-0.357924
C134	C	0.896530	-0.107869	-0.107924
C135	C	1.146530	0.142131	0.142076
C136	C	1.396530	0.392131	0.392076
C137	C	0.548870	-0.290157	-0.376197
C138	C	0.798870	-0.040157	-0.126197
C139	C	1.048870	0.209843	0.123803
C140	C	1.298870	0.459843	0.373803
C141	C	0.500545	-0.357885	-0.357955
C142	C	0.750545	-0.107885	-0.107955
C143	C	1.000545	0.142115	0.142045
C144	C	1.250545	0.392115	0.392045
C145	C	0.598196	-0.425641	-0.339615
C146	C	0.848196	-0.175641	-0.089615
C147	C	1.098196	0.074359	0.160385
C148	C	1.348196	0.324359	0.410385
C149	C	0.598281	-0.339825	-0.425709
C150	C	0.848281	-0.089825	-0.175709
C151	C	1.098281	0.160175	0.074291
C152	C	1.348281	0.410175	0.324291
C153	C	0.548882	-0.407607	-0.407460
C154	C	0.798882	-0.157607	-0.157460
C155	C	1.048882	0.092393	0.092540
C156	C	1.298882	0.342393	0.342540
C157	C	0.730628	-0.357859	-0.357905
C158	C	0.980628	-0.107859	-0.107905
C159	C	1.230628	0.142141	0.142095
C160	C	1.480628	0.392141	0.392095
C161	C	0.416449	-0.357903	-0.357975
C162	C	0.666449	-0.107903	-0.107975
C163	C	0.916449	0.142097	0.142025
C164	C	1.166449	0.392097	0.392025
C165	C	1.266864	-0.357897	-0.357974
C166	C	1.516864	-0.107897	-0.107974
C167	C	1.766864	0.142103	0.142026
C168	C	2.016864	0.392103	0.392026
C169	C	1.349410	-0.357909	-0.357991
C170	C	1.599410	-0.107909	-0.107991
C171	C	1.849410	0.142091	0.142009
C172	C	2.099410	0.392091	0.392009
C173	C	1.073188	-0.357835	-0.551638
C174	C	1.323188	-0.107835	-0.301638
C175	C	1.573188	0.142165	-0.051638
C176	C	1.823188	0.392165	0.198362
C177	C	1.073200	-0.357821	-0.634183
C178	C	1.323200	-0.107821	-0.384183
C179	C	1.573200	0.142179	-0.134183
C180	C	1.823200	0.392179	0.115817
C181	C	1.073273	-0.164163	-0.357971
C182	C	1.323273	0.085837	-0.107971
C183	C	1.573273	0.335837	0.142029
C184	C	1.823273	0.585837	0.392029
C185	C	1.073322	-0.081617	-0.357987
C186	C	1.323322	0.168383	-0.107987
C187	C	1.573322	0.418383	0.142013
C188	C	1.823322	0.668383	0.392013
C189	C	1.023602	-0.407353	-0.833614
C190	C	1.273602	-0.157353	-0.583614
C191	C	1.523602	0.092647	-0.333614
C192	C	1.773602	0.342647	-0.083614
C193	C	1.091357	-0.425511	-0.883013
C194	C	1.341357	-0.175511	-0.633013
C195	C	1.591357	0.074489	-0.383013
C196	C	1.841357	0.324489	-0.133013
C197	C	1.073237	-0.357765	-0.785314
C198	C	1.323237	-0.107765	-0.535314
C199	C	1.573237	0.142235	-0.285314
C200	C	1.823237	0.392235	-0.035314
C201	C	1.005519	-0.339586	-0.882997
C202	C	1.255519	-0.089586	-0.632997
C203	C	1.505519	0.160414	-0.382997
C204	C	1.755519	0.410414	-0.132997
C205	C	1.073266	-0.357711	-0.931299
C206	C	1.323266	-0.107711	-0.681299
C207	C	1.573266	0.142289	-0.431299
C208	C	1.823266	0.392289	-0.181299
C209	C	1.141027	-0.375958	-0.833626
C210	C	1.391027	-0.125958	-0.583626
C211	C	1.641027	0.124042	-0.333626
C212	C	1.891027	0.374042	-0.083626
C213	C	1.055143	-0.290002	-0.833605
C214	C	1.305143	-0.040002	-0.583605
C215	C	1.555143	0.209998	-0.333605
C216	C	1.805143	0.459998	-0.083605
C217	C	1.122945	-0.308134	-0.882982
C218	C	1.372945	-0.058134	-0.632982
C219	C	1.622945	0.191866	-0.382982
C220	C	1.872945	0.441866	-0.132982
C221	C	1.073219	-0.357797	-0.701216
C222	C	1.323219	-0.107797	-0.451216
C223	C	1.573219	0.142203	-0.201216
C224	C	1.823219	0.392203	0.048784
C225	C	1.073292	-0.357679	-1.015396
C226	C	1.323292	-0.107679	-0.765396
C227	C	1.573292	0.142321	-0.515396
C228	C	1.823292	0.392321	-0.265396
C229	C	1.073172	-0.357848	-0.164980
C230	C	1.323172	-0.107848	0.085020
C231	C	1.573172	0.142152	0.335020
C232	C	1.823172	0.392152	0.585020
C233	C	1.073304	-0.357652	-0.082434
C234	C	1.323304	-0.107652	0.167566
C235	C	1.573304	0.142348	0.417566
C236	C	1.823304	0.392348	0.667566
H237	H	0.981648	-0.903892	-0.449467
H238	H	1.231648	-0.653892	-0.199467
H239	H	1.481648	-0.403892	0.050533
H240	H	1.731648	-0.153892	0.300533
Cl241	Cl	0.958859	-0.472178	-0.800143
Cl242	Cl	1.208859	-0.222178	-0.550143
Cl243	Cl	1.458859	0.027822	-0.300143
Cl244	Cl	1.708859	0.277822	-0.050143
Cl245	Cl	1.115013	-0.513949	-0.916521
Cl246	Cl	1.365013	-0.263949	-0.666521
Cl247	Cl	1.615013	-0.013949	-0.416521
Cl248	Cl	1.865013	0.236051	-0.166521
H249	H	1.198324	-0.391377	-0.812029
H250	H	1.448324	-0.141377	-0.562029
H251	H	1.698324	0.108623	-0.312029
H252	H	1.948324	0.358623	-0.062029
H253	H	0.620037	-0.324530	-0.483002
H254	H	0.870037	-0.074530	-0.233002
H255	H	1.120037	0.175470	0.016998
H256	H	1.370037	0.425470	0.266998
Cl257	Cl	1.187841	-0.243356	-0.916244
Cl258	Cl	1.437841	0.006644	-0.666244
Cl259	Cl	1.687841	0.256644	-0.416244
Cl260	Cl	1.937841	0.506644	-0.166244
H261	H	1.039803	-0.904004	-0.232914
H262	H	1.289803	-0.654004	0.017086
H263	H	1.539803	-0.404004	0.267086
H264	H	1.789803	-0.154004	0.517086
Cl265	Cl	0.917000	-0.799469	-0.315972
Cl266	Cl	1.167000	-0.549469	-0.065972
Cl267	Cl	1.417000	-0.299469	0.184028
Cl268	Cl	1.667000	-0.049469	0.434028
Cl269	Cl	0.515411	-0.201738	-0.400037
Cl270	Cl	0.765411	0.048262	-0.150037
Cl271	Cl	1.015411	0.298262	0.099963
Cl272	Cl	1.265411	0.548262	0.349963
Cl273	Cl	0.917084	-0.315880	-0.916481
Cl274	Cl	1.167084	-0.065880	-0.666481
Cl275	Cl	1.417084	0.184120	-0.416481
Cl276	Cl	1.667084	0.434120	-0.166481
Cl277	Cl	1.114911	-0.799168	-0.514220
Cl278	Cl	1.364911	-0.549168	-0.264220
Cl279	Cl	1.614911	-0.299168	-0.014220
Cl280	Cl	1.864911	-0.049168	0.235780
Cl281	Cl	1.229484	-0.915363	-0.400112
Cl282	Cl	1.479484	-0.665363	-0.150112
Cl283	Cl	1.729484	-0.415363	0.099888
Cl284	Cl	1.979484	-0.165363	0.349888
Cl285	Cl	1.187763	-0.799520	-0.243692
Cl286	Cl	1.437763	-0.549520	0.006308
Cl287	Cl	1.687763	-0.299520	0.256308
Cl288	Cl	1.937763	-0.049520	0.506308
H289	H	1.039802	-0.232736	-0.811887
H290	H	1.289802	0.017264	-0.561887
H291	H	1.539802	0.267264	-0.311887
H292	H	1.789802	0.517264	-0.061887
Cl293	Cl	0.631654	-0.243399	-0.243693
Cl294	Cl	0.881654	0.006601	0.006307
Cl295	Cl	1.131654	0.256601	0.256307
Cl296	Cl	1.381654	0.506601	0.506307
H297	H	0.527051	-0.391202	-0.232824
H298	H	0.777051	-0.141202	0.017176
H299	H	1.027051	0.108798	0.267176
H300	H	1.277051	0.358798	0.517176
Cl301	Cl	0.631505	-0.514087	-0.315670
Cl302	Cl	0.881505	-0.264087	-0.065670
Cl303	Cl	1.131505	-0.014087	0.184330
Cl304	Cl	1.381505	0.235913	0.434330
H305	H	0.527360	-0.449673	-0.449347
H306	H	0.777360	-0.199673	-0.199347
H307	H	1.027360	0.050327	0.050653
H308	H	1.277360	0.300327	0.300653
