data_functionalizedCrystal
_audit_creation_method	'MofGen! by Chris Wilmer'
_symmetry_space_group_name_H-M	'P1'
_symmetry_Int_Tables_number	1
_symmetry_cell_setting	triclinic
loop_
_symmetry_equiv_pos_as_xyz
  x,y,z
_cell_length_a	12.594516
_cell_length_b	12.594517
_cell_length_c	16.625539
_cell_angle_alpha	89.982613
_cell_angle_beta	89.978538
_cell_angle_gamma	90.015853
loop_
_atom_site_label
_atom_site_type_symbol
_atom_site_fract_x
_atom_site_fract_y
_atom_site_fract_z
Zn1	Zn	-0.423765	1.627226	-0.455944
Zn2	Zn	-0.601761	1.627129	-0.321123
Zn3	Zn	-0.423796	1.449242	-0.321124
Zn4	Zn	-0.601702	1.449212	-0.455912
O5	O	-0.512756	1.538202	-0.388526
O6	O	-0.447389	1.776158	-0.438073
O7	O	-0.578191	1.603504	-0.208291
O8	O	-0.274846	1.472905	-0.339022
O9	O	-0.578161	1.776087	-0.339021
O10	O	-0.274824	1.603669	-0.438074
O11	O	-0.447441	1.472811	-0.208292
O12	O	-0.447384	1.300292	-0.338991
O13	O	-0.578060	1.472854	-0.568749
O14	O	-0.578090	1.300270	-0.438019
O15	O	-0.447331	1.603640	-0.568773
O16	O	-0.750699	1.603474	-0.338990
O17	O	-0.750655	1.472760	-0.438019
C18	C	-0.512735	1.261661	-0.388502
C19	C	-0.512751	1.143355	-0.388511
C20	C	-0.441563	1.074083	-0.334752
C21	C	-0.538650	1.003274	-0.314923
C22	C	-0.415712	1.003366	-0.408355
C23	C	-0.609889	1.074104	-0.368643
C24	C	-0.486886	1.074202	-0.462109
C25	C	-0.584040	1.003425	-0.442308
C26	C	-0.789297	1.538132	-0.388518
C27	C	-0.907603	1.538200	-0.388542
C28	C	-0.976871	1.467097	-0.442366
C29	C	-1.047728	1.441170	-0.368791
C30	C	-1.047544	1.564223	-0.462129
C31	C	-0.976902	1.512222	-0.314928
C32	C	-0.976712	1.635320	-0.408316
C33	C	-1.047537	1.609430	-0.334690
C34	C	-0.235135	1.538301	-0.388552
C35	C	-0.116830	1.538343	-0.388563
C36	C	-0.512686	1.538254	-0.598835
C37	C	-0.512656	1.538276	-0.688456
C38	C	-0.512778	1.815823	-0.388550
C39	C	-0.512788	1.934128	-0.388561
C40	C	-0.512632	1.538294	-0.761239
C41	C	-0.512593	1.538318	-0.852547
C42	C	-0.512555	1.538344	-0.925324
C43	C	-0.512517	1.538370	-1.016638
C44	C	-0.512749	1.538211	-0.179035
C45	C	-0.512479	1.538395	-0.089415
H46	H	-0.560550	0.972121	-0.252703
H47	H	-0.464956	1.105381	-0.524310
Cl48	Cl	-0.929198	1.478183	-0.218832
H49	H	-0.644326	0.972595	-0.487791
Cl50	Cl	-0.348707	1.121989	-0.264480
Cl51	Cl	-1.095458	1.598117	-0.558195
H52	H	-0.691993	1.105048	-0.351811
Cl53	Cl	-0.288990	0.955383	-0.434235
Cl54	Cl	-0.928958	1.374102	-0.512539
Cl55	Cl	-1.095886	1.314461	-0.342973
H56	H	-1.078370	1.669621	-0.289129
Cl57	Cl	-0.928514	1.761996	-0.434166
