data_functionalizedCrystal
_audit_creation_method	'MofGen! by Chris Wilmer'
_symmetry_space_group_name_H-M	'P1'
_symmetry_Int_Tables_number	1
_symmetry_cell_setting	triclinic
loop_
_symmetry_equiv_pos_as_xyz
  x,y,z
_cell_length_a	9.065218
_cell_length_b	8.140239
_cell_length_c	9.065218
_cell_angle_alpha	90.003526
_cell_angle_beta	94.984115
_cell_angle_gamma	89.999539
loop_
_atom_site_label
_atom_site_type_symbol
_atom_site_fract_x
_atom_site_fract_y
_atom_site_fract_z
O1	O	-1.960393	0.136610	0.216359
O2	O	-1.460393	0.636610	0.716359
O3	O	-1.531108	0.136612	0.234105
O4	O	-1.031108	0.636612	0.734105
O5	O	-1.754623	0.136608	0.010590
O6	O	-1.254623	0.636608	0.510590
O7	O	-1.736877	0.136615	0.439875
O8	O	-1.236877	0.636615	0.939875
O9	O	-1.754622	-0.136619	0.010578
O10	O	-1.254622	0.363381	0.510578
O11	O	-1.531106	-0.136615	0.234094
O12	O	-1.031106	0.363385	0.734094
O13	O	-1.960391	-0.136617	0.216347
O14	O	-1.460391	0.363383	0.716347
Zn15	Zn	-1.745748	-0.179997	0.225219
Zn16	Zn	-1.245748	0.320003	0.725219
Zn17	Zn	-1.745750	0.179992	0.225234
Zn18	Zn	-1.245750	0.679992	0.725234
O19	O	-1.736875	-0.136613	0.439863
O20	O	-1.236875	0.363387	0.939863
C21	C	-1.476120	-0.000001	0.232394
C22	C	-0.976120	0.499999	0.732394
C23	C	-1.312277	-0.000000	0.227294
C24	C	-0.812277	0.500000	0.727294
N25	N	-1.745757	-0.425679	0.225208
N26	N	-1.245757	0.074321	0.725208
C27	C	-1.752917	-0.000003	-0.044403
C28	C	-1.252917	0.499997	0.455597
C29	C	-1.747817	0.000005	-0.208245
C30	C	-1.247817	0.500005	0.291755
C31	C	-2.015378	0.000000	0.218059
C32	C	-1.515378	0.500000	0.718059
C33	C	-2.179221	0.000010	0.223158
C34	C	-1.679221	0.500010	0.723158
N35	N	-1.745753	0.425674	0.225234
N36	N	-1.245753	0.925674	0.725234
C37	C	-1.738582	0.000002	0.494855
C38	C	-1.238582	0.500002	0.994855
C39	C	-1.743681	0.000005	0.658698
C40	C	-1.243681	0.500005	1.158698
