data_functionalizedCrystal
_audit_creation_method	'MofGen! by Chris Wilmer'
_symmetry_space_group_name_H-M	'P1'
_symmetry_Int_Tables_number	1
_symmetry_cell_setting	triclinic
loop_
_symmetry_equiv_pos_as_xyz
  x,y,z
_cell_length_a	18.215407
_cell_length_b	29.839131
_cell_length_c	18.215399
_cell_angle_alpha	90.038527
_cell_angle_beta	90.019833
_cell_angle_gamma	90.035676
loop_
_atom_site_label
_atom_site_type_symbol
_atom_site_fract_x
_atom_site_fract_y
_atom_site_fract_z
Zn1	Zn	1.125019	-0.178853	0.416062
Zn2	Zn	1.124905	-0.253982	0.292973
Zn3	Zn	1.001952	-0.178867	0.293009
Zn4	Zn	1.001895	-0.253957	0.415998
O5	O	1.063443	-0.216415	0.354510
O6	O	1.227988	-0.188823	0.399745
O7	O	1.108571	-0.244034	0.189993
O8	O	1.018348	-0.115998	0.309374
O9	O	1.227905	-0.244020	0.309312
O10	O	1.108765	-0.115987	0.399781
O11	O	1.018238	-0.188848	0.190020
O12	O	0.898960	-0.188824	0.309312
O13	O	1.018252	-0.243978	0.518990
O14	O	0.898918	-0.243992	0.399671
O15	O	1.108710	-0.188799	0.519038
O16	O	1.108516	-0.316846	0.309250
O17	O	1.018142	-0.316827	0.399636
C18	C	0.872237	-0.216407	0.354489
C19	C	0.790438	-0.216414	0.354498
C20	C	0.602241	-0.245186	0.401489
C21	C	0.525383	-0.245187	0.401498
C22	C	0.525396	-0.187652	0.307548
C23	C	0.602254	-0.187648	0.307543
C24	C	0.640674	-0.216418	0.354512
C25	C	0.486958	-0.216423	0.354526
C26	C	0.403624	-0.216424	0.354536
C27	C	0.724013	-0.216416	0.354504
C28	C	1.063331	-0.333137	0.354448
C29	C	1.063350	-0.383072	0.354446
C30	C	1.110513	-0.692675	0.401652
C31	C	1.110593	-0.880348	0.401696
O32	O	1.150582	-0.904578	0.441786
N33	N	1.063568	-0.903857	0.354592
C34	C	1.016516	-0.880445	0.307477
O35	O	0.976515	-0.904747	0.267418
C36	C	1.016433	-0.692773	0.307437
C37	C	1.063466	-0.669266	0.354539
C38	C	1.157541	-0.669168	0.448751
C39	C	1.157524	-0.622252	0.448736
C40	C	1.110477	-0.598844	0.401623
C41	C	1.063449	-0.622350	0.354524
C42	C	0.969378	-0.669361	0.260326
C43	C	0.969361	-0.622440	0.260321
C44	C	1.016394	-0.598934	0.307423
C45	C	1.016385	-0.552026	0.307397
N46	N	1.063410	-0.528517	0.354501
C47	C	1.110456	-0.551926	0.401614
C48	C	1.016564	-0.978975	0.307500
C49	C	1.016586	-1.025893	0.307509
C50	C	1.110661	-1.025793	0.401730
C51	C	1.110643	-0.978874	0.401716
C52	C	1.063589	-0.955466	0.354604
C53	C	1.110416	-0.453400	0.401580
C54	C	1.110396	-0.406480	0.401559
C55	C	1.016318	-0.406585	0.307342
C56	C	1.016340	-0.453500	0.307360
C57	C	1.063392	-0.476907	0.354485
O58	O	0.976410	-0.527767	0.267334
O59	O	1.150439	-0.527615	0.441678
C60	C	1.110530	-0.739590	0.401666
C61	C	1.063502	-0.763097	0.354568
C62	C	1.016455	-0.739688	0.307454
C63	C	1.063523	-0.810015	0.354576
C64	C	1.110569	-0.833423	0.401690
C65	C	1.157594	-0.809914	0.448794
C66	C	1.157577	-0.762999	0.448779
C67	C	0.969430	-0.763197	0.260350
C68	C	0.969452	-0.810113	0.260368
C69	C	1.016499	-0.833521	0.307481
C70	C	1.255396	-0.216423	0.354532
C71	C	1.337195	-0.216426	0.354541
C72	C	1.063488	-0.216384	0.546463
C73	C	1.063507	-0.216370	0.628262
C74	C	1.063576	-0.099236	0.354589
C75	C	1.063632	-0.049302	0.354622
C76	C	1.063440	-0.216413	0.163304
C77	C	1.063564	-0.216300	0.081506
C78	C	1.110625	-0.187612	0.816482
C79	C	1.110634	-0.187599	0.893341
C80	C	1.016440	-0.245059	0.893281
C81	C	1.016428	-0.245070	0.816423
C82	C	1.063525	-0.216347	0.778026
C83	C	1.063546	-0.216323	0.931742
C84	C	1.063555	-0.216309	1.015076
C85	C	1.063515	-0.216360	0.694687
H86	H	0.633521	-0.268610	0.439736
Cl87	Cl	0.910203	-0.593016	0.201091
Cl88	Cl	1.169830	-0.151501	0.768214
Cl89	Cl	1.169855	-0.151477	0.941683
Cl90	Cl	0.477070	-0.281353	0.460558
Cl91	Cl	0.957222	-0.483052	0.248136
H92	H	0.494105	-0.164229	0.269306
H93	H	0.978246	-0.959920	0.269134
H94	H	0.633546	-0.164220	0.269289
Cl95	Cl	0.957207	-0.281194	0.768074
H96	H	0.931079	-0.688493	0.221970
Cl97	Cl	1.169529	-0.376932	0.460777
H98	H	1.148724	-0.472452	0.439959
H99	H	0.978097	-0.268446	0.924553
H100	H	1.195875	-0.743863	0.487134
Cl101	Cl	1.216649	-0.592708	0.507960
H102	H	1.148941	-0.959738	0.440071
Cl103	Cl	1.216692	-0.698587	0.507989
H104	H	1.148969	-1.044860	0.440090
H105	H	0.978016	-0.387518	0.268981
H106	H	0.978294	-1.045028	0.269146
H107	H	1.195904	-0.828982	0.487152
H108	H	0.931153	-0.829248	0.222005
Cl109	Cl	0.910277	-0.733776	0.201119
