data_functionalizedCrystal
_audit_creation_method	'MofGen! by Chris Wilmer'
_symmetry_space_group_name_H-M	'P1'
_symmetry_Int_Tables_number	1
_symmetry_cell_setting	triclinic
loop_
_symmetry_equiv_pos_as_xyz
  x,y,z
_cell_length_a	14.853567
_cell_length_b	12.811415
_cell_length_c	11.295483
_cell_angle_alpha	88.701575
_cell_angle_beta	85.891858
_cell_angle_gamma	83.840356
loop_
_atom_site_label
_atom_site_type_symbol
_atom_site_fract_x
_atom_site_fract_y
_atom_site_fract_z
O1	O	1.203623	0.128989	-0.112869
O2	O	1.703623	0.628989	0.387131
O3	O	0.941315	0.145188	-0.114639
O4	O	1.441315	0.645188	0.385361
O5	O	1.078071	-0.014527	-0.097376
O6	O	1.578071	0.485473	0.402624
O7	O	1.066868	0.288704	-0.130132
O8	O	1.566868	0.788704	0.369868
O9	O	1.066059	-0.000521	0.099161
O10	O	1.566059	0.499479	0.599161
O11	O	0.929304	0.159194	0.081898
O12	O	1.429304	0.659194	0.581898
O13	O	1.191611	0.142996	0.083667
O14	O	1.691611	0.642996	0.583667
Cu15	Cu	1.059361	0.152374	0.100728
Cu16	Cu	1.559361	0.652374	0.600728
Cu17	Cu	1.073566	0.135810	-0.131699
Cu18	Cu	1.573566	0.635810	0.368301
O19	O	1.054856	0.302710	0.066404
O20	O	1.554856	0.802710	0.566404
C21	C	0.901714	0.151457	-0.016294
C22	C	1.401714	0.651457	0.483706
C23	C	0.801611	0.149256	-0.016064
C24	C	1.301611	0.649256	0.483936
C25	C	0.388107	0.045086	-0.004784
C26	C	0.888107	0.545086	0.495216
C27	C	0.368590	0.234831	-0.025283
C28	C	0.868590	0.734831	0.474717
C29	C	0.462643	0.236899	-0.025510
C30	C	0.962643	0.736899	0.474490
C31	C	0.519433	0.143059	-0.015376
C32	C	1.019433	0.643059	0.484624
C33	C	0.482169	0.047151	-0.005014
C34	C	0.982169	0.547151	0.494986
C35	C	0.499914	0.332805	-0.035883
C36	C	0.999914	0.832805	0.464117
C37	C	0.593973	0.334876	-0.036112
C38	C	1.093973	0.834876	0.463888
C39	C	0.650764	0.241036	-0.025969
C40	C	1.150764	0.741036	0.474031
C41	C	0.613495	0.145124	-0.015606
C42	C	1.113495	0.645124	0.484394
C43	C	0.670285	0.051284	-0.005472
C44	C	1.170285	0.551284	0.494528
C45	C	0.633017	-0.044629	0.004900
C46	C	1.133017	0.455371	0.504900
C47	C	0.538960	-0.046690	0.005128
C48	C	1.038960	0.453310	0.505128
C49	C	0.744821	0.243097	-0.026198
C50	C	1.244821	0.743097	0.473802
C51	C	0.764347	0.053348	-0.005702
C52	C	1.264347	0.553348	0.494298
C53	C	1.071069	-0.046330	0.005082
C54	C	1.571069	0.453670	0.505082
C55	C	1.068091	-0.161962	0.017565
C56	C	1.568091	0.338038	0.517565
C57	C	1.075575	-0.394506	-0.173267
C58	C	1.575575	0.105494	0.326733
C59	C	1.072777	-0.503153	-0.161544
C60	C	1.572777	-0.003153	0.338456
C61	C	1.059691	-0.487903	0.052734
C62	C	1.559691	0.012097	0.552734
C63	C	1.062489	-0.379256	0.041011
C64	C	1.562489	0.120744	0.541011
C65	C	1.070432	-0.332562	-0.071993
C66	C	1.570432	0.167438	0.428007
C67	C	1.073237	-0.223915	-0.083716
C68	C	1.573237	0.276085	0.416284
C69	C	1.060144	-0.208666	0.130561
C70	C	1.560144	0.291334	0.630561
C71	C	1.057346	-0.317312	0.142284
C72	C	1.557346	0.182688	0.642284
C73	C	1.231213	0.136727	-0.014680
C74	C	1.731213	0.636727	0.485320
C75	C	1.331317	0.138926	-0.014918
C76	C	1.831317	0.638926	0.485082
N77	N	1.049376	0.164024	0.264205
N78	N	1.549376	0.664024	0.764205
C79	C	1.061858	0.334514	-0.036056
C80	C	1.561858	0.834514	0.463944
C81	C	1.064837	0.450145	-0.048547
C82	C	1.564837	0.950145	0.451453
N83	N	1.083558	0.124152	-0.295176
N84	N	1.583558	0.624152	0.204824
C85	C	1.155432	0.040232	0.526875
C86	C	1.655432	0.540232	1.026875
C87	C	1.147893	0.049043	0.650586
C88	C	1.647893	0.549043	1.150586
C89	C	1.026755	0.190452	0.635342
C90	C	1.526755	0.690452	1.135342
C91	C	1.034294	0.181640	0.511631
C92	C	1.534294	0.681640	1.011631
C93	C	1.098636	0.106529	0.457402
C94	C	1.598636	0.606529	0.957402
C95	C	1.106179	0.097724	0.333688
C96	C	1.606179	0.597724	0.833688
C97	C	0.985037	0.239126	0.318446
C98	C	1.485037	0.739126	0.818446
C99	C	0.977498	0.247938	0.442157
C100	C	1.477498	0.747938	0.942157
H101	H	0.508606	-0.124775	0.013600
H102	H	1.008606	0.375225	0.513600
F103	F	0.924592	0.309693	0.244495
F104	F	1.424592	0.809693	0.744495
F105	F	0.348444	-0.056985	0.006259
F106	F	0.848444	0.443015	0.506259
F107	F	0.909022	0.327870	0.499883
F108	F	1.409022	0.827870	0.999883
F109	F	1.223917	-0.039697	0.469159
F110	F	1.723917	0.460303	0.969159
H111	H	0.810580	-0.023069	0.002555
H112	H	1.310580	0.476931	0.502555
H113	H	0.624307	0.412974	-0.044557
H114	H	1.124307	0.912974	0.455443
F115	F	1.081694	-0.174221	-0.203983
F116	F	1.581694	0.325779	0.296017
H117	H	1.082051	-0.356488	-0.265279
H118	H	1.582051	0.143512	0.234721
F119	F	1.174658	0.017787	0.275975
F120	F	1.674658	0.517787	0.775975
F121	F	1.048885	-0.367018	0.262544
F122	F	1.548885	0.132982	0.762544
F123	F	0.958274	0.270376	0.693071
F124	F	1.458274	0.770376	1.193071
H125	H	1.055960	-0.158219	0.213025
H126	H	1.555960	0.341781	0.713025
H127	H	0.775160	0.321187	-0.034640
H128	H	1.275160	0.821187	0.465360
F129	F	1.208342	-0.021522	0.724522
F130	F	1.708342	0.478478	1.224522
F131	F	0.693468	-0.144497	0.015676
F132	F	1.193468	0.355503	0.515676
H133	H	0.322347	0.311231	-0.033543
H134	H	0.822347	0.811231	0.466457
F135	F	0.439472	0.432667	-0.046684
F136	F	0.939472	0.932667	0.453316
H137	H	1.076962	-0.553584	-0.244011
H138	H	1.576962	-0.053584	0.255989
H139	H	1.053216	-0.525939	0.144736
H140	H	1.553216	-0.025939	0.644736
