data_functionalizedCrystal
_audit_creation_method	'MofGen! by Chris Wilmer'
_symmetry_space_group_name_H-M	'P1'
_symmetry_Int_Tables_number	1
_symmetry_cell_setting	triclinic
loop_
_symmetry_equiv_pos_as_xyz
  x,y,z
_cell_length_a	13.897449
_cell_length_b	16.959454
_cell_length_c	16.959447
_cell_angle_alpha	90.026736
_cell_angle_beta	89.985709
_cell_angle_gamma	89.978645
loop_
_atom_site_label
_atom_site_type_symbol
_atom_site_fract_x
_atom_site_fract_y
_atom_site_fract_z
Zn1	Zn	1.474625	0.314639	-0.446928
Zn2	Zn	1.474531	0.446831	-0.314757
Zn3	Zn	1.313333	0.314674	-0.314765
Zn4	Zn	1.313289	0.446782	-0.446896
O5	O	1.393945	0.380732	-0.380837
O6	O	1.609594	0.332181	-0.429405
O7	O	1.453126	0.429336	-0.204148
O8	O	1.334786	0.204058	-0.332313
O9	O	1.609525	0.429302	-0.332300
O10	O	1.453287	0.204033	-0.429413
O11	O	1.334694	0.332240	-0.204153
O12	O	1.178345	0.332192	-0.332283
O13	O	1.334713	0.429218	-0.557511
O14	O	1.178314	0.429252	-0.429359
O15	O	1.453245	0.332133	-0.557535
O16	O	1.453084	0.557436	-0.332269
O17	O	1.334621	0.557400	-0.429351
C18	C	1.393864	0.586098	-0.380823
C19	C	1.393917	0.673954	-0.380844
C20	C	1.143330	0.380721	-0.380819
C21	C	1.036116	0.380736	-0.380830
C22	C	1.393985	0.380666	-0.587005
C23	C	1.394002	0.380638	-0.674862
C24	C	0.839821	0.380738	-0.380850
C25	C	0.949054	0.380734	-0.380837
C26	C	1.645537	0.380743	-0.380855
C27	C	1.752751	0.380748	-0.380863
C28	C	1.394052	0.174563	-0.380867
C29	C	1.394098	0.086707	-0.380881
C30	C	1.332350	1.045441	-0.431382
C31	C	1.455808	1.045419	-0.330372
C32	C	1.455774	0.962873	-0.330365
C33	C	1.394026	0.921607	-0.380866
C34	C	1.332313	0.962888	-0.431374
C35	C	1.517480	0.921586	-0.279852
C36	C	1.517448	0.839036	-0.279842
C37	C	1.455704	0.797768	-0.330348
C38	C	1.393989	0.839054	-0.380859
C39	C	1.332241	0.797788	-0.431360
C40	C	1.270530	0.839072	-0.481875
C41	C	1.270569	0.921621	-0.481880
C42	C	1.455665	0.715220	-0.330343
C43	C	1.332204	0.715235	-0.431352
C44	C	1.332402	0.431103	-1.046328
C45	C	1.455832	0.330007	-1.046347
C46	C	1.455806	0.330024	-0.963801
C47	C	1.394079	0.380582	-0.922515
C48	C	1.332377	0.431123	-0.963774
C49	C	1.517513	0.279490	-0.922535
C50	C	1.517491	0.279505	-0.839984
C51	C	1.455758	0.330059	-0.798697
C52	C	1.394053	0.380602	-0.839961
C53	C	1.332326	0.431159	-0.798675
C54	C	1.270615	0.481698	-0.839938
C55	C	1.270644	0.481677	-0.922486
C56	C	1.455729	0.330081	-0.716148
C57	C	1.332300	0.431179	-0.716121
C58	C	1.393960	0.380740	-0.175470
C59	C	1.394130	0.380545	-0.087614
H60	H	1.281925	0.681641	-0.472480
C61	C	1.523721	0.274392	-1.091765
N62	N	1.574854	0.232496	-1.125977
C63	C	1.585363	0.223903	-0.794603
N64	N	1.636481	0.182020	-0.760420
C65	C	1.202682	0.967039	-0.537433
N66	N	1.151545	1.001251	-0.579271
C67	C	1.202763	0.537261	-0.967882
N68	N	1.151635	0.579125	-1.002077
C69	C	1.264517	0.486687	-1.091717
N70	N	1.213384	0.528553	-1.125906
H71	H	1.505905	0.681610	-0.289210
H72	H	1.506074	1.079022	-0.289252
H73	H	1.567774	0.238333	-0.956157
H74	H	1.220250	0.805464	-0.522990
H75	H	1.282109	1.079058	-0.472512
C76	C	1.585383	0.966983	-0.224293
N77	N	1.636528	1.001180	-0.182442
H78	H	1.567697	0.805427	-0.238711
H79	H	1.505976	0.288935	-0.682555
H80	H	1.282025	0.472343	-0.682512
H81	H	1.220361	0.522866	-0.806312
