data_functionalizedCrystal
_audit_creation_method	'MofGen! by Chris Wilmer'
_symmetry_space_group_name_H-M	'P1'
_symmetry_Int_Tables_number	1
_symmetry_cell_setting	triclinic
loop_
_symmetry_equiv_pos_as_xyz
  x,y,z
_cell_length_a	11.792241
_cell_length_b	9.065215
_cell_length_c	10.868271
_cell_angle_alpha	89.996624
_cell_angle_beta	89.991394
_cell_angle_gamma	95.395943
loop_
_atom_site_label
_atom_site_type_symbol
_atom_site_fract_x
_atom_site_fract_y
_atom_site_fract_z
O1	O	1.508014	-0.202225	0.102200
O2	O	2.008014	0.297775	0.602200
O3	O	1.177788	-0.223066	0.102228
O4	O	1.677788	0.276934	0.602228
O5	O	1.349729	0.002061	0.102208
O6	O	1.849729	0.502061	0.602208
O7	O	1.336074	-0.427352	0.102220
O8	O	1.836074	0.072648	0.602220
O9	O	1.349743	0.002070	-0.102436
O10	O	1.849743	0.502070	0.397564
O11	O	1.177803	-0.223057	-0.102416
O12	O	1.677803	0.276943	0.397584
O13	O	1.508028	-0.202216	-0.102445
O14	O	2.008028	0.297784	0.397555
Zn15	Zn	1.342918	-0.212635	-0.134922
Zn16	Zn	1.842918	0.287365	0.365078
Zn17	Zn	1.342899	-0.212647	0.134706
Zn18	Zn	1.842899	0.287353	0.634706
O19	O	1.336088	-0.427343	-0.102425
O20	O	1.836088	0.072657	0.397575
C21	C	1.135497	-0.221753	-0.000090
C22	C	1.635497	0.278247	0.499910
C23	C	1.009462	-0.217834	-0.000080
C24	C	1.509462	0.282166	0.499920
N25	N	1.342939	-0.212626	-0.318936
N26	N	1.842939	0.287374	0.181064
C27	C	1.348424	0.057040	-0.000113
C28	C	1.848424	0.557040	0.499887
C29	C	1.344503	0.220846	-0.000108
C30	C	1.844503	0.720846	0.499892
C31	C	0.778710	-0.210629	-0.000115
C32	C	1.278710	0.289371	0.499885
C33	C	0.907117	-0.214632	-0.000096
C34	C	1.407117	0.285368	0.499904
C35	C	1.550319	-0.203530	-0.000123
C36	C	2.050319	0.296470	0.499877
C37	C	1.676355	-0.207448	-0.000126
C38	C	2.176355	0.292552	0.499874
C39	C	1.337392	-0.482322	-0.000101
C40	C	1.837392	0.017678	0.499899
C41	C	1.341314	-0.646129	-0.000097
C42	C	1.841314	-0.146129	0.499903
N43	N	1.342887	-0.212644	0.318720
N44	N	1.842887	0.287356	0.818720
C45	C	1.342895	-0.212644	0.430058
C46	C	1.842895	0.287356	0.930058
C47	C	1.342916	-0.212638	0.569735
C48	C	1.842916	0.287362	1.069735
