data_functionalizedCrystal
_audit_creation_method	'MofGen! by Chris Wilmer'
_symmetry_space_group_name_H-M	'P1'
_symmetry_Int_Tables_number	1
_symmetry_cell_setting	triclinic
loop_
_symmetry_equiv_pos_as_xyz
  x,y,z
_cell_length_a	10.967926
_cell_length_b	11.026607
_cell_length_c	7.540329
_cell_angle_alpha	89.998289
_cell_angle_beta	102.126281
_cell_angle_gamma	96.380754
loop_
_atom_site_label
_atom_site_type_symbol
_atom_site_fract_x
_atom_site_fract_y
_atom_site_fract_z
O1	O	1.693962	0.170510	0.370248
O2	O	1.334339	0.186834	0.260334
O3	O	1.484345	0.001771	0.306188
O4	O	1.543956	0.355573	0.324394
O5	O	1.484333	0.001769	0.601149
O6	O	1.334327	0.186832	0.555295
O7	O	1.693950	0.170508	0.665210
Cu8	Cu	1.514137	0.178669	0.637185
Cu9	Cu	1.514151	0.178672	0.288359
O10	O	1.543944	0.355571	0.619356
C11	C	1.287578	0.185645	0.393524
C12	C	1.148259	0.182092	0.350943
C13	C	1.086140	0.180507	0.484757
C14	C	0.942146	0.176835	0.440751
C15	C	1.473342	-0.043533	0.450305
C16	C	1.440559	-0.178519	0.440279
C17	C	1.531078	-0.251572	0.467943
C18	C	1.497198	-0.391088	0.457581
C19	C	1.740711	0.171696	0.532015
C20	C	1.880030	0.175250	0.574585
C21	C	1.554947	0.400874	0.475234
C22	C	1.587729	0.535861	0.485248
N23	N	1.514136	0.178667	0.882533
N24	N	1.514160	0.178665	0.043013
H25	H	0.888731	0.175470	0.293598
C26	C	0.951470	0.177126	0.770688
C27	C	1.080090	0.180434	0.775358
C28	C	1.145940	0.182178	0.955971
H29	H	0.923840	0.105829	0.828479
H30	H	0.936534	0.247384	0.832243
H31	H	1.095018	0.110183	0.713829
H32	H	1.107756	0.251727	0.717604
H33	H	1.131004	0.252436	1.017526
H34	H	1.118300	0.110879	1.013747
H35	H	1.233216	0.184433	0.959164
H36	H	1.394612	-0.431827	0.426215
C37	C	1.667786	-0.197023	0.509819
C38	C	1.674211	-0.069488	0.511832
C39	C	1.800128	-0.019200	0.550427
H40	H	1.708369	-0.223179	0.419391
H41	H	1.708257	-0.223253	0.625092
H42	H	1.633758	-0.043268	0.396575
H43	H	1.633655	-0.043298	0.602260
H44	H	1.840598	-0.045431	0.665700
H45	H	1.840700	-0.045365	0.459994
H46	H	1.804504	0.067337	0.551814
C47	C	1.724572	-0.409997	0.527353
C48	C	1.783884	-0.448970	0.697212
C49	C	1.909944	-0.399132	0.736047
H50	H	1.729342	-0.323448	0.528905
H51	H	1.765087	-0.436324	0.436929
H52	H	1.743381	-0.422636	0.787613
H53	H	1.779149	-0.535512	0.695703
H54	H	1.950459	-0.425459	0.645623
H55	H	1.914701	-0.312584	0.737591
H56	H	1.950206	-0.425577	0.851291
C57	C	1.303851	-0.233068	0.398579
C58	C	1.297426	-0.360603	0.396651
C59	C	1.171510	-0.410891	0.358265
H60	H	1.263281	-0.206902	0.283348
H61	H	1.263369	-0.206848	0.489110
H62	H	1.337892	-0.386813	0.306125
H63	H	1.337970	-0.386804	0.511866
H64	H	1.131027	-0.384671	0.448796
H65	H	1.130949	-0.384715	0.243036
H66	H	1.167133	-0.497428	0.356968
H67	H	1.094838	0.180728	0.203800
H68	H	1.139559	0.181862	0.631900
