data_functionalizedCrystal
_audit_creation_method	'MofGen! by Chris Wilmer'
_symmetry_space_group_name_H-M	'P1'
_symmetry_Int_Tables_number	1
_symmetry_cell_setting	triclinic
loop_
_symmetry_equiv_pos_as_xyz
  x,y,z
_cell_length_a	19.805407
_cell_length_b	19.805404
_cell_length_c	19.805399
_cell_angle_alpha	89.972890
_cell_angle_beta	89.980427
_cell_angle_gamma	90.029593
loop_
_atom_site_label
_atom_site_type_symbol
_atom_site_fract_x
_atom_site_fract_y
_atom_site_fract_z
Zn1	Zn	1.034721	-0.269479	-0.382722
Zn2	Zn	1.034629	-0.382667	-0.269535
Zn3	Zn	0.921535	-0.269498	-0.269546
Zn4	Zn	0.921493	-0.382631	-0.382681
O5	O	0.978094	-0.326069	-0.326121
O6	O	1.129425	-0.284501	-0.367719
O7	O	1.019607	-0.367678	-0.174819
O8	O	0.936606	-0.174778	-0.284581
O9	O	1.129358	-0.367660	-0.284561
O10	O	1.019763	-0.174765	-0.367731
O11	O	0.936517	-0.284533	-0.174828
O12	O	0.826813	-0.284498	-0.284542
O13	O	0.936533	-0.367598	-0.477403
O14	O	0.826782	-0.367617	-0.367662
O15	O	1.019721	-0.284466	-0.477433
O16	O	1.019565	-0.477379	-0.284522
O17	O	0.936444	-0.477353	-0.367650
C18	C	0.802238	-0.326056	-0.326099
C19	C	0.727006	-0.326067	-0.326106
C20	C	0.978009	-0.501925	-0.326095
C21	C	0.978034	-0.577157	-0.326107
C22	C	1.021542	-1.038939	-0.282931
C23	C	1.021510	-0.968251	-0.282918
C24	C	0.978183	-0.932918	-0.326157
C25	C	0.934880	-0.968278	-0.369407
C26	C	0.934909	-1.038966	-0.369417
C27	C	0.934763	-0.683205	-0.369370
C28	C	0.934739	-0.612513	-0.369359
C29	C	1.021364	-0.612490	-0.282871
C30	C	1.021392	-0.683177	-0.282880
C31	C	0.978087	-0.718531	-0.326128
C32	C	0.978121	-0.795179	-0.326141
C33	C	0.978152	-0.856271	-0.326148
C34	C	0.691664	-0.369412	-0.369316
C35	C	0.620975	-0.369413	-0.369326
C36	C	0.585631	-0.326072	-0.326121
C37	C	0.620979	-0.282722	-0.282909
C38	C	0.691666	-0.282718	-0.282903
C39	C	0.335905	-0.282737	-0.282931
C40	C	0.265213	-0.282746	-0.282939
C41	C	0.265215	-0.369432	-0.369354
C42	C	0.335902	-0.369428	-0.369348
C43	C	0.371244	-0.326076	-0.326139
C44	C	0.447892	-0.326074	-0.326130
C45	C	0.508984	-0.326076	-0.326126
C46	C	1.154637	-0.326082	-0.326143
C47	C	1.229869	-0.326088	-0.326153
C48	C	0.978132	-0.326026	-0.502664
C49	C	0.978149	-0.326008	-0.577896
C50	C	0.978199	-0.149526	-0.326162
C51	C	0.978244	-0.074294	-0.326179
C52	C	1.021466	-0.282719	-0.613257
C53	C	1.021473	-0.282699	-0.683945
C54	C	0.978165	-0.325973	-0.719272
C55	C	0.934844	-0.369264	-0.683906
C56	C	0.934834	-0.369280	-0.613219
C57	C	0.934882	-0.369201	-0.968979
C58	C	0.934896	-0.369183	-1.039671
C59	C	1.021521	-0.282620	-1.039706
C60	C	1.021511	-0.282636	-0.969019
C61	C	0.978187	-0.325924	-0.933659
C62	C	0.978179	-0.325944	-0.857011
C63	C	0.978176	-0.325957	-0.795919
C64	C	0.978096	-0.326062	-0.150265
C65	C	0.978211	-0.325890	-0.075033
H66	H	1.056827	-1.067701	-0.247724
H67	H	0.899599	-0.939507	-0.404611
O68	O	0.892892	-0.411287	-0.934569
C69	C	0.931385	-0.455034	-0.893688
H70	H	0.982690	-0.431173	-0.883099
H71	H	0.938799	-0.505185	-0.920924
C72	C	0.831097	-0.496617	-0.839547
C73	C	0.894109	-0.467307	-0.826537
H74	H	0.808103	-0.504190	-0.798127
H75	H	0.805163	-0.467146	-0.867092
H76	H	0.837285	-0.538405	-0.862246
H77	H	0.887920	-0.425515	-0.803847
H78	H	0.920041	-0.496771	-0.798987
O79	O	1.063639	-0.934012	-0.240889
C80	C	1.101879	-0.980354	-0.202721
H81	H	1.104221	-1.030723	-0.230454
H82	H	1.077134	-0.987926	-0.151289
C83	C	1.171036	-0.890844	-0.158977
C84	C	1.173917	-0.952706	-0.193043
H85	H	1.215472	-0.873788	-0.153004
H86	H	1.145271	-0.859621	-0.184690
H87	H	1.150412	-0.897162	-0.116121
H88	H	1.194533	-0.946386	-0.235901
H89	H	1.199687	-0.983927	-0.167337
O90	O	0.892679	-0.717437	-0.411446
C91	C	0.854424	-0.671092	-0.449595
H92	H	0.882130	-0.620679	-0.451958
H93	H	0.803031	-0.663632	-0.424758
C94	C	0.810603	-0.760560	-0.518726
C95	C	0.844635	-0.698644	-0.521632
H96	H	0.804562	-0.777556	-0.563160
H97	H	0.836374	-0.791785	-0.493022
H98	H	0.767779	-0.754336	-0.498025
H99	H	0.887460	-0.704871	-0.542324
H100	H	0.818870	-0.667421	-0.547341
O101	O	0.892758	-0.411240	-1.073884
C102	C	0.854527	-0.449462	-1.027518
H103	H	0.852191	-0.421751	-0.977135
H104	H	0.879276	-0.500874	-1.019992
C105	C	0.785358	-0.493233	-1.116976
C106	C	0.782485	-0.459195	-1.055097
H107	H	0.740920	-0.499239	-1.133989
H108	H	0.811117	-0.467484	-1.148215
H109	H	0.805985	-0.536072	-1.110696
H110	H	0.761866	-0.416353	-1.061379
H111	H	0.756721	-0.484937	-1.023860
H112	H	0.592196	-0.247430	-0.247734
H113	H	1.056778	-0.247400	-0.940259
O114	O	1.063501	-0.717393	-0.240814
C115	C	1.101723	-0.671029	-0.202648
H116	H	1.073982	-0.620667	-0.200272
H117	H	1.153111	-0.663451	-0.227480
C118	C	1.145602	-0.760508	-0.133542
C119	C	1.111527	-0.698654	-0.130619
H120	H	1.151652	-0.777549	-0.089112
H121	H	1.119853	-0.791745	-0.159256
H122	H	1.188422	-0.754184	-0.154239
H123	H	1.068705	-0.704980	-0.109931
H124	H	1.137268	-0.667419	-0.104900
O125	O	0.725895	-0.240595	-0.240861
C126	C	0.679544	-0.202331	-0.202738
H127	H	0.629141	-0.230054	-0.200350
H128	H	0.672061	-0.150957	-0.227614
C129	C	0.769010	-0.158434	-0.133648
C130	C	0.707107	-0.192486	-0.130710
H131	H	0.786013	-0.152358	-0.089219
H132	H	0.800239	-0.184210	-0.159333
H133	H	0.762767	-0.115626	-0.154381
H134	H	0.713353	-0.235296	-0.109985
H135	H	0.675880	-0.166716	-0.105020
O136	O	0.892612	-0.578117	-0.411267
C137	C	0.848898	-0.537302	-0.372680
H138	H	0.872802	-0.526724	-0.321409
H139	H	0.798752	-0.564591	-0.365195
C140	C	0.807235	-0.483135	-0.472869
C141	C	0.836597	-0.470139	-0.409900
H142	H	0.799644	-0.441707	-0.495829
H143	H	0.836684	-0.510635	-0.498867
H144	H	0.765451	-0.505878	-0.466623
H145	H	0.878384	-0.447404	-0.416147
H146	H	0.807155	-0.442634	-0.383904
O147	O	0.586565	-0.411553	-0.411202
C148	C	0.545652	-0.455226	-0.372585
H149	H	0.535055	-0.431282	-0.321337
H150	H	0.572865	-0.505375	-0.365053
C151	C	0.491530	-0.496942	-0.472750
C152	C	0.478510	-0.467531	-0.409808
H153	H	0.450115	-0.504536	-0.495711
H154	H	0.519096	-0.467521	-0.498767
H155	H	0.514210	-0.538730	-0.466464
H156	H	0.455839	-0.425741	-0.416095
H157	H	0.450939	-0.496946	-0.383792
O158	O	0.892924	-1.073282	-0.411527
C159	C	0.907656	-1.055943	-0.478998
H160	H	0.961718	-1.036459	-0.482465
H161	H	0.871340	-1.014936	-0.496652
C162	C	0.833378	-1.142648	-0.519911
C163	C	0.899780	-1.118723	-0.524171
H164	H	0.828516	-1.181372	-0.547777
H165	H	0.823450	-1.154328	-0.474455
H166	H	0.803122	-1.108469	-0.534621
H167	H	0.930033	-1.152899	-0.509453
H168	H	0.909713	-1.107050	-0.569626
H169	H	1.056623	-0.583698	-0.247654
O170	O	0.230778	-0.411477	-0.411313
C171	C	0.160809	-0.402200	-0.402047
H172	H	0.151167	-0.349936	-0.379977
H173	H	0.140714	-0.442301	-0.365932
C174	C	0.136390	-0.472690	-0.497632
C175	C	0.124547	-0.408496	-0.470530
H176	H	0.114021	-0.476577	-0.539874
H177	H	0.183530	-0.478942	-0.503873
H178	H	0.119644	-0.506100	-0.467530
H179	H	0.141300	-0.375089	-0.500628
H180	H	0.077409	-0.402239	-0.464295
H181	H	0.720436	-0.404707	-0.404496
O182	O	0.230983	-0.240574	-0.240949
C183	C	0.277333	-0.202320	-0.202799
H184	H	0.327735	-0.200008	-0.230521
H185	H	0.284818	-0.227032	-0.151345
C186	C	0.187864	-0.133112	-0.159134
C187	C	0.249766	-0.130268	-0.193185
H188	H	0.170858	-0.088668	-0.153200
H189	H	0.156636	-0.158886	-0.184834
H190	H	0.194110	-0.153709	-0.116260
H191	H	0.243518	-0.109680	-0.236061
H192	H	0.280993	-0.104489	-0.167492
H193	H	0.364676	-0.404723	-0.404528
O194	O	0.370301	-0.240724	-0.240920
C195	C	0.411142	-0.279196	-0.197118
H196	H	0.421727	-0.330518	-0.220897
H197	H	0.383871	-0.286573	-0.146950
C198	C	0.465292	-0.178891	-0.155709
C199	C	0.478298	-0.241924	-0.184918
H200	H	0.506716	-0.155900	-0.148181
H201	H	0.437775	-0.152971	-0.185218
H202	H	0.442564	-0.185048	-0.113906
H203	H	0.501017	-0.235766	-0.226724
H204	H	0.505820	-0.267842	-0.155416
O205	O	1.063557	-0.240618	-0.579048
C206	C	1.101802	-0.202417	-0.625420
H207	H	1.074086	-0.200062	-0.675803
H208	H	1.153194	-0.227205	-0.632943
C209	C	1.145637	-0.133280	-0.535973
C210	C	1.111593	-0.130382	-0.597853
H211	H	1.151680	-0.088846	-0.518968
H212	H	1.119873	-0.159018	-0.504731
H213	H	1.188460	-0.153939	-0.542250
H214	H	1.068768	-0.109731	-0.591573
H215	H	1.137350	-0.104639	-0.629094
O216	O	1.063452	-0.240570	-0.718320
C217	C	1.024946	-0.196847	-0.759215
H218	H	0.971636	-0.192676	-0.737904
H219	H	1.022613	-0.217752	-0.812787
C220	C	1.123525	-0.131607	-0.786486
C221	C	1.058051	-0.126479	-0.760307
H222	H	1.143947	-0.088201	-0.787163
H223	H	1.149469	-0.161065	-0.758936
H224	H	1.121572	-0.149030	-0.831126
H225	H	1.060006	-0.109065	-0.715665
H226	H	1.032109	-0.097017	-0.787850
H227	H	1.056795	-0.247370	-1.068504
H228	H	0.899580	-0.404495	-0.712674
H229	H	0.899554	-0.404523	-0.584429
