data_functionalizedCrystal
_audit_creation_method	'MofGen! by Chris Wilmer'
_symmetry_space_group_name_H-M	'P1'
_symmetry_Int_Tables_number	1
_symmetry_cell_setting	triclinic
loop_
_symmetry_equiv_pos_as_xyz
  x,y,z
_cell_length_a	9.065218
_cell_length_b	14.971486
_cell_length_c	14.048226
_cell_angle_alpha	89.993360
_cell_angle_beta	89.993494
_cell_angle_gamma	84.315007
loop_
_atom_site_label
_atom_site_type_symbol
_atom_site_fract_x
_atom_site_fract_y
_atom_site_fract_z
O1	O	1.957746	0.131155	-0.079164
O2	O	1.528243	0.141913	-0.079165
O3	O	1.754506	0.006420	-0.079158
O4	O	1.731482	0.266649	-0.079171
O5	O	1.754479	0.006412	0.079164
O6	O	1.528216	0.141905	0.079156
O7	O	1.957719	0.131147	0.079158
Zn8	Zn	1.742963	0.136525	0.104294
Zn9	Zn	1.742999	0.136536	-0.104301
O10	O	1.731455	0.266640	0.079150
C11	C	1.753463	-0.026916	0.000003
C12	C	1.750377	-0.126237	0.000002
C13	C	1.473263	0.140875	-0.000005
C14	C	1.309483	0.137784	-0.000005
C15	C	1.883301	-0.182471	0.000003
C16	C	1.880393	-0.275792	-0.000007
C17	C	1.744560	-0.312877	-0.000010
C18	C	1.611626	-0.256635	-0.000014
C19	C	1.614535	-0.163316	-0.000012
C20	C	1.605571	-0.451143	-0.000018
C21	C	1.602660	-0.544468	-0.000019
C22	C	1.871428	-0.563619	-0.000013
C23	C	1.874338	-0.470300	-0.000010
C24	C	1.741403	-0.414064	-0.000012
C25	C	2.012698	0.132185	-0.000005
C26	C	2.176478	0.135277	-0.000011
C27	C	1.732498	0.299977	-0.000012
C28	C	1.735584	0.399297	-0.000018
N29	N	1.742949	0.136517	0.246655
N30	N	1.743024	0.136537	-0.246662
C31	C	1.843170	0.076546	0.296476
C32	C	1.843180	0.076545	0.396134
C33	C	1.742975	0.136521	0.445968
C34	C	1.642743	0.196495	0.396140
C35	C	1.642727	0.196490	0.296484
C36	C	1.642786	0.196502	0.603854
C37	C	1.642803	0.196508	0.703517
C38	C	1.843238	0.076557	0.703504
C39	C	1.843222	0.076552	0.603848
C40	C	1.742992	0.136527	0.554026
H41	H	1.993912	-0.152285	0.000012
Cl42	Cl	1.969172	0.001151	0.458768
Cl43	Cl	2.045102	-0.423680	-0.000010
Cl44	Cl	1.969157	0.001147	0.233837
H45	H	1.924824	0.027720	0.563273
H46	H	1.924848	0.027723	0.744074
H47	H	1.497321	-0.405358	-0.000022
H48	H	1.561147	0.245325	0.436721
Cl49	Cl	2.047505	-0.346484	-0.000002
Cl50	Cl	2.038546	-0.634315	-0.000015
H51	H	1.492053	-0.574659	-0.000007
H52	H	1.501028	-0.286837	-0.000024
H53	H	1.561204	0.245345	0.744087
H54	H	1.561163	0.245337	0.563293
Cl55	Cl	1.516724	0.271883	0.233852
Cl56	Cl	1.447424	-0.092620	-0.000017
