data_functionalizedCrystal
_audit_creation_method	'MofGen! by Chris Wilmer'
_symmetry_space_group_name_H-M	'P1'
_symmetry_Int_Tables_number	1
_symmetry_cell_setting	triclinic
loop_
_symmetry_equiv_pos_as_xyz
  x,y,z
_cell_length_a	15.698487
_cell_length_b	21.606444
_cell_length_c	15.698487
_cell_angle_alpha	60.001679
_cell_angle_beta	90.001001
_cell_angle_gamma	59.999624
loop_
_atom_site_label
_atom_site_type_symbol
_atom_site_fract_x
_atom_site_fract_y
_atom_site_fract_z
Zr1	Zr	0.820597	0.677464	-0.111771
O2	O	0.684576	0.806582	-0.247781
O3	O	0.862296	0.548345	-0.070081
O4	O	0.862288	0.677467	-0.247790
O5	O	0.684588	0.677458	0.070112
O6	O	1.002469	0.677469	-0.247792
O7	O	0.684584	0.677461	-0.070073
O8	O	1.002483	0.446495	0.070097
O9	O	0.684574	0.908433	-0.247777
O10	O	0.984694	0.601456	-0.052297
O11	O	0.880082	0.601452	0.052322
O12	O	0.880073	0.753476	-0.156907
O13	O	0.775461	0.753472	-0.052287
Zr14	Zr	1.044177	0.677464	0.111803
Zr15	Zr	1.044170	0.677468	-0.111775
Zr16	Zr	0.820604	0.677460	0.111807
Zr17	Zr	0.820595	0.839904	-0.111764
Zr18	Zr	1.044179	0.515024	0.111796
O19	O	1.002478	0.806582	0.070113
O20	O	1.002467	0.806588	-0.247786
O21	O	0.684586	0.806577	0.070118
O22	O	1.180198	0.548345	0.247813
O23	O	1.180187	0.548351	-0.070086
O24	O	0.862306	0.548340	0.247818
O25	O	1.180186	0.677469	-0.070080
O26	O	1.002486	0.677461	0.247822
O27	O	0.862304	0.677458	0.247824
O28	O	1.180190	0.677467	0.070104
O29	O	0.862285	0.908436	-0.247780
O30	O	1.002489	0.446492	0.247812
O31	O	1.180199	0.446495	0.247809
O32	O	1.180194	0.446498	0.070094
O33	O	0.684580	0.908430	-0.070062
O34	O	0.862291	0.908433	-0.070065
O35	O	0.984701	0.601452	0.156939
O36	O	1.089313	0.601456	0.052319
O37	O	0.984692	0.753476	-0.052291
O38	O	0.880080	0.753472	0.052329
C39	C	0.932390	0.474276	0.000007
C40	C	0.932391	0.405316	0.000004
C41	C	0.652732	0.677459	0.000020
C42	C	0.557819	0.677457	0.000022
C43	C	0.986995	0.372920	-0.054608
C44	C	0.986999	0.308120	-0.054601
C45	C	0.932391	0.275721	0.000012
C46	C	0.877786	0.308120	0.054631
C47	C	0.877789	0.372914	0.054629
C48	C	0.877773	0.046810	0.054640
C49	C	0.877772	-0.017987	0.054635
C50	C	0.986983	-0.017984	-0.054591
C51	C	0.986986	0.046811	-0.054592
C52	C	0.932386	0.079200	0.000030
C53	C	0.932384	0.149462	0.000024
C54	C	0.932387	0.205465	0.000014
C55	C	0.384034	0.677473	0.000012
C56	C	0.480738	0.677468	0.000015
C57	C	1.212042	0.677469	0.000012
C58	C	1.306955	0.677470	0.000010
C59	C	0.932378	0.677469	-0.279646
C60	C	0.932375	0.677470	-0.374561
C61	C	0.932384	0.880652	0.000025
C62	C	0.932383	0.949612	0.000028
C63	C	0.932398	0.677455	-0.548325
C64	C	0.932388	0.677460	-0.451628
C65	C	0.932396	0.677459	0.279678
C66	C	0.932399	0.677457	0.374593
C67	C	1.212045	0.474281	0.000003
C68	C	1.306959	0.405322	-0.000002
C69	C	0.932399	0.474271	0.279669
C70	C	0.932403	0.405309	0.374581
C71	C	1.212054	0.474276	0.279665
C72	C	1.306971	0.405316	0.374575
C73	C	0.652719	0.880652	-0.279633
C74	C	0.557803	0.949612	-0.374543
C75	C	0.652729	0.880647	0.000029
C76	C	0.557815	0.949605	0.000034
C77	C	0.932375	0.880657	-0.279637
C78	C	0.932371	0.949619	-0.374549
C79	C	1.296921	0.372939	-0.054622
C80	C	1.386094	0.308154	-0.054647
C81	C	1.485303	0.275749	-0.000046
C82	C	1.495339	0.308139	0.054576
C83	C	1.406167	0.372927	0.054595
C84	C	0.987015	0.372924	0.473770
C85	C	0.987015	0.308136	0.562958
C86	C	0.932408	0.275730	0.552955
C87	C	0.877790	0.308122	0.453754
C88	C	0.877784	0.372913	0.364569
C89	C	1.406161	0.372933	0.364535
C90	C	1.495353	0.308147	0.453705
C91	C	1.485354	0.275740	0.552913
C92	C	1.386154	0.308129	0.562951
C93	C	1.296964	0.372918	0.473782
C94	C	0.458613	0.982002	-0.364503
C95	C	0.369420	1.046809	-0.453673
C96	C	0.379420	1.079219	-0.552881
C97	C	0.478620	1.046826	-0.562919
C98	C	0.567810	0.982025	-0.473750
C99	C	0.567853	0.981996	0.054645
C100	C	0.478680	1.046799	0.054645
C101	C	0.379471	1.079205	0.000040
C102	C	0.369435	1.046812	-0.054577
C103	C	0.458607	0.982015	-0.054583
C104	C	0.986988	0.982004	-0.364512
C105	C	0.987004	1.046792	-0.453683
C106	C	0.932397	1.079198	-0.552890
C107	C	0.877778	1.046807	-0.562925
C108	C	0.877768	0.982015	-0.473755
H109	H	1.031462	0.281743	-0.099069
H110	H	1.557904	0.222994	-0.000068
H111	H	1.031448	0.073191	-0.099068
O112	O	0.824576	0.404471	0.107540
C113	C	0.717979	0.441932	0.067409
H114	H	0.698640	0.461382	-0.015829
H115	H	0.668582	0.502439	0.067552
H116	H	0.700516	0.392271	0.118051
H117	H	1.576118	0.281782	0.445514
H118	H	1.031480	1.073159	-0.445491
H119	H	0.486872	1.073162	0.099125
H120	H	1.216148	0.399322	-0.099098
H121	H	0.833316	0.399272	0.283807
H122	H	1.031456	0.955629	-0.283740
O123	O	0.824759	0.950467	-0.483327
C124	C	0.836405	0.886362	-0.383359
H125	H	0.910185	0.857976	-0.324232
H126	H	0.842591	0.831881	-0.384367
H127	H	0.765860	0.917388	-0.360642
O128	O	1.040173	0.276742	0.659234
C129	C	1.088355	0.319249	0.648928
H130	H	1.099154	0.345942	0.569341
H131	H	1.167690	0.270647	0.712877
H132	H	1.037186	0.375530	0.656231
O133	O	0.932387	0.212871	0.639672
C134	C	0.888948	0.244549	0.699406
H135	H	0.896359	0.299673	0.679882
H136	H	0.932314	0.189217	0.785915
H137	H	0.803050	0.270370	0.680726
O138	O	1.040133	0.404266	-0.107677
C139	C	1.088309	0.361788	-0.155895
H140	H	1.099119	0.296113	-0.113062
H141	H	1.167638	0.350620	-0.152958
H142	H	1.037129	0.404280	-0.240656
O143	O	1.376276	0.276610	-0.107565
C144	C	1.321247	0.239148	-0.067407
H145	H	1.328715	0.219688	0.015838
H146	H	1.355107	0.178647	-0.067560
H147	H	1.235422	0.288813	-0.118025
O148	O	0.824663	0.276756	0.443860
C149	C	0.776478	0.319209	0.337189
H150	H	0.765641	0.384894	0.289607
H151	H	0.697160	0.330353	0.324781
H152	H	0.827664	0.276710	0.310922
O153	O	0.824562	0.078353	0.107557
C154	C	0.717967	0.115811	0.067421
H155	H	0.698633	0.135266	-0.015821
H156	H	0.668564	0.176313	0.067571
H157	H	0.700508	0.066144	0.118055
H158	H	1.557987	0.222984	0.625512
H159	H	0.306870	1.131967	0.000054
H160	H	0.833329	0.281731	0.099104
H161	H	0.833318	1.073202	-0.643711
H162	H	0.288647	1.073208	-0.099035
O163	O	0.448662	0.950615	-0.107641
C164	C	0.341973	0.993133	-0.155848
H165	H	0.294432	1.019837	-0.113010
H166	H	0.329524	0.944534	-0.152903
H167	H	0.315693	1.049406	-0.240610
H168	H	1.414322	0.399310	0.283763
O169	O	1.376636	0.276516	0.659403
C170	C	1.476635	0.212400	0.735940
H171	H	1.535732	0.184086	0.701158
H172	H	1.475680	0.157872	0.804712
H173	H	1.499354	0.243395	0.763842
O174	O	0.932479	1.142167	-0.639397
C175	C	0.992419	1.163781	-0.609251
H176	H	0.996516	1.145919	-0.526932
H177	H	0.954615	1.237013	-0.665580
H178	H	1.074595	1.125889	-0.610866
O179	O	0.488138	1.078378	-0.659371
C180	C	0.388139	1.142529	-0.735908
H181	H	0.329042	1.131882	-0.701129
H182	H	0.389094	1.137277	-0.804684
H183	H	0.365421	1.210300	-0.763803
O184	O	0.664140	0.950646	0.107710
C185	C	0.653856	0.993126	0.155924
H186	H	0.574275	1.058803	0.113088
H187	H	0.717817	1.004291	0.152986
H188	H	0.661161	0.950638	0.240685
H189	H	0.833302	-0.044365	0.099111
O190	O	1.040018	-0.049578	-0.107552
C191	C	1.028293	-0.113702	-0.095862
H192	H	1.008190	-0.142043	-0.022103
H193	H	1.104304	-0.168210	-0.089612
H194	H	0.962908	-0.082708	-0.166416
H195	H	0.648572	0.955654	-0.481937
O196	O	1.415740	0.404491	0.107584
C197	C	1.315770	0.468603	0.095933
H198	H	1.256637	0.496969	0.022171
H199	H	1.316772	0.523095	0.089713
H200	H	1.293063	0.437588	0.166490
O201	O	0.448935	0.950396	-0.268118
C202	C	0.497261	0.859602	-0.213251
H203	H	0.501372	0.841861	-0.271111
H204	H	0.449964	0.840985	-0.163943
H205	H	0.579522	0.822543	-0.160331
O206	O	1.200590	0.404501	0.483490
C207	C	1.145700	0.495297	0.435163
H208	H	1.203546	0.513054	0.431026
H209	H	1.096405	0.513908	0.482472
H210	H	1.092765	0.532349	0.352914
O211	O	1.591738	0.276512	0.107756
C212	C	1.646581	0.185714	0.184358
H213	H	1.588700	0.167996	0.204647
H214	H	1.695917	0.167057	0.257296
H215	H	1.699473	0.148669	0.153077
H216	H	1.031483	0.399302	0.481935
O217	O	0.273122	1.078276	-0.443776
C218	C	0.261701	1.115750	-0.388757
H219	H	0.341987	1.086479	-0.339549
H220	H	0.214814	1.101522	-0.335731
H221	H	0.219066	1.189552	-0.446497
H222	H	0.306786	1.131984	-0.625480
