data_functionalizedCrystal
_audit_creation_method	'MofGen! by Chris Wilmer'
_symmetry_space_group_name_H-M	'P1'
_symmetry_Int_Tables_number	1
_symmetry_cell_setting	triclinic
loop_
_symmetry_equiv_pos_as_xyz
  x,y,z
_cell_length_a	6.817900
_cell_length_b	10.943632
_cell_length_c	19.453114
_cell_angle_alpha	94.440217
_cell_angle_beta	101.709288
_cell_angle_gamma	108.838880
loop_
_atom_site_label
_atom_site_type_symbol
_atom_site_fract_x
_atom_site_fract_y
_atom_site_fract_z
V1	V	-4.034382	-0.179974	-0.218982
O2	O	-3.993629	0.007265	-0.214831
O3	O	-4.012894	-0.355528	-0.217468
O4	O	-3.976966	-0.177813	-0.314495
O5	O	-4.029805	-0.171680	-0.117132
V6	V	-4.515692	-0.157506	-0.206802
O7	O	-4.300497	-0.229259	-0.245700
O8	O	-4.699774	-0.108222	-0.180084
O9	O	-4.313974	0.018048	-0.208316
O10	O	-4.673842	-0.344746	-0.210953
O11	O	-4.637666	-0.165800	-0.308652
O12	O	-4.349901	-0.159668	-0.111289
C13	C	-3.864733	-0.398305	-0.214009
C14	C	-3.928390	-0.541827	-0.213407
C15	C	-3.818903	-0.171610	-0.337776
C16	C	-3.853420	-0.171004	-0.415859
C17	C	-3.774718	-0.618955	-0.209407
C18	C	-3.874556	-0.691253	-0.152706
C19	C	-3.942002	-0.725260	-0.269044
C20	C	-4.027362	-0.612221	-0.156666
C21	C	-4.094807	-0.646234	-0.273056
C22	C	-4.194760	-0.718495	-0.216343
C23	C	-4.052412	-0.177200	-0.456115
C24	C	-4.084845	-0.176631	-0.529482
C25	C	-3.918288	-0.169892	-0.562592
C26	C	-3.719264	-0.163688	-0.522325
C27	C	-3.686831	-0.164244	-0.448959
N28	N	-3.868996	-0.238075	-0.681374
N29	N	-3.899821	-0.237550	-0.751070
C30	C	-4.015997	-0.168214	-0.783640
N31	N	-4.100222	-0.099441	-0.743884
N32	N	-4.069403	-0.099972	-0.674182
C33	C	-3.953436	-0.169288	-0.642145
C34	C	-4.250168	-0.173792	-0.903449
C35	C	-4.282591	-0.173215	-0.976817
C36	C	-3.917010	-0.160285	-0.969659
C37	C	-3.884587	-0.160849	-0.896292
C38	C	-4.051177	-0.167609	-0.863192
C39	C	-4.125478	0.060818	-0.211773
C40	C	-4.041059	0.204338	-0.212379
C41	C	-4.171308	-0.165875	-0.088004
C42	C	-4.116028	-0.166474	-0.009921
H43	H	-3.596516	-0.575452	-0.206408
H44	H	-4.062806	-0.563161	-0.109125
N45	N	-3.483551	-0.157938	-0.407848
N46	N	-3.409168	-0.245024	-0.421397
H47	H	-3.265598	-0.240575	-0.392363
H48	H	-4.444633	-0.178251	-1.009592
H49	H	-4.246897	-0.181684	-0.562266
N50	N	-3.758585	-0.716941	-0.088875
N51	N	-3.790470	-0.832057	-0.077978
H52	H	-3.708552	-0.850198	-0.032900
H53	H	-4.188063	-0.182700	-0.429170
H54	H	-4.385813	-0.179292	-0.876498
H55	H	-4.187184	-0.625756	-0.323946
H56	H	-3.781389	-0.154786	-0.996615
H57	H	-3.722555	-0.155817	-0.863516
N58	N	-3.897524	-0.786982	-0.328622
N59	N	-4.045923	-0.871906	-0.373685
H60	H	-4.014500	-0.915493	-0.415760
N61	N	-4.418278	-0.772733	-0.219993
N62	N	-4.492893	-0.734494	-0.172331
H63	H	-4.650751	-0.772799	-0.174905
H64	H	-3.583652	-0.158197	-0.549287
