data_functionalizedCrystal
_audit_creation_method	'MofGen! by Chris Wilmer'
_symmetry_space_group_name_H-M	'P1'
_symmetry_Int_Tables_number	1
_symmetry_cell_setting	triclinic
loop_
_symmetry_equiv_pos_as_xyz
  x,y,z
_cell_length_a	19.288864
_cell_length_b	17.699083
_cell_length_c	18.366186
_cell_angle_alpha	89.992864
_cell_angle_beta	89.977106
_cell_angle_gamma	83.209630
loop_
_atom_site_label
_atom_site_type_symbol
_atom_site_fract_x
_atom_site_fract_y
_atom_site_fract_z
O1	O	0.921465	0.094417	-0.060785
O2	O	1.421465	0.594417	0.439215
O3	O	0.719219	0.107154	-0.060735
O4	O	1.219219	0.607154	0.439265
O5	O	0.826056	-0.009412	-0.060755
O6	O	1.326056	0.490588	0.439245
O7	O	0.814628	0.210983	-0.060765
O8	O	1.314628	0.710983	0.439235
O9	O	0.826038	-0.009417	0.060345
O10	O	1.326038	0.490583	0.560345
O11	O	0.719201	0.107148	0.060364
O12	O	1.219201	0.607148	0.560364
O13	O	0.921446	0.094412	0.060315
O14	O	1.421446	0.594412	0.560315
Zn15	Zn	0.820321	0.100779	0.079567
Zn16	Zn	1.320321	0.600779	0.579567
Zn17	Zn	0.820345	0.100786	-0.079987
Zn18	Zn	1.320345	0.600786	0.420013
O19	O	0.814610	0.210977	0.060335
O20	O	1.314610	0.710977	0.560335
C21	C	0.693333	0.106741	-0.000179
C22	C	1.193333	0.606741	0.499821
C23	C	0.616228	0.105511	-0.000160
C24	C	1.116228	0.605511	0.499840
C25	C	0.825637	-0.037611	-0.000205
C26	C	1.325637	0.462389	0.499795
C27	C	0.824409	-0.121627	-0.000204
C28	C	1.324409	0.378373	0.499796
C29	C	0.571613	0.173906	-0.000174
C30	C	1.071613	0.673906	0.499826
C31	C	0.499164	0.172751	-0.000182
C32	C	0.999164	0.672751	0.499818
C33	C	0.471334	0.103196	-0.000190
C34	C	0.971334	0.603196	0.499810
C35	C	0.515959	0.034791	-0.000172
C36	C	1.015959	0.534791	0.499828
C37	C	0.588406	0.035949	-0.000156
C38	C	1.088406	0.535949	0.499844
C39	C	0.363014	0.048520	-0.042639
C40	C	0.863014	0.548520	0.457361
C41	C	0.290568	0.047365	-0.042659
C42	C	0.790568	0.547365	0.457341
C43	C	0.247884	0.099622	-0.000234
C44	C	0.747884	0.599622	0.499766
C45	C	0.277654	0.153047	0.042200
C46	C	0.777654	0.653047	0.542200
C47	C	0.350101	0.154205	0.042216
C48	C	0.850101	0.654205	0.542216
C49	C	0.392779	0.101932	-0.000206
C50	C	0.892779	0.601932	0.499794
C51	C	0.124712	0.166769	-0.000256
C52	C	0.624712	0.666769	0.499744
C53	C	0.052262	0.165610	-0.000260
C54	C	0.552262	0.665610	0.499740
C55	C	0.069059	0.027649	-0.000257
C56	C	0.569059	0.527649	0.499743
C57	C	0.141507	0.028809	-0.000246
C58	C	0.641507	0.528809	0.499754
C59	C	0.169329	0.098371	-0.000249
C60	C	0.669329	0.598371	0.499751
C61	C	0.887120	-0.170336	-0.000219
C62	C	1.387120	0.329664	0.499781
C63	C	0.885961	-0.249278	-0.000225
C64	C	1.385961	0.250722	0.499775
C65	C	0.822091	-0.279509	-0.000211
C66	C	1.322091	0.220491	0.499789
C67	C	0.759375	-0.230794	-0.000199
C68	C	1.259375	0.269206	0.499801
C69	C	0.760535	-0.151854	-0.000198
C70	C	1.260535	0.348146	0.499802
C71	C	0.754699	-0.549150	-0.000204
C72	C	1.254699	-0.049150	0.499796
C73	C	0.753545	-0.628097	-0.000203
C74	C	1.253545	-0.128097	0.499797
C75	C	0.880126	-0.646575	-0.000230
C76	C	1.380126	-0.146575	0.499770
C77	C	0.881285	-0.567635	-0.000230
C78	C	1.381285	-0.067635	0.499770
C79	C	0.818570	-0.518926	-0.000221
C80	C	1.318570	-0.018926	0.499779
C81	C	0.819827	-0.433329	-0.000216
C82	C	1.319827	0.066671	0.499784
C83	C	0.820834	-0.365105	-0.000211
C84	C	1.320834	0.134895	0.499789
C85	C	0.947332	0.094824	-0.000243
C86	C	1.447332	0.594824	0.499757
C87	C	1.024437	0.096054	-0.000267
C88	C	1.524437	0.596054	0.499733
C89	C	0.815028	0.239176	-0.000217
C90	C	1.315028	0.739176	0.499783
C91	C	0.816257	0.323193	-0.000222
C92	C	1.316257	0.823193	0.499778
N93	N	0.820310	0.100773	0.188458
N94	N	1.320310	0.600773	0.688458
N95	N	0.820361	0.100786	-0.188878
N96	N	1.320361	0.600786	0.311122
C97	C	0.867632	0.049183	0.226550
C98	C	1.367632	0.549183	0.726550
C99	C	0.867637	0.049180	0.302777
C100	C	1.367637	0.549180	0.802777
C101	C	0.820325	0.100780	0.340911
C102	C	1.320325	0.600780	0.840911
C103	C	0.772993	0.152373	0.302810
C104	C	1.272993	0.652373	0.802810
C105	C	0.772986	0.152370	0.226583
C106	C	1.272986	0.652370	0.726583
C107	C	0.811108	0.169742	0.461669
C108	C	1.311108	0.669742	0.961669
C109	C	0.811121	0.169746	0.537894
C110	C	1.311121	0.669746	1.037894
C111	C	0.820345	0.100789	0.576018
C112	C	1.320345	0.600789	1.076018
C113	C	0.829571	0.031825	0.537908
C114	C	1.329571	0.531825	1.037908
C115	C	0.829563	0.031822	0.461681
C116	C	1.329563	0.531822	0.961681
C117	C	0.820328	0.100788	0.423565
C118	C	1.320328	0.600788	0.923565
C119	C	0.867675	0.049191	0.696765
C120	C	1.367675	0.549191	1.196765
C121	C	0.867674	0.049187	0.772994
C122	C	1.367674	0.549187	1.272994
C123	C	0.773034	0.152387	0.773025
C124	C	1.273034	0.652387	1.273025
C125	C	0.773031	0.152385	0.696797
C126	C	1.273031	0.652385	1.196797
C127	C	0.820355	0.100788	0.658672
C128	C	1.320355	0.600788	1.158672
H129	H	0.594260	0.230549	-0.000178
H130	H	1.094260	0.730549	0.499822
H131	H	0.701531	-0.652707	-0.000190
H132	H	1.201531	-0.152707	0.499810
H133	H	0.734470	0.194386	0.333862
H134	H	1.234470	0.694386	0.833862
H135	H	0.462831	0.228448	-0.000192
H136	H	0.962831	0.728448	0.499808
C137	C	0.382846	0.212964	0.088901
C138	C	0.882846	0.712964	0.588901
N139	N	0.407509	0.257219	0.124068
N140	N	0.907509	0.757219	0.624068
H141	H	0.803585	0.225898	0.430635
H142	H	1.303585	0.725898	0.930635
C143	C	0.954948	-0.302855	-0.000229
C144	C	1.454948	0.197145	0.499771
N145	N	1.006913	-0.343210	-0.000228
N146	N	1.506913	0.156790	0.499772
C147	C	0.919683	-0.007582	0.184616
C148	C	1.419683	0.492418	0.684616
N149	N	0.958887	-0.050341	0.153030
N150	N	1.458887	0.449659	0.653030
C151	C	0.951547	-0.534386	-0.000244
C152	C	1.451547	-0.034386	0.499756
N153	N	1.004470	-0.509344	-0.000259
N154	N	1.504470	-0.009344	0.499741
C155	C	0.720955	0.209159	0.184681
C156	C	1.220955	0.709159	0.684681
N157	N	0.681776	0.251945	0.153120
N158	N	1.181776	0.751945	0.653120
H159	H	0.906208	0.007172	0.804009
H160	H	1.406208	0.507172	1.304009
H161	H	0.931192	-0.686243	-0.000241
H162	H	1.431192	-0.186243	0.499759
C163	C	0.685710	-0.495581	-0.000199
C164	C	1.185710	0.004419	0.499801
N165	N	0.633744	-0.455229	-0.000197
N166	N	1.133744	0.044771	0.499803
C167	C	0.230707	0.210532	0.088874
C168	C	0.730707	0.710532	0.588874
N169	N	0.195344	0.253829	0.124027
N170	N	0.695344	0.753829	0.624027
H171	H	0.906174	0.007168	0.333797
H172	H	1.406174	0.507168	0.833797
C173	C	0.957383	-0.137090	-0.000233
C174	C	1.457383	0.362910	0.499767
N175	N	1.010307	-0.112052	-0.000248
N176	N	1.510307	0.387948	0.499752
C177	C	0.689118	-0.264051	-0.000178
C178	C	1.189118	0.235949	0.499822
N179	N	0.636198	-0.289099	-0.000157
N180	N	1.136198	0.210901	0.499843
H181	H	0.266335	0.003866	-0.077214
H182	H	0.766335	0.503866	0.422786
H183	H	0.147365	0.223410	-0.000249
H184	H	0.647365	0.723410	0.499751
C185	C	0.721022	0.209193	0.654895
C186	C	1.221022	0.709193	1.154895
N187	N	0.681862	0.252001	0.623334
N188	N	1.181862	0.752001	1.123334
H189	H	0.624733	-0.019749	-0.000145
H190	H	1.124733	0.480251	0.499855
H191	H	0.015936	0.221308	-0.000268
H192	H	0.515936	0.721308	0.499732
H193	H	0.709469	-0.112195	-0.000187
H194	H	1.209469	0.387805	0.499813
C195	C	0.190586	-0.046432	-0.000238
C196	C	0.690586	0.453568	0.499762
N197	N	0.227553	-0.103108	-0.000231
N198	N	0.727553	0.396892	0.499769
C199	C	0.839702	-0.044036	0.419763
C200	C	1.339702	0.455964	0.919763
N201	N	0.847335	-0.101174	0.388190
N202	N	1.347335	0.398826	0.888190
H203	H	0.837081	-0.024326	0.568947
H204	H	1.337081	0.475674	1.068947
C205	C	0.919725	-0.007573	0.654824
C206	C	1.419725	0.492427	1.154824
N207	N	0.958929	-0.050330	0.623236
N208	N	1.458929	0.449670	1.123236
H209	H	0.397762	0.005964	-0.077190
H210	H	0.897762	0.505964	0.422810
C211	C	0.485345	-0.041720	-0.000181
C212	C	0.985345	0.458280	0.499819
N213	N	0.462287	-0.099350	-0.000187
N214	N	0.962287	0.400650	0.499813
C215	C	0.720991	0.209148	0.814967
C216	C	1.220991	0.709148	1.314967
N217	N	0.681790	0.251902	0.846562
N218	N	1.181790	0.751902	1.346562
H219	H	0.046401	-0.028984	-0.000308
H220	H	0.546401	0.471016	0.499692
C221	C	0.800965	0.245606	0.579808
C222	C	1.300965	0.745606	1.079808
N223	N	0.793312	0.302747	0.611376
N224	N	1.293312	0.802747	1.111376
