data_functionalizedCrystal
_audit_creation_method	'MofGen! by Chris Wilmer'
_symmetry_space_group_name_H-M	'P1'
_symmetry_Int_Tables_number	1
_symmetry_cell_setting	triclinic
loop_
_symmetry_equiv_pos_as_xyz
  x,y,z
_cell_length_a	12.784905
_cell_length_b	13.262508
_cell_length_c	11.892095
_cell_angle_alpha	109.778227
_cell_angle_beta	86.511728
_cell_angle_gamma	78.993526
loop_
_atom_site_label
_atom_site_type_symbol
_atom_site_fract_x
_atom_site_fract_y
_atom_site_fract_z
O1	O	1.417125	-0.000773	-0.094248
O2	O	1.106850	0.045261	-0.080094
O3	O	1.273249	-0.135023	-0.135519
O4	O	1.250726	0.179510	-0.038823
O5	O	1.259376	-0.120012	0.057103
O6	O	1.092976	0.060271	0.112528
O7	O	1.403251	0.014237	0.098375
Zn8	Zn	1.245911	0.039637	0.136034
Zn9	Zn	1.264190	0.019860	-0.117754
O10	O	1.236852	0.194521	0.153800
C11	C	1.060260	0.055760	0.017137
C12	C	0.942108	0.064668	0.019876
C13	C	0.748959	-0.116824	-0.035940
C14	C	0.637945	-0.108460	-0.033368
C15	C	0.609064	0.089760	0.027583
C16	C	0.720078	0.081396	0.025011
C17	C	0.790022	-0.021900	-0.006750
C18	C	0.901038	-0.030263	-0.009313
C19	C	0.872155	0.167955	0.051630
C20	C	0.761141	0.176320	0.054201
C21	C	1.266326	-0.167499	-0.051502
C22	C	1.266352	-0.286631	-0.088134
C23	C	1.236171	-0.589727	0.228615
C24	C	1.236137	-0.477794	0.263034
C25	C	1.243691	-0.429998	0.175245
C26	C	1.251278	-0.494145	0.053031
C27	C	1.251303	-0.606086	0.018609
C28	C	1.258824	-0.446358	-0.034761
C29	C	1.266411	-0.510505	-0.156975
C30	C	1.266436	-0.622435	-0.191390
C31	C	1.258882	-0.670231	-0.103602
C32	C	1.258799	-0.334417	-0.000339
C33	C	1.273931	-0.350776	-0.210344
C34	C	1.273965	-0.462708	-0.244763
C35	C	1.449841	0.003738	0.001140
C36	C	1.567994	-0.005171	-0.001606
C37	C	1.243776	0.226997	0.069780
C38	C	1.243750	0.346128	0.106404
N39	N	1.233444	0.053133	0.309237
N40	N	1.276666	0.006355	-0.290960
C41	C	1.363420	-0.087617	0.502614
C42	C	1.354713	-0.078176	0.623858
C43	C	1.207319	0.081450	0.672971
C44	C	1.216026	0.072009	0.551726
C45	C	1.294080	-0.012526	0.466552
C46	C	1.302791	-0.021961	0.345307
C47	C	1.155392	0.137660	0.394420
C48	C	1.146685	0.147100	0.515664
H49	H	0.604517	-0.185757	-0.057140
H50	H	1.143762	0.150270	0.742333
H51	H	0.957985	-0.114372	-0.035172
C52	C	0.532116	0.203372	0.062515
H53	H	0.460120	0.194754	0.059870
H54	H	0.549212	0.237498	0.007450
H55	H	0.539532	0.247952	0.141797
C56	C	1.282299	-0.533274	-0.379190
H57	H	1.281224	-0.606780	-0.387109
H58	H	1.347594	-0.532279	-0.420996
H59	H	1.223201	-0.504305	-0.412391
H60	H	1.411176	-0.139324	0.653214
H61	H	1.272605	-0.674659	-0.290904
H62	H	1.366349	-0.090791	0.275958
C63	C	1.282250	-0.298214	-0.306918
H64	H	1.281161	-0.222366	-0.268917
H65	H	1.223173	-0.305929	-0.351409
H66	H	1.347564	-0.333909	-0.359995
H67	H	1.229971	-0.425576	0.362539
H68	H	1.426982	-0.156442	0.433265
H69	H	1.098934	0.198806	0.365047
C70	C	1.243667	-0.306879	0.213103
H71	H	1.238078	-0.275523	0.298460
H72	H	1.184270	-0.270584	0.186405
H73	H	1.308661	-0.298573	0.177816
C74	C	0.684204	0.289937	0.089131
H75	H	0.724563	0.345272	0.106140
H76	H	0.635454	0.302553	0.158569
H77	H	0.645142	0.292086	0.024218
H78	H	0.905599	0.245250	0.075405
H79	H	1.252612	-0.282197	0.099169
C80	C	1.060837	0.240085	0.609361
H81	H	1.065586	0.234958	0.686737
H82	H	0.991417	0.233466	0.587948
H83	H	1.072562	0.309205	0.611214
H84	H	1.230013	-0.628652	0.300079
C85	C	0.825903	-0.230437	-0.070863
H86	H	0.897900	-0.221822	-0.068205
H87	H	0.818484	-0.275028	-0.150131
H88	H	0.808803	-0.264547	-0.015775
C89	C	1.258880	-0.793349	-0.141463
H90	H	1.264470	-0.824708	-0.226820
H91	H	1.193892	-0.801640	-0.106160
H92	H	1.318285	-0.829659	-0.114780
