data_functionalizedCrystal
_audit_creation_method	'MofGen! by Chris Wilmer'
_symmetry_space_group_name_H-M	'P1'
_symmetry_Int_Tables_number	1
_symmetry_cell_setting	triclinic
loop_
_symmetry_equiv_pos_as_xyz
  x,y,z
_cell_length_a	13.897449
_cell_length_b	13.897449
_cell_length_c	13.897441
_cell_angle_alpha	90.020649
_cell_angle_beta	90.014519
_cell_angle_gamma	90.007445
loop_
_atom_site_label
_atom_site_type_symbol
_atom_site_fract_x
_atom_site_fract_y
_atom_site_fract_z
Zn1	Zn	1.474783	-0.383869	0.545336
Zn2	Zn	1.724783	-0.133869	0.795336
Zn3	Zn	1.974783	0.116131	1.045336
Zn4	Zn	2.224783	0.366131	1.295336
Zn5	Zn	1.474726	-0.545188	0.384063
Zn6	Zn	1.724726	-0.295188	0.634063
Zn7	Zn	1.974726	-0.045188	0.884063
Zn8	Zn	2.224726	0.204812	1.134063
Zn9	Zn	1.313478	-0.383922	0.384066
Zn10	Zn	1.563478	-0.133922	0.634066
Zn11	Zn	1.813478	0.116078	0.884066
Zn12	Zn	2.063478	0.366078	1.134066
Zn13	Zn	1.313497	-0.545137	0.545327
Zn14	Zn	1.563497	-0.295137	0.795327
Zn15	Zn	1.813497	-0.045137	1.045327
Zn16	Zn	2.063497	0.204863	1.295327
O17	O	1.394121	-0.464529	0.464698
O18	O	1.644121	-0.214529	0.714698
O19	O	1.894121	0.035471	0.964698
O20	O	2.144121	0.285471	1.214698
O21	O	1.609757	-0.405267	0.523946
O22	O	1.859757	-0.155267	0.773946
O23	O	2.109757	0.094733	1.023946
O24	O	2.359757	0.344733	1.273946
O25	O	1.453304	-0.523839	0.249082
O26	O	1.703304	-0.273839	0.499082
O27	O	1.953304	-0.023839	0.749082
O28	O	2.203304	0.226161	0.999082
O29	O	1.334892	-0.248934	0.405464
O30	O	1.584892	0.001066	0.655464
O31	O	1.834892	0.251066	0.905464
O32	O	2.084892	0.501066	1.155464
O33	O	1.609715	-0.523788	0.405459
O34	O	1.859715	-0.273788	0.655459
O35	O	2.109715	-0.023788	0.905459
O36	O	2.359715	0.226212	1.155459
O37	O	1.453402	-0.248895	0.523949
O38	O	1.703402	0.001105	0.773949
O39	O	1.953402	0.251105	1.023949
O40	O	2.203402	0.501105	1.273949
O41	O	1.334837	-0.405358	0.249084
O42	O	1.584837	-0.155358	0.499084
O43	O	1.834837	0.094642	0.749084
O44	O	2.084837	0.344642	0.999084
O45	O	1.178499	-0.405309	0.405455
O46	O	1.428499	-0.155309	0.655455
O47	O	1.678499	0.094691	0.905455
O48	O	1.928499	0.344691	1.155455
O49	O	1.334923	-0.523701	0.680310
O50	O	1.584923	-0.273701	0.930310
O51	O	1.834923	-0.023701	1.180310
O52	O	2.084923	0.226299	1.430310
O53	O	1.178513	-0.523753	0.523933
O54	O	1.428513	-0.273753	0.773933
O55	O	1.678513	-0.023753	1.023933
O56	O	1.928513	0.226247	1.273933
O57	O	1.453420	-0.405218	0.680317
O58	O	1.703420	-0.155218	0.930317
O59	O	1.953420	0.094782	1.180317
O60	O	2.203420	0.344782	1.430317
O61	O	1.453322	-0.680163	0.405450
O62	O	1.703322	-0.430163	0.655450
O63	O	1.953322	-0.180163	0.905450
O64	O	2.203322	0.069837	1.155450
O65	O	1.334867	-0.680126	0.523930
O66	O	1.584867	-0.430126	0.773930
O67	O	1.834867	-0.180126	1.023930
O68	O	2.084867	0.069874	1.273930
C69	C	1.143507	-0.464532	0.464694
C70	C	1.393507	-0.214532	0.714694
C71	C	1.643507	0.035468	0.964694
C72	C	1.893507	0.285468	1.214694
C73	C	1.036293	-0.464556	0.464715
C74	C	1.286293	-0.214556	0.714715
C75	C	1.536293	0.035444	0.964715
C76	C	1.786293	0.285444	1.214715
C77	C	1.394117	-0.715144	0.464710
C78	C	1.644117	-0.465144	0.714710
C79	C	1.894117	-0.215144	0.964710
C80	C	2.144117	0.034856	1.214710
C81	C	1.394203	-0.822357	0.464747
C82	C	1.644203	-0.572357	0.714747
C83	C	1.894203	-0.322357	0.964747
C84	C	2.144203	-0.072357	1.214747
C85	C	1.645714	-0.464527	0.464703
C86	C	1.895714	-0.214527	0.714703
C87	C	2.145714	0.035473	0.964703
C88	C	2.395714	0.285473	1.214703
C89	C	1.752928	-0.464526	0.464705
C90	C	2.002928	-0.214526	0.714705
C91	C	2.252928	0.035474	0.964705
C92	C	2.502928	0.285474	1.214705
C93	C	1.394180	-0.464448	0.716291
C94	C	1.644180	-0.214448	0.966291
C95	C	1.894180	0.035552	1.216291
C96	C	2.144180	0.285552	1.466291
C97	C	1.394205	-0.464414	0.823505
C98	C	1.644205	-0.214414	1.073505
C99	C	1.894205	0.035586	1.323505
C100	C	2.144205	0.285586	1.573505
C101	C	1.949223	-0.464554	0.464709
C102	C	2.199223	-0.214554	0.714709
C103	C	2.449223	0.035446	0.964709
C104	C	2.699223	0.285446	1.214709
C105	C	1.839990	-0.464542	0.464704
C106	C	2.089990	-0.214542	0.714704
C107	C	2.339990	0.035458	0.964704
C108	C	2.589990	0.285458	1.214704
C109	C	1.394152	-0.212936	0.464708
C110	C	1.644152	0.037064	0.714708
C111	C	1.894152	0.287064	0.964708
C112	C	2.144152	0.537064	1.214708
C113	C	1.394165	-0.105722	0.464712
C114	C	1.644165	0.144278	0.714712
C115	C	1.894165	0.394278	0.964712
C116	C	2.144165	0.644278	1.214712
C117	C	1.394194	0.090573	0.464743
C118	C	1.644194	0.340573	0.714743
C119	C	1.894194	0.590573	0.964743
C120	C	2.144194	0.840573	1.214743
C121	C	1.394181	-0.018660	0.464729
C122	C	1.644181	0.231340	0.714729
C123	C	1.894181	0.481340	0.964729
C124	C	2.144181	0.731340	1.214729
C125	C	1.394118	-0.464540	0.214084
C126	C	1.644118	-0.214540	0.464084
C127	C	1.894118	0.035460	0.714084
C128	C	2.144118	0.285460	0.964084
C129	C	1.394279	-0.464303	0.106870
C130	C	1.644279	-0.214303	0.356870
C131	C	1.894279	0.035697	0.606870
C132	C	2.144279	0.285697	0.856870
C133	C	1.394225	-0.464386	0.910575
C134	C	1.644225	-0.214386	1.160575
C135	C	1.894225	0.035614	1.410575
C136	C	2.144225	0.285614	1.660575
C137	C	1.394253	-0.464343	1.019808
C138	C	1.644253	-0.214343	1.269808
C139	C	1.894253	0.035657	1.519808
C140	C	2.144253	0.285657	1.769808
