data_functionalizedCrystal
_audit_creation_method	'MofGen! by Chris Wilmer'
_symmetry_space_group_name_H-M	'P1'
_symmetry_Int_Tables_number	1
_symmetry_cell_setting	triclinic
loop_
_symmetry_equiv_pos_as_xyz
  x,y,z
_cell_length_a	10.489741
_cell_length_b	10.489741
_cell_length_c	8.965430
_cell_angle_alpha	89.999293
_cell_angle_beta	89.998843
_cell_angle_gamma	95.460826
loop_
_atom_site_label
_atom_site_type_symbol
_atom_site_fract_x
_atom_site_fract_y
_atom_site_fract_z
O1	O	1.694053	-0.179958	-0.123946
O2	O	1.322858	-0.196851	-0.123969
O3	O	1.516902	-0.002807	-0.123948
O4	O	1.500009	-0.374003	-0.123967
O5	O	1.516886	-0.002820	0.124130
O6	O	1.322841	-0.196864	0.124110
O7	O	1.694037	-0.179971	0.124133
Cu8	Cu	1.508438	-0.188419	0.146773
Cu9	Cu	1.508457	-0.188404	-0.146609
O10	O	1.499993	-0.374016	0.124112
C11	C	1.275318	-0.195582	0.000067
C12	C	1.133688	-0.191765	0.000059
C13	C	1.515618	0.044718	0.000090
C14	C	1.511801	0.186348	0.000087
C15	C	1.065548	-0.068300	0.000079
C16	C	0.973430	-0.126617	-0.122237
C17	C	0.973447	-0.126659	0.122349
C18	C	1.043435	-0.250133	-0.122358
C19	C	1.043462	-0.250158	0.122338
C20	C	0.951371	-0.308564	-0.000007
C21	C	1.741577	-0.181241	0.000093
C22	C	1.883206	-0.185058	0.000092
C23	C	1.501277	-0.421541	0.000070
C24	C	1.505094	-0.563170	0.000063
N25	N	1.508433	-0.188429	0.353122
C26	C	1.388336	0.254488	0.000069
C27	C	1.446652	0.346604	0.122388
C28	C	1.446697	0.346591	-0.122198
C29	C	1.570167	0.276599	0.122508
C30	C	1.570195	0.276576	-0.122189
C31	C	1.628600	0.368665	0.000161
N32	N	1.508471	-0.188384	-0.352958
C33	C	1.418666	-0.278138	0.450418
C34	C	1.534163	-0.303949	0.549838
C35	C	1.392986	-0.162629	0.549830
C36	C	1.623988	-0.214298	0.450352
C37	C	1.482735	-0.072927	0.450336
C38	C	1.598314	-0.098690	0.549711
H39	H	0.942422	-0.074371	-0.225643
H40	H	1.460937	0.024699	0.406596
H41	H	1.622355	0.245761	0.226035
O42	O	0.936651	-0.064154	0.245675
C43	C	0.953403	0.133196	0.384957
C44	C	0.995197	0.062541	0.245261
H45	H	1.000698	0.235648	0.384653
H46	H	0.983613	0.081645	0.489248
H47	H	0.844870	0.134617	0.384337
H48	H	1.103725	0.061099	0.245736
H49	H	0.964893	0.114115	0.141033
H50	H	1.295338	-0.140828	0.593530
O51	O	1.080434	-0.312312	-0.245825
C52	C	1.256255	-0.385740	-0.384307
C53	C	1.214529	-0.315276	-0.244439
H54	H	1.364670	-0.388183	-0.383217
H55	H	1.226913	-0.333457	-0.488467
H56	H	1.208044	-0.487837	-0.384732
H57	H	1.262719	-0.213177	-0.243869
H58	H	1.243849	-0.367658	-0.140343
H59	H	1.286824	0.204837	0.000185
O60	O	1.080544	-0.312623	0.245545
C61	C	1.183384	-0.491423	0.341493
C62	C	1.141426	-0.420838	0.201823
H63	H	1.232639	-0.578914	0.306194
H64	H	1.095799	-0.523212	0.412279
H65	H	1.252858	-0.424331	0.409416
H66	H	1.071980	-0.487856	0.133784
H67	H	1.229071	-0.389029	0.131148
O68	O	1.384382	0.383344	-0.245683
C69	C	1.272506	0.316377	-0.471330
C70	C	1.343084	0.274590	-0.331575
H71	H	1.239073	0.228471	-0.540797
H72	H	1.340058	0.384347	-0.540576
H73	H	1.186051	0.367256	-0.436016
H74	H	1.429536	0.223658	-0.366756
H75	H	1.275446	0.206681	-0.262363
H76	H	1.342824	-0.354072	0.406821
O77	O	1.740412	-0.240733	0.398425
C78	C	1.857983	-0.382656	0.252152
C79	C	1.726071	-0.352836	0.310864
H80	H	1.846430	-0.473276	0.181321
H81	H	1.924083	-0.397542	0.350276
H82	H	1.901087	-0.299157	0.181306
H83	H	1.682854	-0.436293	0.381687
H84	H	1.660061	-0.337900	0.212672
O85	O	1.689086	-0.008139	0.601158
C86	C	1.855859	0.157056	0.538023
C87	C	1.753126	0.054542	0.479554
H88	H	1.907645	0.207780	0.439736
H89	H	1.927721	0.109526	0.609559
H90	H	1.808196	0.229819	0.608076
H91	H	1.800677	-0.018252	0.409438
H92	H	1.681274	0.102161	0.408099
H93	H	1.622398	0.245537	-0.225600
O94	O	1.124743	0.052817	-0.000325
C95	C	1.156348	0.254707	-0.129699
C96	C	1.089246	0.117576	-0.129432
H97	H	1.127652	0.307113	-0.234055
H98	H	1.264575	0.250728	-0.128738
H99	H	1.126422	0.307832	-0.026426
H100	H	1.119067	0.064373	-0.232688
H101	H	0.981031	0.121648	-0.130316
H102	H	0.901947	-0.410168	-0.000079
H103	H	1.730204	0.418089	0.000235
O104	O	1.560340	-0.420355	0.602072
C105	C	1.702471	-0.538169	0.747744
C106	C	1.673008	-0.406266	0.688660
H107	H	1.793547	-0.526820	0.817788
H108	H	1.716377	-0.604772	0.649811
H109	H	1.619231	-0.580562	0.819461
H110	H	1.756207	-0.363760	0.616966
H111	H	1.659051	-0.339751	0.786661
H112	H	1.394404	0.377610	0.225794
