data_functionalizedCrystal
_audit_creation_method	'MofGen! by Chris Wilmer'
_symmetry_space_group_name_H-M	'P1'
_symmetry_Int_Tables_number	1
_symmetry_cell_setting	triclinic
loop_
_symmetry_equiv_pos_as_xyz
  x,y,z
_cell_length_a	12.784905
_cell_length_b	15.021413
_cell_length_c	12.811487
_cell_angle_alpha	84.563453
_cell_angle_beta	78.601760
_cell_angle_gamma	90.007097
loop_
_atom_site_label
_atom_site_type_symbol
_atom_site_fract_x
_atom_site_fract_y
_atom_site_fract_z
O1	O	1.410350	0.073508	0.006559
O2	O	1.101094	0.069880	0.051490
O3	O	1.263501	0.084083	-0.124477
O4	O	1.247942	0.059305	0.182527
O5	O	1.263475	-0.063984	-0.124452
O6	O	1.101068	-0.078186	0.051516
O7	O	1.410324	-0.074559	0.006584
Zn8	Zn	1.255692	-0.099881	0.029054
Zn9	Zn	1.255726	0.095203	0.029021
O10	O	1.247917	-0.088761	0.182552
C11	C	1.061495	-0.004389	0.054425
C12	C	0.943539	-0.005091	0.063120
N13	N	1.255676	-0.233020	0.029075
C14	C	0.746371	0.009222	-0.114026
C15	C	0.635542	0.008563	-0.105861
C16	C	0.611051	-0.007061	0.087613
C17	C	0.721880	-0.006402	0.079448
C18	C	0.789536	0.001738	-0.021375
C19	C	0.900367	0.002391	-0.029538
C20	C	0.875874	-0.013227	0.163935
C21	C	0.765045	-0.013886	0.172099
C22	C	1.180568	-0.479268	0.110409
C23	C	1.276662	-0.539539	0.122010
C24	C	1.255704	-0.414625	0.029047
C25	C	1.159635	-0.531098	0.017467
C26	C	1.255721	-0.590047	0.029022
C27	C	1.351847	-0.473592	0.040691
C28	C	1.234756	-0.465144	-0.063888
C29	C	1.330920	-0.525384	-0.052334
C30	C	1.255692	-0.313569	0.029064
C31	C	1.255744	-0.691101	0.029003
C32	C	1.449923	-0.000288	0.003649
C33	C	1.567879	0.000420	-0.005046
C34	C	1.262616	0.013201	-0.163489
C35	C	1.260004	0.022591	-0.279769
N36	N	1.255750	0.228343	0.028990
C37	C	1.255088	-0.121202	-0.498260
C38	C	1.252634	-0.112383	-0.607515
C39	C	1.252650	0.049047	-0.607537
C40	C	1.255104	0.040228	-0.498282
C41	C	1.256321	-0.044899	-0.443647
C42	C	1.258768	-0.053717	-0.334388
C43	C	1.258792	0.107712	-0.334415
C44	C	1.256338	0.116530	-0.443669
C45	C	1.248802	-0.017877	0.221564
C46	C	1.251413	-0.027262	0.337843
H47	H	0.801458	0.015845	-0.196120
H48	H	1.251630	-0.174516	-0.651976
C49	C	1.416850	-0.552808	-0.145315
H50	H	1.384011	-0.583853	-0.191949
H51	H	1.466511	-0.590646	-0.117676
H52	H	1.453030	-0.500836	-0.183696
C53	C	1.254993	0.210162	-0.503772
H54	H	1.253347	0.204487	-0.576661
H55	H	1.317276	0.242991	-0.499522
H56	H	1.193503	0.240768	-0.472217
C57	C	1.260158	0.191648	-0.274341
H58	H	1.261801	0.174207	-0.201448
H59	H	1.197880	0.225156	-0.278601
H60	H	1.321653	0.227357	-0.305904
C61	C	0.588058	0.016796	-0.207774
H62	H	0.512362	0.015245	-0.188475
H63	H	0.611243	-0.031518	-0.248858
H64	H	0.611262	0.071755	-0.248858
C65	C	1.049878	-0.565267	0.004235
H66	H	1.058044	-0.594943	-0.059076
H67	H	1.003745	-0.516135	-0.000631
H68	H	1.020140	-0.605818	0.064254
H69	H	1.433116	-0.448416	0.050570
C70	C	1.210759	-0.421300	-0.170002
H71	H	1.142431	-0.440940	-0.178109
H72	H	1.263440	-0.437796	-0.227883
H73	H	1.211575	-0.358107	-0.169465
C74	C	1.300625	-0.583354	0.228158
H75	H	1.363929	-0.616991	0.214062
H76	H	1.242742	-0.621873	0.263048
H77	H	1.310002	-0.538219	0.272847
H78	H	0.955452	0.009018	-0.111633
C79	C	1.260106	-0.147349	-0.274286
H80	H	1.261734	-0.141676	-0.201393
H81	H	1.321584	-0.177963	-0.305837
H82	H	1.197810	-0.180171	-0.278536
H83	H	0.911030	-0.019325	0.239379
H84	H	0.555947	-0.013677	0.169697
C85	C	1.094825	-0.451616	0.203413
H86	H	1.109896	-0.477276	0.269378
H87	H	1.026712	-0.472207	0.195847
H88	H	1.094990	-0.388297	0.202401
H89	H	0.709945	-0.020510	0.254186
C90	C	1.256418	-0.214834	-0.438156
H91	H	1.255335	-0.259016	-0.486331
H92	H	1.195493	-0.222730	-0.381883
H93	H	1.319266	-0.220528	-0.409190
H94	H	1.251671	0.118353	-0.652043
