data_functionalizedCrystal
_audit_creation_method	'MofGen! by Chris Wilmer'
_symmetry_space_group_name_H-M	'P1'
_symmetry_Int_Tables_number	1
_symmetry_cell_setting	triclinic
loop_
_symmetry_equiv_pos_as_xyz
  x,y,z
_cell_length_a	14.853567
_cell_length_b	17.699083
_cell_length_c	16.776229
_cell_angle_alpha	90.007545
_cell_angle_beta	90.004166
_cell_angle_gamma	83.458973
loop_
_atom_site_label
_atom_site_type_symbol
_atom_site_fract_x
_atom_site_fract_y
_atom_site_fract_z
O1	O	-1.196004	-0.098817	-0.066235
O2	O	-0.696004	0.401183	0.433765
O3	O	-0.933501	-0.110588	-0.066249
O4	O	-0.433501	0.389412	0.433751
O5	O	-1.072169	0.005468	-0.066234
O6	O	-0.572169	0.505468	0.433766
O7	O	-1.057336	-0.214872	-0.066249
O8	O	-0.557336	0.285128	0.433751
O9	O	-1.072151	0.005475	0.066342
O10	O	-0.572151	0.505475	0.566342
O11	O	-0.933483	-0.110581	0.066328
O12	O	-0.433483	0.389419	0.566328
O13	O	-1.195986	-0.098810	0.066342
O14	O	-0.695986	0.401190	0.566342
Zn15	Zn	-1.064731	-0.104694	0.087384
Zn16	Zn	-0.564731	0.395306	0.587384
Zn17	Zn	-1.064756	-0.104704	-0.087291
Zn18	Zn	-0.564756	0.395296	0.412709
O19	O	-1.057318	-0.214865	0.066327
O20	O	-0.557318	0.285135	0.566327
C21	C	-0.899905	-0.110051	0.000038
C22	C	-0.399905	0.389949	0.500038
C23	C	-0.799828	-0.108453	0.000033
C24	C	-0.299828	0.391547	0.500033
C25	C	-1.071628	0.033670	0.000054
C26	C	-0.571628	0.533670	0.500054
C27	C	-1.070034	0.117692	0.000054
C28	C	-0.570034	0.617692	0.500054
C29	C	-1.229582	-0.099347	0.000053
C30	C	-0.729582	0.400653	0.500053
C31	C	-1.329659	-0.100945	0.000053
C32	C	-0.829659	0.399055	0.500053
C33	C	-0.387572	-0.032757	0.000056
C34	C	0.112428	0.467243	0.500056
C35	C	-0.365784	-0.170634	0.000046
C36	C	0.134216	0.329366	0.500046
C37	C	-0.459812	-0.172136	0.000043
C38	C	0.040188	0.327864	0.500043
C39	C	-0.517725	-0.103948	0.000045
C40	C	-0.017725	0.396052	0.500045
C41	C	-0.481610	-0.034258	0.000051
C42	C	0.018390	0.465742	0.500051
C43	C	-0.495934	-0.241826	0.000030
C44	C	0.004066	0.258174	0.500030
C45	C	-0.589968	-0.243332	0.000026
C46	C	-0.089968	0.256668	0.500026
C47	C	-0.647883	-0.175143	0.000034
C48	C	-0.147883	0.324857	0.500034
C49	C	-0.611762	-0.105449	0.000040
C50	C	-0.111762	0.394551	0.500040
C51	C	-0.669675	-0.037261	0.000043
C52	C	-0.169675	0.462739	0.500043
C53	C	-0.633556	0.032433	0.000055
C54	C	-0.133556	0.532433	0.500055
C55	C	-0.539524	0.033931	0.000059
C56	C	-0.039524	0.533931	0.500059
C57	C	-0.741915	-0.176641	0.000030
C58	C	-0.241915	0.323359	0.500030
C59	C	-0.763712	-0.038762	0.000038
C60	C	-0.263712	0.461238	0.500038
C61	C	-1.057859	-0.243067	0.000037
C62	C	-0.557859	0.256933	0.500037
C63	C	-1.059453	-0.327089	0.000032
C64	C	-0.559453	0.172911	0.500032
N65	N	-1.064721	-0.104687	0.206595
N66	N	-0.564721	0.395313	0.706595
C67	C	-1.151429	0.166101	0.000060
C68	C	-0.651429	0.666101	0.500060
C69	C	-1.149925	0.245049	0.000052
C70	C	-0.649925	0.745049	0.500052
C71	C	-1.067026	0.275585	0.000046
C72	C	-0.567026	0.775585	0.500046
C73	C	-0.985625	0.227169	0.000038
C74	C	-0.485625	0.727169	0.500038
C75	C	-0.987129	0.148223	0.000039
C76	C	-0.487129	0.648223	0.500039
C77	C	-0.979555	0.545548	0.000031
C78	C	-0.479555	1.045548	0.500031
C79	C	-0.978057	0.624499	0.000032
C80	C	-0.478057	1.124499	0.500032
C81	C	-1.142352	0.642373	0.000044
C82	C	-0.642352	1.142373	0.500044
C83	C	-1.143856	0.563428	0.000046
C84	C	-0.643856	1.063428	0.500046
C85	C	-1.062455	0.515019	0.000034
C86	C	-0.562455	1.015019	0.500034
C87	C	-1.064087	0.429415	0.000040
C88	C	-0.564087	0.929415	0.500040
C89	C	-1.065394	0.361187	0.000045
C90	C	-0.565394	0.861187	0.500045
N91	N	-1.064773	-0.104704	-0.206502
N92	N	-0.564773	0.395296	0.293498
C93	C	-1.126142	-0.053319	0.248319
C94	C	-0.626142	0.446681	0.748319
C95	C	-1.126147	-0.053318	0.331771
C96	C	-0.626147	0.446682	0.831771
C97	C	-1.064735	-0.104690	0.373498
C98	C	-0.564735	0.395310	0.873498
C99	C	-1.003308	-0.156061	0.331769
C100	C	-0.503308	0.343939	0.831769
C101	C	-1.003299	-0.156057	0.248318
C102	C	-0.503299	0.343943	0.748318
C103	C	-1.003340	-0.156076	0.668316
C104	C	-0.503340	0.343924	1.168316
C105	C	-1.003356	-0.156077	0.751773
C106	C	-0.503356	0.343923	1.251773
C107	C	-1.126188	-0.053337	0.751769
C108	C	-0.626188	0.446663	1.251769
C109	C	-1.126180	-0.053333	0.668318
C110	C	-0.626180	0.446667	1.168318
C111	C	-1.064750	-0.104701	0.626596
C112	C	-0.564750	0.395299	1.126596
C113	C	-1.064744	-0.104700	0.536108
C114	C	-0.564744	0.395300	1.036108
C115	C	-1.064745	-0.104695	0.463985
C116	C	-0.564745	0.395305	0.963985
H117	H	-0.810860	0.016766	0.000043
H118	H	-0.310860	0.516766	0.500043
F119	F	-1.228987	0.693900	0.000054
F120	F	-0.728987	1.193900	0.500054
H121	H	-1.176190	-0.011504	0.634346
H122	H	-0.676190	0.488496	1.134346
F123	F	-0.937988	-0.210756	0.796180
F124	F	-0.437988	0.289244	1.296180
H125	H	-0.920849	0.108808	0.000035
H126	H	-0.420849	0.608808	0.500035
F127	F	-0.695202	0.105001	0.000052
F128	F	-0.195202	0.605001	0.500052
F129	F	-0.892921	0.494037	0.000016
F130	F	-0.392921	0.994037	0.500016
H131	H	-1.176155	-0.011489	0.214350
H132	H	-0.676155	0.488511	0.714350
F133	F	-0.304147	-0.243199	0.000033
F134	F	0.195853	0.256801	0.500033
H135	H	-0.953324	-0.197902	0.634353
H136	H	-0.453324	0.302098	1.134353
H137	H	-1.176206	-0.011508	0.785748
H138	H	-0.676206	0.488492	1.285748
H139	H	-0.358160	0.023987	0.000068
H140	H	0.141840	0.523987	0.500068
F141	F	-1.236557	0.296567	0.000060
F142	F	-0.736557	0.796567	0.500060
H143	H	-0.953300	-0.197886	0.365748
H144	H	-0.453300	0.302114	0.865748
H145	H	-1.176160	-0.011490	0.365742
H146	H	-0.676160	0.488510	0.865742
H147	H	-0.953283	-0.197885	0.214348
H148	H	-0.453283	0.302115	0.714348
H149	H	-0.448775	-0.297341	0.000019
H150	H	0.051225	0.202659	0.500019
F151	F	-0.501077	0.108098	0.000068
F152	F	-0.001077	0.608098	0.500068
H153	H	-0.619367	-0.300081	0.000017
H154	H	-0.119367	0.199919	0.500017
F155	F	-1.239663	0.133611	0.000075
F156	F	-0.739663	0.633611	0.500075
F157	F	-0.780352	-0.250809	0.000012
F158	F	-0.280352	0.249191	0.500012
H159	H	-0.910546	0.649358	0.000028
H160	H	-0.410546	1.149358	0.500028
F161	F	-1.232089	0.530934	0.000052
F162	F	-0.732089	1.030934	0.500052
H163	H	-0.918126	0.252037	0.000027
H164	H	-0.418126	0.752037	0.500027
