data_functionalizedCrystal
_audit_creation_method	'MofGen! by Chris Wilmer'
_symmetry_space_group_name_H-M	'P1'
_symmetry_Int_Tables_number	1
_symmetry_cell_setting	triclinic
loop_
_symmetry_equiv_pos_as_xyz
  x,y,z
_cell_length_a	15.297475
_cell_length_b	12.645330
_cell_length_c	15.296720
_cell_angle_alpha	80.351902
_cell_angle_beta	88.382886
_cell_angle_gamma	80.315708
loop_
_atom_site_label
_atom_site_type_symbol
_atom_site_fract_x
_atom_site_fract_y
_atom_site_fract_z
Zn1	Zn	1.253513	-0.825077	0.726633
Zn2	Zn	1.278796	-0.977730	0.580155
Zn3	Zn	1.132383	-0.765520	0.554871
Zn4	Zn	1.107021	-0.967309	0.701283
O5	O	1.192928	-0.883909	0.640735
O6	O	1.379449	-0.874612	0.728392
O7	O	1.280569	-0.929016	0.454225
O8	O	1.148484	-0.625086	0.577683
O9	O	1.398024	-0.986766	0.620776
O10	O	1.237477	-0.668841	0.703876
O11	O	1.173000	-0.773107	0.435649
O12	O	1.006436	-0.763003	0.553102
O13	O	1.105258	-0.969005	0.827221
O14	O	0.987803	-0.911256	0.660670
O15	O	1.212885	-0.864507	0.845845
O16	O	1.255977	-1.124682	0.596195
O17	O	1.129775	-1.117026	0.685187
C18	C	0.965336	-0.829536	0.601392
C19	C	0.867967	-0.806305	0.584582
C20	C	1.192888	-1.159325	0.640707
C21	C	1.192946	-1.277173	0.640738
C22	C	0.554854	-1.049958	0.760882
C23	C	0.646337	-1.071793	0.776674
C24	C	0.701749	-1.005422	0.728653
C25	C	0.665669	-0.917214	0.664837
C26	C	0.574178	-0.895382	0.649039
C27	C	0.721073	-0.850847	0.616809
C28	C	0.684993	-0.762638	0.552993
C29	C	0.593510	-0.740810	0.537198
C30	C	0.538098	-0.807180	0.585219
C31	C	0.812564	-0.872678	0.632607
C32	C	0.831887	-0.718103	0.520763
C33	C	0.740404	-0.696268	0.504972
C34	C	1.272255	-1.449460	0.584597
C35	C	1.272446	-1.326980	0.584801
C36	C	1.201992	-1.343050	0.737391
C37	C	1.202591	-1.465716	0.737123
C38	C	1.104406	-1.418415	0.601132
C39	C	1.105209	-1.295568	0.599138
C40	C	1.421409	-0.938495	0.680232
C41	C	1.518774	-0.961756	0.697063
C42	C	1.153423	-0.922237	0.869204
C43	C	1.136588	-0.938570	0.966564
C44	C	1.192989	-0.607427	0.640787
C45	C	1.193015	-0.489606	0.640809
C46	C	1.232330	-0.845665	0.413164
C47	C	1.249335	-0.829074	0.315834
C48	C	1.313283	-0.766995	1.279794
C49	C	1.329105	-0.751653	1.188320
C50	C	1.280977	-0.798380	1.132877
C51	C	1.217024	-0.860454	1.168916
C52	C	1.201204	-0.875805	1.260399
C53	C	1.168899	-0.907190	1.113482
C54	C	1.104946	-0.969264	1.149521
C55	C	1.089129	-0.984612	1.240995
C56	C	1.137257	-0.937884	1.296439
C57	C	1.184718	-0.891839	1.021999
C58	C	1.072640	-1.000649	1.002604
C59	C	1.056817	-1.015992	1.094077
H60	H	0.841931	-0.944498	0.684567
H61	H	1.145343	-1.311251	0.781081
Cl62	Cl	0.695035	-0.585381	0.424748
H63	H	1.004746	-1.066532	1.123433
H64	H	1.044281	-1.259998	0.635792
H65	H	1.265462	-1.331685	0.769342
H66	H	1.337871	-1.499100	0.611871
Cl67	Cl	1.117373	-0.957177	1.411441
Cl68	Cl	0.485195	-1.133403	0.821225
Cl69	Cl	1.409500	-0.673621	1.143021
Cl70	Cl	0.816757	-1.032871	0.748509
H71	H	0.463604	-0.789405	0.572367
Cl72	Cl	0.901542	-0.634665	0.460386
Cl73	Cl	1.086942	-1.440730	0.492925
Cl74	Cl	1.374273	-1.310945	0.627284
H75	H	1.236789	-0.841297	0.992665
Cl76	Cl	1.300867	-0.779087	1.017880
Cl77	Cl	0.548155	-0.629926	0.456965
Cl78	Cl	1.094222	-1.226201	0.489202
H79	H	1.268638	-1.281731	0.513635
Cl80	Cl	0.691689	-1.182679	0.856895
H81	H	1.268677	-1.463780	0.513265
H82	H	1.266884	-1.513778	0.768872
H83	H	1.033452	-1.038701	0.957462
Cl84	Cl	1.373786	-0.708272	1.349498
H85	H	1.146531	-1.492952	0.781315
H86	H	1.045563	-1.443723	0.641878
H87	H	1.037061	-1.035167	1.270336
