data_functionalizedCrystal
_audit_creation_method	'MofGen! by Chris Wilmer'
_symmetry_space_group_name_H-M	'P1'
_symmetry_Int_Tables_number	1
_symmetry_cell_setting	triclinic
loop_
_symmetry_equiv_pos_as_xyz
  x,y,z
_cell_length_a	16.109301
_cell_length_b	14.971486
_cell_length_c	14.048226
_cell_angle_alpha	90.006640
_cell_angle_beta	90.003741
_cell_angle_gamma	83.537805
loop_
_atom_site_label
_atom_site_type_symbol
_atom_site_fract_x
_atom_site_fract_y
_atom_site_fract_z
O1	O	-1.103277	-0.114973	-0.079101
O2	O	-0.603277	0.385027	0.420899
O3	O	-0.861233	-0.129281	-0.079116
O4	O	-0.361233	0.370719	0.420884
O5	O	-0.988743	0.008082	-0.079101
O6	O	-0.488743	0.508082	0.420899
O7	O	-0.975768	-0.252337	-0.079116
O8	O	-0.475768	0.247663	0.420884
O9	O	-0.988727	0.008090	0.079220
O10	O	-0.488727	0.508090	0.579220
O11	O	-0.861218	-0.129273	0.079205
O12	O	-0.361218	0.370727	0.579205
O13	O	-1.103262	-0.114965	0.079220
O14	O	-0.603262	0.385035	0.579220
Zn15	Zn	-0.982237	-0.122118	0.104350
Zn16	Zn	-0.482237	0.377882	0.604350
Zn17	Zn	-0.982258	-0.122129	-0.104245
Zn18	Zn	-0.482258	0.377871	0.395755
O19	O	-0.975752	-0.252329	0.079206
O20	O	-0.475752	0.247671	0.579206
C21	C	-0.988155	0.041410	0.000059
C22	C	-0.488155	0.541410	0.500059
C23	C	-0.986416	0.140705	0.000058
C24	C	-0.486416	0.640705	0.500058
C25	C	-0.830250	-0.128698	0.000043
C26	C	-0.330250	0.371302	0.500043
C27	C	-0.737952	-0.126960	0.000037
C28	C	-0.237952	0.373040	0.500037
C29	C	-1.134245	-0.115549	0.000060
C30	C	-0.634245	0.384451	0.500060
C31	C	-1.226543	-0.117286	0.000059
C32	C	-0.726543	0.382714	0.500059
C33	C	-0.515777	-0.204428	0.000044
C34	C	-0.015777	0.295572	0.500044
C35	C	-0.429054	-0.202789	0.000050
C36	C	0.070946	0.297211	0.500050
C37	C	-0.448725	-0.039812	0.000055
C38	C	0.051275	0.460188	0.500055
C39	C	-0.535446	-0.041452	0.000056
C40	C	-0.035446	0.458548	0.500056
C41	C	-0.568969	-0.123763	0.000045
C42	C	-0.068969	0.376237	0.500045
C43	C	-0.395526	-0.120483	0.000051
C44	C	0.104474	0.379517	0.500051
C45	C	-0.301498	-0.118705	0.000058
C46	C	0.198502	0.381295	0.500058
C47	C	-0.663003	-0.125542	0.000040
C48	C	-0.163003	0.374458	0.500040
C49	C	-0.976340	-0.285657	0.000043
C50	C	-0.476340	0.214343	0.500043
C51	C	-0.978079	-0.384951	0.000038
C52	C	-0.478079	0.115049	0.500038
N53	N	-0.982230	-0.122110	0.246710
N54	N	-0.482230	0.377890	0.746710
C55	C	-1.061324	0.198038	0.000063
C56	C	-0.561324	0.698038	0.500063
C57	C	-1.059685	0.291335	0.000054
C58	C	-0.559685	0.791335	0.500054
C59	C	-0.983137	0.327297	0.000046
C60	C	-0.483137	0.827297	0.500046
C61	C	-0.908223	0.269956	0.000037
C62	C	-0.408223	0.769956	0.500037
C63	C	-0.909863	0.176661	0.000040
C64	C	-0.409863	0.676661	0.500040
C65	C	-0.904811	0.464414	0.000034
C66	C	-0.404811	0.964414	0.500034
C67	C	-0.903171	0.557716	0.000033
C68	C	-0.403171	1.057716	0.500033
C69	C	-1.054633	0.579088	0.000047
C70	C	-0.554633	1.079088	0.500047
C71	C	-1.056273	0.485793	0.000050
C72	C	-0.556273	0.985793	0.500050
C73	C	-0.981359	0.428458	0.000044
C74	C	-0.481359	0.928458	0.500044
N75	N	-0.982272	-0.122129	-0.246606
N76	N	-0.482272	0.377871	0.253394
C77	C	-1.038709	-0.061311	0.296535
C78	C	-0.538709	0.438689	0.796535
C79	C	-1.038714	-0.061310	0.396193
C80	C	-0.538714	0.438690	0.896193
C81	C	-0.982244	-0.122114	0.446024
C82	C	-0.482244	0.377886	0.946024
C83	C	-0.925759	-0.182916	0.396192
C84	C	-0.425759	0.317084	0.896192
C85	C	-0.925750	-0.182912	0.296537
C86	C	-0.425750	0.317088	0.796537
C87	C	-0.925783	-0.182923	0.603907
C88	C	-0.425783	0.317077	1.103907
C89	C	-0.925793	-0.182929	0.703569
C90	C	-0.425793	0.317071	1.203569
C91	C	-1.038747	-0.061321	0.703563
C92	C	-0.538747	0.438679	1.203563
C93	C	-1.038738	-0.061317	0.603907
C94	C	-0.538738	0.438683	1.103907
C95	C	-0.982254	-0.122120	0.554082
C96	C	-0.482254	0.377880	1.054082
H97	H	-0.543068	-0.271451	0.000043
H98	H	-0.043068	0.228549	0.500043
Br99	Br	-0.356866	-0.312268	0.000053
Br100	Br	0.143134	0.187732	0.500053
Br101	Br	-0.403224	0.071890	0.000066
Br102	Br	0.096776	0.571890	0.500066
H103	H	-0.578758	0.024239	0.000060
H104	H	-0.078758	0.524239	0.500060
Br105	Br	-1.161351	0.369142	0.000061
Br106	Br	-0.661351	0.869142	0.500061
H107	H	-1.084696	-0.011801	0.255969
H108	H	-0.584696	0.488199	0.755969
Br109	Br	-1.165217	0.149242	0.000088
Br110	Br	-0.665217	0.649242	0.500088
H111	H	-1.118605	0.456516	0.000064
H112	H	-0.618605	0.956516	0.500064
Br113	Br	-0.803140	0.386603	0.000021
Br114	Br	-0.303140	0.886603	0.500021
H115	H	-0.879758	-0.232420	0.255970
H116	H	-0.379758	0.267580	0.755970
Br117	Br	-0.808198	0.098849	0.000025
Br118	Br	-0.308198	0.598849	0.500025
Br119	Br	-0.849121	-0.265440	0.536290
Br120	Br	-0.349121	0.234560	1.036290
H121	H	-1.115632	0.625774	0.000050
H122	H	-0.615632	1.125774	0.500050
H123	H	-0.840839	0.586992	0.000041
H124	H	-0.340839	1.086992	0.500041
H125	H	-0.845896	0.299244	0.000025
H126	H	-0.345896	0.799244	0.500025
H127	H	-0.879808	-0.232441	0.744137
H128	H	-0.379808	0.267559	1.244137
Br129	Br	-1.115383	0.021195	0.536275
Br130	Br	-0.615383	0.521195	1.036275
H131	H	-0.879776	-0.232421	0.436771
H132	H	-0.379776	0.267579	0.936771
H133	H	-1.084703	-0.011802	0.436759
H134	H	-0.584703	0.488198	0.936759
H135	H	-1.084738	-0.011813	0.744136
H136	H	-0.584738	0.488187	1.244136
