data_functionalizedCrystal
_audit_creation_method	'MofGen! by Chris Wilmer'
_symmetry_space_group_name_H-M	'P1'
_symmetry_Int_Tables_number	1
_symmetry_cell_setting	triclinic
loop_
_symmetry_equiv_pos_as_xyz
  x,y,z
_cell_length_a	12.837943
_cell_length_b	14.185569
_cell_length_c	12.837942
_cell_angle_alpha	75.424284
_cell_angle_beta	85.171060
_cell_angle_gamma	75.423762
loop_
_atom_site_label
_atom_site_type_symbol
_atom_site_fract_x
_atom_site_fract_y
_atom_site_fract_z
O1	O	1.380939	0.083400	-0.293524
O2	O	1.077804	0.083406	-0.280083
O3	O	1.222651	0.083397	-0.135235
O4	O	1.236091	0.083409	-0.438372
O5	O	1.265441	-0.083441	-0.092451
O6	O	1.120593	-0.083432	-0.237299
O7	O	1.423728	-0.083437	-0.250740
Cu8	Cu	1.276068	-0.098668	-0.240113
Cu9	Cu	1.225464	0.098636	-0.290710
O10	O	1.278881	-0.083428	-0.395588
C11	C	1.060129	-0.000012	-0.254149
C12	C	0.943713	-0.000010	-0.240606
N13	N	1.311667	-0.237441	-0.204526
C14	C	0.718841	-0.000018	-0.403433
C15	C	0.609459	-0.000017	-0.390712
C16	C	0.615565	-0.000013	-0.202441
C17	C	0.724948	-0.000015	-0.215163
C18	C	0.776582	-0.000015	-0.315662
C19	C	0.885965	-0.000010	-0.328384
C20	C	0.892071	-0.000014	-0.140112
C21	C	0.782688	-0.000012	-0.127391
C22	C	1.085276	-0.605077	-0.430799
C23	C	1.112250	-0.710100	-0.403850
C24	C	1.240546	-0.710069	-0.275644
C25	C	1.213579	-0.605044	-0.302578
C26	C	1.135944	-0.552556	-0.380158
C27	C	1.264248	-0.552523	-0.251936
C28	C	1.237286	-0.447507	-0.278873
C29	C	1.159657	-0.395012	-0.356452
C30	C	1.108983	-0.447540	-0.407094
C31	C	1.341888	-0.605013	-0.174363
C32	C	1.392556	-0.552492	-0.123721
C33	C	1.365590	-0.447474	-0.150652
C34	C	1.287960	-0.394978	-0.228231
C35	C	1.416264	-0.394945	-0.100010
C36	C	1.389302	-0.289929	-0.126946
C37	C	1.260999	-0.289962	-0.255168
C38	C	1.441402	-0.000017	-0.276674
C39	C	1.557816	-0.000013	-0.290220
C40	C	1.239504	-0.000021	-0.074774
C41	C	1.225959	-0.000019	0.041640
N42	N	1.189872	0.237410	-0.326290
C43	C	1.262027	-0.000008	-0.456049
C44	C	1.275570	-0.000004	-0.572466
C45	C	1.388784	-0.000002	0.266510
C46	C	1.376062	0.000000	0.375892
C47	C	1.187793	-0.000006	0.369786
C48	C	1.200515	-0.000008	0.260404
C49	C	1.301014	-0.000007	0.208771
C50	C	1.313737	-0.000017	0.099388
C51	C	1.125466	-0.000016	0.093283
C52	C	1.112745	-0.000014	0.202665
H53	H	0.928004	-0.000012	-0.410215
Br54	Br	1.006346	-0.000042	0.014921
H55	H	0.760882	-0.000017	-0.485264
Br56	Br	1.497921	-0.623731	-0.018443
Br57	Br	0.531100	-0.000027	-0.509833
Br58	Br	1.051403	0.000029	0.439870
Br59	Br	1.521638	-0.466188	0.005258
Br60	Br	1.458075	-0.218648	-0.058223
Br61	Br	0.545477	-0.000030	-0.066056
Br62	Br	1.450129	-0.000026	0.029317
H63	H	1.070984	-0.752858	-0.445097
Br64	Br	0.976356	-0.000003	0.272746
H65	H	0.740636	-0.000023	-0.045565
Br66	Br	1.155619	-0.218723	-0.360441
Br67	Br	0.979896	-0.533838	-0.536073
Br68	Br	1.003603	-0.376301	-0.512368
Br69	Br	1.345911	-0.781309	-0.170365
H70	H	0.939093	-0.000005	-0.068645
Br71	Br	1.525179	-0.000031	0.196438
H72	H	1.137710	-0.309501	-0.378386
H73	H	1.447533	0.000008	0.422899
H74	H	1.363840	-0.690524	-0.152438
