data_functionalizedCrystal
_audit_creation_method	'MofGen! by Chris Wilmer'
_symmetry_space_group_name_H-M	'P1'
_symmetry_Int_Tables_number	1
_symmetry_cell_setting	triclinic
loop_
_symmetry_equiv_pos_as_xyz
  x,y,z
_cell_length_a	17.699083
_cell_length_b	27.732048
_cell_length_c	16.776229
_cell_angle_alpha	89.988391
_cell_angle_beta	89.998886
_cell_angle_gamma	82.962835
loop_
_atom_site_label
_atom_site_type_symbol
_atom_site_fract_x
_atom_site_fract_y
_atom_site_fract_z
O1	O	1.003540	0.061127	-0.066185
O2	O	0.783091	0.069080	-0.066212
O3	O	0.900162	-0.005269	-0.066183
O4	O	0.886469	0.135475	-0.066215
O5	O	0.900147	-0.005273	0.066394
O6	O	0.783076	0.069075	0.066364
O7	O	1.003524	0.061122	0.066391
Zn8	Zn	0.893298	0.065098	0.087427
Zn9	Zn	0.893318	0.065104	-0.087248
O10	O	0.886453	0.135471	0.066362
C11	C	0.754889	0.068792	0.000073
C12	C	0.670878	0.067938	0.000063
C13	C	0.621873	0.111579	0.000053
C14	C	0.542936	0.110772	0.000064
C15	C	0.513007	0.066325	0.000078
C16	C	0.562019	0.022680	0.000090
C17	C	0.640954	0.023487	0.000085
C18	C	0.243685	0.019426	0.000111
C19	C	0.164744	0.018623	0.000113
C20	C	0.145667	0.106712	0.000089
C21	C	0.224602	0.107518	0.000084
C22	C	0.273607	0.063874	0.000100
C23	C	0.359199	0.064749	0.000090
C24	C	0.427418	0.065450	0.000082
C25	C	0.899867	-0.023279	0.000108
C26	C	0.899001	-0.076937	0.000114
C27	C	0.962734	-0.415523	0.000081
C28	C	0.959522	-0.617194	0.000070
O29	O	1.017801	-0.648240	0.000042
N30	N	0.890104	-0.636567	0.000062
C31	C	0.821484	-0.605520	0.000051
O32	O	0.762366	-0.626625	0.000036
C33	C	0.824696	-0.403849	0.000057
C34	C	0.894119	-0.384479	0.000073
C35	C	1.032151	-0.396152	0.000096
C36	C	1.032953	-0.345737	0.000103
C37	C	0.964338	-0.314693	0.000095
C38	C	0.894921	-0.334064	0.000080
C39	C	0.756076	-0.372802	0.000041
C40	C	0.756886	-0.322382	0.000041
C41	C	0.826308	-0.303012	0.000057
C42	C	0.827108	-0.252605	0.000080
N43	N	0.896526	-0.233232	0.000088
C44	C	0.965141	-0.264276	0.000095
C45	C	0.819802	-0.711400	0.000050
C46	C	0.818999	-0.761817	0.000050
C47	C	0.957038	-0.773488	0.000067
C48	C	0.957840	-0.723070	0.000072
C49	C	0.889220	-0.692026	0.000058
C50	C	0.966820	-0.158401	0.000111
C51	C	0.967616	-0.107981	0.000122
C52	C	0.829578	-0.096314	0.000101
C53	C	0.828781	-0.146730	0.000095
C54	C	0.897409	-0.177772	0.000097
O55	O	0.768860	-0.221531	0.000099
O56	O	1.024251	-0.243161	0.000093
C57	C	0.961931	-0.465938	0.000074
C58	C	0.892514	-0.485309	0.000059
C59	C	0.823899	-0.454265	0.000051
C60	C	0.891711	-0.535726	0.000059
C61	C	0.960326	-0.566770	0.000067
C62	C	1.029744	-0.547397	0.000074
C63	C	1.030546	-0.496982	0.000082
C64	C	0.754481	-0.473638	0.000043
C65	C	0.753685	-0.524053	0.000037
C66	C	0.822300	-0.555097	0.000045
C67	C	1.031726	0.061410	0.000105
C68	C	1.115737	0.062264	0.000109
C69	C	0.886748	0.153481	0.000069
C70	C	0.887614	0.207139	0.000058
N71	N	0.893289	0.065094	0.206638
N72	N	0.893332	0.065105	-0.206459
C73	C	0.945144	0.032186	0.248368
C74	C	0.945148	0.032185	0.331821
C75	C	0.893301	0.065095	0.373541
C76	C	0.841441	0.098005	0.331805
C77	C	0.841433	0.098003	0.248354
C78	C	0.841468	0.098015	0.668352
C79	C	0.841481	0.098015	0.751809
C80	C	0.945182	0.032197	0.751819
C81	C	0.945175	0.032195	0.668368
C82	C	0.893313	0.065102	0.626639
C83	C	0.893308	0.065102	0.536151
C84	C	0.893309	0.065099	0.464028
H85	H	0.503039	0.146309	0.000055
H86	H	0.799257	0.124816	0.785776
C87	C	1.104323	-0.581027	0.000120
C88	C	1.165297	-0.553278	0.000149
C89	C	1.234005	-0.584244	0.000196
H90	H	1.106984	-0.600941	-0.046103
H91	H	1.106913	-0.600939	0.046368
H92	H	1.162708	-0.533375	-0.046095
H93	H	1.162661	-0.533366	0.046368
H94	H	1.236595	-0.604155	0.046444
H95	H	1.236659	-0.604156	-0.046027
H96	H	1.275384	-0.565421	0.000223
C97	C	1.108304	-0.324682	0.000272
C98	C	1.112812	-0.296097	0.068489
C99	C	1.182222	-0.276702	0.068672
H100	H	1.111566	-0.305219	-0.045907
H101	H	1.149072	-0.350383	0.000316
H102	H	1.072056	-0.270400	0.068438
H103	H	1.109564	-0.315549	0.114679
H104	H	1.222989	-0.302403	0.068716
H105	H	1.185477	-0.257241	0.022490
H106	H	1.185293	-0.257308	0.114959
C107	C	0.785180	0.133813	0.376994
C108	C	0.796875	0.181303	0.356656
C109	C	0.745054	0.214303	0.398257
H110	H	0.792553	0.129172	0.432684
H111	H	0.734716	0.128630	0.363307
H112	H	0.847327	0.186484	0.370348
H113	H	0.789495	0.185960	0.300973
H114	H	0.694590	0.209120	0.384570
H115	H	0.752432	0.209657	0.453945
H116	H	0.752977	0.246529	0.384458
C117	C	0.296923	-0.027941	0.000281
C118	C	0.342787	-0.030063	0.068496
C119	C	0.391837	-0.073695	0.068683
H120	H	0.328182	-0.029501	-0.045899
H121	H	0.267821	-0.054542	0.000329
H122	H	0.371887	-0.003469	0.068441
H123	H	0.311549	-0.028511	0.114687
H124	H	0.362735	-0.100295	0.068731
H125	H	0.423091	-0.075250	0.022500
H126	H	0.422957	-0.075142	0.114970
C127	C	1.001364	-0.003592	0.797170
C128	C	0.961401	-0.033159	0.845078
C129	C	1.013129	-0.066136	0.886857
H130	H	1.032685	0.013714	0.829781
H131	H	1.032232	-0.023220	0.760397
H132	H	0.930546	-0.013534	0.881847
H133	H	0.930083	-0.050477	0.812487
H134	H	1.043997	-0.085763	0.850084
H135	H	1.044448	-0.048825	0.919463
H136	H	0.986022	-0.086204	0.919361
H137	H	0.698605	-0.448366	0.000035
H138	H	0.140380	-0.017574	0.000126
H139	H	1.087078	-0.481215	0.000094
H140	H	0.537645	-0.013510	0.000113
C141	C	0.785256	0.133757	0.202942
C142	C	0.825217	0.163305	0.154998
C143	C	0.773488	0.196242	0.113146
H144	H	0.754357	0.153405	0.239647
H145	H	0.753964	0.116404	0.170354
H146	H	0.856495	0.180656	0.187583
H147	H	0.856113	0.143670	0.118278
H148	H	0.742196	0.178889	0.080558
H149	H	0.742591	0.215887	0.149857
H150	H	0.800593	0.216292	0.080606
C151	C	0.092496	0.154114	-0.000085
C152	C	0.105925	0.180876	-0.068314
C153	C	0.056954	0.224541	-0.068509
H154	H	0.101471	0.172401	0.046086
H155	H	0.041187	0.147290	-0.000120
H156	H	0.157223	0.187701	-0.068271
H157	H	0.096945	0.162603	-0.114495
H158	H	0.005645	0.217717	-0.068545
H159	H	0.065933	0.242824	-0.022336
H160	H	0.066054	0.242702	-0.114805
H161	H	0.799241	0.124810	0.634383
C162	C	0.678383	-0.545174	0.000057
C163	C	0.692354	-0.595972	0.000069
C164	C	0.623008	-0.615443	0.000089
H165	H	0.650112	-0.534555	-0.046168
H166	H	0.650139	-0.534548	0.046303
H167	H	0.720586	-0.606594	-0.046172
H168	H	0.720614	-0.606605	0.046291
H169	H	0.594764	-0.604817	0.046335
H170	H	0.594742	-0.604821	-0.046137
H171	H	0.632478	-0.649912	0.000104
H172	H	0.987371	0.005389	0.365797
H173	H	0.987367	0.005388	0.214405
H174	H	0.987396	0.005398	0.634402
C175	C	0.257133	0.155764	-0.000104
C176	C	0.301869	0.158806	-0.068329
C177	C	0.331837	0.203246	-0.068536
H178	H	0.287584	0.157960	0.046069
H179	H	0.216658	0.181652	-0.000153
H180	H	0.342339	0.132924	-0.068273
H181	H	0.271435	0.156618	-0.114513
H182	H	0.291362	0.229135	-0.068585
H183	H	0.362285	0.205439	-0.022360
H184	H	0.362188	0.205318	-0.114829
C185	C	0.694038	-0.023947	0.000051
C186	C	0.650935	-0.063046	0.000041
C187	C	0.699809	-0.106751	0.000001
H188	H	0.725247	-0.025535	0.046269
H189	H	0.725215	-0.025488	-0.046202
H190	H	0.619772	-0.061506	0.046289
H191	H	0.619728	-0.061475	-0.046174
H192	H	0.730986	-0.108292	-0.046251
H193	H	0.731016	-0.108333	0.046220
H194	H	0.670571	-0.133285	-0.000012
H195	H	0.646234	0.147773	0.000041
H196	H	1.024151	-0.092213	0.000137
H197	H	0.772252	-0.162502	0.000104
H198	H	1.022703	-0.183670	0.000110
H199	H	1.088028	-0.421424	0.000099
H200	H	1.014370	-0.707302	0.000085
C201	C	0.743602	-0.782817	-0.000123
C202	C	0.702180	-0.767029	-0.068348
C203	C	0.632722	-0.786367	-0.068545
H204	H	0.715278	-0.772173	0.046050
H205	H	0.752911	-0.817292	-0.000166
H206	H	0.692868	-0.732562	-0.068298
H207	H	0.730480	-0.777673	-0.114532
H208	H	0.642031	-0.820842	-0.068587
H209	H	0.604406	-0.775722	-0.022368
H210	H	0.604612	-0.775662	-0.114838
H211	H	1.012907	-0.798773	0.000073
H212	H	0.763920	-0.686128	0.000038
H213	H	0.701006	-0.297108	0.000028
C214	C	0.680623	-0.393730	-0.000021
C215	C	0.620715	-0.355743	-0.000054
C216	C	0.551192	-0.375002	-0.000124
H217	H	0.677314	-0.413154	0.046195
H218	H	0.677404	-0.413134	-0.046275
H219	H	0.623932	-0.336348	0.046196
H220	H	0.623999	-0.336316	-0.046267
H221	H	0.547973	-0.394405	-0.046378
H222	H	0.547891	-0.394426	0.046094
H223	H	0.510536	-0.349231	-0.000153
H224	H	0.773714	-0.071029	0.000098
