data_functionalizedCrystal
_audit_creation_method	'MofGen! by Chris Wilmer'
_symmetry_space_group_name_H-M	'P1'
_symmetry_Int_Tables_number	1
_symmetry_cell_setting	triclinic
loop_
_symmetry_equiv_pos_as_xyz
  x,y,z
_cell_length_a	19.805407
_cell_length_b	18.050589
_cell_length_c	19.805399
_cell_angle_alpha	89.977706
_cell_angle_beta	89.980427
_cell_angle_gamma	90.028221
loop_
_atom_site_label
_atom_site_type_symbol
_atom_site_fract_x
_atom_site_fract_y
_atom_site_fract_z
Zn1	Zn	1.034727	-0.295677	-0.382745
Zn2	Zn	1.034638	-0.419869	-0.269567
Zn3	Zn	0.921542	-0.295697	-0.269569
Zn4	Zn	0.921502	-0.419829	-0.382713
O5	O	0.978102	-0.357768	-0.326148
O6	O	1.129432	-0.312159	-0.367743
O7	O	1.019616	-0.403422	-0.174850
O8	O	0.936610	-0.191770	-0.284596
O9	O	1.129367	-0.403402	-0.284592
O10	O	1.019767	-0.191755	-0.367746
O11	O	0.936524	-0.312194	-0.174852
O12	O	0.826820	-0.312156	-0.284566
O13	O	0.936542	-0.403335	-0.477434
O14	O	0.826791	-0.403355	-0.367693
O15	O	1.019728	-0.312121	-0.477457
O16	O	1.019577	-0.523788	-0.284562
O17	O	0.936456	-0.523759	-0.367690
C18	C	0.802246	-0.357754	-0.326127
C19	C	0.727014	-0.357766	-0.326133
C20	C	0.691673	-0.405325	-0.369347
C21	C	0.620984	-0.405326	-0.369357
C22	C	0.585639	-0.357771	-0.326148
C23	C	0.620985	-0.310207	-0.282933
C24	C	0.691673	-0.310203	-0.282927
C25	C	0.335912	-0.310224	-0.282955
C26	C	0.265220	-0.310233	-0.282962
C27	C	0.265224	-0.405347	-0.369385
C28	C	0.335911	-0.405342	-0.369379
C29	C	0.371251	-0.357776	-0.326166
C30	C	0.447900	-0.357774	-0.326157
C31	C	0.508992	-0.357776	-0.326153
C32	C	0.978021	-0.550720	-0.326137
C33	C	0.978048	-0.633266	-0.326155
C34	C	0.932891	-0.832728	-0.371344
C35	C	0.916392	-0.882167	-0.309581
C36	C	0.978114	-0.784396	-0.326164
C37	C	0.994646	-0.882039	-0.387934
C38	C	0.978177	-0.930381	-0.326178
C39	C	0.961583	-0.832748	-0.264368
C40	C	1.039865	-0.832616	-0.342762
C41	C	1.023390	-0.882033	-0.280957
C42	C	0.978076	-0.700298	-0.326157
C43	C	0.978215	-1.014478	-0.326178
C44	C	1.154645	-0.357783	-0.326171
C45	C	1.229877	-0.357789	-0.326180
C46	C	0.978140	-0.357721	-0.502691
C47	C	0.978156	-0.357701	-0.577923
C48	C	0.978203	-0.164062	-0.326175
C49	C	0.978246	-0.081517	-0.326186
C50	C	1.021472	-0.310204	-0.613280
C51	C	1.021479	-0.310182	-0.683969
C52	C	0.978173	-0.357662	-0.719299
C53	C	0.934852	-0.405162	-0.683937
C54	C	0.934843	-0.405180	-0.613250
C55	C	0.934891	-0.405093	-0.969010
C56	C	0.934905	-0.405074	-1.039702
C57	C	1.021527	-0.310096	-1.039729
C58	C	1.021518	-0.310113	-0.969042
C59	C	0.978195	-0.357609	-0.933686
C60	C	0.978187	-0.357631	-0.857038
C61	C	0.978184	-0.357645	-0.795946
C62	C	0.978103	-0.357761	-0.150292
C63	C	0.978218	-0.357572	-0.075061
H64	H	0.364686	-0.444069	-0.404562
O65	O	0.854176	-0.908260	-0.292815
C66	C	0.784666	-1.015812	-0.273525
C67	C	0.855163	-0.986365	-0.292498
H68	H	0.785437	-1.078962	-0.273277
H69	H	0.770207	-0.994747	-0.221226
H70	H	0.746146	-0.995519	-0.312077
H71	H	0.893730	-1.006645	-0.253992
H72	H	0.869564	-1.007424	-0.344815
O73	O	0.892898	-0.451174	-1.074128
C74	C	0.854504	-0.493210	-1.183016
C75	C	0.902117	-0.440978	-1.144113
H76	H	0.861931	-0.484973	-1.239606
H77	H	0.866355	-0.553114	-1.169160
H78	H	0.799938	-0.480173	-1.169074
H79	H	0.956699	-0.453947	-1.158034
H80	H	0.890208	-0.381088	-1.157972
H81	H	0.899589	-0.443819	-0.712708
H82	H	0.236441	-0.444075	-0.404574
H83	H	1.056740	-0.271542	-0.584520
H84	H	1.056784	-0.271452	-0.940280
H85	H	1.056801	-0.271419	-1.068525
H86	H	0.899563	-0.443850	-0.584463
H87	H	1.092045	-0.810837	-0.356819
O88	O	0.892779	-0.451290	-0.934776
C89	C	0.806806	-0.545438	-0.942215
C90	C	0.854484	-0.493175	-0.981073
H91	H	0.775822	-0.579304	-0.979629
H92	H	0.837805	-0.584338	-0.909130
H93	H	0.771460	-0.511319	-0.909112
H94	H	0.889840	-0.527235	-1.014213
H95	H	0.823443	-0.454273	-1.014116
H96	H	0.720446	-0.444052	-0.404530
O97	O	0.586758	-0.451604	-0.411348
C98	C	0.594221	-0.545935	-0.497080
C99	C	0.633065	-0.493570	-0.449549
H100	H	0.631644	-0.579868	-0.527988
H101	H	0.561120	-0.584769	-0.465971
H102	H	0.561134	-0.511892	-0.532504
H103	H	0.666189	-0.527554	-0.414115
H104	H	0.666124	-0.454735	-0.480700
H105	H	0.236444	-0.271504	-0.247777
O106	O	1.068971	-0.907670	-0.235241
C107	C	1.103079	-0.911469	-0.118515
C108	C	1.051407	-0.882398	-0.170214
H109	H	1.088904	-0.891036	-0.065931
H110	H	1.103085	-0.974623	-0.119107
H111	H	1.155534	-0.890226	-0.132245
H112	H	0.998926	-0.903586	-0.156520
H113	H	1.051459	-0.819244	-0.169612
O114	O	0.370131	-0.263995	-0.240916
C115	C	0.362662	-0.169614	-0.155230
C116	C	0.323821	-0.221947	-0.202794
H117	H	0.325237	-0.135593	-0.124406
H118	H	0.395713	-0.203613	-0.119735
H119	H	0.395798	-0.130856	-0.186378
H120	H	0.290648	-0.260716	-0.171701
H121	H	0.290812	-0.187902	-0.238291
H122	H	1.008603	-0.903691	-0.440167
O123	O	1.063623	-0.264022	-0.718210
C124	C	1.149520	-0.169791	-0.710777
C125	C	1.101837	-0.222044	-0.671916
H126	H	1.180418	-0.135827	-0.673365
H127	H	1.184941	-0.203848	-0.743856
H128	H	1.118462	-0.130975	-0.743888
H129	H	1.132840	-0.260870	-0.638769
H130	H	1.066414	-0.187940	-0.638880
O131	O	0.887111	-0.806928	-0.416785
C132	C	0.770315	-0.802946	-0.450630
C133	C	0.822087	-0.832201	-0.399117
H134	H	0.717734	-0.823380	-0.436372
H135	H	0.770998	-0.739792	-0.450541
H136	H	0.783900	-0.824052	-0.503149
H137	H	0.808538	-0.811150	-0.346574
H138	H	0.821395	-0.895353	-0.399265
H139	H	0.592202	-0.271484	-0.247754
H140	H	0.947565	-0.811186	-0.212121
O141	O	0.725901	-0.263984	-0.240881
C142	C	0.718442	-0.169616	-0.155183
C143	C	0.679596	-0.221935	-0.202754
H144	H	0.681021	-0.135594	-0.124355
H145	H	0.751488	-0.203625	-0.119691
H146	H	0.751584	-0.130858	-0.186324
H147	H	0.646417	-0.260704	-0.171667
H148	H	0.646592	-0.187879	-0.238247
