data_functionalizedCrystal
_audit_creation_method	'MofGen! by Chris Wilmer'
_symmetry_space_group_name_H-M	'P1'
_symmetry_Int_Tables_number	1
_symmetry_cell_setting	triclinic
loop_
_symmetry_equiv_pos_as_xyz
  x,y,z
_cell_length_a	19.121321
_cell_length_b	21.295417
_cell_length_c	19.121324
_cell_angle_alpha	87.528352
_cell_angle_beta	94.756213
_cell_angle_gamma	87.595241
loop_
_atom_site_label
_atom_site_type_symbol
_atom_site_fract_x
_atom_site_fract_y
_atom_site_fract_z
Zn1	Zn	1.058629	-0.277585	-0.351903
Zn2	Zn	1.063552	-0.387539	-0.234234
Zn3	Zn	0.945990	-0.277607	-0.239275
Zn4	Zn	0.940927	-0.378137	-0.356880
O5	O	1.002274	-0.330217	-0.295573
O6	O	1.157740	-0.296096	-0.332101
O7	O	1.052136	-0.376900	-0.136440
O8	O	0.960991	-0.189516	-0.254242
O9	O	1.161357	-0.376879	-0.245650
O10	O	1.043746	-0.189500	-0.336989
O11	O	0.965764	-0.296134	-0.140144
O12	O	0.846860	-0.287017	-0.259069
O13	O	0.952361	-0.360855	-0.454683
O14	O	0.843140	-0.360876	-0.345473
O15	O	1.038836	-0.286980	-0.451026
O16	O	1.047227	-0.474380	-0.250477
O17	O	0.957135	-0.467473	-0.340584
C18	C	0.819471	-0.322929	-0.303358
C19	C	0.741266	-0.319826	-0.306706
C20	C	0.298859	-0.300117	-0.327932
C21	C	0.372341	-0.303045	-0.324783
C22	C	0.410959	-0.346504	-0.278125
C23	C	0.376091	-0.387043	-0.234619
C24	C	0.302611	-0.384118	-0.237772
C25	C	0.632917	-0.357440	-0.266353
C26	C	0.706403	-0.360361	-0.263201
C27	C	0.702648	-0.276363	-0.353367
C28	C	0.629166	-0.273439	-0.356513
C29	C	0.594304	-0.313980	-0.313009
C30	C	0.486069	-0.349497	-0.274903
C31	C	0.519195	-0.310990	-0.316234
C32	C	1.002184	-0.493767	-0.295538
C33	C	1.002208	-0.563735	-0.295544
C34	C	1.049157	-0.600178	-0.248669
C35	C	1.049190	-0.665921	-0.248684
C36	C	1.002261	-0.695219	-0.295566
C37	C	0.955308	-0.658768	-0.342449
C38	C	0.955282	-0.593027	-0.342438
N39	N	0.940482	-0.795822	-0.303551
N40	N	0.940509	-0.858274	-0.303557
C41	C	1.002338	-0.893295	-0.295603
N42	N	1.064140	-0.863506	-0.287628
N43	N	1.064113	-0.801048	-0.287618
C44	C	1.002284	-0.766505	-0.295583
C45	C	1.049326	-1.001024	-0.248741
C46	C	1.049359	-1.066768	-0.248760
C47	C	0.955472	-1.059615	-0.342523
C48	C	0.955444	-0.993872	-0.342507
C49	C	1.002371	-0.964580	-0.295612
C50	C	1.185792	-0.337534	-0.287758
C51	C	1.263996	-0.340652	-0.284427
C52	C	0.994484	-0.322866	-0.479099
C53	C	0.991165	-0.319733	-0.557306
C54	C	1.002384	-0.166029	-0.295623
C55	C	1.002431	-0.096062	-0.295644
C56	C	1.034571	-0.360310	-0.592123
C57	C	1.031452	-0.357359	-0.665607
C58	C	0.984922	-0.313834	-0.704274
C59	C	0.941514	-0.273252	-0.669452
C60	C	0.944638	-0.276201	-0.595969
C61	C	0.973246	-0.302824	-0.926242
C62	C	0.970124	-0.299880	-0.999730
C63	C	1.060063	-0.383986	-0.995880
C64	C	1.063179	-0.386933	-0.922396
C65	C	1.019774	-0.346350	-0.887580
C66	C	0.981731	-0.310817	-0.779387
C67	C	1.022969	-0.349364	-0.812469
C68	C	1.010075	-0.337496	-0.112760
C69	C	1.013531	-0.340457	-0.034547
H70	H	0.597727	-0.238051	-0.394509
O71	O	0.413528	-0.429232	-0.189202
C72	C	0.441065	-0.465288	-0.068485
C73	C	0.398619	-0.417480	-0.119845
H74	H	0.429038	-0.455795	-0.012398
H75	H	0.426060	-0.515009	-0.081300
H76	H	0.499568	-0.460426	-0.073738
H77	H	0.340106	-0.422284	-0.114621
H78	H	0.413683	-0.367778	-0.107015
H79	H	0.274226	-0.417127	-0.202347
O80	O	0.909738	-0.557530	-0.387946
C81	C	0.868057	-0.453080	-0.429448
C82	C	0.919686	-0.493206	-0.377886
H83	H	0.876072	-0.401067	-0.421322
H84	H	0.877964	-0.464138	-0.485688
H85	H	0.811873	-0.464335	-0.419472
H86	H	0.975889	-0.481973	-0.387797
H87	H	0.909718	-0.482142	-0.321663
O88	O	0.924949	-0.257646	-1.037400
C89	C	0.880326	-0.215800	-1.152311
C90	C	0.931500	-0.263667	-1.109738
H91	H	0.885615	-0.220643	-1.210804
H92	H	0.824177	-0.225157	-1.140332
H93	H	0.893335	-0.166125	-1.137307
H94	H	0.918555	-0.313360	-1.124717
H95	H	0.987634	-0.254255	-1.121721
O96	O	0.736483	-0.236900	-0.395556
C97	C	0.757542	-0.129393	-0.429015
C98	C	0.719196	-0.174013	-0.381175
H99	H	0.743568	-0.078540	-0.417415
H100	H	0.816703	-0.138893	-0.418748
H101	H	0.740703	-0.137721	-0.486339
H102	H	0.735977	-0.165711	-0.323834
H103	H	0.660043	-0.164503	-0.391502
O104	O	0.936436	-0.268572	-0.816878
C105	C	0.815816	-0.232373	-0.844512
C106	C	0.867033	-0.280245	-0.801997
H107	H	0.759692	-0.241802	-0.832508
H108	H	0.828757	-0.182674	-0.829542
H109	H	0.821084	-0.237232	-0.903006
H110	H	0.861793	-0.275444	-0.743493
H111	H	0.854078	-0.329925	-0.817026
O112	O	0.743886	-0.402670	-0.217957
C113	C	0.767741	-0.511967	-0.182604
C114	C	0.725257	-0.464126	-0.233893
H115	H	0.752684	-0.561664	-0.195460
H116	H	0.826255	-0.507143	-0.187829
H117	H	0.755701	-0.502504	-0.126513
H118	H	0.737237	-0.473558	-0.290006
H119	H	0.666755	-0.468961	-0.228607
H120	H	1.072463	-0.395751	-0.560645
O121	O	1.094814	-0.571826	-0.203099
C122	C	1.187913	-0.585863	-0.110077
C123	C	1.136253	-0.618053	-0.161655
H124	H	1.221419	-0.623223	-0.076546
H125	H	1.223341	-0.555233	-0.140807
H126	H	1.157182	-0.555294	-0.074658
H127	H	1.166927	-0.648654	-0.197086
H128	H	1.100825	-0.648645	-0.130882
H129	H	0.909294	-0.243157	-0.567622
H130	H	0.937899	-0.269781	-0.897904
O131	O	1.073721	-0.396754	-0.699339
C132	C	1.192433	-0.431157	-0.716730
C133	C	1.144638	-0.386516	-0.678476
H134	H	1.249779	-0.422886	-0.699888
H135	H	1.180713	-0.482014	-0.702778
H136	H	1.182185	-0.421588	-0.775892
H137	H	1.154858	-0.396028	-0.619306
H138	H	1.156368	-0.335674	-0.692486
H139	H	1.087424	-0.695598	-0.210513
O140	O	1.068065	-0.391708	-0.774883
C141	C	1.080985	-0.480370	-0.691455
C142	C	1.029838	-0.432461	-0.734001
H143	H	1.050099	-0.513323	-0.658380
H144	H	1.111463	-0.508918	-0.728926
H145	H	1.119268	-0.454303	-0.655524
H146	H	0.991512	-0.458477	-0.769935
H147	H	0.999410	-0.403914	-0.696490
H148	H	1.095403	-0.417025	-1.024235
O149	O	0.261269	-0.257983	-0.373294
C150	C	0.174342	-0.242549	-0.471896
C151	C	0.216853	-0.290331	-0.420556
H152	H	0.138433	-0.268684	-0.510130
H153	H	0.141268	-0.209514	-0.441180
H154	H	0.211899	-0.214070	-0.502417
H155	H	0.179347	-0.318854	-0.390022
H156	H	0.249936	-0.323323	-0.451311
H157	H	0.400722	-0.270039	-0.360211
O158	O	0.909817	-0.687298	-0.388021
C159	C	0.896274	-0.757278	-0.483455
C160	C	0.947869	-0.725022	-0.431871
H161	H	0.927019	-0.787776	-0.518931
H162	H	0.860904	-0.787971	-0.452730
H163	H	0.862698	-0.719925	-0.516926
H164	H	0.981491	-0.762333	-0.398388
H165	H	0.983191	-0.694316	-0.462638
O166	O	0.481764	-0.268692	-0.361519
C167	C	0.457851	-0.159392	-0.396829
C168	C	0.500306	-0.207229	-0.345512
H169	H	0.472816	-0.109688	-0.383896
H170	H	0.469914	-0.168776	-0.452934
H171	H	0.399348	-0.164301	-0.391619
H172	H	0.558821	-0.202348	-0.350659
H173	H	0.488184	-0.197832	-0.289428
O174	O	1.095095	-1.102170	-0.203351
C175	C	1.190593	-1.180413	-0.190026
C176	C	1.138812	-1.140365	-0.241511
H177	H	1.225942	-1.211313	-0.220858
H178	H	1.224171	-1.148177	-0.156561
H179	H	1.159961	-1.211430	-0.154534
H180	H	1.169388	-1.109343	-0.277048
H181	H	1.105234	-1.172636	-0.274927
H182	H	0.604542	-0.390450	-0.230927
O183	O	0.896391	-0.230886	-0.706975
C184	C	0.861325	-0.121548	-0.730903
C185	C	0.912486	-0.169459	-0.688378
H186	H	0.874310	-0.071875	-0.715873
H187	H	0.866547	-0.126356	-0.789414
H188	H	0.805203	-0.130953	-0.718871
H189	H	0.968629	-0.160085	-0.700351
H190	H	0.907203	-0.164641	-0.629880
O191	O	0.523660	-0.391738	-0.229672
C192	C	0.606957	-0.480417	-0.216475
C193	C	0.564435	-0.432607	-0.267773
H194	H	0.639922	-0.513479	-0.247261
H195	H	0.642971	-0.454334	-0.178285
H196	H	0.569411	-0.508859	-0.185900
H197	H	0.601928	-0.404151	-0.298397
H198	H	0.528412	-0.458727	-0.305918
O199	O	1.094977	-0.972667	-0.203168
C200	C	1.188069	-0.986699	-0.110139
C201	C	1.136420	-1.018892	-0.161725
H202	H	1.221579	-1.024058	-0.076609
H203	H	1.223496	-0.956062	-0.140862
H204	H	1.157330	-0.956137	-0.074720
H205	H	1.167102	-1.049485	-0.197156
H206	H	1.100993	-1.049492	-0.130958
O207	O	0.909982	-1.088137	-0.388098
C208	C	0.896442	-1.158110	-0.483540
C209	C	0.948035	-1.125857	-0.431952
H210	H	0.927188	-1.188603	-0.519019
H211	H	0.861072	-1.188806	-0.452819
H212	H	0.862865	-1.120754	-0.517008
H213	H	0.981658	-1.163169	-0.398472
H214	H	0.983357	-1.095147	-0.462715
H215	H	0.917211	-0.964198	-0.380674
O216	O	1.108448	-0.429226	-0.884943
C217	C	1.197309	-0.512349	-0.888882
C218	C	1.146085	-0.464474	-0.931383
H219	H	1.227742	-0.540869	-0.926411
H220	H	1.235624	-0.486320	-0.852942
H221	H	1.166443	-0.545332	-0.855823
H222	H	1.176894	-0.431479	-0.964483
H223	H	1.107771	-0.490544	-0.967279
