data_functionalizedCrystal
_audit_creation_method	'MofGen! by Chris Wilmer'
_symmetry_space_group_name_H-M	'P1'
_symmetry_Int_Tables_number	1
_symmetry_cell_setting	triclinic
loop_
_symmetry_equiv_pos_as_xyz
  x,y,z
_cell_length_a	17.639617
_cell_length_b	12.594516
_cell_length_c	17.640233
_cell_angle_alpha	101.028314
_cell_angle_beta	65.561595
_cell_angle_gamma	101.202304
loop_
_atom_site_label
_atom_site_type_symbol
_atom_site_fract_x
_atom_site_fract_y
_atom_site_fract_z
Zn1	Zn	1.356080	-0.248754	-0.721437
Zn2	Zn	1.856080	0.251246	-0.221437
Zn3	Zn	1.327805	-0.397436	-0.583569
Zn4	Zn	1.827805	0.102564	-0.083569
Zn5	Zn	1.189985	-0.249447	-0.555667
Zn6	Zn	1.689985	0.250553	-0.055667
Zn7	Zn	1.218154	-0.456679	-0.693482
Zn8	Zn	1.718154	0.043321	-0.193482
O9	O	1.273006	-0.338079	-0.638539
O10	O	1.773006	0.161921	-0.138539
O11	O	1.467729	-0.243393	-0.726525
O12	O	1.967729	0.256607	-0.226525
O13	O	1.285901	-0.353302	-0.464493
O14	O	1.785901	0.146698	0.035507
O15	O	1.212062	-0.100403	-0.577679
O16	O	1.712062	0.399597	-0.077679
O17	O	1.446956	-0.352630	-0.625234
O18	O	1.946956	0.147370	-0.125234
O19	O	1.334091	-0.099894	-0.699470
O20	O	1.834091	0.400106	-0.199470
O21	O	1.184645	-0.244575	-0.443994
O22	O	1.684645	0.255425	0.056006
O23	O	1.078321	-0.302020	-0.550572
O24	O	1.578321	0.197980	-0.050572
O25	O	1.260072	-0.453601	-0.812565
O26	O	1.760072	0.046399	-0.312565
O27	O	1.099017	-0.454273	-0.651824
O28	O	1.599017	0.045727	-0.151824
O29	O	1.361406	-0.300838	-0.833103
O30	O	1.861406	0.199162	-0.333103
O31	O	1.313216	-0.554247	-0.598127
O32	O	1.813216	-0.054247	-0.098127
O33	O	1.232656	-0.597772	-0.678880
O34	O	1.732656	-0.097772	-0.178880
C35	C	1.058748	-0.384652	-0.595138
C36	C	1.558748	0.115348	-0.095138
C37	C	0.967091	-0.404605	-0.576590
C38	C	1.467091	0.095395	-0.076590
C39	C	0.719769	-0.186514	-0.779647
C40	C	1.219769	0.313486	-0.279647
C41	C	0.633640	-0.205286	-0.762202
C42	C	1.133640	0.294714	-0.262202
C43	C	0.611999	-0.318776	-0.656576
C44	C	1.111999	0.181224	-0.156576
C45	C	0.698129	-0.300017	-0.674015
C46	C	1.198129	0.199983	-0.174015
C47	C	0.752007	-0.233884	-0.735551
C48	C	1.252007	0.266116	-0.235551
C49	C	0.730367	-0.347388	-0.629918
C50	C	1.230367	0.152612	-0.129918
C51	C	0.816488	-0.328626	-0.647353
C52	C	1.316488	0.171374	-0.147353
C53	C	0.870371	-0.262493	-0.708884
C54	C	1.370371	0.237507	-0.208884
C55	C	0.838128	-0.215122	-0.752986
C56	C	1.338128	0.284878	-0.252986
C57	C	0.676487	-0.413515	-0.568378
C58	C	1.176487	0.086485	-0.068378
C59	C	0.708725	-0.460885	-0.524282
C60	C	1.208725	0.039115	-0.024282
C61	C	0.794848	-0.442130	-0.541720
C62	C	1.294848	0.057870	-0.041720
C63	C	0.848731	-0.375997	-0.603252
C64	C	1.348731	0.124003	-0.103252
C65	C	0.827091	-0.489501	-0.497619
C66	C	1.327091	0.010499	0.002381
C67	C	0.913213	-0.470738	-0.515054
C68	C	1.413213	0.029262	-0.015054
C69	C	0.934853	-0.357235	-0.620687
C70	C	1.434853	0.142765	-0.120687
C71	C	1.272950	-0.614630	-0.638520
C72	C	1.772950	-0.114630	-0.138520
C73	C	1.273008	-0.732929	-0.638555
C74	C	1.773008	-0.232929	-0.138555
C75	C	1.229178	-0.825888	-0.682436
C76	C	1.729178	-0.325888	-0.182436
C77	C	1.193702	-0.885108	-0.603140
C78	C	1.693702	-0.385108	-0.103140
C79	C	1.308561	-0.884494	-0.717879
C80	C	1.808561	-0.384494	-0.217879
C81	C	1.237484	-0.790592	-0.559210
C82	C	1.737484	-0.290592	-0.059210
C83	C	1.352389	-0.789975	-0.674007
C84	C	1.852389	-0.289975	-0.174007
C85	C	1.316931	-0.849146	-0.594665
C86	C	1.816931	-0.349146	-0.094665
C87	C	1.488101	-0.291326	-0.682110
C88	C	1.988101	0.208674	-0.182110
C89	C	1.579762	-0.271402	-0.700677
C90	C	2.079762	0.228598	-0.200677
C91	C	1.273088	-0.060447	-0.638581
C92	C	1.773088	0.439553	-0.138581
C93	C	1.273123	0.057863	-0.638598
C94	C	1.773123	0.557863	-0.138598
C95	C	1.229196	-0.292498	-0.424338
C96	C	1.729196	0.207502	0.075662
C97	C	1.210593	-0.272701	-0.332731
C98	C	1.710593	0.227299	0.167269
C99	C	1.414885	-0.487642	-0.084999
C100	C	1.914885	0.012358	0.415001
C101	C	1.397400	-0.469010	0.001081
C102	C	1.897400	0.030990	0.501081
C103	C	1.291225	-0.356977	0.022489
C104	C	1.791225	0.143023	0.522489
C105	C	1.308703	-0.375595	-0.063591
C106	C	1.808703	0.124405	0.436409
C107	C	1.370534	-0.440930	-0.117329
C108	C	1.870534	0.059070	0.382671
C109	C	1.264352	-0.328883	-0.095921
C110	C	1.764352	0.171117	0.404079
C111	C	1.281826	-0.347505	-0.181993
C112	C	1.781826	0.152495	0.318007
C113	C	1.343652	-0.412839	-0.235736
C114	C	1.843652	0.087161	0.264264
C115	C	1.388008	-0.459551	-0.203401
C116	C	1.888008	0.040449	0.296599
C117	C	1.202518	-0.263555	-0.042181
C118	C	1.702518	0.236445	0.457819
C119	C	1.158166	-0.216843	-0.074511
C120	C	1.658166	0.283157	0.425489
C121	C	1.175644	-0.235458	-0.160586
C122	C	1.675644	0.264542	0.339414
C123	C	1.237470	-0.300792	-0.214328
C124	C	1.737470	0.199208	0.285672
C125	C	1.131288	-0.188745	-0.192921
C126	C	1.631288	0.311255	0.307079
C127	C	1.148763	-0.207367	-0.278993
C128	C	1.648763	0.292633	0.221007
C129	C	1.254944	-0.319413	-0.300401
C130	C	1.754944	0.180587	0.199599
C131	C	1.316981	-0.383871	0.146425
C132	C	1.816981	0.116129	0.646425
C133	C	1.335581	-0.403693	0.054818
C134	C	1.835581	0.096307	0.554818
H135	H	0.763640	-0.132666	-0.829759
H136	H	1.263640	0.367334	-0.329759
H137	H	1.465240	-0.540834	-0.128757
H138	H	1.965240	-0.040834	0.371243
O139	O	1.224544	-0.286502	0.080448
O140	O	1.724544	0.213498	0.580448
H141	H	1.219848	-0.281392	0.145731
H142	H	1.719848	0.218608	0.645731
O143	O	0.598866	-0.154199	-0.809771
O144	O	1.098866	0.345801	-0.309771
H145	H	0.650803	-0.105070	-0.855493
H146	H	1.150803	0.394930	-0.355493
H147	H	1.112650	-0.169325	-0.305316
H148	H	1.612650	0.330675	0.194684
O149	O	0.992970	-0.285906	-0.687061
O150	O	1.492970	0.214094	-0.187061
H151	H	1.058270	-0.280825	-0.691776
H152	H	1.558270	0.219175	-0.191776
H153	H	1.192015	-0.814895	-0.719461
H154	H	1.692015	-0.314895	-0.219461
H155	H	1.080941	-0.135559	-0.149154
H156	H	1.580941	0.364441	0.350846
H157	H	1.107822	-0.163651	-0.030746
H158	H	1.607822	0.336349	0.469254
H159	H	1.305299	-0.372605	-0.344159
H160	H	1.805299	0.127395	0.155841
O161	O	1.104845	-0.939931	-0.563439
O162	O	1.604845	-0.439931	-0.063439
H163	H	1.075083	-0.900929	-0.497976
H164	H	1.575083	-0.400929	0.002024
O165	O	1.454696	-0.530022	-0.261368
O166	O	1.954696	-0.030022	0.238632
H167	H	1.515998	-0.493579	-0.258095
H168	H	2.015998	0.006421	0.241905
H169	H	1.207383	-0.749865	-0.492112
H170	H	1.707383	-0.249865	0.007888
H171	H	1.433535	-0.507033	0.027397
H172	H	1.933535	-0.007033	0.527397
H173	H	0.664845	-0.514727	-0.474177
H174	H	1.164845	-0.014727	0.025823
O175	O	1.348338	-0.938623	-0.806715
O176	O	1.848338	-0.438623	-0.306715
H177	H	1.311783	-0.929988	-0.842978
H178	H	1.811783	-0.429988	-0.342978
H179	H	0.940496	-0.247214	-0.723076
H180	H	1.440496	0.252786	-0.223076
H181	H	1.354034	-0.859925	-0.557520
H182	H	1.854034	-0.359925	-0.057520
H183	H	1.419458	-0.748577	-0.703996
H184	H	1.919458	-0.248577	-0.203996
H185	H	1.188285	-0.248408	0.027905
H186	H	1.688285	0.251592	0.527905
O187	O	0.896251	-0.143793	-0.819357
O188	O	1.396251	0.356207	-0.319357
H189	H	0.859368	-0.113999	-0.847093
H190	H	1.359368	0.386001	-0.347093
O191	O	0.553888	-0.390103	-0.590206
O192	O	1.053888	0.109897	-0.090206
H193	H	0.488586	-0.395196	-0.585492
H194	H	0.988586	0.104804	-0.085492
H195	H	0.939461	-0.509312	-0.479146
H196	H	1.439461	-0.009312	0.020854
O197	O	0.583595	-0.433747	-0.549563
O198	O	1.083595	0.066253	-0.049563
H199	H	0.564275	-0.522525	-0.561510
H200	H	1.064275	-0.022525	-0.061510
O201	O	0.768977	-0.560819	-0.431244
O202	O	1.268977	-0.060819	0.068756
H203	H	0.703675	-0.565906	-0.426529
H204	H	1.203675	-0.065906	0.073471
O205	O	1.362591	-0.432929	-0.328591
O206	O	1.862591	0.067071	0.171409
H207	H	1.305129	-0.473404	-0.338638
H208	H	1.805129	0.026596	0.161362
