data_functionalizedCrystal
_audit_creation_method	'MofGen! by Chris Wilmer'
_symmetry_space_group_name_H-M	'P1'
_symmetry_Int_Tables_number	1
_symmetry_cell_setting	triclinic
loop_
_symmetry_equiv_pos_as_xyz
  x,y,z
_cell_length_a	17.917603
_cell_length_b	12.970454
_cell_length_c	12.970454
_cell_angle_alpha	59.999702
_cell_angle_beta	89.999925
_cell_angle_gamma	57.011801
loop_
_atom_site_label
_atom_site_type_symbol
_atom_site_fract_x
_atom_site_fract_y
_atom_site_fract_z
Zr1	Zr	0.754913	1.033593	-0.087833
O2	O	0.629790	1.264415	-0.260324
O3	O	0.793269	0.813681	-0.034956
O4	O	0.793271	1.028771	-0.250046
O5	O	0.629789	1.049324	0.124434
O6	O	0.922228	1.012556	-0.241938
O7	O	0.629789	1.049325	-0.045234
O8	O	0.922225	0.627799	0.142819
O9	O	0.629792	1.434081	-0.260323
O10	O	0.905868	0.887992	-0.006353
O11	O	0.809628	0.900092	0.114217
O12	O	0.809630	1.153333	-0.139024
O13	O	0.713391	1.165433	-0.018454
Zr14	Zr	0.960584	1.007731	0.195698
Zr15	Zr	0.960585	1.007732	-0.074902
Zr16	Zr	0.754913	1.033591	0.182767
Zr17	Zr	0.754915	1.304190	-0.087832
Zr18	Zr	0.960583	0.737134	0.195697
O19	O	0.922229	1.227643	0.142821
O20	O	0.922229	1.227645	-0.241938
O21	O	0.629790	1.264413	0.124434
O22	O	1.085707	0.776909	0.368188
O23	O	1.085708	0.776911	-0.016570
O24	O	0.793268	0.813679	0.349802
O25	O	1.085709	0.992000	-0.016569
O26	O	0.922227	1.012553	0.357911
O27	O	0.793270	1.028768	0.349803
O28	O	1.085709	0.991999	0.153098
O29	O	0.793273	1.413525	-0.250045
O30	O	0.922224	0.627798	0.357909
O31	O	1.085706	0.607243	0.368188
O32	O	1.085706	0.607244	0.153097
O33	O	0.629791	1.434080	-0.045232
O34	O	0.793273	1.413524	-0.034954
O35	O	0.905867	0.887991	0.246889
O36	O	1.002107	0.875891	0.126318
O37	O	0.905869	1.141231	-0.006352
O38	O	0.809630	1.153332	0.114218
C39	C	0.600485	1.053009	0.037758
C40	C	0.513172	1.063987	0.032268
C41	C	0.857748	1.020660	0.392412
C42	C	0.857748	1.020659	0.507288
C43	C	0.857751	1.359138	0.053934
C44	C	0.857752	1.474014	0.053934
C45	C	0.353328	1.084041	0.022243
C46	C	0.362163	0.957289	0.085619
C47	C	0.273220	0.968447	0.080041
C48	C	0.442277	1.072886	0.027819
C49	C	1.115013	0.988315	0.070107
C50	C	1.202326	0.977336	0.075597
C51	C	0.857747	0.682186	0.053931
C52	C	0.857746	0.567310	0.053931
C53	C	0.857749	1.020664	-0.284547
C54	C	0.857749	1.020664	-0.399424
C55	C	1.115010	0.649838	0.070106
C56	C	1.202323	0.523984	0.075595
C57	C	0.857746	0.682184	0.392410
C58	C	0.857745	0.567308	0.507287
C59	C	1.115010	0.649837	0.408585
C60	C	1.202322	0.523982	0.528951
C61	C	0.600488	1.391487	-0.300721
C62	C	0.513175	1.517342	-0.421086
C63	C	0.600487	1.391485	0.037759
C64	C	0.513175	1.517339	0.032270
C65	C	0.857751	1.359140	-0.284546
C66	C	0.857752	1.474016	-0.399422
C67	C	1.193090	0.471199	0.008908
C68	C	1.275121	0.352961	0.014040
C69	C	1.366384	0.287504	0.085867
C70	C	1.375615	0.340301	0.152555
C71	C	1.293585	0.458544	0.147416
C72	C	1.293569	0.458562	0.522540
C73	C	1.375616	0.340322	0.635627
C74	C	1.366414	0.287497	0.755123
C75	C	1.275157	0.352929	0.761531
C76	C	1.193112	0.471174	0.648445
C77	C	0.421928	1.582775	-0.414676
C78	C	0.339881	1.701048	-0.527762
C79	C	0.349084	1.753879	-0.647259
C80	C	0.440341	1.688440	-0.653666
C81	C	0.522385	1.570176	-0.540581
C82	C	0.522408	1.570136	0.098945
C83	C	0.440377	1.688403	0.093783
C84	C	0.349113	1.753864	0.021953
C85	C	0.339882	1.701062	-0.044731
C86	C	0.421912	1.582805	-0.039576
H87	H	0.436524	0.840394	0.144066
C88	C	1.042541	0.699669	-0.165391
C89	C	1.092778	0.543140	-0.070056
H90	H	0.980614	0.744079	-0.214140
H91	H	1.076635	0.713065	-0.220284
H92	H	1.036292	0.748023	-0.126397
H93	H	1.099034	0.494784	-0.109050
H94	H	1.058676	0.529734	-0.015155
H95	H	0.278972	1.200927	-0.036201
H96	H	1.267586	0.309990	-0.040267
H97	H	0.596712	1.516847	0.157446
H98	H	0.447912	1.731374	0.148091
C99	C	1.456517	0.033417	0.143678
C100	C	1.456549	0.157517	0.091522
H101	H	1.512181	-0.046836	0.147175
H102	H	1.400844	0.064862	0.091353
H103	H	1.456519	-0.001955	0.227891
H104	H	1.456539	0.192896	0.007305
H105	H	1.512236	0.126068	0.143848
C106	C	1.545978	0.153388	0.221944
C107	C	1.475938	0.268327	0.231517
H108	H	1.607913	0.108943	0.270704
H109	H	1.538775	0.196421	0.134542
H110	H	1.538753	0.076836	0.254116
H111	H	1.483158	0.344885	0.199336
H112	H	1.483144	0.225294	0.318938
H113	H	0.282327	1.850156	0.017766
C114	C	0.613422	1.569591	-0.676412
C115	C	0.622684	1.498242	-0.547641
H116	H	0.675342	1.525177	-0.680774
H117	H	0.579345	1.675762	-0.717887
H118	H	0.579310	1.556199	-0.717899
H119	H	0.656790	1.511644	-0.506156
H120	H	0.656776	1.392045	-0.506149
H121	H	0.265584	1.754309	-0.522520
C122	C	1.401175	0.434097	0.284874
C123	C	1.303745	0.516539	0.220743
H124	H	1.407449	0.469892	0.330152
H125	H	1.431072	0.448053	0.224201
H126	H	1.431075	0.328433	0.343779
H127	H	1.273846	0.622202	0.161831
H128	H	1.273835	0.502596	0.281423
H129	H	1.118817	0.524425	0.653683
H130	H	0.265564	1.754379	-0.103214
H131	H	1.301081	0.501554	0.425251
C132	C	0.314323	1.607194	-0.176977
C133	C	0.411753	1.524761	-0.112855
H134	H	0.308048	1.571355	-0.222211
H135	H	0.284427	1.712840	-0.235906
H136	H	0.284422	1.593268	-0.116292
H137	H	0.441653	1.538696	-0.173541
H138	H	0.441662	1.419089	-0.053920
H139	H	0.414417	1.539768	-0.317387
C140	C	1.466658	0.339729	0.499793
C141	C	1.475918	0.268402	0.628563
H142	H	1.528579	0.295321	0.495433
H143	H	1.432571	0.445906	0.458300
H144	H	1.432558	0.326308	0.458323
H145	H	1.510013	0.281832	0.670031
H146	H	1.510020	0.162199	0.670073
C147	C	1.456606	0.033383	0.951401
C148	C	1.456601	0.157520	0.879428
H149	H	1.512283	-0.046853	1.028142
H150	H	1.456602	-0.001987	0.902572
H151	H	1.400941	0.064801	0.972317
H152	H	1.512262	0.126105	0.858503
H153	H	1.456613	0.192894	0.928266
H154	H	1.267678	0.309901	0.858840
C155	C	0.258885	2.008006	-0.843529
C156	C	0.258893	1.883867	-0.771558
H157	H	0.203199	2.088253	-0.920259
H158	H	0.314535	1.976605	-0.864458
H159	H	0.258898	2.043367	-0.794685
H160	H	0.258887	1.848499	-0.820399
H161	H	0.203227	1.915271	-0.750633
H162	H	0.447822	1.731470	-0.750973
