data_functionalizedCrystal
_audit_creation_method	'MofGen! by Chris Wilmer'
_symmetry_space_group_name_H-M	'P1'
_symmetry_Int_Tables_number	1
_symmetry_cell_setting	triclinic
loop_
_symmetry_equiv_pos_as_xyz
  x,y,z
_cell_length_a	18.215407
_cell_length_b	16.625546
_cell_length_c	18.215399
_cell_angle_alpha	90.029176
_cell_angle_beta	90.017368
_cell_angle_gamma	90.019912
loop_
_atom_site_label
_atom_site_type_symbol
_atom_site_fract_x
_atom_site_fract_y
_atom_site_fract_z
Zn1	Zn	1.125084	-0.321065	0.416061
Zn2	Zn	1.124998	-0.455905	0.292992
Zn3	Zn	1.002017	-0.321084	0.293014
Zn4	Zn	1.001988	-0.455853	0.416022
O5	O	1.063522	-0.388477	0.354522
O6	O	1.228057	-0.338965	0.399743
O7	O	1.108660	-0.438051	0.190011
O8	O	1.018390	-0.208249	0.309362
O9	O	1.227994	-0.438032	0.309325
O10	O	1.108807	-0.208235	0.399764
O11	O	1.018306	-0.338998	0.190027
O12	O	0.899029	-0.338948	0.309324
O13	O	1.018341	-0.437943	0.519012
O14	O	0.899008	-0.437962	0.399698
O15	O	1.108779	-0.338915	0.519040
O16	O	1.108632	-0.568731	0.309287
O17	O	1.018257	-0.568693	0.399677
C18	C	0.872315	-0.388452	0.354510
C19	C	0.790517	-0.388461	0.354521
C20	C	0.602355	-0.336983	0.401677
C21	C	0.525496	-0.336990	0.401679
C22	C	0.525441	-0.439993	0.307381
C23	C	0.602298	-0.439982	0.307376
C24	C	0.640753	-0.388478	0.354527
C25	C	0.487037	-0.388496	0.354536
C26	C	0.403703	-0.388504	0.354538
C27	C	0.724092	-0.388469	0.354524
C28	C	1.063452	-0.597968	0.354492
C29	C	1.063490	-0.687589	0.354503
C30	C	1.063618	-1.015764	0.354580
C31	C	1.063580	-0.924456	0.354560
C32	C	1.063553	-0.851680	0.354541
C33	C	1.063516	-0.760365	0.354522
C34	C	1.255475	-0.388502	0.354536
C35	C	1.337273	-0.388513	0.354541
C36	C	1.063567	-0.388421	0.546475
C37	C	1.063586	-0.388398	0.628274
C38	C	1.063612	-0.178168	0.354569
C39	C	1.063650	-0.088547	0.354590
C40	C	1.063519	-0.388474	0.163316
C41	C	1.063643	-0.388271	0.081518
C42	C	1.110694	-0.336785	0.816484
C43	C	1.110703	-0.336762	0.893343
C44	C	1.016530	-0.439885	0.893302
C45	C	1.016518	-0.439904	0.816445
C46	C	1.063604	-0.388355	0.778038
C47	C	1.063625	-0.388313	0.931754
C48	C	1.063634	-0.388288	1.015088
C49	C	1.063594	-0.388379	0.694699
H50	H	0.494121	-0.481927	0.268993
H51	H	1.149033	-0.294809	0.785216
C52	C	0.974736	-0.485650	1.011102
C53	C	0.964780	-0.496552	0.935522
H54	H	0.942791	-0.520640	1.037164
H55	H	0.963987	-0.431478	1.023707
H56	H	1.024183	-0.497453	1.023693
H57	H	0.915334	-0.484743	0.922930
H58	H	0.975524	-0.550737	0.922912
C59	C	0.923436	-0.541848	0.824118
C60	C	0.964755	-0.496598	0.774179
H61	H	0.891484	-0.576848	0.798023
H62	H	0.895303	-0.506710	0.854099
H63	H	0.955500	-0.572684	0.854094
H64	H	0.932691	-0.465757	0.744206
H65	H	0.992890	-0.531740	0.744186
C66	C	1.203794	-0.234841	0.885658
C67	C	1.162469	-0.280078	0.935603
H68	H	1.235756	-0.199849	0.911750
H69	H	1.171739	-0.204004	0.855685
H70	H	1.231922	-0.269993	0.855676
H71	H	1.134337	-0.244926	0.965582
H72	H	1.194528	-0.310918	0.965589
C73	C	0.626068	-0.297869	0.526355
C74	C	0.644625	-0.280366	0.453501
H75	H	0.652160	-0.262910	0.558347
H76	H	0.638661	-0.352050	0.537033
H77	H	0.574797	-0.290505	0.533095
H78	H	0.695895	-0.287736	0.446759
H79	H	0.632036	-0.226172	0.442818
C80	C	0.407706	-0.291268	0.443557
C81	C	0.483287	-0.280388	0.453509
H82	H	0.381650	-0.256318	0.475553
H83	H	0.395106	-0.345453	0.454240
H84	H	0.395102	-0.279396	0.394128
H85	H	0.495892	-0.292266	0.502936
H86	H	0.495892	-0.226191	0.442831
C87	C	0.594530	-0.541808	0.214168
C88	C	0.644512	-0.496592	0.255547
H89	H	0.620592	-0.576756	0.182176
H90	H	0.564550	-0.506646	0.186077
H91	H	0.564557	-0.572698	0.246192
H92	H	0.674481	-0.465697	0.223523
H93	H	0.674504	-0.531758	0.283641
