data_functionalizedCrystal
_audit_creation_method	'MofGen! by Chris Wilmer'
_symmetry_space_group_name_H-M	'P1'
_symmetry_Int_Tables_number	1
_symmetry_cell_setting	triclinic
loop_
_symmetry_equiv_pos_as_xyz
  x,y,z
_cell_length_a	10.654550
_cell_length_b	16.992695
_cell_length_c	9.130313
_cell_angle_alpha	89.998255
_cell_angle_beta	89.996220
_cell_angle_gamma	87.576563
loop_
_atom_site_label
_atom_site_type_symbol
_atom_site_fract_x
_atom_site_fract_y
_atom_site_fract_z
O1	O	1.677356	0.110186	-0.121922
O2	O	2.177356	0.610186	0.378078
O3	O	1.312785	0.120685	-0.121899
O4	O	1.812785	0.620685	0.378101
O5	O	1.493609	0.001285	-0.121899
O6	O	1.993609	0.501285	0.378101
O7	O	1.496532	0.229586	-0.121922
O8	O	1.996532	0.729586	0.378078
O9	O	1.493607	0.001288	0.121700
O10	O	1.993607	0.501288	0.621700
O11	O	1.312783	0.120688	0.121700
O12	O	1.812783	0.620688	0.621700
O13	O	1.677354	0.110190	0.121676
O14	O	2.177354	0.610190	0.621676
Cu15	Cu	1.495068	0.115439	0.143931
Cu16	Cu	1.995068	0.615439	0.643931
Cu17	Cu	1.495071	0.115435	-0.144153
Cu18	Cu	1.995071	0.615435	0.355847
O19	O	1.496530	0.229589	0.121676
O20	O	1.996530	0.729589	0.621676
C21	C	1.265919	0.119915	-0.000097
C22	C	1.765919	0.619915	0.499903
C23	C	1.126277	0.117609	-0.000087
C24	C	1.626277	0.617609	0.499913
C25	C	1.052866	0.187910	-0.000116
C26	C	1.552866	0.687910	0.499884
C27	C	0.921658	0.185738	-0.000141
C28	C	1.421658	0.685738	0.499859
C29	C	0.937282	0.042959	-0.000115
C30	C	1.437282	0.542959	0.499885
C31	C	1.068488	0.045131	-0.000080
C32	C	1.568488	0.545131	0.499920
C33	C	1.043844	0.270342	-0.000137
C34	C	1.543844	0.770342	0.499863
C35	C	0.912636	0.268171	-0.000162
C36	C	1.412636	0.768171	0.499838
C37	C	1.489848	-0.027947	-0.000100
C38	C	1.989848	0.472053	0.499900
C39	C	1.478628	-0.115052	-0.000099
C40	C	1.978628	0.384948	0.499901
C41	C	1.586879	-0.164704	-0.000105
C42	C	2.086879	0.335296	0.499895
C43	C	1.576330	-0.246548	-0.000118
C44	C	2.076330	0.253452	0.499882
C45	C	1.457529	-0.278738	-0.000115
C46	C	1.957529	0.221262	0.499885
C47	C	1.349270	-0.229080	-0.000114
C48	C	1.849270	0.270920	0.499886
C49	C	1.359820	-0.147237	-0.000112
C50	C	1.859820	0.352763	0.499888
C51	C	1.413802	-0.522574	-0.000133
C52	C	1.913802	-0.022574	0.499867
C53	C	1.403260	-0.604422	-0.000131
C54	C	1.903260	-0.104422	0.499869
C55	C	1.630321	-0.621884	-0.000137
C56	C	2.130321	-0.121884	0.499863
C57	C	1.640861	-0.540040	-0.000126
C58	C	2.140861	-0.040040	0.499874
C59	C	1.532602	-0.490389	-0.000132
C60	C	2.032602	0.009611	0.499868
N61	N	1.446743	-0.362396	-0.000124
N62	N	1.946743	0.137604	0.499876
N63	N	1.543389	-0.406733	-0.000134
N64	N	2.043389	0.093267	0.499866
C65	C	1.724220	0.110959	-0.000129
C66	C	2.224220	0.610959	0.499871
C67	C	1.863862	0.113265	-0.000148
C68	C	2.363862	0.613265	0.499852
C69	C	1.500291	0.258821	-0.000126
C70	C	2.000291	0.758821	0.499874
C71	C	1.511510	0.345926	-0.000136
C72	C	2.011510	0.845926	0.499864
N73	N	1.495076	0.115441	0.346553
N74	N	1.995076	0.615441	0.846553
N75	N	1.495073	0.115427	-0.346776
N76	N	1.995073	0.615427	0.153224
C77	C	1.575168	0.062589	0.423205
C78	C	2.075168	0.562589	0.923205
C79	C	1.575164	0.062580	0.576542
C80	C	2.075164	0.562580	1.076542
C81	C	1.414971	0.168281	0.576561
C82	C	1.914971	0.668281	1.076561
C83	C	1.414970	0.168286	0.423227
C84	C	1.914970	0.668286	0.923227
C85	C	1.667658	0.001565	0.423195
C86	C	2.167658	0.501565	0.923195
C87	C	1.667654	0.001556	0.576532
C88	C	2.167654	0.501556	1.076532
H89	H	0.890215	-0.016050	-0.000131
H90	H	1.390215	0.483950	0.499869
H91	H	1.349741	0.211316	0.360819
H92	H	1.849741	0.711316	0.860819
H93	H	1.306513	-0.630628	-0.000105
H94	H	1.806513	-0.130628	0.499895
H95	H	1.081769	0.296589	-0.105312
H96	H	1.581769	0.796589	0.394688
H97	H	0.873588	0.299229	-0.102119
H98	H	1.373588	0.799229	0.397881
Br99	Br	1.830445	0.023949	0.645897
Br100	Br	2.330445	0.523949	1.145897
H101	H	1.349751	0.211306	0.639006
H102	H	1.849751	0.711306	1.139006
H103	H	0.869116	0.293084	0.105003
H104	H	1.369116	0.793084	0.605003
H105	H	1.632216	-0.055428	0.624087
H106	H	2.132216	0.444572	1.124087
Br107	Br	1.266878	-0.455200	-0.000151
Br108	Br	1.766878	0.044800	0.499849
H109	H	1.664480	-0.286971	-0.000119
H110	H	2.164480	0.213029	0.499881
Br111	Br	1.168115	-0.050280	0.000001
Br112	Br	1.668115	0.449720	0.500001
H113	H	1.641004	-0.058735	0.381583
H114	H	2.141004	0.441265	0.881583
Br115	Br	1.097386	0.324083	0.169770
Br116	Br	1.597386	0.824083	0.669770
Br117	Br	1.822376	0.033426	0.343899
Br118	Br	2.322376	0.533426	0.843899
Br119	Br	1.748117	-0.121025	-0.000087
Br120	Br	2.248117	0.378975	0.499913
H121	H	1.737601	-0.513837	-0.000128
H122	H	2.237601	-0.013837	0.499872
H123	H	1.718459	-0.662319	-0.000135
H124	H	2.218459	-0.162319	0.499865
H125	H	1.252539	-0.255296	-0.000121
H126	H	1.752539	0.244704	0.499879
H127	H	1.271671	-0.106811	-0.000107
H128	H	1.771671	0.393189	0.499893
