data_functionalizedCrystal
_audit_creation_method	'MofGen! by Chris Wilmer'
_symmetry_space_group_name_H-M	'P1'
_symmetry_Int_Tables_number	1
_symmetry_cell_setting	triclinic
loop_
_symmetry_equiv_pos_as_xyz
  x,y,z
_cell_length_a	11.026607
_cell_length_b	10.654550
_cell_length_c	10.065875
_cell_angle_alpha	98.875770
_cell_angle_beta	79.302338
_cell_angle_gamma	96.535460
loop_
_atom_site_label
_atom_site_type_symbol
_atom_site_fract_x
_atom_site_fract_y
_atom_site_fract_z
O1	O	1.632231	0.512406	-0.113491
O2	O	1.278420	0.452411	-0.113493
O3	O	1.463459	0.301436	-0.113487
O4	O	1.447191	0.663381	-0.113497
O5	O	1.428176	0.330372	0.113500
O6	O	1.243137	0.481347	0.113494
O7	O	1.596947	0.541343	0.113496
Zn8	Zn	1.414440	0.515940	0.149534
Zn9	Zn	1.460927	0.477814	-0.149531
O10	O	1.411908	0.692318	0.113490
C11	C	1.215474	0.455811	0.000000
C12	C	1.080483	0.422816	-0.000001
C13	C	1.444623	0.268847	0.000005
C14	C	1.441050	0.128627	0.000000
C15	C	1.007444	0.513919	-0.000004
C16	C	0.867923	0.479820	-0.000005
C17	C	1.549998	0.072791	0.000005
C18	C	1.546634	-0.058961	-0.000005
C19	C	1.325363	-0.079031	-0.000018
C20	C	1.328730	0.052718	-0.000018
C21	C	1.662318	0.148700	0.000023
C22	C	1.771275	0.092866	0.000030
C23	C	1.767911	-0.038887	0.000020
C24	C	1.655590	-0.114805	0.000004
C25	C	1.659894	0.537943	-0.000000
C26	C	1.794886	0.570936	-0.000008
C27	C	1.430744	0.724907	-0.000005
C28	C	1.434319	0.865125	-0.000009
N29	N	1.382723	0.541960	0.353639
N30	N	1.492654	0.451786	-0.353636
C31	C	1.449884	0.486858	0.421420
C32	C	1.425483	0.506896	0.578586
H33	H	1.048204	0.617161	0.000001
H34	H	1.349909	0.568905	0.636905
C35	C	1.594771	0.368046	0.567593
H36	H	1.597796	0.365584	0.472294
H37	H	1.577063	0.284047	0.590933
H38	H	1.672472	0.402877	0.590943
H39	H	0.835639	0.674186	-0.000002
H40	H	1.665069	0.255982	0.000035
H41	H	1.856631	-0.084345	0.000011
C42	C	1.280642	0.625734	0.432418
H43	H	1.277640	0.628219	0.527717
H44	H	1.202929	0.590949	0.409086
H45	H	1.298397	0.709732	0.409063
C46	C	0.812883	0.340339	-0.000001
H47	H	0.876798	0.287605	0.000011
H48	H	0.776253	0.313588	-0.079154
H49	H	0.751651	0.333776	0.079167
C50	C	1.025437	0.283342	0.000004
H51	H	1.089352	0.230608	0.000015
H52	H	0.988807	0.256591	-0.079149
H53	H	0.964205	0.276779	0.079172
H54	H	1.240015	0.098180	-0.000020
H55	H	1.862728	0.154682	0.000008
H56	H	1.652862	-0.222088	-0.000018
C57	C	1.201819	-0.162530	-0.000029
H58	H	1.137415	-0.110407	-0.000044
H59	H	1.183599	-0.204257	0.079124
H60	H	1.208219	-0.224429	-0.079197
C61	C	1.551964	0.403085	0.342641
H62	H	1.554978	0.400612	0.247342
H63	H	1.534223	0.319094	0.365999
H64	H	1.629682	0.437883	0.365970
