data_functionalizedCrystal
_audit_creation_method	'MofGen! by Chris Wilmer'
_symmetry_space_group_name_H-M	'P1'
_symmetry_Int_Tables_number	1
_symmetry_cell_setting	triclinic
loop_
_symmetry_equiv_pos_as_xyz
  x,y,z
_cell_length_a	14.971506
_cell_length_b	11.792254
_cell_length_c	14.048226
_cell_angle_alpha	89.993407
_cell_angle_beta	89.993237
_cell_angle_gamma	83.910493
loop_
_atom_site_label
_atom_site_type_symbol
_atom_site_fract_x
_atom_site_fract_y
_atom_site_fract_z
O1	O	1.187534	0.148018	-0.079168
O2	O	0.927208	0.165706	-0.079168
O3	O	1.063683	-0.008348	-0.079161
O4	O	1.051060	0.322071	-0.079175
O5	O	1.063666	-0.008358	0.079160
O6	O	0.927191	0.165696	0.079153
O7	O	1.187518	0.148007	0.079154
Zn8	Zn	1.057352	0.156850	0.104290
Zn9	Zn	1.057374	0.156863	-0.104305
O10	O	1.051043	0.322061	0.079147
C11	C	0.893872	0.164906	-0.000008
C12	C	0.794566	0.162523	-0.000008
C13	C	1.062879	-0.050639	-0.000001
C14	C	1.060499	-0.176637	-0.000002
C15	C	0.356660	0.255683	-0.000021
C16	C	0.449970	0.257913	-0.000025
C17	C	0.506776	0.155649	-0.000017
C18	C	0.470269	0.051149	-0.000014
C19	C	0.376962	0.048920	-0.000017
C20	C	0.664751	0.055802	-0.000006
C21	C	0.758065	0.058031	-0.000002
C22	C	0.737759	0.264794	-0.000015
C23	C	0.644451	0.262566	-0.000018
C24	C	0.607951	0.158065	-0.000013
C25	C	1.058565	-0.278961	-0.000005
C26	C	1.056147	-0.407332	-0.000014
C27	C	1.220854	0.148808	-0.000009
C28	C	1.320159	0.151191	-0.000015
C29	C	1.051846	0.364352	-0.000016
C30	C	1.054227	0.490350	-0.000021
N31	N	1.057344	0.156840	0.246651
N32	N	1.057389	0.156864	-0.246666
C33	C	1.117794	0.079801	0.296472
C34	C	1.117800	0.079800	0.396130
C35	C	1.057359	0.156845	0.445964
C36	C	0.996903	0.233888	0.396136
C37	C	0.996893	0.233882	0.296480
C38	C	0.996928	0.233896	0.603851
C39	C	0.996939	0.233904	0.703513
C40	C	1.117835	0.079814	0.703500
C41	C	1.117826	0.079808	0.603844
C42	C	1.057370	0.156853	0.554023
H43	H	0.310414	0.338958	-0.000021
H44	H	0.947721	0.296640	0.744084
H45	H	0.347245	-0.036168	-0.000014
F46	F	1.182128	-0.002197	0.243444
F47	F	0.932581	0.315894	0.550831
H48	H	0.516529	-0.032115	-0.000013
H49	H	0.767482	0.349883	-0.000018
F50	F	1.182136	-0.002195	0.449153
H51	H	0.804315	-0.025241	-0.000003
F52	F	0.932551	0.315875	0.243458
F53	F	0.932572	0.315881	0.449175
F54	F	1.182157	-0.002184	0.550806
H55	H	1.167060	0.017082	0.744070
H56	H	0.479684	0.343000	-0.000039
H57	H	0.598201	0.345838	-0.000018
H58	H	0.635036	-0.029293	-0.000007
