data_functionalizedCrystal
_audit_creation_method	'MofGen! by Chris Wilmer'
_symmetry_space_group_name_H-M	'P1'
_symmetry_Int_Tables_number	1
_symmetry_cell_setting	triclinic
loop_
_symmetry_equiv_pos_as_xyz
  x,y,z
_cell_length_a	12.759395
_cell_length_b	25.639239
_cell_length_c	25.639233
_cell_angle_alpha	89.981253
_cell_angle_beta	89.988988
_cell_angle_gamma	90.040223
loop_
_atom_site_label
_atom_site_type_symbol
_atom_site_fract_x
_atom_site_fract_y
_atom_site_fract_z
Zn1	Zn	1.605995	-0.208193	-0.295587
Zn2	Zn	1.605841	-0.295612	-0.208151
Zn3	Zn	1.430322	-0.208195	-0.208168
Zn4	Zn	1.430212	-0.295602	-0.295558
O5	O	1.518093	-0.251900	-0.251866
O6	O	1.752996	-0.219793	-0.283993
O7	O	1.582540	-0.284021	-0.134988
O8	O	1.453736	-0.135029	-0.219783
O9	O	1.752883	-0.284019	-0.219755
O10	O	1.582802	-0.135028	-0.284009
O11	O	1.453587	-0.219796	-0.135000
O12	O	1.283287	-0.219786	-0.219755
O13	O	1.453548	-0.284002	-0.368727
O14	O	1.283206	-0.284003	-0.283960
O15	O	1.582695	-0.219783	-0.368748
O16	O	1.582433	-0.368776	-0.219727
O17	O	1.453399	-0.368768	-0.283944
C18	C	1.245125	-0.251894	-0.251857
C19	C	1.128348	-0.251904	-0.251865
C20	C	1.128303	-0.318882	-0.318614
C21	C	1.073419	-0.352375	-0.351990
C22	C	0.963697	-0.352381	-0.351996
C23	C	0.908857	-0.318890	-0.318624
C24	C	0.963741	-0.285397	-0.285249
C25	C	1.073465	-0.285395	-0.285245
C26	C	0.963786	-0.218417	-0.218503
C27	C	1.073508	-0.218412	-0.218493
C28	C	0.908946	-0.184925	-0.185131
C29	C	0.963830	-0.151434	-0.151752
C30	C	1.073558	-0.151430	-0.151747
C31	C	1.128392	-0.184919	-0.185118
C32	C	1.517916	-0.387743	-0.251842
C33	C	1.517936	-0.445857	-0.251849
C34	C	1.585456	-0.806211	-0.218485
C35	C	1.585497	-0.860815	-0.218492
O36	O	1.642721	-0.889045	-0.190098
N37	N	1.518277	-0.888139	-0.251900
C38	C	1.451020	-0.860856	-0.285308
O39	O	1.393849	-0.889111	-0.313726
C40	C	1.450986	-0.806253	-0.285303
C41	C	1.518202	-0.778932	-0.251889
C42	C	1.652668	-0.778890	-0.185073
C43	C	1.652625	-0.724290	-0.185066
C44	C	1.585371	-0.697010	-0.218470
C45	C	1.518160	-0.724331	-0.251881
C46	C	1.383735	-0.778970	-0.318713
C47	C	1.383707	-0.724363	-0.318706
C48	C	1.450923	-0.697042	-0.285291
C49	C	1.450863	-0.642451	-0.285278
N50	N	1.518083	-0.615127	-0.251869
C51	C	1.585337	-0.642407	-0.218465
C52	C	1.451100	-0.975526	-0.285316
C53	C	1.451128	-1.030129	-0.285319
C54	C	1.585606	-1.030085	-0.218503
C55	C	1.585571	-0.975481	-0.218498
C56	C	1.518319	-0.948203	-0.251907
C57	C	1.585242	-0.527742	-0.218451
C58	C	1.585190	-0.473136	-0.218445
C59	C	1.450717	-0.473185	-0.285263
C60	C	1.450764	-0.527786	-0.285267
C61	C	1.518035	-0.555063	-0.251860
O62	O	1.393671	-0.614187	-0.313659
O63	O	1.642508	-0.614145	-0.190057
C64	C	1.792126	-0.251907	-0.251875
C65	C	1.908903	-0.251910	-0.251879
C66	C	1.518127	-0.251891	-0.388239
C67	C	1.518141	-0.251887	-0.446353
C68	C	1.518299	-0.115527	-0.251901
C69	C	1.518386	-0.057413	-0.251916
C70	C	1.585473	-0.218349	-0.806733
C71	C	1.585486	-0.218335	-0.861337
O72	O	1.642649	-0.189881	-0.889588
N73	N	1.518257	-0.251765	-0.888636
C74	C	1.451003	-0.285207	-0.861327
O75	O	1.393819	-0.313640	-0.889560
C76	C	1.450985	-0.285219	-0.806724
C77	C	1.518226	-0.251790	-0.779428
C78	C	1.652708	-0.184923	-0.779437
C79	C	1.652696	-0.184938	-0.724837
C80	C	1.585449	-0.218380	-0.697532
C81	C	1.518215	-0.251806	-0.724827
C82	C	1.383727	-0.318659	-0.779416
C83	C	1.383714	-0.318667	-0.724809
C84	C	1.450955	-0.285238	-0.697513
C85	C	1.450956	-0.285262	-0.642922
N86	N	1.518185	-0.251832	-0.615623
C87	C	1.585432	-0.218391	-0.642928
C88	C	1.451043	-0.285180	-0.975998
C89	C	1.451065	-0.285172	-1.030600
C90	C	1.585548	-0.218298	-1.030606
C91	C	1.585530	-0.218310	-0.976003
C92	C	1.518273	-0.251750	-0.948699
C93	C	1.585403	-0.218426	-0.528263
C94	C	1.585388	-0.218446	-0.473658
C95	C	1.450902	-0.285317	-0.473656
C96	C	1.450920	-0.285300	-0.528257
C97	C	1.518174	-0.251850	-0.555559
O98	O	1.393819	-0.313700	-0.614636
O99	O	1.642596	-0.189958	-0.614688
C100	C	1.518119	-0.251872	-0.116023
C101	C	1.518309	-0.251728	-0.057910
H102	H	0.819516	-0.318893	-0.318637
H103	H	1.640301	-0.191067	-1.052848
H104	H	1.639926	-0.450893	-0.191233
O105	O	1.650617	-0.554153	-0.185949
C106	C	1.709941	-0.518321	-0.156470
H107	H	1.666873	-0.479423	-0.154643
H108	H	1.789704	-0.512461	-0.175648
C109	C	1.778070	-0.587414	-0.103073
C110	C	1.725168	-0.539641	-0.100826
H111	H	1.787468	-0.600565	-0.068750
H112	H	1.738106	-0.611555	-0.122935
H113	H	1.844534	-0.582524	-0.119058
H114	H	1.658701	-0.544532	-0.084848
H115	H	1.765121	-0.515501	-0.080960
O116	O	1.718093	-0.152529	-0.698295
C117	C	1.785893	-0.182286	-0.666689
H118	H	1.792369	-0.223462	-0.683134
H119	H	1.753379	-0.184097	-0.625308
C120	C	1.887174	-0.106148	-0.645649
C121	C	1.895134	-0.156720	-0.665850
H122	H	1.954558	-0.090377	-0.645129
H123	H	1.841494	-0.086100	-0.666942
H124	H	1.860075	-0.107664	-0.611167
H125	H	1.922220	-0.155203	-0.700333
H126	H	1.940821	-0.176767	-0.644563
O127	O	1.385657	-0.317665	-1.057031
C128	C	1.326326	-0.347192	-1.021215
H129	H	1.322719	-0.325783	-0.982295
H130	H	1.364741	-0.386903	-1.015406
C131	C	1.218930	-0.381016	-1.090318
C132	C	1.214491	-0.354720	-1.042516
H133	H	1.149946	-0.385662	-1.103458
H134	H	1.258903	-0.361125	-1.114448
H135	H	1.250946	-0.414105	-1.085470
H136	H	1.182487	-0.321628	-1.047366
H137	H	1.174509	-0.374605	-1.018387
O138	O	1.385864	-0.317698	-0.949418
C139	C	1.445622	-0.351486	-0.917843
H140	H	1.525263	-0.333047	-0.909662
H141	H	1.457122	-0.390225	-0.938887
C142	C	1.289965	-0.383618	-0.876024
C143	C	1.387778	-0.360969	-0.865972
H144	H	1.254284	-0.389470	-0.844028
H145	H	1.249704	-0.360856	-0.897298
H146	H	1.299563	-0.415898	-0.893561
H147	H	1.378179	-0.328686	-0.848441
H148	H	1.428037	-0.383725	-0.844694
H149	H	1.328943	-0.702155	-0.345914
O150	O	1.318453	-0.351204	-0.805861
C151	C	1.341344	-0.403317	-0.792515
H152	H	1.381740	-0.404404	-0.752876
H153	H	1.395321	-0.420931	-0.823250
C154	C	1.189252	-0.433644	-0.838652
C155	C	1.238859	-0.434980	-0.789964
H156	H	1.126036	-0.453176	-0.837080
H157	H	1.173831	-0.398535	-0.847645
H158	H	1.234243	-0.448321	-0.864259
H159	H	1.193874	-0.420297	-0.764359
H160	H	1.254270	-0.470087	-0.780966
H161	H	1.396155	-0.312546	-0.451415
O162	O	1.718139	-0.152420	-0.805875
C163	C	1.777448	-0.122915	-0.770064
H164	H	1.781022	-0.144344	-0.731140
H165	H	1.739038	-0.083205	-0.764259
C166	C	1.884906	-0.089061	-0.839171
C167	C	1.889302	-0.115382	-0.791366
H168	H	1.953900	-0.084412	-0.852312
H169	H	1.844946	-0.108938	-0.863299
H170	H	1.852892	-0.055972	-0.834328
H171	H	1.921302	-0.148473	-0.796211
H172	H	1.929270	-0.095511	-0.767240
O173	O	0.910490	-0.384887	-0.384491
C174	C	0.937320	-0.373530	-0.436622
H175	H	1.017015	-0.353434	-0.437742
H176	H	0.875614	-0.346675	-0.454282
C177	C	0.844443	-0.449231	-0.466824
C178	C	0.942331	-0.424552	-0.468200
H179	H	0.847530	-0.480703	-0.486304
H180	H	0.826364	-0.456881	-0.431703
H181	H	0.793032	-0.426846	-0.481539
H182	H	0.993738	-0.446934	-0.453479
H183	H	0.960419	-0.416907	-0.503320
H184	H	0.919170	-0.124166	-0.124586
H185	H	1.328933	-0.345893	-0.702581
O186	O	1.718030	-0.697835	-0.152595
C187	C	1.777376	-0.733631	-0.123111
H188	H	1.780991	-0.772541	-0.144535
H189	H	1.738970	-0.739475	-0.083383
C190	C	1.884758	-0.664485	-0.089314
C191	C	1.889206	-0.712275	-0.115630
H192	H	1.953739	-0.651311	-0.084697
H193	H	1.844774	-0.640368	-0.109176
H194	H	1.852749	-0.669361	-0.056210
H195	H	1.921203	-0.707396	-0.148735
H196	H	1.929199	-0.736390	-0.095772
O197	O	1.126824	-0.118951	-0.119249
C198	C	1.099940	-0.130287	-0.067120
H199	H	1.069722	-0.172053	-0.064403
H200	H	1.036278	-0.102236	-0.053512
C201	C	1.234507	-0.072847	-0.035567
C202	C	1.197401	-0.124146	-0.032229
H203	H	1.294623	-0.069057	-0.014044
H204	H	1.252617	-0.065208	-0.070687
H205	H	1.181446	-0.049477	-0.024228
H206	H	1.250457	-0.147515	-0.043574
H207	H	1.179302	-0.131789	0.002890
O208	O	1.385703	-0.948973	-0.317695
C209	C	1.317844	-0.917446	-0.287896
H210	H	1.354950	-0.909257	-0.248290
H211	H	1.240013	-0.938537	-0.282115
C212	C	1.253156	-0.875638	-0.365298
C213	C	1.298735	-0.865577	-0.316656
H214	H	1.241364	-0.843644	-0.383039
H215	H	1.298871	-0.896880	-0.385375
H216	H	1.188303	-0.893215	-0.360474
H217	H	1.363593	-0.848007	-0.321481
H218	H	1.253030	-0.844332	-0.296580
O219	O	1.718175	-0.805391	-0.152712
C220	C	1.786004	-0.836916	-0.182529
H221	H	1.792333	-0.820449	-0.223716
H222	H	1.753615	-0.878330	-0.184296
C223	C	1.887526	-0.857881	-0.106489
C224	C	1.895307	-0.837652	-0.157074
H225	H	1.954948	-0.858337	-0.090786
H226	H	1.841826	-0.836643	-0.086400
H227	H	1.860532	-0.892390	-0.107968
H228	H	1.922288	-0.803142	-0.155593
H229	H	1.941014	-0.858884	-0.177162
H230	H	1.640163	-0.191186	-0.550486
H231	H	1.395956	-0.450966	-0.312458
H232	H	0.819605	-0.184931	-0.185141
O233	O	1.650981	-1.056670	-0.186140
C234	C	1.636613	-1.110722	-0.193325
H235	H	1.602052	-1.118162	-0.233641
H236	H	1.580816	-1.126292	-0.162262
C237	C	1.785428	-1.129544	-0.139154
C238	C	1.742987	-1.138682	-0.188674
H239	H	1.851043	-1.146792	-0.136283
H240	H	1.795107	-1.093129	-0.134312
H241	H	1.738920	-1.142519	-0.113274
H242	H	1.789489	-1.125701	-0.214553
H243	H	1.733319	-1.175096	-0.193520
H244	H	1.396034	-0.550032	-0.312478
O245	O	1.385792	-1.056584	-0.317823
C246	C	1.326409	-1.020791	-0.347292
H247	H	1.369416	-0.981845	-0.349112
H248	H	1.246639	-1.015034	-0.328108
C249	C	1.258377	-1.089911	-0.400700
C250	C	1.311205	-1.042079	-0.402940
H251	H	1.248994	-1.103043	-0.435026
H252	H	1.298382	-1.114027	-0.380845
H253	H	1.191909	-1.085107	-0.384712
H254	H	1.377677	-1.046885	-0.418922
H255	H	1.271211	-1.017965	-0.422798
H256	H	1.217733	-0.184920	-0.185115
H257	H	1.640305	-0.953240	-0.191289
O258	O	1.650555	-0.185939	-0.447089
C259	C	1.590775	-0.152168	-0.415518
H260	H	1.511133	-0.170613	-0.407327
H261	H	1.579279	-0.113420	-0.436570
C262	C	1.746404	-0.120047	-0.373716
C263	C	1.648589	-0.142704	-0.363653
H264	H	1.782068	-0.114207	-0.341724
H265	H	1.786680	-0.142798	-0.394987
H266	H	1.736810	-0.087760	-0.391261
H267	H	1.658185	-0.174993	-0.346114
H268	H	1.608316	-0.119958	-0.342377
H269	H	1.328995	-0.801206	-0.345921
O270	O	1.650729	-0.185759	-0.949515
C271	C	1.627865	-0.133648	-0.962881
H272	H	1.543939	-0.131007	-0.977887
H273	H	1.684218	-0.119981	-0.994582
C274	C	1.743212	-0.102002	-0.895954
C275	C	1.640131	-0.098756	-0.914381
H276	H	1.750783	-0.080478	-0.866038
H277	H	1.758621	-0.137109	-0.886950
H278	H	1.790162	-0.090613	-0.922376
H279	H	1.593185	-0.110151	-0.887961
H280	H	1.624715	-0.063650	-0.923379
O281	O	1.126853	-0.384891	-0.384356
C282	C	1.235466	-0.377698	-0.377204
H283	H	1.250450	-0.360508	-0.336887
H284	H	1.266657	-0.349904	-0.408269
C285	C	1.273330	-0.451718	-0.431407
C286	C	1.291734	-0.430609	-0.381888
H287	H	1.308041	-0.484355	-0.434298
H288	H	1.200156	-0.456563	-0.436227
H289	H	1.299323	-0.428551	-0.457289
H290	H	1.265730	-0.453772	-0.356007
H291	H	1.364906	-0.425769	-0.377063
O292	O	1.385663	-0.317845	-0.554720
C293	C	1.408556	-0.369962	-0.541391
H294	H	1.448938	-0.371062	-0.501748
H295	H	1.462547	-0.387563	-0.572127
C296	C	1.256486	-0.400278	-0.587552
C297	C	1.306075	-0.401629	-0.538860
H298	H	1.193272	-0.419813	-0.585994
H299	H	1.241064	-0.365166	-0.596534
H300	H	1.301489	-0.414944	-0.613161
H301	H	1.261078	-0.386957	-0.513254
H302	H	1.321488	-0.436740	-0.529874
H303	H	1.217644	-0.318884	-0.318608
