data_functionalizedCrystal
_audit_creation_method	'MofGen! by Chris Wilmer'
_symmetry_space_group_name_H-M	'P1'
_symmetry_Int_Tables_number	1
_symmetry_cell_setting	triclinic
loop_
_symmetry_equiv_pos_as_xyz
  x,y,z
_cell_length_a	13.897449
_cell_length_b	11.169416
_cell_length_c	13.897449
_cell_angle_alpha	90.004562
_cell_angle_beta	90.003875
_cell_angle_gamma	90.011620
loop_
_atom_site_label
_atom_site_type_symbol
_atom_site_fract_x
_atom_site_fract_y
_atom_site_fract_z
Zn1	Zn	1.474591	-0.477981	0.545412
Zn2	Zn	1.474554	-0.678629	0.384127
Zn3	Zn	1.313328	-0.477963	0.384131
Zn4	Zn	1.313283	-0.678625	0.545380
O5	O	1.393939	-0.578299	0.464762
O6	O	1.609568	-0.504606	0.524030
O7	O	1.453170	-0.652005	0.249146
O8	O	1.334755	-0.310016	0.405540
O9	O	1.609540	-0.652022	0.405534
O10	O	1.453234	-0.310029	0.524033
O11	O	1.334718	-0.504576	0.249149
O12	O	1.178340	-0.504572	0.405509
O13	O	1.334678	-0.652015	0.680365
O14	O	1.178307	-0.651998	0.523977
O15	O	1.453190	-0.504602	0.680390
O16	O	1.453126	-0.846578	0.405502
O17	O	1.334641	-0.846575	0.523974
C18	C	1.393901	-0.890124	0.464755
C19	C	1.393973	-1.023524	0.464784
C20	C	1.143325	-0.578283	0.464740
C21	C	1.036111	-0.578305	0.464754
C22	C	0.839816	-0.578310	0.464779
C23	C	0.949048	-0.578304	0.464762
C24	C	1.645532	-0.578316	0.464785
C25	C	1.752746	-0.578324	0.464795
C26	C	1.393933	-0.578310	0.716355
C27	C	1.393931	-0.578314	0.823569
C28	C	1.394004	-0.265257	0.464791
C29	C	1.394031	-0.131857	0.464803
C30	C	1.393928	-0.578319	0.910639
C31	C	1.393928	-0.578313	1.019872
C32	C	1.393935	-0.578313	1.214148
C33	C	1.393932	-0.578302	1.106934
