data_functionalizedCrystal
_audit_creation_method	'MofGen! by Chris Wilmer'
_symmetry_space_group_name_H-M	'P1'
_symmetry_Int_Tables_number	1
_symmetry_cell_setting	triclinic
loop_
_symmetry_equiv_pos_as_xyz
  x,y,z
_cell_length_a	11.169417
_cell_length_b	15.297327
_cell_length_c	15.296721
_cell_angle_alpha	72.680664
_cell_angle_beta	80.335678
_cell_angle_gamma	99.707226
loop_
_atom_site_label
_atom_site_type_symbol
_atom_site_fract_x
_atom_site_fract_y
_atom_site_fract_z
Zn1	Zn	1.592727	-0.461194	0.589759
Zn2	Zn	1.592591	-0.589816	0.461153
Zn3	Zn	1.434033	-0.434325	0.434284
Zn4	Zn	1.349985	-0.616663	0.616609
O5	O	1.492334	-0.525500	0.525451
O6	O	1.760655	-0.478265	0.572707
O7	O	1.606675	-0.546709	0.327463
O8	O	1.490315	-0.307752	0.432427
O9	O	1.760555	-0.572763	0.478221
O10	O	1.606908	-0.327492	0.546653
O11	O	1.490183	-0.432471	0.307723
O12	O	1.254938	-0.458504	0.458462
O13	O	1.347068	-0.618520	0.743173
O14	O	1.193188	-0.592466	0.592415
O15	O	1.525410	-0.504298	0.723446
O16	O	1.525177	-0.723515	0.504256
O17	O	1.346936	-0.743239	0.618469
C18	C	1.180516	-0.525483	0.525437
C19	C	1.047107	-0.525503	0.525457
C20	C	1.426948	-0.767124	0.567212
C21	C	1.399077	-0.870497	0.585109
C22	C	1.691940	-1.120713	0.397859
C23	C	1.718127	-1.023588	0.381040
C24	C	1.638367	-0.985310	0.432056
C25	C	1.532415	-1.044167	0.499894
C26	C	1.506221	-1.141301	0.516710
C27	C	1.452648	-1.005899	0.550906
C28	C	1.346696	-1.064756	0.618744
C29	C	1.320507	-1.161880	0.635557
C30	C	1.400267	-1.200157	0.584541
C31	C	1.478842	-0.908765	0.534090
C32	C	1.293123	-0.929353	0.652941
C33	C	1.266936	-1.026478	0.669760
C34	C	1.805369	-0.525517	0.525466
C35	C	1.938766	-0.525524	0.525473
C36	C	1.426879	-0.567401	0.767993
C37	C	1.398986	-0.585257	0.871350
C38	C	1.558002	-0.282935	0.483548
C39	C	1.585986	-0.179569	0.465691
C40	C	1.557621	-0.483694	0.283842
C41	C	1.585818	-0.465576	0.180440
C42	C	1.293024	-0.653115	0.930175
C43	C	1.266817	-0.669897	1.027285
C44	C	1.346564	-0.618818	1.065578
C45	C	1.452524	-0.550954	1.006752
C46	C	1.478739	-0.534176	0.909634
C47	C	1.532279	-0.499879	1.045038
C48	C	1.638239	-0.432015	0.986212
C49	C	1.664448	-0.415240	0.889103
C50	C	1.584701	-0.466318	0.850809
C51	C	1.506065	-0.516657	1.142156
C52	C	1.691780	-0.397719	1.121615
C53	C	1.717987	-0.380937	1.024505
H54	H	1.565109	-0.860851	0.478856
H55	H	1.756863	-1.151887	0.356324
O56	O	1.320893	-0.635201	1.159924
C57	C	1.181416	-0.724577	1.310561
C58	C	1.210336	-0.706103	1.203724
H59	H	1.092045	-0.781915	1.346007
H60	H	1.168799	-0.657149	1.324536
H61	H	1.262062	-0.748388	1.340240
H62	H	1.129729	-0.682319	1.173973
H63	H	1.223001	-0.773551	1.189814
H64	H	1.804391	-0.975670	0.325806
H65	H	1.234223	-1.209798	0.690785
H66	H	1.180546	-0.725152	1.075174
H67	H	1.378953	-1.279244	0.598234
H68	H	1.756718	-0.356127	1.152793
O69	O	1.215486	-0.702858	0.893138
C70	C	1.028524	-0.822602	0.923746
C71	C	1.116240	-0.766332	0.965813
H72	H	0.948250	-0.873920	0.982480
H73	H	1.082685	-0.863437	0.886735
H74	H	0.989657	-0.772048	0.870858
H75	H	1.155131	-0.816820	1.018737
H76	H	1.062021	-0.725485	1.002764
O77	O	1.164037	-1.083784	0.735589
C78	C	1.041433	-1.242550	0.814201
C79	C	1.157990	-1.177756	0.739609
H80	H	1.036519	-1.318542	0.817489
H81	H	0.954181	-1.220763	0.794527
H82	H	1.047358	-1.236311	0.885863
H83	H	1.152187	-1.183962	0.667920
H84	H	1.245194	-1.199561	0.759363
H85	H	1.606027	-0.452653	0.771734
H86	H	1.228174	-0.898189	0.694480
H87	H	1.419791	-0.571913	1.190043
H88	H	1.750736	-0.359989	0.841210
H89	H	1.659694	-0.906226	0.418356
O90	O	1.820814	-0.314895	0.967377
C91	C	1.929960	-0.151586	0.910375
C92	C	1.813435	-0.226278	0.975094
H93	H	1.924046	-0.079926	0.916607
H94	H	1.935011	-0.148289	0.834365
H95	H	2.017141	-0.171269	0.932291
H96	H	1.726190	-0.206649	0.953263
H97	H	1.808495	-0.229561	1.051089
