data_functionalizedCrystal
_audit_creation_method	'MofGen! by Chris Wilmer'
_symmetry_space_group_name_H-M	'P1'
_symmetry_Int_Tables_number	1
_symmetry_cell_setting	triclinic
loop_
_symmetry_equiv_pos_as_xyz
  x,y,z
_cell_length_a	12.996460
_cell_length_b	12.837943
_cell_length_c	12.837942
_cell_angle_alpha	85.171060
_cell_angle_beta	90.005421
_cell_angle_gamma	89.995743
loop_
_atom_site_label
_atom_site_type_symbol
_atom_site_fract_x
_atom_site_fract_y
_atom_site_fract_z
O1	O	0.085548	-1.402337	0.272142
O2	O	0.585548	-0.902337	0.772142
O3	O	0.085554	-1.099204	0.258699
O4	O	0.585554	-0.599204	0.758699
O5	O	0.085544	-1.244049	0.113854
O6	O	0.585544	-0.744049	0.613854
O7	O	0.085557	-1.257492	0.416988
O8	O	0.585557	-0.757492	0.916988
O9	O	-0.085589	-1.244031	0.113844
O10	O	0.414411	-0.744031	0.613844
O11	O	-0.085580	-1.099186	0.258689
O12	O	0.414420	-0.599186	0.758689
O13	O	-0.085586	-1.402320	0.272132
O14	O	0.414414	-0.902320	0.772132
Cu15	Cu	-0.101209	-1.250751	0.265409
Cu16	Cu	0.398791	-0.750751	0.765409
Cu17	Cu	0.101176	-1.250772	0.265422
Cu18	Cu	0.601176	-0.750772	0.765422
O19	O	-0.085577	-1.257475	0.416977
O20	O	0.414423	-0.757475	0.916977
C21	C	-0.000022	-1.239499	0.074780
C22	C	0.499978	-0.739499	0.574780
C23	C	-0.000020	-1.225954	-0.041635
C24	C	0.499980	-0.725954	0.458365
C25	C	-0.000013	-1.060126	0.254153
C26	C	0.499987	-0.560126	0.754153
C27	C	-0.000010	-0.943711	0.240608
C28	C	0.499990	-0.443711	0.740608
N29	N	-0.243556	-1.250744	0.265401
N30	N	0.256444	-0.750744	0.765401
C31	C	-0.663370	-1.250771	0.265423
C32	C	-0.163370	-0.750771	0.765423
C33	C	-0.546565	-1.250761	0.265420
C34	C	-0.046565	-0.750761	0.765420
C35	C	-0.453467	-1.250758	0.265413
C36	C	0.046533	-0.750758	0.765413
C37	C	-0.336654	-1.250747	0.265408
C38	C	0.163346	-0.750747	0.765408
N39	N	0.243524	-1.250787	0.265423
N40	N	0.743524	-0.750787	0.765423
C41	C	-0.000018	-1.441398	0.276679
C42	C	0.499982	-0.941398	0.776679
C43	C	-0.000013	-1.557813	0.290223
C44	C	0.499987	-1.057813	0.790223
C45	C	-0.000018	-0.718837	0.403437
C46	C	0.499982	-0.218837	0.903437
C47	C	-0.000017	-0.609454	0.390716
C48	C	0.499983	-0.109454	0.890716
C49	C	-0.000014	-0.615562	0.202445
C50	C	0.499986	-0.115562	0.702445
C51	C	-0.000015	-0.724944	0.215166
C52	C	0.499985	-0.224944	0.715166
C53	C	-0.000016	-0.776578	0.315666
C54	C	0.499984	-0.276578	0.815666
C55	C	-0.000010	-0.885962	0.328386
C56	C	0.499990	-0.385962	0.828386
C57	C	-0.000014	-0.892067	0.140116
C58	C	0.499986	-0.392067	0.640116
C59	C	-0.000013	-0.782685	0.127395
C60	C	0.499987	-0.282685	0.627395
C61	C	-0.000002	-1.388784	-0.266510
C62	C	0.499998	-0.888784	0.233490
C63	C	0.000000	-1.376062	-0.375892
C64	C	0.500000	-0.876062	0.124108
C65	C	-0.000007	-1.187791	-0.369785
C66	C	0.499993	-0.687791	0.130215
C67	C	-0.000009	-1.200513	-0.260402
C68	C	0.499991	-0.700513	0.239598
C69	C	-0.000008	-1.301012	-0.208769
C70	C	0.499992	-0.801012	0.291231
C71	C	-0.000017	-1.313732	-0.099384
C72	C	0.499983	-0.813732	0.400616
C73	C	-0.000017	-1.125462	-0.093279
C74	C	0.499983	-0.625462	0.406721
C75	C	-0.000015	-1.112741	-0.202661
C76	C	0.499985	-0.612741	0.297339
C77	C	-0.000008	-1.262025	0.456051
C78	C	0.499992	-0.762025	0.956051
C79	C	-0.000004	-1.275569	0.572467
C80	C	0.499996	-0.775569	1.072467
H81	H	-0.000012	-0.928000	0.410218
H82	H	0.499988	-0.428000	0.910218
N83	N	0.000001	-1.079406	-0.425490
N84	N	0.500001	-0.579406	0.074510
H85	H	-0.063439	-1.040455	-0.405135
H86	H	0.436561	-0.540455	0.094865
H87	H	0.063482	-1.040559	-0.405087
H88	H	0.563482	-0.540559	0.094913
H89	H	-0.000020	-1.395564	-0.057346
H90	H	0.499980	-0.895564	0.442654
H91	H	-0.000011	-1.470614	-0.224469
H92	H	0.499989	-0.970614	0.275531
H93	H	-0.000017	-0.760878	0.485268
H94	H	0.499983	-0.260878	0.985268
N95	N	0.000009	-1.470729	-0.438172
N96	N	0.500009	-0.970729	0.061828
H97	H	0.000009	-1.536321	-0.388861
H98	H	0.500009	-1.036321	0.111139
H99	H	-0.063432	-1.469549	-0.483696
H100	H	0.436568	-0.969549	0.016304
H101	H	-0.000011	-1.030917	-0.244717
H102	H	0.499989	-0.530917	0.255283
N103	N	-0.000060	-0.547174	0.485383
N104	N	0.499940	-0.047174	0.985383
H105	H	-0.000073	-0.596486	0.550975
H106	H	0.499927	-0.096486	1.050975
H107	H	0.063370	-0.501648	0.484238
H108	H	0.563370	-0.001648	0.984238
N109	N	-0.000020	-1.030791	-0.030994
N110	N	0.499980	-0.530791	0.469006
H111	H	0.063417	-0.987424	-0.048685
H112	H	0.563417	-0.487424	0.451315
H113	H	-0.063504	-0.987501	-0.048732
H114	H	0.436496	-0.487501	0.451268
N115	N	-0.000042	-0.559862	0.094057
N116	N	0.499958	-0.059862	0.594057
H117	H	-0.000052	-0.481808	0.099322
H118	H	0.499948	0.018192	0.599322
H119	H	0.063394	-0.580306	0.055164
H120	H	0.563394	-0.080306	0.555164
H121	H	-0.000024	-0.740630	0.045571
H122	H	0.499976	-0.240630	0.545571
H123	H	-0.000005	-0.939092	0.068646
H124	H	0.499995	-0.439092	0.568646
