data_functionalizedCrystal
_audit_creation_method	'MofGen! by Chris Wilmer'
_symmetry_space_group_name_H-M	'P1'
_symmetry_Int_Tables_number	1
_symmetry_cell_setting	triclinic
loop_
_symmetry_equiv_pos_as_xyz
  x,y,z
_cell_length_a	13.033286
_cell_length_b	13.031981
_cell_length_c	19.805399
_cell_angle_alpha	97.209878
_cell_angle_beta	82.824601
_cell_angle_gamma	90.919693
loop_
_atom_site_label
_atom_site_type_symbol
_atom_site_fract_x
_atom_site_fract_y
_atom_site_fract_z
Zn1	Zn	1.520213	-0.609027	0.207244
Zn2	Zn	1.498280	-0.781032	0.081708
Zn3	Zn	1.348241	-0.587236	0.110042
Zn4	Zn	1.326393	-0.759166	0.210828
O5	O	1.423282	-0.684115	0.152456
O6	O	1.661209	-0.650115	0.177233
O7	O	1.478342	-0.755355	-0.009249
O8	O	1.389376	-0.446188	0.133294
O9	O	1.645096	-0.776486	0.085003
O10	O	1.515723	-0.462198	0.204707
O11	O	1.368109	-0.612974	0.011567
O12	O	1.201437	-0.591772	0.136769
O13	O	1.352139	-0.739219	0.305069
O14	O	1.185386	-0.718089	0.210816
O15	O	1.494538	-0.628913	0.302435
O16	O	1.457157	-0.922070	0.088478
O17	O	1.330872	-0.906005	0.183342
C18	C	1.156098	-0.650193	0.177257
C19	C	1.041793	-0.635706	0.187881
C20	C	0.982872	-0.691676	0.146927
C21	C	0.864731	-0.676705	0.157907
C22	C	1.389292	-0.951362	0.133237
C23	C	1.374845	-1.065704	0.125029
C24	C	1.430877	-1.124514	0.156748
C25	C	1.415946	-1.242692	0.148265
C26	C	1.691509	-0.718170	0.127558
C27	C	1.805811	-0.732683	0.116948
C28	C	1.423348	-0.684058	0.328998
C29	C	1.423376	-0.684033	0.404229
C30	C	1.457433	-0.415828	0.171761
C31	C	1.471986	-0.301500	0.179988
C32	C	1.423285	-0.684106	-0.023400
C33	C	1.423493	-0.683866	-0.098629
C34	C	1.497525	-0.626594	0.438203
C35	C	1.497539	-0.626565	0.508893
C36	C	1.423408	-0.683983	0.545606
C37	C	1.349252	-0.741424	0.511628
C38	C	1.349234	-0.741446	0.440940
C39	C	1.349322	-0.741336	0.796703
C40	C	1.349348	-0.741312	0.867395
C41	C	1.497627	-0.626455	0.864656
C42	C	1.497609	-0.626477	0.793968
C43	C	1.423450	-0.683914	0.759996
C44	C	1.423434	-0.683942	0.683347
C45	C	1.423428	-0.683961	0.622254
H46	H	1.004774	-0.576708	0.231074
H47	H	1.489898	-1.087375	0.190187
H48	H	1.019890	-0.750682	0.103739
H49	H	0.827716	-0.617702	0.201103
H50	H	1.356913	-1.279828	0.114831
C51	C	0.855803	-0.812396	0.058596
H52	H	0.928649	-0.811998	0.058867
H53	H	0.829469	-0.879319	0.065073
H54	H	0.840145	-0.795030	0.015845
H55	H	1.557920	-0.579795	0.536551
C56	C	1.295105	-1.115868	0.079860
H57	H	1.295535	-1.188717	0.080082
H58	H	1.228197	-1.089588	0.097389
H59	H	1.312402	-1.100256	0.034236
C60	C	1.551731	-1.251343	0.225160
H61	H	1.551312	-1.178495	0.224932
H62	H	1.534444	-1.266959	0.270780
H63	H	1.618642	-1.277622	0.207623
H64	H	1.288950	-0.788122	0.769049
C65	C	1.579065	-0.563428	0.397826
H66	H	1.623220	-0.529206	0.428188
H67	H	1.618860	-0.608465	0.363260
H68	H	1.545414	-0.513621	0.377130
C69	C	1.579149	-0.563314	0.753587
H70	H	1.623307	-0.529091	0.783947
H71	H	1.618941	-0.608353	0.719021
H72	H	1.545497	-0.513507	0.732891
C73	C	1.579196	-0.563266	0.902027
H74	H	1.568588	-0.571465	0.949386
H75	H	1.646370	-0.587100	0.882949
H76	H	1.572938	-0.492244	0.896811
C77	C	1.267794	-0.804466	0.907780
H78	H	1.223618	-0.838668	0.877425
H79	H	1.301430	-0.854271	0.928480
H80	H	1.228009	-0.759407	0.942344
C81	C	1.267711	-0.804584	0.552010
H82	H	1.278347	-0.796354	0.598974
H83	H	1.200528	-0.780764	0.547921
H84	H	1.273968	-0.875613	0.534053
C85	C	1.267693	-0.804659	0.403565
H86	H	1.223557	-0.838867	0.435550
H87	H	1.227878	-0.759652	0.382969
H88	H	1.301346	-0.854479	0.369120
