data_functionalizedCrystal
_audit_creation_method	'MofGen! by Chris Wilmer'
_symmetry_space_group_name_H-M	'P1'
_symmetry_Int_Tables_number	1
_symmetry_cell_setting	triclinic
loop_
_symmetry_equiv_pos_as_xyz
  x,y,z
_cell_length_a	10.268362
_cell_length_b	10.654541
_cell_length_c	10.654545
_cell_angle_alpha	95.515322
_cell_angle_beta	90.002931
_cell_angle_gamma	89.996771
loop_
_atom_site_label
_atom_site_type_symbol
_atom_site_fract_x
_atom_site_fract_y
_atom_site_fract_z
O1	O	0.108253	-1.667845	0.176385
O2	O	0.108264	-1.302366	0.193195
O3	O	0.108257	-1.493507	0.002051
O4	O	0.108259	-1.476703	0.367529
O5	O	-0.108344	-1.493491	0.002043
O6	O	-0.108337	-1.302349	0.193187
O7	O	-0.108348	-1.667828	0.176377
Cu8	Cu	-0.128120	-1.485087	0.184781
Cu9	Cu	0.128036	-1.485107	0.184791
O10	O	-0.108341	-1.476686	0.367521
C11	C	-0.000035	-1.255559	0.191957
C12	C	-0.000031	-1.116116	0.188266
N13	N	-0.308286	-1.485082	0.184774
C14	C	-0.000041	-1.492265	-0.044751
C15	C	-0.000033	-1.488572	-0.184195
C16	C	-0.573956	-1.485100	0.184788
C17	C	-0.426118	-1.485086	0.184784
N18	N	0.308202	-1.485121	0.184788
C19	C	-0.000046	-1.714634	0.177615
C20	C	-0.000042	-1.854078	0.181306
C21	C	-0.000013	-1.088146	0.416831
C22	C	0.000001	-1.008652	0.529374
C23	C	0.000002	-0.877634	0.525898
C24	C	-0.000015	-0.826108	0.409867
C25	C	-0.000029	-0.905602	0.297324
C26	C	-0.000026	-1.036622	0.300812
C27	C	-0.000056	-0.933572	0.068763
C28	C	-0.000048	-1.064590	0.072235
C29	C	-0.000073	-0.882046	-0.047269
C30	C	-0.000077	-0.961540	-0.159814
C31	C	-0.000077	-1.092565	-0.156334
C32	C	-0.000062	-1.144084	-0.040308
C33	C	0.236112	-1.488606	-0.184194
C34	C	0.354184	-1.486892	-0.249704
C35	C	0.354185	-1.483423	-0.380723
C36	C	0.236102	-1.481664	-0.446234
C37	C	0.118030	-1.483377	-0.380725
C38	C	0.118042	-1.486850	-0.249703
C39	C	-0.118111	-1.483335	-0.380724
C40	C	-0.118116	-1.486813	-0.249706
C41	C	-0.236194	-1.481575	-0.446235
C42	C	-0.354269	-1.483297	-0.380727
C43	C	-0.354266	-1.486768	-0.249700
C44	C	-0.236188	-1.488526	-0.184196
C45	C	-0.000041	-1.477929	0.414323
C46	C	-0.000040	-1.481621	0.553766
H47	H	0.000011	-1.050619	0.623844
H48	H	0.000015	-1.194826	0.419672
H49	H	-0.000079	-0.775363	-0.050090
H50	H	0.000005	-0.812909	0.617541
H51	H	-0.000029	-0.719425	0.407048
H52	H	-0.000090	-0.919576	-0.254278
H53	H	-0.000094	-1.157283	-0.247981
H54	H	-0.000046	-1.250764	-0.037463
H55	H	0.236122	-1.491445	-0.077514
H56	H	0.450324	-1.488323	-0.196350
H57	H	0.450329	-1.482017	-0.434059
H58	H	0.236114	-1.478824	-0.552915
H59	H	-0.236185	-1.478743	-0.552917
H60	H	-0.450402	-1.481856	-0.434075
H61	H	-0.236174	-1.491358	-0.077515
H62	H	-0.450415	-1.488144	-0.196367
