data_functionalizedCrystal
_audit_creation_method	'MofGen! by Chris Wilmer'
_symmetry_space_group_name_H-M	'P1'
_symmetry_Int_Tables_number	1
_symmetry_cell_setting	triclinic
loop_
_symmetry_equiv_pos_as_xyz
  x,y,z
_cell_length_a	19.288855
_cell_length_b	16.992697
_cell_length_c	16.053802
_cell_angle_alpha	87.249882
_cell_angle_beta	92.553915
_cell_angle_gamma	86.900347
loop_
_atom_site_label
_atom_site_type_symbol
_atom_site_fract_x
_atom_site_fract_y
_atom_site_fract_z
O1	O	-0.144518	-1.043177	0.069316
O2	O	0.188815	-0.709844	0.402649
O3	O	0.522148	-0.376511	0.735983
O4	O	-0.142901	-0.814899	0.069344
O5	O	0.190432	-0.481566	0.402678
O6	O	0.523765	-0.148233	0.736011
O7	O	-0.042964	-0.935638	0.069318
O8	O	0.290369	-0.602305	0.402652
O9	O	0.623703	-0.268971	0.735985
O10	O	-0.244455	-0.922439	0.069342
O11	O	0.088878	-0.589105	0.402675
O12	O	0.422211	-0.255772	0.736009
O13	O	-0.048441	-0.928992	-0.069539
O14	O	0.284893	-0.595659	0.263794
O15	O	0.618226	-0.262326	0.597128
O16	O	-0.148378	-0.808254	-0.069513
O17	O	0.184956	-0.474920	0.263820
O18	O	0.518289	-0.141587	0.597153
O19	O	-0.149995	-1.036532	-0.069541
O20	O	0.183339	-0.703198	0.263792
O21	O	0.516672	-0.369865	0.597125
Zn22	Zn	-0.150056	-0.921337	-0.091574
Zn23	Zn	0.183277	-0.588004	0.241759
Zn24	Zn	0.516611	-0.254671	0.575093
Zn25	Zn	-0.142840	-0.930093	0.091377
Zn26	Zn	0.190493	-0.596760	0.424710
Zn27	Zn	0.523827	-0.263427	0.758043
O28	O	-0.249932	-0.915793	-0.069516
O29	O	0.083401	-0.582460	0.263818
O30	O	0.416735	-0.249126	0.597151
C31	C	-0.143561	-0.782371	-0.000081
C32	C	0.189772	-0.449038	0.333252
C33	C	0.523106	-0.115705	0.666586
C34	C	-0.137360	-0.695350	-0.000071
C35	C	0.195973	-0.362017	0.333262
C36	C	0.529307	-0.028683	0.666596
C37	C	-0.197188	-0.644896	-0.000064
C38	C	0.136146	-0.311563	0.333270
C39	C	0.469479	0.021771	0.666603
C40	C	-0.191358	-0.563130	-0.000075
C41	C	0.141976	-0.229796	0.333259
C42	C	0.475309	0.103537	0.666592
C43	C	-0.125699	-0.531819	-0.000087
C44	C	0.207634	-0.198486	0.333247
C45	C	0.540968	0.134847	0.666580
C46	C	-0.065867	-0.582279	-0.000096
C47	C	0.267467	-0.248946	0.333237
C48	C	0.600800	0.084387	0.666570
C49	C	-0.071697	-0.664044	-0.000091
C50	C	0.261636	-0.330710	0.333242
C51	C	0.594969	0.002623	0.666575
C52	C	-0.101532	-0.288307	-0.000108
C53	C	0.231801	0.045026	0.333225
C54	C	0.565135	0.378360	0.666559
C55	C	-0.095706	-0.206536	-0.000110
C56	C	0.237628	0.126797	0.333223
C57	C	0.570961	0.460131	0.666556
C58	C	-0.221197	-0.187392	-0.000091
C59	C	0.112136	0.145941	0.333243
C60	C	0.445469	0.479275	0.666576
C61	C	-0.227022	-0.269159	-0.000081
C62	C	0.106311	0.064174	0.333253
C63	C	0.439644	0.397507	0.666586
C64	C	-0.167190	-0.319612	-0.000094
C65	C	0.166143	0.013721	0.333239
C66	C	0.499476	0.347055	0.666572
N67	N	-0.119738	-0.448241	-0.000095
N68	N	0.213595	-0.114908	0.333238
N69	N	0.546929	0.218425	0.666571
N70	N	-0.173152	-0.403188	-0.000092
N71	N	0.160181	-0.069855	0.333241
N72	N	0.493515	0.263479	0.666575
C73	C	-0.019801	-0.931892	-0.000111
C74	C	0.313532	-0.598558	0.333222
C75	C	0.646866	-0.265225	0.666555
C76	C	0.057377	-0.930620	-0.000114
C77	C	0.390710	-0.597287	0.333219
C78	C	0.724043	-0.263954	0.666552
C79	C	0.096607	-0.933650	0.075577
C80	C	0.429941	-0.600316	0.408910
C81	C	0.763274	-0.266983	0.742244
C82	C	0.169124	-0.932444	0.075583
C83	C	0.502457	-0.599111	0.408916
C84	C	0.835791	-0.265778	0.742249
C85	C	0.202408	-0.928225	-0.000107
C86	C	0.535741	-0.594892	0.333226
C87	C	0.869075	-0.261559	0.666560
C88	C	0.163168	-0.925191	-0.075808
C89	C	0.496501	-0.591858	0.257525
C90	C	0.829835	-0.258525	0.590858
C91	C	0.090652	-0.926389	-0.075812
C92	C	0.423986	-0.593055	0.257522
C93	C	0.757319	-0.259722	0.590855
C94	C	0.317787	-0.969470	-0.058096
C95	C	0.651120	-0.636136	0.275237
C96	C	0.984453	-0.302803	0.608570
C97	C	0.390301	-0.968277	-0.058090
C98	C	0.723635	-0.634944	0.275244
C99	C	1.056968	-0.301611	0.608577
C100	C	0.426070	-0.924528	-0.000099
C101	C	0.759403	-0.591195	0.333234
C102	C	1.092736	-0.257862	0.666567
C103	C	0.389316	-0.881983	0.057898
C104	C	0.722649	-0.548649	0.391232
C105	C	1.055982	-0.215316	0.724565
C106	C	0.316800	-0.883180	0.057895
C107	C	0.650133	-0.549847	0.391228
C108	C	0.983467	-0.216513	0.724562
C109	C	0.281039	-0.926926	-0.000112
C110	C	0.614372	-0.593593	0.333222
C111	C	0.947705	-0.260259	0.666555
C112	C	0.543931	-0.926250	0.075603
C113	C	0.877265	-0.592916	0.408937
C114	C	1.210598	-0.259583	0.742270
C115	C	0.616449	-0.925039	0.075606
C116	C	0.949782	-0.591706	0.408939
C117	C	1.283115	-0.258373	0.742272
C118	C	0.610492	-0.917794	-0.075787
C119	C	0.943825	-0.584461	0.257546
C120	C	1.277159	-0.251127	0.590880
C121	C	0.537975	-0.918997	-0.075788
C122	C	0.871309	-0.585663	0.257546
C123	C	1.204642	-0.252330	0.590879
C124	C	0.504700	-0.923228	-0.000090
C125	C	0.838033	-0.589895	0.333243
C126	C	1.171366	-0.256562	0.666577
C127	C	0.726905	-0.919541	-0.000086
C128	C	1.060239	-0.586208	0.333247
C129	C	1.393572	-0.252875	0.666580
C130	C	0.649728	-0.920819	-0.000085
C131	C	0.983061	-0.587486	0.333249
C132	C	1.316394	-0.254152	0.666582
C133	C	-0.149334	-0.069060	-0.000110
C134	C	0.183999	0.264274	0.333223
C135	C	0.517332	0.597607	0.666556
C136	C	-0.155534	-0.156082	-0.000103
C137	C	0.177800	0.177251	0.333230
C138	C	0.511133	0.510584	0.666563
N139	N	-0.154980	-0.915367	-0.216433
N140	N	0.178353	-0.582034	0.116900
N141	N	0.511686	-0.248701	0.450234
C142	C	-0.112474	-0.966761	-0.260138
C143	C	0.220859	-0.633427	0.073195
C144	C	0.554193	-0.300094	0.406529
C145	C	-0.115926	-0.962592	-0.347544
C146	C	0.217408	-0.629258	-0.014210
C147	C	0.550741	-0.295925	0.319123
C148	C	-0.161888	-0.907033	-0.391243
C149	C	0.171446	-0.573700	-0.057910
C150	C	0.504779	-0.240366	0.275424
C151	C	-0.204396	-0.855634	-0.347532
C152	C	0.128938	-0.522301	-0.014199
C153	C	0.462271	-0.188968	0.319135
C154	C	-0.200940	-0.859800	-0.260128
C155	C	0.132393	-0.526467	0.073205
C156	C	0.465727	-0.193133	0.406539
C157	C	-0.176963	-0.888837	-0.652649
C158	C	0.156371	-0.555503	-0.319316
C159	C	0.489704	-0.222170	0.014018
C160	C	-0.180417	-0.884677	-0.740059
C161	C	0.152917	-0.551343	-0.406726
C162	C	0.486250	-0.218010	-0.073393
C163	C	-0.091946	-0.991633	-0.740065
C164	C	0.241388	-0.658300	-0.406732
C165	C	0.574721	-0.324967	-0.073398
C166	C	-0.088497	-0.995797	-0.652659
C167	C	0.244836	-0.662464	-0.319326
C168	C	0.578170	-0.329131	0.014008
C169	C	-0.131002	-0.944396	-0.608956
C170	C	0.202331	-0.611063	-0.275622
C171	C	0.535664	-0.277729	0.057711
N172	N	-0.165418	-0.902772	-0.480586
N173	N	0.167915	-0.569439	-0.147253
N174	N	0.501248	-0.236105	0.186081
N175	N	-0.127467	-0.948654	-0.519614
N176	N	0.205866	-0.615320	-0.186281
N177	N	0.539199	-0.281987	0.147052
N178	N	-0.137911	-0.936070	0.216236
N179	N	0.195423	-0.602736	0.549569
N180	N	0.528756	-0.269403	0.882902
H181	H	-0.012406	-0.556779	-0.000118
H182	H	0.320927	-0.223446	0.333215
H183	H	0.654261	0.109887	0.666549
O184	O	-0.024885	-0.172761	-0.000135
O185	O	0.308448	0.160573	0.333198
O186	O	0.641782	0.493906	0.666531
H187	H	0.006326	-0.195748	0.056449
H188	H	0.339659	0.137585	0.389782
H189	H	0.672993	0.470918	0.723116
H190	H	-0.052812	-0.329376	-0.000120
H191	H	0.280521	0.003957	0.333213
H192	H	0.613854	0.337290	0.666547
H193	H	0.648389	-0.927502	0.137245
H194	H	0.981723	-0.594169	0.470578
H195	H	1.315056	-0.260836	0.803912
H196	H	-0.022979	-0.705123	-0.000097
H197	H	0.310354	-0.371790	0.333237
H198	H	0.643688	-0.038457	0.666570
O199	O	0.199071	-0.920647	-0.157442
O200	O	0.532404	-0.587314	0.175892
O201	O	0.865737	-0.253980	0.509225
H202	H	0.180508	-0.865716	-0.193731
H203	H	0.513842	-0.532382	0.139602
H204	H	0.847175	-0.199049	0.472936
H205	H	-0.235552	-0.817949	-0.224544
H206	H	0.097781	-0.484616	0.108789
H207	H	0.431115	-0.151283	0.442123
H208	H	0.058711	-0.923918	-0.137450
H209	H	0.392044	-0.590585	0.195883
H210	H	0.725377	-0.257252	0.529216
H211	H	-0.081313	-1.004439	-0.383128
H212	H	0.252020	-0.671106	-0.049795
H213	H	0.585353	-0.337773	0.283539
H214	H	-0.057339	-1.033481	-0.775656
H215	H	0.275994	-0.700148	-0.442323
H216	H	0.609328	-0.366814	-0.108990
O217	O	-0.255886	-0.508709	-0.000068
O218	O	0.077448	-0.175375	0.333266
O219	O	0.410781	0.157958	0.666599
H220	H	-0.302521	-0.544218	-0.000048
H221	H	0.030812	-0.210885	0.333285
H222	H	0.364146	0.122449	0.666618
O223	O	-0.297841	-0.302930	-0.000089
O224	O	0.035492	0.030404	0.333245
O225	O	0.368826	0.363737	0.666578
H226	H	-0.338466	-0.254108	-0.000099
H227	H	-0.005132	0.079226	0.333235
H228	H	0.328201	0.412559	0.666568
H229	H	-0.269909	-0.146305	-0.000081
H230	H	0.063424	0.187028	0.333252
H231	H	0.396757	0.520362	0.666586
H232	H	-0.075050	-1.012006	-0.224564
H233	H	0.258283	-0.678672	0.108770
H234	H	0.591617	-0.345339	0.442103
O235	O	0.060714	-0.938194	0.157218
O236	O	0.394047	-0.604860	0.490551
O237	O	0.727381	-0.271527	0.823884
H238	H	0.100181	-0.940087	0.209852
H239	H	0.433514	-0.606754	0.543186
H240	H	0.766847	-0.273420	0.876519
O241	O	0.211451	-0.935714	0.157223
O242	O	0.544784	-0.602380	0.490556
O243	O	0.878118	-0.269047	0.823890
H244	H	0.176130	-0.938860	0.209858
H245	H	0.509463	-0.605527	0.543192
H246	H	0.842796	-0.272194	0.876525
O247	O	-0.038918	-1.055715	-0.605525
O248	O	0.294416	-0.722381	-0.272192
O249	O	0.627749	-0.389048	0.061142
H250	H	-0.009934	-1.090747	-0.650601
H251	H	0.323399	-0.757413	-0.317268
H252	H	0.656733	-0.424080	0.016066
H253	H	0.286878	-0.848536	0.105117
H254	H	0.620211	-0.515203	0.438450
H255	H	0.953544	-0.181870	0.771784
O256	O	-0.229983	-0.824741	-0.787198
O257	O	0.103350	-0.491407	-0.453864
O258	O	0.436683	-0.158074	-0.120531
H259	H	-0.258953	-0.789690	-0.742125
H260	H	0.074380	-0.456357	-0.408792
H261	H	0.407713	-0.123024	-0.075458
H262	H	0.418437	-0.846358	0.105120
H263	H	0.751770	-0.513025	0.438453
H264	H	1.085103	-0.179691	0.771787
O265	O	0.508031	-0.930798	0.157242
O266	O	0.841365	-0.597465	0.490576
O267	O	1.174698	-0.264132	0.823909
H268	H	0.547496	-0.932687	0.209878
H269	H	0.880830	-0.599354	0.543212
H270	H	1.214163	-0.266021	0.876545
O271	O	0.646379	-0.913249	-0.157428
O272	O	0.979712	-0.579916	0.175905
O273	O	1.313046	-0.246583	0.509239
H274	H	0.703396	-0.912931	-0.144711
H275	H	1.036729	-0.579598	0.188622
H276	H	1.370062	-0.246265	0.521956
H277	H	-0.211574	-0.846985	-0.617072
H278	H	0.121760	-0.513652	-0.283739
H279	H	0.455093	-0.180318	0.049594
O280	O	0.495663	-0.915744	-0.157432
O281	O	0.828997	-0.582410	0.175902
O282	O	1.162330	-0.249077	0.509235
H283	H	0.459259	-0.862693	-0.161056
H284	H	0.792593	-0.529360	0.172277
H285	H	1.125926	-0.196027	0.505611
O286	O	-0.253974	-0.795711	-0.394659
O287	O	0.079360	-0.462378	-0.061325
O288	O	0.412693	-0.129044	0.272008
H289	H	-0.249243	-0.801454	-0.462779
H290	H	0.084090	-0.468121	-0.129446
H291	H	0.417424	-0.134787	0.203887
H292	H	-0.250654	-0.670382	-0.000053
H293	H	0.082679	-0.337049	0.333280
H294	H	0.416012	-0.003716	0.666613
H295	H	0.420221	-1.002924	-0.105312
H296	H	0.753555	-0.669590	0.228022
H297	H	1.086888	-0.336257	0.561355
H298	H	0.288670	-1.005094	-0.105325
H299	H	0.622003	-0.671761	0.228008
H300	H	0.955337	-0.338428	0.561341
