data_functionalizedCrystal
_audit_creation_method	'MofGen! by Chris Wilmer'
_symmetry_space_group_name_H-M	'P1'
_symmetry_Int_Tables_number	1
_symmetry_cell_setting	triclinic
loop_
_symmetry_equiv_pos_as_xyz
  x,y,z
_cell_length_a	23.196402
_cell_length_b	23.196402
_cell_length_c	15.698487
_cell_angle_alpha	90.001526
_cell_angle_beta	60.001696
_cell_angle_gamma	120.000087
loop_
_atom_site_label
_atom_site_type_symbol
_atom_site_fract_x
_atom_site_fract_y
_atom_site_fract_z
Zr1	Zr	-0.631000	0.555384	0.111779
O2	O	-0.751264	0.463337	0.247785
O3	O	-0.510734	0.583599	0.070089
O4	O	-0.630997	0.583604	0.247794
O5	O	-0.631003	0.463331	-0.070101
O6	O	-0.630997	0.678475	0.247797
O7	O	-0.631001	0.463333	0.070080
O8	O	-0.415868	0.678466	-0.070085
O9	O	-0.846132	0.463340	0.247781
O10	O	-0.560201	0.666436	0.052307
O11	O	-0.560203	0.595634	-0.052311
O12	O	-0.701798	0.595640	0.156914
O13	O	-0.701800	0.524838	0.052296
Zr14	Zr	-0.631003	0.706690	-0.111789
Zr15	Zr	-0.630999	0.706692	0.111784
Zr16	Zr	-0.631003	0.555382	-0.111794
Zr17	Zr	-0.782303	0.555388	0.111772
Zr18	Zr	-0.479699	0.706686	-0.111783
O19	O	-0.751269	0.678475	-0.070099
O20	O	-0.751263	0.678478	0.247792
O21	O	-0.751269	0.463334	-0.070106
O22	O	-0.510739	0.798736	-0.247796
O23	O	-0.510734	0.798740	0.070096
O24	O	-0.510739	0.583596	-0.247803
O25	O	-0.631000	0.798743	0.070091
O26	O	-0.631005	0.678470	-0.247805
O27	O	-0.631006	0.583599	-0.247808
O28	O	-0.631002	0.798741	-0.070090
O29	O	-0.846132	0.583609	0.247785
O30	O	-0.415871	0.678464	-0.247796
O31	O	-0.415871	0.798734	-0.247792
O32	O	-0.415868	0.798736	-0.070081
O33	O	-0.846135	0.463338	0.070071
O34	O	-0.846135	0.583608	0.070075
O35	O	-0.560205	0.666434	-0.156924
O36	O	-0.560203	0.737236	-0.052306
O37	O	-0.701799	0.666440	0.052301
O38	O	-0.701801	0.595638	-0.052317
C39	C	-0.441744	0.631032	0.000003
C40	C	-0.377511	0.631030	0.000005
C41	C	-0.631002	0.441774	-0.000012
C42	C	-0.631002	0.377540	-0.000014
C43	C	0.033070	0.578787	0.077232
C44	C	-0.027287	0.578781	0.077231
C45	C	-0.005206	0.631044	0.000007
C46	C	0.077241	0.683307	-0.077236
C47	C	0.137595	0.683307	-0.077238
C48	C	-0.060785	0.694837	-0.024059
C49	C	-0.121141	0.694837	-0.024050
C50	C	-0.191358	0.631043	0.000008
C51	C	-0.201221	0.567244	0.024078
C52	C	-0.140867	0.567245	0.024076
C53	C	-0.070645	0.631049	0.000000
C54	C	-0.339241	0.578774	0.077239
C55	C	-0.399597	0.578767	0.077231
C56	C	-0.295066	0.683299	-0.077232
C57	C	-0.234713	0.683300	-0.077227
C58	C	-0.256805	0.631038	0.000014
C59	C	0.179739	0.631042	-0.000008
C60	C	0.115503	0.631045	0.000003
C61	C	-0.631012	-0.085301	-0.077216
C62	C	-0.631006	-0.024943	-0.077225
C63	C	-0.631006	0.005239	0.000003
C64	C	-0.630990	-0.024931	0.077229
C65	C	-0.630988	-0.085283	0.077230
C66	C	-0.678510	0.077106	0.094263
C67	C	-0.678518	0.137455	0.094263
C68	C	-0.631010	0.191388	0.000003
C69	C	-0.583506	0.184958	-0.094265
C70	C	-0.583503	0.124606	-0.094265
C71	C	-0.631008	0.070681	0.000011
C72	C	-0.631014	0.286999	-0.077232
C73	C	-0.631004	0.347361	-0.077241
C74	C	-0.630996	0.347368	0.077221
C75	C	-0.630998	0.287012	0.077222
C76	C	-0.631011	0.256829	-0.000004
C77	C	-0.630997	0.631040	0.279650
C78	C	-0.630995	0.631041	0.374563
C79	C	-0.631001	0.820300	0.000001
C80	C	-0.631001	0.884534	0.000003
C81	C	-0.630993	0.631041	0.451642
C82	C	-0.630998	0.631041	0.548346
C83	C	-0.631006	0.631035	0.720339
C84	C	-0.631007	0.631038	0.625427
C85	C	-0.441743	0.820295	0.000009
C86	C	-0.377511	0.884528	0.000014
C87	C	-0.441748	0.631029	-0.279653
C88	C	-0.377517	0.631027	-0.374562
C89	C	-0.441748	0.820292	-0.279646
C90	C	-0.377517	0.884524	-0.374554
C91	C	-0.820255	0.441781	0.279636
C92	C	-0.884486	0.377550	0.374543
C93	C	-0.820260	0.441779	-0.000020
C94	C	-0.884492	0.377546	-0.000024
C95	C	-0.820255	0.631044	0.279642
C96	C	-0.884485	0.631047	0.374552
C97	C	-0.347345	0.877735	0.054633
C98	C	-0.287000	0.938083	0.054658
C99	C	-0.256818	1.005222	0.000058
C100	C	-0.286989	1.012013	-0.054562
C101	C	-0.347337	0.951666	-0.054581
C102	C	-0.347355	0.667982	-0.473749
C103	C	-0.287011	0.667977	-0.562936
C104	C	-0.256828	0.631020	-0.552933
C105	C	-0.286996	0.594060	-0.453735
C106	C	-0.347343	0.594061	-0.364551
C107	C	-0.347352	0.951652	-0.364514
C108	C	-0.287009	1.012010	-0.453681
C109	C	-0.256827	1.005239	-0.552887
C110	C	-0.286997	0.938104	-0.562925
C111	C	-0.347344	0.877747	-0.473759
C112	C	-0.914658	0.310422	0.364504
C113	C	-0.975020	0.250063	0.453671
C114	C	-1.005205	0.256835	0.552877
C115	C	-0.975031	0.323970	0.562915
C116	C	-0.914674	0.384327	0.473749
C117	C	-0.914664	0.384339	-0.054634
C118	C	-0.975025	0.323991	-0.054635
C119	C	-1.005210	0.256852	-0.000031
C120	C	-0.975036	0.250060	0.054585
C121	C	-0.914680	0.310407	0.054591
C122	C	-0.914650	0.668011	0.364516
C123	C	-0.974994	0.668027	0.453685
C124	C	-1.005176	0.631075	0.552890
C125	C	-0.975005	0.594110	0.562924
C126	C	-0.914659	0.594098	0.473756
H127	H	0.015074	0.536229	0.140125
H128	H	-0.207678	1.054355	0.000081
H129	H	-0.890085	0.698102	0.283746
Br130	Br	-0.630983	0.388331	0.182022
Br131	Br	-0.388297	0.786625	0.128745
Br132	Br	-1.015929	0.718195	0.440042
H133	H	-0.890106	0.563994	0.481942
H134	H	-1.054352	0.207683	0.625473
H135	H	-0.262405	1.066686	-0.099015
H136	H	-0.207690	0.631025	-0.625561
H137	H	-1.054314	0.631090	0.625488
Br138	Br	-0.154249	0.480667	0.056734
H139	H	-0.262412	0.563971	-0.445606
Br140	Br	-1.015957	0.158961	0.440023
Br141	Br	-1.015983	0.543956	0.697567
H142	H	-0.094417	0.536216	0.140109
H143	H	-0.371893	0.563970	-0.283792
H144	H	-0.357230	0.536217	0.140132
Br145	Br	-1.016008	0.158937	0.128681
H146	H	-0.371917	0.957179	-0.283743
Br147	Br	-1.016003	0.333148	0.697560
Br148	Br	-0.388263	0.960898	-0.128720
Br149	Br	-1.087124	0.174958	-0.000051
Br150	Br	-0.246065	0.928849	0.128788
Br151	Br	-0.742996	0.146171	0.222194
H152	H	-0.890092	0.439001	-0.099105
Br153	Br	-0.246074	1.103113	-0.440034
Br154	Br	-0.873737	0.301176	0.128706
Br155	Br	-0.873730	0.475427	0.487393
H156	H	-0.258395	0.515297	0.043670
Br157	Br	-0.174927	1.087160	-0.673890
H158	H	-0.630994	0.262448	0.140105
H159	H	-0.262455	0.698077	-0.643698
Br160	Br	-0.511478	0.507832	0.182041
H161	H	-0.717195	0.033198	0.171028
H162	H	-0.277086	0.725850	-0.140114
Br163	Br	-0.631020	0.016003	-0.182033
H164	H	-0.167590	0.725857	-0.140112
Br165	Br	-0.388301	0.718148	-0.487354
H166	H	-0.113106	0.746784	-0.043642
Br167	Br	0.034502	0.781421	-0.056694
Br168	Br	-0.246028	0.928926	-0.697571
H169	H	-0.544821	0.228870	-0.171021
Br170	Br	-0.388270	0.786647	-0.487404
Br171	Br	0.107210	0.754232	-0.182047
H172	H	-0.631020	-0.109873	-0.140101
Br173	Br	0.249477	0.754234	-0.182059
Br174	Br	-1.015961	0.333224	-0.128764
Br175	Br	-0.519034	0.115881	-0.222191
Br176	Br	-0.631028	0.246038	-0.182041
H177	H	-0.890085	0.304895	0.283733
H178	H	-0.630988	-0.000352	0.140108
Br179	Br	-0.631008	0.388307	-0.182055
H180	H	-0.630978	-0.109844	0.140112
