data_functionalizedCrystal
_audit_creation_method	'MofGen! by Chris Wilmer'
_symmetry_space_group_name_H-M	'P1'
_symmetry_Int_Tables_number	1
_symmetry_cell_setting	triclinic
loop_
_symmetry_equiv_pos_as_xyz
  x,y,z
_cell_length_a	23.532407
_cell_length_b	15.944551
_cell_length_c	15.021413
_cell_angle_alpha	89.996935
_cell_angle_beta	90.001925
_cell_angle_gamma	83.173708
loop_
_atom_site_label
_atom_site_type_symbol
_atom_site_fract_x
_atom_site_fract_y
_atom_site_fract_z
O1	O	-0.755658	-0.101953	-0.073923
O2	O	-0.422324	0.231380	0.259410
O3	O	-0.088991	0.564713	0.592744
O4	O	-0.589851	-0.116707	-0.073949
O5	O	-0.256518	0.216627	0.259384
O6	O	0.076815	0.549960	0.592717
O7	O	-0.677282	0.012983	-0.073927
O8	O	-0.343949	0.346316	0.259406
O9	O	-0.010616	0.679650	0.592739
O10	O	-0.668227	-0.231643	-0.073945
O11	O	-0.334893	0.101690	0.259388
O12	O	-0.001560	0.435024	0.592722
O13	O	-0.677268	0.012965	0.074137
O14	O	-0.343935	0.346298	0.407470
O15	O	-0.010602	0.679631	0.740804
O16	O	-0.589838	-0.116725	0.074115
O17	O	-0.256504	0.216608	0.407448
O18	O	0.076829	0.549942	0.740782
O19	O	-0.755644	-0.101972	0.074141
O20	O	-0.422310	0.231362	0.407475
O21	O	-0.088977	0.564695	0.740808
Zn22	Zn	-0.672738	-0.109351	0.097636
Zn23	Zn	-0.339405	0.223982	0.430970
Zn24	Zn	-0.006072	0.557315	0.764303
Zn25	Zn	-0.672757	-0.109327	-0.097444
Zn26	Zn	-0.339423	0.224006	0.235889
Zn27	Zn	-0.006090	0.557340	0.569222
O28	O	-0.668213	-0.231661	0.074119
O29	O	-0.334880	0.101672	0.407453
O30	O	-0.001546	0.435005	0.740786
C31	C	-0.676899	0.044265	0.000105
C32	C	-0.343566	0.377598	0.333438
C33	C	-0.010233	0.710931	0.666771
C34	C	-0.675772	0.137501	0.000105
C35	C	-0.342439	0.470834	0.333438
C36	C	-0.009106	0.804168	0.666772
C37	C	-0.568627	-0.116340	0.000080
C38	C	-0.235294	0.216993	0.333413
C39	C	0.098040	0.550326	0.666746
C40	C	-0.505406	-0.115211	0.000070
C41	C	-0.172072	0.218123	0.333403
C42	C	0.161261	0.551456	0.666736
C43	C	-0.776868	-0.102338	0.000111
C44	C	-0.443535	0.230995	0.333444
C45	C	-0.110202	0.564329	0.666777
C46	C	-0.840090	-0.103468	0.000115
C47	C	-0.506756	0.229866	0.333448
C48	C	-0.173423	0.563199	0.666781
C49	C	-0.106572	-0.184874	0.000105
C50	C	0.226761	0.148460	0.333438
C51	C	0.560094	0.481793	0.666772
C52	C	-0.047168	-0.183824	0.000111
C53	C	0.286165	0.149509	0.333444
C54	C	0.619499	0.482842	0.666777
O55	O	-0.010674	-0.248403	0.000138
O56	O	0.322660	0.084931	0.333472
O57	O	0.655993	0.418264	0.666805
N58	N	-0.024243	-0.106724	0.000115
N59	N	0.309090	0.226610	0.333448
N60	N	0.642423	0.559943	0.666781
C61	C	-0.060726	-0.030668	0.000122
C62	C	0.272607	0.302666	0.333455
C63	C	0.605940	0.635999	0.666789
O64	O	-0.035772	0.035009	0.000127
O65	O	0.297561	0.368342	0.333460
O66	O	0.630895	0.701675	0.666794
C67	C	-0.120129	-0.031718	0.000123
C68	C	0.213204	0.301615	0.333456
C69	C	0.546537	0.634949	0.666790
C70	C	-0.143051	-0.108823	0.000110
C71	C	0.190283	0.224510	0.333443
C72	C	0.523616	0.557843	0.666777
C73	C	-0.129494	-0.261973	0.000093
C74	C	0.203839	0.071361	0.333426
C75	C	0.537172	0.404694	0.666760
C76	C	-0.188894	-0.263022	0.000086
C77	C	0.144439	0.070312	0.333419
C78	C	0.477772	0.403645	0.666752
C79	C	-0.225373	-0.186971	0.000091
C80	C	0.107961	0.146362	0.333424
C81	C	0.441294	0.479695	0.666757
C82	C	-0.202451	-0.109872	0.000103
C83	C	0.130882	0.223461	0.333436
C84	C	0.464216	0.556794	0.666769
C85	C	-0.156611	0.044337	0.000137
C86	C	0.176722	0.377671	0.333470
C87	C	0.510055	0.711004	0.666804
C88	C	-0.216018	0.043281	0.000138
C89	C	0.117316	0.376614	0.333472
C90	C	0.450649	0.709947	0.666805
C91	C	-0.238939	-0.033825	0.000125
C92	C	0.094394	0.299508	0.333459
C93	C	0.427728	0.632842	0.666792
C94	C	-0.298329	-0.034871	0.000100
C95	C	0.035004	0.298462	0.333434
C96	C	0.368337	0.631796	0.666767
N97	N	-0.321254	-0.111971	0.000096
N98	N	0.012079	0.221362	0.333430
N99	N	0.345412	0.554695	0.666763
C100	C	-0.284776	-0.188022	0.000092
C101	C	0.048557	0.145312	0.333425
C102	C	0.381891	0.478645	0.666758
C103	C	0.064025	-0.028468	0.000122
C104	C	0.397358	0.304865	0.333455
C105	C	0.730692	0.638199	0.666789
C106	C	0.123427	-0.027417	0.000115
C107	C	0.456760	0.305916	0.333448
C108	C	0.790094	0.639250	0.666781
C109	C	0.136981	-0.180574	0.000105
C110	C	0.470314	0.152759	0.333438
C111	C	0.803648	0.486093	0.666771
C112	C	0.077578	-0.181624	0.000106
C113	C	0.410911	0.151709	0.333439
C114	C	0.744244	0.485043	0.666772
C115	C	0.041100	-0.105569	0.000118
C116	C	0.374433	0.227765	0.333451
C117	C	0.707767	0.561098	0.666785
C118	C	-0.409521	-0.190219	0.000076
C119	C	-0.076188	0.143115	0.333409
C120	C	0.257145	0.476448	0.666742
C121	C	-0.468927	-0.191261	0.000065
C122	C	-0.135594	0.142072	0.333398
C123	C	0.197739	0.475406	0.666731
C124	C	-0.482476	-0.038104	0.000079
C125	C	-0.149143	0.295229	0.333413
C126	C	0.184191	0.628562	0.666746
C127	C	-0.423075	-0.037062	0.000086
C128	C	-0.089742	0.296272	0.333419
C129	C	0.243591	0.629605	0.666752
C130	C	-0.386599	-0.113126	0.000087
C131	C	-0.053265	0.220208	0.333420
C132	C	0.280068	0.553541	0.666753
O133	O	-0.334859	0.029673	0.000076
O134	O	-0.001525	0.363007	0.333410
O135	O	0.331808	0.696340	0.666743
O136	O	-0.309738	-0.253687	0.000098
O137	O	0.023595	0.079646	0.333432
O138	O	0.356928	0.412980	0.666765
C139	C	-0.668596	-0.262943	0.000085
C140	C	-0.335262	0.070390	0.333419
C141	C	-0.001929	0.403724	0.666752
C142	C	-0.669723	-0.356179	0.000079
C143	C	-0.336389	-0.022846	0.333412
C144	C	-0.003056	0.310487	0.666746
N145	N	-0.672730	-0.109367	0.230774
N146	N	-0.339397	0.223966	0.564107
N147	N	-0.006063	0.557299	0.897441
C148	C	-0.618885	0.351879	0.000084
C149	C	-0.285551	0.685212	0.333417
C150	C	0.047782	1.018545	0.666751
C151	C	-0.645295	0.413109	0.073093
C152	C	-0.311961	0.746443	0.406426
C153	C	0.021372	1.079776	0.739759
C154	C	-0.673733	0.308210	0.000098
C155	C	-0.340400	0.641543	0.333431
C156	C	-0.007067	0.974876	0.666765
C157	C	-0.645321	0.413111	-0.072887
C158	C	-0.311988	0.746444	0.260446
C159	C	0.021345	1.079778	0.593780
C160	C	-0.671760	0.473106	0.000087
C161	C	-0.338427	0.806439	0.333421
C162	C	-0.005093	1.139773	0.666754
C163	C	-0.700158	0.368212	0.073167
C164	C	-0.366825	0.701546	0.406500
C165	C	-0.033492	1.034879	0.739834
C166	C	-0.700177	0.368208	-0.072878
C167	C	-0.366844	0.701541	0.260455
C168	C	-0.033511	1.034875	0.593788
C169	C	-0.726627	0.429421	0.000148
C170	C	-0.393294	0.762755	0.333482
C171	C	-0.059961	1.096088	0.666815
C172	C	-0.674869	0.213217	0.000105
C173	C	-0.341535	0.546550	0.333438
C174	C	-0.008202	0.879884	0.666772
C175	C	-0.670629	0.568097	0.000087
C176	C	-0.337296	0.901431	0.333420
C177	C	-0.003962	1.234764	0.666753
N178	N	-0.672770	-0.109304	-0.230582
N179	N	-0.339436	0.224029	0.102751
N180	N	-0.006103	0.557363	0.436085
C181	C	-0.632296	-0.169308	0.470447
C182	C	-0.298962	0.164025	0.803781
C183	C	0.034371	0.497359	1.137114
C184	C	-0.683757	-0.185181	0.529789
C185	C	-0.350423	0.148152	0.863122
C186	C	-0.017090	0.481485	1.196455
C187	C	-0.672745	-0.109346	0.412381
C188	C	-0.339411	0.223987	0.745714
C189	C	-0.006078	0.557320	1.079048
C190	C	-0.621298	-0.093492	0.529781
C191	C	-0.287964	0.239842	0.863115
C192	C	0.045369	0.573175	1.196448
C193	C	-0.672754	-0.109328	0.587805
C194	C	-0.339421	0.224005	0.921138
C195	C	-0.006087	0.557339	1.254472
C196	C	-0.724232	-0.125257	0.470416
C197	C	-0.390898	0.208076	0.803749
C198	C	-0.057565	0.541409	1.137083
C199	C	-0.661739	-0.033535	0.470403
C200	C	-0.328405	0.299798	0.803737
C201	C	0.004928	0.633132	1.137070
C202	C	-0.713237	-0.049376	0.529718
C203	C	-0.379903	0.283958	0.863051
C204	C	-0.046570	0.617291	1.196385
C205	C	-0.672738	-0.109359	0.311324
C206	C	-0.339405	0.223974	0.644657
C207	C	-0.006072	0.557307	0.977990
C208	C	-0.672766	-0.109314	0.688860
C209	C	-0.339433	0.224019	1.022194
C210	C	-0.006100	0.557352	1.355527
H211	H	-0.487586	-0.254052	0.000054
H212	H	-0.154253	0.079281	0.333387
H213	H	0.179081	0.412615	0.666720
Br214	Br	-0.125519	0.148987	0.000135
Br215	Br	0.207814	0.482320	0.333468
Br216	Br	0.541147	0.815654	0.666802
Br217	Br	-0.770315	0.035160	0.572829
Br218	Br	-0.436982	0.368493	0.906162
Br219	Br	-0.103649	0.701826	1.239495
H220	H	-0.652405	0.030548	0.444298
H221	H	-0.319072	0.363882	0.777632
H222	H	0.014262	0.697215	1.110965
H223	H	-0.723332	0.348410	0.134958
H224	H	-0.389999	0.681743	0.468291
H225	H	-0.056665	1.015076	0.801625
H226	H	-0.577786	-0.080090	0.555861
H227	H	-0.244453	0.253243	0.889194
H228	H	0.088881	0.586577	1.222527
Br229	Br	-0.543004	0.295725	0.000184
Br230	Br	-0.209671	0.629059	0.333518
Br231	Br	0.123663	0.962392	0.666851
H232	H	-0.207551	-0.325809	0.000075
H233	H	0.125782	0.007525	0.333408
H234	H	0.459116	0.340858	0.666741
H235	H	-0.379828	-0.252157	0.000079
H236	H	-0.046495	0.081176	0.333413
H237	H	0.286838	0.414509	0.666746
H238	H	-0.622090	0.433014	0.134809
H239	H	-0.288757	0.766348	0.468142
H240	H	0.044577	1.099681	0.801475
H241	H	-0.512187	0.023814	0.000080
H242	H	-0.178854	0.357147	0.333413
H243	H	0.154479	0.690480	0.666747
Br244	Br	-0.079998	-0.365199	0.000086
Br245	Br	0.253335	-0.031865	0.333420
Br246	Br	0.586669	0.301468	0.666753
Br247	Br	-0.606649	0.446287	-0.175754
Br248	Br	-0.273315	0.779620	0.157580
Br249	Br	0.060018	1.112954	0.490913
Br250	Br	-0.802574	0.485331	0.000223
Br251	Br	-0.469241	0.818664	0.333556
Br252	Br	-0.135907	1.151998	0.666890
Br253	Br	0.046477	-0.286270	0.000088
Br254	Br	0.379810	0.047063	0.333422
Br255	Br	0.713144	0.380396	0.666755
H256	H	-0.723362	0.348281	-0.134597
H257	H	-0.390029	0.681614	0.198736
H258	H	-0.056695	1.014947	0.532069
Br259	Br	-0.575340	-0.253886	0.427066
Br260	Br	-0.242007	0.079447	0.760399
Br261	Br	0.091326	0.412780	1.093733
Br262	Br	-0.699289	-0.292024	0.573264
Br263	Br	-0.365956	0.041310	0.906598
Br264	Br	-0.032623	0.374643	1.239931
H265	H	-0.767753	-0.138736	0.444449
H266	H	-0.434419	0.194597	0.777782
H267	H	-0.101086	0.527931	1.111115
H268	H	0.142084	0.035370	0.000111
H269	H	0.475417	0.368703	0.333445
H270	H	0.808750	0.702037	0.666778
Br271	Br	0.186499	-0.283786	0.000100
Br272	Br	0.519832	0.049547	0.333434
Br273	Br	0.853165	0.382881	0.666767
Br274	Br	-0.391966	0.067582	0.000106
Br275	Br	-0.058633	0.400915	0.333439
Br276	Br	0.274700	0.734248	0.666773
Br277	Br	0.014524	0.074761	0.000131
Br278	Br	0.347858	0.408094	0.333464
Br279	Br	0.681191	0.741427	0.666797
H280	H	-0.245716	0.105216	0.000149
H281	H	0.087618	0.438549	0.333482
H282	H	0.420951	0.771882	0.666816
