data_functionalizedCrystal
_audit_creation_method	'MofGen! by Chris Wilmer'
_symmetry_space_group_name_H-M	'P1'
_symmetry_Int_Tables_number	1
_symmetry_cell_setting	triclinic
loop_
_symmetry_equiv_pos_as_xyz
  x,y,z
_cell_length_a	18.050590
_cell_length_b	18.050590
_cell_length_c	16.625539
_cell_angle_alpha	90.029956
_cell_angle_beta	90.004910
_cell_angle_gamma	90.007719
loop_
_atom_site_label
_atom_site_type_symbol
_atom_site_fract_x
_atom_site_fract_y
_atom_site_fract_z
Zn1	Zn	1.135384	-0.295873	0.455563
Zn2	Zn	1.385384	-0.045873	0.705563
Zn3	Zn	1.635384	0.204127	0.955563
Zn4	Zn	1.885384	0.454127	1.205563
Zn5	Zn	1.135303	-0.420071	0.320726
Zn6	Zn	1.385303	-0.170071	0.570726
Zn7	Zn	1.635303	0.079929	0.820726
Zn8	Zn	1.885303	0.329929	1.070726
Zn9	Zn	1.011191	-0.295875	0.320780
Zn10	Zn	1.261191	-0.045875	0.570780
Zn11	Zn	1.511191	0.204125	0.820780
Zn12	Zn	1.761191	0.454125	1.070780
Zn13	Zn	1.011172	-0.420002	0.455553
Zn14	Zn	1.261172	-0.170002	0.705553
Zn15	Zn	1.511172	0.079998	0.955553
Zn16	Zn	1.761172	0.329998	1.205553
O17	O	1.073263	-0.357955	0.388156
O18	O	1.323263	-0.107955	0.638156
O19	O	1.573263	0.142045	0.888156
O20	O	1.823263	0.392045	1.138156
O21	O	1.239298	-0.312376	0.437658
O22	O	1.489298	-0.062376	0.687658
O23	O	1.739298	0.187624	0.937658
O24	O	1.989298	0.437624	1.187658
O25	O	1.118814	-0.403625	0.207901
O26	O	1.368814	-0.153625	0.457901
O27	O	1.618814	0.096375	0.707901
O28	O	1.868814	0.346375	0.957901
O29	O	1.027707	-0.191950	0.338686
O30	O	1.277707	0.058050	0.588686
O31	O	1.527707	0.308050	0.838686
O32	O	1.777707	0.558050	1.088686
O33	O	1.239239	-0.403623	0.338594
O34	O	1.489239	-0.153623	0.588594
O35	O	1.739239	0.096377	0.838594
O36	O	1.989239	0.346377	1.088594
O37	O	1.118951	-0.191949	0.437711
O38	O	1.368951	0.058051	0.687711
O39	O	1.618951	0.308051	0.937711
O40	O	1.868951	0.558051	1.187711
O41	O	1.027629	-0.312380	0.207941
O42	O	1.277629	-0.062380	0.457941
O43	O	1.527629	0.187620	0.707941
O44	O	1.777629	0.437620	0.957941
O45	O	0.907264	-0.312313	0.338677
O46	O	1.157264	-0.062313	0.588677
O47	O	1.407264	0.187687	0.838677
O48	O	1.657264	0.437687	1.088677
O49	O	1.027675	-0.403506	0.568387
O50	O	1.277675	-0.153506	0.818387
O51	O	1.527675	0.096494	1.068387
O52	O	1.777675	0.346494	1.318387
O53	O	0.907250	-0.403509	0.437694
O54	O	1.157250	-0.153509	0.687694
O55	O	1.407250	0.096491	0.937694
O56	O	1.657250	0.346491	1.187694
O57	O	1.118933	-0.312309	0.568394
O58	O	1.368933	-0.062309	0.818394
O59	O	1.618933	0.187691	1.068394
O60	O	1.868933	0.437691	1.318394
O61	O	1.118795	-0.523986	0.338585
O62	O	1.368795	-0.273986	0.588585
O63	O	1.618795	-0.023986	0.838585
O64	O	1.868795	0.226014	1.088585
O65	O	1.027597	-0.523936	0.437641
O66	O	1.277597	-0.273936	0.687641
O67	O	1.527597	-0.023936	0.937641
O68	O	1.777597	0.226064	1.187641
C69	C	0.880310	-0.357905	0.388191
C70	C	1.130310	-0.107905	0.638191
C71	C	1.380310	0.142095	0.888191
C72	C	1.630310	0.392095	1.138191
C73	C	0.797765	-0.357901	0.388225
C74	C	1.047765	-0.107901	0.638225
C75	C	1.297765	0.142099	0.888225
C76	C	1.547765	0.392099	1.138225
C77	C	0.598328	-0.407635	0.441942
C78	C	0.848328	-0.157635	0.691942
C79	C	1.098328	0.092365	0.941942
C80	C	1.348328	0.342365	1.191942
C81	C	0.548925	-0.339918	0.461785
C82	C	0.798925	-0.089918	0.711785
C83	C	1.048925	0.160082	0.961785
C84	C	1.298925	0.410082	1.211785
C85	C	0.646634	-0.357942	0.388185
C86	C	0.896634	-0.107942	0.638185
C87	C	1.146634	0.142058	0.888185
C88	C	1.396634	0.392058	1.138185
C89	C	0.548955	-0.425698	0.368342
C90	C	0.798955	-0.175698	0.618342
C91	C	1.048955	0.074302	0.868342
C92	C	1.298955	0.324302	1.118342
C93	C	0.500649	-0.357988	0.388149
C94	C	0.750649	-0.107988	0.638149
C95	C	1.000649	0.142012	0.888149
C96	C	1.250649	0.392012	1.138149
C97	C	0.598319	-0.290189	0.408066
C98	C	0.848319	-0.040189	0.658066
C99	C	1.098319	0.209811	0.908066
C100	C	1.348319	0.459811	1.158066
C101	C	0.598353	-0.376015	0.314589
C102	C	0.848353	-0.126015	0.564589
C103	C	1.098353	0.123985	0.814589
C104	C	1.348353	0.373985	1.064589
C105	C	0.548973	-0.308251	0.334404
C106	C	0.798973	-0.058251	0.584404
C107	C	1.048973	0.191749	0.834404
C108	C	1.298973	0.441749	1.084404
C109	C	0.730733	-0.357917	0.388208
C110	C	0.980733	-0.107917	0.638208
C111	C	1.230733	0.142083	0.888208
C112	C	1.480733	0.392083	1.138208
C113	C	0.416553	-0.358006	0.388125
C114	C	0.666553	-0.108006	0.638125
C115	C	0.916553	0.141994	0.888125
C116	C	1.166553	0.391994	1.138125
C117	C	1.073205	-0.550907	0.388124
C118	C	1.323205	-0.300907	0.638124
C119	C	1.573205	-0.050907	0.888124
C120	C	1.823205	0.199093	1.138124
C121	C	1.073249	-0.633453	0.388137
C122	C	1.323249	-0.383453	0.638137
C123	C	1.573249	-0.133453	0.888137
C124	C	1.823249	0.116547	1.138137
C125	C	1.122946	-0.832904	0.334345
C126	C	1.372946	-0.582904	0.584345
C127	C	1.622946	-0.332904	0.834345
C128	C	1.872946	-0.082904	1.084345
C129	C	1.141088	-0.882238	0.407930
C130	C	1.391088	-0.632238	0.657930
C131	C	1.641088	-0.382238	0.907930
C132	C	1.891088	-0.132238	1.157930
C133	C	1.073291	-0.784583	0.388169
C134	C	1.323291	-0.534583	0.638169
C135	C	1.573291	-0.284583	0.888169
C136	C	1.823291	-0.034583	1.138169
C137	C	1.055225	-0.882331	0.314618
C138	C	1.305225	-0.632331	0.564618
C139	C	1.555225	-0.382331	0.814618
C140	C	1.805225	-0.132331	1.064618
C141	C	1.073333	-0.930569	0.388194
C142	C	1.323333	-0.680569	0.638194
C143	C	1.573333	-0.430569	0.888194
C144	C	1.823333	-0.180569	1.138194
C145	C	1.091468	-0.832830	0.461792
C146	C	1.341468	-0.582830	0.711792
C147	C	1.591468	-0.332830	0.961792
C148	C	1.841468	-0.082830	1.211792
C149	C	1.005573	-0.832919	0.368431
C150	C	1.255573	-0.582919	0.618431
C151	C	1.505573	-0.332919	0.868431
C152	C	1.755573	-0.082919	1.118431
C153	C	1.023689	-0.882231	0.442066
C154	C	1.273689	-0.632231	0.692066
C155	C	1.523689	-0.382231	0.942066
C156	C	1.773689	-0.132231	1.192066
C157	C	1.073269	-0.700485	0.388154
C158	C	1.323269	-0.450485	0.638154
C159	C	1.573269	-0.200485	0.888154
C160	C	1.823269	0.049515	1.138154
C161	C	1.073356	-1.014665	0.388217
C162	C	1.323356	-0.764665	0.638217
C163	C	1.573356	-0.514665	0.888217
C164	C	1.823356	-0.264665	1.138217
C165	C	1.266968	-0.358007	0.388121
C166	C	1.516968	-0.108007	0.638121
C167	C	1.766968	0.141993	0.888121
C168	C	2.016968	0.391993	1.138121
C169	C	1.349514	-0.358029	0.388107
C170	C	1.599514	-0.108029	0.638107
C171	C	1.849514	0.141971	0.888107
C172	C	2.099514	0.391971	1.138107
C173	C	1.073311	-0.357900	0.598465
C174	C	1.323311	-0.107900	0.848465
C175	C	1.573311	0.142100	1.098465
C176	C	1.823311	0.392100	1.348465
C177	C	1.073331	-0.357876	0.688086
C178	C	1.323331	-0.107876	0.938086
C179	C	1.573331	0.142124	1.188086
C180	C	1.823331	0.392124	1.438086
C181	C	1.073340	-0.164250	0.388206
C182	C	1.323340	0.085750	0.638206
C183	C	1.573340	0.335750	0.888206
C184	C	1.823340	0.585750	1.138206
C185	C	1.073373	-0.081704	0.388227
C186	C	1.323373	0.168296	0.638227
C187	C	1.573373	0.418296	0.888227
C188	C	1.823373	0.668296	1.138227
C189	C	1.073257	-0.357957	0.178665
C190	C	1.323257	-0.107957	0.428665
C191	C	1.573257	0.142043	0.678665
C192	C	1.823257	0.392043	0.928665
C193	C	1.073380	-0.357771	0.089044
C194	C	1.323380	-0.107771	0.339044
C195	C	1.573380	0.142229	0.589044
C196	C	1.823380	0.392229	0.839044
C197	C	1.073366	-0.357793	1.016262
C198	C	1.323366	-0.107793	1.266262
C199	C	1.573366	0.142207	1.516262
C200	C	1.823366	0.392207	1.766262
C201	C	1.073354	-0.357819	0.924953
C202	C	1.323354	-0.107819	1.174953
C203	C	1.573354	0.142181	1.424953
C204	C	1.823354	0.392181	1.674953
C205	C	1.073349	-0.357835	0.852177
C206	C	1.323349	-0.107835	1.102177
C207	C	1.573349	0.142165	1.352177
C208	C	1.823349	0.392165	1.602177
C209	C	1.073337	-0.357860	0.760862
C210	C	1.323337	-0.107860	1.010862
C211	C	1.573337	0.142140	1.260862
C212	C	1.823337	0.392140	1.510862
H213	H	0.620081	-0.391307	0.252384
H214	H	0.870081	-0.141307	0.502384
H215	H	1.120081	0.108693	0.752384
H216	H	1.370081	0.358693	1.002384
O217	O	0.520250	-0.501573	0.346105
O218	O	0.770250	-0.251573	0.596105
O219	O	1.020250	-0.001573	0.846105
O220	O	1.270250	0.248427	1.096105
H221	H	0.540033	-0.542698	0.390827
H222	H	0.790033	-0.292698	0.640827
H223	H	1.040033	-0.042698	0.890827
H224	H	1.290033	0.207302	1.140827
H225	H	0.948304	-0.811237	0.351698
H226	H	1.198304	-0.561237	0.601698
H227	H	1.448304	-0.311237	0.851698
H228	H	1.698304	-0.061237	1.101698
H229	H	0.527438	-0.266199	0.288928
H230	H	0.777438	-0.016199	0.538928
H231	H	1.027438	0.233801	0.788928
H232	H	1.277438	0.483801	1.038928
H233	H	0.619912	-0.232891	0.424905
H234	H	0.869912	0.017109	0.674905
H235	H	1.119912	0.267109	0.924905
H236	H	1.369912	0.517109	1.174905
O237	O	1.178580	-0.804202	0.274114
O238	O	1.428580	-0.554202	0.524114
O239	O	1.678580	-0.304202	0.774114
O240	O	1.928580	-0.054202	1.024114
H241	H	1.234767	-0.823953	0.290707
H242	H	1.484767	-0.573953	0.540707
H243	H	1.734767	-0.323953	0.790707
H244	H	1.984767	-0.073953	1.040707
O245	O	0.627036	-0.463211	0.502216
O246	O	0.877036	-0.213211	0.752216
O247	O	1.127036	0.036789	1.002216
O248	O	1.377036	0.286789	1.252216
H249	H	0.688520	-0.463075	0.501296
H250	H	0.938520	-0.213075	0.751296
H251	H	1.188520	0.036925	1.001296
H252	H	1.438520	0.286925	1.251296
H253	H	1.198374	-0.903904	0.424640
H254	H	1.448374	-0.653904	0.674640
H255	H	1.698374	-0.403904	0.924640
H256	H	1.948374	-0.153904	1.174640
O257	O	1.111830	-0.804162	0.544223
O258	O	1.361830	-0.554162	0.794223
O259	O	1.611830	-0.304162	1.044223
O260	O	1.861830	-0.054162	1.294223
H261	H	1.111682	-0.742675	0.543557
H262	H	1.361682	-0.492675	0.793557
H263	H	1.611682	-0.242675	1.043557
H264	H	1.861682	0.007325	1.293557
O265	O	0.520100	-0.319794	0.544208
O266	O	0.770100	-0.069794	0.794208
O267	O	1.020100	0.180206	1.044208
O268	O	1.270100	0.430206	1.294208
H269	H	0.567479	-0.310247	0.585494
H270	H	0.817479	-0.060247	0.835494
H271	H	1.067479	0.189753	1.085494
H272	H	1.317479	0.439753	1.335494
H273	H	0.981716	-0.903753	0.487646
H274	H	1.231716	-0.653753	0.737646
H275	H	1.481716	-0.403753	0.987646
H276	H	1.731716	-0.153753	1.237646
H277	H	1.039926	-0.904074	0.252406
H278	H	1.289926	-0.654074	0.502406
H279	H	1.539926	-0.404074	0.752406
H280	H	1.789926	-0.154074	1.002406
