data_functionalizedCrystal
_audit_creation_method	'MofGen! by Chris Wilmer'
_symmetry_space_group_name_H-M	'P1'
_symmetry_Int_Tables_number	1
_symmetry_cell_setting	triclinic
loop_
_symmetry_equiv_pos_as_xyz
  x,y,z
_cell_length_a	17.640280
_cell_length_b	19.805407
_cell_length_c	19.805399
_cell_angle_alpha	90.019197
_cell_angle_beta	78.776890
_cell_angle_gamma	101.203588
loop_
_atom_site_label
_atom_site_type_symbol
_atom_site_fract_x
_atom_site_fract_y
_atom_site_fract_z
Zn1	Zn	-0.314765	-1.089295	-0.328295
Zn2	Zn	0.018568	-0.755962	0.005038
Zn3	Zn	0.351902	-0.422629	0.338371
Zn4	Zn	-0.446941	-1.112121	-0.192256
Zn5	Zn	-0.113607	-0.778787	0.141077
Zn6	Zn	0.219726	-0.445454	0.474410
Zn7	Zn	-0.314778	-0.976112	-0.215118
Zn8	Zn	0.018555	-0.642779	0.118215
Zn9	Zn	0.351889	-0.309446	0.451548
Zn10	Zn	-0.446890	-0.998975	-0.305413
Zn11	Zn	-0.113556	-0.665642	0.027921
Zn12	Zn	0.219777	-0.332309	0.361254
O13	O	-0.380843	-1.044126	-0.260271
O14	O	-0.047510	-0.710793	0.073063
O15	O	0.285823	-0.377459	0.406396
O16	O	-0.332314	-1.187042	-0.310258
O17	O	0.001019	-0.853709	0.023075
O18	O	0.334352	-0.520376	0.356409
O19	O	-0.429436	-1.094063	-0.100568
O20	O	-0.096102	-0.760730	0.232766
O21	O	0.237231	-0.427397	0.566099
O22	O	-0.204171	-0.972005	-0.249276
O23	O	0.129162	-0.638672	0.084057
O24	O	0.462496	-0.305339	0.417391
O25	O	-0.429423	-1.203812	-0.210311
O26	O	-0.096090	-0.870479	0.123023
O27	O	0.237244	-0.537146	0.456356
O28	O	-0.204161	-1.055161	-0.332427
O29	O	0.129172	-0.721827	0.000907
O30	O	0.462505	-0.388494	0.334240
O31	O	-0.332336	-0.994138	-0.117365
O32	O	0.000997	-0.660805	0.215969
O33	O	0.334330	-0.327472	0.549302
O34	O	-0.332287	-0.884426	-0.227088
O35	O	0.001046	-0.551092	0.106246
O36	O	0.334380	-0.217759	0.439579
O37	O	-0.429336	-1.010972	-0.403169
O38	O	-0.096003	-0.677639	-0.069836
O39	O	0.237330	-0.344305	0.263497
O40	O	-0.429349	-0.901223	-0.293426
O41	O	-0.096016	-0.567890	0.039907
O42	O	0.237318	-0.234556	0.373240
O43	O	-0.332265	-1.077330	-0.419981
O44	O	0.001068	-0.743997	-0.086648
O45	O	0.334402	-0.410663	0.246686
O46	O	-0.557539	-1.116233	-0.188122
O47	O	-0.224206	-0.782899	0.145211
O48	O	0.109128	-0.449566	0.478545
O49	O	-0.557502	-1.033105	-0.271258
O50	O	-0.224168	-0.699772	0.062076
O51	O	0.109165	-0.366438	0.395409
C52	C	-0.380814	-0.868265	-0.260255
C53	C	-0.047481	-0.534932	0.073078
C54	C	0.285852	-0.201598	0.406412
C55	C	-0.380821	-0.793034	-0.260261
C56	C	-0.047488	-0.459701	0.073072
C57	C	0.285846	-0.126367	0.406406
C58	C	-0.330345	-0.748974	-0.312353
C59	C	0.002988	-0.415641	0.020980
C60	C	0.336322	-0.082307	0.354313
C61	C	-0.330348	-0.678286	-0.312354
C62	C	0.002986	-0.344953	0.020980
C63	C	0.336319	-0.011619	0.354313
C64	C	-0.380831	-0.651660	-0.260264
C65	C	-0.047497	-0.318327	0.073069
C66	C	0.285836	0.015007	0.406403
C67	C	-0.431309	-0.695726	-0.208167
C68	C	-0.097975	-0.362392	0.125167
C69	C	0.235358	-0.029059	0.458500
C70	C	-0.431302	-0.766412	-0.208164
C71	C	-0.097968	-0.433078	0.125169
C72	C	0.235365	-0.099745	0.458503
C73	C	-0.431338	-0.410657	-0.208175
C74	C	-0.098004	-0.077324	0.125158
C75	C	0.235329	0.256009	0.458491
C76	C	-0.431342	-0.339966	-0.208183
C77	C	-0.098009	-0.006633	0.125150
C78	C	0.235324	0.326701	0.458483
C79	C	-0.330383	-0.322532	-0.312365
C80	C	0.002950	0.010802	0.020968
C81	C	0.336283	0.344135	0.354302
C82	C	-0.330376	-0.393218	-0.312363
C83	C	0.002957	-0.059884	0.020971
C84	C	0.336290	0.273449	0.354304
C85	C	-0.380851	-0.437276	-0.260263
C86	C	-0.047518	-0.103943	0.073070
C87	C	0.285815	0.229390	0.406403
C88	C	-0.380847	-0.513924	-0.260263
C89	C	-0.047514	-0.180591	0.073070
C90	C	0.285820	0.152743	0.406404
C91	C	-0.380840	-0.575015	-0.260267
C92	C	-0.047506	-0.241681	0.073067
C93	C	0.285827	0.091652	0.406400
C94	C	-0.586199	-1.079645	-0.224741
C95	C	-0.252866	-0.746312	0.108593
C96	C	0.080468	-0.412978	0.441926
C97	C	-0.674051	-1.094902	-0.209563
C98	C	-0.340718	-0.761569	0.123770
C99	C	-0.007385	-0.428235	0.457103
C100	C	-0.963026	-0.928497	-0.375817
C101	C	-0.629693	-0.595163	-0.042483
C102	C	-0.296359	-0.261830	0.290850
C103	C	-1.045576	-0.942834	-0.361534
C104	C	-0.712243	-0.609501	-0.028200
C105	C	-0.378910	-0.276168	0.305133
C106	C	-1.045550	-1.029449	-0.275052
C107	C	-0.712216	-0.696115	0.058281
C108	C	-0.378883	-0.362782	0.391614
C109	C	-0.962998	-1.015121	-0.289330
C110	C	-0.629664	-0.681787	0.044003
C111	C	-0.296331	-0.348454	0.377336
C112	C	-0.921742	-0.964643	-0.339713
C113	C	-0.588409	-0.631310	-0.006379
C114	C	-0.255076	-0.297977	0.326954
C115	C	-0.921714	-1.051267	-0.253226
C116	C	-0.588381	-0.717934	0.080107
C117	C	-0.255047	-0.384601	0.413440
C118	C	-0.839169	-1.036938	-0.267501
C119	C	-0.505836	-0.703604	0.065833
C120	C	-0.172503	-0.370271	0.399166
C121	C	-0.797908	-0.986461	-0.317879
C122	C	-0.464575	-0.653128	0.015454
C123	C	-0.131241	-0.319795	0.348787
C124	C	-0.839197	-0.950314	-0.353987
C125	C	-0.505864	-0.616980	-0.020654
C126	C	-0.172531	-0.283647	0.312680
C127	C	-0.962971	-1.101741	-0.202841
C128	C	-0.629638	-0.768408	0.130493
C129	C	-0.296304	-0.435074	0.463826
C130	C	-0.921687	-1.137888	-0.166737
C131	C	-0.588354	-0.804554	0.166597
C132	C	-0.255021	-0.471221	0.499930
C133	C	-0.839141	-1.123562	-0.181014
C134	C	-0.505808	-0.790228	0.152319
C135	C	-0.172474	-0.456895	0.485652
C136	C	-0.797880	-1.073085	-0.231393
C137	C	-0.464546	-0.739752	0.101940
C138	C	-0.131213	-0.406419	0.435274
C139	C	-0.797852	-1.159709	-0.144907
C140	C	-0.464518	-0.826376	0.188427
C141	C	-0.131185	-0.493043	0.521760
C142	C	-0.715307	-1.145379	-0.159181
C143	C	-0.381973	-0.812046	0.174152
C144	C	-0.048640	-0.478713	0.507486
C145	C	-0.715335	-1.058755	-0.245667
C146	C	-0.382002	-0.725422	0.087666
C147	C	-0.048668	-0.392089	0.420999
C148	C	-0.174686	-1.008487	-0.295954
C149	C	0.158648	-0.675153	0.037379
C150	C	0.491981	-0.341820	0.370713
C151	C	-0.086834	-0.993299	-0.311160
C152	C	0.246500	-0.659966	0.022173
C153	C	0.579833	-0.326632	0.355506
C154	C	-0.380794	-1.044155	-0.436822
C155	C	-0.047460	-0.710822	-0.103489
C156	C	0.285873	-0.377489	0.229845
C157	C	-0.380772	-1.044168	-0.512058
C158	C	-0.047439	-0.710834	-0.178724
C159	C	0.285894	-0.377501	0.154609
C160	C	-0.380867	-0.220673	-0.260282
C161	C	-0.047534	0.112661	0.073052
C162	C	0.285800	0.445994	0.406385
C163	C	-0.380862	-0.295904	-0.260273
C164	C	-0.047528	0.037430	0.073060
C165	C	0.285805	0.370763	0.406393
C166	C	-0.330225	-1.078721	-0.556157
C167	C	0.003109	-0.745387	-0.222824
C168	C	0.336442	-0.412054	0.110509
C169	C	-0.330202	-1.078724	-0.626850
C170	C	0.003132	-0.745390	-0.293516
C171	C	0.336465	-0.412057	0.039817
C172	C	-0.380731	-1.044177	-0.653441
C173	C	-0.047398	-0.710844	-0.320107
C174	C	0.285936	-0.377511	0.013226
C175	C	-0.431281	-1.009620	-0.609336
C176	C	-0.097948	-0.676287	-0.276002
C177	C	0.235386	-0.342953	0.057331
C178	C	-0.431299	-1.009613	-0.538645
C179	C	-0.097966	-0.676280	-0.205312
C180	C	0.235367	-0.342947	0.128021
C181	C	-0.431207	-1.009645	-0.894422
C182	C	-0.097874	-0.676312	-0.561088
C183	C	0.235459	-0.342979	-0.227755
C184	C	-0.431187	-1.009656	-0.965117
C185	C	-0.097853	-0.676323	-0.631784
C186	C	0.235480	-0.342990	-0.298451
C187	C	-0.330110	-1.078756	-0.982626
C188	C	0.003224	-0.745422	-0.649293
C189	C	0.336557	-0.412089	-0.315960
C190	C	-0.330128	-1.078749	-0.911936
C191	C	0.003205	-0.745416	-0.578603
C192	C	0.336539	-0.412082	-0.245269
C193	C	-0.380675	-1.044189	-0.867838
C194	C	-0.047341	-0.710856	-0.534504
C195	C	0.285992	-0.377522	-0.201171
C196	C	-0.380698	-1.044185	-0.791185
C197	C	-0.047365	-0.710852	-0.457852
C198	C	0.285969	-0.377518	-0.124519
C199	C	-0.380712	-1.044185	-0.730091
C200	C	-0.047379	-0.710852	-0.396758
C201	C	0.285954	-0.377518	-0.063424
C202	C	-0.380836	-1.044126	-0.084416
C203	C	-0.047503	-0.710792	0.248917
C204	C	0.285831	-0.377459	0.582251
C205	C	-0.380634	-1.044206	-0.009219
C206	C	-0.047301	-0.710872	0.324114
C207	C	0.286032	-0.377539	0.657448
H208	H	-0.472404	-0.802285	-0.165745
H209	H	-0.139071	-0.468952	0.167589
H210	H	0.194263	-0.135619	0.500922
H211	H	-0.730695	-0.974790	-0.329496
H212	H	-0.397361	-0.641457	0.003838
H213	H	-0.064028	-0.308124	0.337171
H214	H	-0.472420	-0.981489	-0.630992
H215	H	-0.139087	-0.648155	-0.297658
H216	H	0.194247	-0.314822	0.035675
F217	F	-0.485097	-0.972835	-0.491711
F218	F	-0.151764	-0.639502	-0.158378
F219	F	0.181570	-0.306169	0.174955
F220	F	-0.484969	-0.972885	-0.993415
F221	F	-0.151636	-0.639552	-0.660082
F222	F	0.181698	-0.306218	-0.326748
F223	F	-0.276617	-0.777305	-0.367798
F224	F	0.056717	-0.443971	-0.034464
F225	F	0.390050	-0.110638	0.298869
F226	F	-0.276351	-1.115521	-0.883640
F227	F	0.056982	-0.782187	-0.550307
F228	F	0.390316	-0.448854	-0.216973
F229	F	-0.485033	-0.667386	-0.152726
F230	F	-0.151699	-0.334053	0.180608
F231	F	0.181634	-0.000719	0.513941
H232	H	-0.289080	-1.106855	-0.534513
H233	H	0.044253	-0.773522	-0.201180
H234	H	0.377586	-0.440188	0.132154
H235	H	-0.472377	-0.981516	-0.858523
H236	H	-0.139044	-0.648183	-0.525190
H237	H	0.194290	-0.314850	-0.191856
F238	F	-0.671423	-1.005037	-0.299296
F239	F	-0.338090	-0.671704	0.034037
F240	F	-0.004757	-0.338371	0.367371
F241	F	-0.919114	-0.874778	-0.429445
F242	F	-0.585781	-0.541445	-0.096112
F243	F	-0.252448	-0.208112	0.237221
F244	F	-0.795286	-0.896595	-0.407616
F245	F	-0.461952	-0.563262	-0.074282
F246	F	-0.128619	-0.229929	0.259051
H247	H	-1.079151	-1.070545	-0.234029
H248	H	-0.745818	-0.737212	0.099304
H249	H	-0.412485	-0.403879	0.432638
F250	F	-0.485044	-0.457537	-0.152718
F251	F	-0.151711	-0.124203	0.180616
F252	F	0.181623	0.209130	0.513949
H253	H	-0.289270	-0.414892	-0.354781
H254	H	0.044063	-0.081559	-0.021448
H255	H	0.377396	0.251774	0.311886
H256	H	-0.289246	-0.642415	-0.354774
H257	H	0.044087	-0.309081	-0.021440
H258	H	0.377420	0.024252	0.311893
H259	H	-0.289281	-0.286650	-0.354785
H260	H	0.044052	0.046684	-0.021452
H261	H	0.377385	0.380017	0.311882
F262	F	-0.671367	-1.183846	-0.120750
F263	F	-0.338034	-0.850512	0.212583
F264	F	-0.004700	-0.517179	0.545916
H265	H	-0.289043	-1.106862	-0.662753
H266	H	0.044291	-0.773529	-0.329420
H267	H	0.377624	-0.440196	0.003913
F268	F	-0.485075	-0.311631	-0.152738
F269	F	-0.151741	0.021702	0.180595
F270	F	0.181592	0.355036	0.513928
H271	H	-0.288949	-1.106894	-1.018541
H272	H	0.044384	-0.773560	-0.685207
H273	H	0.377717	-0.440227	-0.351874
F274	F	-1.089511	-0.904352	-0.399958
F275	F	-0.756177	-0.571018	-0.066625
F276	F	-0.422844	-0.237685	0.266708
H277	H	-1.030184	-1.113408	-0.191222
H278	H	-0.696851	-0.780075	0.142111
H279	H	-0.363518	-0.446742	0.475445
H280	H	-0.955289	-1.178984	-0.125714
H281	H	-0.621956	-0.845651	0.207620
H282	H	-0.288622	-0.512318	0.540953
F283	F	-0.841769	-1.213425	-0.091284
F284	F	-0.508436	-0.880091	0.242049
F285	F	-0.175102	-0.546758	0.575383
