data_functionalizedCrystal
_audit_creation_method	'MofGen! by Chris Wilmer'
_symmetry_space_group_name_H-M	'P1'
_symmetry_Int_Tables_number	1
_symmetry_cell_setting	triclinic
loop_
_symmetry_equiv_pos_as_xyz
  x,y,z
_cell_length_a	11.026607
_cell_length_b	8.559649
_cell_length_c	7.681481
_cell_angle_alpha	94.930900
_cell_angle_beta	83.010356
_cell_angle_gamma	89.182341
loop_
_atom_site_label
_atom_site_type_symbol
_atom_site_fract_x
_atom_site_fract_y
_atom_site_fract_z
O1	O	-1.536888	-0.663150	-0.146413
O2	O	-1.036888	-0.163150	0.353587
O3	O	-1.190497	-0.588949	-0.146417
O4	O	-0.690497	-0.088949	0.353583
O5	O	-1.394210	-0.402226	-0.146413
O6	O	-0.894210	0.097774	0.353587
O7	O	-1.333175	-0.849874	-0.146417
O8	O	-0.833175	-0.349874	0.353583
O9	O	-1.419290	-0.379177	0.146445
O10	O	-0.919290	0.120823	0.646445
O11	O	-1.215577	-0.565900	0.146441
O12	O	-0.715577	-0.065900	0.646441
O13	O	-1.561968	-0.640101	0.146445
O14	O	-1.061968	-0.140101	0.646445
Zn15	Zn	-1.392754	-0.599341	0.192941
Zn16	Zn	-0.892754	-0.099341	0.692941
Zn17	Zn	-1.359710	-0.629709	-0.192913
Zn18	Zn	-0.859710	-0.129709	0.307087
O19	O	-1.358255	-0.826825	0.146441
O20	O	-0.858255	-0.326825	0.646441
C21	C	-1.411375	-0.332502	0.000013
C22	C	-0.911375	0.167498	0.500013
C23	C	-1.425142	-0.159083	0.000003
C24	C	-0.925142	0.340917	0.500003
C25	C	-1.159101	-0.563736	0.000011
C26	C	-0.659101	-0.063736	0.500011
C27	C	-1.028190	-0.522929	0.000009
C28	C	-0.528190	-0.022929	0.500009
C29	C	-1.593363	-0.665315	0.000013
C30	C	-1.093363	-0.165315	0.500013
C31	C	-1.724273	-0.706123	0.000003
C32	C	-1.224273	-0.206123	0.500003
C33	C	-0.943884	-0.635604	0.000007
C34	C	-0.443884	-0.135604	0.500007
C35	C	-0.808580	-0.593431	0.000005
C36	C	-0.308580	-0.093431	0.500005
C37	C	-1.341089	-0.896549	0.000011
C38	C	-0.841089	-0.396549	0.500011
C39	C	-1.327321	-1.069969	0.000009
C40	C	-0.827321	-0.569969	0.500009
N41	N	-1.415314	-0.578617	0.456275
N42	N	-0.915314	-0.078617	0.956275
N43	N	-1.337161	-0.650424	-0.456247
N44	N	-0.837161	-0.150424	0.043753
H45	H	-0.780591	-0.465740	-0.000039
H46	H	-0.280591	0.034260	0.499961
H47	H	-1.257382	-0.723715	0.468554
H48	H	-0.757382	-0.223715	0.968554
H49	H	-1.000195	-0.395246	-0.000034
H50	H	-0.500195	0.104754	0.499966
H51	H	-1.233039	-0.126347	0.000014
H52	H	-0.733039	0.373653	0.500014
H53	H	-1.495106	-0.505335	0.531483
H54	H	-0.995106	-0.005335	1.031483
H55	H	-0.971876	-0.763290	0.000016
H56	H	-0.471876	-0.263290	0.500016
H57	H	-0.752257	-0.833818	0.000014
H58	H	-0.252257	-0.333818	0.500014
O59	O	-1.550046	-0.084416	0.000017
O60	O	-1.050046	0.415584	0.500017
H61	H	-1.541629	0.044647	0.000019
H62	H	-1.041629	0.544647	0.500019
