data_functionalizedCrystal
_audit_creation_method	'MofGen! by Chris Wilmer'
_symmetry_space_group_name_H-M	'P1'
_symmetry_Int_Tables_number	1
_symmetry_cell_setting	triclinic
loop_
_symmetry_equiv_pos_as_xyz
  x,y,z
_cell_length_a	18.101398
_cell_length_b	29.839131
_cell_length_c	18.101390
_cell_angle_alpha	89.964306
_cell_angle_beta	89.977223
_cell_angle_gamma	90.036686
loop_
_atom_site_label
_atom_site_type_symbol
_atom_site_fract_x
_atom_site_fract_y
_atom_site_fract_z
Zn1	Zn	1.132057	-0.178893	-0.418824
Zn2	Zn	1.131934	-0.254029	-0.294976
Zn3	Zn	1.008219	-0.178908	-0.294985
Zn4	Zn	1.008144	-0.253991	-0.418765
O5	O	1.070088	-0.216455	-0.356888
O6	O	1.235673	-0.188870	-0.402416
O7	O	1.115502	-0.244086	-0.191344
O8	O	1.024729	-0.116038	-0.311441
O9	O	1.235583	-0.244072	-0.311426
O10	O	1.115712	-0.116028	-0.402425
O11	O	1.024610	-0.188894	-0.191351
O12	O	0.904576	-0.188857	-0.311384
O13	O	1.024601	-0.244007	-0.522406
O14	O	0.904521	-0.244021	-0.402324
O15	O	1.115640	-0.188833	-0.522449
O16	O	1.115430	-0.316891	-0.311369
O17	O	1.024482	-0.316863	-0.402315
C18	C	0.877678	-0.216437	-0.356849
C19	C	0.795364	-0.216440	-0.356850
C20	C	0.496273	-0.216468	-0.356912
C21	C	0.527608	-0.181587	-0.299974
C22	C	0.613226	-0.181681	-0.299731
C23	C	0.644655	-0.216454	-0.356881
C24	C	0.613524	-0.263779	-0.335553
C25	C	0.527879	-0.263585	-0.335157
C26	C	0.527889	-0.204435	-0.435313
C27	C	0.613540	-0.203381	-0.434885
C28	C	0.728515	-0.216448	-0.356865
C29	C	0.412413	-0.216476	-0.356926
C30	C	1.069955	-0.333178	-0.356851
C31	C	1.069965	-0.383112	-0.356860
C32	C	1.117531	-0.692757	-0.309601
C33	C	1.117622	-0.880430	-0.309629
O34	O	1.157958	-0.904697	-0.269420
N35	N	1.070242	-0.903897	-0.356943
C36	C	1.022839	-0.880443	-0.404257
O37	O	0.982546	-0.904709	-0.444506
C38	C	1.022751	-0.692771	-0.404231
C39	C	1.070130	-0.669306	-0.356909
C40	C	1.164906	-0.669293	-0.262283
C41	C	1.164880	-0.622378	-0.262273
C42	C	1.117478	-0.598927	-0.309582
C43	C	1.070104	-0.622391	-0.356899
C44	C	0.975353	-0.669317	-0.451548
C45	C	0.975336	-0.622396	-0.451539
C46	C	1.022715	-0.598932	-0.404217
C47	C	1.022676	-0.552024	-0.404198
N48	N	1.070057	-0.528558	-0.356884
C49	C	1.117458	-0.552009	-0.309576
C50	C	1.022887	-0.978973	-0.404266
C51	C	1.022907	-1.025891	-0.404272
C52	C	1.117692	-1.025876	-0.309645
C53	C	1.117667	-0.978957	-0.309636
C54	C	1.070267	-0.955507	-0.356952
C55	C	1.117399	-0.453483	-0.309559
C56	C	1.117366	-0.406563	-0.309551
C57	C	1.022585	-0.406583	-0.404181
C58	C	1.022614	-0.453498	-0.404186
C59	C	1.070027	-0.476947	-0.356872
O60	O	0.982367	-0.527729	-0.444393
O61	O	1.157756	-0.527734	-0.269344
C62	C	1.117557	-0.739673	-0.309610
C63	C	1.070182	-0.763137	-0.356928
C64	C	1.022781	-0.739686	-0.404237
C65	C	1.070203	-0.810055	-0.356934
C66	C	1.117604	-0.833506	-0.309625
C67	C	1.164984	-0.810039	-0.262311
C68	C	1.164958	-0.763124	-0.262302
C69	C	0.975401	-0.763153	-0.451550
C70	C	0.975430	-0.810068	-0.451556
C71	C	1.022831	-0.833519	-0.404247
C72	C	1.263250	-0.216474	-0.356927
C73	C	1.345564	-0.216482	-0.356943
C74	C	1.070126	-0.216414	-0.550050
C75	C	1.070142	-0.216397	-0.632364
C76	C	1.070243	-0.099277	-0.356941
C77	C	1.070308	-0.049342	-0.356963
C78	C	1.070168	-0.216383	-0.783072
C79	C	1.127449	-0.181666	-0.814453
C80	C	1.127688	-0.181760	-0.900072
C81	C	1.070194	-0.216368	-0.931455
C82	C	1.091056	-0.263754	-0.900342
C83	C	1.091457	-0.263562	-0.814697
C84	C	0.991887	-0.204125	-0.814623
C85	C	0.992322	-0.203072	-0.900275
C86	C	1.070208	-0.216363	-1.015314
C87	C	1.070157	-0.216391	-0.699213
C88	C	1.070093	-0.216463	-0.164477
C89	C	1.070221	-0.216354	-0.082163
H90	H	0.633894	-0.168555	-0.450967
N91	N	1.038584	-0.299007	-0.787189
H92	H	1.066364	-0.321578	-0.756260
H93	H	0.998863	-0.284467	-0.756211
H94	H	0.507623	-0.229841	-0.477737
N95	N	0.966638	-0.159138	-0.786038
H96	H	1.003012	-0.135259	-0.801655
H97	H	0.916300	-0.151976	-0.806977
N98	N	0.971750	-0.953687	-0.455298
H99	H	0.937440	-0.934253	-0.425164
H100	H	1.001859	-0.934215	-0.489643
N101	N	0.971482	-0.156880	-0.927221
H102	H	0.924241	-0.158693	-0.956743
H103	H	0.963979	-0.136403	-0.883455
H104	H	0.506058	-0.189452	-0.242218
H105	H	0.947393	-0.226498	-0.921634
H106	H	1.185702	-0.189882	-0.920573
N107	N	0.640475	-0.299138	-0.388751
H108	H	0.596764	-0.313735	-0.413716
H109	H	0.673221	-0.284759	-0.427248
N110	N	0.971793	-1.051193	-0.455303
H111	H	0.983260	-1.042996	-0.508226
H112	H	0.979014	-1.084467	-0.448072
N113	N	1.216116	-0.835335	-0.211287
H114	H	1.204646	-0.827203	-0.158358
H115	H	1.208917	-0.868609	-0.218539
H116	H	1.185126	-0.189694	-0.792944
H117	H	0.507048	-0.146386	-0.313196
H118	H	0.634937	-0.226935	-0.479582
N119	N	1.168471	-0.381255	-0.258511
H120	H	1.198505	-0.403234	-0.228547
H121	H	1.202713	-0.361756	-0.288689
N122	N	1.168777	-0.953654	-0.258601
H123	H	1.203071	-0.934158	-0.288730
H124	H	1.138647	-0.934244	-0.224255
H125	H	1.050620	-0.290324	-0.920666
H126	H	1.203509	-0.688382	-0.223758
H127	H	0.936769	-0.688414	-0.490080
H128	H	0.633679	-0.189636	-0.241637
H129	H	1.156009	-0.472569	-0.271034
H130	H	0.983989	-0.387482	-0.442696
H131	H	0.634937	-0.274160	-0.278857
N132	N	0.499352	-0.159517	-0.461019
H133	H	0.443656	-0.160452	-0.463979
H134	H	0.515001	-0.135561	-0.424864
H135	H	0.949213	-0.229409	-0.794325
H136	H	1.148671	-0.273930	-0.794732
H137	H	0.634277	-0.146587	-0.313101
N138	N	1.168816	-1.051177	-0.258620
H139	H	1.203118	-1.070611	-0.288762
H140	H	1.198785	-1.029170	-0.228652
N141	N	0.501361	-0.277101	-0.259240
H142	H	0.545307	-0.283128	-0.226346
H143	H	0.470740	-0.252102	-0.237447
H144	H	1.114656	-0.146629	-0.921110
N145	N	0.500402	-0.299175	-0.387685
H146	H	0.519086	-0.292580	-0.439141
H147	H	0.519112	-0.329453	-0.371209
H148	H	0.936738	-0.603305	-0.490072
N149	N	1.215991	-0.597073	-0.211244
H150	H	1.246024	-0.619054	-0.181284
H151	H	1.250235	-0.577578	-0.241429
H152	H	0.984037	-0.472604	-0.442722
N153	N	0.924319	-0.835374	-0.502593
H154	H	0.894290	-0.813394	-0.532558
H155	H	0.954452	-0.854806	-0.536901
H156	H	1.203538	-0.744023	-0.223768
H157	H	0.936802	-0.744062	-0.490076
N158	N	1.110407	-0.134987	-0.787202
H159	H	1.065391	-0.135890	-0.754248
H160	H	1.153974	-0.123120	-0.758363
N161	N	1.166012	-0.277728	-0.928773
H162	H	1.186563	-0.253436	-0.961798
H163	H	1.200506	-0.282658	-0.885691
