data_functionalizedCrystal
_audit_creation_method	'MofGen! by Chris Wilmer'
_symmetry_space_group_name_H-M	'P1'
_symmetry_Int_Tables_number	1
_symmetry_cell_setting	triclinic
loop_
_symmetry_equiv_pos_as_xyz
  x,y,z
_cell_length_a	12.759400
_cell_length_b	13.897449
_cell_length_c	12.759393
_cell_angle_alpha	90.025824
_cell_angle_beta	89.974992
_cell_angle_gamma	89.996626
loop_
_atom_site_label
_atom_site_type_symbol
_atom_site_fract_x
_atom_site_fract_y
_atom_site_fract_z
Zn1	Zn	-0.418206	-1.474796	-0.594236
Zn2	Zn	0.081794	-0.974796	-0.094236
Zn3	Zn	-0.593925	-1.474731	-0.418577
Zn4	Zn	-0.093925	-0.974731	0.081423
Zn5	Zn	-0.418260	-1.313486	-0.418553
Zn6	Zn	0.081740	-0.813486	0.081447
Zn7	Zn	-0.593843	-1.313507	-0.594195
Zn8	Zn	-0.093843	-0.813507	-0.094195
O9	O	-0.506058	-1.394130	-0.506390
O10	O	-0.006058	-0.894130	-0.006390
O11	O	-0.441527	-1.609769	-0.570962
O12	O	0.058473	-1.109769	-0.070962
O13	O	-0.570679	-1.453305	-0.271552
O14	O	-0.070679	-0.953305	0.228448
O15	O	-0.271232	-1.334902	-0.441865
O16	O	0.228768	-0.834902	0.058135
O17	O	-0.570627	-1.609721	-0.441905
O18	O	-0.070627	-1.109721	0.058095
O19	O	-0.271192	-1.453416	-0.570939
O20	O	0.228808	-0.953416	-0.070939
O21	O	-0.441619	-1.334839	-0.271535
O22	O	0.058381	-0.834839	0.228465
O23	O	-0.441540	-1.178507	-0.441825
O24	O	0.058460	-0.678507	0.058175
O25	O	-0.570487	-1.334938	-0.741222
O26	O	-0.070487	-0.834938	-0.241222
O27	O	-0.570540	-1.178522	-0.570869
O28	O	-0.070540	-0.678522	-0.070869
O29	O	-0.441447	-1.453437	-0.741252
O30	O	0.058553	-0.953437	-0.241252
O31	O	-0.740935	-1.453326	-0.441866
O32	O	-0.240935	-0.953326	0.058134
O33	O	-0.740875	-1.334875	-0.570892
O34	O	-0.240875	-0.834875	-0.070892
C35	C	-0.506038	-1.143515	-0.506341
C36	C	-0.006038	-0.643515	-0.006341
C37	C	-0.506054	-1.036301	-0.506345
C38	C	-0.006054	-0.536301	-0.006345
C39	C	-0.232025	-1.394164	-0.506404
C40	C	0.267975	-0.894164	-0.006404
C41	C	-0.115248	-1.394179	-0.506409
C42	C	0.384752	-0.894179	-0.006409
C43	C	-0.505952	-1.394197	-0.780424
C44	C	-0.005952	-0.894197	-0.280424
C45	C	-0.505907	-1.394226	-0.897201
C46	C	-0.005907	-0.894226	-0.397201
C47	C	-0.779026	-1.394122	-0.506400
C48	C	-0.279026	-0.894122	-0.006400
C49	C	-0.895802	-1.394206	-0.506439
C50	C	-0.395802	-0.894206	-0.006439
C51	C	-0.060406	-1.332485	-0.439213
C52	C	0.439594	-0.832485	0.060787
C53	C	0.049318	-1.332496	-0.439230
C54	C	0.549318	-0.832496	0.060770
C55	C	0.049347	-1.455903	-0.573643
C56	C	0.549347	-0.955903	-0.073643
C57	C	-0.060375	-1.455886	-0.573630
C58	C	0.439625	-0.955886	-0.073630
C59	C	-0.506056	-0.949232	-0.506358
C60	C	-0.006056	-0.449232	-0.006358
C61	C	-0.506062	-0.839999	-0.506384
C62	C	-0.006062	-0.339999	-0.006384
C63	C	-0.506075	-0.645723	-0.506428
C64	C	-0.006075	-0.145723	-0.006428
C65	C	-0.506072	-0.752937	-0.506411
C66	C	-0.006072	-0.252937	-0.006411
C67	C	-0.438693	-1.332563	-0.952053
C68	C	0.061307	-0.832563	-0.452053
C69	C	-0.438661	-1.332585	-1.061777
C70	C	0.061339	-0.832585	-0.561777
C71	C	-0.573059	-1.455942	-1.061787
C72	C	-0.073059	-0.955942	-0.561787
C73	C	-0.573096	-1.455914	-0.952065
C74	C	-0.073096	-0.955914	-0.452065
C75	C	-0.506088	-1.394118	-0.233423
C76	C	-0.006088	-0.894118	0.266577
C77	C	-0.505838	-1.394276	-0.116647
C78	C	-0.005838	-0.894276	0.383353
H79	H	-0.105081	-1.282236	-0.384480
H80	H	0.394919	-0.782236	0.115520
H81	H	-0.383929	-1.282372	-1.106433
H82	H	0.116071	-0.782372	-0.606433
C83	C	-0.364792	-1.264696	-0.891707
C84	C	0.135208	-0.764696	-0.391707
N85	N	-0.309131	-1.213574	-0.846256
N86	N	0.190869	-0.713574	-0.346256
C87	C	0.109640	-1.264620	-0.365318
C88	C	0.609640	-0.764620	0.134682
N89	N	0.155074	-1.213489	-0.309648
N90	N	0.655074	-0.713489	0.190352
H91	H	0.094036	-1.506145	-0.628371
H92	H	0.594036	-1.006145	-0.128371
C93	C	-0.120705	-1.523762	-0.647550
C94	C	0.379295	-1.023762	-0.147550
N95	N	-0.166147	-1.574884	-0.703224
N96	N	0.333853	-1.074884	-0.203224
C97	C	-0.647192	-1.523584	-1.122147
C98	C	-0.147192	-1.023584	-0.622147
N99	N	-0.703113	-1.574458	-1.167609
N100	N	-0.203113	-1.074458	-0.667609
C101	C	-0.647021	-1.523769	-0.891723
C102	C	-0.147021	-1.023769	-0.391723
N103	N	-0.702693	-1.574881	-0.846274
N104	N	-0.202693	-1.074881	-0.346274
