data_functionalizedCrystal
_audit_creation_method	'MofGen! by Chris Wilmer'
_symmetry_space_group_name_H-M	'P1'
_symmetry_Int_Tables_number	1
_symmetry_cell_setting	triclinic
loop_
_symmetry_equiv_pos_as_xyz
  x,y,z
_cell_length_a	23.532407
_cell_length_b	16.109301
_cell_length_c	14.586319
_cell_angle_alpha	89.994786
_cell_angle_beta	89.999179
_cell_angle_gamma	83.155114
loop_
_atom_site_label
_atom_site_type_symbol
_atom_site_fract_x
_atom_site_fract_y
_atom_site_fract_z
O1	O	0.755631	0.100925	-0.076185
O2	O	0.589822	0.115528	-0.076200
O3	O	0.677281	-0.012840	-0.076183
O4	O	0.668171	0.229293	-0.076203
O5	O	0.677275	-0.012842	0.076298
O6	O	0.589816	0.115526	0.076280
O7	O	0.755625	0.100923	0.076295
Cu8	Cu	0.672720	0.108225	0.090211
Cu9	Cu	0.672727	0.108227	-0.090116
O10	O	0.668165	0.229292	0.076278
C11	C	0.676909	-0.043813	0.000058
C12	C	0.675803	-0.136100	0.000059
C13	C	0.568601	0.115155	0.000038
C14	C	0.505380	0.114037	0.000033
C15	C	0.725127	-0.358760	0.000049
C16	C	0.724083	-0.445472	0.000041
C17	C	0.620315	-0.424782	0.000035
C18	C	0.621360	-0.338071	0.000036
C19	C	0.673768	-0.305063	0.000048
C20	C	0.671679	-0.478486	0.000039
C21	C	0.670547	-0.572503	0.000031
C22	C	0.674900	-0.211040	0.000054
C23	C	0.238915	0.033461	0.000064
C24	C	0.298319	0.034500	0.000064
O25	O	0.334828	-0.029421	0.000101
N26	N	0.321227	0.110814	0.000052
C27	C	0.284727	0.186096	0.000049
O28	O	0.309667	0.251103	0.000039
C29	C	0.225324	0.185056	0.000056
C30	C	0.202420	0.108736	0.000059
C31	C	0.216010	-0.042853	0.000068
C32	C	0.156610	-0.043891	0.000067
C33	C	0.120115	0.031384	0.000062
C34	C	0.143020	0.107698	0.000057
C35	C	0.188826	0.260337	0.000060
C36	C	0.129419	0.259291	0.000067
C37	C	0.106515	0.182971	0.000070
C38	C	0.047125	0.181935	0.000051
N39	N	0.024217	0.105620	0.000063
C40	C	0.060712	0.030345	0.000068
C41	C	0.409478	0.188273	0.000036
C42	C	0.468880	0.189313	0.000023
C43	C	0.482468	0.037717	0.000039
C44	C	0.423065	0.036677	0.000046
C45	C	0.386570	0.111958	0.000048
C46	C	-0.064032	0.028170	0.000065
C47	C	-0.123438	0.027139	0.000060
C48	C	-0.137021	0.178735	0.000048
C49	C	-0.077620	0.179767	0.000048
C50	C	-0.041127	0.104478	0.000060
O51	O	0.010582	0.245822	0.000017
O52	O	0.035765	-0.034651	0.000090
C53	C	0.776845	0.101296	0.000055
C54	C	0.840067	0.102414	0.000054
C55	C	0.668537	0.260265	0.000035
C56	C	0.669644	0.352551	0.000028
N57	N	0.672719	0.108223	0.217042
N58	N	0.672732	0.108222	-0.216947
C59	C	0.711459	0.051400	0.452056
C60	C	0.711460	0.051398	0.548038
C61	C	0.633988	0.165048	0.548032
C62	C	0.633984	0.165045	0.452052
C63	C	0.672723	0.108222	0.404067
C64	C	0.672728	0.108223	0.596028
C65	C	0.672730	0.108221	0.700095
C66	C	0.672721	0.108223	0.299993
H67	H	0.765906	-0.489189	0.000040
H68	H	0.602438	0.211317	0.412977
H69	H	0.602449	0.211313	0.587111
N70	N	0.566790	-0.458515	0.000022
N71	N	0.565863	-0.535936	0.000021
H72	H	0.528060	-0.559760	0.000013
H73	H	-0.142083	-0.035013	0.000060
N74	N	0.568894	-0.283215	0.000055
N75	N	0.557901	-0.232528	0.064331
H76	H	0.520848	-0.193785	0.064343
N77	N	-0.026769	-0.048742	0.000083
N78	N	-0.047238	-0.116868	0.000089
H79	H	-0.020921	-0.171188	0.000099
H80	H	0.767801	-0.331888	0.000056
N81	N	0.751017	-0.006658	0.597062
N82	N	0.732952	-0.058134	0.650614
H83	H	0.760887	-0.099145	0.685236
H84	H	0.137968	-0.106038	0.000073
H85	H	0.512193	-0.023577	0.000044
N86	N	0.253276	-0.119760	0.000080
N87	N	0.232805	-0.187884	0.000087
H88	H	0.259120	-0.242206	0.000090
H89	H	0.487523	0.251460	0.000007
N90	N	0.399681	-0.041288	0.000048
N91	N	0.432279	-0.108489	0.000047
H92	H	0.415768	-0.163556	0.000049
H93	H	0.743001	0.005130	0.412989
N94	N	0.372210	0.265184	0.000034
N95	N	0.392676	0.333311	0.000024
H96	H	0.366359	0.387630	0.000024
H97	H	0.207463	0.322484	0.000053
H98	H	0.099708	0.320595	0.000073
H99	H	-0.058971	0.241913	0.000044
H100	H	-0.166746	0.240022	0.000039
