data_functionalizedCrystal
_audit_creation_method	'MofGen! by Chris Wilmer'
_symmetry_space_group_name_H-M	'P1'
_symmetry_Int_Tables_number	1
_symmetry_cell_setting	triclinic
loop_
_symmetry_equiv_pos_as_xyz
  x,y,z
_cell_length_a	12.811445
_cell_length_b	14.853559
_cell_length_c	11.295501
_cell_angle_alpha	94.591454
_cell_angle_beta	99.997971
_cell_angle_gamma	83.839672
loop_
_atom_site_label
_atom_site_type_symbol
_atom_site_fract_x
_atom_site_fract_y
_atom_site_fract_z
O1	O	1.408862	0.135258	0.251152
O2	O	1.101178	0.146630	0.217929
O3	O	1.263244	0.009784	0.235427
O4	O	1.246797	0.272104	0.233654
O5	O	1.250513	-0.001176	0.036002
O6	O	1.088448	0.135670	0.018504
O7	O	1.396131	0.124297	0.051727
Cu8	Cu	1.241127	0.128983	0.016906
Cu9	Cu	1.256183	0.141945	0.252750
O10	O	1.234066	0.261143	0.034228
C11	C	1.055437	0.140176	0.113965
C12	C	0.938108	0.137262	0.101296
C13	C	0.731510	0.143753	0.294926
C14	C	0.621269	0.141016	0.283028
C15	C	0.607383	0.129056	0.065603
C16	C	0.717624	0.131794	0.077501
C17	C	0.779684	0.139141	0.192166
C18	C	0.889927	0.141872	0.204064
C19	C	0.876038	0.129918	-0.013361
C20	C	0.765797	0.127181	-0.025259
C21	C	1.256135	-0.029291	0.135637
C22	C	1.253907	-0.129394	0.135403
C23	C	1.251393	-0.546676	0.243089
C24	C	1.237514	-0.558620	0.025668
C25	C	1.239616	-0.464569	0.025894
C26	C	1.247605	-0.411566	0.134719
C27	C	1.253493	-0.452615	0.243318
C28	C	1.233718	-0.423512	-0.082705
C29	C	1.235819	-0.329455	-0.082483
C30	C	1.243816	-0.276451	0.026344
C31	C	1.249705	-0.317506	0.134948
C32	C	1.257695	-0.264503	0.243773
C33	C	1.263591	-0.305557	0.352379
C34	C	1.261490	-0.399612	0.352145
C35	C	1.245917	-0.182396	0.026577
C36	C	1.259794	-0.170443	0.244002
C37	C	1.441873	0.130752	0.155694
C38	C	1.559203	0.133666	0.168370
C39	C	1.241175	0.300218	0.134022
C40	C	1.243404	0.400322	0.134264
N41	N	1.230546	0.119865	-0.148973
C42	C	1.342933	0.216731	-0.386127
C43	C	1.334945	0.209833	-0.511653
C44	C	1.206587	0.099169	-0.525553
C45	C	1.214575	0.106066	-0.400027
C46	C	1.282749	0.164850	-0.330318
C47	C	1.290731	0.171752	-0.204790
C48	C	1.162380	0.061083	-0.218692
C49	C	1.154391	0.054185	-0.344218
N50	N	1.266773	0.151055	0.418629
H51	H	0.715253	0.121202	-0.118616
O52	O	1.357040	0.228866	-0.137248
C53	C	1.483468	0.337937	-0.136720
C54	C	1.408430	0.273277	-0.213349
H55	H	1.525020	0.373875	-0.198219
H56	H	1.545579	0.297455	-0.071669
H57	H	1.435290	0.390399	-0.083537
H58	H	1.456518	0.220802	-0.266607
H59	H	1.346316	0.313819	-0.278326
H60	H	0.782041	0.149732	0.388291
H61	H	1.151094	0.051300	-0.582330
O62	O	1.393445	0.260326	-0.565678
C63	C	1.521652	0.370776	-0.538634
C64	C	1.455438	0.313660	-0.477300
H65	H	1.571806	0.413897	-0.467207
H66	H	1.466056	0.416875	-0.602979
H67	H	1.576171	0.323782	-0.591132
H68	H	1.400913	0.360585	-0.424738
H69	H	1.511095	0.267552	-0.413024
H70	H	0.582051	0.144774	0.366706
O71	O	1.271160	-0.254089	0.458102
C72	C	1.192204	-0.205812	0.634156
C73	C	1.183491	-0.264123	0.514444
H74	H	1.121346	-0.213919	0.679756
H75	H	1.192621	-0.131514	0.615726
H76	H	1.269152	-0.228884	0.695656
H77	H	1.106551	-0.241131	0.452886
H78	H	1.183136	-0.338409	0.532965
O79	O	1.088184	-0.002840	-0.412117
C80	C	1.018963	-0.062498	-0.611654
C81	C	1.093969	0.002132	-0.534911
H82	H	1.023631	-0.058515	-0.710946
H83	H	0.933764	-0.041957	-0.596389
H84	H	1.044022	-0.134927	-0.584421
H85	H	1.069006	0.074580	-0.562096
H86	H	1.179151	-0.018486	-0.550184
H87	H	1.266289	-0.433046	0.440566
H88	H	1.266305	-0.127294	0.332622
H89	H	1.398433	0.264603	-0.329370
H90	H	1.231022	-0.296038	-0.170916
H91	H	1.113368	0.018842	-0.173240
H92	H	0.556834	0.123082	-0.027753
O93	O	0.950052	0.149056	0.315533
C94	C	0.952190	0.160591	0.529932
C95	C	0.883976	0.152472	0.403764
H96	H	0.898799	0.163336	0.601302
H97	H	0.994539	0.225151	0.539972
H98	H	1.013755	0.099226	0.541924
H99	H	0.822355	0.213789	0.391686
H100	H	0.841703	0.087875	0.393783
H101	H	0.915272	0.126161	-0.097035
O102	O	1.229622	-0.610188	-0.079974
C103	C	1.127693	-0.713953	-0.216328
C104	C	1.136504	-0.655602	-0.096645
H105	H	1.052401	-0.750670	-0.229856
H106	H	1.200218	-0.765879	-0.213894
H107	H	1.123905	-0.668449	-0.293885
H108	H	1.140260	-0.701033	-0.019023
H109	H	1.063978	-0.603668	-0.099182
O110	O	1.256919	-0.586582	0.348523
C111	C	1.171130	-0.676570	0.464507
C112	C	1.164731	-0.631396	0.345063
H113	H	1.096616	-0.712828	0.461739
H114	H	1.177130	-0.622570	0.542376
H115	H	1.244432	-0.727809	0.477801
H116	H	1.091434	-0.580163	0.331653
H117	H	1.158789	-0.685446	0.267257
H118	H	1.241093	-0.148972	-0.061850
O119	O	1.226036	-0.475137	-0.188295
C120	C	1.216662	-0.625334	-0.284994
C121	C	1.225369	-0.566972	-0.165323
H122	H	1.216098	-0.699592	-0.266466
H123	H	1.287585	-0.617380	-0.330565
H124	H	1.139774	-0.602220	-0.346564
H125	H	1.302214	-0.590048	-0.103662
H126	H	1.154392	-0.574930	-0.119849
