data_functionalizedCrystal
_audit_creation_method	'MofGen! by Chris Wilmer'
_symmetry_space_group_name_H-M	'P1'
_symmetry_Int_Tables_number	1
_symmetry_cell_setting	triclinic
loop_
_symmetry_equiv_pos_as_xyz
  x,y,z
_cell_length_a	17.699077
_cell_length_b	14.853569
_cell_length_c	16.776229
_cell_angle_alpha	89.992182
_cell_angle_beta	89.993415
_cell_angle_gamma	83.458071
loop_
_atom_site_label
_atom_site_type_symbol
_atom_site_fract_x
_atom_site_fract_y
_atom_site_fract_z
O1	O	1.004378	0.113982	-0.066280
O2	O	0.784037	0.128821	-0.066284
O3	O	0.900092	-0.009850	-0.066274
O4	O	0.888322	0.252653	-0.066290
O5	O	0.900077	-0.009858	0.066302
O6	O	0.784022	0.128812	0.066293
O7	O	1.004362	0.113974	0.066297
Zn8	Zn	0.894190	0.121392	0.087344
Zn9	Zn	0.894210	0.121403	-0.087331
O10	O	0.888307	0.252645	0.066287
C11	C	0.755831	0.128286	0.000004
C12	C	0.671809	0.126693	0.000003
C13	C	0.632331	0.125938	0.072271
C14	C	0.553384	0.124428	0.072272
C15	C	0.513916	0.123679	0.000004
C16	C	0.553400	0.124431	-0.072270
C17	C	0.632346	0.125935	-0.072270
C18	C	0.235021	0.118364	-0.072272
C19	C	0.156069	0.116863	-0.072266
C20	C	0.156060	0.116857	0.072271
C21	C	0.235005	0.118361	0.072271
C22	C	0.274483	0.119108	-0.000003
C23	C	0.360085	0.120745	-0.000003
C24	C	0.428314	0.122049	0.000003
C25	C	0.899551	-0.043441	0.000014
C26	C	0.897952	-0.143519	0.000015
C27	C	0.828263	-0.179637	0.000015
C28	C	0.966140	-0.201437	0.000009
C29	C	0.964640	-0.295466	0.000006
C30	C	0.894951	-0.331584	0.000006
C31	C	0.826761	-0.273674	0.000009
C32	C	1.032828	-0.353383	-0.000006
C33	C	1.031331	-0.447418	-0.000010
C34	C	0.961641	-0.483538	-0.000004
C35	C	0.893449	-0.425621	0.000000
C36	C	0.823759	-0.461739	0.000000
C37	C	0.755566	-0.403824	0.000010
C38	C	0.757071	-0.309793	0.000015
C39	C	0.960136	-0.577569	-0.000009
C40	C	0.822257	-0.555776	-0.000006
C41	C	1.032568	0.114509	0.000007
C42	C	1.116591	0.116101	0.000003
C43	C	0.888848	0.286236	-0.000003
C44	C	0.890447	0.386313	-0.000009
N45	N	0.894181	0.121384	0.206555
N46	N	0.894224	0.121404	-0.206542
C47	C	0.945586	0.060005	0.248277
C48	C	0.945590	0.060005	0.331729
C49	C	0.894193	0.121387	0.373458
C50	C	0.842782	0.182768	0.331731
C51	C	0.842775	0.182764	0.248280
C52	C	0.842810	0.182786	0.668278
C53	C	0.842822	0.182787	0.751735
C54	C	0.945625	0.060027	0.751727
C55	C	0.945618	0.060022	0.668276
C56	C	0.894205	0.121400	0.626556
C57	C	0.894200	0.121399	0.536068
C58	C	0.894201	0.121393	0.463945
H59	H	0.521247	0.123798	0.131120
C60	C	0.786237	0.250281	0.377636
N61	N	0.743646	0.301133	0.412211
H62	H	0.800915	0.232743	0.214311
C63	C	1.042794	-0.161704	0.000013
N64	N	1.100533	-0.131773	0.000020
C65	C	0.753254	-0.115931	0.000023
N66	N	0.696757	-0.067946	0.000027
H67	H	0.664459	0.126556	0.131120
C68	C	1.002174	-0.007499	0.797626
N69	N	1.044766	-0.058357	0.832196
C70	C	1.109482	-0.313647	0.000001
N71	N	1.167219	-0.283714	0.000011
H72	H	0.267154	0.118970	-0.131121
C73	C	1.106345	-0.511116	-0.000008
N74	N	1.162846	-0.559094	-0.000001
H75	H	0.800965	0.232774	0.785709
C76	C	1.002128	-0.007522	0.202382
N77	N	1.044715	-0.058388	0.167817
C78	C	1.002122	-0.007538	0.377619
N79	N	1.044697	-0.058423	0.412182
C80	C	0.682065	-0.246081	0.000016
N81	N	0.625572	-0.198089	0.000011
C82	C	0.112629	0.116024	0.151774
N83	N	0.079918	0.115398	0.211654
C84	C	0.786352	0.250420	0.622397
N85	N	0.743861	0.301407	0.587837
C86	C	0.678910	-0.443567	0.000013
N87	N	0.621174	-0.473505	0.000018
C88	C	0.509983	0.123604	-0.151766
N89	N	0.477281	0.122985	-0.211645
C90	C	0.278416	0.119183	0.151771
N91	N	0.311112	0.119797	0.211653
H92	H	0.987473	0.010042	0.634303
C93	C	0.112657	0.116029	-0.151770
N94	N	0.079959	0.115399	-0.211650
H95	H	1.015658	-0.624719	-0.000025
H96	H	0.765507	-0.585176	0.000002
C97	C	0.675771	0.126768	-0.151771
N98	N	0.708477	0.127392	-0.211654
