data_functionalizedCrystal
_audit_creation_method	'MofGen! by Chris Wilmer'
_symmetry_space_group_name_H-M	'P1'
_symmetry_Int_Tables_number	1
_symmetry_cell_setting	triclinic
loop_
_symmetry_equiv_pos_as_xyz
  x,y,z
_cell_length_a	12.759401
_cell_length_b	16.959454
_cell_length_c	12.759393
_cell_angle_alpha	89.969286
_cell_angle_beta	89.981504
_cell_angle_gamma	90.020236
loop_
_atom_site_label
_atom_site_type_symbol
_atom_site_fract_x
_atom_site_fract_y
_atom_site_fract_z
Zn1	Zn	1.606216	-0.314632	-0.593988
Zn2	Zn	1.606094	-0.446833	-0.418310
Zn3	Zn	1.430518	-0.314673	-0.418327
Zn4	Zn	1.430490	-0.446772	-0.593952
O5	O	1.518330	-0.380727	-0.506144
O6	O	1.753221	-0.332177	-0.570692
O7	O	1.582764	-0.429345	-0.271291
O8	O	1.453888	-0.204057	-0.441651
O9	O	1.753131	-0.429304	-0.441622
O10	O	1.582972	-0.204026	-0.570708
O11	O	1.453769	-0.332247	-0.271304
O12	O	1.283493	-0.332188	-0.441616
O13	O	1.453840	-0.429201	-0.740978
O14	O	1.283473	-0.429241	-0.570647
O15	O	1.582945	-0.332118	-0.741004
O16	O	1.582737	-0.557436	-0.441588
O17	O	1.453722	-0.557391	-0.570631
C18	C	1.245362	-0.380713	-0.506130
C19	C	1.128586	-0.380726	-0.506149
C20	C	1.073740	-0.431342	-0.573224
C21	C	0.964016	-0.431352	-0.573235
C22	C	0.963992	-0.330127	-0.439087
C23	C	1.073714	-0.330114	-0.439082
C24	C	1.073753	-0.489786	-0.650670
C25	C	0.964029	-0.489796	-0.650681
C26	C	1.518242	-0.586094	-0.506126
C27	C	1.518300	-0.673950	-0.506154
C28	C	1.451249	-1.045433	-0.573330
C29	C	1.585703	-1.045419	-0.439066
C30	C	1.585666	-0.962873	-0.439056
C31	C	1.518419	-0.921603	-0.506183
C32	C	1.451208	-0.962879	-0.573320
C33	C	1.652869	-0.921591	-0.371913
C34	C	1.652834	-0.839040	-0.371900
C35	C	1.585591	-0.797769	-0.439033
C36	C	1.518378	-0.839050	-0.506173
C37	C	1.451130	-0.797780	-0.573300
C38	C	1.383922	-0.839059	-0.640447
C39	C	1.383965	-0.921607	-0.640453
C40	C	1.585548	-0.715220	-0.439027
C41	C	1.451089	-0.715226	-0.573291
C42	C	1.792363	-0.380743	-0.506159
C43	C	1.909140	-0.380749	-0.506165
C44	C	1.518403	-0.380648	-0.780178
C45	C	1.518435	-0.380614	-0.896954
C46	C	1.518447	-0.174559	-0.506185
C47	C	1.518496	-0.086703	-0.506203
C48	C	1.585669	-0.330058	-0.951832
C49	C	1.585694	-0.330029	-1.061556
C50	C	1.451247	-0.431119	-1.061516
C51	C	1.451218	-0.431143	-0.951793
C52	C	1.663294	-0.271696	-0.951856
C53	C	1.663319	-0.271668	-1.061580
C54	C	1.518317	-0.380750	-0.233177
C55	C	1.518489	-0.380561	-0.116401
H56	H	0.919303	-0.288920	-0.384485
H57	H	1.641533	-0.210482	-0.922099
H58	H	1.707559	-0.805436	-0.317227
C59	C	1.836143	-0.320733	-0.987626
C60	C	1.767606	-0.301308	-0.905898
H61	H	1.900541	-0.339010	-0.959251
H62	H	1.805724	-0.360970	-1.029503
H63	H	1.848656	-0.275385	-1.029542
H64	H	1.755086	-0.346657	-0.863987
H65	H	1.798031	-0.261068	-0.864004
C66	C	1.399995	-1.070786	-0.751197
C67	C	1.377378	-1.090804	-0.647136
H68	H	1.354394	-1.098802	-0.796760
H69	H	1.390340	-1.015723	-0.760786
H70	H	1.470587	-1.084271	-0.766620
H71	H	1.306788	-1.077314	-0.631710
H72	H	1.387024	-1.145879	-0.637542
H73	H	1.634212	-0.213504	-1.095627
C74	C	1.206045	-0.947088	-0.691484
C75	C	1.310087	-0.966979	-0.714252
H76	H	1.160437	-0.975097	-0.737049
H77	H	1.190722	-0.960660	-0.620890
H78	H	1.196413	-0.892017	-0.701091
H79	H	1.319721	-1.022049	-0.704639
H80	H	1.325415	-0.953412	-0.784863
H81	H	1.640447	-1.079026	-0.384408
C82	C	1.712473	-1.048128	-0.312170
C83	C	1.726674	-0.966955	-0.298022
H84	H	1.758014	-1.076134	-0.266523
H85	H	1.641869	-1.061655	-0.296839
H86	H	1.727925	-1.061645	-0.382743
H87	H	1.711215	-0.953437	-0.227450
H88	H	1.797295	-0.953423	-0.313345
C89	C	1.718440	-0.723503	-0.306302
C90	C	1.659412	-0.669846	-0.365224
H91	H	1.764047	-0.695490	-0.260741
H92	H	1.672698	-0.755741	-0.266085
H93	H	1.758621	-0.755659	-0.352121
H94	H	1.619224	-0.637694	-0.319404
H95	H	1.705160	-0.637595	-0.405443
H96	H	0.930034	-0.467945	-0.728033
H97	H	0.934226	-0.550999	-0.628750
H98	H	1.107760	-0.547906	-0.621387
C99	C	1.077420	-0.522864	-0.833583
C100	C	1.114001	-0.467744	-0.760562
H101	H	1.102263	-0.509252	-0.901423
H102	H	1.102217	-0.573844	-0.815288
H103	H	1.002970	-0.522865	-0.833569
H104	H	1.188452	-0.467747	-0.760569
H105	H	1.089210	-0.416750	-0.778862
H106	H	1.744687	-0.288063	-1.091359
H107	H	1.396466	-0.472308	-0.907116
H108	H	1.396332	-0.681629	-0.627958
C109	C	1.436616	-0.537416	-1.184869
C110	C	1.377372	-0.486667	-1.121795
H111	H	1.391007	-0.571713	-1.222075
H112	H	1.476649	-0.507302	-1.233255
H113	H	1.482360	-0.567660	-1.142048
H114	H	1.331633	-0.456419	-1.164617
H115	H	1.337322	-0.516784	-1.073404
C116	C	1.107440	-0.291431	-0.261273
C117	C	1.134001	-0.274468	-0.365360
H118	H	1.144664	-0.257077	-0.215761
H119	H	1.034250	-0.284196	-0.251686
H120	H	1.125413	-0.344523	-0.245777
H121	H	1.116021	-0.221378	-0.380858
H122	H	1.207208	-0.281697	-0.374951
C123	C	1.324166	-0.712518	-0.700035
C124	C	1.310005	-0.793689	-0.714233
H125	H	1.278538	-0.684508	-0.745591
H126	H	1.308817	-0.699043	-0.629436
H127	H	1.394746	-0.698952	-0.715466
H128	H	1.239427	-0.807256	-0.698794
H129	H	1.325347	-0.807169	-0.784848
