data_functionalizedCrystal
_audit_creation_method	'MofGen! by Chris Wilmer'
_symmetry_space_group_name_H-M	'P1'
_symmetry_Int_Tables_number	1
_symmetry_cell_setting	triclinic
loop_
_symmetry_equiv_pos_as_xyz
  x,y,z
_cell_length_a	11.026607
_cell_length_b	11.026607
_cell_length_c	9.482900
_cell_angle_alpha	78.599815
_cell_angle_beta	101.363848
_cell_angle_gamma	108.586017
loop_
_atom_site_label
_atom_site_type_symbol
_atom_site_fract_x
_atom_site_fract_y
_atom_site_fract_z
O1	O	-1.742236	-0.518010	-0.120892
O2	O	-1.375656	-0.457246	-0.120894
O3	O	-1.528564	-0.304339	-0.120888
O4	O	-1.589328	-0.670917	-0.120898
O5	O	-1.497539	-0.335557	0.120903
O6	O	-1.344632	-0.488465	0.120897
O7	O	-1.711212	-0.549228	0.120899
Cu8	Cu	-1.525089	-0.521697	0.142976
Cu9	Cu	-1.561779	-0.484778	-0.142971
O10	O	-1.558304	-0.702136	0.120893
C11	C	-1.312485	-0.461645	0.000001
C12	C	-1.170471	-0.428228	0.000000
C13	C	-1.501842	-0.272288	0.000006
C14	C	-1.468426	-0.130273	0.000000
C15	C	-1.585026	-0.734186	-0.000004
C16	C	-1.618444	-0.876199	-0.000008
C17	C	-1.774384	-0.544829	0.000001
C18	C	-1.916399	-0.578244	-0.000008
C19	C	-1.116822	-0.520498	-0.000003
C20	C	-0.970043	-0.485962	-0.000004
N21	N	-1.499293	-0.547665	0.344095
C22	C	-1.560695	-0.076624	-0.000001
C23	C	-1.526161	0.070155	-0.000007
N24	N	-1.587583	-0.458801	-0.344090
C25	C	-1.554160	-0.492428	0.416296
C26	C	-1.532708	-0.514046	0.583713
H27	H	-1.179554	-0.625061	0.000002
N28	N	-0.886964	-0.347447	0.000017
H29	H	-0.793886	-0.342410	0.000020
H30	H	-0.917274	-0.292067	-0.089614
H31	H	-0.979125	-0.682816	-0.000001
N32	N	-1.087387	-0.289721	0.000022
H33	H	-0.994309	-0.284684	0.000024
H34	H	-1.117697	-0.234340	-0.089610
H35	H	-1.665257	-0.139358	0.000009
H36	H	-1.617009	-0.429128	0.354171
N37	N	-1.387641	0.153224	-0.000011
H38	H	-1.381153	0.220609	-0.089645
H39	H	-1.358234	0.197384	0.089678
N40	N	-1.449441	-0.597889	0.665995
H41	H	-1.487477	-0.688140	0.639579
H42	H	-1.359159	-0.560145	0.639567
H43	H	-1.723028	0.061087	-0.000117
N44	N	-1.670839	-0.374944	0.573641
H45	H	-1.674362	-0.371382	0.465706
H46	H	-1.761097	-0.412627	0.600149
N47	N	-1.329917	-0.047190	-0.000015
H48	H	-1.324881	0.045888	-0.000020
H49	H	-1.274612	-0.077571	0.089621
H50	H	-1.436432	-0.610955	0.406222
