data_functionalizedCrystal
_audit_creation_method	'MofGen! by Chris Wilmer'
_symmetry_space_group_name_H-M	'P1'
_symmetry_Int_Tables_number	1
_symmetry_cell_setting	triclinic
loop_
_symmetry_equiv_pos_as_xyz
  x,y,z
_cell_length_a	10.686220
_cell_length_b	29.839131
_cell_length_c	29.839125
_cell_angle_alpha	89.982291
_cell_angle_beta	94.357517
_cell_angle_gamma	94.423467
loop_
_atom_site_label
_atom_site_type_symbol
_atom_site_fract_x
_atom_site_fract_y
_atom_site_fract_z
Zn1	Zn	1.928861	-0.126151	-0.201393
Zn2	Zn	1.928671	-0.201268	-0.126268
Zn3	Zn	1.717872	-0.131920	-0.132030
Zn4	Zn	1.717725	-0.207031	-0.207123
O5	O	1.823282	-0.166592	-0.166704
O6	O	2.105417	-0.131290	-0.186617
O7	O	1.900689	-0.192072	-0.064166
O8	O	1.746001	-0.068283	-0.141245
O9	O	2.105277	-0.186478	-0.131423
O10	O	1.901014	-0.064045	-0.192205
O11	O	1.745816	-0.141122	-0.068399
O12	O	1.541271	-0.146709	-0.146802
O13	O	1.745751	-0.196299	-0.269230
O14	O	1.541163	-0.201893	-0.201972
O15	O	1.900872	-0.136877	-0.265020
O16	O	1.900547	-0.264904	-0.136980
O17	O	1.745566	-0.269137	-0.196384
C18	C	1.495431	-0.175552	-0.175634
C19	C	1.355175	-0.179396	-0.179465
C20	C	1.823054	-0.283321	-0.166688
C21	C	1.823072	-0.333255	-0.166693
C22	C	1.904127	-0.640672	-0.135810
C23	C	1.904283	-0.828341	-0.135823
O24	O	1.973018	-0.850717	-0.109553
N25	N	1.823544	-0.854027	-0.166730
C26	C	1.742765	-0.832794	-0.197638
O27	O	1.674104	-0.858948	-0.223930
C28	C	1.742617	-0.645126	-0.197627
C29	C	1.823353	-0.619442	-0.166715
C30	C	1.984857	-0.614988	-0.104900
C31	C	1.984813	-0.568073	-0.104896
C32	C	1.904038	-0.546843	-0.135801
C33	C	1.823308	-0.572527	-0.166710
C34	C	1.661846	-0.623893	-0.228537
C35	C	1.661818	-0.576973	-0.228532
C36	C	1.742554	-0.551289	-0.197620
C37	C	1.742489	-0.504383	-0.197610
N38	N	1.823228	-0.478696	-0.166703
C39	C	1.904003	-0.499926	-0.135798
C40	C	1.742847	-0.931322	-0.197642
C41	C	1.742883	-0.978239	-0.197644
C42	C	1.904402	-0.973782	-0.135829
C43	C	1.904360	-0.926865	-0.135825
C44	C	1.823587	-0.905636	-0.166734
C45	C	1.903902	-0.401403	-0.135791
C46	C	1.903847	-0.354485	-0.135788
C47	C	1.742332	-0.358946	-0.197604
C48	C	1.742383	-0.405860	-0.197606
C49	C	1.823178	-0.427087	-0.166697
O50	O	1.673800	-0.481976	-0.223870
O51	O	1.972673	-0.473764	-0.109517
C52	C	1.904172	-0.687586	-0.135814
C53	C	1.823442	-0.713270	-0.166724
C54	C	1.742667	-0.692040	-0.197629
C55	C	1.823477	-0.760187	-0.166726
C56	C	1.904252	-0.781417	-0.135821
C57	C	1.984991	-0.755730	-0.104914
C58	C	1.984947	-0.708816	-0.104910
C59	C	1.661928	-0.717727	-0.228536
C60	C	1.661978	-0.764641	-0.228538
C61	C	1.742753	-0.785871	-0.197633
C62	C	2.152413	-0.157598	-0.157738
C63	C	2.292669	-0.153765	-0.153918
C64	C	1.823316	-0.166587	-0.283881
C65	C	1.823331	-0.166585	-0.333815
C66	C	1.823545	-0.049407	-0.166729
C67	C	1.823657	0.000531	-0.166739
C68	C	1.904187	-0.135567	-0.641267
C69	C	1.904250	-0.135527	-0.828938
O70	O	1.972903	-0.109199	-0.851343
N71	N	1.823498	-0.166460	-0.854596
C72	C	1.742719	-0.197404	-0.833333
O73	O	1.674027	-0.223711	-0.859462
C74	C	1.742651	-0.197442	-0.645662
C75	C	1.823417	-0.166509	-0.620007
C76	C	1.984946	-0.104636	-0.615612
C77	C	1.984934	-0.104648	-0.568697
C78	C	1.904164	-0.135591	-0.547437
C79	C	1.823406	-0.166521	-0.573092
C80	C	1.661867	-0.228383	-0.624400
C81	C	1.661855	-0.228389	-0.577480
C82	C	1.742621	-0.197457	-0.551824
C83	C	1.742624	-0.197475	-0.504917
N84	N	1.823376	-0.166542	-0.479259
C85	C	1.904146	-0.135599	-0.500519
C86	C	1.742762	-0.197383	-0.931862
C87	C	1.742781	-0.197374	-0.978780
C88	C	1.904310	-0.135496	-0.974382
C89	C	1.904297	-0.135507	-0.927464
C90	C	1.823514	-0.166449	-0.906205
C91	C	1.904116	-0.135627	-0.401994
C92	C	1.904101	-0.135643	-0.355075
C93	C	1.742567	-0.197519	-0.359477
C94	C	1.742587	-0.197505	-0.406392
C95	C	1.823365	-0.166555	-0.427649
O96	O	1.673997	-0.223786	-0.482483
O97	O	1.972808	-0.109290	-0.474382
C98	C	1.904199	-0.135555	-0.688182
C99	C	1.823440	-0.166485	-0.713837
C100	C	1.742670	-0.197428	-0.692577
C101	C	1.823459	-0.166477	-0.760755
C102	C	1.904229	-0.135534	-0.782015
C103	C	1.984980	-0.104601	-0.756357
C104	C	1.984969	-0.104613	-0.709442
C105	C	1.661919	-0.228361	-0.718235
C106	C	1.661938	-0.228347	-0.765150
C107	C	1.742708	-0.197405	-0.786410
C108	C	1.823321	-0.166563	-0.049980
C109	C	1.823551	-0.166432	-0.000040
H110	H	1.346455	-0.128880	-0.129114
H111	H	1.301383	-0.204285	-0.204268
H112	H	1.970062	-0.110318	-0.906578
H113	H	1.676563	-0.341653	-0.222765
H114	H	1.596098	-0.253572	-0.645281
C115	C	2.073847	-0.779089	-0.070919
C116	C	2.217285	-0.768664	-0.070720
C117	C	2.306141	-0.792025	-0.036728
C118	C	2.251559	-0.825811	-0.002936
C119	C	2.108113	-0.836238	-0.003133
C120	C	2.019257	-0.812877	-0.037125
H121	H	2.257697	-0.743651	-0.095736
H122	H	2.412330	-0.784306	-0.036582
H123	H	2.317336	-0.843105	0.022227
H124	H	2.067702	-0.861250	0.021883
H125	H	1.913069	-0.820596	-0.037271
H126	H	1.677128	-0.999148	-0.222812
H127	H	1.970077	-0.110302	-0.991700
C128	C	1.992665	-0.326233	-0.101783
C129	C	1.982480	-0.332992	-0.050987
C130	C	2.071298	-0.304743	-0.016985
C131	C	2.170300	-0.269734	-0.033778
C132	C	2.180489	-0.262974	-0.084576
C133	C	2.091672	-0.291223	-0.118579
H134	H	1.909189	-0.358909	-0.038554
H135	H	2.063754	-0.309748	0.020620
H136	H	2.236048	-0.248822	-0.008607
H137	H	2.253781	-0.237057	-0.097010
H138	H	2.099215	-0.286218	-0.156184
C139	C	1.653947	-0.231404	-1.006997
C140	C	1.653950	-0.231401	-1.058605
C141	C	1.565107	-0.265430	-1.086821
C142	C	1.476261	-0.299462	-1.063429
C143	C	1.476255	-0.299467	-1.011818
C144	C	1.565098	-0.265438	-0.983602
H145	H	1.719722	-0.206207	-1.075923
H146	H	1.565112	-0.265426	-1.125026
H147	H	1.410495	-0.324653	-1.084316
H148	H	1.410483	-0.324661	-0.994499
H149	H	1.565093	-0.265442	-0.945397
C150	C	1.992768	-0.424749	-0.101789
C151	C	1.982549	-0.418597	-0.050993
C152	C	2.071405	-0.441943	-0.016990
C153	C	2.170480	-0.471442	-0.033782
C154	C	2.180703	-0.477595	-0.084580
C155	C	2.091847	-0.454249	-0.118584
H156	H	1.909204	-0.396760	-0.038561
H157	H	2.063837	-0.437388	0.020614
H158	H	2.236257	-0.488724	-0.008611
H159	H	2.254048	-0.499433	-0.097013
H160	H	2.099415	-0.458804	-0.156188
H161	H	2.050558	-0.547164	-0.079726
C162	C	1.572997	-0.262428	-0.554094
C163	C	1.429557	-0.262681	-0.564452
C164	C	1.340705	-0.296720	-0.541067
C165	C	1.395294	-0.330507	-0.507323
C166	C	1.538741	-0.330256	-0.496963
C167	C	1.627593	-0.296217	-0.520348
H168	H	1.389141	-0.237668	-0.589433
H169	H	1.234516	-0.296905	-0.548736
H170	H	1.329520	-0.355705	-0.490011
H171	H	1.579157	-0.355269	-0.471982
H172	H	1.733782	-0.296031	-0.512679
C173	C	2.073807	-0.070597	-0.638992
C174	C	2.217242	-0.070350	-0.628622
C175	C	2.306118	-0.036311	-0.651997
C176	C	2.251559	-0.002518	-0.685742
C177	C	2.108117	-0.002764	-0.696113
C178	C	2.019241	-0.036803	-0.672738
H179	H	2.257636	-0.095367	-0.603641
H180	H	2.412304	-0.036130	-0.644320
H181	H	2.317351	0.022679	-0.703046
H182	H	2.067723	0.022253	-0.721094
H183	H	1.913055	-0.036985	-0.680416
C184	C	2.073717	-0.638335	-0.070900
C185	C	2.063502	-0.632177	-0.020105
C186	C	2.152361	-0.655520	0.013901
C187	C	2.251436	-0.685020	-0.002889
C188	C	2.261655	-0.691179	-0.053687
C189	C	2.172795	-0.667836	-0.087692
H190	H	1.990158	-0.610338	-0.007674
H191	H	2.144796	-0.650960	0.051505
H192	H	2.317214	-0.702299	0.022284
H193	H	2.334999	-0.713018	-0.066118
H194	H	2.180361	-0.672395	-0.125296
C195	C	1.993263	-0.997141	-0.101835
C196	C	1.993298	-1.048748	-0.101844
C197	C	2.082160	-1.072108	-0.067855
C198	C	2.170989	-1.043862	-0.033856
C199	C	2.170957	-0.992252	-0.033846
C200	C	2.082094	-0.968892	-0.067835
H201	H	1.927539	-1.069660	-0.127013
H202	H	2.082183	-1.110313	-0.067862
H203	H	2.236770	-1.061155	-0.008695
H204	H	2.236716	-0.971340	-0.008677
H205	H	2.082071	-0.930686	-0.067828
C206	C	1.653983	-0.907976	-0.231644
C207	C	1.510548	-0.918409	-0.231841
C208	C	1.421680	-0.895065	-0.265842
C209	C	1.476246	-0.861289	-0.299647
C210	C	1.619689	-0.850854	-0.299451
C211	C	1.708557	-0.874197	-0.265450
H212	H	1.470148	-0.943414	-0.206816
H213	H	1.315494	-0.902790	-0.265987
H214	H	1.410461	-0.844009	-0.324817
H215	H	1.660089	-0.825849	-0.324477
H216	H	1.814743	-0.866472	-0.265305
H217	H	1.596222	-0.785550	-0.253710
C218	C	1.653742	-0.231557	-0.336080
C219	C	1.554724	-0.214802	-0.306518
C220	C	1.465900	-0.248840	-0.283118
C221	C	1.476095	-0.299632	-0.289279
C222	C	1.575117	-0.316389	-0.318842
C223	C	1.663940	-0.282352	-0.342243
H224	H	1.547173	-0.177201	-0.301956
H225	H	1.392598	-0.236434	-0.261233
H226	H	1.410343	-0.324828	-0.271957
H227	H	1.582667	-0.353991	-0.323404
H228	H	1.737243	-0.294757	-0.364127
H229	H	2.050689	-0.687907	-0.079738
C230	C	1.573038	-0.652135	-0.262545
C231	C	1.429592	-0.649654	-0.262751
C232	C	1.340779	-0.677894	-0.296763
C233	C	1.395414	-0.708616	-0.330568
C234	C	1.538868	-0.711099	-0.330364
C235	C	1.627680	-0.682858	-0.296352
H236	H	1.389141	-0.626911	-0.237725
H237	H	1.234585	-0.676056	-0.296914
H238	H	1.329670	-0.729522	-0.355746
H239	H	1.579319	-0.733842	-0.355390
H240	H	1.733875	-0.684696	-0.296200
C241	C	1.992945	-0.101614	-0.326855
C242	C	1.982759	-0.050819	-0.333589
C243	C	2.071598	-0.016790	-0.305371
C244	C	2.170623	-0.033556	-0.270420
C245	C	2.180814	-0.084353	-0.263685
C246	C	2.091974	-0.118382	-0.291902
H247	H	1.909450	-0.038406	-0.359463
H248	H	2.064054	0.020813	-0.310357
H249	H	2.236387	-0.008366	-0.249531
H250	H	2.254122	-0.096766	-0.237810
H251	H	2.099519	-0.155985	-0.286916
H252	H	1.970102	-0.905955	-0.110654
H253	H	1.676980	-0.222583	-0.914558
C254	C	1.572959	-0.553621	-0.262532
C255	C	1.429523	-0.564053	-0.262732
C256	C	1.340662	-0.540702	-0.296731
C257	C	1.395238	-0.506919	-0.330528
C258	C	1.538682	-0.496486	-0.330329
C259	C	1.627542	-0.519837	-0.296331
H260	H	1.389116	-0.589062	-0.237712
H261	H	1.234475	-0.548425	-0.296878
H262	H	1.329458	-0.489634	-0.355696
H263	H	1.579088	-0.471477	-0.355349
H264	H	1.733729	-0.512113	-0.296183
C265	C	2.073827	-0.070563	-0.779749
C266	C	2.172850	-0.087317	-0.809309
C267	C	2.261684	-0.053279	-0.832704
C268	C	2.251496	-0.002487	-0.826539
C269	C	2.152468	0.014270	-0.796978
C270	C	2.063634	-0.019768	-0.773583
H271	H	2.180396	-0.124919	-0.813874
H272	H	2.334991	-0.065684	-0.854587
H273	H	2.317256	0.022710	-0.843857
H274	H	2.144923	0.051872	-0.792413
H275	H	1.990327	-0.007363	-0.751700
C276	C	1.992979	-0.101585	-0.425373
C277	C	2.136415	-0.101339	-0.415009
C278	C	2.225285	-0.067300	-0.438387
C279	C	2.170717	-0.033507	-0.472130
C280	C	2.027273	-0.033752	-0.482496
C281	C	1.938404	-0.067791	-0.459117
H282	H	2.176816	-0.126355	-0.390029
H283	H	2.331472	-0.067119	-0.430714
H284	H	2.236503	-0.008309	-0.489436
H285	H	1.986872	-0.008735	-0.507475
H286	H	1.832217	-0.067972	-0.466791
C287	C	1.573075	-0.262374	-0.793366
C288	C	1.583225	-0.313171	-0.786632
C289	C	1.494350	-0.347192	-0.814846
C290	C	1.395326	-0.330417	-0.849792
C291	C	1.385172	-0.279619	-0.856527
C292	C	1.474047	-0.245597	-0.828313
H293	H	1.656532	-0.325590	-0.760762
H294	H	1.501868	-0.384797	-0.809860
H295	H	1.329536	-0.355602	-0.870677
H296	H	1.311865	-0.267199	-0.882397
H297	H	1.466530	-0.207992	-0.833299
C298	C	1.573061	-0.262403	-0.694857
C299	C	1.429625	-0.262656	-0.705225
C300	C	1.340762	-0.296702	-0.681853
C301	C	1.395337	-0.330495	-0.648112
C302	C	1.538781	-0.330243	-0.637742
C303	C	1.627643	-0.296197	-0.661115
H304	H	1.389219	-0.237639	-0.730204
H305	H	1.234575	-0.296888	-0.689529
H306	H	1.329556	-0.355698	-0.630810
H307	H	1.579187	-0.355260	-0.612764
H308	H	1.733830	-0.296011	-0.653439
H309	H	1.676645	-0.426773	-0.222778
H310	H	1.596153	-0.700445	-0.253703
H311	H	2.050700	-0.079459	-0.547812
H312	H	1.676832	-0.222697	-0.427281
H313	H	2.050736	-0.079424	-0.688558
