data_functionalizedCrystal
_audit_creation_method	'MofGen! by Chris Wilmer'
_symmetry_space_group_name_H-M	'P1'
_symmetry_Int_Tables_number	1
_symmetry_cell_setting	triclinic
loop_
_symmetry_equiv_pos_as_xyz
  x,y,z
_cell_length_a	15.995292
_cell_length_b	15.995300
_cell_length_c	9.016244
_cell_angle_alpha	90.002308
_cell_angle_beta	89.991488
_cell_angle_gamma	83.470212
loop_
_atom_site_label
_atom_site_type_symbol
_atom_site_fract_x
_atom_site_fract_y
_atom_site_fract_z
O1	O	1.111000	0.107694	-0.123365
O2	O	0.867216	0.121073	-0.123358
O3	O	0.995794	-0.007509	-0.123369
O4	O	0.982422	0.236275	-0.123354
O5	O	0.995775	-0.007506	0.123312
O6	O	0.867197	0.121076	0.123323
O7	O	1.110981	0.107697	0.123315
Cu8	Cu	0.989088	0.114386	0.145843
Cu9	Cu	0.989110	0.114383	-0.145885
O10	O	0.982403	0.236278	0.123327
C11	C	0.836011	0.120530	-0.000016
C12	C	0.743058	0.118897	-0.000014
C13	C	0.995239	-0.038703	-0.000034
C14	C	0.993604	-0.131655	-0.000049
C15	C	0.990585	-0.301837	-0.000034
C16	C	1.082135	-0.349322	-0.000040
C17	C	1.080465	-0.446010	0.000526
C18	C	0.987613	-0.469393	-0.000021
C19	C	0.942181	-0.428248	0.140569
C20	C	0.944497	-0.331615	0.140681
C21	C	0.943163	-0.331342	-0.139851
C22	C	0.943172	-0.428287	-0.141693
C23	C	0.985928	-0.564088	-0.000009
C24	C	0.992266	-0.207142	-0.000036
C25	C	0.405321	0.112896	-0.000031
C26	C	0.428617	0.205702	-0.000576
C27	C	0.525292	0.207466	-0.000014
C28	C	0.572876	0.115874	-0.000024
C29	C	0.543772	0.069476	0.140835
C30	C	0.446982	0.068359	0.140947
C31	C	0.447148	0.066461	-0.139575
C32	C	0.543640	0.069900	-0.141431
C33	C	0.667572	0.117552	-0.000014
C34	C	0.310626	0.111215	-0.000031
C35	C	1.142186	0.108240	-0.000029
C36	C	1.235139	0.109872	-0.000041
C37	C	0.982958	0.267472	-0.000012
C38	C	0.984593	0.360424	-0.000006
N39	N	0.989078	0.114388	0.351029
N40	N	0.989126	0.114374	-0.351071
C41	C	0.920090	0.182944	0.586068
C42	C	0.920239	0.183197	0.414177
C43	C	1.076444	0.133454	0.413367
C44	C	1.076067	0.133938	0.585311
C45	C	0.971571	0.026537	0.585568
C46	C	0.969557	0.027126	0.413614
H47	H	1.118929	-0.330853	-0.100857
H48	H	0.576623	0.003047	-0.149946
N49	N	0.838368	0.168952	0.638051
N50	N	0.795811	0.224223	0.712828
H51	H	0.738094	0.214341	0.749562
N52	N	0.429630	-0.019241	-0.140739
N53	N	0.386542	-0.046103	-0.039352
H54	H	0.374172	-0.106630	-0.040153
H55	H	0.855298	0.171840	0.372034
H56	H	0.563817	0.101699	0.245669
N57	N	1.142439	0.072486	0.362052
N58	N	1.216776	0.077535	0.400498
H59	H	1.263385	0.034476	0.364257
H60	H	0.973311	-0.310849	-0.246445
N61	N	1.034709	-0.037485	0.636590
N62	N	1.014284	-0.097467	0.712134
H63	H	1.058876	-0.142677	0.748178
N64	N	0.413317	0.108700	0.273018
N65	N	0.360751	0.172600	0.264260
H66	H	0.336979	0.201098	0.357535
N67	N	0.933944	0.264256	0.640271
N68	N	0.932957	0.278340	0.776663
H69	H	0.942743	0.335766	0.814948
N70	N	0.566942	0.112255	-0.272180
N71	N	0.549312	0.085452	-0.397247
H72	H	0.565775	0.115364	-0.489589
N73	N	0.428747	-0.017003	0.148997
N74	N	0.453769	-0.061779	0.257346
H75	H	0.440893	-0.122064	0.263044
N76	N	0.858485	-0.291464	-0.141579
N77	N	0.798415	-0.335051	-0.138396
H78	H	0.738613	-0.306885	-0.139607
H79	H	0.400622	0.241473	-0.101593
N80	N	0.583766	-0.015076	0.147384
N81	N	0.634287	-0.042146	0.048073
H82	H	0.662534	-0.101861	0.052693
N83	N	0.411695	0.102932	-0.273504
N84	N	0.355162	0.163598	-0.267728
H85	H	0.330120	0.189364	-0.362308
N86	N	0.392192	0.250337	0.125430
N87	N	0.314150	0.259087	0.142753
H88	H	0.288423	0.290609	0.231747
H89	H	0.543681	0.244024	0.101136
H90	H	1.129041	0.085964	0.626889
N91	N	0.984671	-0.462593	-0.272285
N92	N	0.944884	-0.500217	-0.365611
H93	H	0.974154	-0.524446	-0.457880
H94	H	0.931443	0.248382	0.373034
H95	H	0.873955	-0.442333	0.145405
N96	N	1.028532	-0.039879	0.359677
N97	N	1.086172	-0.024338	0.273857
H98	H	1.127830	-0.071658	0.235762
H99	H	1.091538	0.197997	0.625404
H100	H	1.092281	0.196784	0.370292
N101	N	0.893373	0.003558	0.640022
N102	N	0.849627	0.051647	0.726203
H103	H	0.794393	0.035430	0.764657
H104	H	1.115993	-0.473863	0.101893
H105	H	1.116163	-0.474483	-0.100231
N106	N	0.888932	0.008982	0.362505
N107	N	0.845964	0.060086	0.280289
H108	H	0.789021	0.047275	0.244184
H109	H	1.118396	-0.329660	0.100551
H110	H	0.977223	-0.313300	0.246171
H111	H	0.875479	-0.443617	-0.150603
N112	N	0.860172	-0.291091	0.148244
N113	N	0.846861	-0.212562	0.149689
H114	H	0.787308	-0.183943	0.155046
H115	H	0.973341	-0.456605	0.245588
N116	N	0.549154	0.253048	-0.126689
N117	N	0.494357	0.283778	-0.216130
H118	H	0.511204	0.315975	-0.305597
