data_functionalizedCrystal
_audit_creation_method	'MofGen! by Chris Wilmer'
_symmetry_space_group_name_H-M	'P1'
_symmetry_Int_Tables_number	1
_symmetry_cell_setting	triclinic
loop_
_symmetry_equiv_pos_as_xyz
  x,y,z
_cell_length_a	19.188930
_cell_length_b	12.811457
_cell_length_c	11.295483
_cell_angle_alpha	91.289320
_cell_angle_beta	94.076039
_cell_angle_gamma	83.596719
loop_
_atom_site_label
_atom_site_type_symbol
_atom_site_fract_x
_atom_site_fract_y
_atom_site_fract_z
O1	O	0.096440	1.388580	0.050917
O2	O	0.105118	1.085298	0.018161
O3	O	-0.000787	1.245690	0.035507
O4	O	0.202345	1.228189	0.033570
O5	O	0.008500	1.231602	0.232034
O6	O	0.114406	1.071211	0.214688
O7	O	0.105727	1.374493	0.247444
Cu8	Cu	0.110915	1.221566	0.249011
Cu9	Cu	0.099931	1.238226	0.016594
O10	O	0.211633	1.214102	0.230098
C11	C	0.108991	1.039454	0.112234
C12	C	0.106686	0.923839	0.099748
C13	C	-0.022160	1.238079	0.133713
C14	C	-0.099681	1.236377	0.133539
C15	C	0.112467	0.691229	0.290564
C16	C	0.110300	0.582598	0.278838
C17	C	0.100182	0.597947	0.064572
C18	C	0.102348	0.706577	0.076298
C19	C	0.108492	0.753214	0.189298
C20	C	0.110663	0.861845	0.201022
C21	C	0.100540	0.877193	-0.013243
C22	C	0.098374	0.768563	-0.024968
C23	C	-0.143657	1.330490	0.143710
C24	C	-0.216498	1.328892	0.143518
C25	C	-0.245359	1.233175	0.133179
C26	C	-0.201374	1.139050	0.123001
C27	C	-0.128535	1.140651	0.123181
N28	N	-0.350940	1.155216	0.192159
N29	N	-0.420134	1.153702	0.191991
C30	C	-0.464817	1.228346	0.132634
N31	N	-0.437692	1.304577	0.073467
N32	N	-0.368492	1.306095	0.073640
C33	C	-0.324339	1.231429	0.132982
C34	C	-0.587775	1.320734	0.142595
C35	C	-0.660618	1.319133	0.142396
C36	C	-0.645491	1.129288	0.121890
C37	C	-0.572651	1.130892	0.122078
C38	C	-0.543798	1.226618	0.132437
C39	C	0.233006	1.221713	0.131889
C40	C	0.310526	1.223415	0.132055
C41	C	0.101854	1.420338	0.153368
C42	C	0.104159	1.535953	0.165846
N43	N	0.118639	1.209856	0.412480
N44	N	0.092201	1.249944	-0.146875
C45	C	0.036554	1.334241	0.675222
C46	C	0.042397	1.325399	0.798930
C47	C	0.136164	1.183325	0.783604
C48	C	0.130321	1.192167	0.659897
C49	C	0.080515	1.267628	0.605711
C50	C	0.074677	1.276475	0.482001
C51	C	0.168439	1.134397	0.466678
C52	C	0.174282	1.125555	0.590385
H53	H	0.115669	0.899814	0.293032
O54	O	0.119098	0.741533	0.412436
H55	H	0.167812	0.781150	0.421861
O56	O	-0.263936	1.430406	0.154505
H57	H	-0.319433	1.413209	0.152637
O58	O	0.114798	0.515844	0.388172
H59	H	0.161602	0.456622	0.386790
O60	O	0.093554	0.547639	-0.057299
H61	H	0.092718	0.461688	-0.048433
H62	H	0.093368	0.730577	-0.116969
O63	O	0.096246	0.944053	-0.122474
H64	H	0.144470	0.984417	-0.123286
O65	O	-0.708054	1.420647	0.153360
H66	H	-0.737831	1.418704	0.233861
O67	O	-0.232497	1.035810	0.111849
H68	H	-0.211107	0.984857	0.187062
O69	O	-0.112535	1.433734	0.154848
H70	H	-0.155357	1.498910	0.161871
O71	O	-0.081096	1.039139	0.112232
H72	H	-0.113398	0.972308	0.105018
H73	H	0.034124	1.337922	0.437885
H74	H	-0.564282	1.398680	0.151024
H75	H	-0.668989	1.051353	0.113467
O76	O	0.189869	1.101920	0.842050
H77	H	0.243289	1.116622	0.819701
O78	O	-0.525212	1.029382	0.111138
H79	H	-0.557515	0.962552	0.103931
H80	H	-0.003995	1.395691	0.631104
O81	O	-0.005009	1.397255	0.873910
H82	H	-0.040616	1.451218	0.815443
H83	H	0.214831	1.064112	0.634518
O84	O	0.215862	1.062546	0.391706
H85	H	0.207412	0.979699	0.406714
