data_functionalizedCrystal
_audit_creation_method	'MofGen! by Chris Wilmer'
_symmetry_space_group_name_H-M	'P1'
_symmetry_Int_Tables_number	1
_symmetry_cell_setting	triclinic
loop_
_symmetry_equiv_pos_as_xyz
  x,y,z
_cell_length_a	19.805407
_cell_length_b	15.297327
_cell_length_c	19.805399
_cell_angle_alpha	80.350583
_cell_angle_beta	90.019573
_cell_angle_gamma	99.707092
loop_
_atom_site_label
_atom_site_type_symbol
_atom_site_fract_x
_atom_site_fract_y
_atom_site_fract_z
Zn1	Zn	0.988098	-0.359189	0.429336
Zn2	Zn	1.488098	0.140811	0.929336
Zn3	Zn	0.968423	-0.510058	0.335728
Zn4	Zn	1.468423	-0.010058	0.835728
Zn5	Zn	0.874909	-0.359214	0.316164
Zn6	Zn	1.374909	0.140786	0.816164
Zn7	Zn	0.855293	-0.510010	0.448869
Zn8	Zn	1.355293	-0.010010	0.948869
O9	O	0.921681	-0.434618	0.382524
O10	O	1.421681	0.065382	0.882524
O11	O	1.080203	-0.379212	0.416932
O12	O	1.580203	0.120788	0.916932
O13	O	0.955994	-0.490079	0.238420
O14	O	1.455994	0.009921	0.738420
O15	O	0.906367	-0.232963	0.314814
O16	O	1.406367	0.267037	0.814814
O17	O	1.065749	-0.490055	0.348159
O18	O	1.565749	0.009945	0.848159
O19	O	0.989526	-0.232945	0.397962
O20	O	1.489526	0.267055	0.897962
O21	O	0.887290	-0.379254	0.224047
O22	O	1.387290	0.120746	0.724047
O23	O	0.777592	-0.379208	0.333754
O24	O	1.277592	0.120792	0.833754
O25	O	0.872934	-0.489973	0.540990
O26	O	1.372934	0.010027	1.040990
O27	O	0.763180	-0.489997	0.431252
O28	O	1.263180	0.010003	0.931252
O29	O	0.970505	-0.379166	0.526640
O30	O	1.470505	0.120834	1.026640
O31	O	0.936973	-0.636300	0.367099
O32	O	1.436973	-0.136300	0.867099
O33	O	0.853857	-0.636265	0.450222
O34	O	1.353857	-0.136265	0.950222
C35	C	0.745827	-0.434601	0.382500
C36	C	1.245827	0.065399	0.882500
C37	C	0.670593	-0.434615	0.382509
C38	C	1.170593	0.065385	0.882509
C39	C	0.627751	-0.492390	0.433217
C40	C	1.127751	0.007610	0.933217
C41	C	0.557063	-0.492392	0.433227
C42	C	1.057063	0.007608	0.933227
C43	C	0.529217	-0.434622	0.382525
C44	C	1.029217	0.065378	0.882525
C45	C	0.572065	-0.376841	0.331814
C46	C	1.072065	0.123159	0.831814
C47	C	0.642752	-0.376835	0.331808
C48	C	1.142752	0.123165	0.831808
C49	C	0.286989	-0.376861	0.331839
C50	C	0.786989	0.123139	0.831839
C51	C	0.216295	-0.376873	0.331848
C52	C	0.716295	0.123127	0.831848
C53	C	0.201299	-0.492417	0.433258
C54	C	0.701299	0.007583	0.933258
C55	C	0.271987	-0.492412	0.433252
C56	C	0.771987	0.007588	0.933252
C57	C	0.314829	-0.434627	0.382543
C58	C	0.814829	0.065373	0.882543
C59	C	0.391477	-0.434625	0.382534
C60	C	0.891477	0.065375	0.882534
C61	C	0.452569	-0.434628	0.382531
C62	C	0.952569	0.065372	0.882531
C63	C	0.891170	-0.669017	0.412918
C64	C	1.391170	-0.169017	0.912918
C65	C	0.878179	-0.769294	0.425943
C66	C	1.378179	-0.269294	0.925943
C67	C	1.014807	-1.051906	0.289663
C68	C	1.514807	-0.551906	0.789663
C69	C	1.027012	-0.957691	0.277422
C70	C	1.527012	-0.457691	0.777422
C71	C	0.989805	-0.910587	0.314551
C72	C	1.489805	-0.410587	0.814551
C73	C	0.940391	-0.957708	0.363923
C74	C	1.440391	-0.457708	0.863923
C75	C	0.928180	-1.051932	0.376162
C76	C	1.428180	-0.551932	0.876162
C77	C	0.903178	-0.910613	0.401050
C78	C	1.403178	-0.410613	0.901050
C79	C	0.853764	-0.957734	0.450423
C80	C	1.353764	-0.457734	0.950423
C81	C	0.841556	-1.051949	0.462659
C82	C	1.341556	-0.551949	0.962659
C83	C	0.878763	-1.099053	0.425530
C84	C	1.378763	-0.599053	0.925530
C85	C	0.915389	-0.816389	0.388812
C86	C	1.415389	-0.316389	0.888812
C87	C	0.828762	-0.816415	0.475311
C88	C	1.328762	-0.316415	0.975311
C89	C	0.816557	-0.910630	0.487552
C90	C	1.316557	-0.410630	0.987552
C91	C	1.098221	-0.434636	0.382549
C92	C	1.598221	0.065364	0.882549
C93	C	1.173452	-0.434644	0.382559
C94	C	1.673452	0.065356	0.882559
C95	C	0.921726	-0.434561	0.559060
C96	C	1.421726	0.065439	1.059060
C97	C	0.921746	-0.434537	0.634289
C98	C	1.421746	0.065463	1.134289
C99	C	0.952329	-0.199304	0.352027
C100	C	1.452329	0.300696	0.852027
C101	C	0.965390	-0.099027	0.339031
C102	C	1.465390	0.400973	0.839031
C103	C	0.921683	-0.434610	0.206667
C104	C	1.421683	0.065390	0.706667
C105	C	0.921828	-0.434380	0.131406
C106	C	1.421828	0.065620	0.631406
C107	C	0.972552	-0.376837	0.662161
C108	C	1.472552	0.123163	1.162161
C109	C	0.972562	-0.376810	0.732846
C110	C	1.472562	0.123190	1.232846
C111	C	0.921768	-0.434490	0.775658
C112	C	1.421768	0.065510	1.275658
C113	C	0.870957	-0.492193	0.747781
C114	C	1.370957	0.007807	1.247781
C115	C	0.870944	-0.492214	0.677096
C116	C	1.370944	0.007786	1.177096
C117	C	0.871006	-0.492109	1.032843
C118	C	1.371006	0.007891	1.532843
C119	C	0.871024	-0.492085	1.103533
C120	C	1.371024	0.007915	1.603533
C121	C	0.972624	-0.376705	1.088593
C122	C	1.472624	0.123295	1.588593
C123	C	0.972612	-0.376726	1.017909
C124	C	1.472612	0.123274	1.517909
C125	C	0.921798	-0.434426	0.990037
C126	C	1.421798	0.065574	1.490037
C127	C	0.921787	-0.434452	0.913392
C128	C	1.421787	0.065548	1.413392
C129	C	0.921782	-0.434469	0.852303
C130	C	1.421782	0.065531	1.352303
H131	H	0.321862	-0.329816	0.290545
H132	H	0.821862	0.170184	0.790545
H133	H	1.013997	-0.329721	1.111294
H134	H	1.513997	0.170279	1.611294
O135	O	0.654906	-0.548479	0.482403
O136	O	1.154906	-0.048479	0.982403
C137	C	0.757159	-0.599641	0.527368
C138	C	1.257159	-0.099641	1.027368
C139	C	0.726498	-0.536092	0.471612
C140	C	1.226498	-0.036092	0.971612
H141	H	0.815047	-0.589635	0.518671
H142	H	1.315047	-0.089635	1.018671
H143	H	0.733839	-0.672388	0.524827
H144	H	1.233839	-0.172388	1.024827
H145	H	0.745291	-0.583901	0.579916
H146	H	1.245291	-0.083901	1.079916
H147	H	0.738356	-0.551750	0.419037
H148	H	1.238356	-0.051750	0.919037
H149	H	0.749819	-0.463364	0.474213
H150	H	1.249819	0.036636	0.974213
H151	H	0.166408	-0.539464	0.474549
H152	H	0.666408	-0.039464	0.974549
O153	O	0.299125	-0.548401	0.482522
O154	O	0.799125	-0.048401	0.982522
C155	C	0.377341	-0.560677	0.575506
C156	C	0.877341	-0.060677	1.075506
C157	C	0.346675	-0.497171	0.519722
C158	C	0.846675	0.002829	1.019722
H159	H	0.415780	-0.519282	0.605606
H160	H	0.915780	-0.019282	1.105606
H161	H	0.404339	-0.607781	0.550518
H162	H	0.904339	-0.107781	1.050518
H163	H	0.334561	-0.601989	0.611723
H164	H	0.834561	-0.101989	1.111723
H165	H	0.389414	-0.455801	0.483487
H166	H	0.889414	0.044199	0.983487
H167	H	0.319659	-0.450127	0.544756
H168	H	0.819659	0.049873	1.044756
H169	H	0.829597	-0.539153	0.782644
H170	H	1.329597	-0.039153	1.282644
O171	O	0.545133	-0.320638	0.282529
O172	O	1.045133	0.179362	0.782529
C173	C	0.567469	-0.206071	0.181914
C174	C	1.067469	0.293929	0.681914
C175	C	0.598059	-0.269657	0.237701
C176	C	1.098059	0.230343	0.737701
H177	H	0.610243	-0.164850	0.145647
H178	H	1.110243	0.335150	0.645647
H179	H	0.540544	-0.158894	0.206898
H180	H	1.040544	0.341106	0.706898
H181	H	0.528958	-0.247448	0.151868
H182	H	1.028958	0.252552	0.651868
H183	H	0.636596	-0.228353	0.267765
H184	H	1.136596	0.271647	0.767765
H185	H	0.624940	-0.316836	0.212675
H186	H	1.124940	0.183164	0.712675
H187	H	0.193626	-0.329824	0.290560
H188	H	0.693626	0.170176	0.790560
O189	O	0.821565	-0.548361	0.650136
O190	O	1.321565	-0.048361	1.150136
C191	C	0.720778	-0.662787	0.672407
C192	C	1.220778	-0.162787	1.172407
C193	C	0.776668	-0.599258	0.703030
C194	C	1.276668	-0.099258	1.203030
H195	H	0.684456	-0.703940	0.715155
H196	H	1.184456	-0.203940	1.215155
H197	H	0.745671	-0.710030	0.645464
H198	H	1.245671	-0.210030	1.145464
H199	H	0.690803	-0.621369	0.633916
H200	H	1.190803	-0.121369	1.133916
H201	H	0.806663	-0.640603	0.741548
H202	H	1.306663	-0.140603	1.241548
H203	H	0.751733	-0.552013	0.729930
H204	H	1.251733	-0.052013	1.229930
H205	H	0.829658	-0.539057	1.138389
H206	H	1.329658	-0.039057	1.638389
H207	H	1.013975	-0.329761	0.983054
H208	H	1.513975	0.170239	1.483054
O209	O	0.768557	-0.956547	0.535462
O210	O	1.268557	-0.456547	1.035462
C211	C	0.711393	-1.101712	0.592676
C212	C	1.211393	-0.601712	1.092676
C213	C	0.765759	-1.049824	0.538388
C214	C	1.265759	-0.549824	1.038388
H215	H	0.709123	-1.177135	0.595069
H216	H	1.209123	-0.677135	1.095069
H217	H	0.659188	-1.083327	0.578352
H218	H	1.159188	-0.583327	1.078352
H219	H	0.725654	-1.083077	0.644837
H220	H	1.225654	-0.583077	1.144837
H221	H	0.751562	-1.068431	0.486207
H222	H	1.251562	-0.568431	0.986207
H223	H	0.817949	-1.068212	0.552770
H224	H	1.317949	-0.568212	1.052770
O225	O	0.684472	-0.320744	0.282616
O226	O	1.184472	0.179256	0.782616
C227	C	0.800014	-0.269562	0.237638
C228	C	1.300014	0.230438	0.737638
C229	C	0.752848	-0.333121	0.293396
C230	C	1.252848	0.166879	0.793396
H231	H	0.855304	-0.279560	0.246326
H232	H	1.355304	0.220440	0.746326
H233	H	0.795638	-0.196818	0.240184
H234	H	1.295638	0.303182	0.740184
H235	H	0.784006	-0.285299	0.185090
H236	H	1.284006	0.214701	0.685090
H237	H	0.768825	-0.317465	0.345971
H238	H	1.268825	0.182535	0.845971
H239	H	0.757230	-0.405846	0.290790
H240	H	1.257230	0.094154	0.790790
O241	O	0.515538	-0.548610	0.482511
O242	O	1.015538	-0.048610	0.982511
C243	C	0.508125	-0.663204	0.583107
C244	C	1.008125	-0.163204	1.083107
C245	C	0.555227	-0.599591	0.527324
C246	C	1.055227	-0.099591	1.027324
H247	H	0.540196	-0.704426	0.619361
H248	H	1.040196	-0.204426	1.119361
H249	H	0.468900	-0.710380	0.558117
H250	H	0.968900	-0.210380	1.058117
H251	H	0.480407	-0.621848	0.613167
H252	H	0.980407	-0.121848	1.113167
H253	H	0.582991	-0.640875	0.497245
H254	H	1.082991	-0.140875	0.997245
H255	H	0.594410	-0.552414	0.552356
H256	H	1.094410	-0.052414	1.052356
H257	H	0.868830	-1.175770	0.435496
H258	H	1.368830	-0.675770	0.935496
O259	O	0.963298	-0.770581	0.340780
O260	O	1.463298	-0.270581	0.840780
C261	C	0.986241	-0.664234	0.235617
C262	C	1.486241	-0.164234	0.735617
C263	C	0.931908	-0.716070	0.289957
C264	C	1.431908	-0.216070	0.789957
H265	H	0.960886	-0.620135	0.194521
H266	H	1.460886	-0.120135	0.694521
H267	H	1.010729	-0.714044	0.211129
H268	H	1.510729	-0.214044	0.711129
H269	H	1.027349	-0.620100	0.261005
H270	H	1.527349	-0.120100	0.761005
H271	H	0.890759	-0.760205	0.264621
H272	H	1.390759	-0.260205	0.764621
H273	H	0.907474	-0.666211	0.314441
H274	H	1.407474	-0.166211	0.814441
O275	O	1.001662	-0.819067	0.302788
O276	O	1.501662	-0.319067	0.802788
C277	C	1.036581	-0.683785	0.350111
C278	C	1.536581	-0.183785	0.850111
C279	C	1.023161	-0.787435	0.363531
C280	C	1.523161	-0.287435	0.863531
H281	H	1.053980	-0.658179	0.399208
H282	H	1.553980	-0.158179	0.899208
H283	H	0.987481	-0.658227	0.332747
H284	H	1.487481	-0.158227	0.832747
H285	H	1.078267	-0.658215	0.308422
H286	H	1.578267	-0.158215	0.808422
H287	H	0.981498	-0.813081	0.405230
H288	H	1.481498	-0.313081	0.905230
H289	H	1.072293	-0.812932	0.380857
H290	H	1.572293	-0.312932	0.880857
O291	O	1.075060	-0.912061	0.229466
O292	O	1.575060	-0.412061	0.729466
C293	C	1.159669	-0.921984	0.144939
C294	C	1.659669	-0.421984	0.644939
C295	C	1.105281	-0.973773	0.199241
C296	C	1.605281	-0.473773	0.699241
H297	H	1.184108	-0.971855	0.120476
H298	H	1.684108	-0.471855	0.620476
H299	H	1.200808	-0.877834	0.170282
H300	H	1.700808	-0.377834	0.670282
H301	H	1.134316	-0.877910	0.103823
H302	H	1.634316	-0.377910	0.603823
H303	H	1.130573	-1.017895	0.240373
H304	H	1.630573	-0.517895	0.740373
H305	H	1.064148	-1.017865	0.173849
H306	H	1.564148	-0.517865	0.673849
H307	H	1.045092	-1.090267	0.259433
H308	H	1.545092	-0.590267	0.759433
O309	O	0.793634	-1.097820	0.510663
O310	O	1.293634	-0.597820	1.010663
C311	C	0.770713	-1.204085	0.615871
C312	C	1.270713	-0.704085	1.115871
C313	C	0.825049	-1.152212	0.561547
C314	C	1.325049	-0.652212	1.061547
H315	H	0.796093	-1.248059	0.657031
H316	H	1.296093	-0.748059	1.157031
H317	H	0.729615	-1.248321	0.590549
H318	H	1.229615	-0.748321	1.090549
H319	H	0.746206	-1.154219	0.640273
H320	H	1.246206	-0.654219	1.140273
H321	H	0.849608	-1.202013	0.537126
H322	H	1.349608	-0.702013	1.037126
H323	H	0.866103	-1.107962	0.586906
H324	H	1.366103	-0.607962	1.086906
O325	O	0.821609	-0.548230	1.005889
O326	O	1.321609	-0.048230	1.505889
C327	C	0.720788	-0.662601	1.028164
C328	C	1.220788	-0.162601	1.528164
C329	C	0.776708	-0.599111	1.058786
C330	C	1.276708	-0.099111	1.558786
H331	H	0.684463	-0.703741	1.070914
H332	H	1.184463	-0.203741	1.570914
H333	H	0.745652	-0.709856	1.001208
H334	H	1.245652	-0.209856	1.501208
H335	H	0.690823	-0.621152	0.989684
H336	H	1.190823	-0.121152	1.489684
H337	H	0.806693	-0.640487	1.097293
H338	H	1.306693	-0.140487	1.597293
H339	H	0.751802	-0.551853	1.085698
H340	H	1.251802	-0.051853	1.585698
H341	H	1.013916	-0.329870	0.627308
H342	H	1.513916	0.170130	1.127308
O343	O	1.021986	-0.320735	0.759814
O344	O	1.521986	0.179265	1.259814
C345	C	1.122744	-0.206262	0.737532
C346	C	1.622744	0.293738	1.237532
C347	C	1.066819	-0.269740	0.706905
C348	C	1.566819	0.230260	1.206905
H349	H	1.158998	-0.165003	0.694769
H350	H	1.658998	0.334997	1.194769
H351	H	1.152794	-0.247636	0.775977
H352	H	1.652794	0.252364	1.275977
H353	H	1.097807	-0.159109	0.764526
H354	H	1.597807	0.340891	1.264526
H355	H	1.091700	-0.316905	0.679876
H356	H	1.591700	0.183095	1.179876
H357	H	1.036775	-0.228310	0.668495
H358	H	1.536775	0.271690	1.168495
H359	H	0.798463	-0.778063	0.505543
H360	H	1.298463	-0.278063	1.005543
