data_functionalizedCrystal
_audit_creation_method	'MofGen! by Chris Wilmer'
_symmetry_space_group_name_H-M	'P1'
_symmetry_Int_Tables_number	1
_symmetry_cell_setting	triclinic
loop_
_symmetry_equiv_pos_as_xyz
  x,y,z
_cell_length_a	10.686220
_cell_length_b	25.639239
_cell_length_c	25.639234
_cell_angle_alpha	90.021106
_cell_angle_beta	85.640907
_cell_angle_gamma	94.420676
loop_
_atom_site_label
_atom_site_type_symbol
_atom_site_fract_x
_atom_site_fract_y
_atom_site_fract_z
Zn1	Zn	1.928866	-0.146798	0.234384
Zn2	Zn	1.928690	-0.234226	0.146954
Zn3	Zn	1.717881	-0.153517	0.153660
Zn4	Zn	1.717740	-0.240925	0.241055
O5	O	1.823294	-0.193867	0.194013
O6	O	2.105423	-0.152780	0.217189
O7	O	1.900711	-0.223528	0.074679
O8	O	1.746001	-0.079457	0.164383
O9	O	2.105294	-0.217013	0.152954
O10	O	1.901011	-0.074520	0.223691
O11	O	1.745831	-0.164232	0.079606
O12	O	1.541281	-0.170728	0.170851
O13	O	1.745761	-0.228431	0.313335
O14	O	1.541178	-0.234946	0.235059
O15	O	1.900874	-0.159276	0.308434
O16	O	1.900574	-0.308284	0.159422
O17	O	1.745590	-0.313206	0.228557
C18	C	1.495444	-0.204294	0.204407
C19	C	1.355188	-0.208767	0.208866
C20	C	1.823082	-0.329716	0.193996
C21	C	1.823107	-0.387829	0.194003
C22	C	1.904205	-0.745604	0.158065
C23	C	1.904254	-0.800207	0.158070
O24	O	1.972986	-0.826250	0.127496
N25	N	1.823516	-0.830099	0.194041
C26	C	1.742733	-0.805385	0.230012
O27	O	1.674064	-0.835824	0.260608
C28	C	1.742691	-0.750783	0.230008
C29	C	1.823425	-0.720894	0.194032
C30	C	1.984933	-0.715716	0.122092
C31	C	1.984882	-0.661117	0.122086
C32	C	1.904103	-0.636406	0.158053
C33	C	1.823375	-0.666295	0.194026
C34	C	1.661916	-0.726070	0.265981
C35	C	1.661882	-0.671464	0.265975
C36	C	1.742616	-0.641575	0.229999
C37	C	1.742544	-0.586986	0.229987
N38	N	1.823282	-0.557094	0.194017
C39	C	1.904061	-0.581804	0.158050
C40	C	1.742828	-0.920052	0.230017
C41	C	1.742862	-0.974654	0.230018
C42	C	1.904385	-0.969472	0.158077
C43	C	1.904344	-0.914870	0.158074
C44	C	1.823566	-0.890161	0.194046
C45	C	1.903948	-0.467143	0.158040
C46	C	1.903886	-0.412540	0.158035
C47	C	1.742368	-0.417726	0.229978
C48	C	1.742425	-0.472325	0.229981
C49	C	1.823225	-0.497031	0.194009
O50	O	1.673850	-0.560907	0.260548
O51	O	1.972730	-0.551359	0.127463
C52	C	2.152424	-0.183399	0.183579
C53	C	2.292680	-0.178939	0.179133
C54	C	1.823321	-0.193851	0.330385
C55	C	1.823333	-0.193844	0.388499
C56	C	1.823542	-0.057486	0.194041
C57	C	1.823647	0.000632	0.194053
C58	C	1.823340	-0.193842	0.058169
C59	C	1.823573	-0.193694	0.000048
C60	C	1.742649	-0.229785	0.642236
C61	C	1.742627	-0.229797	0.587632
O62	O	1.673907	-0.260411	0.561562
N63	N	1.823381	-0.193801	0.557772
C64	C	1.904152	-0.157786	0.582517
O65	O	1.972837	-0.127168	0.552105
C66	C	1.904167	-0.157771	0.637120
C67	C	1.823418	-0.193774	0.666978
C68	C	1.661905	-0.265784	0.672094
C69	C	1.661929	-0.265772	0.726694
C70	C	1.742697	-0.229761	0.751436
C71	C	1.823442	-0.193762	0.721578
C72	C	1.984932	-0.121754	0.661865
C73	C	1.984939	-0.121742	0.716472
C74	C	1.904189	-0.157745	0.746330
C75	C	1.904234	-0.157738	0.800920
N76	N	1.823481	-0.193735	0.830781
C77	C	1.742712	-0.229746	0.806039
C78	C	1.904114	-0.157818	0.467848
C79	C	1.904106	-0.157835	0.413246
C80	C	1.742579	-0.229846	0.418365
C81	C	1.742594	-0.229832	0.472968
C82	C	1.823360	-0.193815	0.497709
C83	C	1.742770	-0.229719	0.920702
C84	C	1.742805	-0.229705	0.975306
C85	C	1.904327	-0.157692	0.970183
C86	C	1.904297	-0.157708	0.915583
C87	C	1.823508	-0.193723	0.890844
O88	O	1.972916	-0.127139	0.827026
O89	O	1.674028	-0.260354	0.836458
H90	H	1.301398	-0.237731	0.237731
H91	H	1.346464	-0.149980	0.150266
H92	H	1.969629	-0.388205	0.128737
C93	C	1.653619	-0.505203	0.269552
H94	H	1.605508	-0.482664	0.290974
H95	H	1.598693	-0.528291	0.251283
H96	H	1.701885	-0.524930	0.290825
H97	H	2.050688	-0.092437	0.637564
C98	C	1.992816	-0.494313	0.118469
H99	H	2.040872	-0.468687	0.097043
H100	H	2.047790	-0.513832	0.136741
H101	H	1.944595	-0.517179	0.097200
C102	C	1.993166	-0.118081	0.997404
H103	H	2.041264	-0.096643	0.971804
H104	H	1.944937	-0.096833	1.020238
H105	H	2.048122	-0.136333	1.016957
C106	C	1.992980	-0.118204	0.495058
H107	H	2.041075	-0.096774	0.469450
H108	H	1.944773	-0.096948	0.517892
H109	H	2.047938	-0.136456	0.514610
H110	H	1.970165	-0.989601	0.128793
H111	H	2.050627	-0.636784	0.092792
C112	C	2.073791	-0.082126	0.743684
H113	H	2.121881	-0.060691	0.718078
H114	H	2.025576	-0.060873	0.766520
H115	H	2.128753	-0.100376	0.763235
C116	C	2.073791	-0.742889	0.082522
H117	H	2.121849	-0.717261	0.061098
H118	H	2.128764	-0.762410	0.100792
H119	H	2.025568	-0.765751	0.061251
H120	H	1.970085	-0.890537	0.128779
H121	H	1.677109	-0.998985	0.259309
C122	C	1.653952	-0.892877	0.269583
H123	H	1.605871	-0.918503	0.291001
H124	H	1.702153	-0.870010	0.290853
H125	H	1.598981	-0.873361	0.251302
H126	H	1.596167	-0.750396	0.295275
H127	H	1.596104	-0.651348	0.295270
H128	H	1.676595	-0.397598	0.259261
C129	C	1.653971	-0.269307	1.008147
H130	H	1.605857	-0.290751	0.985588
H131	H	1.702201	-0.290552	1.027914
H132	H	1.599030	-0.251046	1.031193
H133	H	1.676973	-0.259042	0.900567
C134	C	1.573088	-0.305369	0.759531
H135	H	1.524979	-0.326811	0.736969
H136	H	1.621305	-0.326616	0.779302
H137	H	1.518143	-0.287106	0.782574
C138	C	1.573062	-0.305404	0.644886
H139	H	1.524992	-0.326841	0.670495
H140	H	1.518100	-0.287166	0.625327
H141	H	1.621297	-0.326660	0.622057
C142	C	1.653761	-0.269430	0.505807
H143	H	1.605656	-0.290876	0.483246
H144	H	1.701986	-0.290673	0.525578
H145	H	1.598812	-0.251169	0.528849
H146	H	1.676811	-0.259168	0.398210
H147	H	1.969874	-0.128523	0.388939
H148	H	1.970059	-0.128395	0.891271
