data_functionalizedCrystal
_audit_creation_method	'MofGen! by Chris Wilmer'
_symmetry_space_group_name_H-M	'P1'
_symmetry_Int_Tables_number	1
_symmetry_cell_setting	triclinic
loop_
_symmetry_equiv_pos_as_xyz
  x,y,z
_cell_length_a	13.101039
_cell_length_b	10.489763
_cell_length_c	10.489741
_cell_angle_alpha	95.456233
_cell_angle_beta	93.396862
_cell_angle_gamma	93.390429
loop_
_atom_site_label
_atom_site_type_symbol
_atom_site_fract_x
_atom_site_fract_y
_atom_site_fract_z
O1	O	-0.085169	-1.700986	0.173133
O2	O	-0.085181	-1.329795	0.189995
O3	O	-0.085169	-1.523836	-0.004033
O4	O	-0.085182	-1.506945	0.367160
O5	O	0.085260	-1.509914	0.009912
O6	O	0.085248	-1.315873	0.203939
O7	O	0.085260	-1.687064	0.187077
Zn8	Zn	0.112313	-1.499258	0.197722
Zn9	Zn	-0.112234	-1.517601	0.179350
O10	O	0.085247	-1.493023	0.381105
C11	C	0.000032	-1.275303	0.195687
C12	C	0.000028	-1.133675	0.191858
N13	N	0.265561	-1.486749	0.210260
N14	N	-0.265482	-1.530120	0.166802
C15	C	0.000045	-1.515599	-0.044593
C16	C	0.000043	-1.511782	-0.186222
C17	C	0.474602	-1.469730	0.227330
C18	C	0.525483	-1.547135	0.149736
C19	C	0.641801	-1.537665	0.159234
C20	C	0.358274	-1.479198	0.217834
C21	C	0.000042	-1.065534	0.068389
C22	C	-0.083987	-0.980273	0.119830
C23	C	0.084043	-0.966581	0.133608
C24	C	-0.084071	-1.050284	0.243344
C25	C	0.084034	-1.036596	0.257111
C26	C	-0.000016	-0.951363	0.308640
C27	C	0.000047	-0.741558	0.181365
C28	C	0.000053	-0.883193	0.185133
C29	C	0.000032	-1.388320	-0.254373
C30	C	0.084064	-1.439778	-0.339616
C31	C	-0.083966	-1.453534	-0.353339
C32	C	0.084145	-1.563286	-0.269594
C33	C	-0.083960	-1.577030	-0.283313
C34	C	0.000092	-1.628577	-0.368526
C35	C	0.000031	-1.501260	0.421664
C36	C	0.000027	-1.505077	0.563294
H37	H	0.481685	-1.620517	0.076172
H38	H	0.000113	-1.286802	-0.204724
O39	O	0.000067	-0.892527	0.429907
C40	C	0.087870	-0.855775	0.639825
C41	C	0.087897	-0.922507	0.502550
H42	H	0.158884	-0.879967	0.698588
H43	H	0.016230	-0.890389	0.686442
H44	H	0.088505	-0.747479	0.636041
H45	H	0.087299	-1.030811	0.506219
H46	H	0.159531	-0.887789	0.455987
O47	O	0.169028	-1.618700	-0.226097
C48	C	0.324598	-1.716515	-0.280524
C49	C	0.228501	-1.653816	-0.329963
H50	H	0.372720	-1.744899	-0.364469
H51	H	0.300563	-1.805626	-0.232542
H52	H	0.371692	-1.645343	-0.207929
H53	H	0.181365	-1.724890	-0.402602
H54	H	0.252607	-1.564683	-0.377867
O55	O	0.000012	-1.749863	-0.427315
C56	C	-0.087789	-1.959776	-0.463966
C57	C	-0.087820	-1.822470	-0.397312
H58	H	-0.158805	-2.018510	-0.439755
H59	H	-0.016150	-2.006381	-0.429306
H60	H	-0.088420	-1.956056	-0.572271
H61	H	-0.087226	-1.826076	-0.288999
H62	H	-0.159453	-1.775919	-0.432076
H63	H	0.155084	-0.929800	0.087155
O64	O	0.526799	-1.382022	0.314960
C65	C	0.559856	-1.158366	0.390612
C66	C	0.500682	-1.257550	0.291277
H67	H	0.538746	-1.057710	0.371515
H68	H	0.645728	-1.166124	0.382728
H69	H	0.538848	-1.177853	0.491200
H70	H	0.521603	-1.238127	0.190644
H71	H	0.414824	-1.249768	0.299273
H72	H	-0.000060	-1.115232	-0.033111
H73	H	0.155076	-1.061838	0.315124
H74	H	-0.155026	-0.955062	0.061775
O75	O	-0.168892	-1.094203	0.298593
C76	C	-0.264031	-1.277785	0.364258
C77	C	-0.167942	-1.228220	0.301645
H78	H	-0.263284	-1.386139	0.366771
H79	H	-0.335588	-1.254282	0.306123
H80	H	-0.264323	-1.229599	0.466327
H81	H	-0.167551	-1.276377	0.199582
H82	H	-0.096429	-1.251704	0.359876
H83	H	0.155104	-1.381735	-0.364819
O84	O	-0.168816	-1.646046	-0.253239
C85	C	-0.353328	-1.666276	-0.261698
C86	C	-0.257305	-1.587994	-0.295811
H87	H	-0.424895	-1.619387	-0.296126
H88	H	-0.352171	-1.669266	-0.153268
H89	H	-0.353999	-1.768195	-0.310528
H90	H	-0.256571	-1.486039	-0.247067
H91	H	-0.258499	-1.585111	-0.404255
H92	H	-0.155015	-1.407082	-0.390120
