data_functionalizedCrystal
_audit_creation_method	'MofGen! by Chris Wilmer'
_symmetry_space_group_name_H-M	'P1'
_symmetry_Int_Tables_number	1
_symmetry_cell_setting	triclinic
loop_
_symmetry_equiv_pos_as_xyz
  x,y,z
_cell_length_a	10.723024
_cell_length_b	23.532407
_cell_length_c	9.798715
_cell_angle_alpha	89.992208
_cell_angle_beta	89.996609
_cell_angle_gamma	83.658273
loop_
_atom_site_label
_atom_site_type_symbol
_atom_site_fract_x
_atom_site_fract_y
_atom_site_fract_z
O1	O	1.654699	0.079871	-0.113498
O2	O	1.291309	0.087516	-0.113504
O3	O	1.483962	0.000833	-0.113476
O4	O	1.462046	0.166554	-0.113526
O5	O	1.483948	0.000833	0.113507
O6	O	1.291294	0.087516	0.113478
O7	O	1.654685	0.079871	0.113484
Zn8	Zn	1.472987	0.083693	0.149520
Zn9	Zn	1.473006	0.083693	-0.149539
O10	O	1.462032	0.166554	0.113456
C11	C	1.244819	0.086960	-0.000013
C12	C	1.106317	0.085295	-0.000014
C13	C	1.029823	0.133798	-0.000030
C14	C	0.886673	0.132079	-0.000031
C15	C	1.483397	-0.020387	0.000019
C16	C	1.481719	-0.083615	0.000029
C17	C	1.585203	-0.482046	-0.000044
C18	C	1.583644	-0.541457	-0.000054
O19	O	1.679575	-0.577579	-0.000103
N20	N	1.469112	-0.564826	-0.000055
C21	C	1.356131	-0.528782	-0.000059
O22	O	1.258569	-0.554114	-0.000062
C23	C	1.357691	-0.469373	-0.000059
C24	C	1.472230	-0.446007	-0.000044
C25	C	1.699733	-0.458680	-0.000030
C26	C	1.701291	-0.399274	-0.000017
C27	C	1.588319	-0.363234	-0.000018
C28	C	1.473789	-0.386600	-0.000031
C29	C	1.244711	-0.433329	-0.000073
C30	C	1.246281	-0.373917	-0.000073
C31	C	1.360821	-0.350551	-0.000059
C32	C	1.362374	-0.291154	-0.000018
N33	N	1.476907	-0.267785	-0.000018
C34	C	1.589879	-0.303825	-0.000017
C35	C	1.352863	-0.653545	-0.000063
C36	C	1.351302	-0.712953	-0.000054
C37	C	1.578816	-0.725625	-0.000051
C38	C	1.580376	-0.666215	-0.000051
C39	C	1.467395	-0.630176	-0.000062
C40	C	1.593143	-0.179067	0.000011
C41	C	1.594691	-0.119655	0.000030
C42	C	1.367178	-0.106989	0.000020
C43	C	1.365629	-0.166396	0.000008
C44	C	1.478622	-0.202434	-0.000001
O45	O	1.266494	-0.254997	0.000025
O46	O	1.687425	-0.278484	-0.000032
C47	C	1.701174	0.080427	-0.000009
C48	C	1.839677	0.082092	-0.000017
C49	C	1.462597	0.187774	-0.000041
C50	C	1.464275	0.251001	-0.000061
N51	N	1.472984	0.083693	0.353619
N52	N	1.473020	0.083689	-0.353639
C53	C	1.553878	0.047136	0.421408
C54	C	1.553899	0.047134	0.578571
H55	H	1.070312	0.176597	-0.000035
C56	C	1.051634	0.027473	0.000002
C57	C	0.966373	0.012198	0.117871
C58	C	0.911694	-0.045625	0.117888
C59	C	0.942277	-0.088174	0.000036
C60	C	1.027543	-0.072900	-0.117842
C61	C	1.082221	-0.015076	-0.117859
H62	H	0.943729	0.043696	0.205121
H63	H	0.848575	-0.056932	0.205150
H64	H	0.901801	-0.130978	0.000048
H65	H	1.050186	-0.104398	-0.205091
H66	H	1.145341	-0.003770	-0.205121
C67	C	1.379435	0.125974	0.432385
C68	C	1.428025	0.169615	0.530628
C69	C	1.334474	0.211897	0.609390
C70	C	1.192333	0.210540	0.589908
C71	C	1.143736	0.166897	0.491660
C72	C	1.237287	0.124614	0.412898
H73	H	1.533253	0.170621	0.545054
H74	H	1.370449	0.244204	0.682119
H75	H	1.123080	0.241840	0.648211
H76	H	1.038508	0.165891	0.477234
H77	H	1.201312	0.092307	0.340169
C78	C	1.706370	-0.640516	-0.000047
C79	C	1.738747	-0.601414	-0.117914
C80	C	1.864747	-0.575718	-0.117914
C81	C	1.958371	-0.589125	-0.000047
C82	C	1.925997	-0.628230	0.117829
C83	C	1.799997	-0.653925	0.117829
H84	H	1.669438	-0.591487	-0.205174
H85	H	1.888712	-0.546771	-0.205175
H86	H	2.051644	-0.570104	-0.000047
H87	H	1.995305	-0.638156	0.205089
H88	H	1.776032	-0.682873	0.205089
C89	C	1.647467	0.004851	0.657313
C90	C	1.645763	-0.059993	0.637868
C91	C	1.739335	-0.102278	0.716613
C92	C	1.834610	-0.079719	0.814804
C93	C	1.836318	-0.014871	0.834254
C94	C	1.742746	0.027414	0.755509
H95	H	1.575231	-0.076696	0.565177
H96	H	1.738070	-0.150283	0.702214
H97	H	1.903878	-0.111021	0.873096
H98	H	1.906850	0.001832	0.906945
H99	H	1.744011	0.075418	0.769908
C100	C	1.717433	-0.218703	0.000012
C101	C	1.811473	-0.215764	0.117892
C102	C	1.935762	-0.255400	0.117905
C103	C	1.966011	-0.297975	0.000038
C104	C	1.871969	-0.300916	-0.117851
C105	C	1.747680	-0.261280	-0.117864
H106	H	1.789083	-0.184246	0.205153
H107	H	2.005378	-0.253223	0.205175
H108	H	2.058017	-0.327316	0.000047
H109	H	1.894360	-0.332434	-0.205112
H110	H	1.678065	-0.263457	-0.205134
H111	H	1.687967	-0.100634	0.000045
H112	H	1.794561	-0.380255	-0.000011
H113	H	0.820947	0.173602	-0.000050
C114	C	1.228574	-0.613905	-0.000052
C115	C	1.198343	-0.571313	-0.117913
C116	C	1.074056	-0.531676	-0.117904
C117	C	0.979998	-0.534631	-0.000033
C118	C	1.010226	-0.577224	0.117837
C119	C	1.134514	-0.616861	0.117828
H120	H	1.267972	-0.569124	-0.205176
H121	H	1.051679	-0.500145	-0.205160
H122	H	0.887993	-0.505289	-0.000026
H123	H	0.940597	-0.579413	0.205100
H124	H	1.156890	-0.648392	0.205084
H125	H	1.403763	0.114991	0.588075
H126	H	1.791734	-0.488018	-0.000035
H127	H	1.151441	-0.452343	-0.000093
H128	H	0.905395	0.040567	-0.000012
H129	H	1.670804	-0.754979	-0.000056
H130	H	1.258032	-0.731972	-0.000042
H131	H	1.154276	-0.344576	-0.000085
H132	H	1.272361	-0.185421	0.000034
H133	H	1.275199	-0.077635	0.000024
H134	H	1.623117	0.015838	0.363096
