data_functionalizedCrystal
_audit_creation_method	'MofGen! by Chris Wilmer'
_symmetry_space_group_name_H-M	'P1'
_symmetry_Int_Tables_number	1
_symmetry_cell_setting	triclinic
loop_
_symmetry_equiv_pos_as_xyz
  x,y,z
_cell_length_a	16.109301
_cell_length_b	14.853567
_cell_length_c	14.586319
_cell_angle_alpha	90.000002
_cell_angle_beta	89.999213
_cell_angle_gamma	83.548205
loop_
_atom_site_label
_atom_site_type_symbol
_atom_site_fract_x
_atom_site_fract_y
_atom_site_fract_z
O1	O	1.103294	0.115881	-0.076175
O2	O	1.603294	0.615881	0.423825
O3	O	0.861252	0.130302	-0.076188
O4	O	1.361252	0.630302	0.423812
O5	O	0.988738	-0.008149	-0.076184
O6	O	1.488738	0.491851	0.423816
O7	O	0.975807	0.254332	-0.076179
O8	O	1.475807	0.754332	0.423821
O9	O	0.988729	-0.008151	0.076297
O10	O	1.488729	0.491849	0.576297
O11	O	0.861243	0.130300	0.076293
O12	O	1.361243	0.630300	0.576293
O13	O	1.103285	0.115879	0.076306
O14	O	1.603285	0.615879	0.576306
Cu15	Cu	0.982263	0.123089	0.090222
Cu16	Cu	1.482263	0.623089	0.590222
Cu17	Cu	0.982274	0.123091	-0.090104
Cu18	Cu	1.482274	0.623091	0.409896
O19	O	0.975799	0.254330	0.076302
O20	O	1.475799	0.754330	0.576302
C21	C	0.830272	0.129717	0.000050
C22	C	1.330272	0.629717	0.500050
C23	C	0.737974	0.127965	0.000045
C24	C	1.237974	0.627965	0.500045
C25	C	0.988148	-0.041738	0.000054
C26	C	1.488148	0.458262	0.500054
C27	C	0.986392	-0.141819	0.000046
C28	C	1.486392	0.358181	0.500046
C29	C	0.515811	0.206047	0.000057
C30	C	1.015811	0.706047	0.500057
C31	C	0.429089	0.204395	0.000063
C32	C	0.929089	0.704395	0.500063
C33	C	0.448732	0.040127	0.000056
C34	C	0.948732	0.540127	0.500056
C35	C	0.535453	0.041781	0.000057
C36	C	1.035453	0.541781	0.500057
C37	C	0.568990	0.124743	0.000052
C38	C	1.068990	0.624743	0.500052
C39	C	0.395546	0.121437	0.000058
C40	C	0.895546	0.621437	0.500058
C41	C	0.301518	0.119645	0.000064
C42	C	0.801518	0.619645	0.500064
C43	C	0.663025	0.126536	0.000048
C44	C	1.163025	0.626536	0.500048
C45	C	0.903241	-0.554215	0.000059
C46	C	1.403241	-0.054215	0.500059
C47	C	1.054697	-0.575746	0.000067
C48	C	1.554697	-0.075746	0.500067
C49	C	1.056348	-0.481715	0.000062
C50	C	1.556348	0.018285	0.500062
C51	C	0.981444	-0.423930	0.000056
C52	C	1.481444	0.076070	0.500056
C53	C	0.904889	-0.460175	0.000056
C54	C	1.404889	0.039825	0.500056
C55	C	1.132901	-0.445463	0.000071
C56	C	1.632901	0.054537	0.500071
C57	C	1.134555	-0.351426	0.000067
C58	C	1.634555	0.148574	0.500067
C59	C	1.059650	-0.293639	0.000055
C60	C	1.559650	0.206361	0.500055
C61	C	0.983093	-0.329890	0.000054
C62	C	1.483093	0.170110	0.500054
C63	C	0.908189	-0.272104	0.000048
C64	C	1.408189	0.227896	0.500048
C65	C	0.831630	-0.308353	0.000040
C66	C	1.331630	0.191647	0.500040
C67	C	0.829984	-0.402388	0.000044
C68	C	1.329984	0.097612	0.500044
C69	C	1.061296	-0.199604	0.000051
C70	C	1.561296	0.300396	0.500051
C71	C	0.909837	-0.178064	0.000046
C72	C	1.409837	0.321936	0.500046
C73	C	1.134265	0.116464	0.000066
C74	C	1.634265	0.616464	0.500066
C75	C	1.226563	0.118215	0.000065
C76	C	1.726563	0.618215	0.500065
C77	C	0.976389	0.287918	0.000062
C78	C	1.476389	0.787918	0.500062
C79	C	0.978145	0.387999	0.000064
C80	C	1.478145	0.887999	0.500064
N81	N	0.982262	0.123087	0.217054
N82	N	1.482262	0.623087	0.717054
N83	N	0.982281	0.123087	-0.216936
N84	N	1.482281	0.623087	0.283064
C85	C	1.038731	0.061801	0.452062
C86	C	1.538731	0.561801	0.952062
C87	C	1.038734	0.061799	0.548044
C88	C	1.538734	0.561799	1.048044
C89	C	0.925806	0.184375	0.548049
C90	C	1.425806	0.684375	1.048049
C91	C	0.925800	0.184372	0.452070
C92	C	1.425800	0.684372	0.952070
C93	C	0.982268	0.123086	0.404079
C94	C	1.482268	0.623086	0.904079
C95	C	0.982276	0.123087	0.596039
C96	C	1.482276	0.623087	1.096039
C97	C	0.982278	0.123085	0.700107
C98	C	1.482278	0.623085	1.200107
C99	C	0.982265	0.123087	0.300005
C100	C	1.482265	0.623087	0.800005
H101	H	0.543114	0.273601	0.000060
H102	H	1.043114	0.773601	0.500060
N103	N	1.099643	-0.004294	0.599795
N104	N	1.599643	0.495706	1.099795
H105	H	1.091079	0.005002	0.667880
H106	H	1.591079	0.505002	1.167880
H107	H	1.089969	-0.068255	0.583019
H108	H	1.589969	0.431745	1.083019
H109	H	0.385793	0.270600	0.000068
H110	H	0.885793	0.770600	0.500068
N111	N	1.099631	-0.004298	0.400298
N112	N	1.599631	0.495702	0.900298
H113	H	1.135399	-0.043122	0.445264
H114	H	1.635399	0.456878	0.945264
H115	H	1.067756	-0.044164	0.360479
H116	H	1.567756	0.455836	0.860479
N117	N	0.412560	-0.049350	0.000065
N118	N	0.912560	0.450650	0.500065
H119	H	0.349553	-0.038063	0.000065
H120	H	0.849553	0.461937	0.500065
H121	H	0.432007	-0.084929	-0.056460
H122	H	0.932007	0.415071	0.443540
N123	N	0.592819	-0.045915	0.000063
N124	N	1.092819	0.454085	0.500063
H125	H	0.558415	-0.098723	0.000060
H126	H	1.058415	0.401277	0.500060
H127	H	0.629232	-0.048807	-0.056461
H128	H	1.129232	0.451193	0.443539
N129	N	0.829047	-0.115740	0.000032
N130	N	1.329047	0.384260	0.500032
H131	H	0.780302	-0.152975	0.000027
H132	H	1.280302	0.347025	0.500027
H133	H	0.826425	-0.076255	0.056559
H134	H	1.326425	0.423745	0.556559
H135	H	1.115680	-0.622800	0.000079
H136	H	1.615680	-0.122800	0.500079
H137	H	0.770643	-0.261292	0.000042
H138	H	1.270643	0.238708	0.500042
H139	H	0.879832	0.234274	0.587133
H140	H	1.379832	0.734274	1.087133
H141	H	0.767654	-0.431911	0.000039
H142	H	1.267654	0.068089	0.500039
N143	N	0.820669	-0.593304	0.000046
N144	N	1.320669	-0.093304	0.500046
H145	H	0.830986	-0.661643	0.000045
H146	H	1.330986	-0.161643	0.500045
H147	H	0.787885	-0.572164	0.056570
H148	H	1.287885	-0.072164	0.556570
H149	H	0.879816	0.234278	0.412999
H150	H	1.379816	0.734278	0.912999
H151	H	1.193884	-0.492518	0.000084
H152	H	1.693884	0.007482	0.500084
N153	N	1.217124	-0.312332	0.000075
N154	N	1.717124	0.187668	0.500075
H155	H	1.264323	-0.363209	0.000081
H156	H	1.764323	0.136791	0.500081
H157	H	1.221111	-0.273790	-0.056454
H158	H	1.721111	0.226210	0.443546
H159	H	1.123629	-0.170094	0.000064
H160	H	1.623629	0.329906	0.500064
