data_functionalizedCrystal
_audit_creation_method	'MofGen! by Chris Wilmer'
_symmetry_space_group_name_H-M	'P1'
_symmetry_Int_Tables_number	1
_symmetry_cell_setting	triclinic
loop_
_symmetry_equiv_pos_as_xyz
  x,y,z
_cell_length_a	16.959454
_cell_length_b	19.077241
_cell_length_c	19.077174
_cell_angle_alpha	94.706947
_cell_angle_beta	92.276377
_cell_angle_gamma	87.687869
loop_
_atom_site_label
_atom_site_type_symbol
_atom_site_fract_x
_atom_site_fract_y
_atom_site_fract_z
Zn1	Zn	-0.285411	-1.093760	-0.442014
Zn2	Zn	-0.412493	-1.088954	-0.324134
Zn3	Zn	-0.285421	-0.971141	-0.319395
Zn4	Zn	-0.422643	-0.975845	-0.437236
O5	O	-0.351492	-1.032425	-0.380695
O6	O	-0.298017	-1.191775	-0.430360
O7	O	-0.391393	-1.069346	-0.224855
O8	O	-0.174807	-0.987449	-0.335677
O9	O	-0.391383	-1.188244	-0.343754
O10	O	-0.174800	-1.077537	-0.425765
O11	O	-0.298033	-0.982789	-0.221373
O12	O	-0.307875	-0.873112	-0.331044
O13	O	-0.408682	-0.995467	-0.536521
O14	O	-0.408692	-0.876568	-0.417621
O15	O	-0.307858	-1.082098	-0.540031
O16	O	-0.524451	-1.073907	-0.339121
O17	O	-0.531908	-0.990806	-0.422217
C18	C	-0.359386	-0.849261	-0.373300
C19	C	-0.362784	-0.770903	-0.370153
C20	C	-0.315852	-0.735932	-0.413835
C21	C	-0.319040	-0.662306	-0.410873
C22	C	-0.369164	-0.623653	-0.364231
C23	C	-0.416098	-0.658629	-0.320544
C24	C	-0.412905	-0.732253	-0.323504
C25	C	-0.383912	-0.403262	-0.350533
C26	C	-0.387103	-0.329633	-0.347578
C27	C	-0.290044	-0.333316	-0.437906
C28	C	-0.286859	-0.406941	-0.440865
C29	C	-0.333789	-0.441910	-0.397175
N30	N	-0.372426	-0.548396	-0.361203
N31	N	-0.330523	-0.517166	-0.400200
C32	C	-0.556860	-1.032365	-0.380680
C33	C	-0.644716	-1.032405	-0.380700
C34	C	-1.020100	-0.989220	-0.423961
C35	C	-1.012275	-1.075829	-0.337509
C36	C	-0.929730	-1.075805	-0.337501
C37	C	-0.892366	-1.032486	-0.380723
C38	C	-0.937547	-0.989192	-0.423953
C39	C	-0.884543	-1.119092	-0.294267
C40	C	-0.801992	-1.119069	-0.294257
C41	C	-0.764627	-1.075753	-0.337484
C42	C	-0.809813	-1.032458	-0.380716
C43	C	-0.772450	-0.989139	-0.423938
C44	C	-0.817635	-0.945847	-0.467174
C45	C	-0.900182	-0.945876	-0.467179
C46	C	-0.682080	-1.075724	-0.337478
C47	C	-0.689897	-0.989111	-0.423930
C48	C	-0.145321	-1.032505	-0.380725
C49	C	-0.057464	-1.032538	-0.380738
C50	C	-0.359401	-1.039843	-0.564570
C51	C	-0.362772	-1.043004	-0.642927
C52	C	-0.343562	-0.216304	-0.388113
C53	C	-0.340171	-0.294662	-0.391260
C54	C	-0.315749	-0.999426	-0.677926
C55	C	-0.318923	-1.002394	-0.751550
C56	C	-0.369116	-1.048944	-0.790174
C57	C	-0.416144	-1.092524	-0.755170
C58	C	-0.412974	-1.089552	-0.681547
C59	C	-0.383813	-1.062660	-1.010558
C60	C	-0.386978	-1.065630	-1.084187
C61	C	-0.289757	-0.975499	-1.080561
C62	C	-0.286588	-0.972534	-1.006937
C63	C	-0.333619	-1.016111	-0.971939
N64	N	-0.372359	-1.051980	-0.865430
N65	N	-0.330380	-1.013071	-0.896685
C66	C	-0.343554	-1.025076	-0.197536
C67	C	-0.339955	-1.022052	-0.119186
H68	H	-0.246045	-0.438408	-0.478848
H69	H	-0.427924	-0.298163	-0.309597
H70	H	-0.245718	-0.934626	-0.975494
H71	H	-0.251835	-0.304835	-0.473474
H72	H	-0.422127	-0.431725	-0.314959
F73	F	-0.469440	-0.617489	-0.270901
F74	F	-0.262506	-0.777064	-0.463481
F75	F	-0.948276	-0.899806	-0.513189
H76	H	-1.042702	-1.111093	-0.302315
F77	F	-1.068188	-0.943151	-0.469976
F78	F	-0.650138	-0.943008	-0.469938
H79	H	-0.251468	-0.940020	-1.109065
H80	H	-0.914970	-1.154355	-0.259073
F81	F	-0.462857	-0.769471	-0.277012
F82	F	-0.469568	-1.142061	-0.796279
H83	H	-0.427852	-1.103539	-1.115633
F84	F	-0.753910	-1.165148	-0.248247
H85	H	-0.274872	-0.961524	-0.646483
H86	H	-0.451259	-1.125043	-0.653052
F87	F	-0.777860	-0.899743	-0.513169
H88	H	-0.280825	-0.633836	-0.446444
F89	F	-0.633994	-1.121788	-0.291460
H90	H	-0.280635	-0.966905	-0.780043
F91	F	-0.433863	-1.109043	-0.973321
