data_functionalizedCrystal
_audit_creation_method	'MofGen! by Chris Wilmer'
_symmetry_space_group_name_H-M	'P1'
_symmetry_Int_Tables_number	1
_symmetry_cell_setting	triclinic
loop_
_symmetry_equiv_pos_as_xyz
  x,y,z
_cell_length_a	13.185408
_cell_length_b	13.339070
_cell_length_c	11.804783
_cell_angle_alpha	99.434903
_cell_angle_beta	106.075524
_cell_angle_gamma	83.801400
loop_
_atom_site_label
_atom_site_type_symbol
_atom_site_fract_x
_atom_site_fract_y
_atom_site_fract_z
O1	O	-0.481821	-1.192872	0.099088
O2	O	-0.415526	-0.916395	0.099077
O3	O	-0.304261	-1.102004	0.099067
O4	O	-0.593086	-1.007263	0.099098
O5	O	-0.350775	-1.125770	-0.098968
O6	O	-0.462040	-0.940162	-0.098958
O7	O	-0.528335	-1.216638	-0.098948
Cu8	Cu	-0.499435	-1.080570	-0.117035
Cu9	Cu	-0.444426	-1.052463	0.117165
O10	O	-0.639600	-1.031029	-0.098938
C11	C	-0.427585	-0.893638	0.000058
C12	C	-0.394204	-0.790425	0.000053
C13	C	-0.289796	-1.123492	0.000048
C14	C	-0.177392	-1.152099	0.000043
C15	C	-0.138341	-1.253953	0.000041
C16	C	-0.032731	-1.280833	0.000047
C17	C	0.033837	-1.205862	0.000045
C18	C	-0.005216	-1.104007	0.000039
C19	C	-0.110834	-1.077123	0.000043
C20	C	0.061344	-1.029032	0.000047
C21	C	0.022292	-0.927176	0.000040
C22	C	-0.083317	-0.900297	0.000043
C23	C	-0.149885	-0.975268	0.000045
C24	C	0.166963	-1.055916	0.000043
C25	C	0.194470	-0.879085	0.000044
C26	C	0.088860	-0.852205	0.000038
C27	C	-0.516276	-1.239395	0.000074
C28	C	-0.549654	-1.342607	0.000087
C29	C	0.345932	-1.009543	0.000070
C30	C	0.233521	-0.980940	0.000042
N31	N	-0.538127	-1.100346	-0.281759
C32	C	-0.653748	-0.354963	0.000099
C33	C	-0.685113	-0.451935	0.000108
C34	C	-0.612389	-0.536562	0.000094
C35	C	-0.508294	-0.524208	0.000072
C36	C	-0.476924	-0.427225	0.000073
C37	C	-0.435564	-0.608824	0.000068
C38	C	-0.331470	-0.596470	0.000046
C39	C	-0.300106	-0.499496	0.000047
C40	C	-0.372830	-0.414869	0.000061
C41	C	-0.466934	-0.705807	0.000066
C42	C	-0.290110	-0.778070	0.000040
C43	C	-0.258746	-0.681097	0.000032
C44	C	-0.312797	-0.985177	-0.655807
C45	C	-0.283516	-0.970201	-0.531158
C46	C	-0.347166	-1.002735	-0.468802
C47	C	-0.440103	-1.050250	-0.531107
C48	C	-0.469384	-1.065235	-0.655768
C49	C	-0.503752	-1.082793	-0.468764
C50	C	-0.596689	-1.130308	-0.531069
C51	C	-0.625965	-1.145290	-0.655717
C52	C	-0.562315	-1.112755	-0.718073
C53	C	-0.474472	-1.067808	-0.344103
C54	C	-0.631058	-1.147866	-0.344064
C55	C	-0.660340	-1.162842	-0.468713
N56	N	-0.405729	-1.032697	0.281888
H57	H	0.198749	-1.138847	0.000051
H58	H	-0.398803	-1.029121	-0.293386
H59	H	-0.323319	-0.990538	-0.367307
C60	C	-0.701080	-1.183655	-0.275478
N61	N	-0.753814	-1.210610	-0.223811
C62	C	-0.594522	-1.129225	-0.855196
N63	N	-0.618778	-1.141629	-0.958478
C64	C	-0.762565	-1.215115	-0.537264
N65	N	-0.839560	-1.254488	-0.588899
H66	H	0.248671	-0.818037	0.000045
H67	H	-0.207845	-0.931518	-0.480438
C68	C	-0.799617	-0.465519	0.000115
N69	N	-0.885869	-0.475750	0.000114
H70	H	-0.637932	-0.615519	0.000103
H71	H	-0.230890	-0.846975	0.000034
C72	C	-0.242793	-0.949396	-0.724406
N73	N	-0.190061	-0.922441	-0.776077
C74	C	-0.144241	-0.667492	0.000016
N75	N	-0.057996	-0.657244	0.000006
H76	H	-0.712947	-0.286053	0.000121
C77	C	-0.581438	-0.719386	0.000079
N78	N	-0.667690	-0.729611	0.000083
C79	C	-0.211572	-1.336409	0.000040
N80	N	-0.266732	-1.398521	0.000037
H81	H	-0.115106	-0.817358	0.000052
H82	H	0.119829	-1.227754	0.000050
H83	H	-0.215342	-0.489442	0.000043
C84	C	-0.266066	-0.945706	0.000033
N85	N	-0.353576	-0.923443	0.000023
H86	H	0.057048	-0.769273	0.000033
C87	C	-0.338334	-0.308191	0.000051
N88	N	-0.312354	-0.227837	0.000044
C89	C	-0.728212	-1.197534	-0.724250
N90	N	-0.805233	-1.236872	-0.775866
H91	H	-0.000942	-1.363764	0.000051
