data_functionalizedCrystal
_audit_creation_method	'MofGen! by Chris Wilmer'
_symmetry_space_group_name_H-M	'P1'
_symmetry_Int_Tables_number	1
_symmetry_cell_setting	triclinic
loop_
_symmetry_equiv_pos_as_xyz
  x,y,z
_cell_length_a	10.654550
_cell_length_b	16.109301
_cell_length_c	9.130313
_cell_angle_alpha	89.994060
_cell_angle_beta	89.999724
_cell_angle_gamma	83.973206
loop_
_atom_site_label
_atom_site_type_symbol
_atom_site_fract_x
_atom_site_fract_y
_atom_site_fract_z
O1	O	1.666255	0.116774	-0.121695
O2	O	1.300626	0.127899	-0.121723
O3	O	1.493485	0.001365	-0.121693
O4	O	1.473396	0.243308	-0.121725
O5	O	1.493472	0.001362	0.121906
O6	O	1.300613	0.127896	0.121876
O7	O	1.666242	0.116770	0.121904
Cu8	Cu	1.483426	0.122333	0.144132
Cu9	Cu	1.483442	0.122337	-0.143951
O10	O	1.473383	0.243304	0.121874
C11	C	1.253832	0.127081	0.000073
C12	C	1.114422	0.124637	0.000063
C13	C	1.033926	0.199138	0.000058
C14	C	0.902936	0.196836	0.000084
C15	C	0.932952	0.045526	0.000114
C16	C	1.063939	0.047828	0.000099
C17	C	1.492664	-0.029616	0.000107
C18	C	1.490225	-0.121926	0.000109
C19	C	1.598991	-0.343552	0.000094
C20	C	1.596689	-0.430286	0.000081
C21	C	1.367868	-0.411772	0.000070
C22	C	1.370172	-0.325039	0.000072
C23	C	1.485737	-0.290932	0.000091
C24	C	1.481131	-0.464398	0.000077
C25	C	1.478634	-0.558439	0.000064
C26	C	1.488234	-0.196885	0.000101
C27	C	1.713036	0.117589	0.000104
C28	C	1.852446	0.120033	0.000105
C29	C	1.474203	0.274286	0.000071
C30	C	1.476643	0.366596	0.000059
N31	N	1.483424	0.122329	0.346755
N32	N	1.483453	0.122334	-0.346574
C33	C	1.568851	0.066324	0.423420
C34	C	1.568863	0.066324	0.576757
C35	C	1.398018	0.178342	0.576750
C36	C	1.398001	0.178337	0.423416
H37	H	1.075024	0.261680	0.000040
C38	C	1.734340	-0.256769	0.125327
C39	C	1.726019	-0.306062	0.000099
H40	H	1.812769	-0.233632	0.125327
H41	H	1.667232	-0.213018	0.125318
H42	H	1.728684	-0.290234	0.210264
H43	H	1.731667	-0.272595	-0.084839
H44	H	1.793146	-0.349819	0.000095
H45	H	1.328430	0.223944	0.360992
C46	C	1.240014	-0.216757	0.125285
C47	C	1.245676	-0.267189	0.000066
H48	H	1.163163	-0.181040	0.125268
H49	H	1.243855	-0.250981	0.210219
H50	H	1.309177	-0.184039	0.125273
H51	H	1.176517	-0.299913	0.000084
H52	H	1.241822	-0.232962	-0.084890
C53	C	0.918204	-0.084150	-0.125084
C54	C	0.877458	-0.038899	0.000135
H55	H	0.883951	-0.136274	-0.125068
H56	H	0.890560	-0.053442	-0.210018
H57	H	1.007737	-0.093435	-0.125072
H58	H	0.787925	-0.029609	0.000117
H59	H	0.905094	-0.069615	0.085091
H60	H	1.129483	-0.012843	0.000108
H61	H	1.688912	-0.473126	0.000080
C62	C	1.262735	-0.536507	0.000081
C63	C	1.240844	-0.449266	0.000071
H64	H	1.184312	-0.559651	0.000094
H65	H	1.309355	-0.554515	-0.084862
H66	H	1.309369	-0.554519	0.085035
H67	H	1.194217	-0.431254	-0.084890
H68	H	1.194204	-0.431250	0.085022
H69	H	1.638406	0.020717	0.361006
H70	H	1.638423	0.020718	0.639173
C71	C	1.180605	0.225815	0.623998
C72	C	1.304129	0.239905	0.661028
H73	H	1.122644	0.263820	0.676035
H74	H	1.168374	0.233833	0.521719
H75	H	1.167021	0.170240	0.649151
H76	H	1.317716	0.295479	0.635864
H77	H	1.316365	0.231894	0.763330
H78	H	0.837401	0.257503	0.000082
