data_functionalizedCrystal
_audit_creation_method	'MofGen! by Chris Wilmer'
_symmetry_space_group_name_H-M	'P1'
_symmetry_Int_Tables_number	1
_symmetry_cell_setting	triclinic
loop_
_symmetry_equiv_pos_as_xyz
  x,y,z
_cell_length_a	18.101398
_cell_length_b	17.077402
_cell_length_c	17.077404
_cell_angle_alpha	90.012249
_cell_angle_beta	90.013737
_cell_angle_gamma	90.018149
loop_
_atom_site_label
_atom_site_type_symbol
_atom_site_fract_x
_atom_site_fract_y
_atom_site_fract_z
Zn1	Zn	1.132086	-0.312743	0.443949
Zn2	Zn	1.632086	0.187257	0.943949
Zn3	Zn	1.132022	-0.443978	0.312680
Zn4	Zn	1.632022	0.056022	0.812680
Zn5	Zn	1.008268	-0.312719	0.312684
Zn6	Zn	1.508268	0.187281	0.812684
Zn7	Zn	1.008213	-0.443960	0.443891
Zn8	Zn	1.508213	0.056040	0.943891
O9	O	1.070147	-0.378350	0.378301
O10	O	1.570147	0.121650	0.878301
O11	O	1.235710	-0.330169	0.426558
O12	O	1.735710	0.169831	0.926558
O13	O	1.115602	-0.426563	0.202834
O14	O	1.615602	0.073437	0.702834
O15	O	1.024742	-0.202875	0.330123
O16	O	1.524742	0.297125	0.830123
O17	O	1.235664	-0.426587	0.330115
O18	O	1.735664	0.073413	0.830115
O19	O	1.115710	-0.202893	0.426562
O20	O	1.615710	0.297107	0.926562
O21	O	1.024680	-0.330128	0.202837
O22	O	1.524680	0.169872	0.702837
O23	O	0.904628	-0.330111	0.330067
O24	O	1.404628	0.169889	0.830067
O25	O	1.024649	-0.426556	0.553746
O26	O	1.524649	0.073444	1.053746
O27	O	0.904588	-0.426533	0.426464
O28	O	1.404588	0.073467	0.926464
O29	O	1.115658	-0.330152	0.553788
O30	O	1.615658	0.169848	1.053788
O31	O	1.115550	-0.553822	0.330059
O32	O	1.615550	-0.053822	0.830059
O33	O	1.024588	-0.553809	0.426459
O34	O	1.524588	-0.053809	0.926459
C35	C	0.877737	-0.378318	0.378260
C36	C	1.377737	0.121682	0.878260
C37	C	0.795423	-0.378323	0.378261
C38	C	1.295423	0.121677	0.878261
C39	C	1.070076	-0.582298	0.378270
C40	C	1.570076	-0.082298	0.878270
C41	C	1.070113	-0.669548	0.378283
C42	C	1.570113	-0.169548	0.878283
C43	C	1.117525	-0.710519	0.328141
C44	C	1.617525	-0.210519	0.828141
C45	C	1.117562	-0.792499	0.328161
C46	C	1.617562	-0.292499	0.828161
C47	C	1.070181	-0.833507	0.378319
C48	C	1.570181	-0.333507	0.878319
C49	C	1.022767	-0.792530	0.428466
C50	C	1.522767	-0.292530	0.928466
C51	C	1.022735	-0.710551	0.428450
C52	C	1.522735	-0.210551	0.928450
C53	C	1.022835	-0.963400	0.428496
C54	C	1.522835	-0.463400	0.928496
C55	C	1.022866	-1.045385	0.428512
C56	C	1.522866	-0.545385	0.928512
C57	C	1.117662	-1.045348	0.328207
C58	C	1.617662	-0.545348	0.828207
C59	C	1.117630	-0.963369	0.328191
C60	C	1.617630	-0.463369	0.828191
C61	C	1.070215	-0.922398	0.378337
C62	C	1.570215	-0.422398	0.878337
C63	C	0.496332	-0.378372	0.378327
C64	C	0.996332	0.121628	0.878327
C65	C	0.527657	-0.317403	0.317973
C66	C	1.027657	0.182597	0.817973
C67	C	0.613275	-0.317567	0.317715
C68	C	1.113275	0.182433	0.817715
C69	C	0.644714	-0.378347	0.378294
C70	C	1.144714	0.121653	0.878294
C71	C	0.613611	-0.461030	0.355690
C72	C	1.113611	0.038970	0.855690
C73	C	0.527966	-0.460691	0.355271
C74	C	1.027966	0.039309	0.855271
C75	C	0.527929	-0.357378	0.461428
C76	C	1.027929	0.142622	0.961428
C77	C	0.613580	-0.355536	0.460974
C78	C	1.113580	0.144464	0.960974
C79	C	0.728574	-0.378338	0.378277
C80	C	1.228574	0.121662	0.878277
C81	C	0.412472	-0.378387	0.378342
C82	C	0.912472	0.121613	0.878342
C83	C	1.263309	-0.378383	0.378343
C84	C	1.763309	0.121617	0.878343
C85	C	1.345623	-0.378396	0.378360
C86	C	1.845623	0.121604	0.878360
C87	C	1.070154	-0.378355	0.583045
C88	C	1.570154	0.121645	1.083045
C89	C	1.070157	-0.378357	0.670295
C90	C	1.570157	0.121643	1.170295
C91	C	1.070239	-0.173606	0.378350
C92	C	1.570239	0.326394	0.878350
C93	C	1.070278	-0.086356	0.378370
C94	C	1.570278	0.413644	0.878370
C95	C	1.117540	-0.328167	0.711309
C96	C	1.617540	0.171833	1.211309
C97	C	1.117534	-0.328166	0.793289
C98	C	1.617534	0.171834	1.293289
C99	C	1.070148	-0.378359	0.834254
C100	C	1.570148	0.121641	1.334254
C101	C	1.022761	-0.428551	0.793235
C102	C	1.522761	0.071449	1.293235
C103	C	1.022764	-0.428548	0.711256
C104	C	1.522764	0.071452	1.211256
C105	C	1.022759	-0.428556	0.964105
C106	C	1.522759	0.071444	1.464105
C107	C	1.022757	-0.428561	1.046090
C108	C	1.522757	0.071439	1.546090
C109	C	1.117529	-0.328175	1.046138
C110	C	1.617529	0.171825	1.546138
C111	C	1.117532	-0.328172	0.964159
C112	C	1.617532	0.171828	1.464159
C113	C	1.070145	-0.378364	0.923145
C114	C	1.570145	0.121636	1.423145
C115	C	1.070137	-0.378365	1.174353
C116	C	1.570137	0.121635	1.674353
C117	C	1.070139	-0.378371	1.087103
C118	C	1.570139	0.121629	1.587103
H119	H	1.156105	-0.677135	0.287293
H120	H	1.656105	-0.177135	0.787293
H121	H	0.507076	-0.255902	0.331986
H122	H	1.007076	0.244098	0.831986
H123	H	0.984170	-0.469431	1.079442
H124	H	1.484170	0.030569	1.579442
H125	H	0.984227	-0.930045	0.469334
H126	H	1.484227	-0.430045	0.969334
H127	H	0.984192	-0.825926	0.469310
H128	H	1.484192	-0.325926	0.969310
H129	H	1.156112	-0.287305	1.079535
H130	H	1.656112	0.212695	1.579535
O131	O	1.168694	-0.836692	0.274075
O132	O	1.668694	-0.336692	0.774075
H133	H	1.201627	-0.794404	0.239186
H134	H	1.701627	-0.294404	0.739186
H135	H	0.984160	-0.469416	0.930714
H136	H	1.484160	0.030584	1.430714
O137	O	0.971647	-0.482672	0.667020
O138	O	1.471647	0.017328	1.167020
H139	H	0.984312	-0.544287	0.682733
H140	H	1.484312	-0.044287	1.182733
O141	O	0.499352	-0.278902	0.488653
O142	O	0.999352	0.221098	0.988653
H143	H	0.438145	-0.280795	0.492058
H144	H	0.938145	0.219205	0.992058
H145	H	0.506120	-0.331123	0.256754
H146	H	1.006120	0.168877	0.756754
H147	H	0.984128	-0.677194	0.469281
H148	H	1.484128	-0.177194	0.969281
O149	O	0.640511	-0.274942	0.483563
O150	O	1.140511	0.225058	0.983563
H151	H	0.675928	-0.251225	0.436110
H152	H	1.175928	0.248775	0.936110
H153	H	0.634305	-0.256253	0.331884
H154	H	1.134305	0.243747	0.831884
H155	H	1.156207	-0.929980	0.287344
H156	H	1.656207	-0.429980	0.787344
H157	H	0.634982	-0.396709	0.508353
H158	H	1.134982	0.103291	1.008353
H159	H	0.984176	-0.469416	0.826596
H160	H	1.484176	0.030584	1.326596
O161	O	1.168812	-1.089531	0.274125
O162	O	1.668812	-0.589531	0.774125
H163	H	1.160885	-1.153425	0.282570
H164	H	1.660885	-0.653425	0.782570
H165	H	0.633742	-0.331444	0.256138
H166	H	1.133742	0.168556	0.756138
O167	O	0.501466	-0.484267	0.274799
O168	O	1.001466	0.015733	0.774799
H169	H	0.549822	-0.495799	0.236549
H170	H	1.049822	0.004201	0.736549
O171	O	0.501088	-0.416189	0.521003
O172	O	1.001088	0.083811	1.021003
H173	H	0.520133	-0.475600	0.504072
H174	H	1.020133	0.024400	1.004072
O175	O	0.971773	-1.089620	0.482618
O176	O	1.471773	-0.589620	0.982618
H177	H	0.938806	-1.047360	0.517496
H178	H	1.438806	-0.547360	1.017496
H179	H	0.507243	-0.507655	0.397313
H180	H	1.007243	-0.007655	0.897313
H181	H	1.156129	-0.287297	0.677960
H182	H	1.656129	0.212703	1.177960
O183	O	0.640582	-0.522823	0.412089
O184	O	1.140582	-0.022823	0.912089
H185	H	0.676530	-0.495192	0.456933
H186	H	1.176530	0.004808	0.956933
H187	H	0.635039	-0.479147	0.295596
H188	H	1.135039	0.020853	0.795596
H189	H	1.156121	-0.287304	0.930807
H190	H	1.656121	0.212696	1.430807
H191	H	1.156119	-0.287299	0.826679
H192	H	1.656119	0.212701	1.326679
