data_functionalizedCrystal
_audit_creation_method	'MofGen! by Chris Wilmer'
_symmetry_space_group_name_H-M	'P1'
_symmetry_Int_Tables_number	1
_symmetry_cell_setting	triclinic
loop_
_symmetry_equiv_pos_as_xyz
  x,y,z
_cell_length_a	25.639242
_cell_length_b	29.839131
_cell_length_c	25.639234
_cell_angle_alpha	89.974578
_cell_angle_beta	89.973005
_cell_angle_gamma	90.036947
loop_
_atom_site_label
_atom_site_type_symbol
_atom_site_fract_x
_atom_site_fract_y
_atom_site_fract_z
Zn1	Zn	0.799240	-0.178936	-0.295739
Zn2	Zn	1.049240	0.071064	-0.045739
Zn3	Zn	1.299240	0.321064	0.204261
Zn4	Zn	1.549240	0.571064	0.454261
Zn5	Zn	0.799152	-0.254058	-0.208302
Zn6	Zn	1.049152	-0.004058	0.041698
Zn7	Zn	1.299152	0.245942	0.291698
Zn8	Zn	1.549152	0.495942	0.541698
Zn9	Zn	0.711809	-0.178937	-0.208303
Zn10	Zn	0.961809	0.071063	0.041697
Zn11	Zn	1.211809	0.321063	0.291697
Zn12	Zn	1.461809	0.571063	0.541697
Zn13	Zn	0.711757	-0.254034	-0.295692
Zn14	Zn	0.961757	-0.004034	-0.045692
Zn15	Zn	1.211757	0.245966	0.204308
Zn16	Zn	1.461757	0.495966	0.454308
O17	O	0.755490	-0.216491	-0.252009
O18	O	1.005490	0.033509	-0.002009
O19	O	1.255490	0.283509	0.247991
O20	O	1.505490	0.533509	0.497991
O21	O	0.872394	-0.188911	-0.284160
O22	O	1.122394	0.061089	-0.034160
O23	O	1.372394	0.311089	0.215840
O24	O	1.622394	0.561089	0.465840
O25	O	0.787551	-0.244104	-0.135137
O26	O	1.037551	0.005896	0.114863
O27	O	1.287551	0.255896	0.364863
O28	O	1.537551	0.505896	0.614863
O29	O	0.723465	-0.116070	-0.219922
O30	O	0.973465	0.133930	0.030078
O31	O	1.223465	0.383930	0.280078
O32	O	1.473465	0.633930	0.530078
O33	O	0.872329	-0.244102	-0.219920
O34	O	1.122329	0.005898	0.030080
O35	O	1.372329	0.255898	0.280080
O36	O	1.622329	0.505898	0.530080
O37	O	0.787701	-0.116069	-0.284161
O38	O	1.037701	0.133931	-0.034161
O39	O	1.287701	0.383931	0.215839
O40	O	1.537701	0.633931	0.465839
O41	O	0.723380	-0.188912	-0.135138
O42	O	0.973380	0.061088	0.114862
O43	O	1.223380	0.311088	0.364862
O44	O	1.473380	0.561088	0.614862
O45	O	0.638637	-0.188889	-0.219876
O46	O	0.888637	0.061111	0.030124
O47	O	1.138637	0.311111	0.280124
O48	O	1.388637	0.561111	0.530124
O49	O	0.723377	-0.244061	-0.368864
O50	O	0.973377	0.005939	-0.118864
O51	O	1.223377	0.255939	0.131136
O52	O	1.473377	0.505939	0.381136
O53	O	0.638599	-0.244062	-0.284081
O54	O	0.888599	0.005938	-0.034081
O55	O	1.138599	0.255938	0.215919
O56	O	1.388599	0.505938	0.465919
O57	O	0.787651	-0.188887	-0.368898
O58	O	1.037651	0.061113	-0.118898
O59	O	1.287651	0.311113	0.131102
O60	O	1.537651	0.561113	0.381102
O61	O	0.787500	-0.316922	-0.219875
O62	O	1.037500	-0.066922	0.030125
O63	O	1.287500	0.183078	0.280125
O64	O	1.537500	0.433078	0.530125
O65	O	0.723292	-0.316904	-0.284080
O66	O	0.973292	-0.066904	-0.034080
O67	O	1.223292	0.183096	0.215920
O68	O	1.473292	0.433096	0.465920
C69	C	0.619647	-0.216473	-0.251974
C70	C	0.869647	0.033527	-0.001974
C71	C	1.119647	0.283527	0.248026
C72	C	1.369647	0.533527	0.498026
C73	C	0.561533	-0.216477	-0.251971
C74	C	0.811533	0.033523	-0.001971
C75	C	1.061533	0.283523	0.248029
C76	C	1.311533	0.533523	0.498029
C77	C	0.201159	-0.245268	-0.285409
C78	C	0.451159	0.004732	-0.035409
C79	C	0.701159	0.254732	0.214591
C80	C	0.951159	0.504732	0.464591
C81	C	0.146555	-0.245270	-0.285417
C82	C	0.396555	0.004730	-0.035417
C83	C	0.646555	0.254730	0.214583
C84	C	0.896555	0.504730	0.464583
O85	O	0.118309	-0.269728	-0.313817
O86	O	0.368309	-0.019728	-0.063817
O87	O	0.618309	0.230272	0.186183
O88	O	0.868309	0.480272	0.436183
N89	N	0.119251	-0.216503	-0.252043
N90	N	0.369251	0.033497	-0.002043
N91	N	0.619251	0.283497	0.247957
N92	N	0.869251	0.533497	0.497957
C93	C	0.146553	-0.187728	-0.218663
C94	C	0.396553	0.062272	0.031337
C95	C	0.646553	0.312272	0.281337
C96	C	0.896553	0.562272	0.531337
O97	O	0.118315	-0.163260	-0.190277
O98	O	0.368315	0.086740	0.059723
O99	O	0.618315	0.336740	0.309723
O100	O	0.868315	0.586740	0.559723
C101	C	0.201157	-0.187724	-0.218658
C102	C	0.451157	0.062276	0.031342
C103	C	0.701157	0.312276	0.281342
C104	C	0.951157	0.562276	0.531342
C105	C	0.228458	-0.216496	-0.252030
C106	C	0.478458	0.033504	-0.002030
C107	C	0.728458	0.283504	0.247970
C108	C	0.978458	0.533504	0.497970
C109	C	0.228460	-0.274037	-0.318778
C110	C	0.478460	-0.024037	-0.068778
C111	C	0.728460	0.225963	0.181222
C112	C	0.978460	0.475963	0.431222
C113	C	0.283061	-0.274035	-0.318769
C114	C	0.533061	-0.024035	-0.068769
C115	C	0.783061	0.225965	0.181231
C116	C	1.033061	0.475965	0.431231
C117	C	0.310360	-0.245263	-0.285391
C118	C	0.560360	0.004737	-0.035391
C119	C	0.810360	0.254737	0.214609
C120	C	1.060360	0.504737	0.464609
C121	C	0.283059	-0.216494	-0.252021
C122	C	0.533059	0.033506	-0.002021
C123	C	0.783059	0.283506	0.247979
C124	C	1.033059	0.533506	0.497979
C125	C	0.228459	-0.158947	-0.185281
C126	C	0.478459	0.091053	0.064719
C127	C	0.728459	0.341053	0.314719
C128	C	0.978459	0.591053	0.564719
C129	C	0.283066	-0.158944	-0.185279
C130	C	0.533066	0.091056	0.064721
C131	C	0.783066	0.341056	0.314721
C132	C	1.033066	0.591056	0.564721
C133	C	0.310367	-0.187717	-0.218651
C134	C	0.560367	0.062283	0.031349
C135	C	0.810367	0.312283	0.281349
C136	C	1.060367	0.562283	0.531349
C137	C	0.364958	-0.187720	-0.218633
C138	C	0.614958	0.062280	0.031367
C139	C	0.864958	0.312280	0.281367
C140	C	1.114958	0.562280	0.531367
N141	N	0.392263	-0.216487	-0.252006
N142	N	0.642263	0.033513	-0.002006
N143	N	0.892263	0.283513	0.247994
N144	N	1.142263	0.533513	0.497994
C145	C	0.364963	-0.245258	-0.285385
C146	C	0.614963	0.004742	-0.035385
C147	C	0.864963	0.254742	0.214615
C148	C	1.114963	0.504742	0.464615
C149	C	0.031883	-0.187740	-0.218677
C150	C	0.281883	0.062260	0.031323
C151	C	0.531883	0.312260	0.281323
C152	C	0.781883	0.562260	0.531323
C153	C	-0.022720	-0.187746	-0.218679
C154	C	0.227280	0.062254	0.031321
C155	C	0.477280	0.312254	0.281321
C156	C	0.727280	0.562254	0.531321
C157	C	-0.022714	-0.245288	-0.285434
C158	C	0.227286	0.004712	-0.035434
C159	C	0.477286	0.254712	0.214566
C160	C	0.727286	0.504712	0.464566
C161	C	0.031889	-0.245283	-0.285429
C162	C	0.281889	0.004717	-0.035429
C163	C	0.531889	0.254717	0.214571
C164	C	0.781889	0.504717	0.464571
C165	C	0.059187	-0.216507	-0.252051
C166	C	0.309187	0.033493	-0.002051
C167	C	0.559187	0.283493	0.247949
C168	C	0.809187	0.533493	0.497949
C169	C	0.479629	-0.245252	-0.285363
C170	C	0.729629	0.004748	-0.035363
C171	C	0.979629	0.254748	0.214637
C172	C	1.229629	0.504748	0.464637
C173	C	0.534234	-0.245248	-0.285350
C174	C	0.784234	0.004752	-0.035350
C175	C	1.034234	0.254752	0.214650
C176	C	1.284234	0.504752	0.464650
C177	C	0.534224	-0.187705	-0.218597
C178	C	0.784224	0.062295	0.031403
C179	C	1.034224	0.312295	0.281403
C180	C	1.284224	0.562295	0.531403
C181	C	0.479623	-0.187710	-0.218609
C182	C	0.729623	0.062290	0.031391
C183	C	0.979623	0.312290	0.281391
C184	C	1.229623	0.562290	0.531391
C185	C	0.452327	-0.216485	-0.251996
C186	C	0.702327	0.033515	-0.001996
C187	C	0.952327	0.283515	0.248004
C188	C	1.202327	0.533515	0.498004
O189	O	0.393239	-0.163273	-0.190249
O190	O	0.643239	0.086727	0.059751
O191	O	0.893239	0.336727	0.309751
O192	O	1.143239	0.586727	0.559751
O193	O	0.393208	-0.269719	-0.313771
O194	O	0.643208	-0.019719	-0.063771
O195	O	0.893208	0.230281	0.186229
O196	O	1.143208	0.480281	0.436229
C197	C	0.755395	-0.333214	-0.251983
C198	C	1.005395	-0.083214	-0.001983
C199	C	1.255395	0.166786	0.248017
C200	C	1.505395	0.416786	0.498017
C201	C	0.755403	-0.383148	-0.251990
C202	C	1.005403	-0.133148	-0.001990
C203	C	1.255403	0.116852	0.248010
C204	C	1.505403	0.366852	0.498010
C205	C	0.788984	-0.692788	-0.218627
C206	C	1.038984	-0.442788	0.031373
C207	C	1.288984	-0.192788	0.281373
C208	C	1.538984	0.057212	0.531373
C209	C	0.789048	-0.880461	-0.218647
C210	C	1.039048	-0.630461	0.031353
C211	C	1.289048	-0.380461	0.281353
C212	C	1.539048	-0.130461	0.531353
O213	O	0.817525	-0.904723	-0.190260
O214	O	1.067525	-0.654723	0.059740
O215	O	1.317525	-0.404723	0.309740
O216	O	1.567525	-0.154723	0.559740
N217	N	0.755598	-0.903933	-0.252049
N218	N	1.005598	-0.653933	-0.002049
N219	N	1.255598	-0.403933	0.247951
N220	N	1.505598	-0.153933	0.497951
C221	C	0.722132	-0.880484	-0.285450
C222	C	0.972132	-0.630484	-0.035450
C223	C	1.222132	-0.380484	0.214550
C224	C	1.472132	-0.130484	0.464550
O225	O	0.693685	-0.904754	-0.313865
O226	O	0.943685	-0.654754	-0.063865
O227	O	1.193685	-0.404754	0.186135
O228	O	1.443685	-0.154754	0.436135
C229	C	0.722070	-0.692812	-0.285432
C230	C	0.972070	-0.442812	-0.035432
C231	C	1.222070	-0.192812	0.214568
C232	C	1.472070	0.057188	0.464568
C233	C	0.755519	-0.669342	-0.252024
C234	C	1.005519	-0.419342	-0.002024
C235	C	1.255519	-0.169342	0.247976
C236	C	1.505519	0.080658	0.497976
C237	C	0.822430	-0.669318	-0.185222
C238	C	1.072430	-0.419318	0.064778
C239	C	1.322430	-0.169318	0.314778
C240	C	1.572430	0.080682	0.564778
C241	C	0.822412	-0.622403	-0.185215
C242	C	1.072412	-0.372403	0.064785
C243	C	1.322412	-0.122403	0.314785
C244	C	1.572412	0.127597	0.564785
C245	C	0.788947	-0.598957	-0.218613
C246	C	1.038947	-0.348957	0.031387
C247	C	1.288947	-0.098957	0.281387
C248	C	1.538947	0.151043	0.531387
C249	C	0.755500	-0.622427	-0.252018
C250	C	1.005500	-0.372427	-0.002018
C251	C	1.255500	-0.122427	0.247982
C252	C	1.505500	0.127573	0.497982
C253	C	0.688607	-0.669363	-0.318836
C254	C	0.938607	-0.419363	-0.068836
C255	C	1.188607	-0.169363	0.181164
C256	C	1.438607	0.080637	0.431164
C257	C	0.688595	-0.622442	-0.318829
C258	C	0.938595	-0.372442	-0.068829
C259	C	1.188595	-0.122442	0.181171
C260	C	1.438595	0.127558	0.431171
C261	C	0.722044	-0.598973	-0.285422
C262	C	0.972044	-0.348973	-0.035422
C263	C	1.222044	-0.098973	0.214578
C264	C	1.472044	0.151027	0.464578
C265	C	0.722017	-0.552065	-0.285409
C266	C	0.972017	-0.302065	-0.035409
C267	C	1.222017	-0.052065	0.214591
C268	C	1.472017	0.197935	0.464591
N269	N	0.755467	-0.528593	-0.252007
N270	N	1.005467	-0.278593	-0.002007
N271	N	1.255467	-0.028593	0.247993
N272	N	1.505467	0.221407	0.497993
C273	C	0.788932	-0.552039	-0.218609
C274	C	1.038932	-0.302039	0.031391
C275	C	1.288932	-0.052039	0.281391
C276	C	1.538932	0.197961	0.531391
C277	C	0.722166	-0.979014	-0.285457
C278	C	0.972166	-0.729014	-0.035457
C279	C	1.222166	-0.479014	0.214543
C280	C	1.472166	-0.229014	0.464543
C281	C	0.722180	-1.025932	-0.285461
C282	C	0.972180	-0.775932	-0.035461
C283	C	1.222180	-0.525932	0.214539
C284	C	1.472180	-0.275932	0.464539
C285	C	0.789098	-1.025906	-0.218658
C286	C	1.039098	-0.775906	0.031342
C287	C	1.289098	-0.525906	0.281342
C288	C	1.539098	-0.275906	0.531342
C289	C	0.789080	-0.978988	-0.218652
C290	C	1.039080	-0.728988	0.031348
C291	C	1.289080	-0.478988	0.281348
C292	C	1.539080	-0.228988	0.531348
C293	C	0.755616	-0.955542	-0.252055
C294	C	1.005616	-0.705542	-0.002055
C295	C	1.255616	-0.455542	0.247945
C296	C	1.505616	-0.205542	0.497945
C297	C	0.788890	-0.453513	-0.218597
C298	C	1.038890	-0.203513	0.031403
C299	C	1.288890	0.046487	0.281403
C300	C	1.538890	0.296487	0.531403
C301	C	0.788868	-0.406594	-0.218592
C302	C	1.038868	-0.156594	0.031408
C303	C	1.288868	0.093406	0.281408
C304	C	1.538868	0.343406	0.531408
C305	C	0.721952	-0.406624	-0.285396
C306	C	0.971952	-0.156624	-0.035396
C307	C	1.221952	0.093376	0.214604
C308	C	1.471952	0.343376	0.464604
C309	C	0.721973	-0.453539	-0.285400
C310	C	0.971973	-0.203539	-0.035400
C311	C	1.221973	0.046461	0.214600
C312	C	1.471973	0.296461	0.464600
C313	C	0.755446	-0.476983	-0.251999
C314	C	1.005446	-0.226983	-0.001999
C315	C	1.255446	0.023017	0.248001
C316	C	1.505446	0.273017	0.498001
O317	O	0.693559	-0.527774	-0.313785
O318	O	0.943559	-0.277774	-0.063785
O319	O	1.193559	-0.027774	0.186215
O320	O	1.443559	0.222226	0.436215
O321	O	0.817382	-0.527761	-0.190207
O322	O	1.067382	-0.277761	0.059793
O323	O	1.317382	-0.027761	0.309793
O324	O	1.567382	0.222239	0.559793
C325	C	0.789002	-0.739703	-0.218633
C326	C	1.039002	-0.489703	0.031367
C327	C	1.289002	-0.239703	0.281367
C328	C	1.539002	0.010297	0.531367
C329	C	0.755556	-0.763173	-0.252038
C330	C	1.005556	-0.513173	-0.002038
C331	C	1.255556	-0.263173	0.247962
C332	C	1.505556	-0.013173	0.497962
C333	C	0.722091	-0.739727	-0.285436
C334	C	0.972091	-0.489727	-0.035436
C335	C	1.222091	-0.239727	0.214564
C336	C	1.472091	0.010273	0.464564
C337	C	0.755570	-0.810091	-0.252042
C338	C	1.005570	-0.560091	-0.002042
C339	C	1.255570	-0.310091	0.247958
C340	C	1.505570	-0.060091	0.497958
C341	C	0.789035	-0.833537	-0.218644
C342	C	1.039035	-0.583537	0.031356
C343	C	1.289035	-0.333537	0.281356
C344	C	1.539035	-0.083537	0.531356
C345	C	0.822486	-0.810065	-0.185242
C346	C	1.072486	-0.560065	0.064758
C347	C	1.322486	-0.310065	0.314758
C348	C	1.572486	-0.060065	0.564758
C349	C	0.822467	-0.763149	-0.185235
C350	C	1.072467	-0.513149	0.064765
C351	C	1.322467	-0.263149	0.314765
C352	C	1.572467	-0.013149	0.564765
C353	C	0.688641	-0.763199	-0.318838
C354	C	0.938641	-0.513199	-0.068838
C355	C	1.188641	-0.263199	0.181162
C356	C	1.438641	-0.013199	0.431162
C357	C	0.688661	-0.810115	-0.318841
C358	C	0.938661	-0.560115	-0.068841
C359	C	1.188661	-0.310115	0.181159
C360	C	1.438661	-0.060115	0.431159
C361	C	0.722126	-0.833560	-0.285443
C362	C	0.972126	-0.583560	-0.035443
C363	C	1.222126	-0.333560	0.214557
C364	C	1.472126	-0.083560	0.464557
C365	C	0.891863	-0.216509	-0.252045
C366	C	1.141863	0.033491	-0.002045
C367	C	1.391863	0.283491	0.247955
C368	C	1.641863	0.533491	0.497955
C369	C	0.949977	-0.216517	-0.252060
C370	C	1.199977	0.033483	-0.002060
C371	C	1.449977	0.283483	0.247940
C372	C	1.699977	0.533483	0.497940
C373	C	0.755518	-0.216471	-0.388382
C374	C	1.005518	0.033529	-0.138382
C375	C	1.255518	0.283529	0.111618
C376	C	1.505518	0.533529	0.361618
C377	C	0.755530	-0.216463	-0.446496
C378	C	1.005530	0.033537	-0.196496
C379	C	1.255530	0.283537	0.053504
C380	C	1.505530	0.533537	0.303504
C381	C	0.755599	-0.099313	-0.252047
C382	C	1.005599	0.150687	-0.002047
C383	C	1.255599	0.400687	0.247953
C384	C	1.505599	0.650687	0.497953
C385	C	0.755645	-0.049378	-0.252063
C386	C	1.005645	0.200622	-0.002063
C387	C	1.255645	0.450622	0.247937
C388	C	1.505645	0.700622	0.497937
C389	C	0.788957	-0.245164	-0.697682
C390	C	1.038957	0.004836	-0.447682
C391	C	1.288957	0.254836	-0.197682
C392	C	1.538957	0.504836	0.052318
C393	C	0.788952	-0.245173	-0.643078
C394	C	1.038952	0.004827	-0.393078
C395	C	1.288952	0.254827	-0.143078
C396	C	1.538952	0.504827	0.106922
O397	O	0.817349	-0.269626	-0.614834
O398	O	1.067349	-0.019626	-0.364834
O399	O	1.317349	0.230374	-0.114834
O400	O	1.567349	0.480374	0.135166
N401	N	0.755541	-0.216441	-0.615770
N402	N	1.005541	0.033559	-0.365770
N403	N	1.255541	0.283559	-0.115770
N404	N	1.505541	0.533559	0.134230
C405	C	0.722130	-0.187701	-0.643070
C406	C	0.972130	0.062299	-0.393070
C407	C	1.222130	0.312299	-0.143070
C408	C	1.472130	0.562299	0.106930
O409	O	0.693711	-0.163263	-0.614829
O410	O	0.943711	0.086737	-0.364829
O411	O	1.193711	0.336737	-0.114829
O412	O	1.443711	0.586737	0.135171
C413	C	0.722134	-0.187694	-0.697674
C414	C	0.972134	0.062306	-0.447674
C415	C	1.222134	0.312306	-0.197674
C416	C	1.472134	0.562306	0.052326
C417	C	0.755550	-0.216425	-0.724978
C418	C	1.005550	0.033575	-0.474978
C419	C	1.255550	0.283575	-0.224978
C420	C	1.505550	0.533575	0.025022
C421	C	0.822371	-0.273893	-0.724986
C422	C	1.072371	-0.023893	-0.474986
C423	C	1.322371	0.226107	-0.224986
C424	C	1.572371	0.476107	0.025014
C425	C	0.822377	-0.273883	-0.779587
C426	C	1.072377	-0.023883	-0.529587
C427	C	1.322377	0.226117	-0.279587
C428	C	1.572377	0.476117	-0.029587
C429	C	0.788969	-0.245144	-0.806883
C430	C	1.038969	0.004856	-0.556883
C431	C	1.288969	0.254856	-0.306883
C432	C	1.538969	0.504856	-0.056883
C433	C	0.755556	-0.216415	-0.779579
C434	C	1.005556	0.033585	-0.529579
C435	C	1.255556	0.283585	-0.279579
C436	C	1.505556	0.533585	-0.029579
C437	C	0.688721	-0.158956	-0.724972
C438	C	0.938721	0.091044	-0.474972
C439	C	1.188721	0.341044	-0.224972
C440	C	1.438721	0.591044	0.025028
C441	C	0.688726	-0.158952	-0.779579
C442	C	0.938726	0.091048	-0.529579
C443	C	1.188726	0.341048	-0.279579
C444	C	1.438726	0.591048	-0.029579
C445	C	0.722143	-0.187683	-0.806884
C446	C	0.972143	0.062317	-0.556884
C447	C	1.222143	0.312317	-0.306884
C448	C	1.472143	0.562317	-0.056884
C449	C	0.722155	-0.187666	-0.861475
C450	C	0.972155	0.062334	-0.611475
C451	C	1.222155	0.312334	-0.361475
C452	C	1.472155	0.562334	-0.111475
N453	N	0.755566	-0.216398	-0.888782
N454	N	1.005566	0.033602	-0.638782
N455	N	1.255566	0.283602	-0.388782
N456	N	1.505566	0.533602	-0.138782
C457	C	0.788973	-0.245137	-0.861486
C458	C	1.038973	0.004863	-0.611486
C459	C	1.288973	0.254863	-0.361486
C460	C	1.538973	0.504863	-0.111486
C461	C	0.722126	-0.187718	-0.528399
C462	C	0.972126	0.062282	-0.278399
C463	C	1.222126	0.312282	-0.028399
C464	C	1.472126	0.562282	0.221601
C465	C	0.722125	-0.187722	-0.473797
C466	C	0.972125	0.062278	-0.223797
C467	C	1.222125	0.312278	0.026203
C468	C	1.472125	0.562278	0.276203
C469	C	0.788945	-0.245195	-0.473808
C470	C	1.038945	0.004805	-0.223808
C471	C	1.288945	0.254805	0.026192
C472	C	1.538945	0.504805	0.276192
C473	C	0.788949	-0.245188	-0.528412
C474	C	1.038949	0.004812	-0.278412
C475	C	1.288949	0.254812	-0.028412
C476	C	1.538949	0.504812	0.221588
C477	C	0.755536	-0.216450	-0.555707
C478	C	1.005536	0.033550	-0.305707
C479	C	1.255536	0.283550	-0.055707
C480	C	1.505536	0.533550	0.194293
C481	C	0.788983	-0.245113	-0.976152
C482	C	1.038983	0.004887	-0.726152
C483	C	1.288983	0.254887	-0.476152
C484	C	1.538983	0.504887	-0.226152
C485	C	0.788988	-0.245099	-1.030757
C486	C	1.038988	0.004901	-0.780757
C487	C	1.288988	0.254901	-0.530757
C488	C	1.538988	0.504901	-0.280757
C489	C	0.722165	-0.187628	-1.030741
C490	C	0.972165	0.062372	-0.780741
C491	C	1.222165	0.312372	-0.530741
C492	C	1.472165	0.562372	-0.280741
C493	C	0.722162	-0.187640	-0.976140
C494	C	0.972162	0.062360	-0.726140
C495	C	1.222162	0.312360	-0.476140
C496	C	1.472162	0.562360	-0.226140
C497	C	0.755573	-0.216386	-0.948847
C498	C	1.005573	0.033614	-0.698847
C499	C	1.255573	0.283614	-0.448847
C500	C	1.505573	0.533614	-0.198847
O501	O	0.693771	-0.163227	-0.889753
O502	O	0.943771	0.086773	-0.639753
O503	O	1.193771	0.336773	-0.389753
O504	O	1.443771	0.586773	-0.139753
O505	O	0.817382	-0.269575	-0.889734
O506	O	1.067382	-0.019575	-0.639734
O507	O	1.317382	0.230425	-0.389734
O508	O	1.567382	0.480425	-0.139734
C509	C	0.755491	-0.216478	-0.116167
C510	C	1.005491	0.033522	0.133833
C511	C	1.255491	0.283522	0.383833
C512	C	1.505491	0.533522	0.633833
C513	C	0.755581	-0.216360	-0.058053
C514	C	1.005581	0.033640	0.191947
C515	C	1.255581	0.283640	0.441947
C516	C	1.505581	0.533640	0.691947
H517	H	-0.044951	-0.268714	-0.312615
H518	H	0.205049	-0.018714	-0.062615
H519	H	0.455049	0.231286	0.187385
H520	H	0.705049	0.481286	0.437385
H521	H	0.694938	-1.045037	-0.312660
H522	H	0.944938	-0.795037	-0.062660
H523	H	1.194938	-0.545037	0.187340
H524	H	1.444938	-0.295037	0.437340
H525	H	0.849586	-0.297280	-0.801813
H526	H	1.099586	-0.047280	-0.551813
H527	H	1.349586	0.202720	-0.301813
H528	H	1.599586	0.452720	-0.051813
H529	H	0.661367	-0.688464	-0.346038
H530	H	0.911367	-0.438464	-0.096038
H531	H	1.161367	-0.188464	0.153962
H532	H	1.411367	0.061536	0.403962
H533	H	0.849732	-0.829163	-0.158047
H534	H	1.099732	-0.579163	0.091953
H535	H	1.349732	-0.329163	0.341953
H536	H	1.599732	-0.079163	0.591953
H537	H	0.457394	-0.164282	-0.191433
H538	H	0.707394	0.085718	0.058567
H539	H	0.957394	0.335718	0.308567
H540	H	1.207394	0.585718	0.558567
F541	F	0.686562	-0.157127	-0.557444
F542	F	0.936562	0.092873	-0.307444
F543	F	1.186562	0.342873	-0.057444
F544	F	1.436562	0.592873	0.192556
H545	H	0.305285	-0.297463	-0.345945
H546	H	0.555285	-0.047463	-0.095945
H547	H	0.805285	0.202537	0.154055
H548	H	1.055285	0.452537	0.404055
F549	F	0.312115	-0.128315	-0.149753
F550	F	0.562115	0.121685	0.100247
F551	F	0.812115	0.371685	0.350247
F552	F	1.062115	0.621685	0.600247
H553	H	0.849575	-0.297298	-0.702768
H554	H	1.099575	-0.047298	-0.452768
H555	H	1.349575	0.202702	-0.202768
H556	H	1.599575	0.452702	0.047232
H557	H	0.661508	-0.135561	-0.702750
H558	H	0.911508	0.114439	-0.452750
H559	H	1.161508	0.364439	-0.202750
H560	H	1.411508	0.614439	0.047250
F561	F	0.563287	-0.275874	-0.320869
F562	F	0.813287	-0.025874	-0.070869
F563	F	1.063287	0.224126	0.179131
F564	F	1.313287	0.474126	0.429131
F565	F	0.858019	-0.597431	-0.149664
F566	F	1.108019	-0.347431	0.100336
F567	F	1.358019	-0.097431	0.350336
F568	F	1.608019	0.152569	0.600336
H569	H	0.816193	-0.268518	-0.953936
H570	H	1.066193	-0.018518	-0.703936
H571	H	1.316193	0.231482	-0.453936
H572	H	1.566193	0.481482	-0.203936
F573	F	0.858052	-0.694264	-0.149673
F574	F	1.108052	-0.444264	0.100327
F575	F	1.358052	-0.194264	0.350327
F576	F	1.608052	0.055736	0.600327
F577	F	0.653165	-0.128362	-0.808626
F578	F	0.903165	0.121638	-0.558626
F579	F	1.153165	0.371638	-0.308626
F580	F	1.403165	0.621638	-0.058626
H581	H	-0.044944	-0.164322	-0.191499
H582	H	0.205056	0.085678	0.058501
H583	H	0.455056	0.335678	0.308501
H584	H	0.705056	0.585678	0.558501
F585	F	0.686565	-0.157136	-0.444744
F586	F	0.936565	0.092864	-0.194744
F587	F	1.186565	0.342864	0.055256
F588	F	1.436565	0.592864	0.305256
H589	H	0.816105	-0.387486	-0.191385
H590	H	1.066105	-0.137486	0.058615
H591	H	1.316105	0.112514	0.308615
H592	H	1.566105	0.362514	0.558615
H593	H	0.694959	-0.164239	-0.953908
H594	H	0.944959	0.085761	-0.703908
H595	H	1.194959	0.335761	-0.453908
H596	H	1.444959	0.585761	-0.203908
F597	F	0.199415	-0.304662	-0.354308
F598	F	0.449415	-0.054662	-0.104308
F599	F	0.699415	0.195338	0.145692
F600	F	0.949415	0.445338	0.395692
F601	F	0.824681	-0.954014	-0.183095
F602	F	1.074681	-0.704014	0.066905
F603	F	1.324681	-0.454014	0.316905
F604	F	1.574681	-0.204014	0.566905
H605	H	0.556461	-0.164281	-0.191419
H606	H	0.806461	0.085719	0.058581
H607	H	1.056461	0.335719	0.308581
H608	H	1.306461	0.585719	0.558581
F609	F	0.060940	-0.275906	-0.320948
F610	F	0.310940	-0.025906	-0.070948
F611	F	0.560940	0.224094	0.179052
F612	F	0.810940	0.474094	0.429052
H613	H	0.661345	-0.603356	-0.346032
H614	H	0.911345	-0.353356	-0.096032
H615	H	1.161345	-0.103356	0.153968
H616	H	1.411345	0.146644	0.403968
H617	H	0.816159	-0.268584	-0.550639
H618	H	1.066159	-0.018584	-0.300639
H619	H	1.316159	0.231416	-0.050639
H620	H	1.566159	0.481416	0.199361
H621	H	0.816149	-0.472596	-0.191400
H622	H	1.066149	-0.222596	0.058600
H623	H	1.316149	0.027404	0.308600
H624	H	1.566149	0.277404	0.558600
F625	F	0.824712	-1.050867	-0.183112
F626	F	1.074712	-0.800867	0.066888
F627	F	1.324712	-0.550867	0.316888
F628	F	1.574712	-0.300867	0.566888
F629	F	0.686364	-0.478518	-0.320946
F630	F	0.936364	-0.228518	-0.070946
F631	F	1.186364	0.021482	0.179054
F632	F	1.436364	0.271482	0.429054
H633	H	0.694967	-0.164228	-1.052975
H634	H	0.944967	0.085772	-0.802975
H635	H	1.194967	0.335772	-0.552975
H636	H	1.444967	0.585772	-0.302975
F637	F	0.686545	-0.954068	-0.321011
F638	F	0.936545	-0.704068	-0.071011
F639	F	1.186545	-0.454068	0.178989
F640	F	1.436545	-0.204068	0.428989
F641	F	0.060931	-0.157113	-0.183146
F642	F	0.310931	0.092887	0.066854
F643	F	0.560931	0.342887	0.316854
F644	F	0.810931	0.592887	0.566854
H645	H	0.206239	-0.135519	-0.158104
H646	H	0.456239	0.114481	0.091896
H647	H	0.706239	0.364481	0.341896
H648	H	0.956239	0.614481	0.591896
H649	H	0.694704	-0.387527	-0.312587
H650	H	0.944704	-0.137527	-0.062587
H651	H	1.194704	0.112473	0.187413
H652	H	1.444704	0.362473	0.437413
F653	F	0.858070	-0.738177	-0.149680
F654	F	1.108070	-0.488177	0.100320
F655	F	1.358070	-0.238177	0.350320
F656	F	1.608070	0.011823	0.600320
H657	H	0.661419	-0.829220	-0.346045
H658	H	0.911419	-0.579220	-0.096045
H659	H	1.161419	-0.329220	0.153955
H660	H	1.411419	-0.079220	0.403955
F661	F	0.824499	-0.275784	-0.444748
F662	F	1.074499	-0.025784	-0.194748
F663	F	1.324499	0.224216	0.055252
F664	F	1.574499	0.474216	0.305252
F665	F	0.653021	-0.738252	-0.354387
F666	F	0.903021	-0.488252	-0.104387
F667	F	1.153021	-0.238252	0.145613
F668	F	1.403021	0.011748	0.395613
H669	H	0.816202	-0.268496	-1.052986
H670	H	1.066202	-0.018496	-0.802986
H671	H	1.316202	0.231504	-0.552986
H672	H	1.566202	0.481504	-0.302986
H673	H	0.457410	-0.268682	-0.312552
H674	H	0.707410	-0.018682	-0.062552
H675	H	0.957410	0.231318	0.187448
H676	H	1.207410	0.481318	0.437448
