data_functionalizedCrystal
_audit_creation_method	'MofGen! by Chris Wilmer'
_symmetry_space_group_name_H-M	'P1'
_symmetry_Int_Tables_number	1
_symmetry_cell_setting	triclinic
loop_
_symmetry_equiv_pos_as_xyz
  x,y,z
_cell_length_a	13.635800
_cell_length_b	23.538149
_cell_length_c	25.237185
_cell_angle_alpha	84.030375
_cell_angle_beta	67.926125
_cell_angle_gamma	96.494252
loop_
_atom_site_label
_atom_site_type_symbol
_atom_site_fract_x
_atom_site_fract_y
_atom_site_fract_z
V1	V	-1.997605	-0.178716	0.079886
O2	O	-1.968510	-0.174981	-0.003093
O3	O	-1.995738	-0.177814	0.157684
O4	O	-1.956365	-0.256515	0.078984
O5	O	-2.008155	-0.095736	0.076151
V6	V	-2.238733	-0.168752	0.069922
O7	O	-2.129624	-0.200573	0.101743
O8	O	-2.331813	-0.146896	0.048065
O9	O	-2.128996	-0.169654	-0.007876
O10	O	-2.326526	-0.172488	0.152901
O11	O	-2.286881	-0.251733	0.073657
O12	O	-2.168369	-0.090954	0.070824
C13	C	-1.924223	-0.175078	0.176639
C14	C	-1.963226	-0.174859	0.240241
C15	C	-2.072825	-0.177627	0.273039
C16	C	-2.109489	-0.177430	0.332802
C17	C	-2.036552	-0.174461	0.359766
C18	C	-1.926944	-0.171695	0.326964
C19	C	-1.890283	-0.171896	0.267203
V20	V	-1.497605	-0.178716	0.079886
O21	O	-1.468510	-0.174981	-0.003093
O22	O	-1.495738	-0.177814	0.157684
O23	O	-1.456365	-0.256515	0.078984
O24	O	-1.508155	-0.095736	0.076151
V25	V	-1.738733	-0.168752	0.069922
O26	O	-1.629624	-0.200573	0.101743
O27	O	-1.831813	-0.146896	0.048065
O28	O	-1.628996	-0.169654	-0.007876
O29	O	-1.826526	-0.172488	0.152901
O30	O	-1.786881	-0.251733	0.073657
O31	O	-1.668369	-0.090954	0.070824
C32	C	-1.873998	-0.275467	0.076249
C33	C	-1.881070	-0.339070	0.076027
C34	C	-2.082408	-0.071999	0.073561
C35	C	-2.064955	-0.008396	0.073780
C36	C	-2.032184	-0.172389	-0.026828
C37	C	-1.982799	-0.172612	-0.090430
C38	C	-1.870467	0.383093	0.077960
C39	C	-1.854048	0.442855	0.078159
O40	O	-1.772306	0.471282	0.080680
N41	N	-1.931955	0.475667	0.075397
C42	C	-2.026282	0.448715	0.072429
O43	O	-2.091040	0.482112	0.070097
C44	C	-2.042696	0.388954	0.072225
C45	C	-1.964787	0.356144	0.074994
C46	C	-1.792564	0.350283	0.080727
C47	C	-1.808983	0.290524	0.080529
C48	C	-1.903304	0.263575	0.077563
C49	C	-1.981206	0.296385	0.074795
C50	C	-2.137018	0.362003	0.069253
C51	C	-2.153425	0.302238	0.069049
C52	C	-2.075517	0.269428	0.071818
C53	C	-2.091945	0.209678	0.071631
N54	N	-2.014038	0.176866	0.074393
C55	C	-1.919718	0.203815	0.077359
C56	C	-1.991804	0.574217	0.072856
C57	C	-1.975395	0.633976	0.073064
C58	C	-1.803161	0.628112	0.078793
C59	C	-1.819575	0.568352	0.078589
C60	C	-1.913898	0.541405	0.075618
C61	C	-1.954205	0.078317	0.076943
C62	C	-1.970634	0.018553	0.076746
C63	C	-2.142864	0.024422	0.071014
C64	C	-2.126439	0.084181	0.071213
C65	C	-2.032100	0.111127	0.074176
O66	O	-2.173658	0.181212	0.069109
O67	O	-1.854968	0.170412	0.079683
C68	C	-1.762722	-0.171059	-0.487769
C69	C	-1.716329	-0.171259	-0.547531
O70	O	-1.765535	-0.168904	-0.580932
N71	N	-1.607043	-0.174229	-0.574495
C72	C	-1.544144	-0.176993	-0.541694
O73	O	-1.446927	-0.179538	-0.570117
C74	C	-1.590535	-0.176790	-0.481933
C75	C	-1.699827	-0.173825	-0.454972
C76	C	-1.872006	-0.168094	-0.460807
C77	C	-1.918396	-0.167896	-0.401048
C78	C	-1.855501	-0.170662	-0.368251
C79	C	-1.746216	-0.173627	-0.395213
C80	C	-1.527634	-0.179550	-0.449134
C81	C	-1.574036	-0.179346	-0.389369
C82	C	-1.683328	-0.176381	-0.362407
C83	C	-1.729711	-0.176194	-0.302657
N84	N	-1.838997	-0.173224	-0.275693
C85	C	-1.901892	-0.170458	-0.308490
C86	C	-1.446726	-0.177420	-0.667197
C87	C	-1.400336	-0.177628	-0.726956
C88	C	-1.572524	-0.171892	-0.732789
C89	C	-1.618916	-0.171688	-0.673028
C90	C	-1.556012	-0.174450	-0.640233
C91	C	-1.999307	-0.170042	-0.182992
C92	C	-2.045694	-0.169846	-0.123227
C93	C	-1.873501	-0.175579	-0.117399
C94	C	-1.827118	-0.175778	-0.177158
C95	C	-1.890030	-0.173007	-0.209954
O96	O	-1.680571	-0.178545	-0.269220
O97	O	-1.999099	-0.167907	-0.280061
C98	C	-1.424223	-0.175078	0.176639
C99	C	-1.463226	-0.174859	0.240241
C100	C	-1.373998	-0.275467	0.076249
C101	C	-1.381070	-0.339070	0.076027
C102	C	-1.532184	-0.172389	-0.026828
C103	C	-1.482799	-0.172612	-0.090430
C104	C	-1.582408	-0.071999	0.073561
C105	C	-1.564955	-0.008396	0.073780
C106	C	-1.475640	-0.371866	0.078787
C107	C	-1.482294	-0.431627	0.078570
C108	C	-1.394379	-0.458590	0.075598
C109	C	-1.299801	-0.425789	0.072836
C110	C	-1.293145	-0.366029	0.073048
C111	C	-1.545694	-0.169846	-0.123227
C112	C	-1.499301	-0.170045	-0.182990
C113	C	-1.390015	-0.173016	-0.209954
C114	C	-1.327116	-0.175780	-0.177152
C115	C	-1.373507	-0.175577	-0.117391
C116	C	-1.470634	0.018553	0.076746
C117	C	-1.454216	0.078316	0.076946
C118	C	-1.532123	0.111128	0.074184
C119	C	-1.626450	0.084175	0.071216
C120	C	-1.642864	0.024414	0.071012
H121	H	-1.801036	-0.169639	0.240503
H122	H	-1.352254	-0.173181	-0.258615
H123	H	-1.407187	-0.008155	0.078995
H124	H	-2.230234	0.280301	0.066630
H125	H	-1.228225	-0.447752	0.070416
H126	H	-2.134691	-0.167433	-0.101278
H127	H	-2.132229	-0.180041	0.251092
H128	H	-1.322284	-0.177834	-0.090691
H129	H	-2.219662	0.002469	0.068601
H130	H	-2.050542	-0.167783	-0.209687
H131	H	-1.216135	-0.339330	0.070802
H132	H	-1.518750	0.159787	0.074357
H133	H	-1.634682	-0.167428	-0.101281
H134	H	-1.907188	-0.008159	0.079002
H135	H	-1.877383	0.100250	0.079349
H136	H	-2.198739	-0.179681	0.359501
H137	H	-1.547236	-0.349921	0.081209
H138	H	-2.066418	-0.174298	0.408428
H139	H	-1.238130	-0.178198	-0.199116
H140	H	-2.189886	0.110895	0.068968
H141	H	-1.745538	0.263816	0.082782
H142	H	-2.007385	-0.165479	-0.379102
H143	H	-1.726356	0.650065	0.081207
H144	H	-2.038846	0.660684	0.070818
H145	H	-1.559314	-0.458326	0.080821
H146	H	-1.377404	0.100252	0.079363
H147	H	-1.719674	0.002477	0.068600
H148	H	-2.068620	0.552280	0.070442
H149	H	-1.867567	-0.169278	0.348928
H150	H	-1.707905	-0.169274	-0.651080
H151	H	-2.200463	0.388707	0.066998
H152	H	-1.715754	0.372218	0.083140
H153	H	-1.756132	0.541641	0.080842
H154	H	-1.689875	0.110900	0.068965
H155	H	-1.923234	-0.165839	-0.487505
H156	H	-1.623729	-0.169638	-0.759504
H157	H	-1.395496	-0.179679	-0.640496
H158	H	-1.311350	-0.180051	-0.748901
H159	H	-1.438647	-0.181963	-0.471075
H160	H	-1.522810	-0.181606	-0.362668
H161	H	-1.738129	-0.178202	-0.199110
H162	H	-1.822303	-0.177833	-0.090685
H163	H	-1.550533	-0.167795	-0.209688
H164	H	-1.399813	-0.507251	0.075425
