data_functionalizedCrystal
_audit_creation_method	'MofGen! by Chris Wilmer'
_symmetry_space_group_name_H-M	'P1'
_symmetry_Int_Tables_number	1
_symmetry_cell_setting	triclinic
loop_
_symmetry_equiv_pos_as_xyz
  x,y,z
_cell_length_a	18.050589
_cell_length_b	14.908750
_cell_length_c	18.050583
_cell_angle_alpha	86.716907
_cell_angle_beta	89.971909
_cell_angle_gamma	93.267480
loop_
_atom_site_label
_atom_site_type_symbol
_atom_site_fract_x
_atom_site_fract_y
_atom_site_fract_z
Zn1	Zn	-0.361148	-1.379082	-0.354309
Zn2	Zn	-0.485347	-1.378965	-0.230134
Zn3	Zn	-0.354015	-1.228230	-0.237312
Zn4	Zn	-0.478132	-1.228175	-0.361458
O5	O	-0.419660	-1.303613	-0.295804
O6	O	-0.383628	-1.505305	-0.331841
O7	O	-0.467960	-1.358943	-0.127163
O8	O	-0.251040	-1.248312	-0.252844
O9	O	-0.474877	-1.505219	-0.240611
O10	O	-0.256281	-1.359143	-0.338801
O11	O	-0.371471	-1.248199	-0.132436
O12	O	-0.364474	-1.101984	-0.259776
O13	O	-0.462579	-1.248220	-0.464433
O14	O	-0.455662	-1.101944	-0.350986
O15	O	-0.376632	-1.359090	-0.459181
O16	O	-0.588311	-1.358891	-0.247543
O17	O	-0.583010	-1.248106	-0.344026
C18	C	-0.408512	-1.069232	-0.306936
C19	C	-0.403760	-0.968963	-0.311716
C20	C	-0.349639	-0.827679	-0.366021
C21	C	-0.354097	-0.921890	-0.361533
C22	C	-0.448970	-0.921816	-0.266385
C23	C	-0.444512	-0.827604	-0.270873
C24	C	-0.394844	-0.780539	-0.320691
C25	C	-0.390383	-0.686325	-0.325175
C26	C	-0.485259	-0.686253	-0.230031
C27	C	-0.489717	-0.780465	-0.225543
C28	C	-0.612607	-1.303504	-0.295796
C29	C	-0.695155	-1.303540	-0.295814
C30	C	-0.891753	-1.243355	-0.348262
C31	C	-0.940154	-1.221366	-0.281541
C32	C	-0.846289	-1.303629	-0.295820
C33	C	-0.944972	-1.325661	-0.362546
C34	C	-0.992278	-1.303713	-0.295831
C35	C	-0.893601	-1.281597	-0.229065
C36	C	-0.898417	-1.385931	-0.310114
C37	C	-0.946797	-1.363973	-0.243345
C38	C	-0.762189	-1.303578	-0.295814
C39	C	-1.076377	-1.303763	-0.295829
C40	C	-0.225961	-1.303747	-0.295826
C41	C	-0.143418	-1.303804	-0.295835
C42	C	-0.419596	-1.303662	-0.489507
C43	C	-0.419569	-1.303683	-0.572052
C44	C	-0.430846	-0.538909	-0.284622
C45	C	-0.435593	-0.639179	-0.279844
C46	C	-0.372783	-1.364031	-0.818019
C47	C	-0.441592	-1.386043	-0.767562
C48	C	-0.419525	-1.303741	-0.869169
C49	C	-0.350744	-1.281742	-0.772543
C50	C	-0.419543	-1.303715	-0.723186
C51	C	-0.488371	-1.325797	-0.819798
C52	C	-0.397475	-1.221457	-0.824786
C53	C	-0.466329	-1.243438	-0.774353
C54	C	-0.419513	-1.303759	-0.953267
C55	C	-0.419562	-1.303697	-0.639090
C56	C	-0.419673	-1.303616	-0.102851
C57	C	-0.419499	-1.303770	-0.020299
H58	H	-0.522070	-0.647861	-0.193121
H59	H	-0.530157	-0.818798	-0.184984
H60	H	-0.867673	-1.192308	-0.392554
N61	N	-0.336815	-0.635568	-0.378910
H62	H	-0.365187	-0.596484	-0.415135
H63	H	-0.300521	-0.596530	-0.350598
N64	N	-0.466315	-1.478197	-0.734430
H65	H	-0.430969	-1.523708	-0.750229
H66	H	-0.466609	-1.477266	-0.678529
H67	H	-0.970737	-1.414981	-0.198953
N68	N	-0.964600	-1.129219	-0.265524
H69	H	-0.995031	-1.105138	-0.308379
H70	H	-0.995586	-1.133644	-0.218715
N71	N	-0.863881	-1.256854	-0.154304
H72	H	-0.807934	-1.256948	-0.154768
H73	H	-0.879458	-1.194935	-0.143433
N74	N	-0.372726	-1.129327	-0.857936
H75	H	-0.373375	-1.129885	-0.913857
H76	H	-0.407505	-1.083647	-0.841303
H77	H	-0.879940	-1.455475	-0.322227
H78	H	-0.292569	-1.263147	-0.751748
H79	H	-0.309190	-0.789357	-0.406578
H80	H	-0.967502	-1.344263	-0.418972
H81	H	-0.333302	-1.415066	-0.837281
H82	H	-0.546563	-1.344493	-0.840496
N83	N	-0.518757	-1.175893	-0.749001
H84	H	-0.502566	-1.113928	-0.770712
H85	H	-0.570661	-1.192697	-0.766257
N86	N	-0.305344	-0.972736	-0.410426
H87	H	-0.273206	-0.928621	-0.442666
H88	H	-0.272788	-1.011823	-0.378394
H89	H	-0.489410	-0.960153	-0.225827
