data_functionalizedCrystal
_audit_creation_method	'MofGen! by Chris Wilmer'
_symmetry_space_group_name_H-M	'P1'
_symmetry_Int_Tables_number	1
_symmetry_cell_setting	triclinic
loop_
_symmetry_equiv_pos_as_xyz
  x,y,z
_cell_length_a	16.992701
_cell_length_b	14.853567
_cell_length_c	16.053802
_cell_angle_alpha	92.572962
_cell_angle_beta	87.243340
_cell_angle_gamma	87.151050
loop_
_atom_site_label
_atom_site_type_symbol
_atom_site_fract_x
_atom_site_fract_y
_atom_site_fract_z
O1	O	1.043903	0.187610	-0.069424
O2	O	1.543903	0.687610	0.430576
O3	O	0.815616	0.185515	-0.069424
O4	O	1.315616	0.685515	0.430576
O5	O	0.935858	0.055763	-0.069427
O6	O	1.435858	0.555763	0.430573
O7	O	0.923662	0.317362	-0.069422
O8	O	1.423662	0.817362	0.430578
O9	O	0.929239	0.062873	0.069432
O10	O	1.429239	0.562873	0.569432
O11	O	0.808997	0.192625	0.069435
O12	O	1.308997	0.692625	0.569435
O13	O	1.037285	0.194720	0.069435
O14	O	1.537285	0.694720	0.569435
Zn15	Zn	0.922090	0.194802	0.091482
Zn16	Zn	1.422090	0.694802	0.591482
Zn17	Zn	0.930810	0.185433	-0.091471
Zn18	Zn	1.430810	0.685433	0.408529
O19	O	0.917043	0.324472	0.069437
O20	O	1.417043	0.824472	0.569437
C21	C	0.783091	0.186372	0.000005
C22	C	1.283091	0.686372	0.500005
C23	C	0.696038	0.178323	0.000004
C24	C	1.196038	0.678323	0.500004
C25	C	0.207020	0.124237	0.000000
C26	C	0.707020	0.624237	0.500000
C27	C	0.288814	0.131808	0.000006
C28	C	0.788814	0.631808	0.500006
C29	C	0.320450	0.217054	0.000003
C30	C	0.820450	0.717054	0.500003
C31	C	0.270287	0.294735	0.000005
C32	C	0.770287	0.794735	0.500005
C33	C	0.188494	0.287163	0.000005
C34	C	0.688494	0.787163	0.500005
C35	C	0.564082	0.248432	0.000006
C36	C	1.064082	0.748432	0.500006
C37	C	0.645881	0.255998	0.000003
C38	C	1.145881	0.755998	0.500003
C39	C	0.664403	0.093070	0.000006
C40	C	1.164403	0.593070	0.500006
C41	C	0.582608	0.085506	0.000001
C42	C	1.082608	0.585506	0.500001
C43	C	0.532451	0.163187	0.000007
C44	C	1.032451	0.663187	0.500007
N45	N	0.404057	0.224794	0.000006
N46	N	0.904057	0.724794	0.500006
N47	N	0.448845	0.155446	0.000010
N48	N	0.948845	0.655446	0.500010
C49	C	0.931996	0.025690	0.000000
C50	C	1.431996	0.525690	0.500000
C51	C	0.930340	-0.074511	-0.000007
C52	C	1.430340	0.425489	0.499993
C53	C	0.851913	-0.492580	0.000009
C54	C	1.351913	0.007420	0.500009
C55	C	0.994763	-0.503777	0.000009
C56	C	1.494763	-0.003777	0.500009
C57	C	0.996320	-0.409633	0.000004
C58	C	1.496320	0.090367	0.500004
C59	C	0.925673	-0.356959	0.000003
C60	C	1.425673	0.143041	0.500003
C61	C	0.853468	-0.398428	0.000007
C62	C	1.353468	0.101572	0.500007
C63	C	1.068524	-0.368156	0.000009
C64	C	1.568524	0.131844	0.500009
C65	C	1.070084	-0.274008	0.000005
C66	C	1.570084	0.225992	0.500005
C67	C	0.999436	-0.221332	-0.000002
C68	C	1.499436	0.278668	0.499998
C69	C	0.927228	-0.262806	0.000001
C70	C	1.427228	0.237194	0.500001
C71	C	0.856581	-0.210132	-0.000001
C72	C	1.356581	0.289868	0.499999
C73	C	0.784372	-0.251605	-0.000004
C74	C	1.284372	0.248395	0.499996
C75	C	0.782820	-0.345752	-0.000001
C76	C	1.282820	0.154248	0.499999
C77	C	1.000988	-0.127185	-0.000006
C78	C	1.500988	0.372815	0.499994
C79	C	0.858136	-0.115980	-0.000003
C80	C	1.358136	0.384020	0.499997
C81	C	1.069810	0.193863	0.000004
C82	C	1.569810	0.693863	0.500004
C83	C	1.156863	0.201912	-0.000001
C84	C	1.656863	0.701912	0.499999
C85	C	0.920905	0.354545	0.000008
C86	C	1.420905	0.854545	0.500008
C87	C	0.922561	0.454745	0.000010
C88	C	1.422561	0.954745	0.500010
N89	N	0.916145	0.201195	0.216342
N90	N	1.416145	0.701195	0.716342
N91	N	0.936762	0.179033	-0.216331
N92	N	1.436762	0.679033	0.283669
C93	C	0.967327	0.146008	0.260035
C94	C	1.467327	0.646008	0.760035
C95	C	0.963175	0.150489	0.347442
C96	C	1.463175	0.650489	0.847442
C97	C	0.907845	0.210163	0.391154
C98	C	1.407845	0.710163	0.891154
C99	C	0.856657	0.265353	0.347455
C100	C	1.356657	0.765353	0.847455
C101	C	0.860806	0.260866	0.260050
C102	C	1.360806	0.760866	0.760050
C103	C	0.889723	0.229736	0.652564
C104	C	1.389723	0.729736	1.152564
C105	C	0.885580	0.234220	0.739976
C106	C	1.385580	0.734220	1.239976
C107	C	0.992097	0.119355	0.739956
C108	C	1.492097	0.619355	1.239956
C109	C	0.996244	0.114878	0.652549
C110	C	1.496244	0.614878	1.152549
C111	C	0.945054	0.170064	0.608858
C112	C	1.445054	0.670064	1.108858
N113	N	0.903601	0.214748	0.480498
N114	N	1.403601	0.714748	0.980498
N115	N	0.949294	0.165474	0.519516
N116	N	1.449294	0.665474	1.019516
H117	H	0.705249	0.029827	0.000002
H118	H	1.205249	0.529827	0.500002
C119	C	1.146230	-0.426103	0.000016
C120	C	1.646230	0.073897	0.500016
N121	N	1.204761	-0.469753	0.000021
N122	N	1.704761	0.030247	0.500021
C123	C	1.080412	-0.081568	-0.000002
C124	C	1.580412	0.418432	0.499998
N125	N	1.140238	-0.047211	-0.000001
N126	N	1.640238	0.452789	0.499999
C127	C	1.019461	0.089756	0.395500
C128	C	1.519461	0.589756	0.895500
N129	N	1.061850	0.043999	0.431697
N130	N	1.561850	0.543999	0.931697
C131	C	0.706663	-0.193652	-0.000005
C132	C	1.206663	0.306348	0.499995
N133	N	0.648134	-0.149997	-0.000008
N134	N	1.148134	0.350003	0.499992
C135	C	0.703398	-0.391379	0.000013
C136	C	1.203398	0.108621	0.500013
N137	N	0.643577	-0.425749	0.000031
N138	N	1.143577	0.074251	0.500031
C139	C	0.547814	-0.008270	0.000021
C140	C	1.047814	0.491730	0.500021
N141	N	0.521607	-0.078904	0.000040
N142	N	1.021607	0.421096	0.500040
H143	H	0.811602	0.313938	0.383051
H144	H	1.311602	0.813938	0.883051
H145	H	1.052281	-0.546669	0.000017
H146	H	1.552281	-0.046669	0.500017
C147	C	0.343984	0.046358	0.000006
C148	C	0.843984	0.546358	0.500006
N149	N	0.385538	-0.018006	0.000008
N150	N	0.885538	0.481994	0.500008
H151	H	0.671635	0.325419	0.000013
H152	H	1.171635	0.825419	0.500013
H153	H	0.147656	0.350415	0.000007
H154	H	0.647656	0.850415	0.500007
C155	C	0.772488	-0.538201	0.000013
C156	C	1.272488	-0.038201	0.500013
N157	N	0.712663	-0.572563	0.000020
N158	N	1.212663	-0.072563	0.500020
C159	C	1.057108	0.049227	0.604472
C160	C	1.557108	0.549227	1.104472
N161	N	1.102951	-0.000222	0.568261
N162	N	1.602951	0.499778	1.068261
H163	H	0.523254	0.311686	0.000007
H164	H	1.023254	0.811686	0.500007
C165	C	1.048396	0.058647	0.788024
C166	C	1.548396	0.558647	1.288024
N167	N	1.090800	0.012916	0.824229
N168	N	1.590800	0.512916	1.324229
H169	H	0.840521	0.282818	0.775562
H170	H	1.340521	0.782818	1.275562
C171	C	0.305089	0.388507	0.000005
C172	C	0.805089	0.888507	0.500005
N173	N	0.331302	0.459138	0.000002
N174	N	0.831302	0.959138	0.500002
C175	C	1.149513	-0.228396	0.000002
C176	C	1.649513	0.271604	0.500002
N177	N	1.209341	-0.194041	-0.000003
N178	N	1.709341	0.305959	0.499997
C179	C	1.028194	0.080361	0.211960
C180	C	1.528194	0.580361	0.711960
N181	N	1.074039	0.030910	0.175752
N182	N	1.574039	0.530910	0.675752
C183	C	0.833514	0.290567	0.604515
C184	C	1.333514	0.790567	1.104515
N185	N	0.791211	0.336433	0.568321
N186	N	1.291211	0.836433	1.068321
H187	H	0.181269	0.054820	-0.000003
H188	H	0.681269	0.554820	0.499997
H189	H	0.800605	-0.073098	-0.000008
H190	H	1.300605	0.426902	0.499992
C191	C	0.804508	0.321584	0.211988
C192	C	1.304508	0.821584	0.711988
N193	N	0.762103	0.367320	0.175789
N194	N	1.262103	0.867320	0.675789
