data_functionalizedCrystal
_audit_creation_method	'MofGen! by Chris Wilmer'
_symmetry_space_group_name_H-M	'P1'
_symmetry_Int_Tables_number	1
_symmetry_cell_setting	triclinic
loop_
_symmetry_equiv_pos_as_xyz
  x,y,z
_cell_length_a	18.050582
_cell_length_b	18.050591
_cell_length_c	18.050589
_cell_angle_alpha	90.024227
_cell_angle_beta	90.018205
_cell_angle_gamma	90.020922
loop_
_atom_site_label
_atom_site_type_symbol
_atom_site_fract_x
_atom_site_fract_y
_atom_site_fract_z
Zn1	Zn	-0.420054	-1.135293	0.295786
Zn2	Zn	-0.295873	-1.135203	0.419969
Zn3	Zn	-0.295865	-1.011112	0.295789
Zn4	Zn	-0.420009	-1.011060	0.419930
O5	O	-0.357950	-1.073167	0.357868
O6	O	-0.403603	-1.239205	0.312274
O7	O	-0.191948	-1.118727	0.403514
O8	O	-0.312354	-1.027644	0.191864
O9	O	-0.312369	-1.239140	0.403511
O10	O	-0.403595	-1.118879	0.191862
O11	O	-0.191942	-1.027557	0.312279
O12	O	-0.312311	-0.907180	0.312241
O13	O	-0.523940	-1.027555	0.403444
O14	O	-0.403519	-0.907142	0.403447
O15	O	-0.523973	-1.118828	0.312236
O16	O	-0.312325	-1.118676	0.523888
O17	O	-0.403527	-1.027468	0.523860
C18	C	-0.357909	-0.880215	0.357841
C19	C	-0.357909	-0.797669	0.357847
C20	C	-0.357938	-1.073077	0.550820
C21	C	-0.357958	-1.073107	0.633366
C22	C	-0.551656	-1.073196	0.357835
C23	C	-0.634202	-1.073208	0.357821
C24	C	-0.833635	-1.023612	0.407353
C25	C	-0.883034	-1.091367	0.425511
C26	C	-0.785332	-1.073245	0.357765
C27	C	-0.883014	-1.005527	0.339586
C28	C	-0.931317	-1.073274	0.357711
C29	C	-0.833645	-1.141036	0.375958
C30	C	-0.833620	-1.055150	0.290002
C31	C	-0.882998	-1.122952	0.308134
C32	C	-0.701234	-1.073227	0.357797
C33	C	-1.015414	-1.073300	0.357679
C34	C	-0.164998	-1.073181	0.357848
C35	C	-0.082453	-1.073312	0.357652
C36	C	-0.357992	-1.266872	0.357897
C37	C	-0.358010	-1.349418	0.357909
C38	C	-0.308425	-0.598217	0.308191
C39	C	-0.290154	-0.548798	0.375927
C40	C	-0.357943	-0.646539	0.357869
C41	C	-0.376212	-0.548877	0.290157
C42	C	-0.357974	-0.500553	0.357885
C43	C	-0.339637	-0.598206	0.425641
C44	C	-0.425726	-0.598289	0.339825
C45	C	-0.407481	-0.548892	0.407607
C46	C	-0.357923	-0.730637	0.357859
C47	C	-0.357994	-0.416457	0.357903
C48	C	-0.357979	-1.073277	0.164163
C49	C	-0.357991	-1.073324	0.081617
C50	C	-0.407536	-1.023557	0.832828
C51	C	-0.339767	-1.005459	0.882261
C52	C	-0.357967	-1.073180	0.784497
C53	C	-0.425744	-1.091314	0.882146
C54	C	-0.357983	-1.073249	0.930482
C55	C	-0.290162	-1.055046	0.832842
C56	C	-0.376186	-1.140933	0.832722
C57	C	-0.308370	-1.122861	0.882133
C58	C	-0.357959	-1.073138	0.700398
C59	C	-0.357983	-1.073291	1.014578
H60	H	-0.904739	-1.106690	0.482794
H61	H	-0.811899	-1.039807	0.232736
H62	H	-0.449370	-0.527370	0.449673
H63	H	-0.391625	-0.527169	0.232894
H64	H	-0.232844	-0.527060	0.391202
C65	C	-0.464084	-0.966787	0.803571
C66	C	-0.455600	-0.884178	0.823162
C67	C	-0.512143	-0.827407	0.793902
C68	C	-0.577169	-0.853246	0.745052
C69	C	-0.585656	-0.935860	0.725459
C70	C	-0.529113	-0.992630	0.754718
H71	H	-0.407461	-0.865046	0.859326
H72	H	-0.505860	-0.766251	0.808407
H73	H	-0.619026	-0.811221	0.723393
H74	H	-0.633795	-0.954991	0.689295
H75	H	-0.535396	-1.053787	0.740213
H76	H	-0.483019	-0.620045	0.324530
H77	H	-0.324134	-0.619785	0.482928
H78	H	-0.324371	-0.948195	0.904037
H79	H	-0.904535	-1.164986	0.266177
C80	C	-0.804345	-0.966963	0.464073
C81	C	-0.824922	-0.884521	0.456564
C82	C	-0.795630	-0.827878	0.513285
C83	C	-0.745762	-0.853676	0.577514
C84	C	-0.725182	-0.936122	0.585026
C85	C	-0.754474	-0.992766	0.528305
H86	H	-0.861840	-0.865420	0.409015
H87	H	-0.810865	-0.766845	0.507724
H88	H	-0.724078	-0.811745	0.619503
H89	H	-0.688264	-0.955223	0.632574
H90	H	-0.739239	-1.053798	0.533865
H91	H	-0.812050	-1.198333	0.391377
H92	H	-0.904701	-0.948246	0.324232
C93	C	-0.251797	-0.627486	0.251500
C94	C	-0.169162	-0.607921	0.259788
C95	C	-0.112534	-0.637191	0.203101
C96	C	-0.138539	-0.686025	0.138126
C97	C	-0.221178	-0.705592	0.129835
C98	C	-0.277806	-0.676322	0.186522
H99	H	-0.149908	-0.571769	0.307889
H100	H	-0.051359	-0.622706	0.209239
H101	H	-0.096619	-0.707692	0.096163
H102	H	-0.240432	-0.741744	0.081734
H103	H	-0.338981	-0.690808	0.180384
H104	H	-0.266409	-1.164855	0.903645
H105	H	-0.232834	-1.039669	0.811275
C106	C	-0.397025	-1.218274	0.803298
C107	C	-0.472815	-1.252311	0.822685
C108	C	-0.493665	-1.329652	0.793259
C109	C	-0.438725	-1.372956	0.744445
C110	C	-0.362930	-1.338919	0.725055
C111	C	-0.342080	-1.261578	0.754481
H112	H	-0.513490	-1.220255	0.858823
H113	H	-0.549774	-1.354848	0.807613
H114	H	-0.454159	-1.430209	0.722662
H115	H	-0.322255	-1.370976	0.688918
H116	H	-0.285971	-1.236382	0.740127
H117	H	-0.483056	-1.106625	0.903802
