data_functionalizedCrystal
_audit_creation_method	'MofGen! by Chris Wilmer'
_symmetry_space_group_name_H-M	'P1'
_symmetry_Int_Tables_number	1
_symmetry_cell_setting	triclinic
loop_
_symmetry_equiv_pos_as_xyz
  x,y,z
_cell_length_a	19.805407
_cell_length_b	11.169416
_cell_length_c	11.169409
_cell_angle_alpha	90.027704
_cell_angle_beta	89.975047
_cell_angle_gamma	89.985977
loop_
_atom_site_label
_atom_site_type_symbol
_atom_site_fract_x
_atom_site_fract_y
_atom_site_fract_z
Zn1	Zn	1.034833	0.477648	-0.678746
Zn2	Zn	1.534833	0.977648	-0.178746
Zn3	Zn	1.034768	0.678388	-0.478079
Zn4	Zn	1.534768	1.178388	0.021921
Zn5	Zn	0.921639	0.477725	-0.478062
Zn6	Zn	1.421639	0.977725	0.021938
Zn7	Zn	0.921640	0.678294	-0.678706
Zn8	Zn	1.421640	1.178294	-0.178706
O9	O	0.978220	0.578014	-0.578398
O10	O	1.478220	1.078014	-0.078398
O11	O	1.129541	0.504284	-0.652150
O12	O	1.629541	1.004284	-0.152150
O13	O	1.019733	0.651841	-0.310127
O14	O	1.519733	1.151841	0.189873
O15	O	0.936682	0.309765	-0.504693
O16	O	1.436682	0.809765	-0.004693
O17	O	1.129493	0.651767	-0.504721
O18	O	1.629493	1.151767	-0.004721
O19	O	1.019845	0.309708	-0.652134
O20	O	1.519845	0.809708	-0.152134
O21	O	0.936618	0.504415	-0.310114
O22	O	1.436618	1.004415	0.189886
O23	O	0.826923	0.504323	-0.504654
O24	O	1.326923	1.004323	-0.004654
O25	O	0.936683	0.651607	-0.846661
O26	O	1.436683	1.151607	-0.346661
O27	O	0.826923	0.651681	-0.652066
O28	O	1.326923	1.151681	-0.152066
O29	O	1.019846	0.504192	-0.846690
O30	O	1.519846	1.004192	-0.346690
O31	O	1.019734	0.846325	-0.504683
O32	O	1.519734	1.346325	-0.004683
O33	O	0.936619	0.846256	-0.652082
O34	O	1.436619	1.346256	-0.152082
C35	C	0.802364	0.578001	-0.578355
C36	C	1.302364	1.078001	-0.078355
C37	C	0.727132	0.578025	-0.578365
C38	C	1.227132	1.078025	-0.078365
C39	C	0.265370	0.501363	-0.655328
C40	C	0.765370	1.001363	-0.155328
C41	C	0.336058	0.501365	-0.655320
C42	C	0.836058	1.001365	-0.155320
C43	C	0.371370	0.578032	-0.578437
C44	C	0.871370	1.078032	-0.078437
C45	C	0.335990	0.654710	-0.501566
C46	C	0.835990	1.154710	-0.001566
C47	C	0.265303	0.654713	-0.501582
C48	C	0.765303	1.154713	-0.001582
C49	C	0.621064	0.654701	-0.501503
C50	C	1.121064	1.154701	-0.001503
C51	C	0.691756	0.654690	-0.501490
C52	C	1.191756	1.154690	-0.001490
C53	C	0.691819	0.501353	-0.655241
C54	C	1.191819	1.001353	-0.155241
C55	C	0.621131	0.501356	-0.655256
C56	C	1.121131	1.001356	-0.155256
C57	C	0.585758	0.578038	-0.578391
C58	C	1.085758	1.078038	-0.078391
C59	C	0.509109	0.578036	-0.578402
C60	C	1.009109	1.078036	-0.078402
C61	C	0.448017	0.578028	-0.578418
C62	C	0.948017	1.078028	-0.078418
C63	C	0.978188	0.889838	-0.578406
C64	C	1.478188	1.389838	-0.078406
C65	C	0.978236	1.023238	-0.578450
C66	C	1.478236	1.523238	-0.078450
C67	C	0.978272	0.577880	-0.891441
C68	C	1.478272	1.077880	-0.391441
C69	C	0.978294	0.577824	-1.024841
C70	C	1.478294	1.077824	-0.524841
C71	C	1.154763	0.578027	-0.578442
C72	C	1.654763	1.078027	-0.078442
C73	C	1.229995	0.578033	-0.578461
C74	C	1.729995	1.078033	-0.078461
C75	C	0.978266	1.264971	-0.578432
C76	C	1.478266	1.764971	-0.078432
C77	C	0.978273	1.131571	-0.578488
C78	C	1.478273	1.631571	-0.078488
C79	C	0.978207	0.578060	-0.266573
C80	C	1.478207	1.078060	0.233427
C81	C	0.978316	0.577779	-0.133174
C82	C	1.478316	1.077779	0.366826
H83	H	0.592384	0.438921	-0.717858
H84	H	1.092384	0.938921	-0.217858
H85	H	0.592271	0.717137	-0.438910
H86	H	1.092271	1.217137	0.061090
F87	F	0.373704	0.419767	-0.737138
F88	F	0.873704	0.919767	-0.237138
H89	H	0.720628	0.438918	-0.717832
H90	H	1.220628	0.938918	-0.217832
F91	F	0.227655	0.736324	-0.419777
F92	F	0.727655	1.236324	0.080223
H93	H	0.720505	0.717126	-0.438881
H94	H	1.220505	1.217126	0.061119
F95	F	0.373574	0.736311	-0.419747
F96	F	0.873574	1.236311	0.080253
H97	H	0.236624	0.438924	-0.717928
H98	H	0.736624	0.938924	-0.217928
