data_functionalizedCrystal
_audit_creation_method	'MofGen! by Chris Wilmer'
_symmetry_space_group_name_H-M	'P1'
_symmetry_Int_Tables_number	1
_symmetry_cell_setting	triclinic
loop_
_symmetry_equiv_pos_as_xyz
  x,y,z
_cell_length_a	14.853567
_cell_length_b	14.853567
_cell_length_c	13.330367
_cell_angle_alpha	90.001398
_cell_angle_beta	89.995281
_cell_angle_gamma	83.634930
loop_
_atom_site_label
_atom_site_type_symbol
_atom_site_fract_x
_atom_site_fract_y
_atom_site_fract_z
O1	O	-1.196369	-0.117701	0.083346
O2	O	-0.696369	0.382299	0.583346
O3	O	-0.933910	-0.131722	0.083362
O4	O	-0.433910	0.368278	0.583362
O5	O	-1.072150	0.006518	0.083356
O6	O	-0.572150	0.506518	0.583356
O7	O	-1.058129	-0.255941	0.083351
O8	O	-0.558129	0.244059	0.583351
O9	O	-1.072129	0.006516	-0.083491
O10	O	-0.572129	0.506516	0.416509
O11	O	-0.933889	-0.131725	-0.083485
O12	O	-0.433889	0.368275	0.416515
O13	O	-1.196348	-0.117703	-0.083501
O14	O	-0.696348	0.382297	0.416499
Cu15	Cu	-1.065117	-0.124714	-0.098728
Cu16	Cu	-0.565117	0.375286	0.401272
Cu17	Cu	-1.065141	-0.124711	0.098588
Cu18	Cu	-0.565141	0.375289	0.598588
O19	O	-1.058108	-0.255944	-0.083496
O20	O	-0.558108	0.244056	0.416504
C21	C	-1.071504	0.040106	-0.000064
C22	C	-0.571504	0.540106	0.499936
C23	C	-1.069601	0.140189	-0.000055
C24	C	-0.569601	0.640189	0.499945
C25	C	-0.900311	-0.131088	-0.000060
C26	C	-0.400311	0.368912	0.499940
C27	C	-0.800227	-0.129184	-0.000053
C28	C	-0.300227	0.370816	0.499947
C29	C	-1.229947	-0.118337	-0.000078
C30	C	-0.729947	0.381663	0.499922
C31	C	-1.330031	-0.120241	-0.000078
C32	C	-0.830031	0.379759	0.499922
C33	C	-0.387693	-0.039019	-0.000074
C34	C	0.112307	0.460981	0.499926
C35	C	-0.366412	-0.203251	-0.000076
C36	C	0.133588	0.296749	0.499924
C37	C	-0.460446	-0.205042	-0.000073
C38	C	0.039554	0.294958	0.499927
C39	C	-0.518108	-0.123819	-0.000069
C40	C	-0.018108	0.376181	0.499931
C41	C	-0.481736	-0.040806	-0.000067
C42	C	0.018264	0.459194	0.499933
C43	C	-0.496825	-0.288053	-0.000064
C44	C	0.003175	0.211947	0.499936
C45	C	-0.590864	-0.289846	-0.000059
C46	C	-0.090864	0.210154	0.499941
C47	C	-0.648528	-0.208623	-0.000062
C48	C	-0.148528	0.291377	0.499938
C49	C	-0.612150	-0.125607	-0.000062
C50	C	-0.112150	0.374393	0.499938
C51	C	-0.669812	-0.044384	-0.000058
C52	C	-0.169812	0.455616	0.499942
C53	C	-0.633437	0.038633	-0.000065
C54	C	-0.133437	0.538633	0.499935
C55	C	-0.539399	0.040417	-0.000070
C56	C	-0.039399	0.540417	0.499930
C57	C	-0.742565	-0.210407	-0.000057
C58	C	-0.242565	0.289593	0.499943
C59	C	-0.763855	-0.046172	-0.000052
C60	C	-0.263855	0.453828	0.499948
C61	C	-1.058754	-0.289531	-0.000073
C62	C	-0.558754	0.210469	0.499927
C63	C	-1.060657	-0.389615	-0.000075
C64	C	-0.560657	0.110385	0.499925
N65	N	-1.065106	-0.124716	-0.237509
N66	N	-0.565106	0.375284	0.262491
C67	C	-0.979435	0.552723	-0.000069
C68	C	-0.479435	1.052723	0.499931
C69	C	-1.143668	0.574004	-0.000079
C70	C	-0.643668	1.074004	0.499921
C71	C	-1.145458	0.479971	-0.000073
C72	C	-0.645458	0.979971	0.499927
C73	C	-1.064235	0.422309	-0.000067
C74	C	-0.564235	0.922309	0.499933
C75	C	-0.981223	0.458680	-0.000066
C76	C	-0.481223	0.958680	0.499934
C77	C	-1.228469	0.443591	-0.000084
C78	C	-0.728469	0.943591	0.499916
C79	C	-1.230262	0.349552	-0.000079
C80	C	-0.730262	0.849552	0.499921
C81	C	-1.149039	0.291889	-0.000066
C82	C	-0.649039	0.791889	0.499934
C83	C	-1.066023	0.328266	-0.000064
C84	C	-0.566023	0.828266	0.499936
C85	C	-0.984800	0.270604	-0.000058
C86	C	-0.484800	0.770604	0.499942
C87	C	-0.901783	0.306979	-0.000049
C88	C	-0.401783	0.806979	0.499951
C89	C	-0.899999	0.401017	-0.000053
C90	C	-0.399999	0.901017	0.499947
C91	C	-1.150823	0.197851	-0.000062
C92	C	-0.650823	0.697851	0.499938
C93	C	-0.986588	0.176561	-0.000055
C94	C	-0.486588	0.676561	0.499945
C95	C	-1.010365	-0.069937	-0.290030
C96	C	-0.510365	0.430063	0.209970
C97	C	-1.119857	-0.179491	-0.290017
C98	C	-0.619857	0.320509	0.209983
C99	C	-1.119868	-0.179491	-0.395035
C100	C	-0.619868	0.320509	0.104965
C101	C	-1.065127	-0.124711	-0.447556
C102	C	-0.565127	0.375289	0.052444
C103	C	-1.010376	-0.069932	-0.395058
C104	C	-0.510376	0.430068	0.104942
C105	C	-1.174624	-0.234262	-0.447541
C106	C	-0.674624	0.265738	0.052459
C107	C	-1.174638	-0.234263	-0.552566
C108	C	-0.674638	0.265737	-0.052566
C109	C	-1.119892	-0.179487	-0.605088
C110	C	-0.619892	0.320513	-0.105088
C111	C	-1.065138	-0.124707	-0.552584
C112	C	-0.565138	0.375293	-0.052584
C113	C	-1.010398	-0.069927	-0.605104
C114	C	-0.510398	0.430073	-0.105104
C115	C	-0.955638	-0.015151	-0.552602
C116	C	-0.455638	0.484849	-0.052602
C117	C	-0.955630	-0.015157	-0.447580
C118	C	-0.455630	0.484843	0.052420
C119	C	-1.119900	-0.179482	-0.710110
C120	C	-0.619900	0.320518	-0.210110
C121	C	-1.010409	-0.069923	-0.710132
C122	C	-0.510409	0.430077	-0.210132
N123	N	-1.065160	-0.124702	0.237370
N124	N	-0.565160	0.375298	0.737370
H125	H	-0.810798	0.019971	-0.000052
H126	H	-0.310798	0.519971	0.499948
H127	H	-0.319459	-0.269379	-0.000071
H128	H	0.180541	0.230621	0.499929
H129	H	-1.219198	-0.278854	-0.404771
H130	H	-0.719198	0.221146	0.095229
Cl131	Cl	-0.875076	0.598450	-0.000048
Cl132	Cl	-0.375076	1.098450	0.499952
Cl133	Cl	-1.245770	0.646493	-0.000104
Cl134	Cl	-0.745770	1.146493	0.499896
H135	H	-0.620472	-0.357443	-0.000053
H136	H	-0.120472	0.142557	0.499947
H137	H	-1.219226	-0.278866	-0.595305
H138	H	-0.719226	0.221134	-0.095305
Cl139	Cl	-1.255178	0.152125	-0.000092
Cl140	Cl	-0.755178	0.652125	0.499908
H141	H	-1.294596	0.490546	-0.000099
H142	H	-0.794596	0.990546	0.499901
Cl143	Cl	-1.334624	0.303832	-0.000074
Cl144	Cl	-0.834624	0.803832	0.499926
H145	H	-0.911072	0.029454	-0.595378
H146	H	-0.411072	0.529454	-0.095378
Cl147	Cl	-0.941524	-0.001083	-0.224030
Cl148	Cl	-0.441524	0.498917	0.275970
Cl149	Cl	-0.941582	-0.001058	-0.776149
Cl150	Cl	-0.441582	0.498942	-0.276149
H151	H	-0.680397	0.104764	-0.000055
H152	H	-0.180397	0.604764	0.499945
H153	H	-1.164488	-0.224076	-0.752853
H154	H	-0.664488	0.275924	-0.252853
Cl155	Cl	-0.799679	0.234480	-0.000049
Cl156	Cl	-0.299679	0.734480	0.499951
H157	H	-0.509774	0.108005	-0.000100
H158	H	-0.009774	0.608005	0.499900
H159	H	-0.920445	0.129618	-0.000045
H160	H	-0.420445	0.629618	0.499955
Cl161	Cl	-0.424333	-0.390154	-0.000052
Cl162	Cl	0.075667	0.109846	0.499948
Cl163	Cl	-0.341967	0.065340	-0.000088
Cl164	Cl	0.158033	0.565340	0.499912
H165	H	-0.911049	0.029440	-0.404823
H166	H	-0.411049	0.529440	0.095177
H167	H	-0.832411	0.430643	-0.000046
H168	H	-0.332411	0.930643	0.499954
Cl169	Cl	-0.788291	-0.314762	-0.000041
Cl170	Cl	-0.288291	0.185238	0.499959
Cl171	Cl	-1.188675	-0.248347	-0.223991
Cl172	Cl	-0.688675	0.251653	0.276009
