data_functionalizedCrystal
_audit_creation_method	'MofGen! by Chris Wilmer'
_symmetry_space_group_name_H-M	'P1'
_symmetry_Int_Tables_number	1
_symmetry_cell_setting	triclinic
loop_
_symmetry_equiv_pos_as_xyz
  x,y,z
_cell_length_a	14.853567
_cell_length_b	10.723024
_cell_length_c	9.798715
_cell_angle_alpha	90.001978
_cell_angle_beta	89.998674
_cell_angle_gamma	95.948600
loop_
_atom_site_label
_atom_site_type_symbol
_atom_site_fract_x
_atom_site_fract_y
_atom_site_fract_z
O1	O	1.197224	-0.162914	-0.113413
O2	O	0.934867	-0.182321	-0.113431
O3	O	1.072097	0.009020	-0.113417
O4	O	1.059994	-0.354255	-0.113427
O5	O	1.072087	0.009021	0.113566
O6	O	0.934857	-0.182320	0.113551
O7	O	1.197214	-0.162913	0.113570
Zn8	Zn	1.066034	-0.172617	0.149598
Zn9	Zn	1.066047	-0.172617	-0.149460
O10	O	1.059984	-0.354254	0.113555
C11	C	0.901269	-0.181441	0.000057
C12	C	0.801171	-0.178806	0.000050
C13	C	1.071211	0.055511	0.000073
C14	C	1.068576	0.194039	0.000068
C15	C	1.230812	-0.163793	0.000078
C16	C	1.330910	-0.166428	0.000076
C17	C	1.744103	-0.291228	0.000048
C18	C	1.764183	-0.063910	0.000056
C19	C	1.670137	-0.061433	0.000063
C20	C	1.613068	-0.173854	0.000061
C21	C	1.650047	-0.288754	0.000052
C22	C	1.633151	0.053465	0.000059
C23	C	1.539099	0.055947	0.000065
C24	C	1.482029	-0.056476	0.000073
C25	C	1.519013	-0.171380	0.000065
C26	C	1.461944	-0.283802	0.000063
C27	C	1.498926	-0.398707	0.000065
C28	C	1.592977	-0.401176	0.000060
C29	C	1.387978	-0.054006	0.000078
C30	C	1.367888	-0.281327	0.000066
C31	C	1.060870	-0.400745	0.000062
C32	C	1.063505	-0.539273	0.000058
N33	N	1.066031	-0.172616	0.353698
C34	C	1.145363	0.269798	0.000071
C35	C	1.142641	0.412974	0.000066
N36	N	1.066057	-0.172609	-0.353560
C37	C	1.123650	-0.091925	0.421481
C38	C	1.123665	-0.091921	0.578644
H39	H	1.321429	-0.372876	0.000073
H40	H	1.172967	-0.022841	0.363164
O41	O	1.189012	-0.000403	0.655840
H42	H	1.178765	-0.014755	0.767167
H43	H	1.452449	-0.490240	0.000055
H44	H	1.810654	0.027618	0.000049
O45	O	1.000713	-0.264134	0.430950
H46	H	1.012990	-0.361383	0.403587
H47	H	1.016727	-0.241699	0.588158
O48	O	1.235120	0.215328	0.000079
H49	H	1.223173	0.111420	0.000090
O50	O	1.632861	-0.525103	0.000049
H51	H	1.707848	-0.507933	0.000029
O52	O	1.783980	-0.415160	0.000047
H53	H	1.858967	-0.398002	0.000040
O54	O	0.978821	0.248516	0.000073
H55	H	0.973827	0.307133	-0.092436
O56	O	1.694697	0.174716	0.000049
H57	H	1.681452	0.229702	0.092555
H58	H	1.508996	0.149510	0.000066
H59	H	1.208376	0.478071	0.000075
O60	O	1.348088	0.069911	0.000088
H61	H	1.370956	0.123941	-0.092422
O62	O	0.976420	0.374517	0.000069
H63	H	0.936582	0.392361	-0.092441
