data_functionalizedCrystal
_audit_creation_method	'MofGen! by Chris Wilmer'
_symmetry_space_group_name_H-M	'P1'
_symmetry_Int_Tables_number	1
_symmetry_cell_setting	triclinic
loop_
_symmetry_equiv_pos_as_xyz
  x,y,z
_cell_length_a	15.297475
_cell_length_b	18.101395
_cell_length_c	15.297738
_cell_angle_alpha	99.656977
_cell_angle_beta	72.640597
_cell_angle_gamma	80.333681
loop_
_atom_site_label
_atom_site_type_symbol
_atom_site_fract_x
_atom_site_fract_y
_atom_site_fract_z
Zn1	Zn	1.512565	-0.619639	-0.771407
Zn2	Zn	2.012565	-0.119639	-0.271407
Zn3	Zn	1.485536	-0.717544	-0.615881
Zn4	Zn	1.985536	-0.217544	-0.115881
Zn5	Zn	1.330161	-0.567803	-0.589052
Zn6	Zn	1.830161	-0.067803	-0.089052
Zn7	Zn	1.356987	-0.717482	-0.744483
Zn8	Zn	1.856987	-0.217482	-0.244483
O9	O	1.421312	-0.655617	-0.680206
O10	O	1.921312	-0.155617	-0.180206
O11	O	1.639115	-0.654346	-0.773272
O12	O	2.139115	-0.154346	-0.273272
O13	O	1.442387	-0.676013	-0.482186
O14	O	1.942387	-0.176013	0.017814
O15	O	1.354442	-0.471064	-0.613281
O16	O	1.854442	0.028936	-0.113281
O17	O	1.619257	-0.726276	-0.659008
O18	O	2.119257	-0.226276	-0.159008
O19	O	1.488454	-0.509147	-0.747256
O20	O	1.988454	-0.009147	-0.247256
O21	O	1.328234	-0.565998	-0.462474
O22	O	1.828234	-0.065998	0.037526
O23	O	1.203585	-0.565938	-0.587174
O24	O	1.703585	-0.065938	-0.087174
O25	O	1.400163	-0.726171	-0.878191
O26	O	1.900163	-0.226171	-0.378191
O27	O	1.223293	-0.675907	-0.701369
O28	O	1.723293	-0.175907	-0.201369
O29	O	1.514466	-0.654286	-0.897972
O30	O	2.014466	-0.154286	-0.397972
O31	O	1.468399	-0.821151	-0.632901
O32	O	1.968399	-0.321151	-0.132901
O33	O	1.373954	-0.821106	-0.727384
O34	O	1.873954	-0.321106	-0.227384
C35	C	1.179696	-0.615292	-0.638439
C36	C	1.679696	-0.115292	-0.138439
C37	C	1.076336	-0.598062	-0.620594
C38	C	1.576336	-0.098062	-0.120594
C39	C	0.826063	-0.778766	-0.807754
C40	C	1.326063	-0.278766	-0.307754
C41	C	0.923175	-0.794960	-0.824518
C42	C	1.423175	-0.294960	-0.324518
C43	C	0.961470	-0.745737	-0.773539
C44	C	1.461470	-0.245737	-0.273539
C45	C	0.902644	-0.680318	-0.705792
C46	C	1.402644	-0.180318	-0.205792
C47	C	0.805521	-0.664126	-0.689021
C48	C	1.305521	-0.164126	-0.189021
C49	C	0.940928	-0.631096	-0.654805
C50	C	1.440928	-0.131096	-0.154805
C51	C	0.882102	-0.565677	-0.587058
C52	C	1.382102	-0.065677	-0.087058
C53	C	0.784989	-0.549488	-0.570291
C54	C	1.284989	-0.049488	-0.070291
C55	C	0.746694	-0.598711	-0.621270
C56	C	1.246694	-0.098711	-0.121270
C57	C	1.038051	-0.647288	-0.671577
C58	C	1.538051	-0.147288	-0.171577
C59	C	1.017509	-0.532647	-0.552843
C60	C	1.517509	-0.032647	-0.052843
C61	C	0.920397	-0.516454	-0.536079
C62	C	1.420397	-0.016454	-0.036079
C63	C	1.421183	-0.848002	-0.680157
C64	C	1.921183	-0.348002	-0.180157
C65	C	1.421218	-0.930325	-0.680182
C66	C	1.921218	-0.430325	-0.180182
C67	C	1.421431	-1.229458	-0.680267
C68	C	1.921431	-0.729458	-0.180267
C69	C	1.362207	-1.198193	-0.739920
C70	C	1.862207	-0.698193	-0.239920
C71	C	1.361827	-1.112480	-0.739636
C72	C	1.861827	-0.612480	-0.239636
C73	C	1.421326	-1.081055	-0.680225
C74	C	1.921326	-0.581055	-0.180225
C75	C	1.377841	-1.091443	-0.577635
C76	C	1.877841	-0.591443	-0.077635
C77	C	1.377453	-1.177083	-0.577987
C78	C	1.877453	-0.677083	-0.077987
C79	C	1.524148	-1.218398	-0.722368
C80	C	2.024148	-0.718398	-0.222368
C81	C	1.523941	-1.133009	-0.724417
C82	C	2.023941	-0.633009	-0.224417
C83	C	1.421267	-0.997183	-0.680196
C84	C	1.921267	-0.497183	-0.180196
C85	C	1.421487	-1.313329	-0.680289
C86	C	1.921487	-0.813329	-0.180289
C87	C	1.663872	-0.696100	-0.722136
C88	C	2.163872	-0.196100	-0.222136
C89	C	1.767236	-0.713352	-0.740004
C90	C	2.267236	-0.213352	-0.240004
C91	C	1.463322	-0.696004	-0.922768
C92	C	1.963322	-0.196004	-0.422768
C93	C	1.481223	-0.713214	-1.026133
C94	C	1.981223	-0.213214	-0.526133
C95	C	1.421471	-0.462488	-0.680279
C96	C	1.921471	0.037512	-0.180279
C97	C	1.421538	-0.380188	-0.680311
C98	C	1.921538	0.119812	-0.180311
C99	C	1.549067	-0.778579	-1.084958
C100	C	2.049067	-0.278579	-0.584958
C101	C	1.565892	-0.794744	-1.182076
C102	C	2.065892	-0.294744	-0.682076
C103	C	1.514870	-0.745548	-1.220378
C104	C	2.014870	-0.245548	-0.720378
C105	C	1.447020	-0.680184	-1.161551
C106	C	1.947020	-0.180184	-0.661551
C107	C	1.430199	-0.664015	-1.064425
C108	C	1.930199	-0.164015	-0.564425
C109	C	1.396002	-0.630984	-1.199844
C110	C	1.896002	-0.130984	-0.699844
C111	C	1.328152	-0.565620	-1.141018
C112	C	1.828152	-0.065620	-0.641018
C113	C	1.311333	-0.549454	-1.043901
C114	C	1.811333	-0.049454	-0.543901
C115	C	1.362355	-0.598650	-1.005600
C116	C	1.862355	-0.098650	-0.505600
C117	C	1.412823	-0.647153	-1.296971
C118	C	1.912823	-0.147153	-0.796971
C119	C	1.293955	-0.532589	-1.276438
C120	C	1.793955	-0.032589	-0.776438
C121	C	1.277130	-0.516424	-1.179320
C122	C	1.777130	-0.016424	-0.679320
C123	C	1.379520	-0.615343	-0.438597
C124	C	1.879520	-0.115343	0.061403
C125	C	1.361799	-0.597954	-0.335263
C126	C	1.861799	-0.097954	0.164737
H127	H	1.085938	-0.700552	-0.726738
H128	H	1.585938	-0.200552	-0.226738
Cl129	Cl	1.065643	-0.470766	-0.488746
Cl130	Cl	1.565643	0.029234	0.011254
Cl131	Cl	1.229813	-0.470737	-1.324581
Cl132	Cl	1.729813	0.029263	-0.824581
Cl133	Cl	1.341211	-0.578328	-0.883505
Cl134	Cl	1.841211	-0.078328	-0.383505
Cl135	Cl	1.083556	-0.766093	-0.794619
Cl136	Cl	1.583556	-0.266093	-0.294619
Cl137	Cl	0.846433	-0.434216	-0.450914
Cl138	Cl	1.346433	0.065784	0.049086
H139	H	1.560489	-1.255691	-0.796795
H140	H	2.060489	-0.755691	-0.296795
H141	H	1.417800	-1.196881	-0.531112
H142	H	1.917800	-0.696881	-0.031112
H143	H	1.256091	-0.496226	-0.996008
H144	H	1.756091	0.003774	-0.496008
Cl145	Cl	0.624607	-0.578353	-0.600203
Cl146	Cl	1.124607	-0.078353	-0.100203
Cl147	Cl	1.651179	-0.876915	-1.256020
Cl148	Cl	2.151179	-0.376915	-0.756020
Cl149	Cl	1.245933	-1.208647	-0.695259
Cl150	Cl	1.745933	-0.708647	-0.195259
H151	H	0.971065	-0.848225	-0.879676
H152	H	1.471065	-0.348225	-0.379676
H153	H	1.418873	-1.070318	-0.531235
H154	H	1.918873	-0.570318	-0.031235
H155	H	0.794873	-0.818840	-0.849249
H156	H	1.294873	-0.318840	-0.349249
Cl157	Cl	1.536020	-0.765873	-1.342470
Cl158	Cl	2.036020	-0.265873	-0.842470
Cl159	Cl	0.711037	-0.467252	-0.485115
Cl160	Cl	1.211037	0.032748	0.014885
H161	H	1.390997	-1.106299	-0.815175
H162	H	1.890997	-0.606299	-0.315175
Cl163	Cl	1.597779	-1.101912	-0.664321
Cl164	Cl	2.097779	-0.601912	-0.164321
Cl165	Cl	1.407044	-1.252915	-0.856868
Cl166	Cl	1.907044	-0.752915	-0.356868
H167	H	1.221886	-0.463204	-1.131410
H168	H	1.721886	0.036796	-0.631410
H169	H	1.286033	-1.077121	-0.710409
H170	H	1.786033	-0.577121	-0.210409
Cl171	Cl	1.262207	-1.034536	-0.525233
Cl172	Cl	1.762207	-0.534536	-0.025233
Cl173	Cl	1.592602	-1.249934	-0.655624
Cl174	Cl	2.092602	-0.749934	-0.155624
Cl175	Cl	1.498117	-0.729322	-1.370911
Cl176	Cl	1.998117	-0.229322	-0.870911
H177	H	1.590607	-0.818624	-1.053764
H178	H	2.090607	-0.318624	-0.553764
H179	H	1.301864	-1.181584	-0.544296
H180	H	1.801864	-0.681584	-0.044296
Cl181	Cl	1.574099	-1.125288	-0.841114
Cl182	Cl	2.074099	-0.625288	-0.341114
