data_functionalizedCrystal
_audit_creation_method	'MofGen! by Chris Wilmer'
_symmetry_space_group_name_H-M	'P1'
_symmetry_Int_Tables_number	1
_symmetry_cell_setting	triclinic
loop_
_symmetry_equiv_pos_as_xyz
  x,y,z
_cell_length_a	12.759401
_cell_length_b	21.295417
_cell_length_c	12.759393
_cell_angle_alpha	89.960780
_cell_angle_beta	89.980163
_cell_angle_gamma	90.032032
loop_
_atom_site_label
_atom_site_type_symbol
_atom_site_fract_x
_atom_site_fract_y
_atom_site_fract_z
Zn1	Zn	1.606140	-0.250546	-0.593965
Zn2	Zn	1.939473	0.082787	-0.260631
Zn3	Zn	2.272806	0.416121	0.072702
Zn4	Zn	1.605986	-0.355830	-0.418261
Zn5	Zn	1.939319	-0.022497	-0.084928
Zn6	Zn	2.272652	0.310836	0.248405
Zn7	Zn	1.430442	-0.250582	-0.418300
Zn8	Zn	1.763775	0.082752	-0.084966
Zn9	Zn	2.097108	0.416085	0.248367
Zn10	Zn	1.430382	-0.355784	-0.593899
Zn11	Zn	1.763715	-0.022451	-0.260565
Zn12	Zn	2.097048	0.310882	0.072768
O13	O	1.518237	-0.303186	-0.506106
O14	O	1.851570	0.030148	-0.172773
O15	O	2.184904	0.363481	0.160561
O16	O	1.753140	-0.264517	-0.570669
O17	O	2.086473	0.068817	-0.237335
O18	O	2.419807	0.402150	0.095998
O19	O	1.582660	-0.341903	-0.271245
O20	O	1.915993	-0.008570	0.062088
O21	O	2.249327	0.324764	0.395421
O22	O	1.453838	-0.162488	-0.441646
O23	O	1.787171	0.170846	-0.108312
O24	O	2.120505	0.504179	0.225021
O25	O	1.753027	-0.341869	-0.441580
O26	O	2.086360	-0.008535	-0.108247
O27	O	2.419694	0.324798	0.225086
O28	O	1.582922	-0.162461	-0.570706
O29	O	1.916256	0.170872	-0.237373
O30	O	2.249589	0.504205	0.095961
O31	O	1.453689	-0.264577	-0.271274
O32	O	1.787022	0.068756	0.062060
O33	O	2.120355	0.402089	0.395393
O34	O	1.283413	-0.264533	-0.441582
O35	O	1.616746	0.068801	-0.108248
O36	O	1.950079	0.402134	0.225085
O37	O	1.453736	-0.341790	-0.740929
O38	O	1.787069	-0.008457	-0.407595
O39	O	2.120402	0.324877	-0.074262
O40	O	1.283369	-0.341825	-0.570594
O41	O	1.616702	-0.008491	-0.237260
O42	O	1.950035	0.324842	0.096073
O43	O	1.582864	-0.264472	-0.740977
O44	O	1.916198	0.068861	-0.407644
O45	O	2.249531	0.402195	-0.074310
O46	O	1.582602	-0.443914	-0.441516
O47	O	1.915935	-0.110580	-0.108183
O48	O	2.249268	0.222753	0.225150
O49	O	1.453586	-0.443880	-0.570556
O50	O	1.786920	-0.110546	-0.237223
O51	O	2.120253	0.222787	0.096110
C52	C	1.245270	-0.303178	-0.506085
C53	C	1.578603	0.030155	-0.172752
C54	C	1.911936	0.363489	0.160581
C55	C	1.128493	-0.303190	-0.506101
C56	C	1.461826	0.030144	-0.172768
C57	C	1.795160	0.363477	0.160565
C58	C	1.073636	-0.343497	-0.573172
C59	C	1.406969	-0.010164	-0.239839
C60	C	1.740302	0.323170	0.093495
C61	C	0.963912	-0.343499	-0.573193
C62	C	1.297245	-0.010166	-0.239859
C63	C	1.630578	0.323167	0.093474
C64	C	0.963912	-0.262886	-0.439063
C65	C	1.297245	0.070448	-0.105730
C66	C	1.630579	0.403781	0.227603
C67	C	1.073634	-0.262881	-0.439048
C68	C	1.406967	0.070453	-0.105715
C69	C	1.740301	0.403786	0.227618
C70	C	1.518099	-0.466737	-0.506048
C71	C	1.851433	-0.133404	-0.172715
C72	C	2.184766	0.199929	0.160619
C73	C	1.518137	-0.536705	-0.506058
C74	C	1.851470	-0.203372	-0.172725
C75	C	2.184803	0.129961	0.160608
C76	C	1.585375	-0.569569	-0.438936
C77	C	1.918708	-0.236235	-0.105603
C78	C	2.252041	0.097098	0.227731
C79	C	1.585424	-0.635311	-0.438960
C80	C	1.918757	-0.301978	-0.105626
C81	C	2.252091	0.031355	0.227707
C82	C	1.518216	-0.668188	-0.506094
C83	C	1.851550	-0.334855	-0.172761
C84	C	2.184883	-0.001521	0.160572
C85	C	1.450974	-0.635317	-0.573230
C86	C	1.784307	-0.301983	-0.239896
C87	C	2.117640	0.031350	0.093437
C88	C	1.450934	-0.569575	-0.573212
C89	C	1.784267	-0.236242	-0.239878
C90	C	2.117600	0.097091	0.093455
N91	N	1.426309	-0.771454	-0.514097
N92	N	1.759642	-0.438121	-0.180763
N93	N	2.092976	-0.104788	0.152570
N94	N	1.426350	-0.833906	-0.514108
N95	N	1.759683	-0.500573	-0.180775
N96	N	2.093017	-0.167239	0.152559
C97	C	1.518334	-0.866262	-0.506155
C98	C	1.851667	-0.532929	-0.172821
C99	C	2.185001	-0.199596	0.160512
N100	N	1.610278	-0.833808	-0.498169
N101	N	1.943611	-0.500475	-0.164836
N102	N	2.276944	-0.167142	0.168497
N103	N	1.610236	-0.771351	-0.498153
N104	N	1.943569	-0.438018	-0.164820
N105	N	2.276902	-0.104685	0.168514
C106	C	1.518253	-0.739473	-0.506122
C107	C	1.851586	-0.406140	-0.172789
C108	C	2.184919	-0.072807	0.160545
C109	C	1.585631	-0.970411	-0.439054
C110	C	1.918964	-0.637078	-0.105721
C111	C	2.252298	-0.303745	0.227612
C112	C	1.585682	-1.036155	-0.439085
C113	C	1.919015	-0.702822	-0.105752
C114	C	2.252349	-0.369488	0.227581
C115	C	1.451222	-1.036159	-0.573350
C116	C	1.784556	-0.702826	-0.240017
C117	C	2.117889	-0.369492	0.093317
C118	C	1.451181	-0.970417	-0.573325
C119	C	1.784514	-0.637083	-0.239991
C120	C	2.117848	-0.303750	0.093342
C121	C	1.518384	-0.937547	-0.506171
C122	C	1.851717	-0.604213	-0.172838
C123	C	2.185050	-0.270880	0.160496
C124	C	1.792270	-0.303194	-0.506128
C125	C	2.125604	0.030140	-0.172794
C126	C	2.458937	0.363473	0.160539
C127	C	1.909047	-0.303197	-0.506137
C128	C	2.242380	0.030136	-0.172804
C129	C	2.575714	0.363469	0.160530
C130	C	1.518311	-0.303122	-0.780140
C131	C	1.851644	0.030211	-0.446806
C132	C	2.184977	0.363545	-0.113473
C133	C	1.518342	-0.303095	-0.896916
C134	C	1.851675	0.030239	-0.563583
C135	C	2.185008	0.363572	-0.230250
C136	C	1.518404	-0.138995	-0.506188
C137	C	1.851737	0.194338	-0.172854
C138	C	2.185071	0.527671	0.160479
C139	C	1.518475	-0.069027	-0.506222
C140	C	1.851808	0.264306	-0.172889
C141	C	2.185142	0.597639	0.160444
C142	C	1.451211	-0.262824	-0.951793
C143	C	1.784544	0.070509	-0.618459
C144	C	2.117877	0.403843	-0.285126
C145	C	1.451235	-0.262805	-1.061517
C146	C	1.784568	0.070529	-0.728183
C147	C	2.117902	0.403862	-0.394850
C148	C	1.585531	-0.343329	-1.061479
C149	C	1.918864	-0.009995	-0.728145
C150	C	2.252198	0.323338	-0.394812
C151	C	1.585500	-0.343351	-0.951757
C152	C	1.918834	-0.010017	-0.618423
C153	C	2.252167	0.323316	-0.285090
C154	C	1.518225	-0.303204	-0.233139
C155	C	1.851558	0.030130	0.100195
C156	C	2.184891	0.363463	0.433528
C157	C	1.518397	-0.303053	-0.116363
C158	C	1.851730	0.030280	0.216971
C159	C	2.185064	0.363613	0.550304
H160	H	1.118299	-0.376318	-0.627773
H161	H	1.451632	-0.042984	-0.294440
H162	H	1.784965	0.290349	0.038893
Br163	Br	1.676671	-0.397959	-1.135911
Br164	Br	2.010004	-0.064625	-0.802578
Br165	Br	2.343338	0.268708	-0.469245
Br166	Br	1.359771	-0.679933	-0.664350
Br167	Br	1.693104	-0.346600	-0.331017
Br168	Br	2.026437	-0.013266	0.002316
Br169	Br	1.360065	-0.208193	-0.877369
Br170	Br	1.693398	0.125141	-0.544036
Br171	Br	2.026732	0.458474	-0.210703
H172	H	1.640181	-0.662074	-0.384301
H173	H	1.973514	-0.328740	-0.050968
H174	H	2.306847	0.004593	0.282366
Br175	Br	1.360106	-0.208160	-1.135988
Br176	Br	1.693439	0.125174	-0.802655
Br177	Br	2.026773	0.458507	-0.469321
H178	H	1.118300	-0.230054	-0.384431
H179	H	1.451634	0.103280	-0.051098
H180	H	1.784967	0.436613	0.282235
H181	H	1.640098	-0.542808	-0.384258
H182	H	1.973431	-0.209475	-0.050925
H183	H	2.306764	0.123859	0.282408
Br184	Br	1.359676	-0.524972	-0.664315
Br185	Br	1.693010	-0.191638	-0.330981
Br186	Br	2.026343	0.141695	0.002352
H187	H	1.640169	-0.376147	-0.907075
H188	H	1.973503	-0.042813	-0.573742
H189	H	2.306836	0.290520	-0.240409
H190	H	0.919252	-0.376320	-0.627810
H191	H	1.252585	-0.042987	-0.294477
H192	H	1.585918	0.290346	0.038857
Br193	Br	1.676829	-0.925798	-0.347917
Br194	Br	2.010162	-0.592465	-0.014584
Br195	Br	2.343495	-0.259132	0.318750
H196	H	1.640442	-1.062911	-0.384429
H197	H	1.973775	-0.729578	-0.051095
H198	H	2.307109	-0.396245	0.282238
Br199	Br	0.889454	-0.208183	-0.348067
Br200	Br	1.222788	0.125150	-0.014734
Br201	Br	1.556121	0.458483	0.318599
Br202	Br	1.360021	-1.080770	-0.664474
Br203	Br	1.693354	-0.747437	-0.331141
Br204	Br	2.026688	-0.414104	0.002192
H205	H	1.396425	-0.943658	-0.627977
H206	H	1.729758	-0.610324	-0.294644
H207	H	2.063092	-0.276991	0.038689
