data_functionalizedCrystal
_audit_creation_method	'MofGen! by Chris Wilmer'
_symmetry_space_group_name_H-M	'P1'
_symmetry_Int_Tables_number	1
_symmetry_cell_setting	triclinic
loop_
_symmetry_equiv_pos_as_xyz
  x,y,z
_cell_length_a	10.723023
_cell_length_b	10.540510
_cell_length_c	9.198806
_cell_angle_alpha	89.999296
_cell_angle_beta	89.996513
_cell_angle_gamma	84.490429
loop_
_atom_site_label
_atom_site_type_symbol
_atom_site_fract_x
_atom_site_fract_y
_atom_site_fract_z
O1	O	1.657258	0.178044	-0.120869
O2	O	1.294112	0.195087	-0.120874
O3	O	1.483989	0.001852	-0.120871
O4	O	1.467381	0.371279	-0.120872
O5	O	1.483974	0.001852	0.120914
O6	O	1.294097	0.195087	0.120911
O7	O	1.657243	0.178043	0.120916
Cu8	Cu	1.475669	0.186565	0.142990
Cu9	Cu	1.475687	0.186565	-0.142949
O10	O	1.467366	0.371278	0.120913
C11	C	1.247605	0.193847	0.000017
C12	C	1.109049	0.190137	0.000015
C13	C	1.047268	0.188482	0.125266
C14	C	0.904064	0.184647	0.125266
C15	C	1.482744	-0.045451	0.000019
C16	C	1.479041	-0.186399	0.000010
C17	C	1.610948	-0.403923	0.000565
C18	C	1.614898	-0.257329	0.000013
C19	C	1.409504	-0.231121	-0.138059
C20	C	1.406517	-0.377881	-0.138168
C21	C	1.403670	-0.377689	0.136787
C22	C	1.410114	-0.231351	0.138605
C23	C	1.703751	0.179283	0.000021
C24	C	1.842306	0.182994	0.000014
C25	C	1.468611	0.418581	0.000020
C26	C	1.472314	0.559529	0.000019
N27	N	1.475665	0.186564	0.344104
N28	N	1.475700	0.186557	-0.344062
C29	C	1.555389	0.105072	0.416303
C30	C	1.555408	0.105068	0.583715
H31	H	0.850933	0.183232	0.232498
H32	H	1.623626	0.035302	0.354178
H33	H	0.895427	0.184424	-0.107223
H34	H	1.623668	0.035304	0.645802
F35	F	1.116702	0.190338	0.265430
H36	H	1.055923	0.188711	-0.107216
F37	F	1.472641	-0.190829	-0.272363
H38	H	1.663578	-0.447455	-0.097889
F39	F	1.459717	-0.433268	0.273574
H40	H	1.460712	-0.202765	0.240747
F41	F	1.685989	-0.219004	0.129394
F42	F	1.680126	-0.458795	0.129989
H43	H	1.310928	-0.182233	0.146941
H44	H	1.669635	-0.228952	-0.099129
F45	F	1.468654	-0.430482	-0.273062
F46	F	1.386485	0.277762	0.574797
F47	F	1.273706	-0.407873	-0.146368
H48	H	1.309489	-0.183681	-0.143195
F49	F	1.386461	0.277748	0.425303
H50	H	1.301668	-0.399786	0.137716
