data_functionalizedCrystal
_audit_creation_method	'MofGen! by Chris Wilmer'
_symmetry_space_group_name_H-M	'P1'
_symmetry_Int_Tables_number	1
_symmetry_cell_setting	triclinic
loop_
_symmetry_equiv_pos_as_xyz
  x,y,z
_cell_length_a	10.654550
_cell_length_b	9.065218
_cell_length_c	9.130313
_cell_angle_alpha	90.000552
_cell_angle_beta	89.996220
_cell_angle_gamma	84.750394
loop_
_atom_site_label
_atom_site_type_symbol
_atom_site_fract_x
_atom_site_fract_y
_atom_site_fract_z
O1	O	1.668655	0.207228	-0.121914
O2	O	1.303255	0.226972	-0.121889
O3	O	1.493507	0.002416	-0.121899
O4	O	1.478402	0.431784	-0.121904
O5	O	1.493505	0.002422	0.121700
O6	O	1.303252	0.226978	0.121709
O7	O	1.668653	0.207234	0.121685
Cu8	Cu	1.485952	0.217107	0.143940
Cu9	Cu	1.485955	0.217100	-0.144144
O10	O	1.478400	0.431790	0.121695
C11	C	1.256450	0.225525	-0.000087
C12	C	1.116989	0.221188	-0.000078
C13	C	1.038027	0.353403	-0.000101
C14	C	0.906990	0.349319	-0.000126
C15	C	0.933890	0.080793	-0.000112
C16	C	1.064925	0.084879	-0.000076
C17	C	1.022496	0.508434	-0.000115
C18	C	0.891459	0.504350	-0.000141
C19	C	1.492055	-0.052559	-0.000102
C20	C	1.487714	-0.216378	-0.000109
C21	C	1.715457	0.208681	-0.000120
C22	C	1.854918	0.213018	-0.000139
C23	C	1.479852	0.486766	-0.000106
C24	C	1.484193	0.650585	-0.000108
N25	N	1.485959	0.217111	0.346563
N26	N	1.485957	0.217084	-0.346767
C27	C	1.570225	0.117712	0.423210
C28	C	1.570222	0.117694	0.576547
C29	C	1.401682	0.316488	0.576575
C30	C	1.401681	0.316497	0.423241
C31	C	1.667534	0.002944	0.423195
C32	C	1.667531	0.002926	0.576532
H33	H	1.058348	0.557796	-0.105288
C34	C	0.923350	0.613313	0.235085
C35	C	0.830040	0.567604	0.141822
H36	H	0.885427	0.652367	0.322721
H37	H	0.981773	0.531049	0.257922
H38	H	0.966117	0.687544	0.187867
H39	H	0.787278	0.493366	0.189036
H40	H	0.771595	0.649879	0.118987
H41	H	0.849958	0.562761	-0.102095
H42	H	1.645642	-0.110463	0.381578
C43	C	1.235080	0.512982	0.438677
C44	C	1.309046	0.425751	0.338988
H45	H	1.177895	0.580437	0.386659
H46	H	1.189220	0.451058	0.498479
H47	H	1.287968	0.566629	0.498484
H48	H	1.256159	0.372094	0.279188
H49	H	1.354909	0.487682	0.279161
C50	C	1.871790	0.083286	0.473181
C51	C	1.790820	0.051442	0.358969
H52	H	1.947903	0.113219	0.433526
H53	H	1.832438	0.160862	0.531734
H54	H	1.889957	-0.002642	0.531727
H55	H	1.772646	0.137373	0.300429
H56	H	1.830180	-0.026141	0.300392
H57	H	1.129212	-0.022783	-0.000036
C58	C	1.598424	-0.236776	0.526516
C59	C	1.625823	-0.141768	0.640739
H60	H	1.572695	-0.326108	0.566160
H61	H	1.532522	-0.190265	0.467995
H62	H	1.671483	-0.258405	0.467942
H63	H	1.552760	-0.120130	0.699307
H64	H	1.691730	-0.188287	0.699285
H65	H	0.891483	-0.030185	-0.000133
H66	H	1.333064	0.397404	0.639023
H67	H	1.052066	0.569069	0.101835
H68	H	1.764142	0.028206	0.618142
