data_functionalizedCrystal
_audit_creation_method	'MofGen! by Chris Wilmer'
_symmetry_space_group_name_H-M	'P1'
_symmetry_Int_Tables_number	1
_symmetry_cell_setting	triclinic
loop_
_symmetry_equiv_pos_as_xyz
  x,y,z
_cell_length_a	12.645331
_cell_length_b	18.101395
_cell_length_c	12.645324
_cell_angle_alpha	89.964944
_cell_angle_beta	89.978020
_cell_angle_gamma	90.030083
loop_
_atom_site_label
_atom_site_type_symbol
_atom_site_fract_x
_atom_site_fract_y
_atom_site_fract_z
Zn1	Zn	1.620625	-0.294794	-0.599421
Zn2	Zn	1.620468	-0.418659	-0.422151
Zn3	Zn	1.443342	-0.294834	-0.422166
Zn4	Zn	1.443280	-0.418596	-0.599366
O5	O	1.531929	-0.356721	-0.510776
O6	O	1.768952	-0.311235	-0.575923
O7	O	1.596931	-0.402277	-0.273805
O8	O	1.466951	-0.191196	-0.445708
O9	O	1.768836	-0.402238	-0.445683
O10	O	1.597200	-0.191167	-0.575937
O11	O	1.466798	-0.311303	-0.273816
O12	O	1.294986	-0.311242	-0.445655
O13	O	1.466845	-0.402131	-0.747721
O14	O	1.294941	-0.402169	-0.575843
O15	O	1.597140	-0.311174	-0.747761
O16	O	1.596871	-0.522284	-0.445630
O17	O	1.466692	-0.522238	-0.575829
C18	C	1.256499	-0.356703	-0.510745
C19	C	1.138669	-0.356714	-0.510757
C20	C	0.971098	-0.299248	-0.429308
C21	C	1.093658	-0.299397	-0.428949
C22	C	1.094123	-0.434730	-0.480236
C23	C	0.971524	-0.434416	-0.479680
C24	C	0.971525	-0.336906	-0.623043
C25	C	1.094131	-0.335163	-0.622420
C26	C	1.531787	-0.549132	-0.510745
C27	C	1.531823	-0.631446	-0.510767
C28	C	1.532056	-0.930537	-0.510824
C29	C	1.450341	-0.899213	-0.592945
C30	C	1.449952	-0.813595	-0.592688
C31	C	1.531940	-0.782154	-0.510797
C32	C	1.501689	-0.813316	-0.399071
C33	C	1.501162	-0.898961	-0.399562
C34	C	1.644201	-0.898879	-0.539445
C35	C	1.643542	-0.813228	-0.541895
C36	C	1.531877	-0.698295	-0.510774
C37	C	1.532117	-1.014396	-0.510839
C38	C	1.808434	-0.356739	-0.510807
C39	C	1.926264	-0.356747	-0.510821
C40	C	1.532003	-0.356641	-0.787281
C41	C	1.532035	-0.356607	-0.905112
C42	C	1.532100	-0.163559	-0.510830
C43	C	1.532173	-0.081245	-0.510854
C44	C	1.614022	-0.299373	-0.950019
C45	C	1.614374	-0.299523	-1.072579
C46	C	1.561965	-0.434687	-1.072986
C47	C	1.562529	-0.434376	-0.950388
C48	C	1.419977	-0.336401	-0.950284
C49	C	1.420609	-0.334660	-1.072891
C50	C	1.531915	-0.356747	-0.235346
C51	C	1.532089	-0.356573	-0.117517
H52	H	1.123254	-0.277752	-0.645434
H53	H	1.366828	-0.793173	-0.573730
O54	O	1.134718	-0.386590	-0.707175
H55	H	1.101786	-0.369825	-0.784915
H56	H	1.419185	-0.919005	-0.375318
H57	H	1.559334	-0.792952	-0.336216
H58	H	1.358898	-0.378083	-0.921237
H59	H	1.705082	-0.919135	-0.479633
H60	H	1.420580	-0.791932	-0.374392
H61	H	1.671780	-0.920420	-0.619527
H62	H	1.595709	-0.241612	-1.102690
O63	O	1.728474	-0.784888	-0.468450
H64	H	1.767233	-0.832260	-0.428410
H65	H	1.642967	-0.452074	-1.103725
H66	H	0.941653	-0.241222	-0.448234
H67	H	1.666354	-0.792857	-0.624119
O68	O	1.132422	-0.316760	-0.318783
H69	H	1.180952	-0.367818	-0.320695
H70	H	0.940247	-0.312217	-0.346636
H71	H	1.558098	-0.919685	-0.336289
O72	O	1.589620	-0.222429	-0.910991
H73	H	1.518799	-0.224153	-0.859164
H74	H	1.696585	-0.312606	-0.919223
H75	H	1.468880	-0.792523	-0.675532
H76	H	1.356305	-0.373275	-1.103477
O77	O	1.724380	-0.317250	-1.111460
H78	H	1.777531	-0.325759	-1.042695
O79	O	1.671016	-0.457005	-0.912509
H80	H	1.722585	-0.468064	-0.981755
H81	H	1.505365	-0.478471	-0.920676
O82	O	0.933560	-0.456691	-0.371008
H83	H	1.002766	-0.467582	-0.319345
O84	O	1.485320	-0.492713	-1.111534
H85	H	1.424979	-0.466429	-1.162967
H86	H	1.392676	-0.280422	-0.919371
H87	H	1.398071	-0.277174	-1.102000
H88	H	1.123778	-0.241545	-0.448080
H89	H	1.469080	-0.919753	-0.676057
O90	O	0.932222	-0.493078	-0.554896
H91	H	1.000785	-0.521551	-0.591496
H92	H	1.123277	-0.478716	-0.537743
O93	O	1.134708	-0.457411	-0.372730
H94	H	1.108822	-0.416428	-0.312830
H95	H	0.940647	-0.281009	-0.650799
H96	H	1.367722	-0.920800	-0.574226
O97	O	0.933116	-0.392370	-0.703504
H98	H	0.882038	-0.433870	-0.663828
