data_functionalizedCrystal
_audit_creation_method	'MofGen! by Chris Wilmer'
_symmetry_space_group_name_H-M	'P1'
_symmetry_Int_Tables_number	1
_symmetry_cell_setting	triclinic
loop_
_symmetry_equiv_pos_as_xyz
  x,y,z
_cell_length_a	23.532407
_cell_length_b	27.731996
_cell_length_c	22.010155
_cell_angle_alpha	89.998256
_cell_angle_beta	89.994271
_cell_angle_gamma	82.735067
loop_
_atom_site_label
_atom_site_type_symbol
_atom_site_fract_x
_atom_site_fract_y
_atom_site_fract_z
O1	O	0.755125	0.058674	-0.050495
O2	O	0.589242	0.067164	-0.050505
O3	O	0.677351	-0.007472	-0.050486
O4	O	0.667016	0.133310	-0.050513
O5	O	0.677335	-0.007460	0.050564
O6	O	0.589226	0.067175	0.050545
O7	O	0.755109	0.058685	0.050556
Cu8	Cu	0.672166	0.062931	0.059777
Cu9	Cu	0.672185	0.062918	-0.059727
O10	O	0.667000	0.133321	0.050537
C11	C	0.568019	0.066954	0.000019
C12	C	0.504803	0.066303	0.000015
C13	C	0.238746	0.019455	0.000041
C14	C	0.298145	0.020059	0.000040
O15	O	0.334977	-0.017106	0.000069
N16	N	0.320666	0.064430	0.000028
C17	C	0.283786	0.108200	0.000022
O18	O	0.308396	0.145996	0.000011
C19	C	0.224388	0.107595	0.000026
C20	C	0.201870	0.063221	0.000033
C21	C	0.216227	-0.024915	0.000048
C22	C	0.156832	-0.025519	0.000047
C23	C	0.119956	0.018248	0.000039
C24	C	0.142475	0.062618	0.000032
C25	C	0.187509	0.151365	0.000024
C26	C	0.128108	0.150757	0.000030
C27	C	0.105589	0.106383	0.000036
C28	C	0.046205	0.105781	0.000023
N29	N	0.023683	0.061410	0.000036
C30	C	0.060559	0.017643	0.000044
C31	C	0.408525	0.109465	0.000013
C32	C	0.467922	0.110070	0.000004
C33	C	0.482277	0.021929	0.000024
C34	C	0.422879	0.021325	0.000029
C35	C	0.386004	0.065095	0.000026
C36	C	-0.064175	0.016379	0.000041
C37	C	-0.123576	0.015779	0.000038
C38	C	-0.137925	0.103920	0.000021
C39	C	-0.078530	0.104520	0.000021
C40	C	-0.041656	0.060745	0.000033
O41	O	0.009338	0.142926	-0.000003
O42	O	0.035940	-0.020147	0.000062
C43	C	0.677131	-0.025474	0.000041
C44	C	0.676491	-0.079131	0.000047
C45	C	0.672477	-0.411860	-0.055066
C46	C	0.670049	-0.613522	-0.055076
O47	O	0.669718	-0.639598	-0.101922
N48	N	0.669738	-0.638733	0.000006
C49	C	0.670031	-0.613526	0.055094
O50	O	0.669706	-0.639596	0.101945
C51	C	0.672456	-0.411864	0.055104
C52	C	0.672772	-0.386656	0.000019
C53	C	0.672792	-0.386651	-0.110147
C54	C	0.673403	-0.336239	-0.110143
C55	C	0.673697	-0.311035	-0.055059
C56	C	0.673382	-0.336244	0.000022
C57	C	0.672744	-0.386657	0.110192
C58	C	0.673349	-0.336238	0.110190
C59	C	0.673665	-0.311030	0.055104
C60	C	0.674287	-0.260628	0.055110
N61	N	0.674597	-0.235416	0.000028
C62	C	0.674302	-0.260620	-0.055057
C63	C	0.668760	-0.719401	0.055085
C64	C	0.668155	-0.769816	0.055083
C65	C	0.668171	-0.769809	-0.055088
C66	C	0.668780	-0.719393	-0.055085
C67	C	0.669070	-0.694189	0.000003
C68	C	0.675584	-0.154751	-0.055046
C69	C	0.676197	-0.104335	-0.055037
C70	C	0.676177	-0.104346	0.055133
C71	C	0.675568	-0.154759	0.055125
C72	C	0.675269	-0.179959	0.000031
O73	O	0.674612	-0.234520	0.101931
O74	O	0.674615	-0.234539	-0.101900
C75	C	0.671867	-0.462272	-0.055069
C76	C	0.671551	-0.487480	0.000012
C77	C	0.671846	-0.462276	0.055097
C78	C	0.670946	-0.537895	0.000010
C79	C	0.670652	-0.563099	-0.055075
C80	C	0.670962	-0.537888	-0.110157
C81	C	0.671572	-0.487475	-0.110153
C82	C	0.671536	-0.487488	0.110179
C83	C	0.670926	-0.537900	0.110171
C84	C	0.670632	-0.563104	0.055087
C85	C	0.776333	0.058896	0.000030
C86	C	0.839548	0.059546	0.000030
C87	C	0.667221	0.151323	0.000008
C88	C	0.667860	0.204980	-0.000002
N89	N	0.672157	0.062940	0.143830
N90	N	0.672199	0.062905	-0.143779
C91	C	0.711202	0.029874	0.563617
C92	C	0.711205	0.029871	0.627225
O93	O	0.744379	0.001763	0.660123
N94	N	0.672185	0.062908	0.659037
C95	C	0.633156	0.095947	0.627238
O96	O	0.599966	0.124048	0.660137
C97	C	0.633151	0.095948	0.563631
C98	C	0.672177	0.062912	0.531823
C99	C	0.750225	-0.003160	0.531809
C100	C	0.750223	-0.003156	0.468206
C101	C	0.711198	0.029882	0.436411
C102	C	0.672175	0.062916	0.468219
C103	C	0.594120	0.128985	0.531833
C104	C	0.594118	0.128982	0.468222
C105	C	0.633144	0.095946	0.436414
C106	C	0.633148	0.095958	0.372822
N107	N	0.672168	0.062921	0.341010
C108	C	0.711193	0.029883	0.372804
C109	C	0.633169	0.095943	0.760815
C110	C	0.633176	0.095945	0.824421
C111	C	0.711224	0.029867	0.824404
C112	C	0.711219	0.029868	0.760797
C113	C	0.672189	0.062906	0.729004
C114	C	0.711186	0.029894	0.239233
C115	C	0.711182	0.029902	0.175624
C116	C	0.633132	0.095978	0.175647
C117	C	0.633138	0.095971	0.239250
C118	C	0.672167	0.062925	0.271042
O119	O	0.599989	0.124050	0.339883
O120	O	0.744372	0.001783	0.339898
H121	H	0.404549	-0.014808	0.000034
H122	H	0.675338	-0.175263	-0.099909
H123	H	0.676455	-0.083813	-0.099897
O124	O	0.670768	-0.562361	-0.163684
C125	C	0.720252	-0.555753	-0.197212
H126	H	0.754912	-0.545895	-0.164988
H127	H	0.709452	-0.525195	-0.231556
C128	C	0.699505	-0.615239	-0.270547
C129	C	0.742077	-0.603135	-0.230969
H130	H	0.712967	-0.644465	-0.291373
H131	H	0.666166	-0.619690	-0.247961
H132	H	0.690508	-0.589770	-0.299162
H133	H	0.751068	-0.628600	-0.202350
H134	H	0.775419	-0.598689	-0.253551
O135	O	0.749108	-0.002296	0.855228
C136	C	0.740273	-0.050109	0.839701
H137	H	0.718323	-0.049955	0.793520
H138	H	0.712058	-0.064933	0.875502
C139	C	0.825347	-0.082709	0.893482
C140	C	0.798392	-0.082520	0.836759
H141	H	0.861196	-0.102703	0.891670
H142	H	0.831299	-0.050497	0.903945
H143	H	0.801829	-0.095061	0.923310
H144	H	0.821907	-0.070162	0.806933
H145	H	0.792445	-0.114731	0.826291
O146	O	0.667906	-0.794224	-0.108653
C147	C	0.668290	-0.761165	-0.157276
H148	H	0.686762	-0.727317	-0.141135
H149	H	0.622647	-0.750509	-0.174208
C150	C	0.682726	-0.826747	-0.229145
C151	C	0.705418	-0.785175	-0.209322
H152	H	0.705626	-0.841557	-0.261251
H153	H	0.682465	-0.849019	-0.196388
H154	H	0.644691	-0.817861	-0.243251
H155	H	0.743450	-0.794062	-0.195210
H156	H	0.705686	-0.762904	-0.242079
H157	H	0.676420	-0.083817	0.099981
O158	O	-0.173833	0.146388	0.000043
C159	C	-0.231085	0.136335	0.000032
H160	H	-0.233023	0.098377	0.019165
H161	H	-0.248280	0.138250	-0.048446
C162	C	-0.265402	0.220660	0.016162
C163	C	-0.267782	0.174042	0.039666
H164	H	-0.288039	0.243920	0.040607
H165	H	-0.226830	0.227434	0.016166
H166	H	-0.279730	0.222249	-0.024236
H167	H	-0.253447	0.172452	0.080060
H168	H	-0.306352	0.167268	0.039669
O169	O	0.749123	-0.002140	0.270175
C170	C	0.784037	0.023593	0.306951
H171	H	0.761011	0.061515	0.316495
H172	H	0.826091	0.026703	0.282425
C173	C	0.824751	-0.050301	0.355638
C174	C	0.796468	-0.003726	0.367365
H175	H	0.832422	-0.067153	0.392903
H176	H	0.801231	-0.067638	0.330860
H177	H	0.859793	-0.047703	0.335198
H178	H	0.761424	-0.006325	0.387797
H179	H	0.819983	0.013610	0.392148
H180	H	0.673658	-0.315719	-0.155000
H181	H	0.667906	-0.790337	0.099939
O182	O	0.595203	0.128116	0.144849
C183	C	0.560746	0.157267	0.186559
H184	H	0.584087	0.157717	0.231898
H185	H	0.518585	0.141749	0.193329
C186	C	0.519859	0.208911	0.106043
C187	C	0.548530	0.209468	0.161728
H188	H	0.512321	0.241110	0.090725
H189	H	0.543072	0.189270	0.077942
H190	H	0.484728	0.195977	0.111692
H191	H	0.583663	0.222396	0.156076
H192	H	0.525323	0.229112	0.189827
O193	O	0.595210	0.127997	0.270222
C194	C	0.560303	0.102254	0.307001
H195	H	0.583329	0.064329	0.316522
H196	H	0.518243	0.099153	0.282491
C197	C	0.519600	0.176133	0.355734
C198	C	0.547884	0.129554	0.367431
H199	H	0.511937	0.192973	0.393009
H200	H	0.543116	0.193477	0.330953
H201	H	0.484554	0.173542	0.335307
H202	H	0.582933	0.132145	0.387851
H203	H	0.524374	0.112210	0.392216
H204	H	0.668999	-0.698885	0.099947
O205	O	0.788115	-0.035321	0.562621
C206	C	0.779285	-0.083134	0.547088
H207	H	0.757320	-0.082976	0.500915
H208	H	0.751086	-0.097968	0.582897
C209	C	0.864381	-0.115730	0.600834
C210	C	0.837408	-0.115537	0.544120
H211	H	0.900233	-0.135719	0.599005
H212	H	0.870330	-0.083518	0.611301
H213	H	0.840876	-0.128091	0.630668
H214	H	0.860910	-0.103171	0.514288
H215	H	0.831465	-0.147748	0.533648
H216	H	0.670673	-0.558421	0.155032
O217	O	0.672409	-0.411058	0.163758
C218	C	0.672809	-0.377993	0.212369
H219	H	0.655212	-0.339968	0.196208
H220	H	0.718576	-0.377925	0.229316
C221	C	0.656805	-0.440035	0.284256
C222	C	0.635187	-0.393332	0.264408
H223	H	0.633601	-0.449497	0.316358
H224	H	0.656538	-0.462312	0.251506
H225	H	0.694944	-0.439972	0.298374
H226	H	0.597052	-0.393397	0.250283
H227	H	0.635447	-0.371055	0.297157
H228	H	0.486250	0.146204	-0.000010
H229	H	0.246247	-0.060558	0.000056
H230	H	-0.141906	-0.020357	0.000042
H231	H	0.669037	-0.698871	-0.099941
O232	O	-0.028442	-0.026187	0.000021
C233	C	-0.061065	-0.065474	0.000041
H234	H	-0.105508	-0.052979	-0.019089
H235	H	-0.065180	-0.079087	0.048521
C236	C	0.023478	-0.122226	-0.016091
C237	C	-0.031105	-0.106880	-0.039591
H238	H	0.041959	-0.147769	-0.040535
H239	H	0.045458	-0.095758	-0.016102
H240	H	0.020042	-0.133567	0.024309
H241	H	-0.027667	-0.095535	-0.079987
H242	H	-0.053084	-0.133347	-0.039588
H243	H	0.512312	-0.013708	0.000031
O244	O	0.673530	-0.311721	0.163687
C245	C	0.624545	-0.276834	0.166971
H246	H	0.589881	-0.288031	0.135705
H247	H	0.636166	-0.239918	0.152175
C248	C	0.644740	-0.259718	0.271178
C249	C	0.602163	-0.273472	0.232781
H250	H	0.630935	-0.257641	0.311773
H251	H	0.677743	-0.283220	0.268965
H252	H	0.654420	-0.228955	0.258841
H253	H	0.592490	-0.304236	0.245113
H254	H	0.569158	-0.249975	0.234997
H255	H	0.378504	0.145110	0.000006
H256	H	0.782000	-0.030058	0.442311
H257	H	0.205832	0.187499	0.000016
H258	H	-0.060195	0.140653	0.000015
H259	H	0.098086	0.186400	0.000030
H260	H	0.742997	0.002967	0.734902
H261	H	0.672550	-0.407167	-0.155006
H262	H	0.601387	0.122850	0.734932
O263	O	0.595215	0.128058	0.855222
C264	C	0.560783	0.157225	0.813511
H265	H	0.560323	0.137408	0.768171
H266	H	0.578949	0.193056	0.806744
C267	C	0.499821	0.191793	0.894025
C268	C	0.499252	0.167451	0.838339
H269	H	0.461866	0.198103	0.909340
H270	H	0.523019	0.172144	0.922126
H271	H	0.514962	0.221649	0.888378
H272	H	0.484118	0.137593	0.843988
H273	H	0.476050	0.187096	0.810238
H274	H	0.675316	-0.175285	0.099980
O275	O	0.671763	-0.463012	-0.163689
C276	C	0.622278	-0.469647	-0.197187
H277	H	0.587628	-0.479502	-0.164939
H278	H	0.633083	-0.500218	-0.231514
C279	C	0.642990	-0.410184	-0.270578
C280	C	0.600431	-0.422284	-0.230970
H281	H	0.629515	-0.380969	-0.291419
H282	H	0.676331	-0.405715	-0.248011
H283	H	0.651991	-0.435663	-0.299178
H284	H	0.591437	-0.396808	-0.202366
H285	H	0.567089	-0.426747	-0.253533
H286	H	0.671777	-0.466972	0.155036
O287	O	0.749115	-0.002239	0.144820
C288	C	0.783566	-0.031391	0.186528
H289	H	0.760221	-0.031837	0.231871
H290	H	0.825729	-0.015878	0.193289
C291	C	0.824450	-0.083042	0.106012
C292	C	0.795775	-0.083593	0.161702
H293	H	0.831984	-0.115242	0.090698
H294	H	0.801241	-0.063400	0.077912
H295	H	0.859582	-0.070112	0.111654
H296	H	0.760640	-0.096518	0.156058
H297	H	0.818979	-0.103238	0.189800
O298	O	0.556153	0.161094	0.562628
C299	C	0.521721	0.190256	0.520913
H300	H	0.521265	0.170435	0.475575
H301	H	0.539882	0.226088	0.514143
C302	C	0.460752	0.224824	0.601420
C303	C	0.460188	0.200479	0.545737
H304	H	0.422796	0.231133	0.616733
H305	H	0.483950	0.205179	0.629525
H306	H	0.475889	0.254682	0.595771
H307	H	0.445058	0.170619	0.551388
H308	H	0.436985	0.220119	0.517633
H309	H	0.562333	0.155885	0.442339
H310	H	0.138504	-0.061653	0.000055
