data_functionalizedCrystal
_audit_creation_method	'MofGen! by Chris Wilmer'
_symmetry_space_group_name_H-M	'P1'
_symmetry_Int_Tables_number	1
_symmetry_cell_setting	triclinic
loop_
_symmetry_equiv_pos_as_xyz
  x,y,z
_cell_length_a	12.759395
_cell_length_b	18.050590
_cell_length_c	12.759387
_cell_angle_alpha	90.035119
_cell_angle_beta	90.020509
_cell_angle_gamma	90.020089
loop_
_atom_site_label
_atom_site_type_symbol
_atom_site_fract_x
_atom_site_fract_y
_atom_site_fract_z
Zn1	Zn	1.606241	-0.295590	0.593974
Zn2	Zn	1.606119	-0.419799	0.418281
Zn3	Zn	1.430539	-0.295630	0.418310
Zn4	Zn	1.430519	-0.419746	0.593920
O5	O	1.518354	-0.357691	0.506121
O6	O	1.753246	-0.312072	0.570678
O7	O	1.582786	-0.403367	0.271263
O8	O	1.453905	-0.191700	0.441647
O9	O	1.753157	-0.403327	0.441597
O10	O	1.582992	-0.191671	0.570706
O11	O	1.453787	-0.312141	0.271285
O12	O	1.283515	-0.312089	0.441595
O13	O	1.453872	-0.403237	0.740948
O14	O	1.283501	-0.403276	0.570615
O15	O	1.582973	-0.312020	0.740988
O16	O	1.582767	-0.523716	0.441545
O17	O	1.453754	-0.523677	0.570586
C18	C	1.245387	-0.357682	0.506103
C19	C	1.128610	-0.357696	0.506120
C20	C	1.518274	-0.550643	0.506079
C21	C	1.518335	-0.633189	0.506096
C22	C	1.128634	-0.452803	0.640251
C23	C	1.073785	-0.500362	0.707319
C24	C	0.964063	-0.500371	0.707332
C25	C	0.909188	-0.452814	0.640272
C26	C	0.964037	-0.405255	0.573203
C27	C	1.073761	-0.405253	0.573195
C28	C	0.964014	-0.310146	0.439080
C29	C	1.073735	-0.310139	0.439060
C30	C	0.909138	-0.262589	0.372019
C31	C	0.963987	-0.215032	0.304944
C32	C	1.073716	-0.215026	0.304933
C33	C	1.128584	-0.262580	0.371991
C34	C	1.588638	-0.832634	0.436022
C35	C	1.614308	-0.881958	0.531909
C36	C	1.518395	-0.784319	0.506138
C37	C	1.492832	-0.882077	0.410295
C38	C	1.518455	-0.930304	0.506170
C39	C	1.544114	-0.832556	0.602076
C40	C	1.422594	-0.832671	0.480397
C41	C	1.448227	-0.881973	0.576350
C42	C	1.518363	-0.700221	0.506119
C43	C	1.518486	-1.014401	0.506201
C44	C	1.792388	-0.357701	0.506140
C45	C	1.909165	-0.357705	0.506148
C46	C	1.518434	-0.357618	0.780155
C47	C	1.518468	-0.357587	0.896932
C48	C	1.518464	-0.163986	0.506186
C49	C	1.518511	-0.081440	0.506214
C50	C	1.518336	-0.357710	0.233154
C51	C	1.518506	-0.357532	0.116377
C52	C	1.652910	-0.262609	0.896992
C53	C	1.720146	-0.215109	0.951884
C54	C	1.720172	-0.215082	1.061605
C55	C	1.652952	-0.262559	1.116438
C56	C	1.585716	-0.310059	1.061547
C57	C	1.585700	-0.310082	0.951823
C58	C	1.451270	-0.405032	1.061486
C59	C	1.451248	-0.405064	0.951764
C60	C	1.384050	-0.452508	1.116319
C61	C	1.316817	-0.500013	1.061428
C62	C	1.316796	-0.500039	0.951700
C63	C	1.384012	-0.452564	0.896873
H64	H	1.118476	-0.539081	0.761920
N65	N	1.369558	-0.910480	0.654989
H66	H	1.389019	-0.892362	0.727333
H67	H	1.369592	-0.966428	0.654063
H68	H	1.384071	-0.452480	1.205660
N69	N	0.790797	-0.262601	0.372025
H70	H	0.764341	-0.276186	0.299914
H71	H	0.764474	-0.211665	0.391520
H72	H	0.919406	-0.539094	0.761950
H73	H	1.341574	-0.811003	0.458576
N74	N	1.464154	-0.910893	0.302918
H75	H	1.517244	-0.892945	0.250005
H76	H	1.392266	-0.892188	0.283009
N77	N	1.244302	-0.551200	1.120565
H78	H	1.254510	-0.543968	1.198402
H79	H	1.260599	-0.604251	1.101385
H80	H	1.774874	-0.176454	0.907227
H81	H	1.565679	-0.810897	0.683213
N82	N	0.904804	-0.163753	0.232608
H83	H	0.826974	-0.170977	0.242793
H84	H	0.923947	-0.175259	0.157547
N85	N	1.383966	-0.452572	0.778531
H86	H	1.331166	-0.489860	0.752074
H87	H	1.456052	-0.466209	0.752168
N88	N	0.790847	-0.452821	0.640284
H89	H	0.764427	-0.490165	0.692947
H90	H	0.764469	-0.466390	0.568141
H91	H	1.652906	-0.262634	0.807651
H92	H	1.774915	-0.176399	1.106298
H93	H	1.262032	-0.538712	0.907014
N94	N	1.246976	-0.452803	0.640222
H95	H	1.273416	-0.490146	0.692876
H96	H	1.273358	-0.401850	0.659636
N97	N	1.132862	-0.163720	0.232598
H98	H	1.113725	-0.175184	0.157503
H99	H	1.210680	-0.170949	0.242848
N100	N	1.246926	-0.262581	0.371980
H101	H	1.273391	-0.248996	0.444088
H102	H	1.273267	-0.225244	0.319272
N103	N	1.667339	-0.803931	0.357555
H104	H	1.739711	-0.821859	0.377155
H105	H	1.666197	-0.747986	0.357658
N106	N	1.721651	-0.910644	0.560782
H107	H	1.774643	-0.892703	0.507765
H108	H	1.720605	-0.966589	0.561263
N109	N	1.652949	-0.262512	1.234780
H110	H	1.705733	-0.225211	1.261233
H111	H	1.672194	-0.313473	1.261133
