data_functionalizedCrystal
_audit_creation_method	'MofGen! by Chris Wilmer'
_symmetry_space_group_name_H-M	'P1'
_symmetry_Int_Tables_number	1
_symmetry_cell_setting	triclinic
loop_
_symmetry_equiv_pos_as_xyz
  x,y,z
_cell_length_a	17.077404
_cell_length_b	18.101395
_cell_length_c	17.077396
_cell_angle_alpha	90.027467
_cell_angle_beta	90.019501
_cell_angle_gamma	90.031329
loop_
_atom_site_label
_atom_site_type_symbol
_atom_site_fract_x
_atom_site_fract_y
_atom_site_fract_z
Zn1	Zn	1.200010	-0.294825	0.443848
Zn2	Zn	1.700010	0.205175	0.943848
Zn3	Zn	1.199898	-0.418674	0.312585
Zn4	Zn	1.699898	0.081326	0.812585
Zn5	Zn	1.068742	-0.294851	0.312596
Zn6	Zn	1.568742	0.205149	0.812596
Zn7	Zn	1.068691	-0.418630	0.443808
Zn8	Zn	1.568691	0.081370	0.943808
O9	O	1.134335	-0.356745	0.378209
O10	O	1.634335	0.143255	0.878209
O11	O	1.309842	-0.311261	0.426448
O12	O	1.809842	0.188739	0.926448
O13	O	1.182474	-0.402278	0.202739
O14	O	1.682474	0.097722	0.702739
O15	O	1.086223	-0.191215	0.330029
O16	O	1.586223	0.308785	0.830029
O17	O	1.309760	-0.402253	0.330009
O18	O	1.809760	0.097747	0.830009
O19	O	1.182665	-0.191196	0.426459
O20	O	1.682665	0.308804	0.926459
O21	O	1.086114	-0.311306	0.202748
O22	O	1.586114	0.188694	0.702748
O23	O	0.958888	-0.311263	0.329990
O24	O	1.458888	0.188737	0.829990
O25	O	1.086136	-0.402178	0.553660
O26	O	1.586136	0.097822	1.053660
O27	O	0.958851	-0.402203	0.426391
O28	O	1.458851	0.097797	0.926391
O29	O	1.182616	-0.311219	0.553690
O30	O	1.682616	0.188781	1.053690
O31	O	1.182425	-0.522301	0.329970
O32	O	1.682425	-0.022301	0.829970
O33	O	1.086028	-0.522269	0.426379
O34	O	1.586028	-0.022269	0.926379
C35	C	0.930387	-0.356732	0.378188
C36	C	1.430387	0.143268	0.878188
C37	C	0.843137	-0.356744	0.378197
C38	C	1.343137	0.143256	0.878197
C39	C	0.802148	-0.404167	0.428312
C40	C	1.302148	0.095833	0.928312
C41	C	0.720168	-0.404169	0.428325
C42	C	1.220168	0.095831	0.928325
C43	C	0.679178	-0.356750	0.378218
C44	C	1.179178	0.143250	0.878218
C45	C	0.720173	-0.309321	0.328100
C46	C	1.220173	0.190679	0.828100
C47	C	0.802152	-0.309316	0.328092
C48	C	1.302152	0.190684	0.828092
C49	C	0.549303	-0.309336	0.328119
C50	C	1.049303	0.190664	0.828119
C51	C	0.467318	-0.309341	0.328126
C52	C	0.967318	0.190659	0.828126
C53	C	0.467319	-0.404188	0.428352
C54	C	0.967319	0.095812	0.928352
C55	C	0.549298	-0.404184	0.428344
C56	C	1.049298	0.095816	0.928344
C57	C	0.590287	-0.356755	0.378225
C58	C	1.090287	0.143245	0.878225
C59	C	1.134230	-0.549156	0.378186
C60	C	1.634230	-0.049156	0.878186
C61	C	1.134257	-0.631470	0.378203
C62	C	1.634257	-0.131470	0.878203
C63	C	1.134429	-0.930561	0.378245
C64	C	1.634429	-0.430561	0.878245
C65	C	1.073919	-0.899246	0.439054
C66	C	1.573919	-0.399246	0.939054
C67	C	1.073632	-0.813628	0.438863
C68	C	1.573632	-0.313628	0.938863
C69	C	1.134344	-0.782178	0.378225
C70	C	1.634344	-0.282178	0.878225
C71	C	1.111947	-0.813330	0.295495
C72	C	1.611947	-0.313330	0.795495
C73	C	1.111557	-0.898975	0.295859
C74	C	1.611557	-0.398975	0.795859
C75	C	1.217469	-0.898904	0.399437
C76	C	1.717469	-0.398904	0.899437
C77	C	1.216980	-0.813253	0.401252
C78	C	1.716980	-0.313253	0.901252
C79	C	1.134297	-0.698319	0.378208
C80	C	1.634297	-0.198319	0.878208
C81	C	1.134474	-1.014420	0.378256
C82	C	1.634474	-0.514420	0.878256
C83	C	1.339079	-0.356759	0.378231
C84	C	1.839079	0.143241	0.878231
C85	C	1.426329	-0.356765	0.378241
C86	C	1.926329	0.143235	0.878241
C87	C	1.134383	-0.356690	0.582954
C88	C	1.634383	0.143310	1.082954
C89	C	1.134403	-0.356667	0.670203
C90	C	1.634403	0.143333	1.170203
C91	C	1.134462	-0.163583	0.378250
C92	C	1.634462	0.336417	0.878250
C93	C	1.134516	-0.081269	0.378267
C94	C	1.634516	0.418731	0.878267
C95	C	1.134333	-0.356746	0.174261
C96	C	1.634333	0.143254	0.674261
C97	C	1.134465	-0.356561	0.087012
C98	C	1.634465	0.143439	0.587012
C99	C	1.184642	-0.309301	0.711210
C100	C	1.684642	0.190699	1.211210
C101	C	1.184651	-0.309276	0.793191
C102	C	1.684651	0.190724	1.293191
C103	C	1.134425	-0.356622	0.834163
C104	C	1.634425	0.143378	1.334163
C105	C	1.084181	-0.403990	0.793150
C106	C	1.584181	0.096010	1.293150
C107	C	1.084168	-0.404011	0.711171
C108	C	1.584168	0.095989	1.211171
C109	C	1.084212	-0.403946	0.964021
C110	C	1.584212	0.096054	1.464021
C111	C	1.084226	-0.403927	1.046005
C112	C	1.584226	0.096073	1.546005
C113	C	1.184695	-0.309211	1.046040
C114	C	1.684695	0.190789	1.546040
C115	C	1.184683	-0.309232	0.964061
C116	C	1.684683	0.190768	1.464061
C117	C	1.134439	-0.356601	0.923054
C118	C	1.634439	0.143399	1.423054
H119	H	0.835524	-0.270695	0.287287
H120	H	1.335524	0.229305	0.787287
C121	C	1.028903	-0.456119	0.666064
C122	C	1.528903	0.043881	1.166064
N123	N	0.987274	-0.495367	0.632091
N124	N	1.487274	0.004633	1.132091
C125	C	1.092655	-0.927010	0.522195
C126	C	1.592655	-0.427010	1.022195
N127	N	1.106767	-0.947929	0.584819
N128	N	1.606767	-0.447929	1.084819
H129	H	1.043326	-0.442478	1.079363
H130	H	1.543326	0.057522	1.579363
C131	C	0.675081	-0.257158	0.272983
C132	C	1.175081	0.242842	0.772983
N133	N	0.641119	-0.217869	0.231466
N134	N	1.141119	0.282131	0.731466
H135	H	1.012743	-0.920833	0.425192
H136	H	1.512743	-0.420833	0.925192
C137	C	1.281109	-0.784329	0.345777
C138	C	1.781109	-0.284329	0.845777
N139	N	1.329410	-0.762544	0.303986
N140	N	1.829410	-0.262544	0.803986
H141	H	0.582674	-0.270708	0.287314
H142	H	1.082674	0.229292	0.787314
H143	H	1.043283	-0.442538	0.826517
H144	H	1.543283	0.057462	1.326517
C145	C	0.847230	-0.456333	0.483435
C146	C	1.347230	0.043667	0.983435
N147	N	0.881183	-0.495624	0.524958
N148	N	1.381183	0.004376	1.024958
H149	H	1.051888	-0.791945	0.277221
H150	H	1.551888	-0.291945	0.777221
H151	H	1.225544	-0.270749	0.677857
H152	H	1.725544	0.229251	1.177857
C153	C	0.990465	-0.786034	0.419956
C154	C	1.490465	-0.286034	0.919956
N155	N	0.927817	-0.765251	0.405734
N156	N	1.427817	-0.265251	0.905734
H157	H	1.262551	-0.919154	0.355148
H158	H	1.762551	-0.419154	0.855148
C159	C	0.675084	-0.456353	0.483441
C160	C	1.175084	0.043647	0.983441
N161	N	0.641127	-0.495665	0.524952
N162	N	1.141127	0.004335	1.024952
H163	H	1.043287	-0.442508	0.930635
H164	H	1.543287	0.057492	1.430635
C165	C	1.239932	-0.257147	0.918993
C166	C	1.739932	0.242853	1.418993
N167	N	1.281543	-0.217914	0.885048
N168	N	1.781543	0.282086	1.385048
C169	C	1.029550	-0.926054	0.271612
C170	C	1.529550	-0.426054	0.771612
N171	N	0.967780	-0.946447	0.253351
N172	N	1.467780	-0.446447	0.753351
H173	H	1.225562	-0.270708	0.826575
H174	H	1.725562	0.229292	1.326575
H175	H	1.237888	-0.920452	0.458736
H176	H	1.737888	-0.420452	0.958736
H177	H	0.582670	-0.442800	0.469141
H178	H	1.082670	0.057200	0.969141
H179	H	0.433946	-0.270720	0.287333
H180	H	0.933946	0.229280	0.787333
H181	H	1.087644	-0.792564	0.500206
H182	H	1.587644	-0.292564	1.000206
H183	H	1.233870	-0.792890	0.462136
H184	H	1.733870	-0.292890	0.962136
H185	H	0.433942	-0.442804	0.469163
H186	H	0.933942	0.057196	0.969163
C187	C	1.168504	-0.926965	0.232557
C188	C	1.668504	-0.426965	0.732557
N189	N	1.211392	-0.948044	0.184874
N190	N	1.711392	-0.448044	0.684874
H191	H	1.154633	-0.792959	0.248952
H192	H	1.654633	-0.292959	0.748952
H193	H	1.225604	-0.270640	1.079432
H194	H	1.725604	0.229360	1.579432
