data_functionalizedCrystal
_audit_creation_method	'MofGen! by Chris Wilmer'
_symmetry_space_group_name_H-M	'P1'
_symmetry_Int_Tables_number	1
_symmetry_cell_setting	triclinic
loop_
_symmetry_equiv_pos_as_xyz
  x,y,z
_cell_length_a	10.489741
_cell_length_b	10.489746
_cell_length_c	9.130313
_cell_angle_alpha	89.995172
_cell_angle_beta	89.999174
_cell_angle_gamma	84.540238
loop_
_atom_site_label
_atom_site_type_symbol
_atom_site_fract_x
_atom_site_fract_y
_atom_site_fract_z
O1	O	1.694055	0.179967	-0.121710
O2	O	1.322860	0.196860	-0.121733
O3	O	1.516901	0.002816	-0.121710
O4	O	1.500015	0.374011	-0.121733
O5	O	1.516887	0.002811	0.121889
O6	O	1.322846	0.196854	0.121866
O7	O	1.694042	0.179962	0.121889
Cu8	Cu	1.508443	0.188407	0.144120
Cu9	Cu	1.508459	0.188414	-0.143964
O10	O	1.500001	0.374005	0.121866
C11	C	1.275321	0.195581	0.000064
C12	C	1.133692	0.191764	0.000055
C13	C	1.065550	0.068300	0.000077
C14	C	0.973430	0.126626	-0.120031
C15	C	0.973451	0.126650	0.120138
C16	C	1.043438	0.250141	-0.120152
C17	C	1.043469	0.250148	0.120126
C18	C	0.951377	0.308564	-0.000011
C19	C	1.515617	-0.044718	0.000089
C20	C	1.511797	-0.186347	0.000088
C21	C	1.386074	-0.339205	0.000062
C22	C	1.448937	-0.261810	-0.120038
C23	C	1.448953	-0.261857	0.120131
C24	C	1.567919	-0.361302	-0.120144
C25	C	1.567917	-0.361354	0.120133
C26	C	1.630868	-0.284008	0.000004
C27	C	1.741580	0.181240	0.000089
C28	C	1.883210	0.185057	0.000088
C29	C	1.501285	0.421540	0.000064
C30	C	1.505105	0.563169	0.000055
N31	N	1.508441	0.188402	0.346743
N32	N	1.508471	0.188410	-0.346587
C33	C	1.594392	0.102516	0.423404
C34	C	1.594404	0.102516	0.576741
C35	C	1.422511	0.274300	0.576741
C36	C	1.422494	0.274292	0.423407
H37	H	0.942421	0.074388	-0.221569
H38	H	1.352536	0.344232	0.639176
N39	N	1.256231	-0.370207	-0.000073
N40	N	1.166516	-0.282788	-0.001228
H41	H	1.074815	-0.304682	-0.001327
N42	N	1.682174	0.014765	0.655057
N43	N	1.640972	-0.064816	0.740616
H44	H	1.702956	-0.126804	0.795924
N45	N	0.934560	0.061087	0.247512
N46	N	0.876779	-0.037127	0.234173
H47	H	0.849314	-0.083440	0.324124
H48	H	1.074273	0.302343	-0.221808
N49	N	1.334675	0.362028	0.345111
N50	N	1.257948	0.438713	0.413574
H51	H	1.195924	0.500670	0.358278
H52	H	1.115237	-0.033196	-0.000067
H53	H	1.398694	-0.218332	-0.221583
N54	N	0.889386	0.436026	-0.000108
N55	N	0.907853	0.510363	-0.103332
H56	H	0.864071	0.600383	-0.103408
N57	N	1.385889	-0.207331	0.247496
N58	N	1.291396	-0.126115	0.234142
H59	H	1.246849	-0.087603	0.324086
N60	N	1.760806	-0.253304	-0.000033
N61	N	1.834233	-0.291141	0.102117
H62	H	1.926003	-0.269459	0.102089
N63	N	1.630927	-0.415604	-0.247653
N64	N	1.638136	-0.533873	-0.268267
H65	H	1.682635	-0.572228	-0.358318
N66	N	1.630882	-0.415920	0.247534
N67	N	1.590253	-0.383813	0.372154
H68	H	1.634712	-0.422351	0.462143
H69	H	1.664374	0.032577	0.360988
H70	H	1.074510	0.302343	0.221668
