data_functionalizedCrystal
_audit_creation_method	'MofGen! by Chris Wilmer'
_symmetry_space_group_name_H-M	'P1'
_symmetry_Int_Tables_number	1
_symmetry_cell_setting	triclinic
loop_
_symmetry_equiv_pos_as_xyz
  x,y,z
_cell_length_a	12.759401
_cell_length_b	13.031981
_cell_length_c	12.759393
_cell_angle_alpha	82.783445
_cell_angle_beta	89.979062
_cell_angle_gamma	97.193318
loop_
_atom_site_label
_atom_site_type_symbol
_atom_site_fract_x
_atom_site_fract_y
_atom_site_fract_z
Zn1	Zn	1.553159	-0.416025	-0.540846
Zn2	Zn	1.530734	-0.590838	-0.342822
Zn3	Zn	1.377451	-0.416080	-0.365174
Zn4	Zn	1.355143	-0.590765	-0.518469
O5	O	1.454122	-0.503427	-0.441828
O6	O	1.697204	-0.439221	-0.514588
O7	O	1.510352	-0.567710	-0.198759
O8	O	1.419479	-0.269807	-0.407196
O9	O	1.680729	-0.567656	-0.369101
O10	O	1.548571	-0.269766	-0.536262
O11	O	1.397735	-0.439316	-0.215181
O12	O	1.227471	-0.439245	-0.385498
O13	O	1.381459	-0.567531	-0.668465
O14	O	1.211082	-0.567585	-0.498123
O15	O	1.526941	-0.439151	-0.684905
O16	O	1.488721	-0.737094	-0.347403
O17	O	1.359715	-0.737040	-0.476450
C18	C	1.181156	-0.503414	-0.441808
C19	C	1.064377	-0.503434	-0.441822
C20	C	1.000996	-0.570362	-0.500347
C21	C	0.891271	-0.570366	-0.500367
C22	C	0.908319	-0.436511	-0.383329
C23	C	1.018042	-0.436502	-0.383315
C24	C	1.419393	-0.774992	-0.407096
C25	C	1.404632	-0.891169	-0.392272
C26	C	1.461881	-0.942861	-0.449585
C27	C	1.446627	-1.062935	-0.434266
C28	C	1.728153	-0.503440	-0.441847
C29	C	1.844929	-0.503446	-0.441856
C30	C	1.454213	-0.503327	-0.715874
C31	C	1.454252	-0.503284	-0.832656
C32	C	1.489015	-0.230801	-0.476718
C33	C	1.503884	-0.114624	-0.491587
C34	C	1.530011	-0.436425	-0.896082
C35	C	1.530034	-0.436380	-1.005812
C36	C	1.378537	-0.570061	-0.988680
C37	C	1.378509	-0.570100	-0.878952
C38	C	1.454101	-0.503451	-0.168857
C39	C	1.454303	-0.503200	-0.052113
H40	H	0.870579	-0.382019	-0.335693
O41	O	1.533697	-0.889498	-0.521721
C42	C	1.481802	-0.826373	-0.597537
H43	H	1.404238	-0.810229	-0.562456
H44	H	1.464928	-0.868332	-0.670071
C45	C	1.647954	-0.742373	-0.672850
C46	C	1.552692	-0.722538	-0.629759
H47	H	1.691683	-0.678324	-0.692731
H48	H	1.682917	-0.784904	-0.621775
H49	H	1.633878	-0.777342	-0.733290
H50	H	1.566768	-0.687582	-0.569314
H51	H	1.517733	-0.679998	-0.680826
O52	O	1.603490	-0.371320	-1.067481
C53	C	1.552332	-0.303796	-1.139594
H54	H	1.470403	-0.297350	-1.107338
H55	H	1.544598	-0.336074	-1.218622
C56	C	1.718193	-0.203056	-1.194799
C57	C	1.617570	-0.195133	-1.155178
H58	H	1.758436	-0.136028	-1.204417
H59	H	1.752661	-0.248550	-1.146219
H60	H	1.711734	-0.229958	-1.260651
H61	H	1.624030	-0.168243	-1.089321
H62	H	1.583105	-0.149631	-1.203748
H63	H	1.038718	-0.624860	-0.547990
O64	O	1.079460	-0.371452	-0.326364
C65	C	1.015040	-0.312366	-0.274741
H66	H	0.931349	-0.355177	-0.265562
H67	H	1.013534	-0.233031	-0.323496
C68	C	1.162547	-0.244582	-0.176164
C69	C	1.059758	-0.297167	-0.164882
H70	H	1.190133	-0.235202	-0.108400
H71	H	1.205950	-0.284385	-0.210946
H72	H	1.161279	-0.178474	-0.216797
H73	H	1.061030	-0.363278	-0.124261
H74	H	1.016357	-0.257374	-0.130090
H75	H	1.386310	-1.107571	-0.373858
O76	O	1.305072	-0.634935	-1.033821
C77	C	1.321324	-0.620548	-1.144272
H78	H	1.406789	-0.586318	-1.163652
H79	H	1.266140	-0.564871	-1.182526
C80	C	1.193201	-0.768326	-1.163265
C81	C	1.298173	-0.726292	-1.187068
H82	H	1.178916	-0.833552	-1.189666
H83	H	1.182248	-0.778017	-1.088853
H84	H	1.147227	-0.721918	-1.195145
H85	H	1.344145	-0.772694	-1.155178
H86	H	1.309133	-0.716612	-1.261477
O87	O	1.575706	-1.061272	-0.563728
C88	C	1.523818	-0.998147	-0.639550
H89	H	1.446255	-0.981994	-0.604471
H90	H	1.506940	-1.040111	-0.712080
C91	C	1.689975	-0.914164	-0.714864
C92	C	1.594715	-0.894318	-0.671778
H93	H	1.733708	-0.850119	-0.734749
H94	H	1.724934	-0.956695	-0.663785
H95	H	1.675896	-0.949136	-0.775301
H96	H	1.608794	-0.859358	-0.611335
H97	H	1.559760	-0.851778	-0.722848
H98	H	0.839670	-0.624864	-0.548026
H99	H	1.591683	-0.382016	-0.858391
O100	O	1.332537	-0.944366	-0.320320
C101	C	1.231164	-0.917818	-0.346532
H102	H	1.229617	-0.887680	-0.434277
H103	H	1.211707	-0.854599	-0.298187
C104	C	1.150700	-1.051947	-0.214173
C105	C	1.148798	-1.014938	-0.321945
H106	H	1.099892	-1.111853	-0.199003
H107	H	1.218998	-1.069830	-0.196510
H108	H	1.134489	-0.999255	-0.173899
H109	H	1.165022	-1.067625	-0.362217
H110	H	1.080501	-0.997066	-0.339614
H111	H	1.316810	-0.624544	-0.827309
