data_functionalizedCrystal
_audit_creation_method	'MofGen! by Chris Wilmer'
_symmetry_space_group_name_H-M	'P1'
_symmetry_Int_Tables_number	1
_symmetry_cell_setting	triclinic
loop_
_symmetry_equiv_pos_as_xyz
  x,y,z
_cell_length_a	14.853569
_cell_length_b	14.853576
_cell_length_c	13.330367
_cell_angle_alpha	89.996419
_cell_angle_beta	89.994419
_cell_angle_gamma	83.637024
loop_
_atom_site_label
_atom_site_type_symbol
_atom_site_fract_x
_atom_site_fract_y
_atom_site_fract_z
O1	O	1.196372	0.117710	-0.083375
O2	O	1.696372	0.617710	0.416625
O3	O	0.933913	0.131730	-0.083387
O4	O	1.433913	0.631730	0.416613
O5	O	1.072149	-0.006509	-0.083377
O6	O	1.572149	0.493491	0.416623
O7	O	1.058136	0.255949	-0.083385
O8	O	1.558136	0.755949	0.416615
O9	O	1.072129	-0.006513	0.083470
O10	O	1.572129	0.493487	0.583470
O11	O	0.933893	0.131727	0.083460
O12	O	1.433893	0.631727	0.583460
O13	O	1.196352	0.117707	0.083472
O14	O	1.696352	0.617707	0.583472
Cu15	Cu	1.065120	0.124716	0.098701
Cu16	Cu	1.565120	0.624716	0.598701
Cu17	Cu	1.065144	0.124720	-0.098616
Cu18	Cu	1.565144	0.624720	0.401384
O19	O	1.058116	0.255946	0.083462
O20	O	1.558116	0.755946	0.583462
C21	C	0.900314	0.131093	0.000035
C22	C	1.400314	0.631093	0.500035
C23	C	0.800230	0.129188	0.000031
C24	C	1.300230	0.629188	0.500031
C25	C	0.763851	0.046178	0.000030
C26	C	1.263851	0.546178	0.500030
C27	C	0.742567	0.210410	0.000036
C28	C	1.242567	0.710410	0.500036
C29	C	0.648533	0.208623	0.000037
C30	C	1.148533	0.708623	0.500037
C31	C	0.612153	0.125613	0.000036
C32	C	1.112153	0.625613	0.500036
C33	C	0.669809	0.044389	0.000034
C34	C	1.169809	0.544389	0.500034
C35	C	0.590871	0.289846	0.000049
C36	C	1.090871	0.789846	0.500049
C37	C	0.496830	0.288062	0.000051
C38	C	0.996830	0.788062	0.500051
C39	C	0.460450	0.205051	0.000043
C40	C	0.960450	0.705051	0.500043
C41	C	0.518111	0.123824	0.000040
C42	C	1.018111	0.623824	0.500040
C43	C	0.481732	0.040813	0.000039
C44	C	0.981732	0.540813	0.500039
C45	C	0.539391	-0.040415	0.000029
C46	C	1.039391	0.459585	0.500029
C47	C	0.633428	-0.038623	0.000026
C48	C	1.133428	0.461377	0.500026
C49	C	0.366413	0.203259	0.000046
C50	C	0.866413	0.703259	0.500046
C51	C	0.387689	0.039024	0.000044
C52	C	0.887689	0.539024	0.500044
C53	C	1.071502	-0.040100	0.000046
C54	C	1.571502	0.459900	0.500046
C55	C	1.069595	-0.140183	0.000042
C56	C	1.569595	0.359817	0.500042
C57	C	1.068709	-0.187196	-0.090911
C58	C	1.568709	0.312804	0.409089
C59	C	1.068698	-0.187213	0.090992
C60	C	1.568698	0.312787	0.590992
C61	C	1.066911	-0.281247	0.090992
C62	C	1.566911	0.218753	0.590992
C63	C	1.066024	-0.328260	0.000039
C64	C	1.566024	0.171740	0.500039
C65	C	1.066925	-0.281239	-0.090914
C66	C	1.566925	0.218761	0.409086
C67	C	1.066019	-0.328276	0.181944
C68	C	1.566019	0.171724	0.681944
C69	C	1.064233	-0.422316	0.181947
C70	C	1.564233	0.077684	0.681947
C71	C	1.063340	-0.469330	0.090993
C72	C	1.563340	0.030670	0.590993
C73	C	1.064240	-0.422303	0.000037
C74	C	1.564240	0.077697	0.500037
C75	C	1.063354	-0.469317	-0.090916
C76	C	1.563354	0.030683	0.409084
C77	C	1.064247	-0.422291	-0.181874
C78	C	1.564247	0.077709	0.318126
C79	C	1.066032	-0.328253	-0.181868
C80	C	1.566032	0.171747	0.318132
C81	C	1.061555	-0.563368	0.090987
C82	C	1.561555	-0.063368	0.590987
C83	C	1.061569	-0.563360	-0.090919
C84	C	1.561569	-0.063360	0.409081
C85	C	1.229950	0.118344	0.000048
C86	C	1.729950	0.618344	0.500048
C87	C	1.330034	0.120248	0.000046
C88	C	1.830034	0.620248	0.500046
N89	N	1.065110	0.124713	0.237482
N90	N	1.565110	0.624713	0.737482
C91	C	1.058762	0.289536	0.000037
C92	C	1.558762	0.789536	0.500037
C93	C	1.060669	0.389619	0.000034
C94	C	1.560669	0.889619	0.500034
N95	N	1.065161	0.124716	-0.237397
N96	N	1.565161	0.624716	0.262603
C97	C	1.003930	0.185908	0.710100
C98	C	1.503930	0.685908	1.210100
C99	C	1.126382	0.063525	0.710077
C100	C	1.626382	0.563525	1.210077
C101	C	1.126372	0.063522	0.605059
C102	C	1.626372	0.563522	1.105059
C103	C	1.065141	0.124714	0.552557
C104	C	1.565141	0.624714	1.052557
C105	C	1.003920	0.185909	0.605072
C106	C	1.503920	0.685909	1.105072
C107	C	1.187597	0.002334	0.552535
C108	C	1.687597	0.502334	1.052535
C109	C	1.187590	0.002330	0.447511
C110	C	1.687590	0.502330	0.947511
C111	C	1.126354	0.063518	0.395006
C112	C	1.626354	0.563518	0.895006
C113	C	1.065131	0.124715	0.447528
C114	C	1.565131	0.624715	0.947528
C115	C	1.003900	0.185907	0.395026
C116	C	1.503900	0.685907	0.895026
C117	C	0.942671	0.247100	0.447546
C118	C	1.442671	0.747100	0.947546
C119	C	0.942684	0.247098	0.552568
C120	C	1.442684	0.747098	1.052568
C121	C	1.126341	0.063521	0.289985
C122	C	1.626341	0.563521	0.789985
C123	C	1.003889	0.185908	0.289998
C124	C	1.503889	0.685908	0.789998
H125	H	0.680382	-0.104754	0.000020
H126	H	1.180382	0.395246	0.500020
Cl127	Cl	0.926904	0.262836	0.224003
Cl128	Cl	1.426904	0.762836	0.724003
H129	H	1.237454	-0.047482	0.595286
H130	H	1.737454	0.452518	1.095286
H131	H	0.358077	-0.028574	0.000037
H132	H	0.858077	0.471426	0.500037
H133	H	0.509759	-0.108003	0.000022
H134	H	1.009759	0.391997	0.500022
Cl135	Cl	0.836334	-0.055933	0.000015
Cl136	Cl	1.336334	0.444067	0.500015
Cl137	Cl	1.069819	-0.128111	0.205327
Cl138	Cl	1.569819	0.371889	0.705327
H139	H	0.954076	0.235729	0.752865
H140	H	1.454076	0.735729	1.252865
Cl141	Cl	0.788302	0.314760	0.000038
Cl142	Cl	1.288302	0.814760	0.500038
Cl143	Cl	0.424353	0.390176	0.000056
Cl144	Cl	0.924353	0.890176	0.500056
H145	H	0.319471	0.269393	0.000064
H146	H	0.819471	0.769393	0.500064
Cl147	Cl	1.264558	-0.074599	0.381492
Cl148	Cl	1.764558	0.425401	0.881492
H149	H	0.620498	0.357428	0.000056
H150	H	1.120498	0.857428	0.500056
Cl151	Cl	0.865720	0.324023	0.618595
Cl152	Cl	1.365720	0.824023	1.118595
Cl153	Cl	1.060448	-0.622454	-0.205267
Cl154	Cl	1.560448	-0.122454	0.294733
H155	H	1.063530	-0.460582	-0.255928
H156	H	1.563530	0.039418	0.244072
H157	H	0.892820	0.296928	0.404787
H158	H	1.392820	0.796928	0.904787
H159	H	1.066762	-0.289957	-0.255921
H160	H	1.566762	0.210043	0.244079
H161	H	1.176239	0.013708	0.752828
H162	H	1.676239	0.513708	1.252828
H163	H	1.069433	-0.148903	-0.164966
H164	H	1.569433	0.351097	0.335034
H165	H	1.176197	0.013702	0.247227
H166	H	1.676197	0.513702	0.747227
H167	H	1.063506	-0.460597	0.256011
H168	H	1.563506	0.039403	0.756011
H169	H	1.060831	-0.601652	0.165043
H170	H	1.560831	-0.101652	0.665043
Cl171	Cl	1.067140	-0.269171	0.296276
Cl172	Cl	1.567140	0.230829	0.796276
