data_functionalizedCrystal
_audit_creation_method	'MofGen! by Chris Wilmer'
_symmetry_space_group_name_H-M	'P1'
_symmetry_Int_Tables_number	1
_symmetry_cell_setting	triclinic
loop_
_symmetry_equiv_pos_as_xyz
  x,y,z
_cell_length_a	16.109295
_cell_length_b	13.596369
_cell_length_c	14.519731
_cell_angle_alpha	90.006971
_cell_angle_beta	96.425980
_cell_angle_gamma	89.997603
loop_
_atom_site_label
_atom_site_type_symbol
_atom_site_fract_x
_atom_site_fract_y
_atom_site_fract_z
O1	O	-1.103349	0.081727	0.118517
O2	O	-0.603349	0.581727	0.618517
O3	O	-0.861313	0.081744	0.133274
O4	O	-0.361313	0.581744	0.633274
O5	O	-0.988739	0.081726	-0.008356
O6	O	-0.488739	0.581726	0.491644
O7	O	-0.975923	0.081744	0.260146
O8	O	-0.475923	0.581744	0.760146
O9	O	-0.988726	-0.081857	-0.008363
O10	O	-0.488726	0.418143	0.491637
O11	O	-0.861300	-0.081839	0.133267
O12	O	-0.361300	0.418161	0.633267
O13	O	-1.103336	-0.081856	0.118509
O14	O	-0.603336	0.418144	0.618509
Zn15	Zn	-0.982316	-0.107820	0.125887
Zn16	Zn	-0.482316	0.392180	0.625887
Zn17	Zn	-0.982333	0.107707	0.125897
Zn18	Zn	-0.482333	0.607707	0.625897
O19	O	-0.975910	-0.081838	0.260139
O20	O	-0.475910	0.418162	0.760139
C21	C	-0.830331	-0.000046	0.132674
C22	C	-0.330331	0.499954	0.632674
C23	C	-0.738032	-0.000040	0.130884
C24	C	-0.238032	0.499960	0.630884
C25	C	-0.515903	-0.000044	0.210762
C26	C	-0.015903	0.499956	0.710762
C27	C	-0.429179	-0.000051	0.209073
C28	C	0.070821	0.499949	0.709073
C29	C	-0.448751	-0.000058	0.041037
C30	C	0.051249	0.499942	0.541037
C31	C	-0.535473	-0.000059	0.042727
C32	C	-0.035473	0.499941	0.542727
C33	C	-0.569046	-0.000047	0.127592
C34	C	-0.069046	0.499953	0.627592
C35	C	-0.395600	-0.000052	0.124214
C36	C	0.104400	0.499948	0.624214
C37	C	-0.301571	-0.000059	0.122382
C38	C	0.198429	0.499941	0.622382
C39	C	-0.663082	-0.000043	0.129424
C40	C	-0.163082	0.499957	0.629424
N41	N	-0.982311	-0.254912	0.125879
N42	N	-0.482311	0.245088	0.625879
C43	C	-0.982332	-0.656203	0.125898
C44	C	-0.482332	-0.156203	0.625898
C45	C	-0.982324	-0.544552	0.125896
C46	C	-0.482324	-0.044552	0.625896
C47	C	-0.982322	-0.455561	0.125889
C48	C	-0.482322	0.044439	0.625889
C49	C	-0.982313	-0.343903	0.125886
C50	C	-0.482313	0.156097	0.625886
C51	C	-0.134318	-0.000064	0.119115
C52	C	0.365682	0.499936	0.619115
C53	C	-0.226615	-0.000060	0.120922
C54	C	0.273385	0.499940	0.620922
C55	C	-0.988132	-0.000066	-0.042717
C56	C	-0.488132	0.499934	0.457283
C57	C	-0.986333	-0.000066	-0.145094
C58	C	-0.486333	0.499934	0.354906
N59	N	-0.982345	0.254799	0.125897
N60	N	-0.482345	0.754799	0.625897
C61	C	-0.984870	-0.000064	-0.228235
C62	C	-0.484870	0.499936	0.271765
C63	C	-0.983043	-0.000056	-0.332540
C64	C	-0.483043	0.499944	0.167460
C65	C	-0.981593	-0.000050	-0.415675
C66	C	-0.481593	0.499950	0.084325
C67	C	-0.979767	-0.000044	-0.519987
C68	C	-0.479767	0.499956	-0.019987
C69	C	-0.976517	-0.000045	0.294501
C70	C	-0.476517	0.499955	0.794501
C71	C	-0.978317	-0.000038	0.396877
C72	C	-0.478317	0.499962	0.896877
H73	H	-0.385912	-0.000050	0.276799
H74	H	0.114088	0.499950	0.776799
C75	C	-0.411817	-0.000059	-0.052306
C76	C	0.088183	0.499941	0.447694
H77	H	-0.352557	-0.000047	-0.041402
H78	H	0.147443	0.499953	0.458598
H79	H	-0.430046	-0.057103	-0.086558
H80	H	0.069954	0.442897	0.413442
H81	H	-0.430054	0.056994	-0.086541
H82	H	0.069946	0.556994	0.413459
C83	C	-0.593938	-0.000061	-0.048762
C84	C	-0.093938	0.499939	0.451238
H85	H	-0.650394	-0.000071	-0.035599
H86	H	-0.150394	0.499929	0.464401
H87	H	-0.583752	0.056981	-0.083558
H88	H	-0.083752	0.556981	0.416442
H89	H	-0.583745	-0.057116	-0.083562
H90	H	-0.083745	0.442884	0.416438
C91	C	-0.552831	-0.000042	0.304109
C92	C	-0.052831	0.499958	0.804109
H93	H	-0.508757	-0.000050	0.353399
H94	H	-0.008757	0.499950	0.853399
H95	H	-0.586257	0.057002	0.308269
H96	H	-0.086257	0.557002	0.808269
H97	H	-0.586251	-0.057095	0.308254
H98	H	-0.086251	0.442905	0.808254
