data_functionalizedCrystal
_audit_creation_method	'MofGen! by Chris Wilmer'
_symmetry_space_group_name_H-M	'P1'
_symmetry_Int_Tables_number	1
_symmetry_cell_setting	triclinic
loop_
_symmetry_equiv_pos_as_xyz
  x,y,z
_cell_length_a	27.732048
_cell_length_b	27.732048
_cell_length_c	7.540329
_cell_angle_alpha	89.991480
_cell_angle_beta	90.002547
_cell_angle_gamma	82.642655
loop_
_atom_site_label
_atom_site_type_symbol
_atom_site_fract_x
_atom_site_fract_y
_atom_site_fract_z
O1	O	0.640926	0.057516	-0.147273
O2	O	0.500133	0.066262	-0.147329
O3	O	0.574902	-0.008508	-0.147265
O4	O	0.566157	0.132286	-0.147336
O5	O	0.574898	-0.008509	0.147700
O6	O	0.500128	0.066261	0.147636
O7	O	0.640922	0.057515	0.147692
Cu8	Cu	0.570525	0.061888	0.174597
Cu9	Cu	0.570530	0.061889	-0.174234
O10	O	0.566152	0.132285	0.147629
C11	C	0.482124	0.066078	0.000147
C12	C	0.428469	0.065525	0.000127
C13	C	0.089654	0.106229	0.000183
C14	C	-0.112006	0.104178	0.000200
O15	O	-0.143262	0.141398	0.000258
N16	N	-0.131130	0.059843	0.000219
C17	C	-0.099835	0.016017	0.000246
O18	O	-0.120728	-0.021740	0.000281
C19	C	0.101824	0.018068	0.000241
C20	C	0.120944	0.062407	0.000204
C21	C	0.108775	0.150563	0.000148
C22	C	0.159187	0.151075	0.000134
C23	C	0.190477	0.107253	0.000155
C24	C	0.171356	0.062919	0.000190
C25	C	0.133117	-0.025757	0.000281
C26	C	0.183535	-0.025240	0.000284
C27	C	0.202655	0.019098	0.000247
C28	C	0.253059	0.019609	0.000198
N29	N	0.272183	0.063944	0.000179
C30	C	0.240892	0.107766	0.000157
C31	C	-0.205709	0.014943	0.000244
C32	C	-0.256124	0.014430	0.000242
C33	C	-0.268291	0.102591	0.000200
C34	C	-0.217876	0.103104	0.000189
C35	C	-0.186585	0.059278	0.000225
C36	C	0.346761	0.108839	0.000127
C37	C	0.397178	0.109347	0.000105
C38	C	0.409341	0.021186	0.000157
C39	C	0.358929	0.020678	0.000169
C40	C	0.327639	0.064508	0.000160
O41	O	0.284343	-0.017592	0.000160
O42	O	0.261794	0.145518	0.000162
C43	C	0.039242	0.105716	0.000197
C44	C	0.020120	0.061382	0.000232
C45	C	0.051411	0.017560	0.000253
C46	C	-0.030294	0.060869	0.000230
C47	C	-0.061585	0.104691	0.000209
C48	C	-0.042461	0.149026	0.000189
C49	C	0.007951	0.149539	0.000176
C50	C	0.032287	-0.026775	0.000273
C51	C	-0.018125	-0.027284	0.000284
C52	C	-0.049416	0.016538	0.000263
C53	C	0.574716	-0.026515	0.000222
C54	C	0.574164	-0.080170	0.000236
C55	C	0.614867	-0.418985	0.000162
C56	C	0.612816	-0.620645	0.000136
O57	O	0.650037	-0.651900	0.000073
N58	N	0.568481	-0.639768	0.000120
C59	C	0.524656	-0.608474	0.000099
O60	O	0.486899	-0.629367	0.000066
C61	C	0.526707	-0.406815	0.000111
C62	C	0.571045	-0.387694	0.000145
C63	C	0.659202	-0.399864	0.000194
C64	C	0.659714	-0.349452	0.000210
C65	C	0.615892	-0.318161	0.000194
C66	C	0.571557	-0.337282	0.000162
C67	C	0.482882	-0.375521	0.000077
C68	C	0.483399	-0.325104	0.000076
C69	C	0.527737	-0.305983	0.000110
C70	C	0.528248	-0.255580	0.000162
N71	N	0.572583	-0.236456	0.000178
C72	C	0.616405	-0.267747	0.000194
C73	C	0.523582	-0.714348	0.000095
C74	C	0.523069	-0.764762	0.000095
C75	C	0.611230	-0.776930	0.000129
C76	C	0.611742	-0.726514	0.000142
C77	C	0.567917	-0.695224	0.000111
C78	C	0.617477	-0.161878	0.000229
C79	C	0.617986	-0.111461	0.000252
C80	C	0.529825	-0.099298	0.000209
C81	C	0.529316	-0.149710	0.000195
C82	C	0.573147	-0.180999	0.000199
O83	O	0.491047	-0.224296	0.000204
O84	O	0.654156	-0.246844	0.000187
C85	C	0.614355	-0.469397	0.000145
C86	C	0.570021	-0.488518	0.000113
C87	C	0.526198	-0.457228	0.000097
C88	C	0.569508	-0.538933	0.000113
C89	C	0.613330	-0.570223	0.000129
C90	C	0.657665	-0.551100	0.000145
C91	C	0.658177	-0.500688	0.000161
C92	C	0.481863	-0.476351	0.000081
C93	C	0.481355	-0.526764	0.000067
C94	C	0.525177	-0.558054	0.000083
C95	C	0.658931	0.057699	0.000213
C96	C	0.712586	0.058252	0.000221
C97	C	0.566338	0.150292	0.000137
C98	C	0.566891	0.203947	0.000111
N99	N	0.570524	0.061887	0.419945
N100	N	0.570534	0.061886	-0.419582
H101	H	0.083302	0.186251	0.000137
H102	H	0.446177	-0.450879	0.000064
H103	H	0.343360	-0.015426	0.000173
O104	O	0.653755	-0.807399	0.000051
C105	C	0.643789	-0.855994	0.000085
H106	H	0.605833	-0.857640	-0.055749
H107	H	0.671739	-0.879039	-0.085564
H108	H	0.645736	-0.870598	0.141591
O109	O	0.213949	-0.067801	0.000625
C110	C	0.243488	-0.070139	0.153361
H111	H	0.224848	-0.045278	0.260124
H112	H	0.249440	-0.109119	0.204662
H113	H	0.280062	-0.057912	0.118804
H114	H	0.434827	-0.014492	0.000168
H115	H	-0.033688	-0.063392	0.000301
H116	H	-0.271687	-0.021674	0.000245
O117	O	-0.199245	0.146142	0.000396
C118	C	-0.170458	0.149086	0.153184
H119	H	-0.157618	0.110893	0.204143
H120	H	-0.137584	0.168106	0.118815
H121	H	-0.192891	0.170641	0.260138
O122	O	0.702771	-0.330857	0.000532
C123	C	0.705708	-0.302056	0.153271
H124	H	0.680539	-0.313796	0.260048
H125	H	0.744701	-0.306873	0.204548
H126	H	0.694258	-0.262211	0.118729
O127	O	0.062727	-0.069316	0.000044
C128	C	0.092238	-0.071663	-0.152756
H129	H	0.094512	-0.033314	-0.203695
H130	H	0.130264	-0.089967	-0.118413
H131	H	0.075801	-0.093606	-0.259717
O132	O	0.026441	0.192652	0.000230
C133	C	-0.011996	0.231215	0.000170
H134	H	-0.046145	0.217920	0.056021
H135	H	-0.001690	0.262194	0.085791
H136	H	-0.019233	0.244714	-0.141346
O137	O	-0.072911	0.191564	-0.000067
C138	C	-0.102433	0.193909	-0.152848
H139	H	-0.104697	0.155560	-0.203763
H140	H	-0.140461	0.212198	-0.118488
H141	H	-0.086014	0.215864	-0.259832
O142	O	0.486236	-0.168265	-0.000143
C143	C	0.459545	-0.152221	-0.152894
H144	H	0.485480	-0.141912	-0.259641
H145	H	0.439215	-0.182611	-0.204210
H146	H	0.432356	-0.119167	-0.118353
O147	O	0.480029	-0.783390	-0.000157
C148	C	0.477089	-0.812170	-0.152950
H149	H	0.515284	-0.825008	-0.203859
H150	H	0.458067	-0.845045	-0.118608
H151	H	0.455540	-0.789730	-0.259932
O152	O	-0.298671	0.145174	-0.000126
C153	C	-0.290054	0.172129	-0.152869
H154	H	-0.272634	0.146485	-0.259646
H155	H	-0.325972	0.191784	-0.204142
H156	H	-0.264588	0.199914	-0.118334
H157	H	0.446777	-0.391080	0.000039
H158	H	0.494146	-0.073812	0.000202
O159	O	0.480962	-0.684024	0.000160
C160	C	0.441727	-0.711721	0.000108
H161	H	0.454291	-0.749443	0.055948
H162	H	0.411044	-0.692908	0.085742
H163	H	0.428118	-0.715207	-0.141405
H164	H	0.174750	0.187180	0.000103
O165	O	0.438294	-0.545358	0.000346
C166	C	0.435352	-0.574177	0.153068
H167	H	0.460517	-0.562448	0.259876
H168	H	0.396358	-0.569366	0.204308
H169	H	0.446804	-0.614017	0.118518
H170	H	0.647846	-0.710950	0.000168
H171	H	0.654093	-0.095896	0.000285
O172	O	0.660097	-0.192199	0.000318
C173	C	0.699333	-0.164502	0.000307
H174	H	0.686768	-0.126785	0.056148
H175	H	0.730014	-0.183323	0.085960
H176	H	0.712945	-0.161002	-0.141193
H177	H	0.694889	-0.425336	0.000200
O178	O	0.440781	-0.294778	0.000125
C179	C	0.401542	-0.322470	0.000046
H180	H	0.414100	-0.360194	0.055891
H181	H	0.370857	-0.303655	0.085662
H182	H	0.387940	-0.325955	-0.141475
O183	O	0.701290	-0.482198	0.000104
C184	C	0.739853	-0.520634	0.000158
H185	H	0.726559	-0.554782	-0.055693
H186	H	0.770834	-0.510326	-0.085467
H187	H	0.753350	-0.527876	0.141672
H188	H	0.693347	-0.576585	0.000166
H189	H	-0.180236	-0.020747	0.000274
O190	O	0.415692	0.152451	-0.000165
C191	C	0.399671	0.179135	-0.152964
H192	H	0.364798	0.166223	-0.203876
H193	H	0.392375	0.219442	-0.118629
H194	H	0.428885	0.173316	-0.259941
O195	O	0.114632	-0.068870	0.000412
C196	C	0.153070	-0.107432	0.000403
H197	H	0.187221	-0.094134	0.056217
H198	H	0.142769	-0.138408	0.086081
H199	H	0.160301	-0.120936	-0.141093
O200	O	0.316322	0.151383	-0.000131
C201	C	0.286802	0.153731	-0.152918
H202	H	0.284525	0.115383	-0.203814
H203	H	0.248778	0.172034	-0.118574
H204	H	0.303232	0.175676	-0.259911
