data_functionalizedCrystal
_audit_creation_method	'MofGen! by Chris Wilmer'
_symmetry_space_group_name_H-M	'P1'
_symmetry_Int_Tables_number	1
_symmetry_cell_setting	triclinic
loop_
_symmetry_equiv_pos_as_xyz
  x,y,z
_cell_length_a	17.038272
_cell_length_b	16.098538
_cell_length_c	17.038272
_cell_angle_alpha	92.920305
_cell_angle_beta	88.888444
_cell_angle_gamma	92.930266
loop_
_atom_site_label
_atom_site_type_symbol
_atom_site_fract_x
_atom_site_fract_y
_atom_site_fract_z
O1	O	1.052033	0.069152	-0.167266
O2	O	1.385366	0.402486	0.166067
O3	O	1.718699	0.735819	0.499401
O4	O	0.824222	0.069177	-0.164557
O5	O	1.157556	0.402510	0.168776
O6	O	1.490889	0.735844	0.502110
O7	O	0.936773	0.069158	-0.052006
O8	O	1.270106	0.402492	0.281327
O9	O	1.603440	0.735825	0.614661
O10	O	0.939482	0.069171	-0.279817
O11	O	1.272815	0.402504	0.053516
O12	O	1.606148	0.735838	0.386850
O13	O	0.930197	-0.069354	-0.058553
O14	O	1.263530	0.263980	0.274780
O15	O	1.596863	0.597313	0.608114
O16	O	0.817646	-0.069335	-0.171104
O17	O	1.150979	0.263998	0.162229
O18	O	1.484312	0.597332	0.495563
O19	O	1.045456	-0.069359	-0.173813
O20	O	1.378789	0.263974	0.159520
O21	O	1.712123	0.597307	0.492854
Zn22	Zn	0.930507	-0.091339	-0.173498
Zn23	Zn	1.263840	0.241994	0.159835
Zn24	Zn	1.597173	0.575328	0.493169
Zn25	Zn	0.939172	0.091156	-0.164872
Zn26	Zn	1.272505	0.424490	0.168461
Zn27	Zn	1.605838	0.757823	0.501795
O28	O	0.932905	-0.069341	-0.286364
O29	O	1.266238	0.263993	0.046969
O30	O	1.599572	0.597326	0.380303
C31	C	0.791641	-0.000076	-0.165367
C32	C	1.124975	0.333257	0.167966
C33	C	1.458308	0.666591	0.501299
C34	C	0.704358	-0.000067	-0.158019
C35	C	1.037692	0.333267	0.175314
C36	C	1.371025	0.666600	0.508648
N37	N	0.924599	-0.215887	-0.179385
N38	N	1.257932	0.117446	0.153948
N39	N	1.591266	0.450780	0.487282
C40	C	0.658749	-0.000064	-0.225482
C41	C	0.992082	0.333270	0.107851
C42	C	1.325416	0.666603	0.441184
C43	C	0.576737	-0.000075	-0.218574
C44	C	0.910070	0.333258	0.114759
C45	C	1.243403	0.666591	0.448093
C46	C	0.540335	-0.000085	-0.144201
C47	C	0.873668	0.333249	0.189132
C48	C	1.207002	0.666582	0.522466
C49	C	0.585950	-0.000090	-0.076733
C50	C	0.919284	0.333243	0.256601
C51	C	1.252617	0.666576	0.589934
C52	C	0.667961	-0.000084	-0.083642
C53	C	1.001294	0.333249	0.249691
C54	C	1.334627	0.666582	0.583025
C55	C	0.292946	-0.000108	-0.119792
C56	C	0.626279	0.333225	0.213542
C57	C	0.959613	0.666558	0.546875
C58	C	0.210929	-0.000112	-0.112887
C59	C	0.544263	0.333222	0.220446
C60	C	0.877596	0.666555	0.553780
C61	C	0.201722	-0.000098	-0.254729
C62	C	0.535055	0.333235	0.078604
C63	C	0.868388	0.666568	0.411937
C64	C	0.283734	-0.000088	-0.261632
C65	C	0.617068	0.333246	0.071701
C66	C	0.950401	0.666579	0.405035
C67	C	0.329342	-0.000098	-0.194164
C68	C	0.662675	0.333236	0.139170
C69	C	0.996009	0.666569	0.472503
C70	C	0.456505	-0.000094	-0.137138
C71	C	0.789839	0.333239	0.196196
C72	C	1.123172	0.666573	0.529529
C73	C	0.413170	-0.000094	-0.201228
C74	C	0.746503	0.333239	0.132105
C75	C	1.079837	0.666573	0.465439
C76	C	0.972390	-0.259480	-0.131633
C77	C	1.305723	0.073853	0.201700
C78	C	1.639057	0.407187	0.535034
C79	C	0.968265	-0.346668	-0.135759
C80	C	1.301598	-0.013335	0.197574
C81	C	1.634932	0.319998	0.530907
C82	C	0.916352	-0.390262	-0.187642
C83	C	1.249686	-0.056929	0.145692
C84	C	1.583019	0.276405	0.479025
C85	C	0.868556	-0.346663	-0.235395
C86	C	1.201889	-0.013330	0.097938
C87	C	1.535223	0.320004	0.431271
C88	C	0.872678	-0.259476	-0.231265
C89	C	1.206011	0.073857	0.102069
C90	C	1.539344	0.407190	0.435402
C91	C	0.901410	-0.653510	-0.202602
C92	C	1.234744	-0.320176	0.130731
C93	C	1.568077	0.013157	0.464065
C94	C	0.897294	-0.740702	-0.206731
C95	C	1.230628	-0.407369	0.126602
C96	C	1.563961	-0.074036	0.459936
C97	C	0.997003	-0.740702	-0.107093
C98	C	1.330336	-0.407368	0.226240
C99	C	1.663669	-0.074035	0.559573
C100	C	1.001123	-0.653513	-0.102971
C101	C	1.334456	-0.320180	0.230363
C102	C	1.667789	0.013153	0.563696
C103	C	0.953324	-0.609922	-0.150721
C104	C	1.286657	-0.276589	0.182612
C105	C	1.619990	0.056745	0.515945
C106	C	0.912136	-0.479383	-0.191862
C107	C	1.245470	-0.146049	0.141471
C108	C	1.578803	0.187284	0.474804
C109	C	0.957536	-0.520803	-0.146496
C110	C	1.290869	-0.187470	0.186837
C111	C	1.624203	0.145864	0.520170
C112	C	1.078037	-0.000105	-0.173002
C113	C	1.411370	0.333229	0.160331
C114	C	1.744704	0.666562	0.493664
C115	C	1.165320	-0.000108	-0.180351
C116	C	1.498654	0.333225	0.152983
C117	C	1.831987	0.666558	0.486316
C118	C	0.931022	-0.000097	-0.025987
C119	C	1.264355	0.333236	0.307347
C120	C	1.597689	0.666569	0.640680
C121	C	0.923674	-0.000096	0.061297
C122	C	1.257007	0.333237	0.394630
C123	C	1.590341	0.666570	0.727964
N124	N	0.945085	0.215705	-0.158979
N125	N	1.278419	0.549038	0.174354
N126	N	1.611752	0.882371	0.507688
C127	C	0.938656	-0.000083	-0.312383
C128	C	1.271990	0.333250	0.020950
C129	C	1.605323	0.666583	0.354284
C130	C	0.946005	-0.000079	-0.399666
C131	C	1.279338	0.333254	-0.066333
C132	C	1.612671	0.666588	0.267000
C133	C	0.991137	-0.000104	0.106906
C134	C	1.324471	0.333229	0.440239
C135	C	1.657804	0.666562	0.773572
C136	C	0.984229	-0.000096	0.188918
C137	C	1.317562	0.333238	0.522251
C138	C	1.650895	0.666571	0.855585
C139	C	0.909856	-0.000085	0.225320
C140	C	1.243189	0.333248	0.558653
C141	C	1.576523	0.666582	0.891986
C142	C	0.842388	-0.000074	0.179705
C143	C	1.175721	0.333259	0.513038
C144	C	1.509054	0.666592	0.846372
C145	C	0.849297	-0.000077	0.097694
C146	C	1.182631	0.333256	0.431028
C147	C	1.515964	0.666590	0.764361
C148	C	0.885446	-0.000071	0.472708
C149	C	1.218779	0.333262	0.806042
C150	C	1.552113	0.666596	1.139375
C151	C	0.878541	-0.000071	0.554725
C152	C	1.211875	0.333263	0.888058
C153	C	1.545208	0.666596	1.221391
C154	C	1.020383	-0.000091	0.563932
C155	C	1.353716	0.333243	0.897266
C156	C	1.687050	0.666576	1.230599
C157	C	1.027286	-0.000098	0.481920
C158	C	1.360619	0.333235	0.815253
C159	C	1.693953	0.666568	1.148586
C160	C	0.959818	-0.000083	0.436312
C161	C	1.293151	0.333250	0.769646
C162	C	1.626485	0.666583	1.102979
C163	C	0.902792	-0.000079	0.309149
C164	C	1.236126	0.333255	0.642483
C165	C	1.569459	0.666588	0.975816
C166	C	0.966882	-0.000084	0.352485
C167	C	1.300216	0.333250	0.685818
C168	C	1.633549	0.666583	1.019151
H169	H	0.539605	-0.000072	-0.273510
H170	H	0.872938	0.333261	0.059823
H171	H	1.206272	0.666595	0.393156
N172	N	1.013512	-0.473777	-0.090532
N173	N	1.346845	-0.140444	0.242801
N174	N	1.680178	0.192889	0.576135
H175	H	1.051982	-0.437588	-0.121162
H176	H	1.385315	-0.104254	0.212171
H177	H	1.718649	0.229079	0.545505
H178	H	1.043114	-0.514665	-0.060912
H179	H	1.376447	-0.181331	0.272422
H180	H	1.709780	0.152002	0.605755
N181	N	0.762173	-0.000066	0.218969
N182	N	1.095507	0.333268	0.552302
N183	N	1.428840	0.666601	0.885636
H184	H	0.729933	-0.051408	0.200257
H185	H	1.063266	0.281925	0.533590
H186	H	1.396600	0.615258	0.866923
H187	H	0.734873	0.051318	0.205098
H188	H	1.068206	0.384652	0.538431
H189	H	1.401540	0.717985	0.871765
N190	N	0.546684	-0.000110	0.003481
N191	N	0.880018	0.333224	0.336814
N192	N	1.213351	0.666557	0.670147
H193	H	0.515294	0.051234	0.011939
H194	H	0.848627	0.384567	0.345272
H195	H	1.181960	0.717901	0.678605
H196	H	0.588065	-0.000146	0.045123
H197	H	0.921398	0.333187	0.378457
H198	H	1.254732	0.666520	0.711790
H199	H	0.842238	-0.000072	0.338796
H200	H	1.175571	0.333262	0.672130
H201	H	1.508904	0.666595	1.005463
H202	H	0.181294	-0.000118	-0.052321
H203	H	0.514628	0.333215	0.281012
H204	H	0.847961	0.666548	0.614346
H205	H	0.688381	-0.000056	-0.286045
H206	H	1.021714	0.333278	0.047289
H207	H	1.355048	0.666611	0.380622
H208	H	0.869870	-0.514884	-0.234107
H209	H	1.203203	-0.181550	0.099226
H210	H	1.536536	0.151783	0.432559
N211	N	1.048549	-0.787716	-0.055587
N212	N	1.381882	-0.454383	0.277747
N213	N	1.715216	-0.121049	0.611080
H214	H	1.105604	-0.772533	-0.067653
H215	H	1.438937	-0.439199	0.265680
H216	H	1.772270	-0.105866	0.599013
H217	H	1.037997	-0.849548	-0.066097
H218	H	1.371331	-0.516215	0.267237
H219	H	1.704664	-0.182882	0.600570
H220	H	1.051699	-0.000118	0.077274
H221	H	1.385033	0.333215	0.410607
H222	H	1.718366	0.666548	0.743940
N223	N	1.056992	-0.000109	0.238111
N224	N	1.390325	0.333224	0.571445
N225	N	1.723659	0.666557	0.904778
H226	H	1.105154	-0.000124	0.202606
H227	H	1.438488	0.333209	0.535940
H228	H	1.771821	0.666543	0.869273
H229	H	1.054769	-0.051457	0.269914
H230	H	1.388103	0.281876	0.603248
H231	H	1.721436	0.615209	0.936581
N232	N	0.841306	-0.787733	-0.262692
N233	N	1.174639	-0.454400	0.070641
N234	N	1.507973	-0.121067	0.403975
H235	H	0.854770	-0.772548	-0.318318
H236	H	1.188103	-0.439215	0.015015
H237	H	1.521436	-0.105882	0.348349
H238	H	0.785703	-0.772564	-0.249123
H239	H	1.119036	-0.439231	0.084210
H240	H	1.452369	-0.105897	0.417543
H241	H	0.705095	-0.000086	-0.028706
H242	H	1.038429	0.333247	0.304627
H243	H	1.371762	0.666580	0.637961
H244	H	1.027437	-0.000074	0.322844
H245	H	1.360771	0.333259	0.656177
H246	H	1.694104	0.666593	0.989510
N247	N	0.849854	-0.606499	-0.254098
N248	N	1.183187	-0.273166	0.079235
N249	N	1.516520	0.060167	0.412569
H250	H	0.816344	-0.647348	-0.287591
H251	H	1.149678	-0.314015	0.045742
H252	H	1.483011	0.019319	0.379076
H253	H	0.883929	-0.570309	-0.289122
H254	H	1.217262	-0.236976	0.044211
H255	H	1.550595	0.096357	0.377544
N256	N	1.107508	-0.000108	0.442672
N257	N	1.440842	0.333225	0.776006
N258	N	1.774175	0.666559	1.109339
H259	H	1.139746	0.051236	0.461385
H260	H	1.473079	0.384569	0.794718
H261	H	1.806413	0.717903	1.128052
H262	H	1.101591	-0.000142	0.383805
H263	H	1.434924	0.333192	0.717139
H264	H	1.768257	0.666525	1.050472
H265	H	0.330070	-0.000117	-0.064854
H266	H	0.663404	0.333216	0.268480
H267	H	0.996737	0.666550	0.601813
N268	N	1.093149	-0.000108	0.613122
N269	N	1.426482	0.333225	0.946455
N270	N	1.759815	0.666559	1.279789
H271	H	1.077490	-0.000105	0.670599
H272	H	1.410823	0.333228	1.003932
H273	H	1.744156	0.666561	1.337266
H274	H	1.127765	0.051235	0.603222
H275	H	1.461098	0.384569	0.936555
H276	H	1.794431	0.717902	1.269888
N277	N	1.019841	-0.393675	-0.084275
N278	N	1.353174	-0.060342	0.249058
N279	N	1.686507	0.272991	0.582391
H280	H	1.007834	-0.378514	-0.027206
H281	H	1.341168	-0.045181	0.306127
H282	H	1.674501	0.288152	0.639460
H283	H	1.076865	-0.378453	-0.096437
H284	H	1.410198	-0.045120	0.236896
H285	H	1.743532	0.288213	0.570230
H286	H	0.830508	-0.000059	0.435584
H287	H	1.163842	0.333274	0.768918
H288	H	1.497175	0.666608	1.102251
N289	N	0.776531	-0.000091	0.048500
N290	N	1.109865	0.333242	0.381833
N291	N	1.443198	0.666576	0.715166
H292	H	0.792193	-0.000097	-0.008977
H293	H	1.125526	0.333237	0.324356
H294	H	1.458859	0.666570	0.657690
H295	H	0.746784	0.051257	0.063241
H296	H	1.080118	0.384590	0.396575
H297	H	1.413451	0.717923	0.729908
H298	H	0.817975	-0.000075	0.584359
H299	H	1.151308	0.333258	0.917693
H300	H	1.484641	0.666591	1.251026
H301	H	0.426857	-0.000125	-0.076584
H302	H	0.760190	0.333208	0.256749
H303	H	1.093524	0.666542	0.590083
H304	H	0.826283	-0.382162	-0.277636
H305	H	1.159617	-0.048829	0.055697
H306	H	1.492950	0.284505	0.389030
N307	N	0.821128	-0.212454	-0.282763
N308	N	1.154461	0.120880	0.050570
N309	N	1.487794	0.454213	0.383903
H310	H	0.787616	-0.253298	-0.316258
H311	H	1.120949	0.080035	0.017075
H312	H	1.454282	0.413368	0.350408
H313	H	0.855207	-0.176266	-0.317786
H314	H	1.188540	0.157067	0.015547
H315	H	1.521873	0.490401	0.348881
H316	H	1.043394	-0.618021	-0.060724
H317	H	1.376727	-0.284688	0.272609
H318	H	1.710061	0.048646	0.605943
N319	N	0.322996	-0.000062	-0.341847
N320	N	0.656329	0.333271	-0.008514
N321	N	0.989662	0.666605	0.324819
H322	H	0.281657	-0.000058	-0.383538
H323	H	0.614990	0.333275	-0.050205
H324	H	0.948324	0.666609	0.283128
H325	H	0.354397	-0.051402	-0.350241
H326	H	0.687731	0.281931	-0.016907
H327	H	1.021064	0.615264	0.316426
H328	H	0.442811	-0.000091	-0.261782
H329	H	0.776145	0.333242	0.071551
H330	H	1.109478	0.666575	0.404884
N331	N	0.152540	-0.000098	-0.327501
N332	N	0.485873	0.333236	0.005832
N333	N	0.819207	0.666569	0.339165
H334	H	0.120736	0.051245	-0.325377
H335	H	0.454069	0.384578	0.007956
H336	H	0.787403	0.717911	0.341290
H337	H	0.115927	-0.051482	-0.330186
H338	H	0.449261	0.281851	0.003147
H339	H	0.782594	0.615184	0.336480
H340	H	1.014666	-0.223992	-0.089389
H341	H	1.347999	0.109341	0.243945
H342	H	1.681333	0.442675	0.577278
