data_functionalizedCrystal
_audit_creation_method	'MofGen! by Chris Wilmer'
_symmetry_space_group_name_H-M	'P1'
_symmetry_Int_Tables_number	1
_symmetry_cell_setting	triclinic
loop_
_symmetry_equiv_pos_as_xyz
  x,y,z
_cell_length_a	12.996460
_cell_length_b	16.109301
_cell_length_c	16.109301
_cell_angle_alpha	83.461481
_cell_angle_beta	90.007591
_cell_angle_gamma	89.998305
loop_
_atom_site_label
_atom_site_type_symbol
_atom_site_fract_x
_atom_site_fract_y
_atom_site_fract_z
O1	O	-0.085505	-1.103127	-0.106869
O2	O	0.414495	-0.603127	0.393131
O3	O	-0.085522	-0.861065	-0.120169
O4	O	0.414478	-0.361065	0.379831
O5	O	-0.085503	-0.988746	0.007512
O6	O	0.414497	-0.488746	0.507512
O7	O	-0.085524	-0.975447	-0.234550
O8	O	0.414476	-0.475447	0.265450
O9	O	0.085631	-0.988744	0.007520
O10	O	0.585631	-0.488744	0.507520
O11	O	0.085612	-0.861063	-0.120160
O12	O	0.585612	-0.361063	0.379840
O13	O	0.085629	-1.103125	-0.106861
O14	O	0.585629	-0.603125	0.393139
Cu15	Cu	0.101246	-0.982094	-0.113510
Cu16	Cu	0.601246	-0.482094	0.386490
Cu17	Cu	-0.101139	-0.982097	-0.113520
Cu18	Cu	0.398861	-0.482097	0.386480
O19	O	0.085609	-0.975445	-0.234542
O20	O	0.585609	-0.475445	0.265458
C21	C	0.000043	-0.830090	-0.119626
C22	C	0.500043	-0.330090	0.380374
C23	C	0.000037	-0.737794	-0.118011
C24	C	0.500037	-0.237794	0.381989
N25	N	-0.243486	-0.982099	-0.113521
N26	N	0.256514	-0.482099	0.386479
C27	C	0.000065	-0.988206	0.038491
C28	C	0.500065	-0.488206	0.538491
C29	C	0.000066	-0.986591	0.130786
C30	C	0.500066	-0.486591	0.630786
C31	C	-0.663301	-0.982095	-0.113513
C32	C	-0.163301	-0.482095	0.386487
C33	C	-0.546496	-0.982093	-0.113517
C34	C	-0.046496	-0.482093	0.386483
C35	C	-0.453397	-0.982096	-0.113516
C36	C	0.046603	-0.482096	0.386484
C37	C	-0.336585	-0.982096	-0.113522
C38	C	0.163415	-0.482096	0.386478
N39	N	0.243593	-0.982098	-0.113502
N40	N	0.743593	-0.482098	0.386498
C41	C	0.000062	-1.134101	-0.107404
C42	C	0.500062	-0.634101	0.392596
C43	C	0.000061	-1.226397	-0.109019
C44	C	0.500061	-0.726397	0.390981
C45	C	0.000042	-0.515522	-0.190018
C46	C	0.500042	-0.015522	0.309982
C47	C	0.000049	-0.428801	-0.188494
C48	C	0.500049	0.071199	0.311506
C49	C	0.000059	-0.448676	-0.037006
C50	C	0.500059	0.051324	0.462994
C51	C	0.000059	-0.535394	-0.038530
C52	C	0.500059	-0.035394	0.461470
C53	C	0.000046	-0.568815	-0.115039
C54	C	0.500046	-0.068815	0.384961
C55	C	0.000052	-0.395376	-0.111990
C56	C	0.500052	0.104624	0.388010
C57	C	0.000059	-0.301350	-0.110337
C58	C	0.500059	0.198650	0.389663
C59	C	0.000041	-0.662847	-0.116693
C60	C	0.500041	-0.162847	0.383307
C61	C	0.000040	-0.975984	-0.265521
C62	C	0.500040	-0.475984	0.234479
C63	C	0.000032	-0.977600	-0.357816
C64	C	0.500032	-0.477600	0.142184
C65	C	0.000055	-1.058599	0.353059
C66	C	0.500055	-0.558599	0.853059
C67	C	0.000046	-1.057075	0.439779
C68	C	0.500046	-0.557075	0.939779
C69	C	0.000040	-0.905586	0.419905
C70	C	0.500040	-0.405586	0.919905
C71	C	0.000041	-0.907111	0.333186
C72	C	0.500041	-0.407111	0.833186
C73	C	0.000054	-0.983620	0.299766
C74	C	0.500054	-0.483620	0.799766
C75	C	0.000044	-0.980571	0.473205
C76	C	0.500044	-0.480571	0.973205
C77	C	0.000035	-0.978918	0.567231
C78	C	0.500035	-0.478918	1.067231
C79	C	0.000061	-0.985273	0.205734
C80	C	0.500061	-0.485273	0.705734
H81	H	0.000048	-0.385413	-0.249550
H82	H	0.500048	0.114587	0.250450
F83	F	0.000032	-0.551087	-0.271446
F84	F	0.500032	-0.051087	0.228554
F85	F	0.000068	-0.413100	0.044416
F86	F	0.500068	0.086900	0.544416
H87	H	0.000063	-1.120897	0.325851
H88	H	0.500063	-0.620897	0.825851
F89	F	0.000045	-1.136878	0.496495
F90	F	0.500045	-0.636878	0.996495
H91	H	0.000065	-0.578788	0.022530
H92	H	0.500065	-0.078788	0.522530
F93	F	0.000026	-0.824164	0.455481
F94	F	0.500026	-0.324164	0.955481
H95	H	0.000037	-0.846050	0.289792
H96	H	0.500037	-0.346050	0.789792
