data_functionalizedCrystal
_audit_creation_method	'MofGen! by Chris Wilmer'
_symmetry_space_group_name_H-M	'P1'
_symmetry_Int_Tables_number	1
_symmetry_cell_setting	triclinic
loop_
_symmetry_equiv_pos_as_xyz
  x,y,z
_cell_length_a	21.295420
_cell_length_b	21.295417
_cell_length_c	21.295412
_cell_angle_alpha	90.029621
_cell_angle_beta	90.023648
_cell_angle_gamma	90.027953
loop_
_atom_site_label
_atom_site_type_symbol
_atom_site_fract_x
_atom_site_fract_y
_atom_site_fract_z
Zn1	Zn	0.962352	-0.250654	0.355918
Zn2	Zn	1.462352	0.249346	0.855918
Zn3	Zn	0.962258	-0.355923	0.250646
Zn4	Zn	1.462258	0.144077	0.750646
Zn5	Zn	0.857078	-0.250668	0.250663
Zn6	Zn	1.357078	0.249332	0.750663
Zn7	Zn	0.857046	-0.355886	0.355877
Zn8	Zn	1.357046	0.144114	0.855877
O9	O	0.909684	-0.303283	0.303276
O10	O	1.409684	0.196717	0.803276
O11	O	1.050429	-0.264628	0.341964
O12	O	1.550429	0.235372	0.841964
O13	O	0.948279	-0.341981	0.162558
O14	O	1.448279	0.158019	0.662558
O15	O	0.871095	-0.162577	0.264650
O16	O	1.371095	0.337423	0.764650
O17	O	1.050360	-0.341968	0.264620
O18	O	1.550360	0.158032	0.764620
O19	O	0.948440	-0.162567	0.341980
O20	O	1.448440	0.337433	0.841980
O21	O	0.871004	-0.264651	0.162571
O22	O	1.371004	0.235349	0.662571
O23	O	0.768984	-0.264616	0.264610
O24	O	1.268984	0.235384	0.764610
O25	O	0.871042	-0.341906	0.443972
O26	O	1.371042	0.158094	0.943972
O27	O	0.768961	-0.341919	0.341910
O28	O	1.268961	0.158081	0.841910
O29	O	0.948410	-0.264593	0.444002
O30	O	1.448410	0.235407	0.944002
O31	O	0.948249	-0.444007	0.264580
O32	O	1.448249	0.055993	0.764580
O33	O	0.870951	-0.443981	0.341893
O34	O	1.370951	0.056019	0.841893
C35	C	0.746132	-0.303266	0.303258
C36	C	1.246132	0.196734	0.803258
C37	C	0.676164	-0.303274	0.303265
C38	C	1.176164	0.196726	0.803265
C39	C	0.909603	-0.466834	0.303244
C40	C	1.409603	0.033166	0.803244
C41	C	0.909627	-0.536803	0.303251
C42	C	1.409627	-0.036803	0.803251
C43	C	0.176711	-0.343609	0.343487
C44	C	0.676711	0.156391	0.843487
C45	C	0.242453	-0.343609	0.343481
C46	C	0.742453	0.156391	0.843481
C47	C	0.275324	-0.303297	0.303296
C48	C	0.775324	0.196703	0.803296
C49	C	0.242448	-0.262993	0.263103
C50	C	0.742448	0.237007	0.763103
C51	C	0.176707	-0.262999	0.263106
C52	C	0.676707	0.237001	0.763106
N53	N	0.378565	-0.248180	0.298562
N54	N	0.878565	0.251820	0.798562
N55	N	0.441016	-0.248177	0.298563
N56	N	0.941016	0.251823	0.798563
C57	C	0.473399	-0.303279	0.303282
C58	C	0.973399	0.196721	0.803282
N59	N	0.440972	-0.358386	0.308014
N60	N	0.940972	0.141614	0.808014
N61	N	0.378515	-0.358389	0.308017
N62	N	0.878515	0.141611	0.808017
C63	C	0.346610	-0.303287	0.303287
C64	C	0.846610	0.196713	0.803287
C65	C	0.577553	-0.343584	0.343462
C66	C	1.077553	0.156416	0.843462
C67	C	0.643297	-0.343585	0.343451
C68	C	1.143297	0.156415	0.843451
C69	C	0.643291	-0.262964	0.263077
C70	C	1.143291	0.237036	0.763077
C71	C	0.577548	-0.262968	0.263085
C72	C	1.077548	0.237032	0.763085
C73	C	0.544683	-0.303277	0.303281
C74	C	1.044683	0.196723	0.803281
C75	C	0.949877	-0.569607	0.343546
C76	C	1.449877	-0.069607	0.843546
C77	C	0.949899	-0.635349	0.343562
C78	C	1.449899	-0.135349	0.843562
C79	C	0.909678	-0.668285	0.303271
C80	C	1.409678	-0.168285	0.803271
C81	C	0.869419	-0.635473	0.262974
C82	C	1.369419	-0.135473	0.762974
C83	C	0.869394	-0.569732	0.262964
C84	C	1.369394	-0.069732	0.762964
N85	N	0.904919	-0.771546	0.248180
N86	N	1.404919	-0.271546	0.748180
N87	N	0.904947	-0.833997	0.248191
N88	N	1.404947	-0.333997	0.748191
C89	C	0.909751	-0.866360	0.303300
C90	C	1.409751	-0.366360	0.803300
N91	N	0.914539	-0.833911	0.358398
N92	N	1.414539	-0.333911	0.858398
N93	N	0.914514	-0.771454	0.358386
N94	N	1.414514	-0.271454	0.858386
C95	C	0.909701	-0.739570	0.303278
C96	C	1.409701	-0.239570	0.803278
C97	C	0.950028	-0.970449	0.343615
C98	C	1.450028	-0.470449	0.843615
C99	C	0.950046	-1.036193	0.343631
C100	C	1.450046	-0.536193	0.843631
C101	C	0.869569	-1.036316	0.263038
C102	C	1.369569	-0.536316	0.763038
C103	C	0.869548	-0.970573	0.263027
C104	C	1.369548	-0.470573	0.763027
C105	C	0.909781	-0.937644	0.303314
C106	C	1.409781	-0.437644	0.803314
C107	C	1.073874	-0.303300	0.303294
C108	C	1.573874	0.196700	0.803294
C109	C	1.143842	-0.303308	0.303302
C110	C	1.643842	0.196692	0.803302
C111	C	0.909733	-0.303244	0.467466
C112	C	1.409733	0.196756	0.967466
C113	C	0.909754	-0.303227	0.537434
C114	C	1.409754	0.196773	1.037434
C115	C	0.909781	-0.139093	0.303322
C116	C	1.409781	0.360907	0.803322
C117	C	0.909823	-0.069124	0.303341
C118	C	1.409823	0.430876	0.803341
C119	C	0.909671	-0.303276	0.139724
C120	C	1.409671	0.196724	0.639724
C121	C	0.909772	-0.303116	0.069757
C122	C	1.409772	0.196884	0.569757
C123	C	0.869527	-0.262957	0.570298
C124	C	1.369527	0.237043	1.070298
C125	C	0.869525	-0.262945	0.636040
C126	C	1.369525	0.237055	1.136040
C127	C	0.909761	-0.303197	0.668917
C128	C	1.409761	0.196803	1.168917
C129	C	0.949990	-0.343475	0.636046
C130	C	1.449990	0.156525	1.136046
C131	C	0.949987	-0.343490	0.570304
C132	C	1.449987	0.156510	1.070304
N133	N	0.964865	-0.308006	0.772155
N134	N	1.464865	0.191994	1.272155
N135	N	0.964867	-0.307988	0.834607
N136	N	1.464867	0.192012	1.334607
C137	C	0.909772	-0.303155	0.866992
C138	C	1.409772	0.196845	1.366992
N139	N	0.854675	-0.298328	0.834566
N140	N	1.354675	0.201672	1.334566
N141	N	0.854675	-0.298343	0.772109
N142	N	1.354675	0.201657	1.272109
C143	C	0.909768	-0.303185	0.740202
C144	C	1.409768	0.196815	1.240202
C145	C	0.869540	-0.262870	0.971141
C146	C	1.369540	0.237130	1.471141
C147	C	0.869536	-0.262863	1.036885
C148	C	1.369536	0.237137	1.536885
C149	C	0.950007	-0.343389	1.036889
C150	C	1.450007	0.156611	1.536889
C151	C	0.950005	-0.343400	0.971146
C152	C	1.450005	0.156600	1.471146
C153	C	0.909772	-0.303137	0.938276
C154	C	1.409772	0.196863	1.438276
H155	H	0.149956	-0.376434	0.376216
H156	H	0.649956	0.123566	0.876216
H157	H	0.550793	-0.376407	0.376191
H158	H	1.050793	0.123593	0.876191
H159	H	0.670058	-0.376407	0.376173
H160	H	1.170058	0.123593	0.876173
C161	C	0.679438	-0.218620	0.218869
C162	C	1.179438	0.281380	0.718869
C163	C	0.724667	-0.169227	0.246226
C164	C	1.224667	0.330773	0.746226
C165	C	0.760817	-0.124884	0.202013
C166	C	1.260817	0.375116	0.702013
C167	C	0.751737	-0.129935	0.130444
C168	C	1.251737	0.370065	0.630444
C169	C	0.706506	-0.179330	0.103084
C170	C	1.206506	0.320670	0.603084
C171	C	0.670357	-0.223673	0.147296
C172	C	1.170357	0.276327	0.647296
H173	H	0.731390	-0.165487	0.299209
H174	H	1.231390	0.334513	0.799209
H175	H	0.794300	-0.088319	0.222268
H176	H	1.294300	0.411681	0.722268
H177	H	0.778498	-0.097110	0.097715
H178	H	1.278498	0.402890	0.597715
H179	H	0.699784	-0.183071	0.050100
H180	H	1.199784	0.316929	0.550100
H181	H	0.636874	-0.260238	0.127042
H182	H	1.136874	0.239762	0.627042
H183	H	0.836768	-0.230149	0.662803
H184	H	1.336768	0.269851	1.162803
C185	C	0.994250	-0.387752	0.672209
C186	C	1.494250	0.112248	1.172209
C187	C	0.966943	-0.437156	0.717383
C188	C	1.466943	0.062844	1.217383
C189	C	1.011201	-0.481437	0.753546
C190	C	1.511201	0.018563	1.253546
C191	C	1.082766	-0.476315	0.744535
C192	C	1.582766	0.023685	1.244535
C193	C	1.110076	-0.426909	0.699358
C194	C	1.610076	0.073091	1.199358
C195	C	1.065818	-0.382628	0.663195
C196	C	1.565818	0.117372	1.163195
H197	H	0.913964	-0.440950	0.724056
H198	H	1.413964	0.059050	1.224056
H199	H	0.990984	-0.518011	0.786989
H200	H	1.490984	-0.018011	1.286989
H201	H	1.115528	-0.509094	0.771305
H202	H	1.615528	-0.009094	1.271305
H203	H	1.163055	-0.423115	0.692685
H204	H	1.663055	0.076885	1.192685
H205	H	1.086035	-0.346054	0.629752
H206	H	1.586035	0.153946	1.129752
C207	C	0.278619	-0.387940	0.387689
C208	C	0.778619	0.112060	0.887689
C209	C	0.242470	-0.432278	0.431901
C210	C	0.742470	0.067722	0.931901
C211	C	0.278633	-0.476608	0.476109
C212	C	0.778633	0.023392	0.976109
C213	C	0.350946	-0.476600	0.476105
C214	C	0.850946	0.023400	0.976105
C215	C	0.387099	-0.432261	0.431891
C216	C	0.887099	0.067739	0.931891
C217	C	0.350936	-0.387930	0.387683
C218	C	0.850936	0.112070	0.887683
H219	H	0.188936	-0.432286	0.431905
H220	H	0.688936	0.067714	0.931905
H221	H	0.251870	-0.509432	0.508839
H222	H	0.751870	-0.009432	1.008839
H223	H	0.377716	-0.509416	0.508831
H224	H	0.877716	-0.009416	1.008831
H225	H	0.440633	-0.432253	0.431887
H226	H	0.940633	0.067747	0.931887
H227	H	0.377699	-0.355107	0.354953
H228	H	0.877699	0.144893	0.854953
H229	H	0.550786	-0.230149	0.230364
H230	H	1.050786	0.269851	0.730364
H231	H	0.982747	-0.376282	0.543547
H232	H	1.482747	0.123718	1.043547
H233	H	0.836616	-0.543022	0.230150
H234	H	1.336616	-0.043022	0.730150
C235	C	0.994122	-0.533385	0.387872
C236	C	1.494122	-0.033385	0.887872
C237	C	1.038391	-0.569475	0.432204
C238	C	1.538391	-0.069475	0.932204
C239	C	1.082631	-0.533252	0.476534
C240	C	1.582631	-0.033252	0.976534
C241	C	1.082603	-0.460940	0.476532
C242	C	1.582603	0.039060	0.976532
C243	C	1.038332	-0.424846	0.432198
C244	C	1.538332	0.075154	0.932198
C245	C	0.994091	-0.461069	0.387869
C246	C	1.494091	0.038931	0.887869
H247	H	1.038413	-0.623009	0.432207
H248	H	1.538413	-0.123009	0.932207
H249	H	1.115404	-0.559972	0.509352
H250	H	1.615404	-0.059972	1.009352
H251	H	1.115352	-0.434125	0.509347
H252	H	1.615352	0.065875	1.009347
H253	H	1.038309	-0.371312	0.432195
H254	H	1.538309	0.128688	0.932195
H255	H	0.961319	-0.434349	0.355050
H256	H	1.461319	0.065651	0.855050
H257	H	0.982671	-0.662064	0.376382
H258	H	1.482671	-0.162064	0.876382
C259	C	0.278604	-0.218648	0.218902
C260	C	0.778604	0.281352	0.718902
C261	C	0.269594	-0.147094	0.224166
C262	C	0.769594	0.352906	0.724166
C263	C	0.305750	-0.102748	0.179962
C264	C	0.805750	0.397252	0.679962
C265	C	0.350916	-0.129956	0.130493
C266	C	0.850916	0.370044	0.630493
C267	C	0.359929	-0.201514	0.125226
C268	C	0.859929	0.298486	0.625226
C269	C	0.323773	-0.245860	0.169431
C270	C	0.823773	0.254140	0.669431
H271	H	0.236157	-0.126949	0.260788
H272	H	0.736157	0.373051	0.760788
H273	H	0.299078	-0.049776	0.183861
H274	H	0.799078	0.450224	0.683861
H275	H	0.377681	-0.097129	0.097770
H276	H	0.877681	0.402871	0.597770
H277	H	0.393365	-0.221659	0.088604
H278	H	0.893365	0.278341	0.588604
H279	H	0.330445	-0.298831	0.165532
H280	H	0.830445	0.201169	0.665532
C281	C	0.825176	-0.671699	0.218653
C282	C	1.325176	-0.171699	0.718653
C283	C	0.825204	-0.744012	0.218658
C284	C	1.325204	-0.244012	0.718658
C285	C	0.780956	-0.780237	0.174338
C286	C	1.280956	-0.280237	0.674338
C287	C	0.736680	-0.744150	0.130012
C288	C	1.236680	-0.244150	0.630012
C289	C	0.736649	-0.671833	0.130004
C290	C	1.236649	-0.171833	0.630004
C291	C	0.780897	-0.635608	0.174325
C292	C	1.280897	-0.135608	0.674325
H293	H	0.857982	-0.770730	0.251473
H294	H	1.357982	-0.270730	0.751473
H295	H	0.780979	-0.833771	0.174344
H296	H	1.280979	-0.333771	0.674344
H297	H	0.703925	-0.770966	0.097203
H298	H	1.203925	-0.270966	0.597203
H299	H	0.703871	-0.645115	0.097190
H300	H	1.203871	-0.145115	0.597190
H301	H	0.780874	-0.582074	0.174319
H302	H	1.280874	-0.082074	0.674319
H303	H	0.982786	-0.943637	0.376422
H304	H	1.482786	-0.443637	0.876422
C305	C	0.825280	-0.218588	0.934979
C306	C	1.325280	0.281412	1.434979
C307	C	0.781022	-0.174296	0.971131
C308	C	1.281022	0.325704	1.471131
C309	C	0.736763	-0.130014	0.934971
C310	C	1.236763	0.369986	1.434971
C311	C	0.736761	-0.130023	0.862658
C312	C	1.236761	0.369977	1.362658
C313	C	0.781021	-0.174317	0.826502
C314	C	1.281021	0.325683	1.326502
C315	C	0.825280	-0.218599	0.862662
C316	C	1.325280	0.281401	1.362662
H317	H	0.781022	-0.174287	1.024665
H318	H	1.281022	0.325713	1.524665
H319	H	0.703999	-0.097225	0.961737
H320	H	1.203999	0.402775	1.461737
H321	H	0.703998	-0.097243	0.835891
H322	H	1.203998	0.402757	1.335891
H323	H	0.781021	-0.174326	0.772968
H324	H	1.281021	0.325674	1.272968
H325	H	0.858044	-0.251388	0.835896
H326	H	1.358044	0.248612	1.335896
H327	H	0.982822	-1.062901	0.376447
H328	H	1.482822	-0.562901	0.876447
H329	H	0.836816	-1.063131	0.230236
H330	H	1.336816	-0.563131	0.730236
H331	H	0.149945	-0.230179	0.230383
H332	H	0.649945	0.269821	0.730383
C333	C	0.825277	-0.934486	0.218694
C334	C	1.325277	-0.434486	0.718694
C335	C	0.830457	-0.943569	0.147139
C336	C	1.330457	-0.443569	0.647139
C337	C	0.786182	-0.907483	0.102805
C338	C	1.286182	-0.407483	0.602805
C339	C	0.736727	-0.862313	0.130025
C340	C	1.236727	-0.362313	0.630025
C341	C	0.731545	-0.853227	0.201584
C342	C	1.231545	-0.353227	0.701584
C343	C	0.775820	-0.889314	0.245918
C344	C	1.275820	-0.389314	0.745918
H345	H	0.867069	-0.977009	0.126985
H346	H	1.367069	-0.477009	0.626985
H347	H	0.790019	-0.914209	0.049832
H348	H	1.290019	-0.414209	0.549832
H349	H	0.703952	-0.835600	0.097207
H350	H	1.203952	-0.335600	0.597207
H351	H	0.694933	-0.819788	0.221738
H352	H	1.194933	-0.319788	0.721738
H353	H	0.771983	-0.882587	0.298891
H354	H	1.271983	-0.382587	0.798891
C355	C	0.825269	-0.218673	0.534139
C356	C	1.325269	0.281327	1.034139
C357	C	0.775829	-0.245953	0.488917
C358	C	1.275829	0.254047	0.988917
C359	C	0.731571	-0.201671	0.452756
C360	C	1.231571	0.298329	0.952756
C361	C	0.736753	-0.130108	0.461817
C362	C	1.236753	0.369892	0.961817
C363	C	0.786195	-0.102824	0.507041
C364	C	1.286195	0.397176	1.007041
C365	C	0.830453	-0.147106	0.543202
C366	C	1.330453	0.352894	1.043202
H367	H	0.771991	-0.298932	0.482208
H368	H	1.271991	0.201068	0.982208
H369	H	0.694970	-0.221869	0.419278
H370	H	1.194970	0.278131	0.919278
H371	H	0.703990	-0.097327	0.435048
H372	H	1.203990	0.402673	0.935048
H373	H	0.790033	-0.049845	0.513750
H374	H	1.290033	0.450155	1.013750
H375	H	0.867054	-0.126909	0.576680
H376	H	1.367054	0.373091	1.076680
H377	H	0.836774	-0.230072	1.063641
H378	H	1.336774	0.269928	1.563641
C379	C	0.994271	-0.387669	1.073039
C380	C	1.494271	0.112331	1.573039
C381	C	0.966974	-0.437082	1.118210
C382	C	1.466974	0.062918	1.618210
C383	C	1.011239	-0.481365	1.154362
C384	C	1.511239	0.018635	1.654362
C385	C	1.082802	-0.476235	1.145343
C386	C	1.582802	0.023765	1.645343
C387	C	1.110104	-0.426820	1.100171
C388	C	1.610104	0.073180	1.600171
C389	C	1.065838	-0.382537	1.064019
C390	C	1.565838	0.117463	1.564019
H391	H	0.913995	-0.440881	1.124887
H392	H	1.413995	0.059119	1.624887
H393	H	0.991028	-0.517945	1.187801
H394	H	1.491028	-0.017945	1.687801
H395	H	1.115570	-0.509016	1.172105
H396	H	1.615570	-0.009016	1.672105
H397	H	1.163082	-0.423021	1.093493
H398	H	1.663082	0.076979	1.593493
H399	H	1.086049	-0.345957	1.030579
H400	H	1.586049	0.154043	1.530579
C401	C	0.994262	-0.387693	0.934992
C402	C	1.494262	0.112307	1.434992
C403	C	1.038522	-0.431970	0.971151
C404	C	1.538522	0.068030	1.471151
C405	C	1.082779	-0.476267	0.934996
C406	C	1.582779	0.023733	1.434996
C407	C	1.082777	-0.476285	0.862684
C408	C	1.582777	0.023715	1.362684
C409	C	1.038516	-0.432006	0.826521
C410	C	1.538516	0.067994	1.326521
C411	C	0.994258	-0.387710	0.862675
C412	C	1.494258	0.112290	1.362675
H413	H	1.038525	-0.431958	1.024684
H414	H	1.538525	0.068042	1.524684
H415	H	1.115545	-0.509045	0.961767
H416	H	1.615545	-0.009045	1.461767
H417	H	1.115540	-0.509076	0.835920
H418	H	1.615540	-0.009076	1.335920
H419	H	1.038513	-0.432018	0.772987
H420	H	1.538513	0.067982	1.272987
H421	H	0.961493	-0.354931	0.835904
H422	H	1.461493	0.145069	1.335904
