data_functionalizedCrystal
_audit_creation_method	'MofGen! by Chris Wilmer'
_symmetry_space_group_name_H-M	'P1'
_symmetry_Int_Tables_number	1
_symmetry_cell_setting	triclinic
loop_
_symmetry_equiv_pos_as_xyz
  x,y,z
_cell_length_a	16.120484
_cell_length_b	16.120566
_cell_length_c	16.120297
_cell_angle_alpha	90.125018
_cell_angle_beta	84.385569
_cell_angle_gamma	89.831930
loop_
_atom_site_label
_atom_site_type_symbol
_atom_site_fract_x
_atom_site_fract_y
_atom_site_fract_z
Zn1	Zn	-0.422255	-1.224984	0.554879
Zn2	Zn	-0.172255	-0.974984	0.804879
Zn3	Zn	0.077745	-0.724984	1.054879
Zn4	Zn	0.327745	-0.474984	1.304879
Zn5	Zn	-0.554939	-1.224880	0.422184
Zn6	Zn	-0.304939	-0.974880	0.672184
Zn7	Zn	-0.054939	-0.724880	0.922184
Zn8	Zn	0.195061	-0.474880	1.172184
Zn9	Zn	-0.408172	-1.093724	0.408115
Zn10	Zn	-0.158172	-0.843724	0.658115
Zn11	Zn	0.091828	-0.593724	0.908115
Zn12	Zn	0.341828	-0.343724	1.158115
Zn13	Zn	-0.554173	-1.078877	0.554109
Zn14	Zn	-0.304173	-0.828877	0.804109
Zn15	Zn	-0.054173	-0.578877	1.054109
Zn16	Zn	0.195827	-0.328877	1.304109
O17	O	-0.484885	-1.155616	0.484822
O18	O	-0.234885	-0.905616	0.734822
O19	O	0.015115	-0.655616	0.984822
O20	O	0.265115	-0.405616	1.234822
O21	O	-0.446070	-1.341006	0.543487
O22	O	-0.196070	-1.091006	0.793487
O23	O	0.053930	-0.841006	1.043487
O24	O	0.303930	-0.591006	1.293487
O25	O	-0.529897	-1.213651	0.303685
O26	O	-0.279897	-0.963651	0.553685
O27	O	-0.029897	-0.713651	0.803685
O28	O	0.220103	-0.463651	1.053685
O29	O	-0.293409	-1.117393	0.422018
O30	O	-0.043409	-0.867393	0.672018
O31	O	0.206591	-0.617393	0.922018
O32	O	0.456591	-0.367393	1.172018
O33	O	-0.543553	-1.340929	0.445997
O34	O	-0.293553	-1.090929	0.695997
O35	O	-0.043553	-0.840929	0.945997
O36	O	0.206447	-0.590929	1.195997
O37	O	-0.303756	-1.213829	0.529845
O38	O	-0.053756	-0.963829	0.779845
O39	O	0.196244	-0.713829	1.029845
O40	O	0.446244	-0.463829	1.279845
O41	O	-0.422067	-1.117292	0.293349
O42	O	-0.172067	-0.867292	0.543349
O43	O	0.077933	-0.617292	0.793349
O44	O	0.327933	-0.367292	1.043349
O45	O	-0.421324	-0.975719	0.421271
O46	O	-0.171324	-0.725719	0.671271
O47	O	0.078676	-0.475719	0.921271
O48	O	0.328676	-0.225719	1.171271
O49	O	-0.542247	-1.092089	0.670843
O50	O	-0.292247	-0.842089	0.920843
O51	O	-0.042247	-0.592089	1.170843
O52	O	0.207753	-0.342089	1.420843
O53	O	-0.528591	-0.964811	0.528532
O54	O	-0.278591	-0.714811	0.778532
O55	O	-0.028591	-0.464811	1.028532
O56	O	0.221409	-0.214811	1.278532
O57	O	-0.445327	-1.199433	0.671409
O58	O	-0.195327	-0.949433	0.921409
O59	O	0.054673	-0.699433	1.171409
O60	O	0.304673	-0.449433	1.421409
O61	O	-0.671468	-1.199255	0.445250
O62	O	-0.421468	-0.949255	0.695250
O63	O	-0.171468	-0.699255	0.945250
O64	O	0.078532	-0.449255	1.195250
O65	O	-0.670905	-1.091988	0.542174
O66	O	-0.420905	-0.841988	0.792174
O67	O	-0.170905	-0.591988	1.042174
O68	O	0.079095	-0.341988	1.292174
C69	C	-0.701429	-1.144021	0.495174
C70	C	-0.451429	-0.894021	0.745174
C71	C	-0.201429	-0.644021	0.995174
C72	C	0.048571	-0.394021	1.245174
C73	C	-0.794074	-1.139134	0.499635
C74	C	-0.544074	-0.889134	0.749635
C75	C	-0.294074	-0.639134	0.999635
C76	C	-0.044074	-0.389134	1.249635
C77	C	-0.473347	-0.940178	0.473291
C78	C	-0.223347	-0.690178	0.723291
C79	C	0.026653	-0.440178	0.973291
C80	C	0.276653	-0.190178	1.223291
C81	C	-0.468432	-0.848011	0.468379
C82	C	-0.218432	-0.598011	0.718379
C83	C	0.031568	-0.348011	0.968379
C84	C	0.281568	-0.098011	1.218379
C85	C	-0.963697	-1.130217	0.507797
C86	C	-0.713697	-0.880217	0.757797
C87	C	-0.463697	-0.630217	1.007797
C88	C	-0.213697	-0.380217	1.257797
C89	C	-1.005240	-1.181163	0.461868
C90	C	-0.755240	-0.931163	0.711868
C91	C	-0.505240	-0.681163	0.961868
C92	C	-0.255240	-0.431163	1.211868
C93	C	-1.099624	-1.176202	0.466409
C94	C	-0.849624	-0.926202	0.716409
C95	C	-0.599624	-0.676202	0.966409
C96	C	-0.349624	-0.426202	1.216409
C97	C	-0.869304	-1.135178	0.503257
C98	C	-0.619304	-0.885178	0.753257
C99	C	-0.369304	-0.635178	1.003257
C100	C	-0.119304	-0.385178	1.253257
C101	C	-0.459439	-0.679260	0.459418
C102	C	-0.209439	-0.429260	0.709418
C103	C	0.040561	-0.179260	0.959418
C104	C	0.290561	0.070740	1.209418
C105	C	-0.510402	-0.632809	0.510236
C106	C	-0.260402	-0.382809	0.760236
C107	C	-0.010402	-0.132809	1.010236
C108	C	0.239598	0.117191	1.260236
C109	C	-0.505398	-0.538910	0.505249
C110	C	-0.255398	-0.288910	0.755249
C111	C	-0.005398	-0.038910	1.005249
C112	C	0.244602	0.211090	1.255249
C113	C	-0.464442	-0.773167	0.464403
C114	C	-0.214442	-0.523167	0.714403
C115	C	0.035558	-0.273167	0.964403
C116	C	0.285558	-0.023167	1.214403
C117	C	-0.267496	-1.167279	0.474448
C118	C	-0.017496	-0.917279	0.724448
C119	C	0.232504	-0.667279	0.974448
C120	C	0.482504	-0.417279	1.224448
C121	C	-0.174858	-1.172249	0.470027
C122	C	0.075142	-0.922249	0.720027
C123	C	0.325142	-0.672249	0.970027
C124	C	0.575142	-0.422249	1.220027
C125	C	-0.495272	-1.144117	0.702213
C126	C	-0.245272	-0.894117	0.952213
C127	C	0.004728	-0.644117	1.202213
C128	C	0.254728	-0.394117	1.452213
C129	C	-0.499699	-1.139216	0.794853
C130	C	-0.249699	-0.889216	1.044853
C131	C	0.000301	-0.639216	1.294853
C132	C	0.250301	-0.389216	1.544853
C133	C	-0.496470	-0.371896	0.496384
C134	C	-0.246470	-0.121896	0.746384
C135	C	0.003530	0.128104	0.996384
C136	C	0.253530	0.378104	1.246384
C137	C	-0.501412	-0.464063	0.501277
C138	C	-0.251412	-0.214063	0.751277
C139	C	-0.001412	0.035937	1.001277
C140	C	0.248588	0.285937	1.251277
C141	C	-0.474480	-1.167122	0.268275
C142	C	-0.224480	-0.917122	0.518275
C143	C	0.025520	-0.667122	0.768275
C144	C	0.275520	-0.417122	1.018275
C145	C	-0.469827	-1.172196	0.175634
C146	C	-0.219827	-0.922196	0.425634
C147	C	0.030173	-0.672196	0.675634
C148	C	0.280173	-0.422196	0.925634
C149	C	-0.507761	-1.130240	0.964463
C150	C	-0.257761	-0.880240	1.214463
C151	C	-0.007761	-0.630240	1.464463
C152	C	0.242239	-0.380240	1.714463
C153	C	-0.461767	-1.181169	1.006028
C154	C	-0.211767	-0.931169	1.256028
C155	C	0.038233	-0.681169	1.506028
C156	C	0.288233	-0.431169	1.756028
C157	C	-0.466253	-1.176175	1.100406
C158	C	-0.216253	-0.926175	1.350406
C159	C	0.033747	-0.676175	1.600406
C160	C	0.283747	-0.426175	1.850406
C161	C	-0.503276	-1.135233	0.870078
C162	C	-0.253276	-0.885233	1.120078
C163	C	-0.003276	-0.635233	1.370078
C164	C	0.246724	-0.385233	1.620078
H165	H	-0.969921	-1.228505	0.419135
H166	H	-0.719921	-0.978505	0.669135
H167	H	-0.469921	-0.728505	0.919135
H168	H	-0.219921	-0.478505	1.169135
C169	C	-0.404027	-1.245148	0.958349
C170	C	-0.154027	-0.995148	1.208349
C171	C	0.095973	-0.745148	1.458349
C172	C	0.345973	-0.495148	1.708349
N173	N	-0.360543	-1.293338	0.922434
N174	N	-0.110543	-1.043338	1.172434
N175	N	0.139457	-0.793338	1.422434
N176	N	0.389457	-0.543338	1.672434
H177	H	-0.999013	-1.082878	0.550525
H178	H	-0.749013	-0.832878	0.800525
H179	H	-0.499013	-0.582878	1.050525
H180	H	-0.249013	-0.332878	1.300525
C181	C	-0.574427	-0.674352	0.574065
C182	C	-0.324427	-0.424352	0.824065
C183	C	-0.074427	-0.174352	1.074065
C184	C	0.175573	0.075648	1.324065
N185	N	-0.622652	-0.705647	0.622137
N186	N	-0.372652	-0.455647	0.872137
N187	N	-0.122652	-0.205647	1.122137
N188	N	0.127348	0.044353	1.372137
H189	H	-0.412055	-0.648509	0.412169
H190	H	-0.162055	-0.398509	0.662169
H191	H	0.087945	-0.148509	0.912169
H192	H	0.337945	0.101491	1.162169
C193	C	-0.565503	-1.066271	1.012143
C194	C	-0.315503	-0.816271	1.262143
C195	C	-0.065503	-0.566271	1.512143
C196	C	0.184497	-0.316271	1.762143
N197	N	-0.608994	-1.018091	1.048064
N198	N	-0.358994	-0.768091	1.298064
N199	N	-0.108994	-0.518091	1.548064
N200	N	0.141006	-0.268091	1.798064
