data_functionalizedCrystal
_audit_creation_method	'MofGen! by Chris Wilmer'
_symmetry_space_group_name_H-M	'P1'
_symmetry_Int_Tables_number	1
_symmetry_cell_setting	triclinic
loop_
_symmetry_equiv_pos_as_xyz
  x,y,z
_cell_length_a	10.654562
_cell_length_b	14.044220
_cell_length_c	9.130313
_cell_angle_alpha	89.997493
_cell_angle_beta	89.996930
_cell_angle_gamma	88.839490
loop_
_atom_site_label
_atom_site_type_symbol
_atom_site_fract_x
_atom_site_fract_y
_atom_site_fract_z
O1	O	1.681219	0.133285	-0.121901
O2	O	1.317016	0.145966	-0.121883
O3	O	1.493651	0.001605	-0.121878
O4	O	1.504584	0.277646	-0.121907
O5	O	1.493649	0.001609	0.121721
O6	O	1.317014	0.145970	0.121715
O7	O	1.681217	0.133289	0.121698
Cu8	Cu	1.499115	0.139630	0.143949
Cu9	Cu	1.499118	0.139625	-0.144135
O10	O	1.504582	0.277650	0.121692
C11	C	1.270124	0.145034	-0.000082
C12	C	1.130401	0.142241	-0.000074
C13	C	1.064738	0.140940	0.132700
C14	C	0.933453	0.138323	0.132676
C15	C	0.933504	0.138312	-0.132909
C16	C	1.064788	0.140922	-0.132883
C17	C	1.064707	0.140951	0.286034
C18	C	0.933422	0.138334	0.286009
C19	C	1.488864	-0.033739	-0.000077
C20	C	1.474588	-0.139059	-0.000075
C21	C	1.448490	-0.331893	-0.000095
C22	C	1.549738	-0.388857	-0.000104
C23	C	1.535216	-0.496157	-0.000115
C24	C	1.463010	-0.224584	-0.000084
C25	C	1.728109	0.134221	-0.000107
C26	C	1.867832	0.137014	-0.000124
C27	C	1.509369	0.312994	-0.000112
C28	C	1.523645	0.418315	-0.000124
N29	N	1.499123	0.139633	0.346572
N30	N	1.499119	0.139615	-0.346757
C31	C	1.577361	0.075731	0.423226
C32	C	1.577356	0.075720	0.576563
C33	C	1.420873	0.203519	0.576577
C34	C	1.420872	0.203525	0.423243
C35	C	1.667709	0.001950	0.423219
C36	C	1.667705	0.001939	0.576556
H37	H	0.880066	0.137238	-0.241037
N38	N	1.135622	0.142321	-0.276082
H39	H	1.193684	0.084704	-0.281970
H40	H	1.074058	0.141126	-0.360138
H41	H	1.357153	0.255550	0.360832
N42	N	1.791560	0.032554	0.360195
H43	H	1.851404	0.047336	0.442523
H44	H	1.828329	-0.020483	0.297898
N45	N	1.618157	-0.089334	0.639568
H46	H	1.594216	-0.133426	0.557235
H47	H	1.685242	-0.121075	0.701843
H48	H	1.104379	0.075397	0.344924
H49	H	1.357162	0.255539	0.639020
N50	N	1.113106	0.232587	0.349034
H51	H	1.039930	0.274943	0.379460
H52	H	1.167395	0.217844	0.437158
N53	N	0.880829	0.225171	0.363963
H54	H	0.908777	0.284534	0.311855
H55	H	0.786124	0.223229	0.363968
N56	N	1.679007	-0.346724	-0.000103
H57	H	1.671196	-0.274933	-0.000092
H58	H	1.726139	-0.368581	0.090203
N59	N	1.319230	-0.374027	-0.000090
H60	H	1.327050	-0.445817	-0.000094
H61	H	1.272094	-0.352185	0.090224
H62	H	0.896881	0.069155	0.333596
N63	N	1.629607	-0.094625	0.368087
H64	H	1.542660	-0.109079	0.404925
H65	H	1.629674	-0.094591	0.257471
N66	N	1.797702	0.023471	0.631683
H67	H	1.823248	0.088065	0.594852
H68	H	1.797659	0.023416	0.742299
