data_functionalizedCrystal
_audit_creation_method	'MofGen! by Chris Wilmer'
_symmetry_space_group_name_H-M	'P1'
_symmetry_Int_Tables_number	1
_symmetry_cell_setting	triclinic
loop_
_symmetry_equiv_pos_as_xyz
  x,y,z
_cell_length_a	14.853567
_cell_length_b	17.699077
_cell_length_c	16.776229
_cell_angle_alpha	90.006570
_cell_angle_beta	89.996873
_cell_angle_gamma	83.457753
loop_
_atom_site_label
_atom_site_type_symbol
_atom_site_fract_x
_atom_site_fract_y
_atom_site_fract_z
O1	O	0.113975	1.004378	0.066271
O2	O	0.128813	0.784037	0.066274
O3	O	-0.009858	0.900093	0.066275
O4	O	0.252645	0.888322	0.066270
O5	O	-0.009850	0.900076	-0.066302
O6	O	0.128820	0.784020	-0.066302
O7	O	0.113982	1.004361	-0.066306
Zn8	Zn	0.121402	0.894188	-0.087353
Zn9	Zn	0.121393	0.894210	0.087322
O10	O	0.252653	0.888305	-0.066306
C11	C	0.128286	0.755830	-0.000014
C12	C	0.126694	0.671808	-0.000012
C13	C	0.125947	0.632329	-0.072281
C14	C	0.124437	0.553383	-0.072281
C15	C	0.123679	0.513916	-0.000013
C16	C	0.124423	0.553400	0.072261
C17	C	0.125927	0.632346	0.072261
C18	C	0.118356	0.235021	0.072262
C19	C	0.116854	0.156070	0.072257
C20	C	0.116866	0.156058	-0.072280
C21	C	0.118370	0.235004	-0.072280
C22	C	0.119108	0.274482	-0.000006
C23	C	0.120745	0.360085	-0.000006
C24	C	0.122049	0.428314	-0.000012
C25	C	-0.043441	0.899551	-0.000011
C26	C	-0.143519	0.897953	-0.000004
C27	C	-0.555772	0.822257	-0.000018
C28	C	-0.577564	0.960134	-0.000020
C29	C	-0.483536	0.961637	-0.000015
C30	C	-0.425621	0.893449	-0.000013
C31	C	-0.461735	0.823758	-0.000016
C32	C	-0.447415	1.031327	-0.000021
C33	C	-0.353382	1.032832	-0.000017
C34	C	-0.295465	0.964643	-0.000009
C35	C	-0.331584	0.894950	-0.000011
C36	C	-0.273669	0.826761	-0.000009
C37	C	-0.309786	0.757067	-0.000005
C38	C	-0.403818	0.755569	-0.000008
C39	C	-0.201433	0.966141	-0.000006
C40	C	-0.179632	0.828262	-0.000007
C41	C	0.286236	0.888847	-0.000019
C42	C	0.386313	0.890445	-0.000020
C43	C	0.114509	1.032568	-0.000016
C44	C	0.116101	1.116590	-0.000012
N45	N	0.121408	0.894178	-0.206565
C46	C	0.059998	0.945622	-0.751729
C47	C	0.060005	0.945618	-0.668277
C48	C	0.121389	0.894214	-0.626564
C49	C	0.182776	0.842816	-0.668308
C50	C	0.182774	0.842824	-0.751758
C51	C	0.182790	0.842784	-0.331761
C52	C	0.182786	0.842778	-0.248304
C53	C	0.060021	0.945578	-0.248279
C54	C	0.060018	0.945586	-0.331730
C55	C	0.121408	0.894191	-0.373466
C56	C	0.121402	0.894196	-0.463954
C57	C	0.121391	0.894205	-0.536077
N58	N	0.121379	0.894226	0.206533
H59	H	0.116236	0.123938	0.131110
H60	H	0.232761	0.800965	-0.634340
C61	C	-0.566126	0.704258	-0.068162
C62	C	-0.595462	0.745649	-0.000013
H63	H	-0.590625	0.656961	-0.068153
H64	H	-0.586020	0.732328	-0.114386
H65	H	-0.501835	0.695404	-0.068155
H66	H	-0.659753	0.754508	-0.000022
H67	H	-0.575573	0.717573	0.046224
H68	H	0.123799	0.521260	0.131103
C69	C	-0.625083	1.077183	-0.068175
C70	C	-0.641220	1.035084	-0.000024
H71	H	-0.664388	1.123454	-0.068176
H72	H	-0.563919	1.088049	-0.068164
H73	H	-0.636012	1.048599	-0.114403
H74	H	-0.630284	1.063666	0.046205
H75	H	-0.702398	1.024220	-0.000027
H76	H	0.232757	0.800973	-0.785741
C77	C	-0.494952	1.148393	0.068126
C78	C	-0.511075	1.106275	-0.000023
H79	H	-0.534254	1.194665	0.068122
H80	H	-0.505887	1.119827	0.114351
H81	H	-0.433781	1.159260	0.068114
H82	H	-0.572245	1.095402	-0.000008
H83	H	-0.500147	1.134846	-0.046260
H84	H	-0.323984	1.089582	-0.000019
C85	C	-0.062710	0.961897	-0.425565
C86	C	-0.007458	1.002090	-0.377578
H87	H	-0.104369	0.996784	-0.453864
H88	H	-0.026155	0.931295	-0.462363
H89	H	-0.095090	0.930362	-0.393006
H90	H	0.024927	1.033622	-0.410138
H91	H	-0.044018	1.032705	-0.340776
C92	C	-0.061341	1.047194	-0.256638
C93	C	-0.007458	1.002080	-0.202401
H94	H	-0.103002	1.082069	-0.228315
H95	H	-0.023857	1.074457	-0.289182
H96	H	-0.093717	1.015649	-0.289192
H97	H	0.024924	1.033624	-0.169850
H98	H	-0.044947	0.974814	-0.169843
H99	H	0.126572	0.664457	-0.131130
H100	H	0.118991	0.267134	-0.131128
H101	H	-0.172031	1.022885	-0.000015
C102	C	0.124619	0.561299	-0.215153
C103	C	0.123625	0.509987	-0.151721
H104	H	0.124124	0.534506	-0.264197
H105	H	0.072657	0.597809	-0.212151
H106	H	0.177762	0.586372	-0.212135
H107	H	0.070479	0.484918	-0.154736
H108	H	0.175593	0.473464	-0.154725
C109	C	0.205081	0.712712	0.156108
C110	C	0.126751	0.675747	0.151698
H111	H	0.205582	0.739510	0.205149
H112	H	0.257038	0.676196	0.153109
H113	H	0.205736	0.747510	0.113062
H114	H	0.126098	0.640945	0.194741
H115	H	0.074780	0.712268	0.154705
H116	H	-0.132483	0.772734	-0.000002
C117	C	0.114549	0.035036	-0.136472
C118	C	0.116038	0.112663	-0.151727
H119	H	0.114034	0.008250	-0.185518
H120	H	0.166849	0.016383	-0.106785
H121	H	0.061744	0.027831	-0.106777
H122	H	0.168847	0.119869	-0.181417
H123	H	0.063733	0.131323	-0.181426
H124	H	-0.262620	0.701548	-0.000009
C125	C	-0.414216	0.637595	0.068148
C126	C	-0.443524	0.678968	-0.000007
H127	H	-0.438737	0.590308	0.068148
H128	H	-0.349934	0.628726	0.068146
H129	H	-0.434114	0.665691	0.114373
H130	H	-0.423620	0.650875	-0.046233
H131	H	-0.507819	0.687835	-0.000013
H132	H	0.118954	0.267155	0.131112
H133	H	0.010009	0.987477	-0.785686
H134	H	0.010024	0.987469	-0.634294
C135	C	0.304161	0.741170	-0.256707
C136	C	0.250272	0.786277	-0.202451
H137	H	0.345824	0.706295	-0.228397
H138	H	0.266681	0.713907	-0.289258
H139	H	0.336536	0.772720	-0.289251
H140	H	0.217891	0.754727	-0.169910
H141	H	0.287756	0.813542	-0.169886
C142	C	0.202514	0.739811	-0.425621
C143	C	0.250263	0.786284	-0.377629
H144	H	0.244173	0.704931	-0.453942
H145	H	0.165032	0.712552	-0.393070
H146	H	0.165966	0.770433	-0.462408
H147	H	0.286806	0.755662	-0.340838
H148	H	0.287760	0.813545	-0.410182
