data_functionalizedCrystal
_audit_creation_method	'MofGen! by Chris Wilmer'
_symmetry_space_group_name_H-M	'P1'
_symmetry_Int_Tables_number	1
_symmetry_cell_setting	triclinic
loop_
_symmetry_equiv_pos_as_xyz
  x,y,z
_cell_length_a	7.088929
_cell_length_b	8.597339
_cell_length_c	8.559649
_cell_angle_alpha	102.373846
_cell_angle_beta	84.655815
_cell_angle_gamma	76.046970
loop_
_atom_site_label
_atom_site_type_symbol
_atom_site_fract_x
_atom_site_fract_y
_atom_site_fract_z
O1	O	0.182663	-2.074437	0.219532
O2	O	0.105606	-1.606563	0.245609
O3	O	0.150925	-1.881720	-0.000088
O4	O	0.137344	-1.799280	0.465230
O5	O	0.474959	-1.918502	-0.032997
O6	O	0.429639	-1.643344	0.212700
O7	O	0.506696	-2.111218	0.186623
Cu8	Cu	0.497754	-1.880640	0.196657
Cu9	Cu	0.114548	-1.837142	0.235576
O10	O	0.461377	-1.836061	0.432320
C11	C	0.257849	-1.565610	0.228185
C12	C	0.228726	-1.388787	0.225276
N13	N	0.767283	-1.911246	0.169282
N14	N	-0.154979	-1.806550	0.262937
C15	C	0.313967	-1.906358	-0.076081
C16	C	0.317019	-1.924954	-0.253485
C17	C	0.354459	-1.152174	0.204040
C18	C	0.383598	-1.329004	0.206926
C19	C	0.298331	-1.811423	0.508313
C20	C	0.295266	-1.792826	0.685719
H21	H	0.073843	-1.304697	0.238749
H22	H	0.866813	-2.019767	0.072234
C23	C	0.266921	-1.620777	-0.201255
C24	C	0.415496	-1.520333	-0.225217
C25	C	0.387151	-1.348282	-0.112179
C26	C	0.210230	-1.276674	0.024820
C27	C	0.061642	-1.377119	0.048788
C28	C	0.089988	-1.549171	-0.064250
H29	H	0.546474	-1.573341	-0.326637
H30	H	0.497146	-1.273926	-0.129923
H31	H	0.189247	-1.149312	0.108497
H32	H	-0.069336	-1.324112	0.150208
H33	H	-0.020007	-1.623526	-0.046506
C34	C	0.345366	-2.097011	-0.366519
C35	C	0.522287	-2.168623	-0.503517
C36	C	0.550633	-2.340677	-0.616550
C37	C	0.402058	-2.441119	-0.592584
C38	C	0.225124	-2.369509	-0.455580
C39	C	0.196778	-2.197455	-0.342547
H40	H	0.632283	-2.094268	-0.521263
H41	H	0.681612	-2.393686	-0.717970
H42	H	0.423041	-2.568484	-0.676258
H43	H	0.115129	-2.443864	-0.437833
H44	H	0.065799	-2.144445	-0.241127
H45	H	0.538492	-1.413106	0.193441
H46	H	0.745504	-1.698047	0.359991
