data_functionalizedCrystal
_audit_creation_method	'MofGen! by Chris Wilmer'
_symmetry_space_group_name_H-M	'P1'
_symmetry_Int_Tables_number	1
_symmetry_cell_setting	triclinic
loop_
_symmetry_equiv_pos_as_xyz
  x,y,z
_cell_length_a	6.394989
_cell_length_b	16.992694
_cell_length_c	15.455313
_cell_angle_alpha	92.857794
_cell_angle_beta	87.254133
_cell_angle_gamma	88.582967
loop_
_atom_site_label
_atom_site_type_symbol
_atom_site_fract_x
_atom_site_fract_y
_atom_site_fract_z
O1	O	-0.435072	-1.048122	-0.072012
O2	O	-0.430202	-0.819790	-0.072038
O3	O	-0.129113	-0.937197	-0.072026
O4	O	-0.736160	-0.930715	-0.072025
O5	O	-0.146255	-0.930482	0.072236
O6	O	-0.447343	-0.813075	0.072223
O7	O	-0.452214	-1.041407	0.072249
Cu8	Cu	-0.451344	-0.926628	0.085408
Cu9	Cu	-0.431071	-0.934569	-0.085198
O10	O	-0.753302	-0.924000	0.072236
C11	C	-0.432511	-0.787158	0.000089
C12	C	-0.413829	-0.699930	0.000079
C13	C	-0.449904	-1.074039	0.000120
C14	C	-0.468586	-1.161267	0.000124
N15	N	-0.465602	-0.921049	0.205403
C16	C	-0.059649	-0.932558	0.000102
C17	C	0.177240	-0.928641	0.000100
N18	N	-0.416798	-0.940154	-0.205192
C19	C	-0.594077	-0.651470	0.000080
C20	C	-0.576513	-0.569510	0.000092
C21	C	-0.378698	-0.536010	0.000097
C22	C	-0.198437	-0.584476	0.000099
C23	C	-0.216003	-0.666434	0.000093
C24	C	-0.305891	-0.291692	0.000120
C25	C	-0.288338	-0.209727	0.000123
C26	C	-0.666416	-0.194766	0.000118
C27	C	-0.683964	-0.276728	0.000107
C28	C	-0.503704	-0.325186	0.000113
N29	N	-0.360740	-0.452233	0.000106
N30	N	-0.521664	-0.408961	0.000110
C31	C	-0.337742	-0.970946	0.250803
C32	C	-0.348545	-0.966733	0.341610
C33	C	-0.487220	-0.912628	0.387016
C34	C	-0.615085	-0.862725	0.341611
C35	C	-0.604270	-0.866934	0.250805
C36	C	-0.533847	-0.894461	0.658596
C37	C	-0.544658	-0.890257	0.749408
C38	C	-0.278114	-0.994265	0.749401
C39	C	-0.267319	-0.998472	0.658594
C40	C	-0.395176	-0.948567	0.613196
N41	N	-0.498271	-0.908323	0.479836
N42	N	-0.384114	-0.952869	0.520378
H43	H	-0.723290	-0.530057	0.000092
H44	H	-0.127245	-0.182455	0.000126
O45	O	-0.154116	-1.042844	0.793460
C46	C	-0.198525	-1.121955	0.771242
H47	H	-0.363133	-1.125155	0.746279
H48	H	-0.188182	-1.158366	0.830954
H49	H	-0.080173	-1.146315	0.718530
O50	O	-0.876289	-0.309136	0.000146
C51	C	-1.031617	-0.248789	0.000128
H52	H	-0.966928	-0.191292	0.027444
H53	H	-1.173879	-0.265294	0.042009
H54	H	-1.079648	-0.240983	-0.069081
O55	O	-0.728785	-0.818545	0.206740
C56	C	-0.940692	-0.832311	0.228931
H57	H	-0.955287	-0.894043	0.253884
H58	H	-1.037056	-0.827080	0.169209
H59	H	-1.001088	-0.786943	0.281643
H60	H	-0.154399	-1.042529	0.621626
H61	H	-0.224828	-1.015007	0.213839
H62	H	-0.657592	-0.846196	0.786374
H63	H	-0.244431	-1.007363	0.378574
H64	H	-0.069226	-0.705890	0.000092
O65	O	-0.006307	-0.551906	-0.000050
C66	C	0.024024	-0.508398	-0.074751
H67	H	-0.082333	-0.531275	-0.126974
H68	H	0.194396	-0.515249	-0.099829
H69	H	-0.015459	-0.443488	-0.057858
H70	H	-0.637958	-0.853827	0.621640
O71	O	-0.786071	-0.684139	0.000034
C72	C	-0.762938	-0.766869	0.000048
H73	H	-0.599630	-0.785762	-0.027263
H74	H	-0.885362	-0.795180	-0.041840
H75	H	-0.785115	-0.786563	0.069255
O76	O	-0.749511	-0.810127	0.385813
C77	C	-0.635549	-0.758126	0.438337
H78	H	-0.478721	-0.787162	0.451942
H79	H	-0.728388	-0.743606	0.502190
H80	H	-0.607386	-0.701562	0.403353
O81	O	-0.841302	-0.147578	0.000157
C82	C	-0.783390	-0.068056	0.000142
H83	H	-0.621776	-0.062024	0.027453
H84	H	-0.902420	-0.030187	0.042028
H85	H	-0.779146	-0.047654	-0.069066
H86	H	-0.159109	-0.331137	0.000126
