data_functionalizedCrystal
_audit_creation_method	'MofGen! by Chris Wilmer'
_symmetry_space_group_name_H-M	'P1'
_symmetry_Int_Tables_number	1
_symmetry_cell_setting	triclinic
loop_
_symmetry_equiv_pos_as_xyz
  x,y,z
_cell_length_a	12.759401
_cell_length_b	12.645330
_cell_length_c	12.759393
_cell_angle_alpha	89.968933
_cell_angle_beta	89.980520
_cell_angle_gamma	90.011760
loop_
_atom_site_label
_atom_site_type_symbol
_atom_site_fract_x
_atom_site_fract_y
_atom_site_fract_z
Zn1	Zn	1.606268	-0.422014	-0.594010
Zn2	Zn	1.606170	-0.599314	-0.418328
Zn3	Zn	1.430571	-0.422062	-0.418346
Zn4	Zn	1.430565	-0.599233	-0.593966
O5	O	1.518393	-0.510656	-0.506163
O6	O	1.753276	-0.445546	-0.570717
O7	O	1.582837	-0.575856	-0.271310
O8	O	1.453921	-0.273709	-0.441674
O9	O	1.753204	-0.575808	-0.441644
O10	O	1.583005	-0.273673	-0.570734
O11	O	1.453825	-0.445630	-0.271322
O12	O	1.283549	-0.445551	-0.441631
O13	O	1.453912	-0.575670	-0.740993
O14	O	1.283545	-0.575717	-0.570659
O15	O	1.583000	-0.445468	-0.741025
O16	O	1.582832	-0.747651	-0.441601
O17	O	1.453816	-0.747591	-0.570642
C18	C	1.245426	-0.510631	-0.506143
C19	C	1.128649	-0.510646	-0.506159
C20	C	1.073759	-0.442779	-0.439098
C21	C	0.964035	-0.442804	-0.439111
C22	C	0.964102	-0.578566	-0.573256
C23	C	1.073824	-0.578546	-0.573237
C24	C	1.128584	-0.374880	-0.372021
C25	C	1.073694	-0.307007	-0.304955
C26	C	0.963970	-0.307032	-0.304968
C27	C	0.909136	-0.374930	-0.372047
C28	C	1.518341	-0.786085	-0.506138
C29	C	1.518414	-0.903915	-0.506162
C30	C	1.599448	-1.071473	-0.424818
C31	C	1.599712	-0.948913	-0.425017
C32	C	1.548442	-0.948290	-0.616907
C33	C	1.549085	-1.070888	-0.616475
C34	C	1.407322	-1.071243	-0.477853
C35	C	1.407854	-0.948639	-0.475369
C36	C	1.792427	-0.510681	-0.506183
C37	C	1.909203	-0.510692	-0.506192
C38	C	1.518466	-0.510554	-0.780196
C39	C	1.518497	-0.510511	-0.896973
C40	C	1.518475	-0.234150	-0.506211
C41	C	1.518510	-0.116320	-0.506231
C42	C	1.585677	-0.578294	-0.951826
C43	C	1.585708	-0.578248	-1.061550
C44	C	1.451372	-0.442635	-1.061559
C45	C	1.451346	-0.442675	-0.951837
C46	C	1.652827	-0.646129	-0.896962
C47	C	1.720012	-0.713918	-0.951815
C48	C	1.720043	-0.713873	-1.061539
C49	C	1.652891	-0.646039	-1.116410
C50	C	1.518382	-0.510680	-0.233195
C51	C	1.518554	-0.510425	-0.116419
H52	H	1.580925	-0.918915	-0.342902
N53	N	0.904767	-0.233832	-0.232635
H54	H	0.826938	-0.244148	-0.242819
H55	H	0.923913	-0.250236	-0.157571
N56	N	0.790791	-0.374970	-0.372054
H57	H	0.764335	-0.321678	-0.319388
H58	H	0.764475	-0.355611	-0.444198
H59	H	1.385214	-0.919648	-0.393871
N60	N	1.792509	-0.786975	-1.120705
H61	H	1.835042	-0.829951	-1.069296
H62	H	1.749737	-0.836009	-1.166219
N63	N	1.378883	-0.369569	-0.892673
H64	H	1.330174	-0.412663	-0.847135
H65	H	1.421660	-0.320479	-0.847224
H66	H	1.652930	-0.645999	-1.205755
N67	N	1.133032	-0.651747	-0.645565
H68	H	1.178587	-0.608720	-0.694317
H69	H	1.178467	-0.700795	-0.602691
N70	N	1.323651	-0.908062	-0.548132
H71	H	1.356125	-0.859904	-0.602335
H72	H	1.288700	-0.969729	-0.584276
H73	H	1.580896	-1.101031	-0.342462
N74	N	1.378928	-0.369494	-1.120736
H75	H	1.389131	-0.379762	-1.198568
H76	H	1.303891	-0.386011	-1.101536
N77	N	1.652805	-0.646179	-0.778618
H78	H	1.672138	-0.573471	-0.752202
H79	H	1.580704	-0.665708	-0.752263
H80	H	1.217927	-0.374849	-0.372005
H81	H	1.118346	-0.251733	-0.250336
H82	H	1.774691	-0.769140	-0.907131
N83	N	0.904966	-0.651795	-0.645601
H84	H	0.827128	-0.641508	-0.635439
H85	H	0.924183	-0.635384	-0.720661
N86	N	1.707951	-1.112176	-0.449389
H87	H	1.704905	-1.159539	-0.513028
H88	H	1.756131	-1.050512	-0.463951
H89	H	1.682065	-0.919505	-0.443787
H90	H	1.492715	-1.100550	-0.679224
N91	N	1.656742	-1.108667	-0.648291
H92	H	1.703336	-1.045681	-0.662465
H93	H	1.687811	-1.152534	-0.589887
N94	N	1.472736	-0.909686	-0.699417
H95	H	1.418117	-0.862947	-0.665721
H96	H	1.512182	-0.868045	-0.754288
H97	H	1.628797	-0.917501	-0.641346
N98	N	1.371141	-1.112306	-0.372745
H99	H	1.367002	-1.192036	-0.374957
H100	H	1.422555	-1.089925	-0.316824
N101	N	1.327434	-1.109656	-0.556390
H102	H	1.363032	-1.156030	-0.610096
H103	H	1.271426	-1.151635	-0.518950
