data_functionalizedCrystal
_audit_creation_method	'MofGen! by Chris Wilmer'
_symmetry_space_group_name_H-M	'P1'
_symmetry_Int_Tables_number	1
_symmetry_cell_setting	triclinic
loop_
_symmetry_equiv_pos_as_xyz
  x,y,z
_cell_length_a	20.919309
_cell_length_b	20.919099
_cell_length_c	12.970454
_cell_angle_alpha	61.865878
_cell_angle_beta	89.998754
_cell_angle_gamma	59.198870
loop_
_atom_site_label
_atom_site_type_symbol
_atom_site_fract_x
_atom_site_fract_y
_atom_site_fract_z
Zr1	Zr	0.677000	0.614079	-0.038073
O2	O	0.578310	0.747940	-0.196951
O3	O	0.702239	0.485643	0.002524
O4	O	0.709471	0.611680	-0.200873
O5	O	0.571077	0.621904	0.176113
O6	O	0.818638	0.603617	-0.194744
O7	O	0.571077	0.621903	0.006446
O8	O	0.805700	0.378160	0.169097
O9	O	0.584015	0.847361	-0.187728
O10	O	0.800532	0.530444	0.034208
O11	O	0.719061	0.536462	0.156254
O12	O	0.727577	0.684854	-0.083220
O13	O	0.646106	0.690872	0.038826
Zr14	Zr	0.851107	0.601220	0.242302
Zr15	Zr	0.851109	0.601219	-0.028297
Zr16	Zr	0.676999	0.614080	0.232526
Zr17	Zr	0.686098	0.772643	-0.023363
Zr18	Zr	0.842009	0.442655	0.227592
O19	O	0.825869	0.729655	0.201705
O20	O	0.825870	0.729654	-0.183052
O21	O	0.578309	0.747941	0.187805
O22	O	0.949797	0.467359	0.401180
O23	O	0.949799	0.467357	0.016424
O24	O	0.702237	0.485645	0.387281
O25	O	0.957031	0.593395	0.028116
O26	O	0.818636	0.603619	0.405102
O27	O	0.709469	0.611682	0.398973
O28	O	0.957030	0.593395	0.197783
O29	O	0.722408	0.837138	-0.179958
O30	O	0.805699	0.378160	0.384187
O31	O	0.944092	0.367938	0.391957
O32	O	0.944093	0.367937	0.176867
O33	O	0.584014	0.847361	0.027362
O34	O	0.722407	0.837139	0.035132
O35	O	0.800531	0.530445	0.287449
O36	O	0.882001	0.524426	0.165403
O37	O	0.809046	0.678837	0.047975
O38	O	0.727576	0.684855	0.170021
C39	C	0.752673	0.409309	0.083715
C40	C	0.748811	0.341995	0.077470
C41	C	0.724110	-0.035865	0.037897
C42	C	0.727738	0.027401	0.043713
C43	C	0.786555	-0.000165	0.138386
C44	C	0.841744	-0.091005	0.227256
C45	C	0.838113	-0.154270	0.221445
C46	C	0.800368	0.187891	0.160529
C47	C	0.803997	0.251164	0.166332
C48	C	0.689989	0.369566	-0.017211
C49	C	0.686366	0.306295	-0.023019
C50	C	0.741552	0.215461	0.065855
C51	C	0.790266	0.064501	0.144331
C52	C	0.737837	0.150797	0.059915
C53	C	0.546270	0.623736	0.089887
C54	C	0.472357	0.629195	0.085737
C55	C	0.475711	0.551162	0.145077
C56	C	0.406259	0.556297	0.141175
C57	C	0.333453	0.639467	0.077925
C58	C	0.330100	0.717506	0.018583
C59	C	0.399551	0.712370	0.022493
C60	C	0.121849	0.659007	0.063060
C61	C	0.052396	0.664137	0.059152
C62	C	0.128560	0.502927	0.181746
C63	C	0.198009	0.497798	0.185644
C64	C	0.194651	0.575838	0.126308
C65	C	0.262460	0.644718	0.073932
C66	C	0.265642	0.570586	0.130309
C67	C	0.981837	0.591563	0.114342
C68	C	1.055751	0.586103	0.118492
C69	C	0.764055	0.607648	-0.236363
C70	C	0.764056	0.607648	-0.351239
C71	C	0.775434	0.805989	0.120514
C72	C	0.779297	0.873304	0.126759
C73	C	0.764052	0.607650	0.440592
C74	C	0.764052	0.607651	0.555468
C75	C	0.970456	0.393223	0.095943
C76	C	1.040508	0.320449	0.093848
C77	C	0.752672	0.409311	0.422192
C78	C	0.748809	0.341996	0.530824
C79	C	0.970455	0.393224	0.434420
C80	C	1.040506	0.320450	0.547202
C81	C	0.557652	0.822075	-0.230191
C82	C	0.487601	0.894848	-0.342973
C83	C	0.557651	0.822076	0.108286
C84	C	0.487599	0.894850	0.110381
C85	C	0.775436	0.805988	-0.217963
C86	C	0.779299	0.873302	-0.326595
C87	C	1.030878	0.289414	0.024371
C88	C	1.096693	0.221044	0.022378
C89	C	1.172136	0.183706	0.089870
C90	C	1.181764	0.214747	0.159349
C91	C	1.115950	0.283120	0.161335
C92	C	0.789521	0.307244	0.650332
C93	C	0.785889	0.244004	0.752414
C94	C	0.741548	0.215513	0.734985
C95	C	0.700831	0.250272	0.615464
C96	C	0.704459	0.313516	0.513385
C97	C	1.115936	0.283133	0.536459
C98	C	1.181764	0.214762	0.642420
C99	C	1.172158	0.183706	0.759122
C100	C	1.096720	0.221030	0.769863
C101	C	1.030895	0.289404	0.663903
C102	C	0.412171	0.932174	-0.332229
C103	C	0.346345	1.000564	-0.438188
C104	C	0.355951	1.031623	-0.554890
C105	C	0.431389	0.994295	-0.565631
C106	C	0.497214	0.925910	-0.459673
C107	C	0.497229	0.925891	0.179848
C108	C	0.431416	0.994279	0.181812
C109	C	0.355973	1.031619	0.114317
C110	C	0.346345	1.000575	0.044842
C111	C	0.412158	0.932194	0.042871
C112	C	0.823646	0.901773	-0.309127
C113	C	0.827291	0.965012	-0.411187
C114	C	0.786584	0.999785	-0.530714
C115	C	0.742234	0.971308	-0.548181
C116	C	0.738594	0.908065	-0.446122
H117	H	0.689946	0.173238	-0.017164
H118	H	1.088911	0.195734	0.864896
H119	H	0.404306	0.906922	-0.013694
H120	H	1.225719	0.128032	0.088244
H121	H	0.439271	1.019543	0.238391
H122	H	0.856796	0.873470	-0.211810
O123	O	0.401802	0.898686	-0.206363
H124	H	0.338287	0.936146	-0.216713
H125	H	0.738601	0.164016	0.818115
O126	O	1.126312	0.316629	0.410598
H127	H	1.157002	0.261046	0.396586
H128	H	0.709092	0.999630	-0.645513
H129	H	0.664730	0.227065	0.601291
H130	H	0.671309	0.341803	0.416080
H131	H	1.243198	0.184336	0.214298
H132	H	0.838157	0.042064	0.221411
O133	O	0.578596	0.885625	0.252647
H134	H	0.612966	0.895269	0.188928
O135	O	1.263124	0.174503	0.630822
H136	H	1.258736	0.207576	0.531867
H137	H	1.225764	0.128031	0.845391
O138	O	0.949515	0.329683	-0.048447
H139	H	0.905359	0.382441	-0.035402
H140	H	0.284910	1.030989	-0.010111
O141	O	0.829812	0.206515	0.881316
H142	H	0.872805	0.133272	0.929827
O143	O	0.949535	0.329634	0.675494
H144	H	0.953923	0.296537	0.774448
O145	O	0.875123	0.995722	-0.392336
H146	H	0.902804	0.960925	-0.292073
H147	H	0.284926	1.030945	-0.429419
H148	H	0.302391	1.087300	0.115932
H149	H	0.789554	1.051281	-0.613807
H150	H	0.682807	0.101359	-0.028659
O151	O	0.344166	0.480884	0.198514
H152	H	0.377633	0.474687	0.273113
H153	H	1.123802	0.308379	0.217918
O154	O	0.284951	1.105391	-0.669171
H155	H	0.230889	1.126121	-0.642082
H156	H	0.439201	1.019593	-0.660663
O157	O	0.578571	0.885643	-0.471267
H158	H	0.574182	0.918727	-0.570222
O159	O	0.897641	-0.252242	0.317277
H160	H	0.939157	-0.260785	0.384077
H161	H	0.845307	0.113937	0.232894
O162	O	0.690756	0.877363	-0.464961
H163	H	0.628443	0.935294	-0.516115
O164	O	0.660670	-0.006131	-0.064213
H165	H	0.622900	0.067661	-0.125018
O166	O	0.837350	0.337961	0.669157
H167	H	0.833047	0.387772	0.578106
O168	O	0.622926	0.336030	-0.125131
H169	H	0.564493	0.378917	-0.120377
O170	O	0.630463	0.467534	-0.113058
H171	H	0.642862	0.506898	-0.093110
H172	H	0.851894	0.228707	0.243433
H173	H	0.889632	-0.113446	0.304345
H174	H	0.408998	0.492754	0.189499
O175	O	0.554238	0.461457	0.213298
H176	H	0.544899	0.408059	0.253914
H177	H	0.257288	0.430073	0.237124
H178	H	1.088838	0.195779	-0.034200
H179	H	0.131285	0.439392	0.230055
H180	H	-0.006888	0.731867	0.007641
H181	H	0.270815	0.785225	-0.032909
O182	O	0.118226	0.743173	-0.000952
H183	H	0.055930	0.801866	-0.045603
H184	H	0.396815	0.775913	-0.025812
H185	H	0.203174	0.712435	0.022434
