data_functionalizedCrystal
_audit_creation_method	'MofGen! by Chris Wilmer'
_symmetry_space_group_name_H-M	'P1'
_symmetry_Int_Tables_number	1
_symmetry_cell_setting	triclinic
loop_
_symmetry_equiv_pos_as_xyz
  x,y,z
_cell_length_a	14.519709
_cell_length_b	14.519731
_cell_length_c	7.088929
_cell_angle_alpha	83.763267
_cell_angle_beta	96.220807
_cell_angle_gamma	83.684499
loop_
_atom_site_label
_atom_site_type_symbol
_atom_site_fract_x
_atom_site_fract_y
_atom_site_fract_z
O1	O	1.214440	0.130340	-0.158746
O2	O	1.547774	0.463674	0.174587
O3	O	1.881107	0.797007	0.507921
O4	O	0.945961	0.144580	-0.158805
O5	O	1.279294	0.477913	0.174528
O6	O	1.612628	0.811247	0.507862
O7	O	1.087310	0.003222	-0.158757
O8	O	1.420643	0.336555	0.174577
O9	O	1.753976	0.669889	0.507910
O10	O	1.073091	0.271698	-0.158795
O11	O	1.406425	0.605032	0.174539
O12	O	1.739758	0.938365	0.507872
O13	O	1.106200	-0.015712	0.159225
O14	O	1.439533	0.317621	0.492558
O15	O	1.772866	0.650955	0.825892
O16	O	0.964851	0.125646	0.159177
O17	O	1.298184	0.458980	0.492510
O18	O	1.631517	0.792313	0.825843
O19	O	1.233330	0.111406	0.159236
O20	O	1.566663	0.444740	0.492569
O21	O	1.899997	0.778073	0.825902
Cu22	Cu	1.100815	0.116797	0.188240
Cu23	Cu	1.434149	0.450131	0.521574
Cu24	Cu	1.767482	0.783464	0.854907
Cu25	Cu	1.078476	0.139189	-0.187810
Cu26	Cu	1.411809	0.472522	0.145524
Cu27	Cu	1.745143	0.805856	0.478857
O28	O	1.091981	0.252765	0.159187
O29	O	1.425315	0.586098	0.492520
O30	O	1.758648	0.919431	0.825854
C31	C	1.096089	-0.040605	0.000234
C32	C	1.429422	0.292729	0.333568
C33	C	1.762755	0.626062	0.666901
C34	C	1.094093	-0.142985	0.000235
C35	C	1.427426	0.190349	0.333569
C36	C	1.760759	0.523682	0.666902
C37	C	0.921046	0.134450	0.000178
C38	C	1.254379	0.467783	0.333512
C39	C	1.587712	0.801117	0.666845
C40	C	0.818663	0.132463	0.000156
C41	C	1.151996	0.465797	0.333490
C42	C	1.485330	0.799130	0.666823
C43	C	1.092470	-0.226129	0.000230
C44	C	1.425804	0.107205	0.333564
C45	C	1.759137	0.440538	0.666897
C46	C	1.090443	-0.330436	0.000215
C47	C	1.423776	0.002897	0.333549
C48	C	1.757110	0.336230	0.666882
C49	C	1.088834	-0.413575	0.000203
C50	C	1.422167	-0.080241	0.333536
C51	C	1.755500	0.253092	0.666869
C52	C	1.086807	-0.517890	0.000191
C53	C	1.420140	-0.184556	0.333525
C54	C	1.753473	0.148777	0.666858
C55	C	0.443772	0.125139	0.000244
C56	C	0.777105	0.458472	0.333578
C57	C	1.110438	0.791805	0.666911
C58	C	0.548078	0.127173	0.000219
C59	C	0.881412	0.460506	0.333553
C60	C	1.214745	0.793839	0.666886
C61	C	0.631214	0.128801	0.000199
C62	C	0.964547	0.462134	0.333532
C63	C	1.297881	0.795467	0.666865
C64	C	0.735527	0.130835	0.000177
C65	C	1.068861	0.464168	0.333510
C66	C	1.402194	0.797502	0.666844
C67	C	1.258245	0.121537	0.000248
C68	C	1.591579	0.454870	0.333581
C69	C	1.924912	0.788203	0.666915
C70	C	1.360627	0.123524	0.000257
C71	C	1.693960	0.456857	0.333591
C72	C	2.027294	0.790191	0.666924
C73	C	1.083202	0.296591	0.000192
C74	C	1.416536	0.629924	0.333525
C75	C	1.749869	0.963258	0.666858
C76	C	1.085197	0.398972	0.000179
C77	C	1.418531	0.732306	0.333512
C78	C	1.751864	1.065639	0.666845
N79	N	1.116534	0.101048	0.452734
N80	N	1.449868	0.434381	0.786067
N81	N	1.783201	0.767715	1.119400
N82	N	1.062764	0.154931	-0.452303
N83	N	1.396097	0.488265	-0.118970
N84	N	1.729431	0.821598	0.214363
H85	H	1.172271	0.045212	0.534409
H86	H	1.505604	0.378545	0.867742
H87	H	1.838938	0.711879	1.201075
H88	H	1.007038	0.210770	0.466031
H89	H	1.340371	0.544103	0.799365
H90	H	1.673704	0.877437	1.132698
