data_functionalizedCrystal
_audit_creation_method	'MofGen! by Chris Wilmer'
_symmetry_space_group_name_H-M	'P1'
_symmetry_Int_Tables_number	1
_symmetry_cell_setting	triclinic
loop_
_symmetry_equiv_pos_as_xyz
  x,y,z
_cell_length_a	12.759401
_cell_length_b	19.805405
_cell_length_c	12.759393
_cell_angle_alpha	90.033867
_cell_angle_beta	90.020938
_cell_angle_gamma	90.028251
loop_
_atom_site_label
_atom_site_type_symbol
_atom_site_fract_x
_atom_site_fract_y
_atom_site_fract_z
Zn1	Zn	1.606179	-0.269403	0.593995
Zn2	Zn	2.106179	0.230597	1.093995
Zn3	Zn	1.606033	-0.382606	0.418305
Zn4	Zn	2.106033	0.117394	0.918305
Zn5	Zn	1.430477	-0.269439	0.418331
Zn6	Zn	1.930477	0.230561	0.918331
Zn7	Zn	1.430432	-0.382558	0.593942
Zn8	Zn	1.930432	0.117442	1.093942
O9	O	1.518280	-0.326001	0.506143
O10	O	2.018280	0.173999	1.006143
O11	O	1.753180	-0.284424	0.570701
O12	O	2.253180	0.215576	1.070701
O13	O	1.582703	-0.367629	0.271287
O14	O	2.082703	0.132371	0.771287
O15	O	1.453864	-0.174718	0.441666
O16	O	1.953864	0.325282	0.941666
O17	O	1.753073	-0.367594	0.441623
O18	O	2.253073	0.132406	0.941623
O19	O	1.582951	-0.174691	0.570726
O20	O	2.082951	0.325309	1.070726
O21	O	1.453723	-0.284486	0.271306
O22	O	1.953723	0.215514	0.771306
O23	O	1.283450	-0.284440	0.441614
O24	O	1.783450	0.215560	0.941614
O25	O	1.453788	-0.367513	0.740971
O26	O	1.953788	0.132487	1.240971
O27	O	1.283417	-0.367548	0.570636
O28	O	1.783417	0.132452	1.070636
O29	O	1.582908	-0.284378	0.741010
O30	O	2.082908	0.215622	1.241010
O31	O	1.582659	-0.477316	0.441571
O32	O	2.082659	0.022684	0.941571
O33	O	1.453646	-0.477281	0.570611
O34	O	1.953646	0.022719	1.070611
C35	C	1.245313	-0.325993	0.506123
C36	C	1.745313	0.174007	1.006123
C37	C	1.128536	-0.326006	0.506139
C38	C	1.628536	0.173994	1.006139
C39	C	1.073685	-0.369346	0.573214
C40	C	1.573685	0.130654	1.073214
C41	C	0.963961	-0.369349	0.573235
C42	C	1.463961	0.130651	1.073235
C43	C	0.963949	-0.282669	0.439096
C44	C	1.463949	0.217331	0.939096
C45	C	1.073672	-0.282663	0.439081
C46	C	1.573672	0.217337	0.939081
C47	C	1.518161	-0.501857	0.506105
C48	C	2.018161	-0.001857	1.006105
C49	C	1.518205	-0.577089	0.506124
C50	C	2.018205	-0.077089	1.006124
C51	C	1.585381	-0.612362	0.573379
C52	C	2.085381	-0.112362	1.073379
C53	C	1.585419	-0.683050	0.573398
C54	C	2.085419	-0.183050	1.073398
C55	C	1.518286	-0.718465	0.506157
C56	C	2.018286	-0.218465	1.006157
C57	C	1.451103	-0.683188	0.438900
C58	C	1.951103	-0.183188	0.938900
C59	C	1.451060	-0.612501	0.438887
C60	C	1.951060	-0.112501	0.938887
C61	C	1.451271	-0.968261	0.438954
C62	C	1.951271	-0.468261	0.938954
C63	C	1.451321	-1.038953	0.438970
C64	C	1.951321	-0.538953	0.938970
C65	C	1.585630	-1.038810	0.573465
C66	C	2.085630	-0.538810	1.073465
C67	C	1.585588	-0.968123	0.573452
C68	C	2.085588	-0.468123	1.073452
C69	C	1.518401	-0.932852	0.506199
C70	C	2.018401	-0.432852	1.006199
C71	C	1.518360	-0.856204	0.506180
C72	C	2.018360	-0.356204	1.006180
C73	C	1.518332	-0.795112	0.506170
C74	C	2.018332	-0.295112	1.006170
C75	C	1.792313	-0.326010	0.506165
C76	C	2.292313	0.173990	1.006165
C77	C	1.909090	-0.326014	0.506174
C78	C	2.409090	0.173986	1.006174
C79	C	1.518359	-0.325936	0.780177
C80	C	2.018359	0.174064	1.280177
C81	C	1.518392	-0.325909	0.896954
C82	C	2.018392	0.174091	1.396954
C83	C	1.518429	-0.149459	0.506205
C84	C	2.018429	0.350541	1.006205
C85	C	1.518492	-0.074227	0.506231
C86	C	2.018492	0.425773	1.006231
C87	C	1.518262	-0.326017	0.233176
C88	C	2.018262	0.173983	0.733176
C89	C	1.518432	-0.325854	0.116400
C90	C	2.018432	0.174146	0.616400
C91	C	1.585630	-0.282614	0.951838
C92	C	2.085630	0.217386	1.451838
C93	C	1.585648	-0.282584	1.061562
C94	C	2.085648	0.217416	1.561562
C95	C	1.451187	-0.369151	1.061508
C96	C	1.951187	0.130849	1.561508
C97	C	1.451165	-0.369177	0.951786
C98	C	1.951165	0.130823	1.451786
H99	H	1.640054	-0.583531	0.628129
H100	H	2.140054	-0.083531	1.128129
N101	N	0.904798	-0.416097	0.645576
N102	N	1.404798	0.083903	1.145576
H103	H	0.956207	-0.443553	0.688049
H104	H	1.456207	0.056447	1.188049
H105	H	0.859233	-0.447386	0.602722
H106	H	1.359233	0.052614	1.102722
N107	N	1.378697	-0.721381	0.366369
N108	N	1.878697	-0.221381	0.866369
H109	H	1.330006	-0.750721	0.409021
H110	H	1.830006	-0.250721	0.909021
H111	H	1.421519	-0.750664	0.317740
H112	H	1.921519	-0.250664	0.817740
H113	H	1.640368	-0.247380	0.907196
H114	H	2.140368	0.252620	1.407196
N115	N	1.378903	-1.077155	0.366452
N116	N	1.878903	-0.577155	0.866452
H117	H	1.421643	-1.106479	0.317806
H118	H	1.921643	-0.606479	0.817806
H119	H	1.336345	-1.044044	0.323917
H120	H	1.836345	-0.544044	0.823917
H121	H	1.118333	-0.247366	0.384460
H122	H	1.618333	0.252634	0.884460
N123	N	1.657991	-0.929922	0.645975
N124	N	2.157991	-0.429922	1.145975
H125	H	1.733076	-0.942187	0.629733
H126	H	2.233076	-0.442187	1.129733
H127	H	1.641549	-0.942213	0.721000
H128	H	2.141549	-0.442213	1.221000
H129	H	1.396404	-0.404432	0.907098
H130	H	1.896404	0.095568	1.407098
N131	N	1.132863	-0.416091	0.645538
N132	N	1.632863	0.083909	1.145538
H133	H	1.081460	-0.443546	0.688033
H134	H	1.581460	0.056454	1.188033
H135	H	1.178431	-0.388576	0.694228
H136	H	1.678431	0.111424	1.194228
N137	N	0.904774	-0.235940	0.366744
N138	N	1.404774	0.264060	0.866744
H139	H	0.826942	-0.242526	0.376920
H140	H	1.326942	0.257474	0.876920
H141	H	0.923925	-0.246433	0.291688
H142	H	1.423925	0.253567	0.791688
N143	N	1.657820	-0.721094	0.645989
N144	N	2.157820	-0.221094	1.145989
H145	H	1.700329	-0.687933	0.688596
H146	H	2.200329	-0.187933	1.188596
H147	H	1.706496	-0.750436	0.603325
H148	H	2.206496	-0.250436	1.103325
N149	N	1.378820	-0.930224	0.366410
N150	N	1.878820	-0.430224	0.866410
H151	H	1.336306	-0.963387	0.323812
H152	H	1.836306	-0.463387	0.823812
H153	H	1.421599	-0.900895	0.317825
H154	H	1.921599	-0.400895	0.817825
H155	H	1.640334	-1.067536	0.628230
H156	H	2.140334	-0.567536	1.128230
H157	H	1.396357	-0.583783	0.384123
H158	H	1.896357	-0.083783	0.884123
N159	N	1.658156	-0.235880	1.120759
N160	N	2.158156	0.264120	1.620759
H161	H	1.700734	-0.208474	1.069370
H162	H	2.200734	0.291526	1.569370
H163	H	1.706763	-0.263417	1.166290
H164	H	2.206763	0.236583	1.666290
H165	H	1.396455	-0.404380	1.106166
H166	H	1.896455	0.095620	1.606166
