data_functionalizedCrystal
_audit_creation_method	'MofGen! by Chris Wilmer'
_symmetry_space_group_name_H-M	'P1'
_symmetry_Int_Tables_number	1
_symmetry_cell_setting	triclinic
loop_
_symmetry_equiv_pos_as_xyz
  x,y,z
_cell_length_a	12.827885
_cell_length_b	12.759401
_cell_length_c	12.827892
_cell_angle_alpha	89.983083
_cell_angle_beta	89.970024
_cell_angle_gamma	90.019449
loop_
_atom_site_label
_atom_site_type_symbol
_atom_site_fract_x
_atom_site_fract_y
_atom_site_fract_z
Zn1	Zn	-0.590852	-1.606246	-0.415940
Zn2	Zn	-0.416112	-1.606139	-0.590717
Zn3	Zn	-0.416125	-1.430549	-0.415996
Zn4	Zn	-0.590811	-1.430534	-0.590644
O5	O	-0.503475	-1.518367	-0.503324
O6	O	-0.567684	-1.753253	-0.439132
O7	O	-0.269878	-1.582809	-0.567594
O8	O	-0.439326	-1.453906	-0.269752
O9	O	-0.439303	-1.753175	-0.567540
O10	O	-0.567697	-1.582990	-0.269711
O11	O	-0.269887	-1.453803	-0.439227
O12	O	-0.439286	-1.283526	-0.439156
O13	O	-0.737053	-1.453881	-0.567416
O14	O	-0.567627	-1.283515	-0.567469
O15	O	-0.737083	-1.582976	-0.439061
O16	O	-0.439264	-1.582794	-0.736944
O17	O	-0.567614	-1.453778	-0.736890
C18	C	-0.503455	-1.245400	-0.503311
C19	C	-0.503470	-1.128623	-0.503331
C20	C	-0.503456	-1.518302	-0.774834
C21	C	-0.503483	-1.518370	-0.890987
C22	C	-0.776046	-1.518439	-0.503224
C23	C	-0.892199	-1.518469	-0.503181
C24	C	-0.943998	-1.582356	-0.439655
C25	C	-1.064049	-1.582389	-0.439609
C26	C	-0.231965	-1.518356	-0.503349
C27	C	-0.115813	-1.518530	-0.503097
C28	C	-0.503497	-1.792400	-0.503338
C29	C	-0.503506	-1.909177	-0.503344
C30	C	-0.570192	-1.073783	-0.570246
C31	C	-0.570213	-0.964059	-0.570250
C32	C	-0.436781	-0.964025	-0.436422
C33	C	-0.436766	-1.073747	-0.436413
C34	C	-0.693413	-0.814159	-0.607747
C35	C	-0.760126	-0.759316	-0.674678
C36	C	-0.775989	-0.794912	-0.776661
C37	C	-0.725125	-0.885350	-0.811735
C38	C	-0.658404	-0.940188	-0.744809
C39	C	-0.642560	-0.904593	-0.642811
C40	C	-0.313565	-1.223649	-0.398927
C41	C	-0.246839	-1.278489	-0.332006
C42	C	-0.230964	-1.242895	-0.230021
C43	C	-0.281810	-1.152453	-0.194951
C44	C	-0.348537	-1.097613	-0.261872
C45	C	-0.364413	-1.133215	-0.363856
C46	C	-0.567062	-1.582216	-0.942668
C47	C	-0.567091	-1.582287	-1.062719
C48	C	-0.503518	-1.518462	-0.230754
C49	C	-0.503536	-1.518502	-0.114601
H50	H	-0.899469	-1.637024	-0.385298
H51	H	-0.621478	-1.636821	-0.898040
F52	F	-0.846996	-0.736543	-0.847890
F53	F	-0.432377	-1.447056	-1.056519
F54	F	-1.122270	-1.653889	-0.368524
H55	H	-0.268869	-1.123460	-0.111913
F56	F	-0.638235	-1.653742	-1.120808
F57	F	-0.432366	-1.446985	-0.949317
H58	H	-1.071273	-1.463835	-0.557491
H59	H	-0.936728	-1.463791	-0.557528
H60	H	-0.624510	-1.118460	-0.624732
H61	H	-0.738038	-0.914318	-0.894784
F62	F	-0.604270	-1.036431	-0.782131
H63	H	-0.382471	-0.919331	-0.381941
F64	F	-0.814260	-0.663070	-0.637346
H65	H	-0.680513	-0.785175	-0.524700
H66	H	-0.176621	-1.287551	-0.175538
H67	H	-0.389946	-1.023976	-0.233307
H68	H	-0.205436	-1.352131	-0.360569
F69	F	-0.330354	-1.261463	-0.507515
