data_functionalizedCrystal
_audit_creation_method	'MofGen! by Chris Wilmer'
_symmetry_space_group_name_H-M	'P1'
_symmetry_Int_Tables_number	1
_symmetry_cell_setting	triclinic
loop_
_symmetry_equiv_pos_as_xyz
  x,y,z
_cell_length_a	6.394989
_cell_length_b	16.109301
_cell_length_c	14.586319
_cell_angle_alpha	89.998857
_cell_angle_beta	90.000822
_cell_angle_gamma	95.020353
loop_
_atom_site_label
_atom_site_type_symbol
_atom_site_fract_x
_atom_site_fract_y
_atom_site_fract_z
O1	O	-0.268483	1.105973	-0.076184
O2	O	-0.301894	0.864265	-0.076196
O3	O	0.018878	0.988550	-0.076190
O4	O	-0.589255	0.981688	-0.076189
O5	O	0.018883	0.988541	0.076290
O6	O	-0.301889	0.864256	0.076285
O7	O	-0.268478	1.105964	0.076297
Cu8	Cu	-0.285183	0.985109	0.090214
Cu9	Cu	-0.285189	0.985119	-0.090113
O10	O	-0.589250	0.981679	0.076291
C11	C	-0.300538	0.833271	0.000043
C12	C	-0.296480	0.740933	0.000038
C13	C	-0.473555	0.433809	0.000054
C14	C	-0.477387	0.520570	0.000049
C15	C	-0.096802	0.536414	0.000036
C16	C	-0.092972	0.449655	0.000035
C17	C	-0.281355	0.398354	0.000048
C18	C	-0.289017	0.571874	0.000044
C19	C	-0.293171	0.665944	0.000039
C20	C	-0.277202	0.304278	0.000052
C21	C	0.096701	0.987188	0.000046
C22	C	0.332933	0.983042	0.000045
C23	C	-0.269834	1.136958	0.000056
C24	C	-0.273892	1.229296	0.000055
N25	N	-0.285178	0.985108	0.217045
N26	N	-0.285177	0.985127	-0.216944
C27	C	-0.143187	1.040160	0.452054
C28	C	-0.143182	1.040162	0.548035
C29	C	-0.427175	0.930069	0.548040
C30	C	-0.427168	0.930063	0.452060
C31	C	-0.285177	0.985113	0.404070
C32	C	-0.285178	0.985121	0.596031
C33	C	-0.285174	0.985124	0.700098
C34	C	-0.285178	0.985110	0.299996
H35	H	0.056572	0.578193	0.000027
F36	F	-0.681953	0.558299	0.000051
F37	F	0.007946	1.098749	0.599101
F38	F	0.111605	0.411920	0.000019
F39	F	0.007938	1.098748	0.400983
F40	F	-0.578290	0.871485	0.599121
F41	F	-0.578292	0.871468	0.400988
H42	H	-0.626949	0.392042	0.000065
