data_functionalizedCrystal
_audit_creation_method	'MofGen! by Chris Wilmer'
_symmetry_space_group_name_H-M	'P1'
_symmetry_Int_Tables_number	1
_symmetry_cell_setting	triclinic
loop_
_symmetry_equiv_pos_as_xyz
  x,y,z
_cell_length_a	19.288864
_cell_length_b	19.188930
_cell_length_c	17.766277
_cell_angle_alpha	89.988508
_cell_angle_beta	89.976791
_cell_angle_gamma	83.140512
loop_
_atom_site_label
_atom_site_type_symbol
_atom_site_fract_x
_atom_site_fract_y
_atom_site_fract_z
O1	O	0.921360	0.087099	-0.062844
O2	O	1.421360	0.587099	0.437156
O3	O	0.719100	0.098849	-0.062794
O4	O	1.219100	0.598849	0.437206
O5	O	0.826066	-0.008682	-0.062806
O6	O	1.326066	0.491318	0.437194
O7	O	0.814393	0.194630	-0.062832
O8	O	1.314393	0.694630	0.437168
O9	O	0.826048	-0.008688	0.062383
O10	O	1.326048	0.491312	0.562383
O11	O	0.719081	0.098843	0.062395
O12	O	1.219081	0.598843	0.562395
O13	O	0.921341	0.087094	0.062345
O14	O	1.421341	0.587094	0.562345
Cu15	Cu	0.820209	0.092968	0.073800
Cu16	Cu	1.320209	0.592968	0.573800
Cu17	Cu	0.820231	0.092974	-0.074250
Cu18	Cu	1.320231	0.592974	0.425750
O19	O	0.814374	0.194625	0.062356
O20	O	1.314374	0.694625	0.562356
C21	C	0.693214	0.098468	-0.000193
C22	C	1.193214	0.598468	0.499807
C23	C	0.616110	0.097333	-0.000173
C24	C	1.116110	0.597333	0.499827
C25	C	0.571419	0.160427	-0.000193
C26	C	1.071419	0.660427	0.499807
C27	C	0.498972	0.159361	-0.000201
C28	C	0.998972	0.659361	0.499799
C29	C	0.471219	0.095197	-0.000204
C30	C	0.971219	0.595197	0.499796
C31	C	0.515921	0.032095	-0.000180
C32	C	1.015921	0.532095	0.499820
C33	C	0.588366	0.033163	-0.000164
C34	C	1.088366	0.533163	0.499836
C35	C	0.362960	0.044759	-0.044082
C36	C	0.862960	0.544759	0.455918
C37	C	0.290515	0.043694	-0.044103
C38	C	0.790515	0.543694	0.455897
C39	C	0.247773	0.091900	-0.000249
C40	C	0.747773	0.591900	0.499751
C41	C	0.277483	0.141184	0.043614
C42	C	0.777483	0.641184	0.543614
C43	C	0.349929	0.142252	0.043630
C44	C	0.849929	0.642252	0.543630
C45	C	0.392665	0.094032	-0.000221
C46	C	0.892665	0.594032	0.499779
C47	C	0.124526	0.153843	-0.000277
C48	C	0.624526	0.653843	0.499723
C49	C	0.052078	0.152774	-0.000281
C50	C	0.552078	0.652774	0.499719
C51	C	0.069028	0.025506	-0.000267
C52	C	0.569028	0.525506	0.499733
C53	C	0.141475	0.026576	-0.000256
C54	C	0.641475	0.526576	0.499744
C55	C	0.169219	0.090747	-0.000265
C56	C	0.669219	0.590747	0.499735
C57	C	0.825679	-0.034696	-0.000209
C58	C	1.325679	0.465304	0.499791
C59	C	0.824544	-0.112200	-0.000202
C60	C	1.324544	0.387800	0.499798
C61	C	0.887309	-0.157129	-0.000214
C62	C	1.387309	0.342871	0.499786
C63	C	0.886243	-0.229953	-0.000226
C64	C	1.386243	0.270047	0.499774
C65	C	0.822408	-0.257844	-0.000211
C66	C	1.322408	0.242156	0.499789
C67	C	0.759636	-0.212906	-0.000203
C68	C	1.259636	0.287094	0.499797
C69	C	0.760704	-0.140084	-0.000199
C70	C	1.260704	0.359916	0.499801
N71	N	0.773608	-0.365848	0.042405
N72	N	1.273608	0.134152	0.542405
N73	N	0.772598	-0.435026	0.042403
N74	N	1.272598	0.064974	0.542403
C75	C	0.819187	-0.477253	-0.000225
C76	C	1.319187	0.022747	0.499775
N77	N	0.866835	-0.447689	-0.042841
N78	N	1.366835	0.052311	0.457159
N79	N	0.867847	-0.378504	-0.042836
N80	N	1.367847	0.121496	0.457164
C81	C	0.821243	-0.336807	-0.000216
C82	C	1.321243	0.163193	0.499784
C83	C	0.880800	-0.601146	-0.000251
C84	C	1.380800	-0.101146	0.499749
C85	C	0.879731	-0.673971	-0.000268
C86	C	1.379731	-0.173971	0.499732
C87	C	0.753122	-0.656922	-0.000237
C88	C	1.253122	-0.156922	0.499763
C89	C	0.754193	-0.584099	-0.000228
C90	C	1.254193	-0.084099	0.499772
C91	C	0.818034	-0.556216	-0.000231
C92	C	1.318034	-0.056216	0.499769
C93	C	0.947227	0.087475	-0.000258
C94	C	1.447227	0.587475	0.499742
C95	C	1.024330	0.088609	-0.000283
C96	C	1.524330	0.588609	0.499717
C97	C	0.814762	0.220638	-0.000242
C98	C	1.314762	0.720638	0.499758
C99	C	0.815896	0.298143	-0.000253
C100	C	1.315896	0.798143	0.499747
N101	N	0.820199	0.092963	0.177931
N102	N	1.320199	0.592963	0.677931
N103	N	0.820247	0.092974	-0.178380
N104	N	1.320247	0.592974	0.321620
C105	C	0.867579	0.045372	0.217312
C106	C	1.367579	0.545372	0.717312
C107	C	0.867583	0.045368	0.296114
C108	C	1.367583	0.545368	0.796114
C109	C	0.820213	0.092969	0.335531
C110	C	1.320213	0.592969	0.835531
C111	C	0.772824	0.140564	0.296140
C112	C	1.272824	0.640564	0.796140
C113	C	0.772817	0.140561	0.217340
C114	C	1.272817	0.640561	0.717340
C115	C	0.810919	0.156585	0.460362
C116	C	1.310919	0.656585	0.960362
C117	C	0.810931	0.156589	0.539161
C118	C	1.310931	0.656589	1.039161
C119	C	0.820232	0.092977	0.578578
C120	C	1.320232	0.592977	1.078578
C121	C	0.829535	0.029359	0.539185
C122	C	1.329535	0.529359	1.039185
C123	C	0.829528	0.029356	0.460385
C124	C	1.329528	0.529356	0.960385
C125	C	0.820216	0.092977	0.420977
C126	C	1.320216	0.592977	0.920977
C127	C	0.867619	0.045378	0.703405
C128	C	1.367619	0.545378	1.203405
C129	C	0.867618	0.045374	0.782208
C130	C	1.367618	0.545374	1.282208
C131	C	0.772863	0.140575	0.782233
C132	C	1.272863	0.640575	1.282233
C133	C	0.772861	0.140573	0.703431
C134	C	1.272861	0.640573	1.203431
C135	C	0.820242	0.092976	0.664022
C136	C	1.320242	0.592976	1.164022
H137	H	0.493320	-0.020148	-0.000193
H138	H	0.993320	0.479852	0.499807
N139	N	0.839571	-0.039258	0.581686
N140	N	1.339571	0.460742	1.081686
H141	H	0.838161	-0.029606	0.637582
H142	H	1.338161	0.470394	1.137582
H143	H	0.801046	-0.068238	0.567937
H144	H	1.301046	0.431762	1.067937
N145	N	0.409058	-0.007237	-0.091386
N146	N	0.909058	0.492763	0.408614
H147	H	0.443090	-0.036784	-0.057782
H148	H	0.943090	0.463216	0.442218
H149	H	0.379195	-0.038567	-0.119173
H150	H	0.879195	0.461433	0.380827
N151	N	0.003892	0.220843	-0.000258
N152	N	0.503892	0.720843	0.499742
H153	H	0.012812	0.248866	-0.046656
H154	H	0.512812	0.748866	0.453344
H155	H	-0.046200	0.210396	-0.000220
H156	H	0.453800	0.710396	0.499780
N157	N	0.953942	-0.278421	-0.000223
N158	N	1.453942	0.221579	0.499777
H159	H	0.943577	-0.328785	-0.000222
H160	H	1.443577	0.171215	0.499778
H161	H	0.981790	-0.269411	-0.046633
H162	H	1.481790	0.230589	0.453367
N163	N	0.636575	-0.034892	-0.000139
N164	N	1.136575	0.465108	0.499861
H165	H	0.608004	-0.075703	-0.000139
H166	H	1.108004	0.424297	0.499861
H167	H	0.667027	-0.037220	-0.046542
H168	H	1.167027	0.462780	0.453458
N169	N	0.690789	-0.242991	-0.000181
N170	N	1.190789	0.257009	0.499819
H171	H	0.663293	-0.226600	0.046233
H172	H	1.163293	0.273400	0.546233
H173	H	0.663361	-0.226578	-0.046612
H174	H	1.163361	0.273422	0.453388
H175	H	0.930844	-0.710552	-0.000281
H176	H	1.430844	-0.210552	0.499719
N177	N	0.154454	0.223052	-0.000272
N178	N	0.654454	0.723052	0.499728
H179	H	0.207130	0.214155	-0.000264
H180	H	0.707130	0.714155	0.499736
H181	H	0.138113	0.250656	-0.046685
H182	H	0.638113	0.750656	0.453315
N183	N	0.721710	0.191891	0.174858
N184	N	1.221710	0.691891	0.674858
H185	H	0.691698	0.222044	0.211783
H186	H	1.191698	0.722044	0.711783
H187	H	0.748200	0.222691	0.142141
H188	H	1.248200	0.722691	0.642141
N189	N	0.684271	-0.686994	-0.000229
N190	N	1.184271	-0.186994	0.499771
H191	H	0.693117	-0.739945	-0.000236
H192	H	1.193117	-0.239945	0.499764
H193	H	0.656805	-0.670555	0.046187
H194	H	1.156805	-0.170555	0.546187
H195	H	0.939293	-0.134431	-0.000220
H196	H	1.439293	0.365569	0.499780
N197	N	0.231400	0.193180	0.090928
N198	N	0.731400	0.693180	0.590928
H199	H	0.237472	0.242493	0.074553
H200	H	0.737472	0.742493	0.574553
H201	H	0.181018	0.184966	0.084255
H202	H	0.681018	0.684966	0.584255
H203	H	0.734254	0.179319	0.328238
H204	H	1.234254	0.679319	0.828238
H205	H	0.906158	0.006613	0.185228
H206	H	1.406158	0.506613	0.685228
H207	H	0.932783	-0.578442	-0.000257
H208	H	1.432783	-0.078442	0.499743
N209	N	0.381975	0.195401	0.090939
N210	N	0.881975	0.695401	0.590939
H211	H	0.343911	0.225780	0.118719
H212	H	0.843911	0.725780	0.618719
H213	H	0.415434	0.170145	0.128408
H214	H	0.915434	0.670145	0.628408
N215	N	0.918686	-0.005966	0.338603
N216	N	1.418686	0.494034	0.838603
H217	H	0.948699	-0.036119	0.301680
H218	H	1.448699	0.463881	0.801680
H219	H	0.949307	0.020693	0.371273
H220	H	1.449307	0.520693	0.871273
N221	N	0.450760	0.227417	-0.000226
N222	N	0.950760	0.727417	0.499774
H223	H	0.459690	0.255418	-0.046638
H224	H	0.959690	0.755418	0.453362
H225	H	0.400677	0.216945	-0.000208
H226	H	0.900677	0.716945	0.499792
H227	H	0.703083	-0.547517	-0.000214
H228	H	1.203083	-0.047517	0.499786
H229	H	0.837101	-0.022444	0.428315
H230	H	1.337101	0.477556	0.928315
N231	N	0.039107	-0.043702	-0.000262
N232	N	0.539107	0.456298	0.499738
H233	H	-0.013570	-0.034806	-0.000273
H234	H	0.486430	0.465194	0.499727
H235	H	0.055494	-0.071302	-0.046665
H236	H	0.555494	0.428698	0.453335
N237	N	0.189677	-0.041480	-0.000237
N238	N	0.689677	0.458520	0.499763
H239	H	0.180800	-0.069483	-0.046644
H240	H	0.680800	0.430517	0.453356
H241	H	0.239763	-0.031013	-0.000197
H242	H	0.739763	0.468987	0.499803
N243	N	0.601343	0.229636	-0.000208
N244	N	1.101343	0.729636	0.499792
H245	H	0.562033	0.269445	-0.000223
H246	H	1.062033	0.769445	0.499777
H247	H	0.631007	0.232857	0.046206
H248	H	1.131007	0.732857	0.546206
H249	H	0.266331	0.003566	-0.079822
H250	H	0.766331	0.503566	0.420178
N251	N	0.693005	-0.091619	-0.000186
N252	N	1.193005	0.408381	0.499814
H253	H	0.652402	-0.120336	-0.000181
H254	H	1.152402	0.379664	0.499819
H255	H	0.690683	-0.061046	0.046227
H256	H	1.190683	0.438954	0.546227
N257	N	0.918718	-0.005958	0.660892
N258	N	1.418718	0.494042	1.160892
H259	H	0.948731	-0.036112	0.697801
H260	H	1.448731	0.463888	1.197801
H261	H	0.892221	-0.036756	0.628217
H262	H	1.392221	0.463244	1.128217
H263	H	0.906199	0.006616	0.814274
H264	H	1.406199	0.506616	1.314274
H265	H	0.734291	0.179330	0.814326
H266	H	1.234291	0.679330	1.314326
N267	N	0.721756	0.191909	0.660957
N268	N	1.221756	0.691909	1.160957
H269	H	0.729602	0.241444	0.674653
H270	H	1.229602	0.741444	1.174653
H271	H	0.728960	0.184626	0.605069
H272	H	1.228960	0.684626	1.105069
N273	N	0.800894	0.225201	0.581646
N274	N	1.300894	0.725201	1.081646
H275	H	0.794989	0.265498	0.544720
H276	H	1.294989	0.765498	1.044720
H277	H	0.757905	0.226763	0.614361
H278	H	1.257905	0.726763	1.114361
N279	N	0.800889	0.225200	0.417852
N280	N	1.300889	0.725200	0.917852
H281	H	0.795005	0.265500	0.454762
H282	H	1.295005	0.765500	0.954762
H283	H	0.843070	0.229163	0.385135
H284	H	1.343070	0.729163	0.885135
