data_functionalizedCrystal
_audit_creation_method	'MofGen! by Chris Wilmer'
_symmetry_space_group_name_H-M	'P1'
_symmetry_Int_Tables_number	1
_symmetry_cell_setting	triclinic
loop_
_symmetry_equiv_pos_as_xyz
  x,y,z
_cell_length_a	10.654549
_cell_length_b	15.186229
_cell_length_c	10.654550
_cell_angle_alpha	90.003596
_cell_angle_beta	84.484854
_cell_angle_gamma	90.002342
loop_
_atom_site_label
_atom_site_type_symbol
_atom_site_fract_x
_atom_site_fract_y
_atom_site_fract_z
O1	O	1.667840	0.073208	0.176395
O2	O	2.001173	0.406541	0.509729
O3	O	2.334506	0.739875	0.843062
O4	O	1.302361	0.073214	0.193202
O5	O	1.635694	0.406548	0.526535
O6	O	1.969028	0.739881	0.859868
O7	O	1.493503	0.073205	0.002059
O8	O	1.826837	0.406539	0.335393
O9	O	2.160170	0.739872	0.668726
O10	O	1.476697	0.073217	0.367538
O11	O	1.810031	0.406550	0.700871
O12	O	2.143364	0.739884	1.034204
O13	O	1.493490	-0.073252	0.002056
O14	O	1.826824	0.260082	0.335390
O15	O	2.160157	0.593415	0.668723
O16	O	1.302348	-0.073243	0.193199
O17	O	1.635681	0.260090	0.526532
O18	O	1.969015	0.593424	0.859866
O19	O	1.667827	-0.073249	0.176392
O20	O	2.001160	0.260084	0.509726
O21	O	2.334493	0.593417	0.843059
Zn22	Zn	1.485085	-0.096499	0.184795
Zn23	Zn	1.818419	0.236834	0.518128
Zn24	Zn	2.151752	0.570167	0.851462
Zn25	Zn	1.485102	0.096464	0.184799
Zn26	Zn	1.818436	0.429798	0.518132
Zn27	Zn	2.151769	0.763131	0.851466
O28	O	1.476684	-0.073240	0.367535
O29	O	1.810018	0.260093	0.700868
O30	O	2.143351	0.593426	1.034202
C31	C	1.255557	-0.000014	0.191966
C32	C	1.588890	0.333320	0.525300
C33	C	1.922223	0.666653	0.858633
C34	C	1.116113	-0.000011	0.188275
C35	C	1.449447	0.333322	0.521608
C36	C	1.782780	0.666655	0.854941
N37	N	1.485083	-0.228192	0.184792
N38	N	1.818416	0.105141	0.518125
N39	N	2.151750	0.438475	0.851459
C40	C	0.905599	-0.000012	0.297338
C41	C	1.238932	0.333322	0.630671
C42	C	1.572265	0.666655	0.964005
C43	C	1.036619	-0.000006	0.300816
C44	C	1.369953	0.333327	0.634150
C45	C	1.703286	0.666660	0.967483
C46	C	1.064581	-0.000013	0.072247
C47	C	1.397914	0.333320	0.405580
C48	C	1.731248	0.666654	0.738914
C49	C	0.933563	-0.000012	0.068770
C50	C	1.266896	0.333321	0.402103
C51	C	1.600229	0.666655	0.735437
C52	C	1.569750	-0.453919	0.100183
C53	C	1.903083	-0.120585	0.433516
C54	C	2.236417	0.212748	0.766850
C55	C	1.569754	-0.546108	0.100180
C56	C	1.903087	-0.212775	0.433513
C57	C	2.236421	0.120558	0.766847
C58	C	1.400438	-0.546110	0.269405
C59	C	1.733772	-0.212776	0.602738
C60	C	2.067105	0.120557	0.936072
C61	C	1.400429	-0.453922	0.269401
C62	C	1.733763	-0.120588	0.602734
C63	C	2.067096	0.212745	0.936068
C64	C	1.485092	-0.407829	0.184792
C65	C	1.818426	-0.074495	0.518125
C66	C	2.151759	0.258838	0.851458
C67	C	1.485105	-0.592206	0.184793
C68	C	1.818439	-0.258873	0.518126
C69	C	2.151772	0.074460	0.851459
C70	C	1.485109	-0.692162	0.184790
C71	C	1.818442	-0.358829	0.518123
C72	C	2.151776	-0.025496	0.851457
C73	C	1.485087	-0.307866	0.184792
C74	C	1.818421	0.025467	0.518125
C75	C	2.151754	0.358800	0.851459
C76	C	1.714631	-0.000019	0.177628
C77	C	2.047964	0.333314	0.510961
C78	C	2.381298	0.666647	0.844294
C79	C	1.854074	-0.000016	0.181319
C80	C	2.187408	0.333317	0.514653
C81	C	2.520741	0.666651	0.847986
C82	C	1.492263	-0.000023	-0.044740
C83	C	1.825596	0.333311	0.288593
C84	C	2.158930	0.666644	0.621926
C85	C	1.488571	-0.000021	-0.184183
C86	C	1.821904	0.333312	0.149150
C87	C	2.155238	0.666645	0.482483
N88	N	1.485115	0.228157	0.184792
N89	N	1.818448	0.561490	0.518126
N90	N	2.151781	0.894824	0.851459
C91	C	1.601113	-0.000023	-0.263669
C92	C	1.934446	0.333311	0.069664
C93	C	2.267779	0.666644	0.402997
C94	C	1.597636	-0.000012	-0.394690
C95	C	1.930969	0.333321	-0.061357
C96	C	2.264303	0.666655	0.271977
C97	C	1.369067	-0.000002	-0.366727
C98	C	1.702400	0.333332	-0.033393
C99	C	2.035733	0.666665	0.299940
C100	C	1.372544	-0.000006	-0.235708
C101	C	1.705878	0.333327	0.097625
C102	C	2.039211	0.666660	0.430958
C103	C	1.477925	-0.000010	0.414334
C104	C	1.811258	0.333323	0.747668
C105	C	2.144591	0.666656	1.081001
C106	C	1.481617	-0.000006	0.553777
C107	C	1.814950	0.333327	0.887111
C108	C	2.148283	0.666661	1.220444
H109	H	0.840882	-0.000014	0.388983
H110	H	1.174216	0.333319	0.722317
H111	H	1.507549	0.666653	1.055650
H112	H	1.689279	-0.000011	-0.459403
H113	H	2.022612	0.333322	-0.126070
H114	H	2.355946	0.666655	0.207264
H115	H	1.331485	-0.416393	0.338300
H116	H	1.664818	-0.083059	0.671633
H117	H	1.998152	0.250274	1.004967
H118	H	1.638688	-0.583632	0.031283
H119	H	1.972022	-0.250299	0.364616
H120	H	2.305355	0.083034	0.697949
H121	H	1.274601	0.000009	-0.408694
H122	H	1.607935	0.333342	-0.075361
H123	H	1.941268	0.666675	0.257972
H124	H	1.129316	-0.000012	-0.019386
H125	H	1.462649	0.333321	0.313947
H126	H	1.795982	0.666655	0.647280
H127	H	1.280894	-0.000002	-0.170987
H128	H	1.614227	0.333331	0.162346
H129	H	1.947560	0.666664	0.495680
H130	H	1.638686	-0.416392	0.031287
H131	H	1.972019	-0.083059	0.364620
H132	H	2.305353	0.250275	0.697954
H133	H	1.078563	-0.000002	0.395290
H134	H	1.411896	0.333331	0.728623
H135	H	1.745230	0.666665	1.061957
H136	H	0.891613	-0.000013	-0.025712
H137	H	1.224946	0.333321	0.307621
H138	H	1.558279	0.666654	0.640955
H139	H	1.331509	-0.583648	0.338294
H140	H	1.664843	-0.250315	0.671628
H141	H	1.998176	0.083019	1.004961
H142	H	1.695589	-0.000033	-0.221722
H143	H	2.028922	0.333300	0.111611
H144	H	2.362255	0.666634	0.444944
