data_functionalizedCrystal
_audit_creation_method	'MofGen! by Chris Wilmer'
_symmetry_space_group_name_H-M	'P1'
_symmetry_Int_Tables_number	1
_symmetry_cell_setting	triclinic
loop_
_symmetry_equiv_pos_as_xyz
  x,y,z
_cell_length_a	23.532361
_cell_length_b	23.532357
_cell_length_c	9.130313
_cell_angle_alpha	89.993247
_cell_angle_beta	90.004063
_cell_angle_gamma	82.828980
loop_
_atom_site_label
_atom_site_type_symbol
_atom_site_fract_x
_atom_site_fract_y
_atom_site_fract_z
O1	O	0.755261	0.069008	-0.121670
O2	O	0.589392	0.079039	-0.121708
O3	O	0.677343	-0.008911	-0.121658
O4	O	0.667310	0.156958	-0.121720
O5	O	0.677342	-0.008909	0.121941
O6	O	0.589391	0.079041	0.121891
O7	O	0.755260	0.069010	0.121929
Cu8	Cu	0.672325	0.074026	0.144153
Cu9	Cu	0.672327	0.074023	-0.143931
O10	O	0.667309	0.156960	0.121879
C11	C	0.568175	0.078789	0.000088
C12	C	0.504957	0.078034	0.000075
C13	C	0.677092	-0.030127	0.000146
C14	C	0.676337	-0.093345	0.000160
C15	C	0.231714	0.074729	-0.132701
C16	C	0.291114	0.075444	-0.132705
O17	O	0.321840	0.075793	-0.245632
N18	N	0.320819	0.075806	0.000081
C19	C	0.291122	0.075448	0.132880
O20	O	0.321843	0.075821	0.245824
C21	C	0.231724	0.074729	0.132882
C22	C	0.202021	0.074372	0.000087
C23	C	0.202012	0.074372	-0.265485
C24	C	0.142616	0.073658	-0.265481
C25	C	0.112923	0.073301	-0.132692
C26	C	0.142626	0.073658	0.000092
C27	C	0.202029	0.074366	0.265679
C28	C	0.142627	0.073647	0.265670
C29	C	0.112924	0.073290	0.132875
C30	C	0.053537	0.072588	0.132885
N31	N	0.023832	0.072225	0.000098
C32	C	0.053525	0.072582	-0.132690
C33	C	0.415862	0.076957	0.132865
C34	C	0.475258	0.077680	0.132864
C35	C	0.475246	0.077675	-0.132721
C36	C	0.415848	0.076956	-0.132719
C37	C	0.386157	0.076594	0.000079
C38	C	-0.071210	0.071083	-0.132671
C39	C	-0.130612	0.070372	-0.132654
C40	C	-0.130594	0.070374	0.132930
C41	C	-0.071198	0.071089	0.132915
C42	C	-0.041508	0.071441	0.000102
O43	O	0.022773	0.072236	0.245754
O44	O	0.022798	0.072201	-0.245616
C45	C	0.671601	-0.485357	-0.132706
C46	C	0.670884	-0.544756	-0.132714
O47	O	0.670494	-0.575474	-0.245644
N48	N	0.670527	-0.574466	0.000069
C49	C	0.670883	-0.544773	0.132870
O50	O	0.670513	-0.575497	0.245813
C51	C	0.671596	-0.485374	0.132877
C52	C	0.671958	-0.455668	0.000085
C53	C	0.671962	-0.455651	-0.265488
C54	C	0.672681	-0.396256	-0.265478
C55	C	0.673038	-0.366567	-0.132688
C56	C	0.672676	-0.396273	0.000094
C57	C	0.671947	-0.455681	0.265677
C58	C	0.672660	-0.396278	0.265672
C59	C	0.673022	-0.366572	0.132880
C60	C	0.673751	-0.307189	0.132894
N61	N	0.674108	-0.277479	0.000110
C62	C	0.673751	-0.307168	-0.132681
C63	C	0.669384	-0.669514	0.132846
C64	C	0.668675	-0.728912	0.132840
C65	C	0.668675	-0.728892	-0.132745
C66	C	0.669388	-0.669493	-0.132738
C67	C	0.669740	-0.639804	0.000062
C68	C	0.675260	-0.182434	-0.132652
C69	C	0.675980	-0.123034	-0.132631
C70	C	0.675977	-0.123060	0.132954
C71	C	0.675260	-0.182455	0.132934
C72	C	0.674899	-0.212140	0.000119
O73	O	0.674139	-0.276433	0.245765
O74	O	0.674113	-0.276435	-0.245604
C75	C	0.776477	0.069260	0.000131
C76	C	0.839695	0.070015	0.000134
C77	C	0.667560	0.178176	0.000072
C78	C	0.668315	0.241394	0.000048
N79	N	0.672329	0.074027	0.346775
N80	N	0.672328	0.074017	-0.346554
C81	C	0.711283	0.035096	0.423449
C82	C	0.711282	0.035089	0.576786
C83	C	0.633369	0.112950	0.576761
C84	C	0.633369	0.112954	0.423427
C85	C	0.750243	-0.003830	0.346797
C86	C	0.789201	-0.042764	0.423472
C87	C	0.789200	-0.042771	0.576808
C88	C	0.750240	-0.003844	0.653471
H89	H	-0.154793	0.070083	-0.240797
C90	C	0.507916	0.078059	-0.278797
C91	C	0.555509	0.029085	-0.315276
C92	C	0.588179	0.029469	-0.461342
C93	C	0.573257	0.078827	-0.570929
C94	C	0.525661	0.127805	-0.534452
C95	C	0.492991	0.127421	-0.388386
H96	H	0.566557	-0.007456	-0.234151
H97	H	0.623413	-0.006788	-0.488344
H98	H	0.597441	0.079111	-0.679056
H99	H	0.514612	0.164346	-0.615577
H100	H	0.457757	0.163678	-0.361384
C101	C	0.668279	-0.761555	-0.278823
C102	C	0.717248	-0.809150	-0.315329
C103	C	0.716853	-0.841815	-0.461398
C104	C	0.667489	-0.826884	-0.570960
C105	C	0.618517	-0.779286	-0.534457
C106	C	0.618912	-0.746622	-0.388388
H107	H	0.753793	-0.820205	-0.234222
H108	H	0.753106	-0.877050	-0.488419
H109	H	0.667197	-0.851064	-0.679089
H110	H	0.581972	-0.768232	-0.615564
H111	H	0.582659	-0.711387	-0.361366
H112	H	0.671653	-0.479858	0.373811
H113	H	-0.047043	0.071371	-0.240819
H114	H	-0.047015	0.071390	0.241047
H115	H	0.601648	0.144655	0.360999
H116	H	0.674970	-0.206643	0.241064
C117	C	0.507924	0.078077	0.278944
C118	C	0.541999	0.128030	0.315468
C119	C	0.574662	0.128422	0.461556
C120	C	0.573250	0.078862	0.571119
C121	C	0.539174	0.028906	0.534597
C122	C	0.506511	0.028513	0.388510
H123	H	0.543045	0.164721	0.234361
H124	H	0.599887	0.165404	0.488591
H125	H	0.597429	0.079153	0.679261
H126	H	0.538128	-0.007785	0.615705
H127	H	0.481286	-0.008468	0.361475
C128	C	0.832054	-0.085584	0.339152
C129	C	0.832063	-0.085576	0.170490
C130	C	0.874916	-0.128397	0.086175
C131	C	0.917759	-0.171228	0.170521
C132	C	0.917751	-0.171238	0.339192
C133	C	0.874898	-0.128416	0.423507
H134	H	0.800347	-0.053869	0.108044
H135	H	0.874922	-0.128390	-0.038687
H136	H	0.949481	-0.202927	0.108105
H137	H	0.949468	-0.202945	0.401638
H138	H	0.874892	-0.128424	0.548369
H139	H	0.118438	0.073365	-0.373616
C140	C	0.676365	-0.090392	0.279016
C141	C	0.626798	-0.091801	0.388537
C142	C	0.627179	-0.059130	0.534599
C143	C	0.677127	-0.025051	0.571141
C144	C	0.726698	-0.023640	0.461617
C145	C	0.726317	-0.056311	0.315555
H146	H	0.589820	-0.117030	0.361489
H147	H	0.590483	-0.060175	0.615675
H148	H	0.677409	-0.000866	0.679265
H149	H	0.763676	0.001589	0.488665
H150	H	0.763012	-0.055267	0.234479
H151	H	0.750249	-0.003827	0.221943
C152	C	0.590520	0.155772	0.661085
C153	C	0.590595	0.155845	0.829746
C154	C	0.547746	0.198669	0.914066
C155	C	0.504823	0.241421	0.829726
C156	C	0.504747	0.241349	0.661055
C157	C	0.547595	0.198525	0.576734
H158	H	0.622371	0.124196	0.892188
H159	H	0.547803	0.198721	1.038928
H160	H	0.473104	0.273122	0.892145
H161	H	0.472971	0.272998	0.598612
H162	H	0.547539	0.198473	0.451873
H163	H	0.226182	0.074660	-0.373624
H164	H	0.750239	-0.003857	0.778328
H165	H	0.391668	0.076665	-0.240853
H166	H	0.391690	0.076670	0.241011
H167	H	0.672973	-0.372074	-0.373612
H168	H	0.118454	0.073358	0.373813
H169	H	0.226203	0.074655	0.373815
H170	H	-0.154781	0.070086	0.241043
H171	H	0.676276	-0.098850	-0.240771
H172	H	0.674963	-0.206597	-0.240802
H173	H	0.671670	-0.479817	-0.373628
H174	H	0.669682	-0.645310	-0.240870
H175	H	0.668389	-0.753095	0.240973
H176	H	0.669672	-0.645345	0.240994
H177	H	0.672938	-0.372108	0.373817
H178	H	0.820917	-0.074476	0.639235
