data_functionalizedCrystal
_audit_creation_method	'MofGen! by Chris Wilmer'
_symmetry_space_group_name_H-M	'P1'
_symmetry_Int_Tables_number	1
_symmetry_cell_setting	triclinic
loop_
_symmetry_equiv_pos_as_xyz
  x,y,z
_cell_length_a	21.295420
_cell_length_b	21.295417
_cell_length_c	21.295411
_cell_angle_alpha	89.979403
_cell_angle_beta	89.975408
_cell_angle_gamma	90.025484
loop_
_atom_site_label
_atom_site_type_symbol
_atom_site_fract_x
_atom_site_fract_y
_atom_site_fract_z
Zn1	Zn	0.962359	-0.250752	-0.355917
Zn2	Zn	0.962263	-0.356004	-0.250644
Zn3	Zn	0.857082	-0.250744	-0.250661
Zn4	Zn	0.857053	-0.355979	-0.355875
O5	O	0.909689	-0.303370	-0.303274
O6	O	1.050435	-0.264727	-0.341962
O7	O	0.948282	-0.342048	-0.162557
O8	O	0.871100	-0.162656	-0.264648
O9	O	1.050365	-0.342055	-0.264618
O10	O	0.948446	-0.162661	-0.341979
O11	O	0.871006	-0.264714	-0.162570
O12	O	0.768989	-0.264691	-0.264609
O13	O	0.871050	-0.342014	-0.443970
O14	O	0.768967	-0.342006	-0.341909
O15	O	0.948418	-0.264703	-0.444000
O16	O	0.948254	-0.444090	-0.264578
O17	O	0.870957	-0.444072	-0.341892
C18	C	0.746138	-0.303346	-0.303257
C19	C	0.676169	-0.303351	-0.303264
C20	C	0.176748	-0.263200	-0.343622
C21	C	0.242490	-0.263195	-0.343622
C22	C	0.275330	-0.303389	-0.303289
C23	C	0.242422	-0.343602	-0.262965
C24	C	0.176681	-0.343610	-0.262970
N25	N	0.378520	-0.308125	-0.248169
N26	N	0.440971	-0.308113	-0.248166
C27	C	0.473405	-0.303368	-0.303270
N28	N	0.441027	-0.298623	-0.358380
N29	N	0.378570	-0.298631	-0.358383
C30	C	0.346615	-0.303385	-0.303279
C31	C	0.577590	-0.263156	-0.343595
C32	C	0.643334	-0.263156	-0.343596
C33	C	0.643265	-0.343559	-0.262933
C34	C	0.577522	-0.343562	-0.262938
C35	C	0.544689	-0.303358	-0.303268
C36	C	0.909609	-0.466921	-0.303242
C37	C	0.909632	-0.536890	-0.303250
C38	C	0.949883	-0.569702	-0.343545
C39	C	0.949906	-0.635444	-0.343560
C40	C	0.909683	-0.668372	-0.303270
C41	C	0.869424	-0.635552	-0.262972
C42	C	0.869399	-0.569811	-0.262962
N43	N	0.904924	-0.771624	-0.248179
N44	N	0.904952	-0.834075	-0.248190
C45	C	0.909757	-0.866447	-0.303298
N46	N	0.914545	-0.834007	-0.358396
N47	N	0.914520	-0.771550	-0.358384
C48	C	0.909706	-0.739657	-0.303276
C49	C	0.950034	-0.970544	-0.343613
C50	C	0.950052	-1.036288	-0.343630
C51	C	0.869574	-1.036394	-0.263036
C52	C	0.869553	-0.970652	-0.263025
C53	C	0.909786	-0.937731	-0.303313
C54	C	1.073879	-0.303394	-0.303293
C55	C	1.143847	-0.303405	-0.303300
C56	C	0.909741	-0.303357	-0.467465
C57	C	0.909764	-0.303351	-0.537433
C58	C	0.909787	-0.139180	-0.303320
C59	C	0.909828	-0.069211	-0.303340
C60	C	0.950047	-0.263094	-0.570316
C61	C	0.950046	-0.263066	-0.636059
C62	C	0.909769	-0.303308	-0.668915
C63	C	0.869477	-0.343568	-0.636024
C64	C	0.869475	-0.343589	-0.570283
N65	N	0.904913	-0.358375	-0.772132
N66	N	0.904919	-0.358353	-0.834583
C67	C	0.909773	-0.303244	-0.866990
N68	N	0.914632	-0.248157	-0.834586
N69	N	0.914630	-0.248180	-0.772129
C70	C	0.909766	-0.303288	-0.740201
C71	C	0.950057	-0.262953	-0.971159
C72	C	0.950052	-0.262925	-1.036903
C73	C	0.869486	-0.343432	-1.036867
C74	C	0.869488	-0.343455	-0.971125
C75	C	0.909777	-0.303216	-0.938275
C76	C	0.909673	-0.303338	-0.139723
C77	C	0.909773	-0.303166	-0.069755
H78	H	0.550735	-0.376299	-0.230101
C79	C	0.278187	-0.387172	-0.219197
C80	C	0.342803	-0.378547	-0.227809
C81	C	0.375768	-0.418671	-0.187497
H82	H	0.267481	-0.429507	-0.228296
H83	H	0.267429	-0.377895	-0.176906
H84	H	0.353557	-0.387829	-0.270091
H85	H	0.353527	-0.336220	-0.218706
H86	H	0.365010	-0.409394	-0.145205
H87	H	0.365058	-0.461004	-0.196599
H88	H	0.419613	-0.412820	-0.193330
H89	H	0.150019	-0.230465	-0.376464
H90	H	0.982855	-0.230139	-1.063675
H91	H	0.836685	-0.376191	-1.063618
H92	H	0.836820	-1.063204	-0.230235
H93	H	0.982853	-0.230328	-0.543574
H94	H	0.982678	-0.662165	-0.376380
H95	H	0.982849	-0.230281	-0.662838
H96	H	0.982793	-0.943739	-0.376420
H97	H	0.149894	-0.376351	-0.230135
H98	H	0.550856	-0.230419	-0.376434
H99	H	0.982642	-0.542899	-0.376351
C100	C	0.678944	-0.219433	-0.387401
C101	C	0.636115	-0.184215	-0.422706
C102	C	0.668896	-0.143924	-0.463059
H103	H	0.704597	-0.243476	-0.414843
H104	H	0.704574	-0.191937	-0.363379
H105	H	0.610496	-0.211707	-0.446726
H106	H	0.610461	-0.160159	-0.395280
H107	H	0.694526	-0.116428	-0.439037
H108	H	0.694548	-0.167972	-0.490497
H109	H	0.639842	-0.120020	-0.487014
H110	H	0.836668	-0.376371	-0.543509
C111	C	0.679025	-0.387132	-0.219168
C112	C	0.743641	-0.378512	-0.227784
C113	C	0.776605	-0.418639	-0.187474
H114	H	0.668316	-0.429467	-0.228267
H115	H	0.668270	-0.377855	-0.176876
H116	H	0.754391	-0.387794	-0.270066
H117	H	0.754369	-0.336186	-0.218680
H118	H	0.765851	-0.409362	-0.145182
H119	H	0.765891	-0.460971	-0.196576
H120	H	0.820451	-0.412792	-0.193310
H121	H	0.836779	-0.943934	-0.230211
C122	C	0.825822	-0.671412	-0.219252
C123	C	0.834472	-0.736009	-0.227871
C124	C	0.794319	-0.769062	-0.187602
H125	H	0.783493	-0.660746	-0.228385
H126	H	0.835057	-0.660687	-0.176949
H127	H	0.825233	-0.746730	-0.270164
H128	H	0.876793	-0.746694	-0.218734
H129	H	0.803553	-0.758337	-0.145300
H130	H	0.751992	-0.758391	-0.196739
H131	H	0.800186	-0.812895	-0.193441
C132	C	0.825817	-0.387237	-0.671807
C133	C	0.834454	-0.378616	-0.736420
C134	C	0.794248	-0.418838	-0.769402
H135	H	0.783500	-0.378062	-0.661095
H136	H	0.835011	-0.429550	-0.661070
H137	H	0.825256	-0.336312	-0.747153
H138	H	0.876762	-0.387795	-0.747151
H139	H	0.803442	-0.461152	-0.758664
H140	H	0.751935	-0.409660	-0.758685
H141	H	0.800107	-0.412999	-0.813245
C142	C	0.278107	-0.219473	-0.387426
C143	C	0.235282	-0.184257	-0.422737
C144	C	0.268067	-0.143969	-0.463090
H145	H	0.303762	-0.243518	-0.414864
H146	H	0.303735	-0.191977	-0.363403
H147	H	0.209664	-0.211750	-0.446758
H148	H	0.209626	-0.160199	-0.395315
H149	H	0.293695	-0.116472	-0.439067
H150	H	0.293721	-0.168019	-0.490524
H151	H	0.239015	-0.120066	-0.487049
H152	H	0.982860	-0.230185	-0.944411
H153	H	0.836688	-0.376240	-0.944351
H154	H	0.982829	-1.063003	-0.376445
H155	H	0.836621	-0.543094	-0.230149
