data_functionalizedCrystal
_audit_creation_method	'MofGen! by Chris Wilmer'
_symmetry_space_group_name_H-M	'P1'
_symmetry_Int_Tables_number	1
_symmetry_cell_setting	triclinic
loop_
_symmetry_equiv_pos_as_xyz
  x,y,z
_cell_length_a	19.188930
_cell_length_b	19.188930
_cell_length_c	15.186229
_cell_angle_alpha	89.991143
_cell_angle_beta	89.982767
_cell_angle_gamma	83.144779
loop_
_atom_site_label
_atom_site_type_symbol
_atom_site_fract_x
_atom_site_fract_y
_atom_site_fract_z
O1	O	0.926144	0.087167	-0.073521
O2	O	1.426144	0.587167	0.426479
O3	O	0.722832	0.098901	-0.073462
O4	O	1.222832	0.598901	0.426538
O5	O	0.830355	-0.008622	-0.073476
O6	O	1.330355	0.491378	0.426524
O7	O	0.818621	0.194689	-0.073507
O8	O	1.318621	0.694689	0.426493
O9	O	0.830348	-0.008623	0.072981
O10	O	1.330348	0.491377	0.572981
O11	O	0.722825	0.098899	0.072995
O12	O	1.222825	0.598899	0.572995
O13	O	0.926137	0.087165	0.072936
O14	O	1.426137	0.587165	0.572936
Zn15	Zn	0.824480	0.093032	0.096219
Zn16	Zn	1.324480	0.593032	0.596219
Zn17	Zn	0.824489	0.093034	-0.096745
Zn18	Zn	1.324489	0.593034	0.403255
O19	O	0.818614	0.194688	0.072950
O20	O	1.318614	0.694688	0.572950
C21	C	0.696818	0.098520	-0.000226
C22	C	1.196818	0.598520	0.499774
C23	C	0.619313	0.097380	-0.000203
C24	C	1.119313	0.597380	0.499797
C25	C	0.574389	0.160470	-0.000226
C26	C	1.074389	0.660470	0.499774
C27	C	0.501566	0.159399	-0.000236
C28	C	1.001566	0.659399	0.499764
C29	C	0.473669	0.095233	-0.000239
C30	C	0.973669	0.595233	0.499761
C31	C	0.518603	0.032133	-0.000211
C32	C	1.018603	0.532133	0.499789
C33	C	0.591425	0.033207	-0.000193
C34	C	1.091425	0.533207	0.499807
N35	N	0.365691	0.046186	-0.050113
N36	N	0.865691	0.546186	0.449887
N37	N	0.296513	0.045171	-0.050132
N38	N	0.796513	0.545171	0.449868
C39	C	0.254260	0.091994	-0.000293
C40	C	0.754260	0.591994	0.499707
N41	N	0.283799	0.139883	0.049556
N42	N	0.783799	0.639883	0.549556
N43	N	0.352983	0.140900	0.049571
N44	N	0.852983	0.640900	0.549571
C45	C	0.394707	0.094062	-0.000259
C46	C	0.894707	0.594062	0.499741
C47	C	0.130372	0.153928	-0.000325
C48	C	0.630372	0.653928	0.499675
C49	C	0.057547	0.152853	-0.000329
C50	C	0.557547	0.652853	0.499671
C51	C	0.074586	0.025586	-0.000314
C52	C	0.574586	0.525586	0.499686
C53	C	0.147409	0.026662	-0.000301
C54	C	0.647409	0.526662	0.499699
C55	C	0.175298	0.090835	-0.000311
C56	C	0.675298	0.590835	0.499689
C57	C	0.829972	-0.034634	-0.000245
C58	C	1.329972	0.465366	0.499755
C59	C	0.828831	-0.112138	-0.000237
C60	C	1.328831	0.387862	0.499763
C61	C	0.891922	-0.157062	-0.000251
C62	C	1.391922	0.342938	0.499749
C63	C	0.890850	-0.229886	-0.000265
C64	C	1.390850	0.270114	0.499735
C65	C	0.826684	-0.257782	-0.000247
C66	C	1.326684	0.242218	0.499753
C67	C	0.763585	-0.212849	-0.000238
C68	C	1.263585	0.287151	0.499762
C69	C	0.764658	-0.140026	-0.000233
C70	C	1.264658	0.359974	0.499767
N71	N	0.777634	-0.365788	0.049609
N72	N	1.277634	0.134212	0.549609
N73	N	0.776619	-0.434966	0.049606
N74	N	1.276619	0.065034	0.549606
C75	C	0.823446	-0.477191	-0.000264
C76	C	1.323446	0.022809	0.499736
N77	N	0.871337	-0.447625	-0.050121
N78	N	1.371337	0.052375	0.449879
N79	N	0.872355	-0.378440	-0.050114
N80	N	1.372355	0.121560	0.449886
C81	C	0.825513	-0.336745	-0.000253
C82	C	1.325513	0.163255	0.499747
C83	C	0.885379	-0.601079	-0.000294
C84	C	1.385379	-0.101079	0.499706
C85	C	0.884305	-0.673904	-0.000314
C86	C	1.384305	-0.173904	0.499686
C87	C	0.757038	-0.656865	-0.000278
C88	C	1.257038	-0.156865	0.499722
C89	C	0.758114	-0.584042	-0.000267
C90	C	1.258114	-0.084042	0.499733
C91	C	0.822286	-0.556154	-0.000271
C92	C	1.322286	-0.056154	0.499729
C93	C	0.952151	0.087546	-0.000303
C94	C	1.452151	0.587546	0.499697
C95	C	1.029656	0.088687	-0.000332
C96	C	1.529656	0.588687	0.499668
C97	C	0.818997	0.220700	-0.000283
C98	C	1.318997	0.720700	0.499717
C99	C	0.820138	0.298204	-0.000297
C100	C	1.320138	0.798204	0.499703
N101	N	0.824479	0.093030	0.227911
N102	N	1.324479	0.593030	0.727911
N103	N	0.824496	0.093030	-0.228438
N104	N	1.324496	0.593030	0.271562
C105	C	0.872106	0.045435	0.453628
C106	C	1.372106	0.545435	0.953628
C107	C	0.872108	0.045434	0.545818
C108	C	1.372108	0.545434	1.045818
C109	C	0.776864	0.140628	0.545839
C110	C	1.276864	0.640628	1.045839
C111	C	0.776859	0.140626	0.453651
C112	C	1.276859	0.640626	0.953651
C113	C	0.824484	0.093030	0.407548
C114	C	1.324484	0.593030	0.907548
C115	C	0.824491	0.093031	0.591925
C116	C	1.324491	0.593031	1.091925
C117	C	0.824493	0.093029	0.691882
C118	C	1.324493	0.593029	1.191882
C119	C	0.824481	0.093030	0.307585
C120	C	1.324481	0.593030	0.807585
H121	H	0.495885	-0.020111	-0.000226
H122	H	0.995885	0.479889	0.499774
Br123	Br	0.976479	-0.290866	-0.000288
Br124	Br	1.476479	0.209134	0.499712
H125	H	0.738076	0.179383	0.416130
H126	H	1.238076	0.679383	0.916130
Br127	Br	0.972468	-0.563226	-0.000291
Br128	Br	1.472468	-0.063226	0.499709
H129	H	0.051874	-0.026659	-0.000371
H130	H	0.551874	0.473341	0.499629
Br131	Br	0.612235	0.247561	-0.000238
Br132	Br	1.112235	0.747561	0.499762
H133	H	0.628003	-0.018171	-0.000174
H134	H	1.128003	0.481829	0.499826
H135	H	0.738090	0.179380	0.583385
H136	H	1.238090	0.679380	1.083385
Br137	Br	-0.003424	0.238485	-0.000353
Br138	Br	0.496576	0.738485	0.499647
Br139	Br	0.168225	0.241017	-0.000333
Br140	Br	0.668225	0.741017	0.499667
Br141	Br	0.440585	0.245028	-0.000262
Br142	Br	0.940585	0.745028	0.499738
H143	H	0.935683	-0.710481	-0.000330
H144	H	1.435683	-0.210481	0.499670
Br145	Br	0.936738	-0.019160	0.391062
Br146	Br	1.436738	0.480840	0.891062
Br147	Br	0.208382	-0.058966	-0.000271
Br148	Br	0.708382	0.441034	0.499729
Br149	Br	0.669953	-0.694717	-0.000262
Br150	Br	1.169953	-0.194717	0.499738
H151	H	0.910885	0.006677	0.583333
H152	H	1.410885	0.506677	1.083333
H153	H	0.944176	-0.134360	-0.000258
H154	H	1.444176	0.365640	0.499742
H155	H	0.711340	-0.235567	-0.000225
H156	H	1.211340	0.264433	0.499775
Br157	Br	0.679028	-0.079054	-0.000216
Br158	Br	1.179028	0.420946	0.499784
H159	H	0.706738	-0.547464	-0.000251
H160	H	1.206738	-0.047464	0.499749
