data_functionalizedCrystal
_audit_creation_method	'MofGen! by Chris Wilmer'
_symmetry_space_group_name_H-M	'P1'
_symmetry_Int_Tables_number	1
_symmetry_cell_setting	triclinic
loop_
_symmetry_equiv_pos_as_xyz
  x,y,z
_cell_length_a	16.109302
_cell_length_b	15.944493
_cell_length_c	15.186229
_cell_angle_alpha	90.002130
_cell_angle_beta	89.994701
_cell_angle_gamma	83.468412
loop_
_atom_site_label
_atom_site_type_symbol
_atom_site_fract_x
_atom_site_fract_y
_atom_site_fract_z
O1	O	1.103143	0.107972	-0.073256
O2	O	1.603143	0.607972	0.426744
O3	O	0.861083	0.121408	-0.073248
O4	O	1.361083	0.621408	0.426752
O5	O	0.988748	-0.007590	-0.073260
O6	O	1.488748	0.492410	0.426740
O7	O	0.975478	0.236970	-0.073245
O8	O	1.475478	0.736970	0.426755
O9	O	0.988740	-0.007592	0.073197
O10	O	1.488740	0.492408	0.573197
O11	O	0.861074	0.121406	0.073209
O12	O	1.361074	0.621406	0.573209
O13	O	1.103134	0.107970	0.073201
O14	O	1.603134	0.607970	0.573201
Zn15	Zn	0.982103	0.114688	0.096458
Zn16	Zn	1.482103	0.614688	0.596458
Zn17	Zn	0.982114	0.114690	-0.096506
Zn18	Zn	1.482114	0.614690	0.403494
O19	O	0.975469	0.236969	0.073213
O20	O	1.475469	0.736969	0.573213
C21	C	0.830103	0.120863	-0.000019
C22	C	1.330103	0.620863	0.499981
C23	C	0.737808	0.119231	-0.000016
C24	C	1.237808	0.619231	0.499984
C25	C	0.988201	-0.038886	-0.000035
C26	C	1.488201	0.461114	0.499965
C27	C	0.986575	-0.132134	-0.000046
C28	C	1.486575	0.367866	0.499954
C29	C	0.525462	0.115456	0.079809
C30	C	1.025462	0.615456	0.579809
C31	C	0.438742	0.113914	0.079806
C32	C	0.938742	0.613914	0.579806
C33	C	0.438762	0.113920	-0.079870
C34	C	0.938762	0.613920	0.420130
C35	C	0.525481	0.115456	-0.079866
C36	C	1.025481	0.615456	0.420134
C37	C	0.568828	0.116229	-0.000024
C38	C	1.068828	0.616229	0.499976
C39	C	0.395389	0.113150	-0.000031
C40	C	0.895389	0.613150	0.499969
C41	C	0.301363	0.111477	-0.000035
C42	C	0.801363	0.611477	0.499965
C43	C	0.662861	0.117900	-0.000020
C44	C	1.162861	0.617900	0.499980
C45	C	1.061722	-0.367918	-0.000032
C46	C	1.561722	0.132082	0.499968
C47	C	1.021202	-0.418472	-0.072241
C48	C	1.521202	0.081528	0.427759
C49	C	0.983562	-0.302854	-0.000035
C50	C	1.483562	0.197146	0.499965
C51	C	1.021176	-0.418450	0.072154
C52	C	1.521176	0.081550	0.572154
C53	C	0.980658	-0.467763	-0.000021
C54	C	1.480658	0.032237	0.499979
C55	C	0.943064	-0.352179	-0.072304
C56	C	1.443064	0.147821	0.427696
C57	C	0.943049	-0.352154	0.072156
C58	C	1.443049	0.147846	0.572156
C59	C	0.902472	-0.402675	-0.000071
C60	C	1.402472	0.097325	0.499929
C61	C	0.985238	-0.207855	-0.000044
C62	C	1.485238	0.292145	0.499956
C63	C	0.978976	-0.562759	-0.000018
C64	C	1.478976	-0.062759	0.499982
C65	C	1.134114	0.108516	-0.000031
C66	C	1.634114	0.608516	0.499969
C67	C	1.226409	0.110148	-0.000039
C68	C	1.726409	0.610148	0.499961
C69	C	0.976016	0.268264	-0.000014
C70	C	1.476016	0.768264	0.499986
C71	C	0.977642	0.361512	-0.000009
C72	C	1.477642	0.861512	0.499991
N73	N	0.982101	0.114686	0.228151
N74	N	1.482101	0.614686	0.728151
N75	N	0.982122	0.114686	-0.228198
N76	N	1.482122	0.614686	0.271802
C77	C	1.038651	0.057585	0.453869
C78	C	1.538651	0.557585	0.953869
C79	C	1.038653	0.057583	0.546058
C80	C	1.538653	0.557583	1.046058
C81	C	0.925567	0.171790	0.546078
C82	C	1.425567	0.671790	1.046078
C83	C	0.925561	0.171787	0.453890
C84	C	1.425561	0.671787	0.953890
C85	C	0.982108	0.114686	0.407788
C86	C	1.482108	0.614686	0.907788
C87	C	0.982116	0.114686	0.592165
C88	C	1.482116	0.614686	1.092165
C89	C	0.982119	0.114685	0.692121
C90	C	1.482119	0.614685	1.192121
C91	C	0.982104	0.114686	0.307825
C92	C	1.482104	0.614686	0.807825
H93	H	0.403437	0.113285	0.144814
H94	H	0.903437	0.613285	0.644814
H95	H	0.560791	0.116083	-0.144879
H96	H	1.060791	0.616083	0.355121
H97	H	1.129047	-0.352312	-0.000107
H98	H	1.629047	0.147688	0.499893
N99	N	1.096399	-0.000746	0.593142
N100	N	1.596399	0.499254	1.093142
N101	N	1.096388	-0.000750	0.675452
N102	N	1.596388	0.499250	1.175452
H103	H	1.137166	-0.041953	0.708706
H104	H	1.637166	0.458047	1.208706
N105	N	1.062620	-0.454789	-0.148829
N106	N	1.562620	0.045211	0.351171
N107	N	1.137972	-0.446876	-0.161702
N108	N	1.637972	0.053124	0.338298
H109	H	1.167229	-0.472521	-0.215790
H110	H	1.667229	0.027479	0.284210
H111	H	0.560753	0.116085	0.144821
H112	H	1.060753	0.616085	0.644821
N113	N	0.394469	0.113130	-0.161415
N114	N	0.894469	0.613130	0.338585
N115	N	0.317041	0.111759	-0.161409
N116	N	0.817041	0.611759	0.338591
H117	H	0.285759	0.111203	-0.219002
H118	H	0.785759	0.611203	0.280998
N119	N	1.062576	-0.454749	0.148749
N120	N	1.562576	0.045251	0.648749
N121	N	1.023419	-0.494388	0.202827
N122	N	1.523419	0.005612	0.702827
H123	H	1.052662	-0.520022	0.256920
H124	H	1.552662	-0.020022	0.756920
H125	H	0.879529	0.218282	0.583623
H126	H	1.379529	0.718282	1.083623
N127	N	0.901703	-0.316008	-0.148977
N128	N	1.401703	0.183992	0.351023
N129	N	0.940722	-0.275898	-0.202755
N130	N	1.440722	0.224102	0.297245
H131	H	0.911515	-0.250350	-0.256906
H132	H	1.411515	0.249650	0.243094
N133	N	0.817947	-0.422044	-0.000122
N134	N	1.317947	0.077956	0.499878
N135	N	0.770238	-0.397624	-0.062177
N136	N	1.270238	0.102376	0.437823
H137	H	0.710543	-0.411303	-0.062218
H138	H	1.210543	0.088697	0.437782
N139	N	0.901677	-0.315818	0.148753
N140	N	1.401677	0.184182	0.648753
N141	N	0.928338	-0.337232	0.223677
N142	N	1.428338	0.162768	0.723677
H143	H	0.899125	-0.311570	0.277781
H144	H	1.399125	0.188430	0.777781
H145	H	1.084693	0.011088	0.416334
H146	H	1.584693	0.511088	0.916334
N147	N	0.867789	0.230118	0.406826
N148	N	1.367789	0.730118	0.906826
N149	N	0.817309	0.281099	0.447997
N150	N	1.317309	0.781099	0.947997
H151	H	0.776506	0.322292	0.414759
H152	H	1.276506	0.822292	0.914759
