data_functionalizedCrystal
_audit_creation_method	'MofGen! by Chris Wilmer'
_symmetry_space_group_name_H-M	'P1'
_symmetry_Int_Tables_number	1
_symmetry_cell_setting	triclinic
loop_
_symmetry_equiv_pos_as_xyz
  x,y,z
_cell_length_a	11.026607
_cell_length_b	9.198806
_cell_length_c	10.723024
_cell_angle_alpha	90.002012
_cell_angle_beta	83.473057
_cell_angle_gamma	89.996461
loop_
_atom_site_label
_atom_site_type_symbol
_atom_site_fract_x
_atom_site_fract_y
_atom_site_fract_z
O1	O	1.614521	-0.120890	-0.523503
O2	O	2.114521	0.379110	-0.023503
O3	O	1.260718	-0.120892	-0.463891
O4	O	1.760718	0.379108	0.036109
O5	O	1.445780	-0.120886	-0.313882
O6	O	1.945780	0.379114	0.186118
O7	O	1.429459	-0.120896	-0.673512
O8	O	1.929459	0.379104	-0.173512
O9	O	1.445766	0.120900	-0.313879
O10	O	1.945766	0.620900	0.186121
O11	O	1.260704	0.120893	-0.463888
O12	O	1.760704	0.620893	0.036112
O13	O	1.614506	0.120895	-0.523499
O14	O	2.114506	0.620895	-0.023499
Cu15	Cu	1.437603	0.142971	-0.493693
Cu16	Cu	1.937603	0.642971	0.006307
Cu17	Cu	1.437621	-0.142968	-0.493698
Cu18	Cu	1.937621	0.357032	0.006302
O19	O	1.429444	0.120889	-0.673508
O20	O	1.929444	0.620889	-0.173508
C21	C	1.215408	0.000000	-0.452892
C22	C	1.715408	0.500000	0.047108
C23	C	1.080422	-0.000001	-0.420109
C24	C	1.580422	0.499999	0.079891
N25	N	1.437600	0.344085	-0.493691
N26	N	1.937600	0.844085	0.006309
N27	N	1.437634	-0.344082	-0.493692
N28	N	1.937634	0.155918	0.006308
C29	C	1.007369	-0.000004	-0.510629
C30	C	1.507369	0.499996	-0.010629
C31	C	0.867853	-0.000005	-0.476748
C32	C	1.367853	0.499995	0.023252
C33	C	1.659816	-0.000000	-0.534498
C34	C	2.159816	0.500000	-0.034498
C35	C	1.794803	-0.000009	-0.567282
C36	C	2.294803	0.499991	-0.067282
C37	C	1.444585	0.000005	-0.267125
C38	C	1.944585	0.500005	0.232875
C39	C	1.441032	0.000000	-0.127803
C40	C	1.941032	0.500000	0.372197
C41	C	1.515302	0.416285	-0.430355
C42	C	2.015302	0.916285	0.069645
C43	C	1.515321	0.583697	-0.430355
C44	C	2.015321	1.083697	0.069645
C45	C	1.430639	-0.000005	-0.720266
C46	C	1.930639	0.499995	-0.220266
C47	C	1.434193	-0.000010	-0.859587
C48	C	1.934193	0.499990	-0.359587
C49	C	1.544583	-0.000001	-0.075171
C50	C	2.044583	0.499999	0.424829
C51	C	1.540912	-0.000007	0.068824
C52	C	2.040912	0.499993	0.568824
H53	H	1.048115	0.000001	-0.613209
H54	H	1.548115	0.500001	-0.113209
H55	H	1.581809	0.354161	-0.376125
H56	H	2.081809	0.854161	0.123875
C57	C	1.660676	-0.000007	0.130017
C58	C	2.160676	0.499993	0.630017
N59	N	1.750886	-0.000010	0.176110
N60	N	2.250886	0.499990	0.676110
C61	C	1.668026	0.000010	-0.158308
C62	C	2.168026	0.500010	0.341692
N63	N	1.761007	0.000024	-0.220926
N64	N	2.261007	0.500024	0.279074
H65	H	1.371085	0.406211	-0.547910
H66	H	1.871085	0.906211	-0.047910
C67	C	1.317588	0.000001	-0.044666
C68	C	1.817588	0.500001	0.455334
N69	N	1.224607	0.000007	0.017952
N70	N	1.724607	0.500007	0.517952
C71	C	1.605195	0.667574	-0.357096
C72	C	2.105195	1.167574	0.142904
N73	N	1.672889	0.730753	-0.301914
N74	N	2.172889	1.230753	0.198086
H75	H	0.827113	-0.000039	-0.374161
H76	H	1.327113	0.499961	0.125839
H77	H	1.039676	-0.000035	-0.317529
H78	H	1.539676	0.499965	0.182471
H79	H	1.345540	0.000001	0.095122
H80	H	1.845540	0.500001	0.595122
H81	H	0.835541	-0.000002	-0.669869
H82	H	1.335541	0.499998	-0.169869
H83	H	1.371111	0.593839	-0.547925
H84	H	1.871111	1.093839	-0.047925
