data_functionalizedCrystal
_audit_creation_method	'MofGen! by Chris Wilmer'
_symmetry_space_group_name_H-M	'P1'
_symmetry_Int_Tables_number	1
_symmetry_cell_setting	triclinic
loop_
_symmetry_equiv_pos_as_xyz
  x,y,z
_cell_length_a	12.759395
_cell_length_b	12.759394
_cell_length_c	12.759387
_cell_angle_alpha	90.029967
_cell_angle_beta	90.019431
_cell_angle_gamma	90.013701
loop_
_atom_site_label
_atom_site_type_symbol
_atom_site_fract_x
_atom_site_fract_y
_atom_site_fract_z
Zn1	Zn	1.606275	-0.418215	0.593981
Zn2	Zn	1.606168	-0.593932	0.418304
Zn3	Zn	1.430573	-0.418268	0.418321
Zn4	Zn	1.430568	-0.593853	0.593946
O5	O	1.518396	-0.506067	0.506138
O6	O	1.753282	-0.441536	0.570684
O7	O	1.582832	-0.570685	0.271285
O8	O	1.453927	-0.271240	0.441644
O9	O	1.753203	-0.570635	0.441615
O10	O	1.583014	-0.271201	0.570701
O11	O	1.453824	-0.441625	0.271298
O12	O	1.283551	-0.441548	0.441611
O13	O	1.453918	-0.570499	0.740972
O14	O	1.283548	-0.570549	0.570642
O15	O	1.583010	-0.441459	0.740998
O16	O	1.582828	-0.740943	0.441582
O17	O	1.453815	-0.740884	0.570625
C18	C	1.245428	-0.506046	0.506125
C19	C	1.128652	-0.506063	0.506145
C20	C	1.128714	-0.371849	0.640761
C21	C	1.073885	-0.304756	0.708078
C22	C	0.964163	-0.304774	0.708091
C23	C	0.909268	-0.371892	0.640778
C24	C	0.964098	-0.438986	0.573461
C25	C	1.073822	-0.438962	0.573458
C26	C	0.964036	-0.573192	0.438841
C27	C	1.073757	-0.573180	0.438831
C28	C	0.909141	-0.640309	0.371527
C29	C	0.963971	-0.707410	0.304214
C30	C	1.073699	-0.707389	0.304205
C31	C	1.128587	-0.640274	0.371514
C32	C	1.518338	-0.779034	0.506121
C33	C	1.518409	-0.895811	0.506148
C34	C	1.652727	-0.895613	0.640636
C35	C	1.719919	-0.950375	0.707887
C36	C	1.719981	-1.060096	0.707910
C37	C	1.652842	-1.115059	0.640676
C38	C	1.585650	-1.060297	0.573425
C39	C	1.585597	-0.950573	0.573407
C40	C	1.451328	-1.060495	0.438944
C41	C	1.451270	-0.950773	0.438915
C42	C	1.384189	-1.115457	0.371710
C43	C	1.317001	-1.060696	0.304452
C44	C	1.316942	-0.950967	0.304431
C45	C	1.384077	-0.896012	0.371663
C46	C	1.792429	-0.506089	0.506152
C47	C	1.909206	-0.506098	0.506158
C48	C	1.518475	-0.505964	0.780172
C49	C	1.518509	-0.505920	0.896948
C50	C	1.518483	-0.232034	0.506178
C51	C	1.518520	-0.115257	0.506196
C52	C	1.518377	-0.506094	0.233171
C53	C	1.518547	-0.505842	0.116394
C54	C	1.652941	-0.371560	0.896995
C55	C	1.720171	-0.304364	0.951879
C56	C	1.720197	-0.304326	1.061600
C57	C	1.652982	-0.371488	1.116441
C58	C	1.585752	-0.438684	1.061557
C59	C	1.585736	-0.438717	0.951832
C60	C	1.451317	-0.573038	1.061510
C61	C	1.451295	-0.573083	0.951789
C62	C	1.384102	-0.640200	1.116351
C63	C	1.316875	-0.707403	1.061467
C64	C	1.316853	-0.707439	0.951738
C65	C	1.384064	-0.640279	0.896905
H66	H	1.217928	-0.640245	0.371508
H67	H	1.774684	-1.104683	0.762683
O68	O	1.247057	-0.371840	0.640756
H69	H	1.275958	-0.350507	0.561548
O70	O	1.652943	-0.371606	0.778652
H71	H	1.674151	-0.450864	0.749724
H72	H	1.384124	-0.640160	1.205692
O73	O	1.244335	-0.779910	0.892539
H74	H	1.190895	-0.732881	0.842560
H75	H	1.384040	-0.806671	0.371648
O76	O	1.244601	-1.119985	0.231943
H77	H	1.162122	-1.098986	0.249893
O78	O	0.904768	-0.779788	0.231611
H79	H	0.854793	-0.833311	0.278538
O80	O	1.244380	-0.779831	1.120610
H81	H	1.255690	-0.768513	1.206126
H82	H	0.919521	-0.250135	0.762900
H83	H	1.118592	-0.250108	0.762881
O84	O	0.790926	-0.371907	0.640778
H85	H	0.762022	-0.313977	0.698895
H86	H	1.652890	-1.204400	0.640709
O87	O	1.384049	-0.640336	0.778562
H88	H	1.304809	-0.619108	0.749616
O89	O	0.790798	-0.640329	0.371530
H90	H	0.761896	-0.661679	0.450733
O91	O	1.132837	-0.779753	0.231596
H92	H	1.076229	-0.826425	0.184800
H93	H	1.774894	-0.249680	0.907216
H94	H	1.652693	-0.806272	0.640614
O95	O	1.384345	-1.233800	0.371705
H96	H	1.363138	-1.262742	0.450930
O97	O	1.792339	-0.891098	0.780397
H98	H	1.781021	-0.805601	0.769078
H99	H	1.774935	-0.249602	1.106287
O100	O	1.244476	-0.891902	0.231888
H101	H	1.197813	-0.948558	0.185138
H102	H	1.653000	-0.371442	1.205782
