data_functionalizedCrystal
_audit_creation_method	'MofGen! by Chris Wilmer'
_symmetry_space_group_name_H-M	'P1'
_symmetry_Int_Tables_number	1
_symmetry_cell_setting	triclinic
loop_
_symmetry_equiv_pos_as_xyz
  x,y,z
_cell_length_a	10.685980
_cell_length_b	13.897447
_cell_length_c	13.897441
_cell_angle_alpha	90.028354
_cell_angle_beta	94.393822
_cell_angle_gamma	94.386237
loop_
_atom_site_label
_atom_site_type_symbol
_atom_site_fract_x
_atom_site_fract_y
_atom_site_fract_z
Zn1	Zn	1.929196	-0.270991	0.658612
Zn2	Zn	2.429196	0.229009	1.158612
Zn3	Zn	1.929059	-0.432318	0.497309
Zn4	Zn	2.429059	0.067682	0.997309
Zn5	Zn	1.718174	-0.283391	0.484946
Zn6	Zn	2.218174	0.216609	0.984946
Zn7	Zn	1.718135	-0.444609	0.646183
Zn8	Zn	2.218135	0.055391	1.146183
O9	O	1.823641	-0.357827	0.571762
O10	O	2.323641	0.142173	1.071762
O11	O	2.105764	-0.282058	0.647590
O12	O	2.605764	0.217942	1.147590
O13	O	1.901043	-0.412608	0.360685
O14	O	2.401043	0.087392	0.860685
O15	O	1.746240	-0.146760	0.508011
O16	O	2.246240	0.353240	1.008011
O17	O	2.105663	-0.400584	0.529082
O18	O	2.605663	0.099416	1.029082
O19	O	1.901277	-0.137650	0.635602
O20	O	2.401277	0.362350	1.135602
O21	O	1.746107	-0.303192	0.351601
O22	O	2.246107	0.196808	0.851601
O23	O	1.541583	-0.315110	0.495958
O24	O	2.041583	0.184890	0.995958
O25	O	1.746174	-0.421532	0.782815
O26	O	2.246174	0.078468	1.282815
O27	O	1.541554	-0.433556	0.614418
O28	O	2.041554	0.066444	1.114418
O29	O	1.901240	-0.293976	0.791947
O30	O	2.401240	0.206024	1.291947
O31	O	1.901006	-0.568934	0.517030
O32	O	2.401006	-0.068934	1.017030
O33	O	1.746041	-0.577964	0.626406
O34	O	2.246041	-0.077964	1.126406
C35	C	1.495782	-0.377013	0.552499
C36	C	1.995782	0.122987	1.052499
C37	C	1.355522	-0.385244	0.544280
C38	C	1.855522	0.114756	1.044280
C39	C	1.823538	-0.608448	0.571734
C40	C	2.323538	-0.108448	1.071734
C41	C	1.823610	-0.715657	0.571761
C42	C	2.323610	-0.215657	1.071761
C43	C	1.823671	-0.802723	0.571786
C44	C	2.323671	-0.302723	1.071786
C45	C	1.823759	-0.911951	0.571816
C46	C	2.323759	-0.411951	1.071816
C47	C	2.152781	-0.338567	0.591102
C48	C	2.652781	0.161433	1.091102
C49	C	2.293040	-0.330360	0.599343
C50	C	2.793040	0.169640	1.099343
C51	C	1.823718	-0.357742	0.823360
C52	C	2.323718	0.142258	1.323360
C53	C	1.823751	-0.357705	0.930576
C54	C	2.323751	0.142295	1.430576
C55	C	1.823778	-0.106226	0.571814
C56	C	2.323778	0.393774	1.071814
C57	C	1.823837	0.000991	0.571836
C58	C	2.323837	0.500991	1.071836
C59	C	1.823637	-0.357838	0.321148
C60	C	2.323637	0.142162	0.821148
C61	C	1.823848	-0.357589	0.213947
C62	C	2.323848	0.142411	0.713947
C63	C	1.823777	-0.357676	1.017647
C64	C	2.323777	0.142324	1.517647
C65	C	1.823813	-0.357631	1.126882
C66	C	2.323813	0.142369	1.626882
H67	H	1.301706	-0.438533	0.490844
H68	H	1.801706	0.061467	0.990844
Cl69	Cl	1.376114	-0.248079	0.681835
Cl70	Cl	1.876114	0.251921	1.181835
