data_functionalizedCrystal
_audit_creation_method	'MofGen! by Chris Wilmer'
_symmetry_space_group_name_H-M	'P1'
_symmetry_Int_Tables_number	1
_symmetry_cell_setting	triclinic
loop_
_symmetry_equiv_pos_as_xyz
  x,y,z
_cell_length_a	14.519709
_cell_length_b	9.616153
_cell_length_c	14.519709
_cell_angle_alpha	90.003203
_cell_angle_beta	83.680145
_cell_angle_gamma	90.001254
loop_
_atom_site_label
_atom_site_type_symbol
_atom_site_fract_x
_atom_site_fract_y
_atom_site_fract_z
O1	O	1.223871	0.115468	0.120887
O2	O	0.955394	0.115510	0.135124
O3	O	1.096751	0.115475	-0.006233
O4	O	1.082514	0.115503	0.262244
O5	O	1.096732	-0.115816	-0.006230
O6	O	0.955375	-0.115781	0.135127
O7	O	1.223852	-0.115824	0.120891
Zn8	Zn	1.089610	-0.152525	0.128009
Zn9	Zn	1.089636	0.152212	0.128005
O10	O	1.082495	-0.115789	0.262247
C11	C	0.921025	-0.000130	0.134462
C12	C	0.818643	-0.000114	0.132474
N13	N	1.089599	-0.360499	0.128011
C14	C	0.443748	-0.000178	0.125154
C15	C	0.548056	-0.000160	0.127187
C16	C	0.631192	-0.000145	0.128814
C17	C	0.735507	-0.000129	0.130847
C18	C	1.013756	-0.580851	0.203378
C19	C	1.013919	-0.419683	0.203657
C20	C	1.185863	-0.418962	0.149189
C21	C	1.185449	-0.580180	0.149722
C22	C	1.070141	-0.580417	0.031215
C23	C	1.067923	-0.419190	0.031860
C24	C	1.258221	-0.000180	0.121553
C25	C	1.360602	-0.000187	0.123541
C26	C	1.096078	-0.000170	-0.040591
C27	C	1.094090	-0.000171	-0.142972
N28	N	1.089654	0.360186	0.127996
C29	C	1.086770	-0.000134	-0.517868
C30	C	1.088803	-0.000144	-0.413560
C31	C	1.090430	-0.000154	-0.330423
C32	C	1.092463	-0.000162	-0.226109
C33	C	1.083168	-0.000140	0.296606
C34	C	1.085156	-0.000130	0.398987
H35	H	0.941981	-0.619652	0.190940
C36	C	1.289199	-0.711970	0.233655
C37	C	1.208633	-0.630918	0.245009
H38	H	1.303515	-0.743277	0.292484
H39	H	1.279605	-0.789851	0.195620
H40	H	1.339121	-0.657738	0.205173
H41	H	1.158710	-0.685153	0.273485
H42	H	1.218222	-0.553025	0.283059
H43	H	1.001468	-0.621145	0.010889
H44	H	0.942370	-0.380158	0.191015
C45	C	0.953599	-0.420454	-0.075694
C46	C	0.972330	-0.367610	0.010158
H47	H	0.894582	-0.388609	-0.089086
H48	H	0.999787	-0.389407	-0.122598
H49	H	0.953710	-0.519190	-0.073616
H50	H	0.972226	-0.268874	0.008078
H51	H	0.926130	-0.398650	0.057074
C52	C	0.960193	-0.416582	0.366059
C53	C	1.030762	-0.367589	0.300606
H54	H	0.970600	-0.384429	0.425914
H55	H	0.902091	-0.383183	0.351126
H56	H	0.960042	-0.515365	0.365537
H57	H	1.030908	-0.268805	0.301124
H58	H	1.088879	-0.400981	0.315544
H59	H	1.119595	-0.378908	-0.026875
C60	C	1.191491	-0.517601	-0.087351
C61	C	1.144849	-0.631896	-0.044521
H62	H	1.237616	-0.549391	-0.134098
H63	H	1.148588	-0.460201	-0.114496
H64	H	1.219914	-0.465711	-0.042506
H65	H	1.116420	-0.683780	-0.089365
H66	H	1.187759	-0.689320	-0.017376
C67	C	0.952824	-0.711154	0.337481
C68	C	1.030365	-0.635509	0.299783
H69	H	0.963086	-0.744905	0.396994
H70	H	0.899851	-0.652541	0.342941
H71	H	0.942959	-0.787331	0.298080
H72	H	1.040226	-0.559325	0.339180
H73	H	1.083354	-0.694125	0.294328
C74	C	1.311196	-0.519163	0.035423
C75	C	1.263979	-0.632843	0.078424
H76	H	1.359677	-0.551674	-0.008590
H77	H	1.269316	-0.464458	0.004908
H78	H	1.336631	-0.464272	0.080789
H79	H	1.238538	-0.687729	0.033058
H80	H	1.305866	-0.687571	0.108939
C81	C	1.295636	-0.417453	0.261368
C82	C	1.209589	-0.364445	0.243396
H83	H	1.310279	-0.383789	0.319527
H84	H	1.293010	-0.516133	0.262784
H85	H	1.341976	-0.388362	0.213985
H86	H	1.163247	-0.393543	0.290776
H87	H	1.212208	-0.265743	0.241988
H88	H	1.243691	-0.380623	0.095754
