data_functionalizedCrystal
_audit_creation_method	'MofGen! by Chris Wilmer'
_symmetry_space_group_name_H-M	'P1'
_symmetry_Int_Tables_number	1
_symmetry_cell_setting	triclinic
loop_
_symmetry_equiv_pos_as_xyz
  x,y,z
_cell_length_a	18.050582
_cell_length_b	21.395362
_cell_length_c	21.395361
_cell_angle_alpha	90.048968
_cell_angle_beta	90.026814
_cell_angle_gamma	90.038403
loop_
_atom_site_label
_atom_site_type_symbol
_atom_site_fract_x
_atom_site_fract_y
_atom_site_fract_z
Zn1	Zn	-0.420356	-0.957800	0.249173
Zn2	Zn	-0.296157	-0.957720	0.353942
Zn3	Zn	-0.296129	-0.853033	0.249216
Zn4	Zn	-0.420254	-0.852984	0.353950
O5	O	-0.358224	-0.905384	0.301570
O6	O	-0.403935	-1.045467	0.263050
O7	O	-0.192229	-0.943820	0.340065
O8	O	-0.312639	-0.866984	0.161532
O9	O	-0.312686	-1.045409	0.340023
O10	O	-0.403908	-0.943956	0.161501
O11	O	-0.192208	-0.866906	0.263123
O12	O	-0.312541	-0.765348	0.263131
O13	O	-0.524193	-0.866901	0.340036
O14	O	-0.403735	-0.765313	0.340078
O15	O	-0.524267	-0.943909	0.263057
O16	O	-0.312588	-0.943773	0.441621
O17	O	-0.403762	-0.866824	0.441627
C18	C	-0.358124	-0.742596	0.301610
C19	C	-0.358099	-0.672955	0.301642
C20	C	-0.405510	-0.640240	0.341764
C21	C	-0.405538	-0.574805	0.341751
C22	C	-0.358141	-0.542087	0.301624
C23	C	-0.310727	-0.574810	0.261495
C24	C	-0.310706	-0.640244	0.261504
C25	C	-0.291275	-0.438372	0.296586
C26	C	-0.291295	-0.372939	0.296581
C27	C	-0.358206	-0.340266	0.301591
C28	C	-0.425099	-0.373035	0.306620
C29	C	-0.425078	-0.438469	0.306629
C30	C	-0.358159	-0.471135	0.301609
C31	C	-0.405651	-0.236598	0.341701
C32	C	-0.405679	-0.171162	0.341684
C33	C	-0.310862	-0.171169	0.261431
C34	C	-0.310840	-0.236604	0.261445
C35	C	-0.358233	-0.269315	0.301583
C36	C	-0.551930	-0.905409	0.301543
C37	C	-0.634476	-0.905419	0.301531
C38	C	-0.833886	-0.863574	0.343335
C39	C	-0.883304	-0.920737	0.358632
C40	C	-0.785606	-0.905450	0.301483
C41	C	-0.883270	-0.848319	0.286168
C42	C	-0.931591	-0.905475	0.301438
C43	C	-0.833937	-0.962642	0.316810
C44	C	-0.833899	-0.890186	0.244320
C45	C	-0.883294	-0.947388	0.259595
C46	C	-0.701508	-0.905435	0.301510
C47	C	-1.015688	-0.905496	0.301410
C48	C	-0.165272	-0.905396	0.301553
C49	C	-0.082727	-0.905507	0.301388
C50	C	-0.358183	-0.905301	0.464358
C51	C	-0.358190	-0.905323	0.533999
C52	C	-0.358304	-0.068807	0.301541
C53	C	-0.358283	-0.138449	0.301556
C54	C	-0.358282	-0.905484	0.138147
C55	C	-0.358307	-0.905527	0.068506
C56	C	-0.310764	-0.945426	0.566689
C57	C	-0.310781	-0.945455	0.632124
C58	C	-0.358215	-0.905370	0.664868
C59	C	-0.405650	-0.865265	0.632170
C60	C	-0.405638	-0.865241	0.566736
C61	C	-0.364008	-0.848955	0.768600
C62	C	-0.364015	-0.848977	0.834033
C63	C	-0.358259	-0.905443	0.866688
C64	C	-0.352480	-0.961889	0.833902
C65	C	-0.352467	-0.961865	0.768468
C66	C	-0.358235	-0.905392	0.735820
C67	C	-0.310849	-0.945581	0.970330
C68	C	-0.310871	-0.945611	1.035767
C69	C	-0.405736	-0.865415	1.035812
C70	C	-0.405718	-0.865391	0.970376
C71	C	-0.358271	-0.905473	0.937640
H72	H	-0.444148	-0.548163	0.374422
O73	O	-0.369665	-0.794096	0.865782
C74	C	-0.374735	-0.744252	0.822930
H75	H	-0.396278	-0.762490	0.776254
H76	H	-0.317615	-0.722572	0.816026
C77	C	-0.401875	-0.672054	0.905830
C78	C	-0.428340	-0.694454	0.848503
H79	H	-0.434938	-0.641334	0.921605
H80	H	-0.398456	-0.705634	0.934701
H81	H	-0.354274	-0.653992	0.900069
H82	H	-0.475936	-0.712522	0.854267
H83	H	-0.431768	-0.660875	0.819634
H84	H	-0.236785	-0.464968	0.292503
O85	O	-0.264608	-0.672096	0.222619
C86	C	-0.216538	-0.709856	0.258244
H87	H	-0.242623	-0.719629	0.305759
H88	H	-0.161496	-0.684586	0.265059
C89	C	-0.171107	-0.760035	0.165411
C90	C	-0.203148	-0.772043	0.223767
H91	H	-0.162843	-0.798393	0.144143
H92	H	-0.203490	-0.734593	0.141409
H93	H	-0.125242	-0.738975	0.171098
H94	H	-0.249015	-0.793095	0.218079
H95	H	-0.170772	-0.797489	0.247767
O96	O	-0.264579	-0.543102	0.222547
C97	C	-0.190527	-0.559011	0.236167
H98	H	-0.188923	-0.606495	0.260257
H99	H	-0.165452	-0.522133	0.268345
C100	C	-0.147644	-0.503740	0.145445
C101	C	-0.145674	-0.562064	0.175029
H102	H	-0.119976	-0.505621	0.107734
H103	H	-0.197534	-0.493020	0.136271
H104	H	-0.126750	-0.473015	0.172267
H105	H	-0.166577	-0.592787	0.148210
H106	H	-0.095787	-0.572790	0.184198
H107	H	-0.812357	-1.010982	0.329799
H108	H	-0.905005	-0.933662	0.406955
H109	H	-0.368698	-0.802970	0.742019
O110	O	-0.908984	-0.989778	0.217420
C111	C	-0.883695	-1.049922	0.233766
H112	H	-0.869900	-1.051079	0.285753
H113	H	-0.831956	-1.061567	0.205536
C114	C	-0.961541	-1.096905	0.155679
C115	C	-0.944604	-1.098327	0.219532
H116	H	-0.999110	-1.126764	0.146897
H117	H	-0.978577	-1.056385	0.144665
H118	H	-0.918419	-1.106607	0.132162
H119	H	-0.987723	-1.088616	0.243047
H120	H	-0.927577	-1.138846	0.230550
O121	O	-0.264939	-0.984688	1.067523
C122	C	-0.307342	-1.025137	1.105269
H123	H	-0.365841	-1.028892	1.085512
H124	H	-0.309852	-1.005834	1.154904
C125	C	-0.199399	-1.085716	1.130408
C126	C	-0.271247	-1.090331	1.106139
H127	H	-0.177133	-1.125930	1.130947
H128	H	-0.170830	-1.058463	1.104980
H129	H	-0.201500	-1.069627	1.171768
H130	H	-0.269144	-1.106412	1.064777
H131	H	-0.299815	-1.117588	1.131560
O132	O	-0.451764	-0.826413	0.664043
C133	C	-0.499804	-0.862072	0.701814
H134	H	-0.473686	-0.909572	0.711573
H135	H	-0.554846	-0.868918	0.676560
C136	C	-0.545284	-0.769273	0.752018
C137	C	-0.513204	-0.827611	0.764009
H138	H	-0.553554	-0.748016	0.790382
H139	H	-0.512921	-0.745248	0.726570
H140	H	-0.591149	-0.774986	0.730972
H141	H	-0.467336	-0.821897	0.785048
H142	H	-0.545560	-0.851635	0.789463
H143	H	-0.272216	-0.978221	0.943675
O144	O	-0.808016	-0.874639	0.186708
C145	C	-0.833121	-0.814334	0.170759
H146	H	-0.846975	-0.787279	0.215160
H147	H	-0.884787	-0.818315	0.140344
C148	C	-0.755022	-0.812859	0.079909
C149	C	-0.772032	-0.779628	0.134444
H150	H	-0.717341	-0.791451	0.057506
H151	H	-0.738110	-0.853489	0.090653
H152	H	-0.798082	-0.816175	0.054570
H153	H	-0.728975	-0.776320	0.159785
H154	H	-0.788935	-0.738997	0.123704
H155	H	-0.444258	-0.832584	0.540120
O156	O	-0.909249	-0.790700	0.270767
C157	C	-0.987351	-0.791663	0.270387
H158	H	-1.007936	-0.831552	0.301120
H159	H	-1.007982	-0.798834	0.220522
C160	C	-0.991705	-0.680151	0.258068
C161	C	-1.016988	-0.729140	0.295819
H162	H	-1.009988	-0.641583	0.273753
H163	H	-0.939087	-0.679502	0.258321
H164	H	-1.008900	-0.686135	0.216517
H165	H	-0.999786	-0.723160	0.337367
H166	H	-1.069605	-0.729786	0.295573
O167	O	-0.808035	-0.821437	0.385695
C168	C	-0.833226	-0.837773	0.445876
H169	H	-0.847108	-0.889746	0.447041
H170	H	-0.884894	-0.809492	0.457614
C171	C	-0.755150	-0.759781	0.492751
C172	C	-0.772193	-0.823615	0.494184
H173	H	-0.717504	-0.751045	0.522551
H174	H	-0.738180	-0.748773	0.452206
H175	H	-0.798211	-0.736221	0.502531
H176	H	-0.729135	-0.847174	0.484396
H177	H	-0.789155	-0.834627	0.534729
H178	H	-0.272161	-0.978114	0.658745
O179	O	-0.451586	-0.268405	0.380751
C180	C	-0.409206	-0.306190	0.421168
H181	H	-0.350713	-0.286419	0.424968
H182	H	-0.406672	-0.355800	0.401803
C183	C	-0.517190	-0.331438	0.481675
C184	C	-0.445350	-0.307152	0.486347
H185	H	-0.539486	-0.332035	0.521881
H186	H	-0.545743	-0.305984	0.454445
H187	H	-0.515069	-0.372777	0.465535
H188	H	-0.447472	-0.265811	0.502479
H189	H	-0.416797	-0.332600	0.513582
H190	H	-0.272132	-0.978065	0.540036
H191	H	-0.444102	-0.666869	0.374446
O192	O	-0.490167	-0.341403	0.311505
C193	C	-0.549202	-0.384355	0.315921
H194	H	-0.527501	-0.430959	0.334076
H195	H	-0.575016	-0.391395	0.267785
C196	C	-0.634785	-0.301572	0.338948
C197	C	-0.608132	-0.358810	0.361251
H198	H	-0.671138	-0.285814	0.366907
H199	H	-0.595013	-0.272633	0.335971
H200	H	-0.656292	-0.307446	0.298835
H201	H	-0.586618	-0.352934	0.401360
H202	H	-0.647902	-0.387747	0.364236
H203	H	-0.444362	-0.832780	1.062471
H204	H	-0.347793	-1.007869	0.860489
O205	O	-0.490016	-0.470367	0.311417
C206	C	-0.499688	-0.508262	0.258084
H207	H	-0.443489	-0.518039	0.235855
H208	H	-0.536683	-0.483106	0.223002
C209	C	-0.605217	-0.558421	0.304544
C210	C	-0.536192	-0.570434	0.277245
H211	H	-0.627738	-0.596771	0.316362
H212	H	-0.598704	-0.532889	0.340474
H213	H	-0.636038	-0.537456	0.275305
H214	H	-0.505370	-0.591391	0.306486
H215	H	-0.542701	-0.595971	0.241320
O216	O	-0.451760	-0.139477	0.380720
C217	C	-0.493594	-0.182383	0.416136
H218	H	-0.463154	-0.229000	0.418274
H219	H	-0.550048	-0.189412	0.393265
C220	C	-0.541536	-0.099531	0.480203
C221	C	-0.504146	-0.156785	0.482834
H222	H	-0.548048	-0.083740	0.521345
H223	H	-0.513354	-0.070623	0.456341
H224	H	-0.588577	-0.105395	0.461142
H225	H	-0.457102	-0.150918	0.501888
H226	H	-0.532320	-0.185691	0.506700
O227	O	-0.264709	-0.268290	0.222455
C228	C	-0.222893	-0.225384	0.187022
H229	H	-0.220280	-0.178712	0.212676
H230	H	-0.250196	-0.218494	0.139468
C231	C	-0.147075	-0.308191	0.146395
C232	C	-0.143860	-0.250870	0.177906
H233	H	-0.098324	-0.323913	0.140769
H234	H	-0.175248	-0.337099	0.170265
H235	H	-0.169831	-0.302442	0.106770
H236	H	-0.121113	-0.256621	0.217533
H237	H	-0.115681	-0.221964	0.154042
O238	O	-0.346888	-1.016750	0.736717
C239	C	-0.341789	-1.066596	0.779563
H240	H	-0.366727	-1.051767	0.826214
H241	H	-0.281123	-1.079645	0.786536
C242	C	-0.353855	-1.141659	0.696633
C243	C	-0.384490	-1.123448	0.753929
H244	H	-0.380192	-1.176730	0.680821
H245	H	-0.357287	-1.108077	0.667766
H246	H	-0.303301	-1.152529	0.702452
H247	H	-0.435040	-1.112571	0.748109
H248	H	-0.381068	-1.157030	0.782795
O249	O	-0.451804	-0.826369	0.938715
C250	C	-0.493689	-0.791005	0.981644
H251	H	-0.463277	-0.788871	1.028308
H252	H	-0.550131	-0.813918	0.988543
C253	C	-0.541630	-0.726926	0.898870
C254	C	-0.504275	-0.724300	0.956181
H255	H	-0.548163	-0.685780	0.883163
H256	H	-0.513414	-0.750752	0.869947
H257	H	-0.588661	-0.746023	0.904627
H258	H	-0.457241	-0.705211	0.950422
H259	H	-0.532483	-0.700469	0.985103
H260	H	-0.272274	-0.144531	0.228756
H261	H	-0.236826	-0.346264	0.292490
