data_functionalizedCrystal
_audit_creation_method	'MofGen! by Chris Wilmer'
_symmetry_space_group_name_H-M	'P1'
_symmetry_Int_Tables_number	1
_symmetry_cell_setting	triclinic
loop_
_symmetry_equiv_pos_as_xyz
  x,y,z
_cell_length_a	14.908520
_cell_length_b	19.805407
_cell_length_c	19.805399
_cell_angle_alpha	90.019573
_cell_angle_beta	93.270609
_cell_angle_gamma	86.679227
loop_
_atom_site_label
_atom_site_type_symbol
_atom_site_fract_x
_atom_site_fract_y
_atom_site_fract_z
Zn1	Zn	-0.359181	-1.019204	-0.398269
Zn2	Zn	-0.510047	-1.012594	-0.291612
Zn3	Zn	-0.359206	-0.906017	-0.285095
Zn4	Zn	-0.509999	-0.899460	-0.404757
O5	O	-0.434608	-0.959319	-0.344934
O6	O	-0.379203	-1.113043	-0.384134
O7	O	-0.490068	-0.998435	-0.196033
O8	O	-0.232958	-0.926542	-0.294665
O9	O	-0.490044	-1.108187	-0.305773
O10	O	-0.232939	-1.009699	-0.377814
O11	O	-0.379246	-0.920133	-0.191244
O12	O	-0.379199	-0.810431	-0.300956
O13	O	-0.489962	-0.915366	-0.498612
O14	O	-0.489986	-0.805614	-0.388871
O15	O	-0.379157	-1.003341	-0.493845
O16	O	-0.636286	-0.992077	-0.312064
O17	O	-0.636250	-0.908957	-0.395191
C18	C	-0.669002	-0.949107	-0.355053
C19	C	-0.769277	-0.944800	-0.359405
C20	C	-0.434591	-0.783463	-0.344911
C21	C	-0.434605	-0.708231	-0.344918
C22	C	-0.434551	-0.959359	-0.521474
C23	C	-0.434527	-0.959376	-0.596705
C24	C	-0.957679	-1.023348	-0.281093
C25	C	-1.051896	-1.019304	-0.285180
C26	C	-1.051929	-0.932671	-0.371669
C27	C	-0.957712	-0.936715	-0.367582
C28	C	-0.910590	-0.982055	-0.322292
C29	C	-0.816372	-0.986095	-0.318202
C30	C	-0.816407	-0.899466	-0.404694
C31	C	-0.910624	-0.895421	-0.408781
C32	C	-0.199299	-0.969589	-0.334789
C33	C	-0.099024	-0.973966	-0.330466
C34	C	-0.434626	-1.135861	-0.344957
C35	C	-0.434634	-1.211092	-0.344967
C36	C	-0.492379	-0.670392	-0.390629
C37	C	-0.492380	-0.599704	-0.390639
C38	C	-0.434612	-0.566855	-0.344934
C39	C	-0.376832	-0.604699	-0.299220
C40	C	-0.376827	-0.675386	-0.299214
C41	C	-0.376852	-0.319625	-0.299244
C42	C	-0.376864	-0.248932	-0.299252
C43	C	-0.492406	-0.243942	-0.390668
C44	C	-0.492400	-0.314629	-0.390662
C45	C	-0.434618	-0.352467	-0.344952
C46	C	-0.434615	-0.429116	-0.344943
C47	C	-0.434618	-0.490208	-0.344939
C48	C	-0.376828	-1.005186	-0.629568
C49	C	-0.376802	-1.005194	-0.700255
C50	C	-0.434480	-0.959395	-0.738078
C51	C	-0.492182	-0.913581	-0.705210
C52	C	-0.492203	-0.913570	-0.634524
C53	C	-0.492098	-0.913622	-0.990280
C54	C	-0.492074	-0.913638	-1.060971
C55	C	-0.376697	-1.005247	-1.056011
C56	C	-0.376718	-1.005236	-0.985325
C57	C	-0.434416	-0.959419	-0.952463
C58	C	-0.434442	-0.959410	-0.875816
C59	C	-0.434459	-0.959407	-0.814725
C60	C	-0.434600	-0.959320	-0.169077
C61	C	-0.434370	-0.959445	-0.093836
H62	H	-0.778006	-1.023011	-0.281323
H63	H	-0.329713	-1.042551	-1.082776
H64	H	-0.919312	-1.060261	-0.244211
H65	H	-0.539426	-0.568898	-0.427861
H66	H	-0.539044	-0.876340	-1.091765
H67	H	-0.539092	-0.876325	-0.963533
H68	H	-0.329793	-0.577948	-0.262009
H69	H	-0.329777	-0.706194	-0.261995
H70	H	-0.539141	-0.876288	-0.736011
H71	H	-0.329817	-0.222189	-0.262033
H72	H	-0.329809	-0.350424	-0.262018
H73	H	-0.778057	-0.865840	-0.438239
H74	H	-0.539178	-0.876260	-0.607768
H75	H	-0.329753	-1.042533	-0.954533
H76	H	-1.090232	-1.052931	-0.251633
H77	H	-0.539444	-0.341371	-0.427878
H78	H	-0.949003	-0.858509	-0.445657
H79	H	-0.539423	-0.697132	-0.427846
H80	H	-0.539452	-0.213126	-0.427890
H81	H	-1.090312	-0.895762	-0.408547
H82	H	-0.329820	-1.042499	-0.727009
H83	H	-0.329862	-1.042483	-0.598777
