data_functionalizedCrystal
_audit_creation_method	'MofGen! by Chris Wilmer'
_symmetry_space_group_name_H-M	'P1'
_symmetry_Int_Tables_number	1
_symmetry_cell_setting	triclinic
loop_
_symmetry_equiv_pos_as_xyz
  x,y,z
_cell_length_a	14.044220
_cell_length_b	11.026607
_cell_length_c	13.101018
_cell_angle_alpha	94.108865
_cell_angle_beta	86.333311
_cell_angle_gamma	100.887447
loop_
_atom_site_label
_atom_site_type_symbol
_atom_site_fract_x
_atom_site_fract_y
_atom_site_fract_z
O1	O	-1.304416	-0.304309	-0.085097
O2	O	-1.026611	-0.293555	-0.085123
O3	O	-1.142489	-0.119787	-0.085109
O4	O	-1.188538	-0.478078	-0.085112
O5	O	-1.150788	-0.107279	0.085323
O6	O	-1.034909	-0.281048	0.085308
O7	O	-1.312715	-0.291802	0.085334
Zn8	Zn	-1.175130	-0.284439	0.112381
Zn9	Zn	-1.164196	-0.300918	-0.112170
O10	O	-1.196836	-0.465570	0.085320
C11	C	-0.994642	-0.282594	0.000089
C12	C	-0.887019	-0.268551	0.000079
C13	C	-1.138143	-0.067403	0.000105
C14	C	-1.112819	0.070052	0.000099
C15	C	-1.344683	-0.302764	0.000120
C16	C	-1.452306	-0.316807	0.000123
C17	C	-0.689978	-0.242874	0.000099
C18	C	-0.649341	-0.342478	0.000103
C19	C	-0.539700	-0.328191	0.000114
C20	C	-0.799628	-0.257159	0.000088
C21	C	-1.201182	-0.517955	0.000104
C22	C	-1.226506	-0.655410	0.000103
C23	C	-1.182744	0.136289	0.000104
C24	C	-1.156571	0.278356	0.000098
N25	N	-1.156733	-0.312156	-0.265420
C26	C	-1.192757	-0.257909	-0.525325
C27	C	-1.146577	-0.327435	-0.474458
C28	C	-1.152229	-0.318932	-0.358138
C29	C	-1.187106	-0.266411	-0.641655
N30	N	-1.182598	-0.273192	0.265631
H31	H	-0.642429	-0.146878	0.000106
H32	H	-1.077325	0.326819	0.000084
O33	O	-1.094330	-0.406162	-0.526556
C34	C	-0.993233	-0.558186	-0.515556
C35	C	-1.052388	-0.469112	-0.456423
H36	H	-0.959291	-0.609085	-0.458879
H37	H	-1.043105	-0.628086	-0.565766
H38	H	-0.933450	-0.503255	-0.565813
H39	H	-1.112174	-0.523939	-0.406111
H40	H	-1.002453	-0.399211	-0.406278
H41	H	-1.033577	0.118520	0.000085
O42	O	-1.244901	-0.179302	-0.472911
C43	C	-1.298215	-0.099139	-0.307491
C44	C	-1.239115	-0.188195	-0.366737
H45	H	-1.293574	-0.106317	-0.221639
H46	H	-1.267580	-0.000257	-0.328425
H47	H	-1.377308	-0.124977	-0.328559
H48	H	-1.160011	-0.162469	-0.345701
H49	H	-1.269829	-0.287053	-0.345798
O50	O	-1.277238	0.078326	-0.000023
C51	C	-1.398898	-0.068047	-0.088337
C52	C	-1.291852	-0.002517	-0.088308
H53	H	-1.410752	-0.133404	-0.159719
H54	H	-1.417750	-0.123112	-0.017058
H55	H	-1.447461	0.003943	-0.088284
H56	H	-1.243217	-0.074423	-0.088398
H57	H	-1.273079	0.052572	-0.159580
O58	O	-0.706200	-0.456928	0.000024
C59	C	-0.868913	-0.575694	0.000010
C60	C	-0.804629	-0.446016	0.000092
H61	H	-0.948506	-0.566914	0.000086
H62	H	-0.849474	-0.633304	-0.071344
H63	H	-0.856342	-0.622868	0.071307
H64	H	-0.817166	-0.398735	-0.071157
H65	H	-0.824081	-0.388496	0.071492
O66	O	-1.321001	0.286594	0.000156
C67	C	-1.433239	0.092110	0.000102
C68	C	-1.326189	0.157633	0.000067
H69	H	-1.437467	-0.012167	0.000008
H70	H	-1.474247	0.125152	0.071447
H71	H	-1.467255	0.114846	-0.071204
H72	H	-1.292087	0.134927	0.071325
H73	H	-1.285251	0.124586	-0.071325
