data_functionalizedCrystal
_audit_creation_method	'MofGen! by Chris Wilmer'
_symmetry_space_group_name_H-M	'P1'
_symmetry_Int_Tables_number	1
_symmetry_cell_setting	triclinic
loop_
_symmetry_equiv_pos_as_xyz
  x,y,z
_cell_length_a	10.540514
_cell_length_b	10.540510
_cell_length_c	13.596369
_cell_angle_alpha	89.996501
_cell_angle_beta	89.994172
_cell_angle_gamma	84.514235
loop_
_atom_site_label
_atom_site_type_symbol
_atom_site_fract_x
_atom_site_fract_y
_atom_site_fract_z
O1	O	1.685888	0.178752	-0.081798
O2	O	1.316469	0.195642	-0.081797
O3	O	1.509626	0.002487	-0.081797
O4	O	1.492731	0.371907	-0.081798
O5	O	1.509607	0.002477	0.081786
O6	O	1.316450	0.195631	0.081786
O7	O	1.685869	0.178742	0.081785
Zn8	Zn	1.501156	0.187185	0.107758
Zn9	Zn	1.501182	0.187199	-0.107770
O10	O	1.492711	0.371896	0.081785
C11	C	1.269156	0.194377	-0.000005
C12	C	1.128207	0.190608	-0.000005
C13	C	1.057486	0.328749	-0.000007
C14	C	0.910874	0.324875	-0.000383
C15	C	0.935888	0.115485	-0.093242
C16	C	1.082427	0.120339	-0.093316
C17	C	1.082808	0.118283	0.092715
C18	C	0.935829	0.116950	0.093936
C19	C	1.508358	-0.044821	-0.000007
C20	C	1.504591	-0.185771	-0.000013
C21	C	1.638776	-0.403239	0.000361
C22	C	1.642794	-0.256643	-0.000013
C23	C	1.433855	-0.230517	-0.093425
C24	C	1.430816	-0.377278	-0.093498
C25	C	1.427915	-0.377098	0.092526
C26	C	1.434471	-0.230758	0.093756
C27	C	1.733182	0.180007	-0.000009
C28	C	1.874131	0.183776	-0.000015
C29	C	1.493980	0.419205	-0.000006
C30	C	1.497747	0.560155	-0.000007
N31	N	1.501148	0.187175	0.254850
N32	N	1.501200	0.187199	-0.254861
C33	C	1.501180	0.187200	0.656141
C34	C	1.501167	0.187197	0.544489
C35	C	1.501165	0.187188	0.455499
C36	C	1.501151	0.187184	0.343840
H37	H	1.130444	0.018865	-0.097296
N38	N	1.712652	-0.221019	-0.084163
N39	N	1.758579	-0.304475	-0.142803
H40	H	1.807917	-0.279318	-0.202239
N41	N	0.858549	0.391994	-0.084716
N42	N	0.892375	0.355880	-0.169102
H43	H	0.855429	0.403293	-0.228666
H44	H	1.110654	0.170226	-0.163271
H45	H	1.698141	-0.227309	0.066947
N46	N	0.907931	-0.014527	-0.097262
N47	N	0.942916	-0.089255	-0.028993
H48	H	0.923171	-0.181078	-0.031830
H49	H	0.893284	0.162305	-0.162887
N50	N	1.307925	-0.169120	0.100862
N51	N	1.267170	-0.090693	0.036641
H52	H	1.177803	-0.047136	0.041666
N53	N	1.491478	-0.427717	-0.181099
N54	N	1.535762	-0.354494	-0.241755
H55	H	1.578608	-0.390109	-0.303625
N56	N	1.706306	-0.455894	0.084399
N57	N	1.651289	-0.521021	0.145003
H58	H	1.698982	-0.558221	0.204357
N59	N	1.122308	0.175971	0.181383
N60	N	1.184408	0.271101	0.177313
H61	H	1.212307	0.311856	0.239929
H62	H	1.692317	-0.446745	-0.066251
N63	N	1.093252	0.399043	0.083856
N64	N	1.072919	0.359550	0.168558
H65	H	1.098185	0.409193	0.227791
N66	N	1.301141	-0.406102	-0.098806
N67	N	1.213172	-0.317861	-0.102452
H68	H	1.121589	-0.338212	-0.106201
H69	H	0.868196	0.378589	0.066430
H70	H	1.332112	-0.183119	-0.096898
H71	H	1.482995	-0.199661	-0.162942
N72	N	1.482680	-0.430357	0.181353
N73	N	1.482783	-0.547032	0.197846
H74	H	1.521470	-0.584650	0.260576
N75	N	1.499049	-0.194875	0.180443
N76	N	1.596353	-0.136383	0.173268
H77	H	1.641966	-0.111034	0.234488
N78	N	1.297739	-0.404852	0.093320
N79	N	1.225823	-0.369604	0.023408
H80	H	1.133889	-0.389209	0.023962
N81	N	1.095416	0.398018	-0.083753
N82	N	1.174305	0.346087	-0.143436
H83	H	1.201095	0.395003	-0.202585
H84	H	1.130075	0.016389	0.093615
H85	H	0.894820	0.166857	0.162906
H86	H	0.911655	0.014103	0.099843
