data_functionalizedCrystal
_audit_creation_method	'MofGen! by Chris Wilmer'
_symmetry_space_group_name_H-M	'P1'
_symmetry_Int_Tables_number	1
_symmetry_cell_setting	triclinic
loop_
_symmetry_equiv_pos_as_xyz
  x,y,z
_cell_length_a	14.044191
_cell_length_b	14.044190
_cell_length_c	10.868271
_cell_angle_alpha	89.990065
_cell_angle_beta	89.998192
_cell_angle_gamma	93.191777
loop_
_atom_site_label
_atom_site_type_symbol
_atom_site_fract_x
_atom_site_fract_y
_atom_site_fract_z
O1	O	1.277178	0.230201	-0.102288
O2	O	1.000505	0.221889	-0.102303
O3	O	1.134685	0.087709	-0.102272
O4	O	1.142998	0.364381	-0.102320
O5	O	1.134673	0.087702	0.102373
O6	O	1.000493	0.221882	0.102342
O7	O	1.277166	0.230195	0.102356
Zn8	Zn	1.138827	0.226037	0.134841
Zn9	Zn	1.138844	0.226046	-0.134787
O10	O	1.142986	0.364375	0.102325
C11	C	0.964877	0.218249	0.000018
C12	C	0.858734	0.207401	0.000013
C13	C	0.613277	0.264502	0.000016
C14	C	0.664400	0.187585	0.000027
C15	C	0.772537	0.198614	0.000019
C16	C	0.505130	0.253475	0.000023
C17	C	1.131043	0.052083	0.000054
C18	C	1.120195	-0.054060	0.000064
C19	C	1.177296	-0.299517	0.000019
C20	C	1.100379	-0.248394	0.000024
C21	C	1.111408	-0.140257	0.000046
C22	C	1.166269	-0.407664	-0.000004
C23	C	1.312794	0.233834	0.000033
C24	C	1.418937	0.244682	0.000029
C25	C	1.146628	0.400000	-0.000003
C26	C	1.157476	0.506143	-0.000022
N27	N	1.138823	0.226031	0.318855
N28	N	1.138855	0.226045	-0.318801
C29	C	1.138839	0.226044	0.569861
C30	C	1.138827	0.226039	0.430183
H31	H	0.650720	0.338629	-0.000001
N32	N	1.007371	-0.295345	0.000030
N33	N	0.935049	-0.247340	0.000047
H34	H	0.869363	-0.280502	0.000056
N35	N	0.617418	0.094591	0.000055
N36	N	0.528367	0.085645	0.000064
H37	H	0.495181	0.019971	0.000084
N38	N	1.270284	-0.252536	0.000032
N39	N	1.279221	-0.163484	0.000052
H40	H	1.344893	-0.130292	0.000064
