data_functionalizedCrystal
_audit_creation_method	'MofGen! by Chris Wilmer'
_symmetry_space_group_name_H-M	'P1'
_symmetry_Int_Tables_number	1
_symmetry_cell_setting	triclinic
loop_
_symmetry_equiv_pos_as_xyz
  x,y,z
_cell_length_a	9.798715
_cell_length_b	8.559649
_cell_length_c	8.559649
_cell_angle_alpha	69.778664
_cell_angle_beta	89.998585
_cell_angle_gamma	89.996721
loop_
_atom_site_label
_atom_site_type_symbol
_atom_site_fract_x
_atom_site_fract_y
_atom_site_fract_z
O1	O	0.113470	-2.126880	0.055038
O2	O	0.113475	-1.651396	-0.028743
O3	O	0.113470	-1.931029	0.250890
O4	O	0.113474	-1.847247	-0.224595
O5	O	-0.113512	-1.931010	0.250889
O6	O	-0.113507	-1.651377	-0.028745
O7	O	-0.113513	-2.126862	0.055037
Zn8	Zn	-0.149548	-1.889117	0.013146
Zn9	Zn	0.149511	-1.889141	0.013148
O10	O	-0.113508	-1.847229	-0.224596
C11	C	-0.000015	-1.591077	-0.035093
C12	C	-0.000013	-1.411378	-0.053992
C13	C	-0.000018	-1.937369	0.311198
C14	C	-0.000011	-1.956268	0.490898
N15	N	-0.353648	-1.889112	0.013147
C16	C	-0.421427	-2.006582	0.131014
C17	C	-0.578589	-2.006609	0.131023
N18	N	0.353610	-1.889160	0.013162
C19	C	-0.000019	-2.187180	0.061387
C20	C	-0.000012	-2.366879	0.080286
C21	C	-0.000016	-1.840889	-0.284904
C22	C	-0.000015	-1.821990	-0.464604
H23	H	-0.363106	-2.107129	0.231925
O24	O	-0.647967	-2.126551	0.251632
C25	C	-0.613183	-2.119428	0.408862
H26	H	-0.509410	-2.056955	0.400974
H27	H	-0.693585	-2.044553	0.448801
C28	C	-0.734210	-2.373910	0.547007
C29	C	-0.606750	-2.297193	0.537322
H30	H	-0.730248	-2.483562	0.626250
H31	H	-0.757650	-2.378707	0.441078
H32	H	-0.801199	-2.311498	0.580283
H33	H	-0.539768	-2.359594	0.504026
H34	H	-0.583299	-2.292410	0.643248
H35	H	-0.000005	-1.311990	-0.183420
O36	O	-0.423155	-1.768943	-0.107103
C37	C	-0.388336	-1.611376	-0.100889
H38	H	-0.348964	-1.626103	0.028759
H39	H	-0.305512	-1.552798	-0.196819
C40	C	-0.563728	-1.480405	-0.298885
C41	C	-0.515381	-1.498492	-0.139644
H42	H	-0.642092	-1.410768	-0.322798
H43	H	-0.587183	-1.586559	-0.303077
H44	H	-0.494696	-1.431596	-0.378808
H45	H	-0.584406	-1.547319	-0.059724
H46	H	-0.491940	-1.392342	-0.135440
H47	H	-0.000018	-1.692570	0.436018
H48	H	-0.000023	-2.085696	0.590286
H49	H	-0.000007	-1.466258	0.209705
H50	H	-0.588112	-1.788589	-0.087760
