data_functionalizedCrystal
_audit_creation_method	'MofGen! by Chris Wilmer'
_symmetry_space_group_name_H-M	'P1'
_symmetry_Int_Tables_number	1
_symmetry_cell_setting	triclinic
loop_
_symmetry_equiv_pos_as_xyz
  x,y,z
_cell_length_a	11.792254
_cell_length_b	11.792241
_cell_length_c	14.586319
_cell_angle_alpha	90.004494
_cell_angle_beta	90.004084
_cell_angle_gamma	84.196007
loop_
_atom_site_label
_atom_site_type_symbol
_atom_site_fract_x
_atom_site_fract_y
_atom_site_fract_z
O1	O	1.506900	0.155636	0.076240
O2	O	2.006900	0.655636	0.576240
O3	O	1.176560	0.171654	0.076242
O4	O	1.676560	0.671654	0.576242
O5	O	1.349746	-0.001526	0.076235
O6	O	1.849746	0.498474	0.576235
O7	O	1.333714	0.328815	0.076247
O8	O	1.833714	0.828815	0.576247
O9	O	1.349732	-0.001530	-0.076246
O10	O	1.849732	0.498470	0.423754
O11	O	1.176546	0.171649	-0.076239
O12	O	1.676546	0.671649	0.423761
O13	O	1.506886	0.155631	-0.076241
O14	O	2.006886	0.655631	0.423759
Cu15	Cu	1.341715	0.163640	-0.090163
Cu16	Cu	1.841715	0.663640	0.409837
Cu17	Cu	1.341731	0.163645	0.090164
Cu18	Cu	1.841731	0.663645	0.590164
O19	O	1.333700	0.328811	-0.076233
O20	O	1.833700	0.828811	0.423767
C21	C	1.134263	0.170642	0.000002
C22	C	1.634263	0.670642	0.500002
C23	C	1.008250	0.167622	0.000002
C24	C	1.508250	0.667622	0.500002
C25	C	0.905913	0.165168	0.000006
C26	C	1.405913	0.665168	0.500006
C27	C	0.777527	0.162100	0.000007
C28	C	1.277527	0.662100	0.500007
C29	C	1.348732	-0.043819	-0.000006
C30	C	1.848732	0.456181	0.499994
C31	C	1.345718	-0.169832	-0.000005
C32	C	1.845718	0.330168	0.499995
C33	C	1.340175	-0.400545	0.000011
C34	C	1.840175	0.099455	0.500011
C35	C	1.343255	-0.272160	0.000002
C36	C	1.843255	0.227840	0.500002
C37	C	1.549183	0.156643	0.000001
C38	C	2.049183	0.656643	0.500001
C39	C	1.675196	0.159663	0.000007
C40	C	2.175196	0.659663	0.500007
C41	C	1.334714	0.371104	0.000009
C42	C	1.834714	0.871104	0.500009
C43	C	1.337728	0.497118	0.000014
C44	C	1.837728	0.997118	0.500014
N45	N	1.341711	0.163636	-0.216994
N46	N	1.841711	0.663636	0.283006
C47	C	1.418428	0.086978	-0.547991
C48	C	1.918428	0.586978	-0.047991
C49	C	1.418426	0.086978	-0.452010
C50	C	1.918426	0.586978	0.047990
C51	C	1.265023	0.240307	-0.452014
C52	C	1.765023	0.740307	0.047986
C53	C	1.265032	0.240311	-0.547994
C54	C	1.765032	0.740311	-0.047994
C55	C	1.341733	0.163640	-0.595980
C56	C	1.841733	0.663640	-0.095980
C57	C	1.341722	0.163636	-0.404019
C58	C	1.841722	0.663636	0.095981
C59	C	1.341718	0.163637	-0.299952
C60	C	1.841718	0.663637	0.200048
C61	C	1.341739	0.163640	-0.700054
C62	C	1.841739	0.663640	-0.200054
N63	N	1.341744	0.163640	0.216995
N64	N	1.841744	0.663640	0.716995
H65	H	1.480885	0.024549	-0.587059
H66	H	1.980885	0.524549	-0.087059
H67	H	1.480879	0.024554	-0.412941
H68	H	1.980879	0.524554	0.087059
F69	F	1.183393	0.321899	-0.400938
F70	F	1.683393	0.821899	0.099062
F71	F	1.183404	0.321914	-0.599070
F72	F	1.683404	0.821914	-0.099070
