data_functionalizedCrystal
_audit_creation_method	'MofGen! by Chris Wilmer'
_symmetry_space_group_name_H-M	'P1'
_symmetry_Int_Tables_number	1
_symmetry_cell_setting	triclinic
loop_
_symmetry_equiv_pos_as_xyz
  x,y,z
_cell_length_a	6.817900
_cell_length_b	8.626531
_cell_length_c	14.651978
_cell_angle_alpha	82.541297
_cell_angle_beta	85.105845
_cell_angle_gamma	104.969605
loop_
_atom_site_label
_atom_site_type_symbol
_atom_site_fract_x
_atom_site_fract_y
_atom_site_fract_z
V1	V	-3.939599	-0.222732	0.286377
O2	O	-3.921044	0.010164	0.280180
O3	O	-3.899144	-0.441120	0.285135
O4	O	-3.849793	-0.219542	0.410949
O5	O	-3.970737	-0.212948	0.153495
V6	V	-4.427563	-0.194847	0.270396
O7	O	-4.191116	-0.283899	0.321432
O8	O	-4.626243	-0.133679	0.235341
O9	O	-4.244811	0.023542	0.271638
O10	O	-4.563514	-0.427742	0.276593
O11	O	-4.513822	-0.204630	0.403277
O12	O	-4.294162	-0.198036	0.145824
C13	C	-3.684465	-0.211704	0.441289
C14	C	-3.692375	-0.210542	0.543132
C15	C	-4.059881	0.076765	0.275968
C16	C	-3.991183	0.255300	0.276159
C17	C	-4.122819	-0.205876	0.115479
C18	C	-4.093612	-0.207059	0.011722
V19	V	-3.788875	-0.218097	-0.143191
O20	O	-3.702612	-0.208312	-0.276072
O21	O	-3.922280	-0.214911	-0.018619
O22	O	-3.971620	-0.436488	-0.144433
O23	O	-3.652931	0.014799	-0.149386
V24	V	-3.276822	-0.190202	-0.159169
O25	O	-3.590193	-0.279261	-0.108135
O26	O	-3.025304	-0.129029	-0.194223
O27	O	-3.366625	-0.193393	-0.283742
O28	O	-3.245687	-0.199985	-0.026288
O29	O	-3.295368	-0.423096	-0.152973
O30	O	-3.317285	0.028185	-0.157927
C31	C	-3.747417	-0.494352	0.280802
C32	C	-3.795351	-0.672889	0.280617
C33	C	-4.156550	-0.489714	-0.148764
C34	C	-4.225242	-0.668250	-0.148955
C35	C	-3.531953	-0.201233	-0.314083
C36	C	-3.524039	-0.202394	-0.415926
C37	C	-3.469012	0.081412	-0.153594
C38	C	-3.421078	0.259948	-0.153405
H39	H	-3.680247	0.252006	0.284288
C40	C	-4.576591	-0.638624	-0.158373
H41	H	-4.708660	-0.707617	-0.161189
H42	H	-4.537630	-0.558065	-0.212213
H43	H	-4.579449	-0.587622	-0.104762
C44	C	-4.146698	0.356758	0.271203
H45	H	-4.078582	0.467471	0.271982
H46	H	-4.249627	0.317926	0.323002
H47	H	-4.207800	0.347488	0.215552
C48	C	-4.069721	-0.769702	-0.144005
H49	H	-4.137830	-0.880413	-0.144796
H50	H	-4.008592	-0.760426	-0.088366
H51	H	-3.966809	-0.730866	-0.195818
C52	C	-3.321163	-0.194185	0.526185
H53	H	-3.216620	-0.188929	0.565527
H54	H	-3.284722	-0.100184	0.479977
H55	H	-3.336984	-0.288408	0.497346
C56	C	-3.895256	-0.218753	0.601029
H57	H	-3.874139	-0.216851	0.664179
H58	H	-3.994519	-0.316334	0.595998
H59	H	-3.942252	-0.128110	0.578636
