data_functionalizedCrystal
_audit_creation_method	'MofGen! by Chris Wilmer'
_symmetry_space_group_name_H-M	'P1'
_symmetry_Int_Tables_number	1
_symmetry_cell_setting	triclinic
loop_
_symmetry_equiv_pos_as_xyz
  x,y,z
_cell_length_a	12.594517
_cell_length_b	19.805405
_cell_length_c	19.805399
_cell_angle_alpha	89.970699
_cell_angle_beta	89.990909
_cell_angle_gamma	90.022298
loop_
_atom_site_label
_atom_site_type_symbol
_atom_site_fract_x
_atom_site_fract_y
_atom_site_fract_z
Zn1	Zn	1.627165	-0.269553	-0.382522
Zn2	Zn	1.627031	-0.382742	-0.269331
Zn3	Zn	1.449176	-0.269564	-0.269368
Zn4	Zn	1.449119	-0.382697	-0.382498
O5	O	1.538123	-0.326139	-0.325930
O6	O	1.776093	-0.284582	-0.367502
O7	O	1.603406	-0.367751	-0.174619
O8	O	1.472867	-0.174846	-0.284403
O9	O	1.775995	-0.367741	-0.284340
O10	O	1.603635	-0.174838	-0.367538
O11	O	1.472737	-0.284600	-0.174646
O12	O	1.300223	-0.284557	-0.284380
O13	O	1.472769	-0.367666	-0.477218
O14	O	1.300181	-0.367676	-0.367496
O15	O	1.603579	-0.284539	-0.477236
O16	O	1.603351	-0.477452	-0.284317
O17	O	1.472639	-0.477420	-0.367461
C18	C	1.261582	-0.326113	-0.325940
C19	C	1.143277	-0.326119	-0.325960
C20	C	1.538003	-0.501995	-0.325897
C21	C	1.538049	-0.577227	-0.325905
C22	C	1.606177	-0.612566	-0.282658
C23	C	1.606222	-0.683254	-0.282673
C24	C	1.538134	-0.718603	-0.325932
C25	C	1.470003	-0.683259	-0.369185
C26	C	1.469964	-0.612572	-0.369173
C27	C	1.470160	-0.968332	-0.369235
C28	C	1.470202	-1.039024	-0.369242
C29	C	1.606418	-1.039014	-0.282735
C30	C	1.606379	-0.968327	-0.282723
C31	C	1.538253	-0.932990	-0.325978
C32	C	1.538206	-0.856342	-0.325962
C33	C	1.538174	-0.795250	-0.325945
C34	C	1.074031	-0.371416	-0.371080
C35	C	1.003239	-0.309704	-0.387734
C36	C	1.003270	-0.387881	-0.309291
C37	C	1.074043	-0.264375	-0.342647
C38	C	1.074079	-0.342593	-0.264175
C39	C	1.003319	-0.280839	-0.280806
C40	C	1.815744	-0.326165	-0.325920
C41	C	1.934049	-0.326176	-0.325915
C42	C	1.538183	-0.326096	-0.502472
C43	C	1.538208	-0.326078	-0.577704
C44	C	1.538272	-0.149596	-0.325977
C45	C	1.538336	-0.074364	-0.325998
C46	C	1.606322	-0.282792	-0.613059
C47	C	1.606333	-0.282772	-0.683747
C48	C	1.538235	-0.326043	-0.719080
C49	C	1.470113	-0.369331	-0.683721
C50	C	1.470097	-0.369347	-0.613033
C51	C	1.470173	-0.369268	-0.968794
C52	C	1.470196	-0.369250	-1.039486
C53	C	1.606409	-0.282694	-1.039508
C54	C	1.606393	-0.282709	-0.968821
C55	C	1.538268	-0.325995	-0.933468
C56	C	1.538256	-0.326014	-0.856819
C57	C	1.538252	-0.326027	-0.795727
C58	C	1.538125	-0.326133	-0.150074
C59	C	1.538306	-0.325960	-0.074842
H60	H	1.661618	-0.583789	-0.247428
H61	H	1.661780	-0.247558	-0.584296
H62	H	1.414489	-0.583800	-0.404390
H63	H	1.414621	-0.404588	-0.584249
O64	O	1.404014	-0.411458	-0.717967
C65	C	1.352297	-0.526584	-0.739593
C66	C	1.427202	-0.478948	-0.700756
H67	H	1.371033	-0.581160	-0.725703
H68	H	1.266461	-0.514748	-0.725686
H69	H	1.363993	-0.519104	-0.796184
H70	H	1.415601	-0.486402	-0.644156
H71	H	1.513011	-0.490796	-0.714720
H72	H	1.414717	-0.404523	-0.940018
H73	H	1.105083	-0.409648	-0.409285
H74	H	0.972123	-0.295791	-0.439965
H75	H	1.661697	-0.712024	-0.247456
H76	H	1.661819	-0.939549	-0.247495
O77	O	1.672590	-1.073447	-0.240796
C78	C	1.733026	-1.182339	-0.202467
C79	C	1.658046	-1.143431	-0.250001
H80	H	1.721278	-1.238928	-0.209883
H81	H	1.818847	-1.168431	-0.214406
H82	H	1.714408	-1.168454	-0.147881
H83	H	1.676568	-1.157295	-0.304603
H84	H	1.572248	-1.157343	-0.238005
H85	H	1.414758	-1.067803	-0.404474
O86	O	0.966552	-0.235029	-0.235339
C87	C	0.961147	-0.118227	-0.201515
C88	C	1.002839	-0.170034	-0.253058
H89	H	0.990487	-0.065669	-0.215814
H90	H	0.870633	-0.118838	-0.201515
H91	H	0.991518	-0.131832	-0.149023
H92	H	0.972546	-0.156464	-0.305574
H93	H	1.093352	-0.169413	-0.252999
O94	O	1.403829	-0.717490	-0.411273
C95	C	1.268670	-0.710033	-0.497051
C96	C	1.343578	-0.671186	-0.449432
H97	H	1.219921	-0.672613	-0.527905
H98	H	1.317471	-0.743062	-0.532516
H99	H	1.213106	-0.743193	-0.465944
H100	H	1.399156	-0.637990	-0.480484
H101	H	1.294710	-0.638199	-0.413965
H102	H	1.105000	-0.212152	-0.356785
H103	H	1.105219	-0.356525	-0.211959
O104	O	0.966299	-0.450213	-0.292572
C105	C	0.960240	-0.568361	-0.321313
C106	C	1.002201	-0.497811	-0.340306
H107	H	0.989231	-0.606861	-0.359903
H108	H	0.990616	-0.582812	-0.269047
H109	H	0.869732	-0.567626	-0.320948
H110	H	1.092705	-0.498492	-0.340710
H111	H	0.971743	-0.483387	-0.392559
O112	O	1.403870	-0.934116	-0.411262
C113	C	1.268780	-0.941592	-0.497081
C114	C	1.343793	-0.980429	-0.449511
H115	H	1.220205	-0.979019	-0.528028
H116	H	1.213069	-0.908568	-0.466000
H117	H	1.317598	-0.908430	-0.532468
H118	H	1.295062	-1.013628	-0.414116
H119	H	1.399508	-1.013411	-0.480634
O120	O	1.672604	-0.240705	-0.717986
C121	C	1.807677	-0.154829	-0.710548
C122	C	1.732694	-0.202449	-0.671690
H123	H	1.856263	-0.123877	-0.673134
H124	H	1.863379	-0.185872	-0.743616
H125	H	1.758835	-0.119451	-0.743669
H126	H	1.781450	-0.237837	-0.638532
H127	H	1.676989	-0.171365	-0.638664
O128	O	1.672578	-0.240612	-0.934604
C129	C	1.807727	-0.154779	-0.942088
C130	C	1.732814	-0.202411	-0.980921
H131	H	1.856464	-0.123892	-0.979518
H132	H	1.758931	-0.119346	-0.909023
H133	H	1.863302	-0.185877	-0.908966
H134	H	1.677224	-0.171368	-1.014079
H135	H	1.781676	-0.237846	-1.013943
O136	O	1.403935	-0.411304	-1.073705
C137	C	1.268857	-0.497183	-1.066228
C138	C	1.343817	-0.449584	-1.027391
H139	H	1.220248	-0.528155	-1.028800
H140	H	1.213174	-0.466123	-1.099314
H141	H	1.317717	-0.532545	-1.099329
H142	H	1.295043	-0.414213	-0.994254
H143	H	1.399503	-0.480686	-0.994348
H144	H	1.661876	-0.247446	-1.068301
