data_functionalizedCrystal
_audit_creation_method	'MofGen! by Chris Wilmer'
_symmetry_space_group_name_H-M	'P1'
_symmetry_Int_Tables_number	1
_symmetry_cell_setting	triclinic
loop_
_symmetry_equiv_pos_as_xyz
  x,y,z
_cell_length_a	19.077115
_cell_length_b	19.077068
_cell_length_c	11.169409
_cell_angle_alpha	92.259065
_cell_angle_beta	87.680020
_cell_angle_gamma	90.115280
loop_
_atom_site_label
_atom_site_type_symbol
_atom_site_fract_x
_atom_site_fract_y
_atom_site_fract_z
Zn1	Zn	1.063022	-0.322912	-0.773414
Zn2	Zn	1.058201	-0.440438	-0.580423
Zn3	Zn	0.945506	-0.318225	-0.564377
Zn4	Zn	0.940757	-0.435654	-0.772696
O5	O	1.001871	-0.379307	-0.672728
O6	O	1.160714	-0.342466	-0.754830
O7	O	1.043221	-0.424267	-0.410346
O8	O	0.965099	-0.220518	-0.585692
O9	O	1.157172	-0.428812	-0.613040
O10	O	1.051438	-0.223961	-0.739270
O11	O	0.960424	-0.334478	-0.398557
O12	O	0.846544	-0.329839	-0.584995
O13	O	0.957007	-0.420658	-0.940740
O14	O	0.843056	-0.416113	-0.738046
O15	O	1.046834	-0.337827	-0.941268
O16	O	1.038617	-0.538133	-0.612343
O17	O	0.952331	-0.534618	-0.753605
C18	C	0.819304	-0.371949	-0.659702
C19	C	0.741199	-0.368817	-0.654159
C20	C	0.301751	-0.346329	-0.614415
C21	C	0.375138	-0.349275	-0.619629
C22	C	0.410028	-0.395740	-0.701802
C23	C	0.371528	-0.439257	-0.778773
C24	C	0.298142	-0.436307	-0.773564
C25	C	0.629314	-0.409384	-0.725921
C26	C	0.702704	-0.412333	-0.731122
C27	C	0.706309	-0.322349	-0.571979
C28	C	0.632922	-0.319406	-0.566772
C29	C	0.594428	-0.362920	-0.643747
N30	N	0.485041	-0.398754	-0.707132
N31	N	0.519417	-0.359902	-0.638422
C32	C	0.994455	-0.561872	-0.684665
C33	C	0.991346	-0.639976	-0.689816
C34	C	1.034845	-0.678478	-0.618755
C35	C	1.031925	-0.751866	-0.623608
C36	C	0.985503	-0.786750	-0.699516
C37	C	0.942002	-0.748243	-0.770585
C38	C	0.944926	-0.674857	-0.765738
C39	C	0.971941	-1.006036	-0.721898
C40	C	0.969019	-1.079428	-0.726737
C41	C	1.058943	-1.083045	-0.579761
C42	C	1.061859	-1.009658	-0.574916
C43	C	1.018362	-0.971157	-0.645989
N44	N	0.982516	-0.861763	-0.704475
N45	N	1.021353	-0.896145	-0.641036
C46	C	1.185152	-0.386696	-0.685805
C47	C	1.263256	-0.389844	-0.691378
C48	C	1.001929	-0.379232	-0.985769
C49	C	1.001953	-0.379199	-1.119169
C50	C	1.009336	-0.196031	-0.660771
C51	C	1.012517	-0.117929	-0.655676
C52	C	1.001857	-0.379334	-0.360904
C53	C	1.001977	-0.379174	-0.227502
H54	H	0.406477	-0.313843	-0.556953
H55	H	0.399941	-0.477087	-0.845685
H56	H	1.067346	-0.783211	-0.565742
C57	C	0.223048	-0.248489	-0.585960
C58	C	0.263398	-0.295257	-0.524083
H59	H	0.199369	-0.216963	-0.530189
H60	H	0.252781	-0.222796	-0.638592
H61	H	0.189622	-0.273992	-0.631048
H62	H	0.296828	-0.269755	-0.479001
H63	H	0.233663	-0.320953	-0.471430
C64	C	0.822097	-0.766110	-0.821902
C65	C	0.890974	-0.786583	-0.854030
H66	H	0.790594	-0.789775	-0.873424
H67	H	0.811360	-0.777778	-0.741326
H68	H	0.817625	-0.716892	-0.829187
H69	H	0.895448	-0.835800	-0.846736
H70	H	0.901715	-0.774920	-0.934626
H71	H	1.072643	-0.650080	-0.556938
H72	H	0.731110	-0.450171	-0.798043
C73	C	0.911544	-0.650811	-0.964974
C74	C	0.897113	-0.632532	-0.843852
H75	H	0.882024	-0.624683	-1.013201
H76	H	0.959228	-0.640635	-0.985159
H77	H	0.903154	-0.699509	-0.978707
H78	H	0.905508	-0.583834	-0.830117
H79	H	0.849417	-0.642702	-0.823660
C80	C	0.633131	-0.498644	-0.883714
C81	C	0.587007	-0.457230	-0.810506
H82	H	0.607009	-0.528189	-0.935925
H83	H	0.663004	-0.469214	-0.929755
H84	H	0.660654	-0.526623	-0.835107
H85	H	0.559487	-0.429247	-0.859113
H86	H	0.557122	-0.486663	-0.764461
H87	H	0.931225	-1.107828	-0.788572
C88	C	0.301945	-0.525546	-0.931393
C89	C	0.255826	-0.484138	-0.858167
H90	H	0.275820	-0.555076	-0.983624
H91	H	0.331825	-0.496113	-0.977413
H92	H	0.329461	-0.553542	-0.882800
H93	H	0.228313	-0.456139	-0.906760
H94	H	0.225933	-0.513575	-0.812144
H95	H	0.737659	-0.286921	-0.509311
C96	C	1.150466	-1.020609	-0.430148
C97	C	1.112897	-0.971315	-0.491490
H98	H	1.181977	-0.996936	-0.378651
H99	H	1.118725	-1.048044	-0.383900
H100	H	1.176184	-1.050268	-0.486295
H101	H	1.087174	-0.941659	-0.435343
H102	H	1.144642	-0.943868	-0.537741
C103	C	0.882745	-1.009842	-0.867630
C104	C	0.924115	-0.963722	-0.799997
H105	H	0.853213	-0.983715	-0.915835
H106	H	0.912206	-1.039642	-0.917659
H107	H	0.854751	-1.037437	-0.815257
H108	H	0.952113	-0.936130	-0.852370
H109	H	0.894650	-0.933909	-0.749963
H110	H	1.094357	-1.114400	-0.521899
H111	H	0.604520	-0.281574	-0.499850
