data_functionalizedCrystal
_audit_creation_method	'MofGen! by Chris Wilmer'
_symmetry_space_group_name_H-M	'P1'
_symmetry_Int_Tables_number	1
_symmetry_cell_setting	triclinic
loop_
_symmetry_equiv_pos_as_xyz
  x,y,z
_cell_length_a	11.169417
_cell_length_b	21.295417
_cell_length_c	11.169409
_cell_angle_alpha	90.041399
_cell_angle_beta	90.019824
_cell_angle_gamma	90.031386
loop_
_atom_site_label
_atom_site_type_symbol
_atom_site_fract_x
_atom_site_fract_y
_atom_site_fract_z
Zn1	Zn	1.834794	-0.250543	0.678467
Zn2	Zn	2.168127	0.082790	1.011800
Zn3	Zn	2.501461	0.416123	1.345134
Zn4	Zn	1.834613	-0.355832	0.477752
Zn5	Zn	2.167946	-0.022498	0.811086
Zn6	Zn	2.501280	0.310835	1.144419
Zn7	Zn	1.634080	-0.250582	0.477802
Zn8	Zn	1.967413	0.082751	0.811135
Zn9	Zn	2.300747	0.416085	1.144468
Zn10	Zn	1.634017	-0.355780	0.678397
Zn11	Zn	1.967350	-0.022447	1.011730
Zn12	Zn	2.300684	0.310886	1.345064
O13	O	1.734376	-0.303184	0.578105
O14	O	2.067709	0.030149	0.911438
O15	O	2.401043	0.363482	1.244771
O16	O	2.002720	-0.264516	0.651851
O17	O	2.336053	0.068818	0.985184
O18	O	2.669386	0.402151	1.318517
O19	O	1.807962	-0.341908	0.309809
O20	O	2.141296	-0.008574	0.643142
O21	O	2.474629	0.324759	0.976476
O22	O	1.660807	-0.162487	0.504470
O23	O	1.994141	0.170846	0.837803
O24	O	2.327474	0.504179	1.171137
O25	O	2.002587	-0.341870	0.504386
O26	O	2.335920	-0.008537	0.837720
O27	O	2.669253	0.324796	1.171053
O28	O	1.808271	-0.162459	0.651898
O29	O	2.141605	0.170874	0.985232
O30	O	2.474938	0.504207	1.318565
O31	O	1.660632	-0.264581	0.309845
O32	O	1.993965	0.068752	0.643178
O33	O	2.327298	0.402086	0.976512
O34	O	1.466122	-0.264531	0.504402
O35	O	1.799455	0.068802	0.837736
O36	O	2.132789	0.402135	1.171069
O37	O	1.660700	-0.341783	0.846356
O38	O	1.994033	-0.008450	1.179690
O39	O	2.327367	0.324884	1.513023
O40	O	1.466076	-0.341820	0.651779
O41	O	1.799409	-0.008487	0.985112
O42	O	2.132742	0.324846	1.318446
O43	O	1.808210	-0.264466	0.846408
O44	O	2.141543	0.068867	1.179741
O45	O	2.474877	0.402201	1.513074
O46	O	1.807901	-0.443914	0.504318
O47	O	2.141234	-0.110581	0.837652
O48	O	2.474568	0.222752	1.170985
O49	O	1.660524	-0.443877	0.651731
O50	O	1.993857	-0.110543	0.985065
O51	O	2.327191	0.222790	1.318398
C52	C	1.422551	-0.303175	0.578089
C53	C	1.755885	0.030159	0.911422
C54	C	2.089218	0.363492	1.244756
C55	C	1.289151	-0.303186	0.578111
C56	C	1.622485	0.030147	0.911444
C57	C	1.955818	0.363481	1.244778
C58	C	1.734219	-0.466736	0.578038
C59	C	2.067552	-0.133403	0.911371
C60	C	2.400885	0.199931	1.244705
C61	C	1.734261	-0.536704	0.578050
C62	C	2.067594	-0.203371	0.911383
C63	C	2.400928	0.129963	1.244716
C64	C	1.811069	-0.569569	0.501371
C65	C	2.144402	-0.236236	0.834704
C66	C	2.477735	0.097097	1.168037
C67	C	1.811125	-0.635312	0.501398
C68	C	2.144458	-0.301979	0.834731
C69	C	2.477791	0.031355	1.168064
C70	C	1.734352	-0.668187	0.578091
C71	C	2.067686	-0.334853	0.911424
C72	C	2.401019	-0.001520	1.244758
C73	C	1.657539	-0.635313	0.654785
C74	C	1.990873	-0.301980	0.988119
C75	C	2.324206	0.031353	1.321452
C76	C	1.657494	-0.569572	0.654765
C77	C	1.990827	-0.236239	0.988098
C78	C	2.324161	0.097095	1.321431
N79	N	1.629362	-0.771452	0.587235
N80	N	1.962695	-0.438119	0.920569
N81	N	2.296029	-0.104786	1.253902
N82	N	1.629409	-0.833904	0.587248
N83	N	1.962742	-0.500570	0.920581
N84	N	2.296075	-0.167237	1.253915
C85	C	1.734487	-0.866261	0.578160
C86	C	2.067820	-0.532928	0.911493
C87	C	2.401153	-0.199595	1.244827
N88	N	1.839518	-0.833808	0.569035
N89	N	2.172852	-0.500475	0.902368
N90	N	2.506185	-0.167141	1.235702
N91	N	1.839470	-0.771351	0.569016
N92	N	2.172804	-0.438017	0.902350
N93	N	2.506137	-0.104684	1.235683
C94	C	1.734394	-0.739472	0.578123
C95	C	2.067727	-0.406139	0.911456
C96	C	2.401060	-0.072805	1.244789
C97	C	1.811362	-0.970412	0.501506
C98	C	2.144695	-0.637079	0.834839
C99	C	2.478028	-0.303745	1.168173
C100	C	1.811420	-1.036156	0.501541
C101	C	2.144753	-0.702822	0.834875
C102	C	2.478086	-0.369489	1.168208
C103	C	1.657824	-1.036156	0.654923
C104	C	1.991157	-0.702823	0.988256
C105	C	2.324490	-0.369489	1.321589
C106	C	1.657776	-0.970413	0.654894
C107	C	1.991110	-0.637080	0.988227
C108	C	2.324443	-0.303747	1.321560
C109	C	1.734543	-0.937546	0.578179
C110	C	2.067877	-0.604212	0.911512
C111	C	2.401210	-0.270879	1.244845
C112	C	2.047418	-0.303194	0.578121
C113	C	2.380752	0.030139	0.911454
C114	C	2.714085	0.363472	1.244787
C115	C	2.180818	-0.303199	0.578128
C116	C	2.514152	0.030135	0.911461
C117	C	2.847485	0.363468	1.244794
C118	C	1.734468	-0.303114	0.891147
C119	C	2.067801	0.030219	1.224480
C120	C	2.401135	0.363552	1.557814
C121	C	1.734507	-0.303085	1.024547
C122	C	2.067841	0.030249	1.357881
C123	C	2.401174	0.363582	1.691214
C124	C	1.734567	-0.138994	0.578198
C125	C	2.067900	0.194339	0.911531
C126	C	2.401233	0.527673	1.244864
C127	C	1.734648	-0.069026	0.578237
C128	C	2.067981	0.264307	0.911570
C129	C	2.401315	0.597641	1.244904
C130	C	1.734353	-0.303209	0.266280
C131	C	2.067687	0.030125	0.599613
C132	C	2.401020	0.363458	0.932946
C133	C	1.734547	-0.303061	0.132880
C134	C	2.067880	0.030272	0.466214
C135	C	2.401213	0.363606	0.799547
H136	H	1.873580	-0.542810	0.438908
H137	H	2.206913	-0.209477	0.772241
H138	H	2.540246	0.123856	1.105574
C139	C	1.895824	-0.934255	0.417137
C140	C	2.229157	-0.600922	0.750470
C141	C	2.562490	-0.267588	1.083803
N142	N	1.959446	-0.907023	0.353593
N143	N	2.292779	-0.573690	0.686926
N144	N	2.626113	-0.240357	1.020260
H145	H	1.595227	-0.943653	0.717328
H146	H	1.928561	-0.610319	1.050662
H147	H	2.261894	-0.276986	1.383995
C148	C	1.895616	-0.671471	0.417035
C149	C	2.228949	-0.338138	0.750368
C150	C	2.562283	-0.004804	1.083701
N151	N	1.959252	-0.698704	0.353489
N152	N	2.292585	-0.365371	0.686823
N153	N	2.625919	-0.032038	1.020156
H154	H	1.873973	-1.062914	0.439102
H155	H	2.207306	-0.729580	0.772435
H156	H	2.540640	-0.396247	1.105769
C157	C	1.573375	-1.072314	0.739290
C158	C	1.906708	-0.738981	1.072623
C159	C	2.240041	-0.405648	1.405956
N160	N	1.509767	-1.099552	0.802839
N161	N	1.843101	-0.766219	1.136172
N162	N	2.176434	-0.432885	1.469505
H163	H	1.594947	-0.542813	0.717208
H164	H	1.928280	-0.209479	1.050541
H165	H	2.261614	0.123854	1.383874
C166	C	1.573085	-0.671477	0.739144
C167	C	1.906418	-0.338143	1.072478
C168	C	2.239752	-0.004810	1.405811
N169	N	1.509473	-0.698715	0.802687
N170	N	1.842806	-0.365382	1.136021
N171	N	2.176139	-0.032048	1.469354
