data_functionalizedCrystal
_audit_creation_method	'MofGen! by Chris Wilmer'
_symmetry_space_group_name_H-M	'P1'
_symmetry_Int_Tables_number	1
_symmetry_cell_setting	triclinic
loop_
_symmetry_equiv_pos_as_xyz
  x,y,z
_cell_length_a	11.169409
_cell_length_b	12.759401
_cell_length_c	12.759400
_cell_angle_alpha	89.984446
_cell_angle_beta	89.967493
_cell_angle_gamma	90.022105
loop_
_atom_site_label
_atom_site_type_symbol
_atom_site_fract_x
_atom_site_fract_y
_atom_site_fract_z
Zn1	Zn	-0.678590	-1.606283	-0.418139
Zn2	Zn	-0.477906	-1.606173	-0.593865
Zn3	Zn	-0.477919	-1.430579	-0.418205
Zn4	Zn	-0.678546	-1.430576	-0.593781
O5	O	-0.578240	-1.518403	-0.505997
O6	O	-0.651982	-1.753290	-0.441457
O7	O	-0.309958	-1.582835	-0.570625
O8	O	-0.504563	-1.453933	-0.271175
O9	O	-0.504541	-1.753209	-0.570562
O10	O	-0.651995	-1.583023	-0.271127
O11	O	-0.309968	-1.453826	-0.441569
O12	O	-0.504520	-1.283557	-0.441488
O13	O	-0.846502	-1.453929	-0.570419
O14	O	-0.651919	-1.283555	-0.570483
O15	O	-0.846534	-1.583021	-0.441376
O16	O	-0.504498	-1.582832	-0.740875
O17	O	-0.651907	-1.453822	-0.740813
C18	C	-0.578222	-1.518344	-0.778965
C19	C	-0.578254	-1.518414	-0.895741
C20	C	-0.891283	-1.518487	-0.505881
C21	C	-1.024683	-1.518523	-0.505831
C22	C	-0.578217	-1.245435	-0.505985
C23	C	-0.578235	-1.128659	-0.506004
C24	C	-0.266416	-1.518379	-0.506038
C25	C	-0.133016	-1.518547	-0.505791
C26	C	-0.578265	-1.792436	-0.506011
C27	C	-0.578275	-1.909213	-0.506017
C28	C	-0.654865	-1.073823	-0.573274
C29	C	-0.654889	-0.964099	-0.573278
C30	C	-0.501642	-0.964056	-0.438739
C31	C	-0.501625	-1.073778	-0.438731
C32	C	-0.655114	-1.585654	-1.060225
C33	C	-0.655086	-1.585600	-0.950501
C34	C	-0.501436	-1.451286	-0.950711
C35	C	-0.501458	-1.451346	-1.060433
C36	C	-0.578285	-1.518491	-0.231964
C37	C	-0.578304	-1.518528	-0.115187
H38	H	-0.717290	-0.919457	-0.628055
H39	H	-0.717249	-1.118504	-0.628050
H40	H	-0.439267	-0.919358	-0.383969
O41	O	-0.426865	-1.385873	-0.897634
C42	C	-0.453022	-1.281165	-0.924498
H43	H	-0.499165	-1.279016	-1.004139
H44	H	-0.366361	-1.234089	-0.928342
H45	H	-0.514687	-1.245722	-0.862739
H46	H	-0.439224	-1.118426	-0.383945
O47	O	-0.729798	-1.651010	-1.113252
C48	C	-0.797610	-1.710222	-1.041206
H49	H	-0.748432	-1.713847	-0.963025
H50	H	-0.810516	-1.793009	-1.072835
H51	H	-0.888714	-1.671695	-1.029501
O52	O	-0.729763	-1.650656	-0.896996
C53	C	-0.807222	-1.590770	-0.833543
H54	H	-0.764804	-1.511163	-0.817195
H55	H	-0.823336	-1.633518	-0.756343
H56	H	-0.896160	-1.579205	-0.875780
H57	H	-0.438904	-1.396683	-1.105185
