data_functionalizedCrystal
_audit_creation_method	'MofGen! by Chris Wilmer'
_symmetry_space_group_name_H-M	'P1'
_symmetry_Int_Tables_number	1
_symmetry_cell_setting	triclinic
loop_
_symmetry_equiv_pos_as_xyz
  x,y,z
_cell_length_a	17.038272
_cell_length_b	23.532407
_cell_length_c	16.098538
_cell_angle_alpha	92.700973
_cell_angle_beta	87.069734
_cell_angle_gamma	86.980117
loop_
_atom_site_label
_atom_site_type_symbol
_atom_site_fract_x
_atom_site_fract_y
_atom_site_fract_z
O1	O	1.039966	0.121251	-0.069166
O2	O	0.812351	0.119288	-0.069191
O3	O	0.933021	0.037699	-0.069163
O4	O	0.919295	0.202840	-0.069195
O5	O	0.925973	0.042445	0.069349
O6	O	0.805302	0.124034	0.069321
O7	O	1.032917	0.125997	0.069345
Zn8	Zn	0.917990	0.125769	0.091324
Zn9	Zn	0.927278	0.119516	-0.091170
O10	O	0.912247	0.207586	0.069317
C11	C	0.779712	0.119875	0.000062
C12	C	0.692959	0.114548	0.000054
C13	C	0.642483	0.163453	0.000045
C14	C	0.560969	0.158445	0.000057
C15	C	0.529932	0.104532	0.000072
C16	C	0.580415	0.055624	0.000084
C17	C	0.661927	0.060632	0.000077
C18	C	0.284304	0.086837	0.000098
C19	C	0.202786	0.081832	0.000102
C20	C	0.183345	0.184654	0.000077
C21	C	0.264860	0.189657	0.000066
C22	C	0.315335	0.140750	0.000081
C23	C	0.446612	0.099411	0.000083
C24	C	0.398653	0.145871	0.000077
C25	C	0.929147	0.018838	0.000095
C26	C	0.928096	-0.044434	0.000101
C27	C	0.992917	-0.440131	0.000063
C28	C	0.991941	-0.499583	0.000056
O29	O	1.052030	-0.533169	0.000032
N30	N	0.920202	-0.525981	0.000049
C31	C	0.849435	-0.492924	0.000040
O32	O	0.788325	-0.520836	0.000033
C33	C	0.850412	-0.433473	0.000041
C34	C	0.922155	-0.407078	0.000056
C35	C	1.064654	-0.413736	0.000077
C36	C	1.065630	-0.354288	0.000085
C37	C	0.994868	-0.321236	0.000079
C38	C	0.923131	-0.347631	0.000064
C39	C	0.779646	-0.400418	0.000026
C40	C	0.780629	-0.340963	0.000025
C41	C	0.852372	-0.314569	0.000041
C42	C	0.853344	-0.255130	0.000066
N43	N	0.925083	-0.228732	0.000073
C44	C	0.995845	-0.261785	0.000079
C45	C	0.847388	-0.617774	0.000038
C46	C	0.846410	-0.677223	0.000043
C47	C	0.988917	-0.683878	0.000058
C48	C	0.989894	-0.624428	0.000058
C49	C	0.919127	-0.591376	0.000045
C50	C	0.997889	-0.136940	0.000097
C51	C	0.998858	-0.077487	0.000108
C52	C	0.856352	-0.070837	0.000089
C53	C	0.855382	-0.130285	0.000082
C54	C	0.926157	-0.163336	0.000083
O55	O	0.793287	-0.221508	0.000086
O56	O	1.056945	-0.233865	0.000076
C57	C	1.065556	0.125410	0.000090
C58	C	1.152310	0.130737	0.000093
C59	C	0.916121	0.226447	0.000057
C60	C	0.917172	0.289719	0.000045
N61	N	0.911658	0.130036	0.215872
N62	N	0.933616	0.115244	-0.215718
C63	C	0.962894	0.095421	0.259469
C64	C	0.958471	0.098412	0.346657
C65	C	0.902816	0.136022	0.390246
C66	C	0.851574	0.170639	0.346643
C67	C	0.855994	0.167644	0.259457
C68	C	0.886795	0.146867	0.653493
C69	C	0.882380	0.149860	0.740685
C70	C	0.989277	0.077632	0.740693
C71	C	0.993694	0.074644	0.653505
C72	C	0.942450	0.109258	0.609909
C73	C	0.898295	0.139081	0.479366
C74	C	0.946968	0.106195	0.520791
H75	H	0.667745	0.207354	0.000032
H76	H	1.057282	-0.055999	0.000123
H77	H	1.055521	-0.163843	0.000094
O78	O	1.000913	0.069611	0.478377
C79	C	0.961864	0.030705	0.428003
H80	H	0.901205	0.049956	0.414934
H81	H	0.997657	0.021161	0.366695
H82	H	0.955155	-0.010463	0.461645
H83	H	0.814271	0.195831	0.223961
H84	H	1.048313	-0.602941	0.000070
H85	H	0.837057	0.180488	0.776172
H86	H	1.008217	0.064798	0.223984
O87	O	1.047535	0.038052	0.610942
C88	C	1.098102	0.068945	0.560209
H89	H	1.098246	0.114782	0.586464
H90	H	1.160314	0.048443	0.558866
H91	H	1.076638	0.068592	0.494273
H92	H	0.519874	0.198268	0.000049
O93	O	0.294874	0.242074	0.000092
C94	C	0.232843	0.284165	0.000067
H95	H	0.176257	0.266423	0.026298
H96	H	0.247555	0.322946	0.040271
H97	H	0.224556	0.297162	-0.066386
O98	O	0.711912	-0.308838	-0.000133
C99	C	0.711872	-0.276688	-0.071855
H100	H	0.754567	-0.298202	-0.121990
H101	H	0.650092	-0.273894	-0.095945
H102	H	0.730925	-0.231971	-0.055628
O103	O	0.134201	0.232103	0.000106
C104	C	0.055601	0.216124	0.000094
H105	H	0.051492	0.172156	0.026325
H106	H	0.016374	0.248432	0.040304
H107	H	0.035380	0.214864	-0.066356
O108	O	0.787588	-0.038745	0.000225
C109	C	0.740331	-0.048801	0.071938
H110	H	0.779190	-0.065381	0.122090
H111	H	0.707430	-0.007369	0.096007
H112	H	0.696160	-0.081785	0.055707
H113	H	0.177520	0.037928	0.000114
O114	O	0.333219	0.039270	0.000073
C115	C	0.288342	-0.009386	0.000106
H116	H	0.228720	0.001219	-0.026120
H117	H	0.320733	-0.045275	-0.040098
H118	H	0.279285	-0.023446	0.066562
H119	H	0.555138	0.011727	0.000108
O120	O	1.133456	-0.445781	-0.000025
C121	C	1.180685	-0.435736	-0.071762
H122	H	1.162339	-0.392445	-0.095686
H123	H	1.245078	-0.436183	-0.055614
H124	H	1.172830	-0.470455	-0.121995
H125	H	1.000191	0.070225	0.382153
O126	O	0.710938	0.013105	-0.000066
C127	C	0.700562	-0.021860	-0.071784
H128	H	0.675009	0.005124	-0.121928
H129	H	0.759801	-0.042710	-0.095861
H130	H	0.658489	-0.056268	-0.055555
H131	H	0.806255	0.201259	0.382139
O132	O	0.844202	0.175541	0.521806
C133	C	0.793660	0.144424	0.572239
H134	H	0.824472	0.101843	0.585299
H135	H	0.778011	0.169681	0.633548
H136	H	0.737629	0.136585	0.538653
O137	O	1.135280	-0.328593	-0.000022
C138	C	1.143772	-0.296869	-0.071769
H139	H	1.083272	-0.285880	-0.095686
H140	H	1.173809	-0.255926	-0.055637
H141	H	1.181102	-0.323146	-0.122001
H142	H	0.423926	0.189766	0.000069
O143	O	1.057670	-0.715963	0.000203
C144	C	1.097623	-0.701009	0.071932
H145	H	1.053658	-0.681003	0.122073
H146	H	1.128069	-0.740799	0.096007
H147	H	1.143450	-0.669136	0.055718
O148	O	0.416430	0.047049	-0.000057
C149	C	0.373481	0.038631	-0.071777
H150	H	0.395077	0.067594	-0.121923
H151	H	0.382366	-0.007720	-0.095850
H152	H	0.308271	0.049209	-0.055553
H153	H	1.030996	0.049450	0.776196
H154	H	0.787989	-0.698708	0.000045
H155	H	0.789757	-0.590866	0.000034
H156	H	0.721225	-0.421898	0.000008
O157	O	0.785681	-0.155909	-0.000076
C158	C	0.746219	-0.141788	-0.071805
H159	H	0.790732	-0.129098	-0.121932
H160	H	0.714486	-0.180195	-0.095902
H161	H	0.701531	-0.104652	-0.055584
O162	O	0.836986	0.180551	0.611280
C163	C	0.786907	0.214378	0.668453
H164	H	0.815798	0.218720	0.730595
H165	H	0.775903	0.258395	0.643249
H166	H	0.728526	0.193374	0.677745
