data_functionalizedCrystal
_audit_creation_method	'MofGen! by Chris Wilmer'
_symmetry_space_group_name_H-M	'P1'
_symmetry_Int_Tables_number	1
_symmetry_cell_setting	triclinic
loop_
_symmetry_equiv_pos_as_xyz
  x,y,z
_cell_length_a	16.625546
_cell_length_b	11.169417
_cell_length_c	11.169409
_cell_angle_alpha	90.019824
_cell_angle_beta	89.961577
_cell_angle_gamma	89.976653
loop_
_atom_site_label
_atom_site_type_symbol
_atom_site_fract_x
_atom_site_fract_y
_atom_site_fract_z
Zn1	Zn	-0.320917	-1.834861	-0.678492
Zn2	Zn	-0.455779	-1.834708	-0.477788
Zn3	Zn	-0.320967	-1.634147	-0.477826
Zn4	Zn	-0.455714	-1.634112	-0.678432
O5	O	-0.388344	-1.734457	-0.578135
O6	O	-0.338814	-2.002791	-0.651877
O7	O	-0.437944	-1.808054	-0.309843
O8	O	-0.208128	-1.660851	-0.504486
O9	O	-0.437897	-2.002678	-0.504420
O10	O	-0.208092	-1.808315	-0.651914
O11	O	-0.338898	-1.660702	-0.309871
O12	O	-0.338834	-1.466193	-0.504428
O13	O	-0.437785	-1.660791	-0.846390
O14	O	-0.437832	-1.466167	-0.651813
O15	O	-0.338750	-1.808281	-0.846434
O16	O	-0.568603	-1.808020	-0.504362
O17	O	-0.568555	-1.660643	-0.651775
C18	C	-0.597835	-1.734344	-0.578084
C19	C	-0.687456	-1.734405	-0.578103
C20	C	-0.388332	-1.422632	-0.578119
C21	C	-0.388346	-1.289232	-0.578141
C22	C	-0.388357	-2.047499	-0.578151
C23	C	-0.388363	-2.180899	-0.578158
C24	C	-1.015632	-1.734614	-0.578228
C25	C	-0.924323	-1.734552	-0.578197
C26	C	-0.851547	-1.734508	-0.578165
C27	C	-0.760233	-1.734448	-0.578135
C28	C	-0.178035	-1.734604	-0.578211
C29	C	-0.088414	-1.734666	-0.578244
C30	C	-0.388255	-1.734549	-0.891177
C31	C	-0.388217	-1.734589	-1.024577
C32	C	-0.388375	-1.734434	-0.266310
C33	C	-0.388186	-1.734628	-0.132910
