data_functionalizedCrystal
_audit_creation_method	'MofGen! by Chris Wilmer'
_symmetry_space_group_name_H-M	'P1'
_symmetry_Int_Tables_number	1
_symmetry_cell_setting	triclinic
loop_
_symmetry_equiv_pos_as_xyz
  x,y,z
_cell_length_a	23.532407
_cell_length_b	23.532357
_cell_length_c	22.010155
_cell_angle_alpha	89.998697
_cell_angle_beta	89.996931
_cell_angle_gamma	82.838485
loop_
_atom_site_label
_atom_site_type_symbol
_atom_site_fract_x
_atom_site_fract_y
_atom_site_fract_z
O1	O	0.755251	0.069129	-0.050457
O2	O	1.255251	0.569129	0.449543
O3	O	0.589386	0.079132	-0.050475
O4	O	1.089386	0.579132	0.449525
O5	O	0.677335	-0.008803	-0.050453
O6	O	1.177335	0.491197	0.449547
O7	O	0.667302	0.157064	-0.050479
O8	O	1.167302	0.657064	0.449521
O9	O	0.677319	-0.008790	0.050597
O10	O	1.177319	0.491210	0.550597
O11	O	0.589370	0.079145	0.050575
O12	O	1.089370	0.579145	0.550575
O13	O	0.755235	0.069142	0.050594
O14	O	1.255235	0.569142	0.550594
Cu15	Cu	0.672301	0.074145	0.059811
Cu16	Cu	1.172301	0.574145	0.559811
Cu17	Cu	0.672320	0.074129	-0.059693
Cu18	Cu	1.172320	0.574129	0.440307
O19	O	0.667286	0.157077	0.050571
O20	O	1.167286	0.657077	0.550571
C21	C	0.568162	0.078884	0.000048
C22	C	1.068162	0.578884	0.500048
C23	C	0.504945	0.078118	0.000041
C24	C	1.004945	0.578118	0.500041
C25	C	0.677076	-0.030013	0.000074
C26	C	1.177076	0.469987	0.500074
C27	C	0.676322	-0.093232	0.000080
C28	C	1.176322	0.406768	0.500080
C29	C	0.105834	0.125353	0.000061
C30	C	0.605834	0.625353	0.500061
C31	C	0.046434	0.124641	0.000065
C32	C	0.546434	0.624641	0.500065
O33	O	0.009681	0.168428	0.000080
O34	O	0.509681	0.668428	0.500080
N35	N	0.023817	0.072364	0.000072
N36	N	0.523817	0.572364	0.500072
C37	C	0.060604	0.020794	0.000082
C38	C	0.560604	0.520794	0.500082
O39	O	0.035912	-0.023737	0.000089
O40	O	0.535912	0.476263	0.500089
C41	C	0.120003	0.021506	0.000082
C42	C	0.620003	0.521506	0.500082
C43	C	0.142616	0.073787	0.000069
C44	C	0.642616	0.573787	0.500069
C45	C	0.128448	0.177629	0.000048
C46	C	0.628448	0.677629	0.500048
C47	C	0.187844	0.178341	0.000043
C48	C	0.687844	0.678341	0.500043
C49	C	0.224626	0.126775	0.000051
C50	C	0.724626	0.626775	0.500051
C51	C	0.202012	0.074498	0.000064
C52	C	0.702012	0.574498	0.500064
C53	C	0.156788	-0.030063	0.000096
C54	C	0.656788	0.469937	0.500096
C55	C	0.216191	-0.029346	0.000097
C56	C	0.716191	0.470654	0.500097
C57	C	0.238804	0.022935	0.000084
C58	C	0.738804	0.522935	0.500084
C59	C	0.298190	0.023644	0.000067
C60	C	0.798190	0.523644	0.500067
N61	N	0.320807	0.075922	0.000059
N62	N	0.820807	0.575922	0.500059
C63	C	0.284025	0.127487	0.000052
C64	C	0.784025	0.627487	0.500052
C65	C	-0.064139	0.019303	0.000082
C66	C	0.435861	0.519303	0.500082
C67	C	-0.123536	0.018590	0.000077
C68	C	0.376464	0.518590	0.500077
C69	C	-0.137702	0.122437	0.000061
C70	C	0.362298	0.622437	0.500061
C71	C	-0.078303	0.123149	0.000062
C72	C	0.421697	0.623149	0.500062
C73	C	-0.041522	0.071580	0.000074
C74	C	0.458478	0.571580	0.500074
C75	C	0.408761	0.128977	0.000041
C76	C	0.908761	0.628977	0.500041
C77	C	0.468163	0.129684	0.000033
C78	C	0.968163	0.629684	0.500033
C79	C	0.482324	0.025837	0.000052
C80	C	0.982324	0.525837	0.500052
C81	C	0.422927	0.025130	0.000056
C82	C	0.922927	0.525130	0.500056
C83	C	0.386147	0.076704	0.000053
C84	C	0.886147	0.576704	0.500053
O85	O	0.334977	-0.020120	0.000054
O86	O	0.834977	0.479880	0.500054
O87	O	0.308725	0.172011	0.000052
O88	O	0.808725	0.672011	0.500052
C89	C	0.671594	-0.485250	-0.055036
C90	C	1.171594	0.014750	0.444964
C91	C	0.670877	-0.544650	-0.055040
C92	C	1.170877	-0.044650	0.444960
O93	O	0.670494	-0.575372	-0.101885
O94	O	1.170494	-0.075372	0.398115
N95	N	0.670512	-0.574354	0.000042
N96	N	1.170512	-0.074354	0.500042
C97	C	0.670859	-0.544655	0.055131
C98	C	1.170859	-0.044655	0.555131
O99	O	0.670483	-0.575374	0.101982
O100	O	1.170483	-0.075374	0.601982
C101	C	0.671572	-0.485256	0.055134
C102	C	1.171572	0.014744	0.555134
C103	C	0.671943	-0.455556	0.000048
C104	C	1.171943	0.044444	0.500048
C105	C	0.671963	-0.455550	-0.110117
C106	C	1.171963	0.044450	0.389883
C107	C	0.672682	-0.396155	-0.110113
C108	C	1.172682	0.103845	0.389887
C109	C	0.673030	-0.366460	-0.055029
C110	C	1.173030	0.133540	0.444971
C111	C	0.672661	-0.396160	0.000052
C112	C	1.172661	0.103840	0.500052
C113	C	0.671915	-0.455557	0.110222
C114	C	1.171915	0.044443	0.610222
C115	C	0.672628	-0.396154	0.110220
C116	C	1.172628	0.103846	0.610220
C117	C	0.672998	-0.366454	0.055135
C118	C	1.172998	0.133546	0.555135
C119	C	0.673728	-0.307070	0.055141
C120	C	1.173728	0.192930	0.555141
N121	N	0.674092	-0.277366	0.000059
N122	N	1.174092	0.222634	0.500059
C123	C	0.673743	-0.307061	-0.055026
C124	C	1.173743	0.192939	0.444974
C125	C	0.669361	-0.669396	0.055121
C126	C	1.169361	-0.169396	0.555121
C127	C	0.668652	-0.728795	0.055118
C128	C	1.168652	-0.228795	0.555118
C129	C	0.668668	-0.728786	-0.055053
C130	C	1.168668	-0.228786	0.444947
C131	C	0.669381	-0.669387	-0.055050
C132	C	1.169381	-0.169387	0.444950
C133	C	0.669725	-0.639692	0.000039
C134	C	1.169725	-0.139692	0.500039
C135	C	0.675252	-0.182327	-0.055014
C136	C	1.175252	0.317673	0.444986
C137	C	0.675973	-0.122927	-0.055005
C138	C	1.175973	0.377073	0.444995
C139	C	0.675954	-0.122941	0.055166
C140	C	1.175954	0.377059	0.555166
C141	C	0.675236	-0.182336	0.055157
C142	C	1.175236	0.317664	0.555157
C143	C	0.674883	-0.212027	0.000063
C144	C	1.174883	0.287973	0.500063
O145	O	0.674109	-0.276310	0.101962
O146	O	1.174109	0.223690	0.601962
O147	O	0.674112	-0.276333	-0.101869
O148	O	1.174112	0.223667	0.398131
C149	C	0.776459	0.069390	0.000070
C150	C	1.276459	0.569390	0.500070
C151	C	0.839676	0.070156	0.000072
C152	C	1.339676	0.570156	0.500072
C153	C	0.667545	0.178287	0.000043
C154	C	1.167545	0.678287	0.500043
C155	C	0.668300	0.241506	0.000033
C156	C	1.168300	0.741506	0.500033
N157	N	0.672292	0.074155	0.143864
N158	N	1.172292	0.574155	0.643864
N159	N	0.672334	0.074114	-0.143745
N160	N	1.172334	0.574114	0.356255
C161	C	0.711266	0.035197	0.563653
C162	C	1.211266	0.535197	1.063653
C163	C	0.711269	0.035193	0.627260
C164	C	1.211269	0.535193	1.127260
O165	O	0.744383	0.002076	0.660160
O166	O	1.244383	0.502076	1.160160
N167	N	0.672320	0.074117	0.659071
N168	N	1.172320	0.574117	1.159071
C169	C	0.633362	0.113044	0.627270
C170	C	1.133362	0.613044	1.127270
O171	O	0.600233	0.146152	0.660168
O172	O	1.100233	0.646152	1.160168
C173	C	0.633357	0.113045	0.563663
C174	C	1.133357	0.613045	1.063663
C175	C	0.672312	0.074122	0.531857
C176	C	1.172312	0.574122	1.031857
C177	C	0.750218	-0.003724	0.531846
C178	C	1.250218	0.496276	1.031846
C179	C	0.750216	-0.003719	0.468243
C180	C	1.250216	0.496281	0.968243
C181	C	0.711262	0.035206	0.436446
C182	C	1.211262	0.535206	0.936446
C183	C	0.672310	0.074127	0.468253
C184	C	1.172310	0.574127	0.968253
C185	C	0.594397	0.151969	0.531864
C186	C	1.094397	0.651969	1.031864
C187	C	0.594395	0.151966	0.468253
C188	C	1.094395	0.651966	0.968253
C189	C	0.633350	0.113043	0.436446
C190	C	1.133350	0.613043	0.936446
C191	C	0.633354	0.113056	0.372854
C192	C	1.133354	0.613056	0.872854
N193	N	0.672303	0.074132	0.341044
N194	N	1.172303	0.574132	0.841044
C195	C	0.711257	0.035207	0.372840
C196	C	1.211257	0.535207	0.872840
C197	C	0.633374	0.113039	0.760848
C198	C	1.133374	0.613039	1.260848
C199	C	0.633382	0.113041	0.824453
C200	C	1.133382	0.613041	1.324453
C201	C	0.711288	0.035189	0.824439
C202	C	1.211288	0.535189	1.324439
C203	C	0.711283	0.035190	0.760833
C204	C	1.211283	0.535190	1.260833
C205	C	0.672323	0.074115	0.729038
C206	C	1.172323	0.574115	1.229038
C207	C	0.711250	0.035220	0.239269
C208	C	1.211250	0.535220	0.739269
C209	C	0.711246	0.035230	0.175660
C210	C	1.211246	0.535230	0.675660
C211	C	0.633338	0.113080	0.175679
C212	C	1.133338	0.613080	0.675679
C213	C	0.633344	0.113073	0.239282
C214	C	1.133344	0.613073	0.739282
C215	C	0.672302	0.074138	0.271076
C216	C	1.172302	0.574138	0.771076
O217	O	0.600255	0.146155	0.339914
O218	O	1.100255	0.646155	0.839914
O219	O	0.744376	0.002100	0.339935
O220	O	1.244376	0.502100	0.839935
H221	H	0.486571	0.172259	0.000022
H222	H	0.986571	0.672259	0.500022
H223	H	0.676276	-0.098748	-0.099864
H224	H	1.176276	0.401252	0.400136
H225	H	0.512282	-0.016147	0.000056
H226	H	1.012282	0.483853	0.500056
H227	H	0.206249	0.220913	0.000032
H228	H	0.706249	0.720913	0.500032
O229	O	0.674986	-0.211232	-0.108496
O230	O	1.174986	0.288768	0.391504
C231	C	0.723909	-0.252316	-0.111806
C232	C	1.223909	0.247684	0.388194
H233	H	0.740239	-0.263477	-0.063982
H234	H	1.240239	0.236523	0.436018
H235	H	0.712313	-0.292561	-0.135138
H236	H	1.212313	0.207439	0.364862
H237	H	0.758733	-0.234132	-0.138976
H238	H	1.258733	0.265868	0.361024
H239	H	0.672900	-0.371979	0.155081
H240	H	1.172900	0.128021	0.655081
H241	H	0.671677	-0.479721	-0.154976
H242	H	1.171677	0.020279	0.345024
H243	H	0.674940	-0.206520	0.100012
H244	H	1.174940	0.293480	0.600012
O245	O	0.092803	0.227777	0.000012
O246	O	0.592803	0.727777	0.500012
C247	C	0.125513	0.274063	0.000017
C248	C	0.625513	0.774063	0.500017
H249	H	0.169932	0.259334	-0.019107
H250	H	0.669932	0.759334	0.480893
H251	H	0.103407	0.310169	-0.029332
H252	H	0.603407	0.810169	0.470668
H253	H	0.129649	0.290113	0.048492
H254	H	0.629649	0.790113	0.548492
O255	O	0.787996	-0.041681	0.437462
O256	O	1.287996	0.458319	0.937462
C257	C	0.778981	-0.097956	0.453147
C258	C	1.278981	0.402044	0.953147
H259	H	0.733357	-0.097901	0.470580
H260	H	1.233357	0.402099	0.970580
H261	H	0.785719	-0.126675	0.411397
H262	H	1.285719	0.373325	0.911397
H263	H	0.810578	-0.114798	0.490147
H264	H	1.310578	0.385202	0.990147
H265	H	0.676240	-0.098753	0.100014
H266	H	1.176240	0.401247	0.600014
H267	H	0.672981	-0.371978	-0.154969
H268	H	1.172981	0.128022	0.345031
H269	H	0.562675	0.183663	0.557752
H270	H	1.062675	0.683663	1.057752
H271	H	0.742970	0.003534	0.149765
H272	H	1.242970	0.503534	0.649765
O273	O	0.134901	-0.080886	0.000033
O274	O	0.634901	0.419114	0.500033
C275	C	0.153722	-0.112305	-0.052300
C276	C	0.653722	0.387695	0.447700
H277	H	0.194829	-0.097018	-0.069757
H278	H	0.694829	0.402982	0.430243
H279	H	0.162248	-0.159776	-0.040513
H280	H	0.662248	0.340224	0.459487
H281	H	0.119309	-0.105527	-0.088946
H282	H	0.619309	0.394473	0.411054
H283	H	0.742973	0.003516	0.265148
H284	H	1.242973	0.503516	0.765148
H285	H	0.601667	0.144742	0.850346
H286	H	1.101667	0.644742	1.350346
O287	O	0.669780	-0.640503	0.108599
O288	O	1.169780	-0.140503	0.608599
C289	C	0.719531	-0.612890	0.111915
C290	C	1.219531	-0.112890	0.611915
H291	H	0.736090	-0.606226	0.064092
H292	H	1.236090	-0.106226	0.564092
H293	H	0.708936	-0.569612	0.135238
H294	H	1.208936	-0.069612	0.635238
H295	H	0.753795	-0.640503	0.139095
H296	H	1.253795	-0.140503	0.639095
H297	H	0.601650	0.144741	0.734963
H298	H	1.101650	0.644741	1.234963
H299	H	0.781939	-0.035424	0.557729
H300	H	1.281939	0.464576	1.057729
H301	H	-0.167662	0.164425	0.000058
H302	H	0.332338	0.664425	0.500058
H303	H	-0.059896	0.165721	0.000054
H304	H	0.440104	0.665721	0.500054
H305	H	0.743004	0.003495	0.734939
H306	H	1.243004	0.503495	1.234939
H307	H	-0.141942	-0.023982	0.000078
H308	H	0.358058	0.476018	0.500078
O309	O	0.749103	-0.002705	0.855265
O310	O	1.249103	0.497295	1.355265
C311	C	0.740166	-0.059038	0.839737
C312	C	1.240166	0.440962	1.339737
H313	H	0.718216	-0.058857	0.793555
H314	H	1.218216	0.441143	1.293555
H315	H	0.783137	-0.087306	0.837562
H316	H	1.283137	0.412694	1.337562
H317	H	0.711919	-0.076504	0.875537
H318	H	1.211919	0.423496	1.375537
H319	H	0.669681	-0.645209	-0.099905
H320	H	1.169681	-0.145209	0.400095
O321	O	0.556528	0.189835	0.437463
O322	O	1.056528	0.689835	0.937463
C323	C	0.522140	0.224175	0.479181
C324	C	1.022140	0.724175	0.979181
H325	H	0.545489	0.224696	0.524519
H326	H	1.045489	0.724696	1.024519
H327	H	0.513181	0.269706	0.460809
H328	H	1.013181	0.769706	0.960809
H329	H	0.479945	0.205894	0.485950
H330	H	0.979945	0.705894	0.985950
H331	H	0.246136	-0.071341	0.000108
H332	H	0.746136	0.428659	0.500108
H333	H	0.668382	-0.752974	-0.099906
H334	H	1.168382	-0.252974	0.400094
H335	H	0.668359	-0.752973	0.099974
H336	H	1.168359	-0.252973	0.599974
O337	O	0.595448	0.150903	0.270089
O338	O	1.095448	0.650903	0.770089
C339	C	0.561077	0.185270	0.228382
C340	C	1.061077	0.685270	0.728382
H341	H	0.560579	0.161928	0.183037
H342	H	1.060579	0.661928	0.683037
H343	H	0.515544	0.194180	0.246758
H344	H	1.015544	0.694180	0.746758
H345	H	0.579313	0.227490	0.221625
H346	H	1.079313	0.727490	0.721625
H347	H	0.671615	-0.479729	0.155079
H348	H	1.171615	0.020271	0.655079
H349	H	0.378821	0.170974	0.000040
H350	H	0.878821	0.670974	0.500040
O351	O	-0.028492	-0.030848	0.000057
O352	O	0.471508	0.469152	0.500057
C353	C	-0.061197	-0.077136	0.000078
C354	C	0.438803	0.422864	0.500078
H355	H	-0.105614	-0.062417	-0.019053
H356	H	0.394386	0.437583	0.480947
H357	H	-0.039084	-0.113250	-0.029258
H358	H	0.460916	0.386750	0.470742
H359	H	-0.065340	-0.093173	0.048558
H360	H	0.434660	0.406827	0.548558
O361	O	0.595576	0.150911	0.144718
O362	O	1.095576	0.650911	0.644718
C363	C	0.625863	0.185905	0.107931
C364	C	1.125863	0.685905	0.607931
H365	H	0.670563	0.163000	0.098404
H366	H	1.170563	0.663000	0.598404
H367	H	0.602041	0.195027	0.063203
H368	H	1.102041	0.695027	0.563203
H369	H	0.629477	0.227982	0.132439
H370	H	1.129477	0.727982	0.632439
H371	H	0.404515	-0.017442	0.000058
H372	H	0.904515	0.482558	0.500058
