data_functionalizedCrystal
_audit_creation_method	'MofGen! by Chris Wilmer'
_symmetry_space_group_name_H-M	'P1'
_symmetry_Int_Tables_number	1
_symmetry_cell_setting	triclinic
loop_
_symmetry_equiv_pos_as_xyz
  x,y,z
_cell_length_a	12.759401
_cell_length_b	12.759399
_cell_length_c	8.497365
_cell_angle_alpha	90.047819
_cell_angle_beta	89.968728
_cell_angle_gamma	89.985425
loop_
_atom_site_label
_atom_site_type_symbol
_atom_site_fract_x
_atom_site_fract_y
_atom_site_fract_z
Zn1	Zn	1.606381	0.418029	-0.891943
Zn2	Zn	1.606234	0.593808	-0.628162
Zn3	Zn	1.430644	0.418141	-0.628176
Zn4	Zn	1.430669	0.593664	-0.891900
O5	O	1.518482	0.505910	-0.760045
O6	O	1.753383	0.441360	-0.856964
O7	O	1.582869	0.570612	-0.407401
O8	O	1.454007	0.271105	-0.663189
O9	O	1.753274	0.570504	-0.663166
O10	O	1.583120	0.271023	-0.856978
O11	O	1.453864	0.441550	-0.407412
O12	O	1.283626	0.441410	-0.663147
O13	O	1.454050	0.570259	-1.112668
O14	O	1.283645	0.570367	-0.856904
O15	O	1.583145	0.441221	-1.112700
O16	O	1.582894	0.740810	-0.663124
O17	O	1.453907	0.740704	-0.856891
C18	C	1.245515	0.505886	-0.760023
C19	C	1.128738	0.505901	-0.760051
C20	C	1.073925	0.438782	-0.861119
C21	C	0.964201	0.438802	-0.861129
C22	C	0.964112	0.573068	-0.658999
C23	C	1.073834	0.573042	-0.658983
C24	C	1.128829	0.371641	-0.962188
C25	C	1.074016	0.304518	-1.063264
C26	C	0.964292	0.304538	-1.063274
C27	C	0.909381	0.371681	-0.962207
C28	C	1.518416	0.778878	-0.760035
C29	C	1.518483	0.895654	-0.760084
C30	C	1.585721	0.950537	-0.659305
C31	C	1.585783	1.060261	-0.659363
C32	C	1.451363	1.060211	-0.860982
C33	C	1.451306	0.950489	-0.860931
C34	C	1.652898	0.895702	-0.558458
C35	C	1.720139	0.950585	-0.457670
C36	C	1.720202	1.060309	-0.457728
C37	C	1.653023	1.115150	-0.558574
C38	C	1.792515	0.505936	-0.760068
C39	C	1.909292	0.505947	-0.760078
C40	C	1.518574	1.231877	-0.760111
C41	C	1.518603	1.115100	-0.760193
C42	C	1.518406	0.506025	-0.350165
C43	C	1.518556	0.505809	-0.171522
H44	H	1.118732	0.249846	-1.145540
C45	C	1.134134	0.646876	-0.547813
C46	C	1.209597	0.729378	-0.615953
C47	C	1.269896	0.803210	-0.504774
C48	C	1.254733	0.794541	-0.325457
C49	C	1.179267	0.712036	-0.257308
C50	C	1.118967	0.638204	-0.368486
H51	H	1.220825	0.735798	-0.748703
H52	H	1.325761	0.864286	-0.555224
H53	H	1.299370	0.849196	-0.243156
H54	H	1.168039	0.705616	-0.124557
H55	H	1.063102	0.577128	-0.318036
C56	C	1.377463	1.120534	-0.971894
C57	C	1.258022	1.105550	-0.958860
C58	C	1.184118	1.165873	-1.069769
C59	C	1.229655	1.241180	-1.193712
C60	C	1.349103	1.256168	-1.206751
C61	C	1.423007	1.195845	-1.095842
H62	H	1.224308	1.049800	-0.867105
H63	H	1.095695	1.154777	-1.060115
H64	H	1.174947	1.285835	-1.275813
H65	H	1.382817	1.311918	-1.298506
H66	H	1.511430	1.206941	-1.105496
H67	H	1.218172	0.371617	-0.962190
H68	H	0.919667	0.249876	-1.145564
H69	H	1.652851	0.806360	-0.558395
C70	C	0.903712	0.646929	-0.547845
C71	C	0.828222	0.601355	-0.424121
C72	C	0.767824	0.675221	-0.312969
C73	C	0.782914	0.794660	-0.325541
C74	C	0.858408	0.840240	-0.449270
C75	C	0.918806	0.766375	-0.560422
H76	H	0.817048	0.512933	-0.414809
H77	H	0.711939	0.641479	-0.221377
H78	H	0.738204	0.849340	-0.243260
H79	H	0.869582	0.928662	-0.458582
H80	H	0.974691	0.800117	-0.652015
H81	H	0.820036	0.371670	-0.962190
H82	H	1.774840	0.905927	-0.375574
H83	H	1.774961	1.104991	-0.375673
H84	H	1.653088	1.204495	-0.558625
H85	H	1.396557	0.905803	-0.942996
