data_functionalizedCrystal
_audit_creation_method	'MofGen! by Chris Wilmer'
_symmetry_space_group_name_H-M	'P1'
_symmetry_Int_Tables_number	1
_symmetry_cell_setting	triclinic
loop_
_symmetry_equiv_pos_as_xyz
  x,y,z
_cell_length_a	14.472311
_cell_length_b	14.971486
_cell_length_c	14.971486
_cell_angle_alpha	96.385871
_cell_angle_beta	89.988325
_cell_angle_gamma	89.988828
loop_
_atom_site_label
_atom_site_type_symbol
_atom_site_fract_x
_atom_site_fract_y
_atom_site_fract_z
O1	O	-0.076735	-1.186930	0.116573
O2	O	-0.076760	-0.926530	0.130532
O3	O	-0.076740	-1.063709	-0.006648
O4	O	-0.076755	-1.049750	0.253753
O5	O	0.076942	-1.063727	-0.006673
O6	O	0.076922	-0.926548	0.130507
O7	O	0.076947	-1.186948	0.116548
Cu8	Cu	0.090967	-1.056749	0.123525
Cu9	Cu	-0.090780	-1.056728	0.123555
O10	O	0.076927	-1.049768	0.253728
C11	C	0.000077	-0.893214	0.129895
C12	C	0.000068	-0.793917	0.128024
N13	N	-0.218611	-1.056713	0.123569
C14	C	0.000100	-1.063094	-0.039985
C15	C	0.000099	-1.061223	-0.139282
C16	C	-0.592702	-1.056752	0.123525
C17	C	-0.553547	-0.983428	0.197007
C18	C	-0.446459	-0.983156	0.196830
C19	C	-0.407111	-1.056733	0.123548
C20	C	-0.445962	-1.036493	0.030122
C21	C	-0.553083	-1.035978	0.030540
C22	C	-0.553208	-1.150531	0.142635
C23	C	-0.446080	-1.149897	0.144769
C24	C	-0.302223	-1.056724	0.123555
C25	C	-0.697590	-1.056759	0.123512
N26	N	0.218798	-1.056771	0.123504
C27	C	0.000107	-1.220263	0.117185
C28	C	0.000110	-1.319561	0.119056
C29	C	0.000065	-0.736692	0.208614
C30	C	0.000079	-0.643392	0.206850
C31	C	0.000089	-0.607320	0.124497
C32	C	0.000095	-0.664552	0.043902
C33	C	0.000088	-0.757850	0.045666
C34	C	0.000108	-0.470090	0.040231
C35	C	0.000114	-0.376786	0.038466
C36	C	0.000099	-0.355632	0.201415
C37	C	0.000092	-0.448930	0.203179
C38	C	0.000096	-0.506156	0.122584
C39	C	0.000108	-1.141812	-0.196507
C40	C	0.000098	-1.140049	-0.289807
C41	C	0.000087	-1.057696	-0.325879
C42	C	0.000076	-0.977101	-0.268646
C43	C	0.000078	-0.978865	-0.175349
C44	C	0.000072	-0.973430	-0.463109
C45	C	0.000071	-0.971665	-0.556413
C46	C	0.000092	-1.134614	-0.577567
C47	C	0.000094	-1.136378	-0.484269
C48	C	0.000085	-1.055782	-0.427043
C49	C	0.000084	-1.050384	0.287065
C50	C	0.000079	-1.052254	0.386362
H51	H	-0.420194	-0.995190	0.266266
H52	H	0.000100	-0.309033	0.267039
H53	H	0.000076	-0.904606	-0.585780
H54	H	0.000123	-1.208874	-0.167145
N55	N	0.000125	-0.528534	-0.042103
N56	N	0.000135	-0.496318	-0.115628
H57	H	0.000145	-0.537593	-0.173776
N58	N	-0.585892	-0.998288	0.284394
N59	N	-0.638183	-1.063087	0.293540
H60	H	-0.661033	-1.073583	0.355260
H61	H	0.000062	-0.907800	-0.416517
H62	H	0.000075	-0.596802	0.272474
H63	H	0.000061	-0.910047	-0.298024
H64	H	0.000071	-0.913240	-0.128756
N65	N	0.000125	-0.627708	-0.040221
N66	N	0.064913	-0.578026	-0.059393
H67	H	0.064933	-0.552006	-0.118807
H68	H	0.000110	-1.203437	-0.454903
N69	N	0.000105	-1.216953	-0.636001
N70	N	0.064896	-1.271704	-0.632676
H71	H	0.064910	-1.329855	-0.673946
N72	N	0.000046	-0.773549	0.292729
N73	N	-0.064740	-0.823232	0.311904
H74	H	-0.064751	-0.849262	0.371312
H75	H	-0.420471	-1.088481	-0.025882
N76	N	0.000126	-0.339952	-0.045662
N77	N	0.000139	-0.391053	-0.117614
H78	H	0.000150	-0.365040	-0.177032
H79	H	-0.420842	-0.913558	0.184591
N80	N	-0.587336	-0.896618	0.181862
N81	N	-0.640128	-0.888517	0.117185
H82	H	-0.663994	-0.827208	0.106486
N83	N	-0.584429	-0.950177	0.009495
N84	N	-0.527192	-0.891093	-0.005397
H85	H	-0.549325	-0.830491	-0.020252
H86	H	-0.578982	-1.087359	-0.025799
N87	N	0.000101	-0.816295	-0.036663
N88	N	0.000115	-0.784079	-0.110187
H89	H	0.000130	-0.825354	-0.168335
H90	H	0.000107	-1.205673	-0.336396
H91	H	-0.419134	-0.968887	0.012933
H92	H	-0.580242	-1.170017	0.209317
N93	N	0.000067	-0.485764	0.287307
N94	N	0.000061	-0.434662	0.359260
H95	H	0.000044	-0.460675	0.418678
H96	H	-0.419293	-1.207004	0.094750
N97	N	-0.414246	-1.169149	0.230999
N98	N	-0.363045	-1.114507	0.276702
H99	H	-0.340564	-1.128097	0.337608
H100	H	-0.578531	-1.205095	0.089055
