data_functionalizedCrystal
_audit_creation_method	'MofGen! by Chris Wilmer'
_symmetry_space_group_name_H-M	'P1'
_symmetry_Int_Tables_number	1
_symmetry_cell_setting	triclinic
loop_
_symmetry_equiv_pos_as_xyz
  x,y,z
_cell_length_a	17.699083
_cell_length_b	19.188924
_cell_length_c	16.776229
_cell_angle_alpha	89.991276
_cell_angle_beta	89.998886
_cell_angle_gamma	83.212490
loop_
_atom_site_label
_atom_site_type_symbol
_atom_site_fract_x
_atom_site_fract_y
_atom_site_fract_z
O1	O	1.003960	0.088295	-0.066180
O2	O	0.783566	0.099782	-0.066207
O3	O	0.900126	-0.007611	-0.066183
O4	O	0.887400	0.195687	-0.066204
O5	O	0.900110	-0.007617	0.066393
O6	O	0.783551	0.099775	0.066370
O7	O	1.003944	0.088288	0.066396
Zn8	Zn	0.893745	0.094031	0.087432
Zn9	Zn	0.893765	0.094039	-0.087243
O10	O	0.887385	0.195681	0.066373
C11	C	0.755362	0.099367	0.000078
C12	C	0.671345	0.098132	0.000068
C13	C	0.899707	-0.033625	0.000106
C14	C	0.898472	-0.111132	0.000108
C15	C	0.622640	0.161169	0.000062
C16	C	0.543698	0.160005	0.000073
C17	C	0.513464	0.095803	0.000084
C18	C	0.562175	0.032761	0.000092
C19	C	0.641116	0.033926	0.000087
C20	C	0.243819	0.028060	0.000112
C21	C	0.164872	0.026900	0.000115
C22	C	0.146401	0.154139	0.000098
C23	C	0.225341	0.155305	0.000093
C24	C	0.274046	0.092263	0.000106
C25	C	0.359644	0.093526	0.000096
C26	C	0.427868	0.094538	0.000088
C27	C	0.897905	-0.147528	-0.072160
C28	C	0.896734	-0.220352	-0.072166
C29	C	0.896146	-0.256779	0.000099
C30	C	0.896710	-0.220373	0.072377
C31	C	0.897873	-0.147550	0.072381
N32	N	0.937385	-0.376398	0.053890
N33	N	0.936281	-0.445578	0.053881
C34	C	0.892641	-0.476192	0.000091
N35	N	0.850154	-0.435014	-0.053702
N36	N	0.851261	-0.365828	-0.053695
C37	C	0.894885	-0.335744	0.000103
C38	C	0.890802	-0.591552	-0.072188
C39	C	0.889627	-0.664376	-0.072191
C40	C	0.889611	-0.664398	0.072354
C41	C	0.890778	-0.591574	0.072355
C42	C	0.891378	-0.555155	0.000082
C43	C	1.032149	0.088703	0.000110
C44	C	1.116165	0.089938	0.000114
C45	C	0.887804	0.221695	0.000082
C46	C	0.889038	0.299202	0.000075
N47	N	0.893737	0.094024	0.206644
N48	N	0.893780	0.094040	-0.206454
C49	C	0.945365	0.046490	0.248371
C50	C	0.945369	0.046490	0.331823
C51	C	0.893748	0.094027	0.373547
C52	C	0.842114	0.141563	0.331813
C53	C	0.842107	0.141560	0.248363
C54	C	0.842142	0.141577	0.668360
C55	C	0.842154	0.141578	0.751817
C56	C	0.945404	0.046507	0.751821
C57	C	0.945397	0.046503	0.668371
C58	C	0.893761	0.094037	0.626645
C59	C	0.893756	0.094036	0.536156
C60	C	0.893756	0.094032	0.464033
H61	H	0.647250	0.213450	0.000053
O62	O	0.496493	0.221304	0.000030
C63	C	0.540107	0.278220	0.000035
H64	H	0.599084	0.260398	-0.025068
H65	H	0.545668	0.297904	0.063635
C66	C	0.428130	0.359763	-0.021129
C67	C	0.500565	0.337876	-0.051968
H68	H	0.403738	0.396564	-0.053204
H69	H	0.398746	0.321419	-0.021129
H70	H	0.432774	0.376163	0.031870
H71	H	0.495919	0.321469	-0.104962
H72	H	0.529947	0.376219	-0.051978
H73	H	0.891247	-0.561940	0.131203
O74	O	0.099164	0.215426	0.000199
C75	C	0.112827	0.254408	0.068863
H76	H	0.172770	0.237161	0.091753
H77	H	0.069680	0.244936	0.116948
C78	C	0.031439	0.354265	0.019876
C79	C	0.105064	0.333086	0.047986
H80	H	0.026647	0.402797	0.007000
H81	H	0.022231	0.328002	-0.026383
H82	H	-0.004508	0.346366	0.059952
H83	H	0.141009	0.340977	0.007907
H84	H	0.114278	0.359352	0.094238
O85	O	0.135628	-0.035531	0.000165
C86	C	0.195542	-0.090924	0.000157
H87	H	0.249107	-0.071446	0.025252
H88	H	0.206778	-0.110366	-0.063442
C89	C	0.107666	-0.175406	0.021341
C90	C	0.173454	-0.151484	0.052169
H91	H	0.094040	-0.212764	0.053421
H92	H	0.067299	-0.138087	0.021343
H93	H	0.117037	-0.191602	-0.031658
H94	H	0.164079	-0.135281	0.105163
H95	H	0.213818	-0.188802	0.052177
H96	H	0.800065	0.180266	0.214389
H97	H	0.283465	-0.023272	0.000123
H98	H	0.800099	0.180281	0.634394
H99	H	0.800116	0.180290	0.785787
O100	O	0.532682	-0.029545	0.000069
C101	C	0.452563	-0.017058	0.000089
H102	H	0.433841	0.037460	-0.025017
H103	H	0.430600	-0.020407	0.063694
C104	C	0.442998	-0.139501	-0.021058
C105	C	0.420004	-0.072543	-0.051900
H106	H	0.422913	-0.173728	-0.053124
H107	H	0.496976	-0.147915	-0.021069
H108	H	0.424694	-0.142282	0.031946
H109	H	0.438316	-0.069760	-0.104899
H110	H	0.366028	-0.064130	-0.051899
H111	H	0.249953	0.207585	0.000081
O112	O	0.898533	-0.112090	-0.142319
C113	C	0.964687	-0.077910	-0.146678
H114	H	1.010214	-0.105474	-0.105755
H115	H	0.950723	-0.020932	-0.127181
C116	C	0.938396	-0.046452	-0.283323
C117	C	0.994315	-0.080310	-0.233065
H118	H	0.956670	-0.047929	-0.336611
H119	H	0.893825	-0.069477	-0.280386
H120	H	0.926764	0.001027	-0.267065
H121	H	1.005938	-0.127789	-0.249317
H122	H	1.038888	-0.057293	-0.236007
O123	O	0.688323	-0.027373	0.000053
C124	C	0.644712	-0.084290	0.000082
H125	H	0.585731	-0.066469	-0.025017
H126	H	0.639160	-0.103980	0.063688
C127	C	0.756689	-0.165830	-0.021079
C128	C	0.684250	-0.143942	-0.051911
H129	H	0.781078	-0.202627	-0.053147
H130	H	0.786071	-0.127484	-0.021095
H131	H	0.752052	-0.182233	0.031926
H132	H	0.688888	-0.127532	-0.104911
H133	H	0.654869	-0.182287	-0.051905
H134	H	0.800080	0.180267	0.365789
O135	O	0.896192	-0.255610	-0.142442
C136	C	0.896932	-0.207845	-0.206229
H137	H	0.921738	-0.158877	-0.185051
H138	H	0.836346	-0.192653	-0.228433
C139	C	0.915608	-0.302485	-0.300534
C140	C	0.946081	-0.242343	-0.274524
H141	H	0.945922	-0.323765	-0.342664
H142	H	0.915106	-0.334665	-0.257560
H143	H	0.865120	-0.289816	-0.319032
H144	H	0.996564	-0.255013	-0.256018
H145	H	0.946592	-0.210165	-0.317497
O146	O	0.896036	-0.255818	0.142526
C147	C	0.829819	-0.289909	0.146846
H148	H	0.807807	-0.298137	0.084094
H149	H	0.784370	-0.256232	0.182502
C150	C	0.875650	-0.351420	0.265239
C151	C	0.848619	-0.361531	0.188165
H152	H	0.887245	-0.395599	0.290730
H153	H	0.920261	-0.328451	0.262331
H154	H	0.837772	-0.323354	0.294942
H155	H	0.886500	-0.389589	0.158461
H156	H	0.804015	-0.384507	0.191070
H157	H	0.898332	-0.117916	0.131232
H158	H	0.891286	-0.561898	-0.131037
H159	H	0.889161	-0.694008	-0.131043
O160	O	0.888900	-0.699720	0.142578
C161	C	0.823652	-0.673887	0.186536
H162	H	0.778177	-0.648259	0.144237
H163	H	0.839139	-0.633431	0.231595
C164	C	0.848742	-0.766416	0.282775
C165	C	0.792886	-0.734944	0.230822
H166	H	0.829766	-0.804077	0.310096
H167	H	0.892703	-0.783819	0.253162
H168	H	0.861643	-0.732696	0.320317
H169	H	0.779994	-0.768662	0.193275
H170	H	0.748923	-0.717549	0.260429
H171	H	0.987404	0.007783	0.214406
O172	O	0.995603	0.000297	0.372234
C173	C	1.041157	-0.041666	0.317513
H174	H	1.041899	-0.013043	0.258019
H175	H	1.016773	-0.093513	0.308656
C176	C	1.121946	-0.091287	0.423143
C177	C	1.122862	-0.056129	0.350072
H178	H	1.172344	-0.100211	0.443227
H179	H	1.091254	-0.063018	0.460010
H180	H	1.101622	-0.134489	0.415752
H181	H	1.143176	-0.012924	0.357466
H182	H	1.153559	-0.084391	0.313207
O183	O	0.995661	0.000392	0.792318
C184	C	1.070540	0.011643	0.771900
H185	H	1.070719	0.067546	0.748954
H186	H	1.092894	-0.027079	0.723461
C187	C	1.121674	-0.067932	0.874208
C188	C	1.121895	0.000730	0.846032
H189	H	1.153354	-0.074667	0.919935
H190	H	1.071228	-0.075515	0.887962
H191	H	1.140301	-0.100193	0.833835
H192	H	1.103260	0.032989	0.886401
H193	H	1.172341	0.008318	0.832286
H194	H	0.987434	0.007797	0.634402
