data_functionalizedCrystal
_audit_creation_method	'MofGen! by Chris Wilmer'
_symmetry_space_group_name_H-M	'P1'
_symmetry_Int_Tables_number	1
_symmetry_cell_setting	triclinic
loop_
_symmetry_equiv_pos_as_xyz
  x,y,z
_cell_length_a	15.944499
_cell_length_b	23.532361
_cell_length_c	14.421503
_cell_angle_alpha	89.996704
_cell_angle_beta	90.007537
_cell_angle_gamma	83.153639
loop_
_atom_site_label
_atom_site_type_symbol
_atom_site_fract_x
_atom_site_fract_y
_atom_site_fract_z
O1	O	0.101769	0.755662	-0.077013
O2	O	0.116564	0.589850	-0.077034
O3	O	-0.013151	0.677299	-0.077024
O4	O	0.231484	0.668213	-0.077022
O5	O	-0.013131	0.677285	0.077199
O6	O	0.116583	0.589835	0.077190
O7	O	0.101788	0.755647	0.077211
Cu8	Cu	0.109187	0.672740	0.091282
Cu9	Cu	0.109165	0.672757	-0.091105
O10	O	0.231503	0.668198	0.077201
C11	C	0.116203	0.568625	0.000075
C12	C	0.115089	0.505402	0.000067
C13	C	-0.044433	0.676920	0.000085
C14	C	-0.137671	0.675805	0.000078
C15	C	0.110206	0.232148	-0.083995
C16	C	0.111261	0.291552	-0.083997
O17	O	0.111768	0.322286	-0.155492
N18	N	0.111804	0.321252	0.000070
C19	C	0.111284	0.291545	0.084146
O20	O	0.111842	0.322262	0.155651
C21	C	0.110223	0.232143	0.084147
C22	C	0.109689	0.202446	0.000074
C23	C	0.109671	0.202451	-0.168061
C24	C	0.108618	0.143051	-0.168059
C25	C	0.108101	0.113349	-0.083990
C26	C	0.108636	0.143046	0.000076
C27	C	0.109698	0.202439	0.168221
C28	C	0.108636	0.143032	0.168215
C29	C	0.108102	0.113335	0.084142
C30	C	0.107066	0.053944	0.084148
N31	N	0.106523	0.024244	0.000080
C32	C	0.107040	0.053946	-0.083988
C33	C	0.113510	0.416294	0.084136
C34	C	0.114576	0.475694	0.084136
C35	C	0.114551	0.475697	-0.084007
C36	C	0.113491	0.416295	-0.084006
C37	C	0.112966	0.386594	0.000069
C38	C	0.104830	-0.070797	-0.083977
C39	C	0.103780	-0.130203	-0.083967
C40	C	0.103801	-0.130200	0.084176
C41	C	0.104855	-0.070800	0.084167
C42	C	0.105366	-0.041100	0.000083
O43	O	0.106555	0.023172	0.155606
O44	O	0.106471	0.023224	-0.155482
C45	C	-0.429648	0.726610	0.000090
C46	C	-0.368384	0.700193	0.076130
C47	C	-0.473273	0.671753	0.000088
C48	C	-0.368409	0.700193	-0.075922
C49	C	-0.308381	0.673746	0.000082
C50	C	-0.413237	0.645320	0.076191
C51	C	-0.413268	0.645327	-0.075929
C52	C	-0.352022	0.618870	0.000129
C53	C	-0.568263	0.670606	0.000093
C54	C	-0.213392	0.674889	0.000084
C55	C	0.262785	0.668577	0.000090
C56	C	0.356023	0.669693	0.000091
C57	C	0.102149	0.776872	0.000100
C58	C	0.103263	0.840095	0.000102
N59	N	0.109203	0.672732	0.219563
N60	N	0.109142	0.672770	-0.219386
C61	C	0.169156	0.632288	0.469213
C62	C	0.185018	0.683748	0.531022
C63	C	0.109183	0.672746	0.408725
C64	C	0.093341	0.621299	0.531009
C65	C	0.109165	0.672755	0.591446
C66	C	0.125082	0.724232	0.469174
C67	C	0.033372	0.661749	0.469155
C68	C	0.049201	0.713246	0.530937
C69	C	0.109195	0.672740	0.303464
C70	C	0.109152	0.672766	0.696705
H71	H	0.103348	-0.154380	-0.152432
N72	N	-0.471966	0.783719	0.000204
N73	N	-0.521111	0.800161	0.064910
H74	H	-0.550999	0.840492	0.064996
H75	H	-0.433188	0.622150	-0.140223
N76	N	-0.343431	0.729297	0.156780
N77	N	-0.371667	0.780481	0.170335
H78	H	-0.354048	0.801040	0.227293
N79	N	-0.047023	0.650064	0.435029
N80	N	-0.112261	0.682378	0.455911
H81	H	-0.169041	0.674121	0.431808
N82	N	0.265422	0.695432	0.565140
N83	N	0.270638	0.738442	0.614709
H84	H	0.327424	0.746691	0.638805
N85	N	-0.438047	0.616227	0.156916
N86	N	-0.514143	0.610676	0.169962
H87	H	-0.531668	0.590130	0.226973
H88	H	0.105307	-0.046621	0.152626
H89	H	-0.348538	0.723411	-0.140202
H90	H	0.103383	-0.154394	0.152623
H91	H	-0.318444	0.573304	0.000168
N92	N	0.232835	0.589413	0.435221
N93	N	0.308668	0.591713	0.455079
H94	H	0.353643	0.561434	0.431073
N95	N	0.115076	0.506038	-0.169890
N96	N	0.174163	0.494156	-0.226191
H97	H	0.174534	0.515586	-0.286842
H98	H	0.138550	0.767752	0.442126
H99	H	-0.001527	0.747501	0.557868
N100	N	0.076542	0.566720	0.565104
N101	N	0.129299	0.538044	0.615823
H102	H	0.117441	0.499496	0.639904
N103	N	0.105348	-0.040474	-0.169873
N104	N	0.104869	-0.067006	-0.244919
H105	H	0.105238	-0.045591	-0.305585
H106	H	0.110089	0.226628	-0.236524
N107	N	0.108073	0.112729	-0.253946
N108	N	0.108535	0.139266	-0.328995
H109	H	0.108149	0.117855	-0.389659
N110	N	0.112945	0.385971	-0.169892
N111	N	0.113412	0.412505	-0.244943
H112	H	0.113025	0.391092	-0.305604
N113	N	0.115151	0.506024	0.170014
N114	N	0.174262	0.494126	0.226299
H115	H	0.174666	0.515545	0.286953
N116	N	0.112979	0.385966	0.170031
N117	N	0.113463	0.412496	0.245079
H118	H	0.113087	0.391081	0.305743
N119	N	0.110242	0.232770	0.254096
N120	N	0.170044	0.260658	0.272880
H121	H	0.170426	0.282079	0.333535
H122	H	0.108217	0.118853	0.236681
