data_functionalizedCrystal
_audit_creation_method	'MofGen! by Chris Wilmer'
_symmetry_space_group_name_H-M	'P1'
_symmetry_Int_Tables_number	1
_symmetry_cell_setting	triclinic
loop_
_symmetry_equiv_pos_as_xyz
  x,y,z
_cell_length_a	16.992694
_cell_length_b	8.965430
_cell_length_c	16.992695
_cell_angle_alpha	89.998341
_cell_angle_beta	89.331777
_cell_angle_gamma	89.999967
loop_
_atom_site_label
_atom_site_type_symbol
_atom_site_fract_x
_atom_site_fract_y
_atom_site_fract_z
O1	O	1.050852	-0.123854	-0.166909
O2	O	0.822452	-0.123898	-0.165078
O3	O	0.935736	-0.123864	-0.051793
O4	O	0.937567	-0.123887	-0.280193
O5	O	0.935723	0.124215	-0.051804
O6	O	0.822439	0.124181	-0.165089
O7	O	1.050839	0.124225	-0.166920
Cu8	Cu	0.936637	0.146855	-0.166005
Cu9	Cu	0.936653	-0.146527	-0.165992
O10	O	0.937554	0.124191	-0.280204
C11	C	0.793085	0.000136	-0.162727
C12	C	0.705600	0.000120	-0.155699
C13	C	0.659610	0.000114	-0.223517
C14	C	0.577409	0.000135	-0.216908
C15	C	0.541201	0.000152	-0.142480
C16	C	0.587198	0.000162	-0.074657
C17	C	0.669397	0.000151	-0.081267
C18	C	0.295886	0.000194	-0.115086
C19	C	0.213681	0.000200	-0.108481
C20	C	0.203898	0.000177	-0.250732
C21	C	0.286099	0.000157	-0.257336
C22	C	0.332089	0.000175	-0.189512
N23	N	0.457178	0.000169	-0.135723
N24	N	0.416110	0.000169	-0.196270
N25	N	0.936632	0.353204	-0.166014
C26	C	0.884222	0.450494	-0.218386
C27	C	0.956312	0.549920	-0.238120
C28	C	0.864568	0.549906	-0.146293
C29	C	1.008760	0.450441	-0.185785
C30	C	0.916967	0.450417	-0.093925
C31	C	0.989107	0.549798	-0.113631
C32	C	1.080205	0.000188	-0.169270
C33	C	1.167690	0.000195	-0.176299
N34	N	0.936650	0.647124	-0.165991
C35	C	0.933374	0.000175	-0.022439
C36	C	0.926345	0.000173	0.065046
C37	C	0.939917	0.000149	-0.309559
C38	C	0.946945	0.000141	-0.397044
C39	C	0.994163	0.000188	0.111037
C40	C	0.987554	0.000172	0.193238
C41	C	0.913127	0.000153	0.229446
C42	C	0.845303	0.000134	0.183449
C43	C	0.851913	0.000138	0.101250
C44	C	0.885732	0.000127	0.474760
C45	C	0.879127	0.000127	0.556966
C46	C	1.021379	0.000162	0.566749
C47	C	1.027982	0.000176	0.484547
C48	C	0.960159	0.000149	0.438558
N49	N	0.906369	0.000142	0.313468
N50	N	0.966917	0.000150	0.354537
H51	H	0.689084	0.000100	-0.284124
H52	H	0.839948	0.406892	-0.262720
F53	F	1.107198	0.000159	0.446018
F54	F	0.978070	0.607048	-0.317791
H55	H	0.166444	0.000165	-0.305950
H56	H	0.184203	0.000212	-0.047870
H57	H	1.069728	0.406933	-0.202528
H58	H	0.315574	0.000126	-0.317942
H59	H	0.706842	0.000155	-0.026042
F60	F	0.548660	0.000189	0.004555
H61	H	1.033487	0.593127	-0.069332
F62	F	0.784902	0.607016	-0.124503
F63	F	0.813548	0.000095	0.425825
H64	H	0.333322	0.000210	-0.059859
H65	H	0.900301	0.406677	-0.032987
H66	H	1.054770	0.000212	0.081563
F67	F	1.059736	0.000190	0.242181
H68	H	1.076596	0.000181	0.604202
H69	H	0.818516	0.000135	0.586443
F70	F	0.766091	0.000096	0.221987
H71	H	0.539966	0.000129	-0.272133
F72	F	0.779732	0.000118	0.052303
