data_functionalizedCrystal
_audit_creation_method	'MofGen! by Chris Wilmer'
_symmetry_space_group_name_H-M	'P1'
_symmetry_Int_Tables_number	1
_symmetry_cell_setting	triclinic
loop_
_symmetry_equiv_pos_as_xyz
  x,y,z
_cell_length_a	13.897449
_cell_length_b	13.897447
_cell_length_c	18.215398
_cell_angle_alpha	90.019732
_cell_angle_beta	89.981836
_cell_angle_gamma	89.977525
loop_
_atom_site_label
_atom_site_type_symbol
_atom_site_fract_x
_atom_site_fract_y
_atom_site_fract_z
Zn1	Zn	1.474655	0.384016	-0.416119
Zn2	Zn	1.474546	0.545318	-0.293065
Zn3	Zn	1.313351	0.384043	-0.293070
Zn4	Zn	1.313316	0.545274	-0.416093
O5	O	1.393967	0.464663	-0.354587
O6	O	1.609622	0.405420	-0.399805
O7	O	1.453133	0.523955	-0.190082
O8	O	1.334809	0.249058	-0.309405
O9	O	1.609542	0.523929	-0.309398
O10	O	1.453318	0.249038	-0.399809
O11	O	1.334703	0.405466	-0.190085
O12	O	1.178365	0.405423	-0.309380
O13	O	1.334748	0.523853	-0.519081
O14	O	1.178339	0.523879	-0.399764
O15	O	1.453283	0.405377	-0.519100
O16	O	1.453098	0.680294	-0.309372
O17	O	1.334643	0.680262	-0.399760
C18	C	1.143353	0.464650	-0.354570
C19	C	1.036139	0.464668	-0.354580
C20	C	1.393881	0.715277	-0.354579
C21	C	1.393933	0.822491	-0.354600
C22	C	0.839843	0.464671	-0.354600
C23	C	0.949076	0.464666	-0.354587
C24	C	1.393977	0.909561	-0.354620
C25	C	1.394041	1.018793	-0.354643
C26	C	1.645560	0.464676	-0.354604
C27	C	1.752774	0.464682	-0.354612
C28	C	1.394024	0.464607	-0.546540
C29	C	1.394048	0.464584	-0.628339
C30	C	1.394072	1.213070	-0.354620
C31	C	1.394098	1.105856	-0.354658
C32	C	1.455758	0.526162	-0.893399
C33	C	1.455744	0.526195	-0.816541
C34	C	1.332411	0.402820	-0.816527
C35	C	1.332422	0.402792	-0.893384
C36	C	1.394101	0.464461	-0.931819
C37	C	1.394076	0.464523	-0.778102
C38	C	1.394059	0.464559	-0.694769
C39	C	1.394116	0.464427	-1.015158
C40	C	1.393965	0.464648	-0.163381
C41	C	1.394128	0.464400	-0.081582
H42	H	1.505952	0.576438	-0.785263
H43	H	1.505981	0.576378	-0.924690
O44	O	1.272596	0.342941	-0.779077
C45	C	1.285792	0.356210	-0.703002
H46	H	1.360218	0.387805	-0.692515
H47	H	1.228554	0.407583	-0.681177
C48	C	1.185576	0.219819	-0.676427
C49	C	1.276991	0.258618	-0.663547
H50	H	1.180144	0.159621	-0.652088
H51	H	1.176683	0.210882	-0.727680
H52	H	1.137888	0.262639	-0.658240
H53	H	1.324677	0.215803	-0.681742
H54	H	1.285893	0.267546	-0.612296
H55	H	1.282208	0.352547	-0.924666
