data_functionalizedCrystal
_audit_creation_method	'MofGen! by Chris Wilmer'
_symmetry_space_group_name_H-M	'P1'
_symmetry_Int_Tables_number	1
_symmetry_cell_setting	triclinic
loop_
_symmetry_equiv_pos_as_xyz
  x,y,z
_cell_length_a	31.640172
_cell_length_b	14.560438
_cell_length_c	31.640172
_cell_angle_alpha	60.003410
_cell_angle_beta	89.999175
_cell_angle_gamma	59.995003
loop_
_atom_site_label
_atom_site_type_symbol
_atom_site_fract_x
_atom_site_fract_y
_atom_site_fract_z
Zr1	Zr	0.407180	1.005208	-0.055507
O2	O	0.339691	1.196812	-0.122991
O3	O	0.427868	0.813601	-0.034815
O4	O	0.427868	1.005185	-0.122989
O5	O	0.339692	1.005247	0.034731
O6	O	0.497424	1.005169	-0.122992
O7	O	0.339691	1.005228	-0.034818
O8	O	0.497425	0.662460	0.034735
O9	O	0.339691	1.347956	-0.122995
O10	O	0.488601	0.892401	-0.025998
O11	O	0.436693	0.892426	0.025908
O12	O	0.436693	1.117992	-0.077905
O13	O	0.384784	1.118018	-0.026000
Zr14	Zr	0.518116	1.005213	0.055410
Zr15	Zr	0.518114	1.005183	-0.055511
Zr16	Zr	0.407181	1.005238	0.055415
Zr17	Zr	0.407181	1.246265	-0.055514
Zr18	Zr	0.518115	0.764156	0.055417
O19	O	0.497427	1.196820	0.034719
O20	O	0.497425	1.196777	-0.122997
O21	O	0.339693	1.196856	0.034725
O22	O	0.585605	0.813609	0.122894
O23	O	0.585603	0.813565	-0.034822
O24	O	0.427871	0.813644	0.122901
O25	O	0.585603	1.005173	-0.034827
O26	O	0.497428	1.005236	0.122892
O27	O	0.427871	1.005252	0.122895
O28	O	0.585604	1.005193	0.034721
O29	O	0.427869	1.347937	-0.122999
O30	O	0.497426	0.662484	0.122902
O31	O	0.585604	0.662465	0.122899
O32	O	0.585603	0.662441	0.034731
O33	O	0.339692	1.347980	-0.034828
O34	O	0.427870	1.347961	-0.034831
O35	O	0.488603	0.892429	0.077809
O36	O	0.540511	0.892403	0.025903
O37	O	0.488602	1.117995	-0.026004
O38	O	0.436694	1.118020	0.025901
C39	C	0.462647	0.703685	-0.000039
C40	C	0.462646	0.601350	-0.000036
C41	C	0.424326	0.636562	-0.038358
C42	C	0.424328	0.540422	-0.038371
C43	C	0.500974	0.373859	0.038263
C44	C	0.500973	0.469998	0.038274
C45	C	0.323886	1.005241	-0.000043
C46	C	0.276792	1.005252	-0.000041
C47	C	-0.015214	1.005177	-0.038362
C48	C	-0.192201	1.005160	-0.038366
O49	O	-0.215074	1.005094	-0.070938
N50	N	-0.214331	1.005173	-0.000052
C51	C	-0.192210	1.005182	0.038268
O52	O	-0.215091	1.005179	0.070860
C53	C	-0.015222	1.005189	0.038274
C54	C	0.006903	1.005189	-0.000046
C55	C	0.006911	1.005175	-0.076678
C56	C	0.051153	1.005186	-0.076679
C57	C	0.073270	1.005199	-0.038363
C58	C	0.051145	1.005200	-0.000046
C59	C	0.006900	1.005188	0.076595
C60	C	0.051151	1.005187	0.076594
C61	C	0.073276	1.005187	0.038274
C62	C	0.117505	1.005224	0.038269
N63	N	0.139635	1.005211	-0.000045
C64	C	0.117518	1.005198	-0.038361
C65	C	-0.285132	1.005181	0.038262
C66	C	-0.329379	1.005182	0.038260
C67	C	-0.329366	1.005157	-0.038373
C68	C	-0.285120	1.005166	-0.038373
C69	C	-0.263002	1.005168	-0.000052
C70	C	0.210429	1.005223	-0.038359
C71	C	0.254674	1.005239	-0.038357
C72	C	0.254660	1.005257	0.038278
C73	C	0.210417	1.005247	0.038275
C74	C	0.188304	1.005226	-0.000046
O75	O	0.140408	1.005276	0.070828
O76	O	0.140413	1.005172	-0.070941
C77	C	-0.059457	1.005165	-0.038362
C78	C	-0.081582	1.005167	-0.000045
C79	C	-0.059465	1.005179	0.038271
C80	C	-0.125829	1.005167	-0.000047
C81	C	-0.147946	1.005155	-0.038363
C82	C	-0.125816	1.005142	-0.076677
C83	C	-0.081574	1.005153	-0.076678
C84	C	-0.081595	1.005193	0.076585
C85	C	-0.125838	1.005183	0.076582
C86	C	-0.147955	1.005170	0.038266
C87	C	0.601409	1.005179	-0.000054
C88	C	0.648504	1.005169	-0.000056
C89	C	0.462646	1.005172	-0.138794
C90	C	0.462645	1.005160	-0.185883
C91	C	0.462649	1.306736	-0.000057
C92	C	0.462649	1.409071	-0.000060
C93	C	0.435557	1.122979	-0.505014
C94	C	0.435557	1.123002	-0.682009
O95	O	0.412532	1.223150	-0.727939
N96	N	0.462652	1.005246	-0.677044
C97	C	0.489752	0.887477	-0.627825
O98	O	0.512802	0.787319	-0.627663
C99	C	0.489754	0.887455	-0.450831
C100	C	0.462653	1.005219	-0.455800
C101	C	0.408458	1.240733	-0.509981
C102	C	0.408456	1.240726	-0.465734
C103	C	0.435552	1.122965	-0.416521
C104	C	0.462651	1.005212	-0.411554
C105	C	0.516856	0.769687	-0.401613
C106	C	0.516855	0.769693	-0.357364
C107	C	0.489754	0.887456	-0.362334
C108	C	0.489744	0.887445	-0.318094
N109	N	0.462650	1.005200	-0.323059
C110	C	0.435553	1.122960	-0.372272
C111	C	0.489748	0.887496	-0.720752
C112	C	0.489747	0.887501	-0.765000
C113	C	0.435553	1.123026	-0.819181
C114	C	0.435551	1.123020	-0.774931
C115	C	0.462653	1.005251	-0.725717
C116	C	0.435550	1.122937	-0.279349
C117	C	0.435549	1.122920	-0.235097
C118	C	0.489745	0.887395	-0.180920
C119	C	0.489744	0.887412	-0.225169
C120	C	0.462646	1.005193	-0.274385
O121	O	0.512763	0.787349	-0.272149
O122	O	0.412516	1.223103	-0.372423
C123	C	0.435559	1.122986	-0.549260
C124	C	0.462657	1.005232	-0.544293
C125	C	0.489753	0.887472	-0.495080
C126	C	0.462656	1.005237	-0.588541
C127	C	0.435560	1.122998	-0.637755
C128	C	0.408465	1.240753	-0.642720
C129	C	0.408463	1.240746	-0.598474
C130	C	0.516848	0.769716	-0.490114
C131	C	0.516848	0.769733	-0.534363
C132	C	0.489751	0.887493	-0.583577
C133	C	0.462650	1.005248	0.138698
C134	C	0.462650	1.005261	0.185787
C135	C	0.601408	0.703654	-0.000045
C136	C	0.648503	0.601308	-0.000044
C137	C	0.462649	0.703723	0.138706
C138	C	0.462649	0.601401	0.185799
C139	C	0.601410	0.703692	0.138701
C140	C	0.648505	0.601359	0.185791
C141	C	0.323885	1.306729	-0.138797
C142	C	0.276790	1.409062	-0.185888
C143	C	0.323887	1.306767	-0.000052
C144	C	0.276793	1.409112	-0.000053
C145	C	0.462647	1.306698	-0.138803
C146	C	0.462646	1.409020	-0.185895
C147	C	0.643522	0.553245	-0.027140
C148	C	0.687768	0.457093	-0.027149
C149	C	0.736993	0.409001	-0.000059
C150	C	0.741973	0.457075	0.027038
C151	C	0.697728	0.553231	0.027044
C152	C	0.489745	0.553351	0.235010
C153	C	0.489744	0.457222	0.279262
C154	C	0.462648	0.409138	0.274302
C155	C	0.435549	0.457198	0.225085
C156	C	0.435547	0.553331	0.180834
C157	C	0.697722	0.553289	0.180811
C158	C	0.741976	0.457150	0.225053
C159	C	0.737014	0.409077	0.274275
C160	C	0.687792	0.457156	0.279253
C161	C	0.643538	0.553300	0.235012
C162	C	0.227574	1.457143	-0.180908
C163	C	0.183319	1.553312	-0.225150
C164	C	0.188282	1.601391	-0.274371
C165	C	0.237504	1.553305	-0.279350
C166	C	0.281757	1.457145	-0.235109
C167	C	0.281773	1.457186	0.027038
C168	C	0.237528	1.553364	0.027036
C169	C	0.188302	1.601460	-0.000056
C170	C	0.183323	1.553382	-0.027151
C171	C	0.227568	1.457212	-0.027150
C172	C	0.489747	1.457073	-0.180918
C173	C	0.489757	1.553203	-0.225162
C174	C	0.462663	1.601284	-0.274382
C175	C	0.435561	1.553222	-0.279358
C176	C	0.435555	1.457087	-0.235115
H177	H	0.393115	0.743511	-0.069550
H178	H	0.413502	1.592384	-0.319439
H179	H	0.701790	0.592352	0.049111
H180	H	0.701772	0.592417	0.140737
H181	H	0.069166	1.005181	-0.107880
H182	H	-0.267126	1.005183	0.069469
H183	H	0.773052	0.330790	0.310295
H184	H	0.393124	0.569104	-0.069577
H185	H	0.462653	0.330860	0.310338
H186	H	0.538915	0.673829	-0.530309
H187	H	0.192398	1.005266	0.069474
H188	H	0.223505	1.418073	-0.049210
H189	H	0.782051	0.418014	0.220990
H190	H	0.773016	0.330704	-0.000068
H191	H	0.413483	1.218913	-0.778983
H192	H	0.413488	0.418034	0.221054
H193	H	0.413484	0.592441	0.140766
H194	H	0.603444	0.592400	-0.049206
H195	H	0.511810	0.592490	0.239059
H196	H	0.532181	0.441316	0.069481
H197	H	0.143245	1.592447	-0.221086
H198	H	0.152243	1.679691	-0.310391
H199	H	0.386399	1.336638	-0.682798
H200	H	0.683759	0.418000	0.319335
H201	H	0.241538	1.592464	-0.319431
H202	H	0.603466	0.592426	0.239074
H203	H	0.321830	1.417997	-0.239170
H204	H	0.321851	1.418034	0.049103
H205	H	0.223523	1.418003	-0.140833
H206	H	0.272686	1.005243	-0.069563
H207	H	0.462672	1.679564	-0.310404
H208	H	0.532177	0.266904	0.069454
H209	H	0.192431	1.005203	-0.069563
H210	H	0.241592	1.592493	0.049101
H211	H	0.152279	1.679767	-0.000052
H212	H	-0.011092	1.005160	-0.107880
H213	H	0.782058	0.417904	0.049093
H214	H	0.143237	1.592556	-0.049208
H215	H	0.511805	0.791520	-0.221121
H216	H	0.511811	1.417940	-0.140845
H217	H	-0.063563	1.005152	-0.107881
H218	H	0.511826	1.592325	-0.221101
H219	H	-0.267109	1.005165	-0.069576
H220	H	-0.347382	1.005150	-0.069573
H221	H	-0.347395	1.005202	0.069459
H222	H	0.386393	1.336633	-0.550050
H223	H	0.511814	0.418103	0.319332
H224	H	0.413484	1.417973	-0.239174
H225	H	0.413485	1.218846	-0.319419
H226	H	-0.011107	1.005187	0.107799
H227	H	0.386390	1.336621	-0.469787
H228	H	0.069159	1.005184	0.107801
H229	H	0.272673	1.005273	0.069473
H230	H	-0.143833	1.005138	-0.107878
H231	H	-0.143851	1.005193	0.107786
H232	H	0.413478	1.218821	-0.239149
H233	H	0.413488	1.218912	-0.859259
H234	H	0.511808	0.791606	-0.760948
H235	H	-0.063590	1.005200	0.107787
H236	H	0.511818	0.791589	-0.680681
H237	H	0.683703	0.417964	-0.049214
H238	H	0.538925	0.673792	-0.397557
H239	H	0.538925	0.673789	-0.317292
H240	H	0.511804	0.791518	-0.140843
H241	H	0.386394	1.336641	-0.602526
H242	H	0.538915	0.673820	-0.450046
