data_functionalizedCrystal
_audit_creation_method	'MofGen! by Chris Wilmer'
_symmetry_space_group_name_H-M	'P1'
_symmetry_Int_Tables_number	1
_symmetry_cell_setting	triclinic
loop_
_symmetry_equiv_pos_as_xyz
  x,y,z
_cell_length_a	14.519731
_cell_length_b	13.596369
_cell_length_c	10.654550
_cell_angle_alpha	89.998281
_cell_angle_beta	84.086892
_cell_angle_gamma	89.993567
loop_
_atom_site_label
_atom_site_type_symbol
_atom_site_fract_x
_atom_site_fract_y
_atom_site_fract_z
O1	O	-1.224711	0.081807	-0.164753
O2	O	-0.956337	0.081803	-0.184111
O3	O	-1.096694	0.081809	0.008366
O4	O	-1.084353	0.081801	-0.357230
O5	O	-1.096680	-0.081774	0.008376
O6	O	-0.956323	-0.081780	-0.184101
O7	O	-1.224696	-0.081776	-0.164742
Zn8	Zn	-1.090507	-0.107750	-0.174420
Zn9	Zn	-1.090526	0.107777	-0.174434
O10	O	-1.084339	-0.081782	-0.357220
C11	C	-0.921965	0.000011	-0.183199
C12	C	-0.819571	0.000009	-0.180481
N13	N	-1.090501	-0.254842	-0.174410
C14	C	-0.736416	0.000012	-0.178272
C15	C	-0.632093	0.000010	-0.175513
C16	C	-0.548942	0.000009	-0.173322
C17	C	-0.444612	0.000009	-0.170563
C18	C	-1.090525	-0.656133	-0.174435
C19	C	-1.090515	-0.544482	-0.174432
C20	C	-1.090513	-0.455491	-0.174423
C21	C	-1.090503	-0.343833	-0.174419
C22	C	-0.259068	0.000014	-0.165655
C23	C	-0.361462	0.000007	-0.168373
C24	C	-1.085252	0.000008	-0.404014
C25	C	-1.087963	0.000005	-0.543432
N26	N	-1.090539	0.254869	-0.174434
C27	C	-1.005323	0.000006	-0.623703
C28	C	-1.007876	0.000022	-0.754700
C29	C	-1.175716	0.000032	-0.725140
C30	C	-1.173163	0.000023	-0.594146
C31	C	-1.095781	0.000021	0.055160
C32	C	-1.093070	0.000030	0.194578
H33	H	-0.935948	-0.000012	-0.582416
Br34	Br	-1.285325	0.000032	-0.485196
Br35	Br	-0.895716	0.000032	-0.863636
Br36	Br	-1.291338	0.000054	-0.793976
