data_functionalizedCrystal
_audit_creation_method	'MofGen! by Chris Wilmer'
_symmetry_space_group_name_H-M	'P1'
_symmetry_Int_Tables_number	1
_symmetry_cell_setting	triclinic
loop_
_symmetry_equiv_pos_as_xyz
  x,y,z
_cell_length_a	11.792241
_cell_length_b	11.026607
_cell_length_c	10.868271
_cell_angle_alpha	89.998659
_cell_angle_beta	90.000588
_cell_angle_gamma	96.389716
loop_
_atom_site_label
_atom_site_type_symbol
_atom_site_fract_x
_atom_site_fract_y
_atom_site_fract_z
O1	O	-1.539979	-0.166544	-0.102197
O2	O	-1.213047	-0.183709	-0.102225
O3	O	-1.349417	0.001705	-0.102208
O4	O	-1.403609	-0.351958	-0.102213
O5	O	-1.349401	0.001697	0.102436
O6	O	-1.213031	-0.183717	0.102420
O7	O	-1.539964	-0.166552	0.102448
Zn8	Zn	-1.376495	-0.175135	0.134926
Zn9	Zn	-1.376516	-0.175125	-0.134702
O10	O	-1.403593	-0.351965	0.102432
C11	C	-1.170534	-0.182634	0.000094
C12	C	-1.043879	-0.179407	0.000083
C13	C	-1.339412	0.046978	0.000112
C14	C	-1.309609	0.181888	0.000105
C15	C	-1.582477	-0.167626	0.000127
C16	C	-1.709131	-0.170853	0.000130
C17	C	-0.811989	-0.173473	0.000119
C18	C	-0.941029	-0.176770	0.000099
C19	C	-1.413598	-0.397238	0.000109
C20	C	-1.443401	-0.532148	0.000108
N21	N	-1.376489	-0.175142	0.318940
C22	C	-1.391899	0.255152	0.000110
C23	C	-1.361099	0.394589	0.000103
C24	C	-1.376497	-0.175143	0.430278
C25	C	-1.376509	-0.175133	0.569955
N26	N	-1.376523	-0.175118	0.681284
H27	H	-1.485153	0.214647	0.000126
H28	H	-1.267839	0.435088	0.000087
Cl29	Cl	-1.587390	0.405336	0.000115
Cl30	Cl	-1.165628	0.244413	0.000080
