data_functionalizedCrystal
_audit_creation_method	'MofGen! by Chris Wilmer'
_symmetry_space_group_name_H-M	'P1'
_symmetry_Int_Tables_number	1
_symmetry_cell_setting	triclinic
loop_
_symmetry_equiv_pos_as_xyz
  x,y,z
_cell_length_a	23.532407
_cell_length_b	23.532407
_cell_length_c	8.140239
_cell_angle_alpha	89.991844
_cell_angle_beta	89.999964
_cell_angle_gamma	82.848712
loop_
_atom_site_label
_atom_site_type_symbol
_atom_site_fract_x
_atom_site_fract_y
_atom_site_fract_z
O1	O	0.755258	0.069134	-0.136526
O2	O	1.255258	0.569134	0.363474
O3	O	0.589395	0.079138	-0.136555
O4	O	1.089395	0.579138	0.363445
O5	O	0.677328	-0.008796	-0.136510
O6	O	1.177328	0.491204	0.363490
O7	O	0.667325	0.157068	-0.136571
O8	O	1.167325	0.657068	0.363429
O9	O	0.677323	-0.008797	0.136718
O10	O	1.177323	0.491203	0.636718
O11	O	0.589390	0.079137	0.136672
O12	O	1.089390	0.579137	0.636672
O13	O	0.755253	0.069133	0.136701
O14	O	1.255253	0.569133	0.636701
Zn15	Zn	0.672321	0.074135	0.180067
Zn16	Zn	1.172321	0.574135	0.680067
Zn17	Zn	0.672327	0.074136	-0.179921
Zn18	Zn	1.172327	0.574136	0.320079
O19	O	0.667320	0.157067	0.136656
O20	O	1.167320	0.657067	0.636656
C21	C	0.568176	0.078882	0.000056
C22	C	1.068176	0.578882	0.500056
C23	C	0.504959	0.078116	0.000046
C24	C	1.004959	0.578116	0.500046
C25	C	0.238792	0.022921	0.000112
C26	C	0.738792	0.522921	0.500112
C27	C	0.298192	0.023632	0.000111
C28	C	0.798192	0.523632	0.500111
O29	O	0.334937	-0.020153	0.000184
O30	O	0.834937	0.479847	0.500184
N31	N	0.320818	0.075909	0.000080
N32	N	0.820818	0.575909	0.500080
C33	C	0.284041	0.127477	0.000067
C34	C	0.784041	0.627477	0.500067
O35	O	0.308740	0.172007	0.000042
O36	O	0.808740	0.672007	0.500042
C37	C	0.224642	0.126765	0.000079
C38	C	0.724642	0.626765	0.500079
C39	C	0.202019	0.074485	0.000093
C40	C	0.702019	0.574485	0.500093
C41	C	0.216169	-0.029354	0.000127
C42	C	0.716169	0.470646	0.500127
C43	C	0.156772	-0.030066	0.000125
C44	C	0.656772	0.469934	0.500125
C45	C	0.119999	0.021499	0.000107
C46	C	0.619999	0.521499	0.500107
C47	C	0.142623	0.073774	0.000091
C48	C	0.642623	0.573774	0.500091
C49	C	0.187865	0.178333	0.000078
C50	C	0.687865	0.678333	0.500078
C51	C	0.128463	0.177616	0.000092
C52	C	0.628463	0.677616	0.500092
C53	C	0.105840	0.125336	0.000106
C54	C	0.605840	0.625336	0.500106
C55	C	0.046454	0.124627	0.000070
C56	C	0.546454	0.624627	0.500070
N57	N	0.023828	0.072351	0.000101
N58	N	0.523828	0.572351	0.500101
C59	C	0.060600	0.020787	0.000119
C60	C	0.560600	0.520787	0.500119
C61	C	0.408783	0.128968	0.000044
C62	C	0.908783	0.628968	0.500044
C63	C	0.468181	0.129681	0.000019
C64	C	0.968181	0.629681	0.500019
C65	C	0.482328	0.025836	0.000066
C66	C	0.982328	0.525836	0.500066
C67	C	0.422929	0.025124	0.000079
C68	C	0.922929	0.525124	0.500079
C69	C	0.386157	0.076692	0.000074
C70	C	0.886157	0.576692	0.500074
C71	C	-0.064136	0.019297	0.000113
C72	C	0.435864	0.519297	0.500113
C73	C	-0.123538	0.018590	0.000104
C74	C	0.376462	0.518590	0.500104
C75	C	-0.137680	0.122435	0.000065
C76	C	0.362320	0.622435	0.500065
C77	C	-0.078284	0.123142	0.000066
C78	C	0.421716	0.623142	0.500066
C79	C	-0.041512	0.071568	0.000095
C80	C	0.458488	0.571568	0.500095
O81	O	0.009675	0.168390	0.000004
O82	O	0.509675	0.668390	0.500004
O83	O	0.035892	-0.023737	0.000165
O84	O	0.535892	0.476263	0.500165
C85	C	0.677071	-0.030012	0.000108
C86	C	1.177071	0.469988	0.500108
C87	C	0.676305	-0.093229	0.000121
C88	C	1.176305	0.406771	0.500121
C89	C	0.723538	-0.492332	0.000039
C90	C	1.223538	0.007668	0.500039
C91	C	0.722827	-0.551733	0.000026
C92	C	1.222827	-0.051733	0.500026
O93	O	0.766613	-0.588477	-0.000027
O94	O	1.266613	-0.088477	0.499973
N95	N	0.670551	-0.574359	0.000018
N96	N	1.170551	-0.074359	0.500018
C97	C	0.618982	-0.537581	0.000007
C98	C	1.118982	-0.037581	0.500007
O99	O	0.574452	-0.562281	-0.000003
O100	O	1.074452	-0.062281	0.499997
C101	C	0.619695	-0.478182	0.000007
C102	C	1.119695	0.021818	0.500007
C103	C	0.671974	-0.455559	0.000032
C104	C	1.171974	0.044441	0.500032
C105	C	0.775814	-0.469709	0.000061
C106	C	1.275814	0.030291	0.500061
C107	C	0.776525	-0.410313	0.000077
C108	C	1.276525	0.089687	0.500077
C109	C	0.724961	-0.373540	0.000070
C110	C	1.224961	0.126460	0.500070
C111	C	0.672685	-0.396163	0.000047
C112	C	1.172685	0.103837	0.500047
C113	C	0.568127	-0.441406	-0.000016
C114	C	1.068127	0.058594	0.499984
C115	C	0.568843	-0.382003	-0.000017
C116	C	1.068843	0.117997	0.499983
C117	C	0.621123	-0.359381	0.000008
C118	C	1.121123	0.140619	0.500008
C119	C	0.621832	-0.299994	0.000056
C120	C	1.121832	0.200006	0.500056
N121	N	0.674109	-0.277368	0.000064
N122	N	1.174109	0.222632	0.500064
C123	C	0.725673	-0.314141	0.000071
C124	C	1.225673	0.185859	0.500071
C125	C	0.617491	-0.662324	0.000002
C126	C	1.117491	-0.162324	0.500002
C127	C	0.616778	-0.721722	0.000013
C128	C	1.116778	-0.221722	0.500013
C129	C	0.720623	-0.735869	0.000029
C130	C	1.220623	-0.235869	0.500029
C131	C	0.721335	-0.676470	0.000030
C132	C	1.221335	-0.176470	0.500030
C133	C	0.669767	-0.639698	0.000010
C134	C	1.169767	-0.139698	0.500010
C135	C	0.727163	-0.189404	0.000105
C136	C	1.227163	0.310596	0.500105
C137	C	0.727869	-0.130002	0.000128
C138	C	1.227869	0.369998	0.500128
C139	C	0.624025	-0.115860	0.000102
C140	C	1.124025	0.384140	0.500102
C141	C	0.623318	-0.175257	0.000089
C142	C	1.123318	0.324743	0.500089
C143	C	0.674891	-0.212028	0.000084
C144	C	1.174891	0.287972	0.500084
O145	O	0.578069	-0.263215	0.000103
O146	O	1.078069	0.236785	0.500103
O147	O	0.770196	-0.289433	0.000058
O148	O	1.270196	0.210567	0.500058
C149	C	0.776472	0.069389	0.000087
C150	C	1.276472	0.569389	0.500087
C151	C	0.839689	0.070155	0.000085
C152	C	1.339689	0.570155	0.500085
C153	C	0.667577	0.178283	0.000034
C154	C	1.167577	0.678283	0.500034
C155	C	0.668343	0.241500	0.000011
C156	C	1.168343	0.741500	0.500011
N157	N	0.672321	0.074134	0.425750
N158	N	1.172321	0.574134	0.925750
N159	N	0.672332	0.074133	-0.425604
N160	N	1.172332	0.574133	0.074396
H161	H	0.246104	-0.071347	0.000147
H162	H	0.746104	0.428653	0.500147
N163	N	-0.147936	-0.037800	0.000145
N164	N	0.352064	0.462200	0.500145
H165	H	-0.191145	-0.030430	0.000141
H166	H	0.308855	0.469570	0.500141
H167	H	-0.134462	-0.060351	-0.101130
H168	H	0.365538	0.439649	0.398870
H169	H	0.404515	-0.017447	0.000091
H170	H	0.904515	0.482553	0.500091
H171	H	0.770443	-0.111587	0.000152
H172	H	1.270443	0.388413	0.500152
N173	N	0.560390	-0.746116	-0.000009
N174	N	1.060390	-0.246116	0.499991
H175	H	0.567758	-0.789326	-0.000017
H176	H	1.067758	-0.289326	0.499983
H177	H	0.537840	-0.732649	0.101277
H178	H	1.037840	-0.232649	0.601277
N179	N	0.782790	-0.229054	0.000121
N180	N	1.282790	0.270946	0.500121
H181	H	0.784808	-0.254020	0.101405
H182	H	1.284808	0.245980	0.601405
H183	H	0.784789	-0.253972	-0.101232
H184	H	1.284789	0.246028	0.398768
N185	N	0.777723	-0.652075	0.000051
N186	N	1.277723	-0.152075	0.500051
H187	H	0.780340	-0.627741	-0.101232
H188	H	1.280340	-0.127741	0.398768
H189	H	0.780297	-0.627780	0.101406
H190	H	1.280297	-0.127780	0.601406
H191	H	0.819097	-0.391900	0.000090
H192	H	1.319097	0.108100	0.500090
H193	H	0.486595	0.172252	-0.000015
H194	H	0.986595	0.672252	0.499985
N195	N	-0.053883	0.179529	0.000037
N196	N	0.446117	0.679529	0.500037
H197	H	-0.029557	0.182139	0.101328
H198	H	0.470443	0.682139	0.601328
H199	H	-0.029579	0.182106	-0.101310
H200	H	0.470421	0.682106	0.398690
N201	N	0.132374	-0.086452	0.000164
N202	N	0.632374	0.413548	0.500164
H203	H	0.145806	-0.109030	-0.101107
H204	H	0.645806	0.390970	0.398893
H205	H	0.145817	-0.108975	0.101531
H206	H	0.645817	0.391025	0.601531
N207	N	-0.024481	-0.036327	0.000150
N208	N	0.475519	0.463673	0.500150
H209	H	-0.047834	-0.069547	0.000158
H210	H	0.452166	0.430453	0.500158
H211	H	0.000472	-0.038297	-0.101138
H212	H	0.500472	0.461703	0.398862
N213	N	0.561870	-0.622660	0.000028
N214	N	1.061870	-0.122660	0.500028
H215	H	0.559845	-0.597692	-0.101251
H216	H	1.059845	-0.097692	0.398749
H217	H	0.528679	-0.646048	0.000094
H218	H	1.028679	-0.146048	0.500094
H219	H	0.206274	0.220904	0.000059
H220	H	0.706274	0.720904	0.500059
H221	H	0.762610	-0.765821	0.000029
H222	H	1.262610	-0.265821	0.500029
H223	H	-0.167631	0.164417	0.000042
H224	H	0.332369	0.664417	0.500042
H225	H	0.378846	0.170964	0.000028
H226	H	0.878846	0.670964	0.500028
H227	H	0.817806	-0.499644	0.000061
H228	H	1.317806	0.000356	0.500061
H229	H	0.512280	-0.016150	0.000081
H230	H	1.012280	0.483850	0.500081
N231	N	0.088801	0.233237	0.000125
N232	N	0.588801	0.733237	0.500125
H233	H	0.112150	0.266460	0.000125
H234	H	0.612150	0.766460	0.500125
H235	H	0.063842	0.235215	-0.101153
H236	H	0.563842	0.735215	0.398847
N237	N	0.511739	-0.465796	-0.000022
N238	N	1.011739	0.034204	0.499978
H239	H	0.479187	-0.433480	-0.000029
H240	H	0.979187	0.066520	0.499971
H241	H	0.509178	-0.490127	-0.101311
H242	H	1.009178	0.009873	0.398689
N243	N	0.513223	-0.342342	-0.000047
N244	N	1.013223	0.157658	0.499953
H245	H	0.480000	-0.365691	-0.000063
H246	H	0.980000	0.134309	0.499937
H247	H	0.511250	-0.317395	0.101246
H248	H	1.011250	0.182605	0.601246
N249	N	0.566933	-0.199662	0.000085
N250	N	1.066933	0.300338	0.500085
H251	H	0.534375	-0.167350	0.000089
H252	H	1.034375	0.332650	0.500089
H253	H	0.564378	-0.223987	-0.101217
H254	H	1.064378	0.276013	0.398783
H255	H	0.582043	-0.085909	0.000103
H256	H	1.082043	0.414091	0.500103
