data_functionalizedCrystal
_audit_creation_method	'MofGen! by Chris Wilmer'
_symmetry_space_group_name_H-M	'P1'
_symmetry_Int_Tables_number	1
_symmetry_cell_setting	triclinic
loop_
_symmetry_equiv_pos_as_xyz
  x,y,z
_cell_length_a	13.339070
_cell_length_b	14.519709
_cell_length_c	12.376457
_cell_angle_alpha	101.296542
_cell_angle_beta	75.589755
_cell_angle_gamma	99.654719
loop_
_atom_site_label
_atom_site_type_symbol
_atom_site_fract_x
_atom_site_fract_y
_atom_site_fract_z
O1	O	1.362507	0.449827	-0.094056
O2	O	1.067869	0.389115	-0.094048
O3	O	1.222998	0.287221	-0.094042
O4	O	1.207378	0.551721	-0.094062
O5	O	1.184229	0.312650	0.093969
O6	O	1.029100	0.414544	0.093963
O7	O	1.323739	0.475256	0.093955
Zn8	Zn	1.170264	0.448937	0.123810
Zn9	Zn	1.221343	0.415434	-0.123903
O10	O	1.168610	0.577150	0.093949
C11	C	1.010777	0.391574	-0.000041
C12	C	0.898419	0.361005	-0.000038
C13	C	0.534063	0.598692	-0.000074
C14	C	0.639629	0.627415	-0.000081
C15	C	0.704332	0.560815	-0.000070
C16	C	0.663458	0.465487	-0.000053
C17	C	0.557883	0.436759	-0.000055
C18	C	0.728152	0.398883	-0.000050
C19	C	0.687278	0.303554	-0.000033
C20	C	0.581713	0.274832	-0.000035
C21	C	0.517011	0.341432	-0.000046
C22	C	0.833726	0.427610	-0.000048
C23	C	0.857547	0.265678	-0.000029
C24	C	0.751980	0.236954	-0.000022
C25	C	1.202885	0.265390	-0.000036
C26	C	1.200703	0.162454	-0.000036
C27	C	1.192677	-0.214489	-0.000065
C28	C	1.194906	-0.109612	-0.000056
C29	C	1.196690	-0.026021	-0.000049
C30	C	1.198919	0.078862	-0.000043
C31	C	1.380832	0.472796	-0.000054
C32	C	1.493191	0.503364	-0.000065
C33	C	1.188723	0.598980	-0.000059
C34	C	1.190906	0.701915	-0.000067
N35	N	1.135411	0.471804	0.292866
N36	N	1.256204	0.392562	-0.292960
C37	C	1.337109	0.339463	0.647859
C38	C	1.361497	0.323457	0.529520
C39	C	1.304977	0.360542	0.470351
C40	C	1.224066	0.413636	0.529532
C41	C	1.199681	0.429650	0.647883
C42	C	1.167550	0.450729	0.470375
C43	C	1.086639	0.503824	0.529556
C44	C	1.062257	0.519834	0.647895
C45	C	1.118777	0.482749	0.707064
C46	C	1.191935	0.434715	0.352024
C47	C	1.054507	0.524903	0.352048
C48	C	1.030119	0.540909	0.470387
H49	H	0.481376	0.652906	-0.000092
H50	H	0.672903	0.705030	-0.000103
C51	C	1.448983	0.265472	0.465066
C52	C	1.458103	0.259225	0.348763
C53	C	1.538539	0.205641	0.289353
H54	H	1.433577	0.203730	0.484552
H55	H	1.512776	0.295117	0.484161
H56	H	1.394324	0.229577	0.329677
H57	H	1.473524	0.320951	0.329244
H58	H	1.602332	0.235286	0.308447
H59	H	1.523125	0.143904	0.308848
H60	H	1.544744	0.201403	0.210435
H61	H	0.866994	0.505228	-0.000058
H62	H	1.008485	0.555103	0.303873
C63	C	0.974268	0.577331	0.712089
C64	C	0.880714	0.532961	0.683350
C65	C	0.799635	0.585894	0.742471
H66	H	0.989216	0.639113	0.692731
H67	H	0.967769	0.581539	0.791054
H68	H	0.887213	0.528765	0.604402
H69	H	0.865732	0.471184	0.702711
H70	H	0.793136	0.590102	0.821437
H71	H	0.814594	0.647674	0.723108
H72	H	0.736147	0.555793	0.722988
H73	H	0.548441	0.197207	-0.000034
H74	H	1.383125	0.309279	0.696043
C75	C	0.707414	0.133491	-0.000070
C76	C	0.601121	0.122592	-0.000101
C77	C	0.560035	0.027295	-0.000161
H78	H	0.715977	0.113696	0.065479
H79	H	0.743077	0.096035	-0.065657
H80	H	0.565469	0.160035	0.065479
H81	H	0.592529	0.142367	-0.065645
H82	H	0.595697	-0.010161	-0.065747
H83	H	0.568605	0.007508	0.065389
H84	H	0.487913	0.019886	-0.000192
H85	H	0.431049	0.318049	-0.000040
H86	H	0.790288	0.584207	-0.000078
H87	H	0.910229	0.211445	-0.000025
H88	H	1.257813	0.391486	0.303849
C89	C	1.331546	0.343354	0.341868
C90	C	1.360218	0.430293	0.302695
C91	C	1.384716	0.414490	0.184338
H92	H	1.272415	0.310560	0.314969
H93	H	1.387863	0.306464	0.315052
H94	H	1.303906	0.467168	0.329499
H95	H	1.419355	0.463100	0.329562
H96	H	1.441033	0.377601	0.157522
H97	H	1.325581	0.381694	0.157451
H98	H	1.404182	0.473474	0.157744
C99	C	0.942356	0.598696	0.534500
C100	C	0.964838	0.689669	0.505685
C101	C	0.884008	0.742922	0.564711
H102	H	0.935853	0.603032	0.613471
H103	H	0.878774	0.568778	0.515097
H104	H	1.028402	0.719579	0.525095
H105	H	0.971331	0.685362	0.426724
H106	H	0.820426	0.713005	0.545308
H107	H	0.877511	0.747251	0.643679
H108	H	0.899246	0.804650	0.545160
H109	H	1.098918	0.495777	0.803425
