data_functionalizedCrystal
_audit_creation_method	'MofGen! by Chris Wilmer'
_symmetry_space_group_name_H-M	'P1'
_symmetry_Int_Tables_number	1
_symmetry_cell_setting	triclinic
loop_
_symmetry_equiv_pos_as_xyz
  x,y,z
_cell_length_a	6.817900
_cell_length_b	17.078509
_cell_length_c	10.992410
_cell_angle_alpha	95.080498
_cell_angle_beta	108.764651
_cell_angle_gamma	99.306544
loop_
_atom_site_label
_atom_site_type_symbol
_atom_site_fract_x
_atom_site_fract_y
_atom_site_fract_z
V1	V	-4.066461	-0.109767	-0.400463
O2	O	-4.074672	0.005275	-0.392974
O3	O	-3.997073	-0.217650	-0.397596
O4	O	-4.044788	-0.108079	-0.575178
O5	O	-4.026627	-0.105055	-0.214163
V6	V	-4.549345	-0.096007	-0.378196
O7	O	-4.329120	-0.139952	-0.449309
O8	O	-4.736883	-0.065822	-0.329350
O9	O	-4.395527	0.011876	-0.381063
O10	O	-4.658531	-0.211049	-0.385685
O11	O	-4.706576	-0.100719	-0.564497
O12	O	-4.347811	-0.097695	-0.203481
C13	C	-3.836103	-0.243949	-0.391245
C14	C	-3.860835	-0.332145	-0.390066
C15	C	-3.980418	-0.828158	-0.382749
C16	C	-3.957197	-0.745290	-0.383862
C17	C	-4.127901	-0.707898	-0.390817
C18	C	-4.321845	-0.753381	-0.396671
C19	C	-4.345068	-0.836249	-0.395566
C20	C	-4.078002	-0.460495	-0.394815
C21	C	-4.054762	-0.377621	-0.395915
C22	C	-3.690116	-0.369535	-0.383109
C23	C	-3.713352	-0.452404	-0.381998
C24	C	-3.907296	-0.497880	-0.387858
N25	N	-4.104168	-0.623194	-0.391951
N26	N	-3.931030	-0.582585	-0.386733
C27	C	-3.896968	-0.104179	-0.617767
C28	C	-3.960392	-0.103513	-0.760596
C29	C	-3.830160	-0.097439	-0.955727
C30	C	-3.764165	-0.098461	-0.807242
C31	C	-4.124353	-0.181738	-0.837608
C32	C	-4.188968	-0.181046	-0.986175
C33	C	-4.132677	-0.029574	-0.948322
C34	C	-4.062129	-0.029203	-0.799310
C35	C	-4.219837	0.038171	-0.387410
C36	C	-4.174344	0.126366	-0.388598
C37	C	-4.158973	-0.101597	-0.160885
C38	C	-4.074787	-0.102260	-0.018055
H39	H	-4.235918	-0.497512	-0.399585
H40	H	-3.799284	-0.708266	-0.379097
C41	C	-3.596653	-0.022482	-0.735269
N42	N	-3.470464	0.034745	-0.681065
C43	C	-3.792624	-0.869280	-0.375099
N44	N	-3.651173	-0.900251	-0.369342
C45	C	-4.135554	-0.255393	-1.048598
N46	N	-4.095308	-0.311390	-1.095607
H47	H	-4.368008	-0.187848	-1.028798
H48	H	-4.460837	-0.722932	-0.402341
C49	C	-3.655778	-0.169997	-0.773629
N50	N	-3.574145	-0.223882	-0.748314
H51	H	-4.271889	-0.188259	-0.808797
C52	C	-4.030081	-0.256273	-0.802939
N53	N	-3.959062	-0.312411	-0.776829
C54	C	-3.705123	-0.021005	-0.981467
N55	N	-3.610947	0.036539	-1.000938
H56	H	-3.574331	-0.482839	-0.376311
C57	C	-3.765745	-0.167989	-1.020483
N58	N	-3.717234	-0.221127	-1.069263
H59	H	-3.944068	0.028664	-0.747020
H60	H	-4.055624	0.029828	-0.968751
H61	H	-4.502982	-0.873275	-0.400331
H62	H	-4.204642	-0.028285	-0.766799
H63	H	-3.532214	-0.332500	-0.378340
C64	C	-4.372800	-0.033409	-1.003502
N65	N	-4.553659	-0.036303	-1.045072
H66	H	-4.193774	-0.347179	-0.401565
