data_functionalizedCrystal
_audit_creation_method	'MofGen! by Chris Wilmer'
_symmetry_space_group_name_H-M	'P1'
_symmetry_Int_Tables_number	1
_symmetry_cell_setting	triclinic
loop_
_symmetry_equiv_pos_as_xyz
  x,y,z
_cell_length_a	12.759401
_cell_length_b	16.625545
_cell_length_c	12.759393
_cell_angle_alpha	90.032195
_cell_angle_beta	90.020459
_cell_angle_gamma	90.027083
loop_
_atom_site_label
_atom_site_type_symbol
_atom_site_fract_x
_atom_site_fract_y
_atom_site_fract_z
Zn1	Zn	1.606182	-0.320935	0.594003
Zn2	Zn	2.106182	0.179065	1.094003
Zn3	Zn	1.606041	-0.455788	0.418316
Zn4	Zn	2.106041	0.044212	0.918316
Zn5	Zn	1.430482	-0.320976	0.418338
Zn6	Zn	1.930482	0.179024	0.918338
Zn7	Zn	1.430439	-0.455733	0.593953
Zn8	Zn	1.930439	0.044267	1.093953
O9	O	1.518286	-0.388358	0.506153
O10	O	2.018286	0.111642	1.006153
O11	O	1.753184	-0.338829	0.570709
O12	O	2.253184	0.161171	1.070709
O13	O	1.582712	-0.437945	0.271298
O14	O	2.082712	0.062055	0.771298
O15	O	1.453866	-0.208138	0.441671
O16	O	1.953866	0.291862	0.941671
O17	O	1.753081	-0.437905	0.441633
O18	O	2.253081	0.062095	0.941633
O19	O	1.582952	-0.208108	0.570731
O20	O	2.082952	0.291892	1.070731
O21	O	1.453730	-0.338900	0.271314
O22	O	1.953730	0.161100	0.771314
O23	O	1.283456	-0.338846	0.441622
O24	O	1.783456	0.161154	0.941622
O25	O	1.453793	-0.437811	0.740981
O26	O	1.953793	0.062189	1.240981
O27	O	1.283424	-0.437851	0.570646
O28	O	1.783424	0.062149	1.070646
O29	O	1.582910	-0.338776	0.741018
O30	O	2.082910	0.161224	1.241018
O31	O	1.582671	-0.568613	0.441585
O32	O	2.082671	-0.068613	0.941585
O33	O	1.453657	-0.568572	0.570624
O34	O	1.953657	-0.068572	1.070624
C35	C	1.245319	-0.388348	0.506132
C36	C	1.745319	0.111652	1.006132
C37	C	1.128542	-0.388363	0.506148
C38	C	1.628542	0.111637	1.006148
C39	C	1.518172	-0.597849	0.506120
C40	C	2.018172	-0.097849	1.006120
C41	C	1.518219	-0.687470	0.506141
C42	C	2.018219	-0.187470	1.006141
C43	C	1.073691	-0.439994	0.573225
C44	C	1.573691	0.060006	1.073225
C45	C	0.963967	-0.439997	0.573245
C46	C	1.463967	0.060003	1.073245
C47	C	0.963955	-0.336737	0.439104
C48	C	1.463955	0.163263	0.939104
C49	C	1.073677	-0.336730	0.439089
C50	C	1.573677	0.163270	0.939089
C51	C	1.518260	-0.760252	0.506161
C52	C	2.018260	-0.260252	1.006161
C53	C	1.518321	-0.851561	0.506185
C54	C	2.018321	-0.351561	1.006185
C55	C	1.518376	-0.924337	0.506198
C56	C	2.018376	-0.424337	1.006198
C57	C	1.518436	-1.015651	0.506219
C58	C	2.018436	-0.515651	1.006219
C59	C	1.792320	-0.388368	0.506174
C60	C	2.292320	0.111632	1.006174
C61	C	1.909096	-0.388373	0.506183
C62	C	2.409096	0.111627	1.006183
C63	C	1.518363	-0.388283	0.780186
C64	C	2.018363	0.111717	1.280186
C65	C	1.518395	-0.388251	0.896963
C66	C	2.018395	0.111749	1.396963
C67	C	1.518430	-0.178049	0.506209
C68	C	2.018430	0.321951	1.006209
C69	C	1.518491	-0.088428	0.506233
C70	C	2.018491	0.411572	1.006233
C71	C	1.518271	-0.388374	0.233185
C72	C	2.018271	0.111626	0.733185
C73	C	1.518442	-0.388179	0.116409
C74	C	2.018442	0.111821	0.616409
C75	C	1.585584	-0.439764	1.061552
C76	C	2.085584	0.060236	1.561552
C77	C	1.585559	-0.439802	0.951828
C78	C	2.085559	0.060198	1.451828
C79	C	1.451246	-0.336664	0.951828
C80	C	1.951246	0.163336	1.451828
C81	C	1.451267	-0.336631	1.061550
C82	C	1.951267	0.163369	1.561550
H83	H	1.118360	-0.482035	0.627831
H84	H	1.618360	0.017965	1.127831
N85	N	0.907893	-0.284003	0.370615
N86	N	1.407893	0.215997	0.870615
N87	N	0.809928	-0.284015	0.370635
N88	N	1.309928	0.215985	0.870635
H89	H	0.770333	-0.246771	0.322263
H90	H	1.270333	0.253229	0.822263
H91	H	1.640233	-0.481807	0.907168
H92	H	2.140233	0.018193	1.407168
N93	N	1.129697	-0.283977	0.370568
N94	N	1.629697	0.216023	0.870568
N95	N	1.080700	-0.237884	0.310697
N96	N	1.580700	0.262116	0.810697
H97	H	1.120264	-0.200625	0.262309
H98	H	1.620264	0.299375	0.762309
N99	N	1.654214	-0.492416	1.117574
N100	N	2.154214	0.007584	1.617574
N101	N	1.714161	-0.538466	1.068575
N102	N	2.214161	-0.038466	1.568575
H103	H	1.762636	-0.575653	1.108137
H104	H	2.262636	-0.075653	1.608137
H105	H	0.919313	-0.482038	0.627868
H106	H	1.419313	0.017962	1.127868
N107	N	1.382682	-0.283944	1.117612
N108	N	1.882682	0.216056	1.617612
N109	N	1.315731	-0.312295	1.178824
N110	N	1.815731	0.187705	1.678824
H111	H	1.267295	-0.275089	1.218421
H112	H	1.767295	0.224911	1.718421
H113	H	1.396555	-0.294694	0.907148
H114	H	1.896555	0.205306	1.407148
