data_functionalizedCrystal
_audit_creation_method	'MofGen! by Chris Wilmer'
_symmetry_space_group_name_H-M	'P1'
_symmetry_Int_Tables_number	1
_symmetry_cell_setting	triclinic
loop_
_symmetry_equiv_pos_as_xyz
  x,y,z
_cell_length_a	14.908782
_cell_length_b	18.101395
_cell_length_c	14.908803
_cell_angle_alpha	86.714233
_cell_angle_beta	83.226378
_cell_angle_gamma	86.738007
loop_
_atom_site_label
_atom_site_type_symbol
_atom_site_fract_x
_atom_site_fract_y
_atom_site_fract_z
Zn1	Zn	1.354034	-0.379487	0.431806
Zn2	Zn	1.854034	0.120513	0.931806
Zn3	Zn	1.362680	-0.496537	0.280452
Zn4	Zn	1.862680	0.003463	0.780452
Zn5	Zn	1.211445	-0.365972	0.289209
Zn6	Zn	1.711445	0.134028	0.789209
Zn7	Zn	1.202616	-0.496539	0.440514
Zn8	Zn	1.702616	0.003461	0.940514
O9	O	1.282694	-0.434634	0.360495
O10	O	1.782694	0.065366	0.860495
O11	O	1.481842	-0.400669	0.404419
O12	O	1.981842	0.099331	0.904419
O13	O	1.349931	-0.473560	0.154949
O14	O	1.849931	0.026440	0.654949
O15	O	1.230437	-0.264136	0.308145
O16	O	1.730437	0.235864	0.808145
O17	O	1.488194	-0.486665	0.293220
O18	O	1.988194	0.013335	0.793220
O19	O	1.335197	-0.274066	0.412911
O20	O	1.835197	0.225934	0.912911
O21	O	1.238820	-0.377634	0.161383
O22	O	1.738820	0.122366	0.661383
O23	O	1.083613	-0.377637	0.316589
O24	O	1.583613	0.122363	0.816589
O25	O	1.215389	-0.486669	0.566023
O26	O	1.715389	0.013331	1.066023
O27	O	1.077126	-0.473564	0.427753
O28	O	1.577126	0.026436	0.927753
O29	O	1.326635	-0.400671	0.559625
O30	O	1.826635	0.099329	1.059625
O31	O	1.341370	-0.600165	0.301664
O32	O	1.841370	-0.100165	0.801664
O33	O	1.223772	-0.600167	0.419261
O34	O	1.723772	-0.100167	0.919261
C35	C	1.047528	-0.424134	0.374067
C36	C	1.547528	0.075866	0.874067
C37	C	0.946922	-0.419662	0.379894
C38	C	1.446922	0.080338	0.879894
C39	C	0.764494	-0.500666	0.274876
C40	C	1.264494	-0.000666	0.774876
C41	C	0.669966	-0.496466	0.280349
C42	C	1.169966	0.003534	0.780349
C43	C	0.663335	-0.407065	0.396316
C44	C	1.163335	0.092935	0.896316
C45	C	0.757863	-0.411265	0.390843
C46	C	1.257863	0.088735	0.890843
C47	C	0.808440	-0.458067	0.330120
C48	C	1.308440	0.041933	0.830120
C49	C	0.902970	-0.462263	0.324644
C50	C	1.402970	0.037737	0.824644
C51	C	0.896337	-0.372866	0.440615
C52	C	1.396337	0.127134	0.940615
C53	C	0.801808	-0.368666	0.446088
C54	C	1.301808	0.131334	0.946088
C55	C	1.282574	-0.627038	0.360476
C56	C	1.782574	-0.127038	0.860476
C57	C	1.282604	-0.709354	0.360493
C58	C	1.782604	-0.209354	0.860493
C59	C	1.282800	-1.008456	0.360530
C60	C	1.782800	-0.508456	0.860530
C61	C	1.208963	-0.977178	0.434683
C62	C	1.708963	-0.477178	0.934683
C63	C	1.208644	-0.891535	0.434483
C64	C	1.708644	-0.391535	0.934483
C65	C	1.282703	-0.860068	0.360512
C66	C	1.782703	-0.360068	0.860512
C67	C	1.262407	-0.885786	0.266609
C68	C	1.762407	-0.385786	0.766609
C69	C	1.261933	-0.971430	0.267055
C70	C	1.761933	-0.471430	0.767055
C71	C	1.377134	-0.982165	0.379431
C72	C	1.877134	-0.482165	0.879431
C73	C	1.376450	-0.896583	0.381556
C74	C	1.876450	-0.396583	0.881556
C75	C	1.282650	-0.776205	0.360496
C76	C	1.782650	-0.276205	0.860496
C77	C	1.282851	-1.092318	0.360540
C78	C	1.782851	-0.592318	0.860540
C79	C	1.518778	-0.445174	0.346871
C80	C	2.018778	0.054826	0.846871
C81	C	1.619383	-0.449666	0.341065
C82	C	2.119383	0.050334	0.841065
C83	C	1.269063	-0.445178	0.596585
C84	C	1.769063	0.054822	1.096585
C85	C	1.263254	-0.449671	0.697192
C86	C	1.763254	0.050329	1.197192
C87	C	1.282837	-0.241480	0.360533
C88	C	1.782837	0.258520	0.860533
C89	C	1.282899	-0.159170	0.360549
C90	C	1.782899	0.340830	0.860549
C91	C	1.368177	-0.368548	0.879584
C92	C	1.868177	0.131452	1.379584
C93	C	1.362722	-0.372768	0.974114
C94	C	1.862722	0.127232	1.474114
C95	C	1.246886	-0.462325	0.980783
C96	C	1.746886	0.037675	1.480783
C97	C	1.252341	-0.458106	0.886253
C98	C	1.752341	0.041894	1.386253
C99	C	1.312989	-0.411217	0.835657
C100	C	1.812989	0.088783	1.335657
C101	C	1.318448	-0.407002	0.741126
C102	C	1.818448	0.092998	1.241126
C103	C	1.202607	-0.496555	0.747797
C104	C	1.702607	0.003445	1.247797
C105	C	1.197153	-0.500774	0.842326
C106	C	1.697153	-0.000774	1.342326
C107	C	1.296266	-0.424147	1.125324
C108	C	1.796266	0.075853	1.625324
C109	C	1.302080	-0.419656	1.024716
C110	C	1.802080	0.080344	1.524716
H111	H	0.760616	-0.330564	0.495529
H112	H	1.260616	0.169436	0.995529
H113	H	1.396716	-1.007831	0.446447
H114	H	1.896716	-0.507831	0.946447
N115	N	1.224602	-0.868787	0.526944
N116	N	1.724602	-0.368787	1.026944
H117	H	1.224420	-0.812985	0.526991
H118	H	1.724420	-0.312985	1.026991
H119	H	1.285014	-0.890838	0.542282
H120	H	1.785014	-0.390838	1.042282
H121	H	1.433929	-0.875485	0.331043
H122	H	1.933929	-0.375485	0.831043
N123	N	1.170810	-0.992627	0.245005
N124	N	1.670810	-0.492627	0.745005
H125	H	1.178976	-1.021419	0.188303
H126	H	1.678976	-0.521419	0.688303
H127	H	1.131372	-0.946326	0.235132
H128	H	1.631372	-0.446326	0.735132
H129	H	0.932127	-0.338175	0.485595
H130	H	1.432127	0.161825	0.985595
H131	H	1.432078	-1.002440	0.325355
H132	H	1.932078	-0.502440	0.825355
N133	N	1.383862	-0.356434	0.686550
N134	N	1.883862	0.143566	1.186550
H135	H	1.417994	-0.330044	0.728726
H136	H	1.917994	0.169956	1.228726
H137	H	1.349305	-0.318771	0.649461
H138	H	1.849305	0.181229	1.149461
N139	N	1.433596	-0.317987	0.825005
N140	N	1.933596	0.182013	1.325005
H141	H	1.467735	-0.291600	0.867177
H142	H	1.967735	0.208400	1.367177
H143	H	1.399043	-0.280321	0.787915
H144	H	1.899043	0.219679	1.287915
N145	N	1.224690	-1.009560	0.527463
N146	N	1.724690	-0.509560	1.027463
H147	H	1.279830	-1.044821	0.522331
H148	H	1.779830	-0.544821	1.022331
H149	H	1.170146	-1.037163	0.554591
H150	H	1.670146	-0.537163	1.054591
N151	N	0.622570	-0.542404	0.220753
N152	N	1.122570	-0.042404	0.720753
H153	H	0.555011	-0.532643	0.233430
H154	H	1.055011	-0.032643	0.733430
H155	H	0.638263	-0.596670	0.233773
H156	H	1.138263	-0.096670	0.733773
N157	N	1.131740	-0.551350	0.896888
N158	N	1.631740	-0.051350	1.396888
H159	H	1.068029	-0.536230	0.884165
H160	H	1.568029	-0.036230	1.384165
H161	H	1.136726	-0.547535	0.963420
H162	H	1.636726	-0.047535	1.463420
N163	N	0.608776	-0.356597	0.461813
N164	N	1.108776	0.143403	0.961813
H165	H	0.542225	-0.360406	0.456896
H166	H	1.042225	0.139594	0.956896
H167	H	0.626120	-0.303798	0.446879
H168	H	1.126120	0.196202	0.946879
N169	N	1.116746	-1.000649	0.418922
N170	N	1.616746	-0.500649	0.918922
H171	H	1.122591	-1.031456	0.363956
H172	H	1.622591	-0.531456	0.863956
H173	H	1.075922	-0.955226	0.408751
H174	H	1.575922	-0.455226	0.908751
H175	H	1.313680	-0.991890	0.210218
H176	H	1.813680	-0.491890	0.710218
H177	H	1.157672	-0.531300	0.712022
H178	H	1.657672	-0.031300	1.212022
H179	H	1.138609	-0.867221	0.422399
H180	H	1.638609	-0.367221	0.922399
H181	H	1.314739	-0.865202	0.210095
H182	H	1.814739	-0.365202	0.710095
H183	H	1.194377	-0.860369	0.249541
H184	H	1.694377	-0.360369	0.749541
H185	H	1.407660	-0.338021	1.009875
H186	H	1.907660	0.161979	1.509875
N187	N	0.957519	-0.512737	0.259148
N188	N	1.457519	-0.012737	0.759148
H189	H	0.940242	-0.565558	0.274053
H190	H	1.440242	-0.065558	0.774053
H191	H	1.024054	-0.508872	0.264088
H192	H	1.524054	-0.008872	0.764088
N193	N	0.819053	-0.551132	0.209377
N194	N	1.319053	-0.051132	0.709377
H195	H	0.776869	-0.577479	0.175205
H196	H	1.276869	-0.077479	0.675205
H197	H	0.856143	-0.588836	0.243876
H198	H	1.356143	-0.088836	0.743876
N199	N	1.396866	-0.874936	0.473058
N200	N	1.896866	-0.374936	0.973058
H201	H	1.345611	-0.841614	0.500771
H202	H	1.845611	-0.341614	1.000771
H203	H	1.454825	-0.847790	0.465833
H204	H	1.954825	-0.347790	0.965833
H205	H	1.197508	-0.500500	1.021994
H206	H	1.697508	-0.000500	1.521994
