data_functionalizedCrystal
_audit_creation_method	'MofGen! by Chris Wilmer'
_symmetry_space_group_name_H-M	'P1'
_symmetry_Int_Tables_number	1
_symmetry_cell_setting	triclinic
loop_
_symmetry_equiv_pos_as_xyz
  x,y,z
_cell_length_a	8.559649
_cell_length_b	10.540539
_cell_length_c	7.681481
_cell_angle_alpha	84.202085
_cell_angle_beta	94.913240
_cell_angle_gamma	77.152078
loop_
_atom_site_label
_atom_site_type_symbol
_atom_site_fract_x
_atom_site_fract_y
_atom_site_fract_z
O1	O	2.104686	-0.029542	-0.146402
O2	O	1.640228	0.035941	-0.146408
O3	O	1.883054	-0.182616	-0.146403
O4	O	1.861861	0.189016	-0.146407
O5	O	1.912941	-0.209571	0.146456
O6	O	1.670116	0.008986	0.146450
O7	O	2.134573	-0.056497	0.146457
Zn8	Zn	1.907089	-0.028035	0.192951
Zn9	Zn	1.867712	0.007479	-0.192902
O10	O	1.891748	0.162061	0.146451
C11	C	1.595699	0.027426	0.000020
C12	C	1.418487	0.042198	0.000017
C13	C	1.896408	-0.243230	0.000023
C14	C	1.891652	-0.383679	0.000014
C15	C	1.709382	-0.547970	-0.000646
C16	C	1.714270	-0.401917	0.000013
C17	C	1.994083	-0.469667	0.167252
C18	C	1.988043	-0.615591	0.167393
C19	C	1.957664	-0.585834	-0.165642
C20	C	1.959072	-0.438819	-0.167853
C21	C	2.179102	-0.047981	0.000025
C22	C	2.356313	-0.062752	0.000016
C23	C	1.878393	0.222675	0.000021
C24	C	1.883148	0.363125	0.000019
N25	N	1.933975	-0.052274	0.456286
N26	N	1.840839	0.031708	-0.456237
H27	H	1.336134	0.143358	0.000006
H28	H	2.029067	-0.137994	0.531494
N29	N	1.459579	-0.189664	0.000044
N30	N	1.401210	-0.288337	0.000053
H31	H	1.474150	-0.377973	0.000076
N32	N	1.864968	-0.364986	-0.323051
N33	N	1.748666	-0.272084	-0.310213
H34	H	1.682199	-0.219931	-0.419818
H35	H	1.627073	-0.558196	-0.120575
H36	H	1.634867	-0.341248	-0.119869
N37	N	1.637115	-0.590479	0.148959
N38	N	1.713030	-0.685966	0.256067
H39	H	1.661996	-0.715993	0.361729
N40	N	1.721537	0.139228	0.449436
N41	N	1.576049	0.150095	0.469909
H42	H	1.491788	0.226033	0.403281
H43	H	1.947485	-0.432314	0.291703
N44	N	1.869451	-0.603233	-0.324682
N45	N	1.938817	-0.672920	-0.430520
H46	H	1.876507	-0.685207	-0.542838
N47	N	1.644790	-0.354525	0.150659
N48	N	1.592545	-0.429346	0.255645
H49	H	1.543474	-0.395879	0.362049
H50	H	1.937713	-0.648691	0.292404
N51	N	2.149054	-0.693390	0.176937
N52	N	2.265523	-0.639838	0.183484
H53	H	2.379238	-0.694778	0.190238
H54	H	2.124982	-0.461523	0.173472
H55	H	2.087366	-0.427208	-0.177950
H56	H	2.085671	-0.646370	-0.166765
