data_functionalizedCrystal
_audit_creation_method	'MofGen! by Chris Wilmer'
_symmetry_space_group_name_H-M	'P1'
_symmetry_Int_Tables_number	1
_symmetry_cell_setting	triclinic
loop_
_symmetry_equiv_pos_as_xyz
  x,y,z
_cell_length_a	6.817900
_cell_length_b	19.452420
_cell_length_c	19.453114
_cell_angle_alpha	96.328802
_cell_angle_beta	101.709288
_cell_angle_gamma	101.696715
loop_
_atom_site_label
_atom_site_type_symbol
_atom_site_fract_x
_atom_site_fract_y
_atom_site_fract_z
V1	V	-3.997947	-0.097915	-0.219345
V2	V	-3.497947	0.402085	0.280655
O3	O	-3.995100	0.003953	-0.214816
O4	O	-3.495100	0.503953	0.285184
O5	O	-3.940917	-0.193426	-0.218185
O6	O	-3.440917	0.306574	0.281815
O7	O	-3.940968	-0.096739	-0.314854
O8	O	-3.440968	0.403261	0.185146
O9	O	-3.995048	-0.093403	-0.117478
O10	O	-3.495048	0.406597	0.382522
V11	V	-4.483804	-0.085692	-0.207120
V12	V	-3.983804	0.414308	0.292880
O13	O	-4.254084	-0.124729	-0.246163
O14	O	-3.754084	0.375271	0.253837
O15	O	-4.677865	-0.058878	-0.180302
O16	O	-4.177865	0.441122	0.319698
O17	O	-4.317628	0.009819	-0.208280
O18	O	-3.817628	0.509819	0.291720
O19	O	-4.604048	-0.187560	-0.211649
O20	O	-4.104048	0.312440	0.288351
O21	O	-4.604099	-0.090204	-0.308987
O22	O	-4.104099	0.409796	0.191013
O23	O	-4.317576	-0.086868	-0.111611
O24	O	-3.817576	0.413132	0.388389
C25	C	-3.784096	-0.216699	-0.214813
C26	C	-3.284096	0.283301	0.285187
C27	C	-3.818697	-0.294782	-0.214501
C28	C	-3.318697	0.205218	0.285499
C29	C	-3.784160	-0.093365	-0.338123
C30	C	-3.284160	0.406635	0.161877
C31	C	-3.818800	-0.093035	-0.416204
C32	C	-3.318800	0.406965	0.083796
C33	C	-3.801490	-0.321196	-0.149986
C34	C	-3.301490	0.178804	0.350014
C35	C	-3.834075	-0.394562	-0.149672
C36	C	-3.334075	0.105438	0.350328
C37	C	-3.883827	-0.441511	-0.213874
C38	C	-3.383827	0.058489	0.286126
C39	C	-3.901045	-0.415090	-0.278397
C40	C	-3.401045	0.084910	0.221603
C41	C	-3.868480	-0.341726	-0.278711
C42	C	-3.368480	0.158274	0.221289
N43	N	-3.846563	-0.562110	-0.259091
N44	N	-3.346563	-0.062110	0.240909
N45	N	-3.877492	-0.631802	-0.258789
N46	N	-3.377492	-0.131802	0.241211
C47	C	-3.981949	-0.662553	-0.212935
C48	C	-3.481949	-0.162553	0.287065
N49	N	-4.054279	-0.620977	-0.167383
N50	N	-3.554279	-0.120977	0.332617
N51	N	-4.023337	-0.551278	-0.167682
N52	N	-3.523337	-0.051278	0.332318
C53	C	-3.919143	-0.521063	-0.213542
C54	C	-3.419143	-0.021063	0.286458
C55	C	-4.000075	-0.768518	-0.148075
C56	C	-3.500075	-0.268518	0.351925
C57	C	-4.032674	-0.841885	-0.147764
C58	C	-3.532674	-0.341885	0.352236
C59	C	-4.099624	-0.862412	-0.276491
C60	C	-3.599624	-0.362412	0.223509
C61	C	-4.067045	-0.789046	-0.276801
C62	C	-3.567045	-0.289046	0.223199
C63	C	-4.017262	-0.742102	-0.212591
C64	C	-3.517262	-0.242102	0.287409
C65	C	-4.016538	-0.096406	-0.456473
C66	C	-3.516538	0.403594	0.043527
C67	C	-4.049086	-0.096097	-0.529838
C68	C	-3.549086	0.403903	-0.029838
C69	C	-3.883893	-0.092431	-0.562934
C70	C	-3.383893	0.407569	-0.062934
C71	C	-3.686126	-0.089055	-0.522655
C72	C	-3.186126	0.410945	-0.022655
C73	C	-3.653579	-0.089358	-0.449290
C74	C	-3.153579	0.410642	0.050710
N75	N	-3.820798	-0.129525	-0.681855
N76	N	-3.320798	0.370475	-0.181855
N77	N	-3.851729	-0.129240	-0.751549
N78	N	-3.351729	0.370760	-0.251549
C79	C	-3.981942	-0.091517	-0.783979
C80	C	-3.481942	0.408483	-0.283979
N81	N	-4.080090	-0.054101	-0.744084
N82	N	-3.580090	0.445899	-0.244084
N83	N	-4.049164	-0.054390	-0.674384
N84	N	-3.549164	0.445610	-0.174384
C85	C	-3.919164	-0.092102	-0.642486
C86	C	-3.419164	0.407898	-0.142486
C87	C	-4.214984	-0.094552	-0.903800
C88	C	-3.714984	0.405448	-0.403800
C89	C	-4.247523	-0.094238	-0.977166
C90	C	-3.747523	0.405762	-0.477166
C91	C	-3.884560	-0.087203	-0.969983
C92	C	-3.384560	0.412797	-0.469983
C93	C	-3.852023	-0.087510	-0.896617
C94	C	-3.352023	0.412490	-0.396617
C95	C	-4.017244	-0.091188	-0.863531
C96	C	-3.517244	0.408812	-0.363531
C97	C	-4.137790	0.033088	-0.211650
C98	C	-3.637790	0.533088	0.288350
C99	C	-4.082427	0.111171	-0.211967
C100	C	-3.582427	0.611171	0.288033
C101	C	-4.137726	-0.090245	-0.088339
C102	C	-3.637726	0.409755	0.411661
C103	C	-4.082325	-0.090570	-0.010257
C104	C	-3.582325	0.409430	0.489743
H105	H	-3.760969	-0.282979	-0.097702
H106	H	-3.260969	0.217021	0.402298
H107	H	-3.882500	-0.320222	-0.331248
H108	H	-3.382500	0.179778	0.168752
Cl109	Cl	-3.676876	-0.082581	-1.011580
Cl110	Cl	-3.176876	0.417419	-0.511580
H111	H	-3.820059	-0.416072	-0.097135
H112	H	-3.320059	0.083928	0.402865
Cl113	Cl	-4.224243	-0.101025	-0.414882
Cl114	Cl	-3.724243	0.398975	0.085118
H115	H	-4.081043	-0.767540	-0.329335
H116	H	-3.581043	-0.267540	0.170665
Cl117	Cl	-3.478452	-0.084444	-0.564260
Cl118	Cl	-2.978452	0.415556	-0.064260
Cl119	Cl	-3.603430	-0.083284	-0.845992
Cl120	Cl	-3.103430	0.416716	-0.345992
H121	H	-3.941557	-0.453320	-0.330672
H122	H	-3.441557	0.046680	0.169328
H123	H	-4.210115	-0.098846	-0.562632
H124	H	-3.710115	0.401154	-0.062632
Cl125	Cl	-3.937505	-0.709501	-0.067356
Cl126	Cl	-3.437505	-0.209501	0.432644
H127	H	-4.408546	-0.096978	-1.009952
H128	H	-3.908546	0.403022	-0.509952
H129	H	-3.492552	-0.086607	-0.416502
H130	H	-2.992552	0.413393	0.083498
Cl131	Cl	-4.162189	-0.921427	-0.357204
Cl132	Cl	-3.662189	-0.421427	0.142796
Cl133	Cl	-4.011066	-0.875091	-0.066652
Cl134	Cl	-3.511066	-0.375091	0.433348
H135	H	-4.349516	-0.097544	-0.876859
H136	H	-3.849516	0.402456	-0.376859
