data_functionalizedCrystal
_audit_creation_method	'MofGen! by Chris Wilmer'
_symmetry_space_group_name_H-M	'P1'
_symmetry_Int_Tables_number	1
_symmetry_cell_setting	triclinic
loop_
_symmetry_equiv_pos_as_xyz
  x,y,z
_cell_length_a	18.215407
_cell_length_b	19.077114
_cell_length_c	18.215399
_cell_angle_alpha	87.729790
_cell_angle_beta	89.982632
_cell_angle_gamma	87.674258
loop_
_atom_site_label
_atom_site_type_symbol
_atom_site_fract_x
_atom_site_fract_y
_atom_site_fract_z
Zn1	Zn	1.113279	0.280256	-0.427834
Zn2	Zn	1.613279	0.780256	0.072166
Zn3	Zn	1.108234	0.397958	-0.309709
Zn4	Zn	1.608234	0.897958	0.190291
Zn5	Zn	0.990211	0.280273	-0.304787
Zn6	Zn	1.490211	0.780273	0.195213
Zn7	Zn	0.985226	0.397912	-0.432737
Zn8	Zn	1.485226	0.897912	0.067263
O9	O	1.049237	0.339100	-0.368767
O10	O	1.549237	0.839100	0.131233
O11	O	1.215593	0.295881	-0.412172
O12	O	1.715593	0.795881	0.087828
O13	O	1.092553	0.382373	-0.206073
O14	O	1.592553	0.882373	0.293927
O15	O	1.010733	0.181780	-0.316997
O16	O	1.510733	0.681780	0.183003
O17	O	1.211887	0.382356	-0.325386
O18	O	1.711887	0.882356	0.174614
O19	O	1.101151	0.181768	-0.407399
O20	O	1.601151	0.681768	0.092601
O21	O	1.005841	0.295910	-0.202457
O22	O	1.505841	0.795910	0.297543
O23	O	0.886566	0.295866	-0.321752
O24	O	1.386566	0.795866	0.178248
O25	O	1.002238	0.382279	-0.535070
O26	O	1.502238	0.882279	-0.035070
O27	O	0.882904	0.382295	-0.415757
O28	O	1.382904	0.882295	0.084243
O29	O	1.096317	0.295838	-0.531467
O30	O	1.596317	0.795838	-0.031467
O31	O	1.087720	0.496443	-0.330141
O32	O	1.587720	0.996443	0.169859
O33	O	0.997346	0.496409	-0.420529
O34	O	1.497346	0.996409	0.079471
C35	C	0.858032	0.339078	-0.368753
C36	C	1.358032	0.839078	0.131247
C37	C	0.776233	0.339086	-0.368765
C38	C	1.276233	0.839086	0.131235
C39	C	0.589964	0.294151	-0.414033
C40	C	1.089964	0.794151	0.085967
C41	C	0.513105	0.294157	-0.414035
C42	C	1.013105	0.794157	0.085965
C43	C	0.509262	0.384068	-0.323514
C44	C	1.009262	0.884068	0.176486
C45	C	0.586120	0.384058	-0.323508
C46	C	1.086120	0.884058	0.176492
C47	C	0.626469	0.339101	-0.368772
C48	C	1.126469	0.839101	0.131228
C49	C	0.472752	0.339117	-0.368780
C50	C	0.972752	0.839117	0.131220
C51	C	0.389418	0.339124	-0.368783
C52	C	0.889418	0.839124	0.131217
C53	C	0.709808	0.339093	-0.368768
C54	C	1.209808	0.839093	0.131232
C55	C	1.041465	0.521964	-0.376417
C56	C	1.541465	1.021964	0.123583
C57	C	1.038207	0.600193	-0.379715
C58	C	1.538207	1.100193	0.120285
C59	C	1.083765	0.636940	-0.334243
C60	C	1.583765	1.136940	0.165757
C61	C	1.080706	0.710445	-0.337348
C62	C	1.580706	1.210445	0.162652
C63	C	1.032083	0.747203	-0.385923
C64	C	1.532083	1.247203	0.114077
C65	C	0.986523	0.710451	-0.431400
C66	C	1.486523	1.210451	0.068600
C67	C	0.989587	0.636947	-0.428298
C68	C	1.489587	1.136947	0.071702
C69	C	1.017873	0.967037	-0.400248
C70	C	1.517873	1.467037	0.099752
C71	C	1.014811	1.040546	-0.403346
C72	C	1.514811	1.540546	0.096654
C73	C	1.108995	1.040535	-0.309295
C74	C	1.608995	1.540535	0.190705
C75	C	1.112052	0.967030	-0.306193
C76	C	1.612052	1.467030	0.193807
C77	C	1.066494	0.930284	-0.351673
C78	C	1.566494	1.430284	0.148327
N79	N	1.028953	0.822337	-0.389097
N80	N	1.528953	1.322337	0.110903
N81	N	1.069629	0.855151	-0.348502
N82	N	1.569629	1.355151	0.151498
C83	C	1.241189	0.339122	-0.368781
C84	C	1.741189	0.839122	0.131219
C85	C	1.322988	0.339132	-0.368787
C86	C	1.822988	0.839132	0.131213
C87	C	1.049284	0.339051	-0.560718
C88	C	1.549284	0.839051	-0.060718
C89	C	1.049304	0.339031	-0.642516
C90	C	1.549304	0.839031	-0.142516
C91	C	1.057054	1.155522	-0.361112
C92	C	1.557054	1.655522	0.138888
C93	C	1.060370	1.077292	-0.357874
C94	C	1.560370	1.577292	0.142126
C95	C	1.098310	0.293978	-0.828833
C96	C	1.598310	0.793978	-0.328833
C97	C	1.098320	0.293958	-0.905691
C98	C	1.598320	0.793958	-0.405691
C99	C	1.000355	0.383974	-0.909431
C100	C	1.500355	0.883974	-0.409431
C101	C	1.000342	0.383990	-0.832575
C102	C	1.500342	0.883990	-0.332575
C103	C	1.049324	0.338994	-0.792278
C104	C	1.549324	0.838994	-0.292278
C105	C	1.049346	0.338957	-0.945992
C106	C	1.549346	0.838957	-0.445992
C107	C	1.049356	0.338935	-1.029325
C108	C	1.549356	0.838935	-0.529325
C109	C	1.049313	0.339014	-0.708940
C110	C	1.549313	0.839014	-0.208940
C111	C	1.049235	0.339097	-0.177560
C112	C	1.549235	0.839097	0.322440
C113	C	1.049366	0.338920	-0.095754
C114	C	1.549366	0.838920	0.404246
H115	H	0.615843	0.420662	-0.286647
H116	H	1.115843	0.920662	0.213353
H117	H	0.980777	0.937124	-0.437278
H118	H	1.480777	1.437124	0.062722
H119	H	0.975225	1.070471	-0.442914
H120	H	1.475225	1.570471	0.057086
H121	H	0.476401	0.420672	-0.286663
H122	H	0.976401	0.920672	0.213337
Cl123	Cl	1.173191	0.920826	-0.245135
Cl124	Cl	1.673191	1.420826	0.254865
Cl125	Cl	1.144890	0.590738	-0.273169
Cl126	Cl	1.644890	1.090738	0.226831
H127	H	0.483386	0.257554	-0.450890
H128	H	0.983386	0.757554	0.049110
H129	H	1.146087	1.070461	-0.272269
H130	H	1.646087	1.570461	0.227731
H131	H	1.138192	0.257337	-0.796025
H132	H	1.638192	0.757337	-0.296025
Cl133	Cl	1.137985	0.756638	-0.280183
Cl134	Cl	1.637985	1.256638	0.219817
H135	H	0.946936	0.740385	-0.470954
H136	H	1.446936	1.240385	0.029046
Cl137	Cl	0.932313	0.590751	-0.485468
Cl138	Cl	1.432313	1.090751	0.014532
H139	H	1.138208	0.257301	-0.935451
H140	H	1.638208	0.757301	-0.435451
Cl141	Cl	0.938785	0.440542	-0.960096
Cl142	Cl	1.438785	0.940542	-0.460096
H143	H	0.960447	0.420647	-0.802811
H144	H	1.460447	0.920647	-0.302811
Cl145	Cl	0.640685	0.237630	-0.470932
Cl146	Cl	1.140685	0.737630	0.029068
