data_functionalizedCrystal
_audit_creation_method	'MofGen! by Chris Wilmer'
_symmetry_space_group_name_H-M	'P1'
_symmetry_Int_Tables_number	1
_symmetry_cell_setting	triclinic
loop_
_symmetry_equiv_pos_as_xyz
  x,y,z
_cell_length_a	12.759395
_cell_length_b	17.637651
_cell_length_c	12.759387
_cell_angle_alpha	78.750696
_cell_angle_beta	89.978574
_cell_angle_gamma	101.219717
loop_
_atom_site_label
_atom_site_type_symbol
_atom_site_fract_x
_atom_site_fract_y
_atom_site_fract_z
Zn1	Zn	1.521703	-0.314713	-0.509358
Zn2	Zn	1.486061	-0.446950	-0.298100
Zn3	Zn	1.345991	-0.314754	-0.333681
Zn4	Zn	1.310477	-0.446892	-0.473752
O5	O	1.416058	-0.380828	-0.403723
O6	O	1.663995	-0.332262	-0.481344
O7	O	1.467427	-0.429456	-0.155787
O8	O	1.399078	-0.204107	-0.386776
O9	O	1.637808	-0.429416	-0.326134
O10	O	1.528174	-0.204077	-0.515846
O11	O	1.364517	-0.332332	-0.181928
O12	O	1.194260	-0.332276	-0.352251
O13	O	1.338550	-0.429317	-0.625507
O14	O	1.168169	-0.429357	-0.455161
O15	O	1.493738	-0.332206	-0.651667
O16	O	1.432990	-0.557585	-0.291609
O17	O	1.303989	-0.557542	-0.420659
C18	C	1.143094	-0.380815	-0.403703
C19	C	1.026314	-0.380829	-0.403715
C20	C	0.779710	-0.482101	-0.510649
C21	C	0.820997	-0.532720	-0.564095
C22	C	0.930721	-0.532711	-0.564084
C23	C	0.999162	-0.482078	-0.510619
C24	C	0.957876	-0.431458	-0.457172
C25	C	0.848148	-0.431471	-0.457192
C26	C	0.985027	-0.330209	-0.350269
C27	C	0.875304	-0.330213	-0.350285
C28	C	1.053468	-0.279576	-0.296803
C29	C	1.012183	-0.228951	-0.243362
C30	C	0.902452	-0.228962	-0.243376
C31	C	0.834018	-0.279594	-0.296838
C32	C	1.360797	-0.586251	-0.348432
C33	C	1.337252	-0.674133	-0.324814
C34	C	1.595608	-0.962789	-0.583479
C35	C	1.573450	-1.045367	-0.561268
C36	C	1.439113	-1.045506	-0.426738
C37	C	1.461262	-0.962926	-0.448934
C38	C	1.539510	-0.921575	-0.527307
C39	C	1.405165	-0.921712	-0.392762
C40	C	1.427309	-0.839140	-0.414961
C41	C	1.505551	-0.797782	-0.493332
C42	C	1.561654	-0.839003	-0.549505
C43	C	1.326912	-0.963065	-0.314396
C44	C	1.270814	-0.921851	-0.258223
C45	C	1.292964	-0.839277	-0.280417
C46	C	1.371206	-0.797919	-0.358787
C47	C	1.236860	-0.798056	-0.224243
C48	C	1.259005	-0.715484	-0.246442
C49	C	1.393350	-0.715347	-0.380986
C50	C	1.690088	-0.380841	-0.403742
C51	C	1.806863	-0.380847	-0.403750
C52	C	1.416158	-0.380750	-0.677777
C53	C	1.416201	-0.380717	-0.794563
C54	C	1.471563	-0.174602	-0.459252
C55	C	1.495216	-0.086721	-0.482915
C56	C	1.577805	-0.279602	-0.821820
C57	C	1.658625	-0.229032	-0.890313
C58	C	1.658658	-0.229003	-1.000043
C59	C	1.577861	-0.279548	-1.041281
C60	C	1.497041	-0.330117	-0.972788
C61	C	1.497018	-0.330142	-0.863057
C62	C	1.335435	-0.431228	-0.945532
C63	C	1.335404	-0.431262	-0.835801
C64	C	1.254638	-0.481772	-0.986770
C65	C	1.173820	-0.532347	-0.918275
C66	C	1.173791	-0.532374	-0.808540
C67	C	1.254584	-0.481831	-0.767308
C68	C	1.416034	-0.380848	-0.130750
C69	C	1.416255	-0.380658	-0.014024
H70	H	1.088502	-0.482081	-0.510603
Br71	Br	1.105068	-0.160248	-0.170799
H72	H	1.457075	-0.681677	-0.444797
Br73	Br	1.768325	-0.160358	-1.093006
H74	H	0.868845	-0.187742	-0.199852
H75	H	1.523580	-0.730547	-0.511404
H76	H	0.765260	-0.573947	-0.607623
H77	H	1.173144	-0.831737	-0.160440
H78	H	1.625379	-0.805332	-0.613316
H79	H	1.207103	-0.955530	-0.194415
H80	H	1.213323	-0.681927	-0.200701
H81	H	1.577794	-0.279628	-0.732472
Br82	Br	0.685105	-0.279608	-0.296870
H83	H	1.659333	-0.929119	-0.647290
Br84	Br	1.649597	-1.101300	-0.637506
H85	H	1.724406	-0.187879	-0.856725
Br86	Br	1.332912	-1.101633	-0.320390
H87	H	1.254572	-0.481852	-0.677961
H88	H	1.308875	-1.030301	-0.296334
H89	H	1.142810	-0.279575	-0.296792
Br90	Br	1.577897	-0.279498	-1.190203
Br91	Br	1.064173	-0.600929	-0.974248
Br92	Br	0.630800	-0.482105	-0.510688
Br93	Br	0.986756	-0.601415	-0.636608
Br94	Br	1.254680	-0.481732	-1.135689
H95	H	1.107968	-0.573546	-0.752780
