data_functionalizedCrystal
_audit_creation_method	'MofGen! by Chris Wilmer'
_symmetry_space_group_name_H-M	'P1'
_symmetry_Int_Tables_number	1
_symmetry_cell_setting	triclinic
loop_
_symmetry_equiv_pos_as_xyz
  x,y,z
_cell_length_a	18.266242
_cell_length_b	10.540539
_cell_length_c	10.540539
_cell_angle_alpha	84.525492
_cell_angle_beta	90.004163
_cell_angle_gamma	90.006962
loop_
_atom_site_label
_atom_site_type_symbol
_atom_site_fract_x
_atom_site_fract_y
_atom_site_fract_z
O1	O	-0.060843	-1.685895	-0.178903
O2	O	-0.060851	-1.316482	-0.195758
O3	O	-0.060846	-1.509617	-0.002624
O4	O	-0.060848	-1.492761	-0.372037
O5	O	0.060916	-1.509584	-0.002614
O6	O	0.060911	-1.316449	-0.195748
O7	O	0.060919	-1.685862	-0.178892
Zn8	Zn	0.080247	-1.501150	-0.187318
Zn9	Zn	-0.080179	-1.501194	-0.187332
O10	O	0.060914	-1.492728	-0.372027
C11	C	0.000028	-1.269163	-0.194489
C12	C	0.000025	-1.128215	-0.190707
N13	N	0.189734	-1.501130	-0.187308
N14	N	-0.189666	-1.501225	-0.187332
C15	C	0.228046	-1.586679	-0.101831
C16	C	0.304690	-1.586687	-0.101825
C17	C	0.343021	-1.501158	-0.187319
C18	C	0.304701	-1.415593	-0.272803
C19	C	0.228057	-1.415579	-0.272797
N20	N	0.463353	-1.486018	-0.299501
N21	N	0.536161	-1.486040	-0.299502
C22	C	0.573944	-1.501194	-0.187338
N23	N	0.536168	-1.516352	-0.075169
N24	N	0.463353	-1.516337	-0.075169
C25	C	0.426128	-1.501164	-0.187333
C26	C	0.695362	-1.586756	-0.101847
C27	C	0.772008	-1.586755	-0.101839
C28	C	0.772017	-1.415668	-0.272828
C29	C	0.695372	-1.415663	-0.272824
C30	C	0.657049	-1.501214	-0.187335
C31	C	0.000034	-1.508336	0.044684
C32	C	0.000030	-1.504554	0.185632
C33	C	0.000038	-1.733182	-0.180161
C34	C	0.000036	-1.874130	-0.183943
C35	C	0.000310	-0.944788	-0.045790
C36	C	0.000028	-1.091406	-0.049624
C37	C	-0.069505	-1.066561	-0.258608
C38	C	-0.069555	-0.920017	-0.253793
C39	C	0.068911	-0.919490	-0.256652
C40	C	0.069822	-1.066472	-0.257951
C41	C	0.000033	-1.494008	-0.419335
C42	C	0.000032	-1.497790	-0.560283
C43	C	-0.000247	-1.359637	0.369059
C44	C	0.000027	-1.363471	0.222441
C45	C	0.069563	-1.572431	0.247296
C46	C	0.069622	-1.567616	0.393840
C47	C	-0.068844	-1.570523	0.394347
C48	C	-0.069764	-1.571823	0.247365
H49	H	0.196845	-1.656336	-0.032218
H50	H	0.335889	-1.656353	-0.032217
H51	H	-0.050111	-1.303920	0.397655
H52	H	0.335913	-1.345953	-0.342411
H53	H	-0.072712	-0.872048	-0.355259
H54	H	0.664177	-1.346006	-0.342433
H55	H	0.196863	-1.345914	-0.342404
H56	H	0.049952	-1.309659	0.180689
H57	H	-0.072092	-1.088915	-0.362216
H58	H	-0.073960	-1.674684	0.223143
H59	H	-0.121250	-1.109164	-0.211448
H60	H	-0.049817	-1.310061	0.179833
H61	H	0.803202	-1.656415	-0.032226
H62	H	0.049870	-1.134006	0.003803
H63	H	0.069380	-0.872263	-0.358555
H64	H	0.803225	-1.346025	-0.342433
H65	H	0.050174	-0.916189	0.009950
H66	H	0.121260	-1.107420	-0.208347
H67	H	0.664158	-1.656413	-0.032233
H68	H	-0.049275	-0.914594	0.009706
H69	H	-0.049899	-1.133165	0.004171
H70	H	0.049335	-1.304119	0.399271
H71	H	-0.069309	-1.672427	0.441573
H72	H	0.121614	-0.887930	-0.210989
H73	H	-0.121529	-0.891820	-0.203617
H74	H	0.074020	-1.090697	-0.360810
H75	H	0.121597	-1.517424	0.422044
H76	H	0.072779	-1.669080	0.441809
H77	H	0.072151	-1.676038	0.224942
H78	H	0.121306	-1.525253	0.204701
H79	H	-0.121546	-1.524876	0.425895
H80	H	-0.121203	-1.522158	0.206502
