data_functionalizedCrystal
_audit_creation_method	'MofGen! by Chris Wilmer'
_symmetry_space_group_name_H-M	'P1'
_symmetry_Int_Tables_number	1
_symmetry_cell_setting	triclinic
loop_
_symmetry_equiv_pos_as_xyz
  x,y,z
_cell_length_a	16.120490
_cell_length_b	16.120444
_cell_length_c	13.897441
_cell_angle_alpha	92.866378
_cell_angle_beta	87.082329
_cell_angle_gamma	90.165174
loop_
_atom_site_label
_atom_site_type_symbol
_atom_site_fract_x
_atom_site_fract_y
_atom_site_fract_z
Zn1	Zn	1.254490	-0.395644	-0.642071
Zn2	Zn	1.754490	0.104356	-0.142071
Zn3	Zn	1.247325	-0.534712	-0.488503
Zn4	Zn	1.747325	-0.034712	0.011497
Zn5	Zn	1.115424	-0.388612	-0.472229
Zn6	Zn	1.615424	0.111388	0.027771
Zn7	Zn	1.108340	-0.527590	-0.641194
Zn8	Zn	1.608340	-0.027590	-0.141194
O9	O	1.181395	-0.461640	-0.560999
O10	O	1.681395	0.038360	-0.060999
O11	O	1.369905	-0.420015	-0.628878
O12	O	1.869905	0.079985	-0.128878
O13	O	1.229795	-0.515369	-0.351362
O14	O	1.729795	-0.015369	0.148638
O15	O	1.139834	-0.273182	-0.488316
O16	O	1.639834	0.226818	0.011684
O17	O	1.364642	-0.522188	-0.516051
O18	O	1.864642	-0.022188	-0.016051
O19	O	1.242006	-0.278349	-0.613098
O20	O	1.742006	0.221651	-0.113098
O21	O	1.132887	-0.408031	-0.339406
O22	O	1.632887	0.091969	0.160594
O23	O	0.998118	-0.401124	-0.487465
O24	O	1.498118	0.098876	0.012535
O25	O	1.127760	-0.510049	-0.776292
O26	O	1.627760	-0.010049	-0.276292
O27	O	0.992913	-0.503231	-0.611603
O28	O	1.492913	-0.003231	-0.111603
O29	O	1.235136	-0.413109	-0.776936
O30	O	1.735136	0.086891	-0.276936
O31	O	1.222925	-0.650130	-0.515201
O32	O	1.722925	-0.150130	-0.015201
O33	O	1.120813	-0.644897	-0.627383
O34	O	1.620813	-0.144897	-0.127383
C35	C	0.965343	-0.450642	-0.547674
C36	C	1.465343	0.049358	-0.047674
C37	C	0.872915	-0.445958	-0.541997
C38	C	1.372915	0.054042	-0.041997
C39	C	0.659946	-0.485933	-0.590447
C40	C	1.159946	0.014067	-0.090447
C41	C	0.703691	-0.437412	-0.531632
C42	C	1.203691	0.062588	-0.031632
C43	C	0.797856	-0.442168	-0.537401
C44	C	1.297856	0.057832	-0.037401
C45	C	0.565773	-0.481178	-0.584679
C46	C	1.065773	0.018822	-0.084679
C47	C	1.170346	-0.677686	-0.572985
C48	C	1.670346	-0.177686	-0.072985
C49	C	1.165695	-0.770116	-0.578149
C50	C	1.665695	-0.270116	-0.078149
C51	C	1.205724	-0.983094	-0.534429
C52	C	1.705724	-0.483094	-0.034429
C53	C	1.157219	-0.939342	-0.587589
C54	C	1.657219	-0.439342	-0.087589
C55	C	1.161937	-0.845176	-0.582335
C56	C	1.661937	-0.345176	-0.082335
C57	C	1.201008	-1.077268	-0.539682
C58	C	1.701008	-0.577268	-0.039682
C59	C	1.398289	-0.472680	-0.574378
C60	C	1.898289	0.027320	-0.074378
C61	C	1.490717	-0.477385	-0.580078
C62	C	1.990717	0.022615	-0.080078
C63	C	1.181457	-0.461569	-0.812592
C64	C	1.681457	0.038431	-0.312592
C65	C	1.181484	-0.461539	-0.919806
C66	C	1.681484	0.038461	-0.419806
C67	C	1.192509	-0.244750	-0.548989
C68	C	1.692509	0.255250	-0.048989
C69	C	1.197246	-0.152325	-0.543872
C70	C	1.697246	0.347675	-0.043872
C71	C	1.181510	-0.461484	-1.116099
C72	C	1.681510	0.038516	-0.616099
C73	C	1.181493	-0.461517	-1.006868
C74	C	1.681493	0.038483	-0.506868
C75	C	1.181383	-0.461652	-0.310385
C76	C	1.681383	0.038348	0.189615
C77	C	1.181529	-0.461456	-0.203169
C78	C	1.681529	0.038544	0.296831
H79	H	0.693212	-0.531043	-0.645127
H80	H	1.193212	-0.031043	-0.145127
H81	H	0.670423	-0.392300	-0.476946
H82	H	1.170423	0.107700	0.023054
O83	O	1.103558	-0.979113	-0.646650
O84	O	1.603558	-0.479113	-0.146650
C85	C	1.148404	-1.031663	-0.714678
C86	C	1.648404	-0.531663	-0.214678
H87	H	1.210809	-1.047740	-0.685316
H88	H	1.710809	-0.547740	-0.185316
H89	H	1.159145	-0.998657	-0.784900
H90	H	1.659145	-0.498657	-0.284900
C91	C	1.021936	-1.092189	-0.769852
C92	C	1.521936	-0.592189	-0.269852
C93	C	1.098580	-1.111941	-0.733786
C94	C	1.598580	-0.611941	-0.233786
H95	H	0.991202	-1.141707	-0.781643
H96	H	1.491202	-0.641707	-0.281643
H97	H	0.991722	-1.056783	-0.724023
H98	H	1.491722	-0.556783	-0.224023
H99	H	1.030899	-1.064683	-0.828367
H100	H	1.530899	-0.564683	-0.328367
H101	H	1.089617	-1.139437	-0.675267
H102	H	1.589617	-0.639437	-0.175267
H103	H	1.128792	-1.147353	-0.779606
H104	H	1.628792	-0.647353	-0.279606
O105	O	1.259412	-0.943286	-0.475441
O106	O	1.759412	-0.443286	0.024559
C107	C	1.252230	-0.856767	-0.483275
C108	C	1.752230	-0.356767	0.016725
H109	H	1.188619	-0.841792	-0.510215
H110	H	1.688619	-0.341792	-0.010215
H111	H	1.302748	-0.834537	-0.536370
H112	H	1.802748	-0.334537	-0.036370
C113	C	1.340203	-0.830909	-0.350627
C114	C	1.840203	-0.330909	0.149373
C115	C	1.262071	-0.812516	-0.383708
C116	C	1.762071	-0.312516	0.116292
H117	H	1.346277	-0.803611	-0.289212
H118	H	1.846277	-0.303611	0.210788
H119	H	1.345044	-0.889199	-0.345351
H120	H	1.845044	-0.389199	0.154649
H121	H	1.382292	-0.812383	-0.394882
H122	H	1.882292	-0.312383	0.105118
H123	H	1.219983	-0.831050	-0.339460
H124	H	1.719983	-0.331050	0.160540
H125	H	1.257223	-0.754228	-0.388974
H126	H	1.757223	-0.254228	0.111026
