data_functionalizedCrystal
_audit_creation_method	'MofGen! by Chris Wilmer'
_symmetry_space_group_name_H-M	'P1'
_symmetry_Int_Tables_number	1
_symmetry_cell_setting	triclinic
loop_
_symmetry_equiv_pos_as_xyz
  x,y,z
_cell_length_a	29.839131
_cell_length_b	19.805407
_cell_length_c	29.839125
_cell_angle_alpha	89.985310
_cell_angle_beta	90.017709
_cell_angle_gamma	89.959595
loop_
_atom_site_label
_atom_site_type_symbol
_atom_site_fract_x
_atom_site_fract_y
_atom_site_fract_z
Zn1	Zn	-0.178928	-1.034622	0.254038
Zn2	Zn	0.321072	-0.534622	0.754038
Zn3	Zn	-0.254041	-1.034520	0.178908
Zn4	Zn	0.245959	-0.534520	0.678908
Zn5	Zn	-0.178924	-0.921450	0.178917
Zn6	Zn	0.321076	-0.421450	0.678917
Zn7	Zn	-0.254031	-0.921371	0.254006
Zn8	Zn	0.245969	-0.421371	0.754006
O9	O	-0.216481	-0.977991	0.216467
O10	O	0.283519	-0.477991	0.716467
O11	O	-0.188898	-1.129325	0.244081
O12	O	0.311102	-0.629325	0.744081
O13	O	-0.244078	-1.019511	0.116042
O14	O	0.255922	-0.519511	0.616042
O15	O	-0.116057	-0.936538	0.188899
O16	O	0.383943	-0.436538	0.688899
O17	O	-0.244083	-1.129250	0.188883
O18	O	0.255917	-0.629250	0.688883
O19	O	-0.116061	-1.019686	0.244090
O20	O	0.383939	-0.519686	0.744090
O21	O	-0.188891	-0.936439	0.116048
O22	O	0.311109	-0.436439	0.616048
O23	O	-0.188881	-0.826723	0.188868
O24	O	0.311119	-0.326723	0.688868
O25	O	-0.244066	-0.936404	0.316877
O26	O	0.255934	-0.436404	0.816877
O27	O	-0.244062	-0.826665	0.244035
O28	O	0.255938	-0.326665	0.744035
O29	O	-0.188889	-1.019609	0.316901
O30	O	0.311111	-0.519609	0.816901
O31	O	-0.316906	-1.019435	0.188852
O32	O	0.183094	-0.519435	0.688852
O33	O	-0.316899	-0.936305	0.244026
O34	O	0.183101	-0.436305	0.744026
C35	C	-0.216470	-0.802135	0.216449
C36	C	0.283530	-0.302135	0.716449
C37	C	-0.216477	-0.726903	0.216452
C38	C	0.283523	-0.226903	0.716452
C39	C	-0.245252	-0.691546	0.245131
C40	C	0.254748	-0.191546	0.745131
C41	C	-0.245252	-0.620858	0.245136
C42	C	0.254748	-0.120858	0.745136
C43	C	-0.216478	-0.585527	0.216460
C44	C	0.283522	-0.085527	0.716460
C45	C	-0.187700	-0.620889	0.187780
C46	C	0.312300	-0.120889	0.687780
C47	C	-0.187698	-0.691576	0.187778
C48	C	0.312302	-0.191576	0.687778
C49	C	-0.187706	-0.335815	0.187790
C50	C	0.312294	0.164185	0.687790
C51	C	-0.187711	-0.265123	0.187794
C52	C	0.312289	0.234877	0.687794
C53	C	-0.245260	-0.265097	0.245149
C54	C	0.254740	0.234903	0.745149
C55	C	-0.245259	-0.335785	0.245146
C56	C	0.254741	0.164215	0.745146
C57	C	-0.216478	-0.371140	0.216468
C58	C	0.283522	0.128860	0.716468
C59	C	-0.216478	-0.447788	0.216464
C60	C	0.283522	0.052212	0.716464
C61	C	-0.216481	-0.508880	0.216462
C62	C	0.283519	-0.008880	0.716462
C63	C	-0.333204	-0.977869	0.216445
C64	C	0.166796	-0.477869	0.716445
C65	C	-0.383138	-0.977878	0.216450
C66	C	0.116862	-0.477878	0.716450
C67	C	-0.692772	-1.021355	0.187780
C68	C	-0.192772	-0.521355	0.687780
C69	C	-0.880445	-1.021439	0.187797
C70	C	-0.380445	-0.521439	0.687797
O71	O	-0.904703	-1.058308	0.163403
O72	O	-0.404703	-0.558308	0.663403
N73	N	-0.903923	-0.978131	0.216501
N74	N	-0.403923	-0.478131	0.716501
C75	C	-0.880479	-0.934802	0.245204
C76	C	-0.380479	-0.434802	0.745204
O77	O	-0.904755	-0.897973	0.269622
O78	O	-0.404755	-0.397973	0.769622
C79	C	-0.692807	-0.934723	0.245189
C80	C	-0.192807	-0.434723	0.745189
C81	C	-0.669332	-0.978029	0.216480
C82	C	-0.169332	-0.478029	0.716480
C83	C	-0.669297	-1.064658	0.159074
C84	C	-0.169297	-0.564658	0.659074
C85	C	-0.622382	-1.064634	0.159068
C86	C	-0.122382	-0.564634	0.659068
C87	C	-0.598942	-1.021308	0.187768
C88	C	-0.098942	-0.521308	0.687768
C89	C	-0.622417	-0.978005	0.216474
C90	C	-0.122417	-0.478005	0.716474
C91	C	-0.669365	-0.891398	0.273894
C92	C	-0.169365	-0.391398	0.773894
C93	C	-0.622444	-0.891383	0.273888
C94	C	-0.122444	-0.391383	0.773888
C95	C	-0.598968	-0.934689	0.245180
C96	C	-0.098968	-0.434689	0.745180
C97	C	-0.552061	-0.934654	0.245169
C98	C	-0.052061	-0.434654	0.745169
N99	N	-0.528583	-0.977962	0.216465
N100	N	-0.028583	-0.477962	0.716465
C101	C	-0.552024	-1.021289	0.187765
C102	C	-0.052024	-0.521289	0.687765
C103	C	-0.979010	-0.934846	0.245210
C104	C	-0.479010	-0.434846	0.745210
C105	C	-1.025928	-0.934865	0.245213
C106	C	-0.525928	-0.434865	0.745213
C107	C	-1.025891	-1.021503	0.187806
C108	C	-0.525891	-0.521503	0.687806
C109	C	-0.978972	-1.021480	0.187801
C110	C	-0.478972	-0.521480	0.687801
C111	C	-0.955532	-0.978154	0.216506
C112	C	-0.455532	-0.478154	0.716506
C113	C	-0.453498	-1.021235	0.187754
C114	C	0.046502	-0.521235	0.687754
C115	C	-0.406578	-1.021205	0.187750
C116	C	0.093422	-0.521205	0.687750
C117	C	-0.406620	-0.934570	0.245158
C118	C	0.093380	-0.434570	0.745158
C119	C	-0.453535	-0.934597	0.245161
C120	C	0.046465	-0.434597	0.745161
C121	C	-0.476973	-0.977935	0.216458
C122	C	0.023027	-0.477935	0.716458
O123	O	-0.527775	-0.897810	0.269553
O124	O	-0.027775	-0.397810	0.769553
O125	O	-0.527740	-1.058123	0.163358
O126	O	-0.027740	-0.558123	0.663358
C127	C	-0.739688	-1.021379	0.187786
C128	C	-0.239688	-0.521379	0.687786
C129	C	-0.763163	-0.978077	0.216492
C130	C	-0.263163	-0.478077	0.716492
C131	C	-0.739723	-0.934750	0.245192
C132	C	-0.239723	-0.434750	0.745192
C133	C	-0.810081	-0.978095	0.216495
C134	C	-0.310081	-0.478095	0.716495
C135	C	-0.833521	-1.021422	0.187795
C136	C	-0.333521	-0.521422	0.687795
C137	C	-0.810044	-1.064730	0.159091
C138	C	-0.310044	-0.564730	0.659091
C139	C	-0.763128	-1.064706	0.159085
C140	C	-0.263128	-0.564706	0.659085
C141	C	-0.763200	-0.891442	0.273895
C142	C	-0.263200	-0.391442	0.773895
C143	C	-0.810116	-0.891469	0.273899
C144	C	-0.310116	-0.391469	0.773899
C145	C	-0.833556	-0.934796	0.245198
C146	C	-0.333556	-0.434796	0.745198
C147	C	-0.099303	-0.978132	0.216499
C148	C	0.400697	-0.478132	0.716499
C149	C	-0.049368	-0.978192	0.216513
C150	C	0.450632	-0.478192	0.716513
C151	C	-0.216477	-0.978009	0.333645
C152	C	0.283523	-0.478009	0.833645
C153	C	-0.216475	-0.978017	0.383580
C154	C	0.283525	-0.478017	0.883580
C155	C	-0.216489	-0.154534	0.216480
C156	C	0.283511	0.345466	0.716480
C157	C	-0.216485	-0.229765	0.216475
C158	C	0.283515	0.270235	0.716475
C159	C	-0.216453	-0.978012	0.099744
C160	C	0.283547	-0.478012	0.599744
C161	C	-0.216328	-0.978135	0.049810
C162	C	0.283672	-0.478135	0.549810
C163	C	-0.187669	-1.021388	0.693239
C164	C	0.312331	-0.521388	1.193239
C165	C	-0.187631	-1.021421	0.880912
C166	C	0.312369	-0.521421	1.380912
O167	O	-0.163181	-1.058246	0.905189
O168	O	0.336819	-0.558246	1.405189
N169	N	-0.216355	-0.978107	0.904365
N170	N	0.283645	-0.478107	1.404365
C171	C	-0.245089	-0.934778	0.880897
C172	C	0.254911	-0.434778	1.380897
O173	O	-0.269516	-0.897932	0.905152
O174	O	0.230484	-0.397932	1.405152
C175	C	-0.245124	-0.934741	0.693225
C176	C	0.254876	-0.434741	1.193225
C177	C	-0.216401	-0.978063	0.669774
C178	C	0.283599	-0.478063	1.169774
C179	C	-0.158948	-1.064706	0.669788
C180	C	0.341052	-0.564706	1.169788
C181	C	-0.158960	-1.064699	0.622872
C182	C	0.341040	-0.564699	1.122872
C183	C	-0.187692	-1.021375	0.599408
C184	C	0.312308	-0.521375	1.099408
C185	C	-0.216413	-0.978057	0.622859
C186	C	0.283587	-0.478057	1.122859
C187	C	-0.273855	-0.891409	0.669758
C188	C	0.226145	-0.391409	1.169758
C189	C	-0.273861	-0.891403	0.622837
C190	C	0.226139	-0.391403	1.122837
C191	C	-0.245138	-0.934725	0.599386
C192	C	0.254862	-0.434725	1.099386
C193	C	-0.245157	-0.934727	0.552479
C194	C	0.254843	-0.434727	1.052479
N195	N	-0.216433	-0.978041	0.529025
N196	N	0.283567	-0.478041	1.029025
C197	C	-0.187701	-1.021365	0.552490
C198	C	0.312299	-0.521365	1.052490
C199	C	-0.245068	-0.934801	0.979428
C200	C	0.254932	-0.434801	1.479428
C201	C	-0.245060	-0.934811	1.026346
C202	C	0.254940	-0.434811	1.526346
C203	C	-0.187602	-1.021453	1.026357
C204	C	0.312398	-0.521453	1.526357
C205	C	-0.187613	-1.021446	0.979438
C206	C	0.312387	-0.521446	1.479438
C207	C	-0.216344	-0.978115	0.955975
C208	C	0.283656	-0.478115	1.455975
C209	C	-0.187727	-1.021349	0.453964
C210	C	0.312273	-0.521349	0.953964
C211	C	-0.187743	-1.021341	0.407044
C212	C	0.312257	-0.521341	0.907044
C213	C	-0.245199	-0.934696	0.407037
C214	C	0.254801	-0.434696	0.907037
C215	C	-0.245186	-0.934707	0.453953
C216	C	0.254814	-0.434707	0.953953
C217	C	-0.216446	-0.978035	0.477415
C218	C	0.283554	-0.478035	0.977415
O219	O	-0.269590	-0.897916	0.528172
O220	O	0.230410	-0.397916	1.028172
O221	O	-0.163270	-1.058195	0.528227
O222	O	0.336730	-0.558195	1.028227
C223	C	-0.187658	-1.021394	0.740154
C224	C	0.312342	-0.521394	1.240154
C225	C	-0.216378	-0.978076	0.763605
C226	C	0.283622	-0.478076	1.263605
C227	C	-0.245111	-0.934751	0.740140
C228	C	0.254889	-0.434751	1.240140
C229	C	-0.216370	-0.978086	0.810523
C230	C	0.283630	-0.478086	1.310523
C231	C	-0.187638	-1.021410	0.833987
C232	C	0.312362	-0.521410	1.333987
C233	C	-0.158914	-1.064724	0.810534
C234	C	0.341086	-0.564724	1.310534
C235	C	-0.158925	-1.064718	0.763618
C236	C	0.341075	-0.564718	1.263618
C237	C	-0.273835	-0.891437	0.763594
C238	C	0.226165	-0.391437	1.263594
C239	C	-0.273821	-0.891447	0.810509
C240	C	0.226179	-0.391447	1.310509
C241	C	-0.245089	-0.934772	0.833974
C242	C	0.254911	-0.434772	1.333974
H243	H	-0.164264	-0.720362	0.164427
H244	H	0.335736	-0.220362	0.664427
H245	H	-0.688470	-0.856131	0.297270
H246	H	-0.188470	-0.356131	0.797270
H247	H	-0.164207	-1.056730	1.045470
H248	H	0.335793	-0.556730	1.545470
H249	H	-0.268454	-0.899541	1.045436
H250	H	0.231546	-0.399541	1.545436
C251	C	-0.251597	-0.185632	0.305577
C252	C	0.248403	0.314368	0.805577
C253	C	-0.276892	-0.226232	0.276678
C254	C	0.223108	0.273768	0.776678
H255	H	-0.271125	-0.161644	0.325042
H256	H	0.228875	0.338356	0.825042
H257	H	-0.234465	-0.154478	0.288500
H258	H	0.265535	0.345522	0.788500
H259	H	-0.232051	-0.213246	0.322794
H260	H	0.267949	0.286754	0.822794
H261	H	-0.296435	-0.198618	0.259459
H262	H	0.203565	0.301382	0.759459
H263	H	-0.294031	-0.257390	0.293757
H264	H	0.205969	0.242610	0.793757
H265	H	-0.603271	-1.099900	0.135692
H266	H	-0.103271	-0.599900	0.635692
H267	H	-0.688377	-1.099944	0.135702
H268	H	-0.188377	-0.599944	0.635702
H269	H	-0.829137	-1.100006	0.135721
H270	H	-0.329137	-0.600006	0.635721
H271	H	-0.829225	-0.856198	0.297276
H272	H	-0.329225	-0.356198	0.797276
C273	C	-0.392232	-0.819931	0.266979
C274	C	0.107768	-0.319931	0.766979
C275	C	-0.380850	-0.886952	0.276709
C276	C	0.119150	-0.386952	0.776709
H277	H	-0.376320	-0.790538	0.286459
H278	H	0.123680	-0.290538	0.786459
H279	H	-0.423530	-0.813747	0.271092
H280	H	0.076470	-0.313747	0.771092
H281	H	-0.384558	-0.810054	0.236787
H282	H	0.115442	-0.310054	0.736787
H283	H	-0.388527	-0.896830	0.306900
H284	H	0.111473	-0.396830	0.806900
H285	H	-0.349545	-0.893139	0.272600
H286	H	0.150455	-0.393139	0.772600
C287	C	-0.098497	-1.074206	0.722548
C288	C	0.401503	-0.574206	1.222548
C289	C	-0.127360	-1.112333	0.695572
C290	C	0.372640	-0.612333	1.195572
H291	H	-0.078994	-1.103615	0.738461
H292	H	0.421006	-0.603615	1.238461
H293	H	-0.115598	-1.048424	0.743235
H294	H	0.384402	-0.548424	1.243235
H295	H	-0.081319	-1.044730	0.704241
H296	H	0.418681	-0.544730	1.204241
H297	H	-0.144541	-1.141806	0.713880
H298	H	0.355459	-0.641806	1.213880
H299	H	-0.110257	-1.138127	0.674883
H300	H	0.389743	-0.638127	1.174883
C301	C	-0.127187	-1.030911	0.926690
C302	C	0.372813	-0.530911	1.426690
C303	C	-0.156035	-1.069060	0.953663
C304	C	0.343965	-0.569060	1.453663
H305	H	-0.107693	-1.060307	0.910778
H306	H	0.392307	-0.560307	1.410778
H307	H	-0.110003	-1.001450	0.944995
H308	H	0.389997	-0.501450	1.444995
H309	H	-0.144303	-1.005113	0.905998
H310	H	0.355697	-0.505113	1.405998
H311	H	-0.138919	-1.094854	0.974358
H312	H	0.361081	-0.594854	1.474358
H313	H	-0.173221	-1.098533	0.935356
H314	H	0.326779	-0.598533	1.435356
H315	H	-0.297253	-0.856109	0.603735
H316	H	0.202747	-0.356109	1.103735
H317	H	-0.603361	-0.856103	0.297265
H318	H	-0.103361	-0.356103	0.797265
C319	C	-0.411261	-1.106849	0.131007
C320	C	0.088739	-0.606849	0.631007
C321	C	-0.380775	-1.068813	0.156193
C322	C	0.119225	-0.568813	0.656193
H323	H	-0.395332	-1.136242	0.111528
H324	H	0.104668	-0.636242	0.611528
H325	H	-0.429587	-1.077386	0.113806
H326	H	0.070413	-0.577386	0.613806
H327	H	-0.429536	-1.132724	0.150605
H328	H	0.070464	-0.632724	0.650605
H329	H	-0.362503	-1.042934	0.136594
H330	H	0.137497	-0.542934	0.636594
H331	H	-0.362441	-1.098280	0.173394
H332	H	0.137559	-0.598280	0.673394
H333	H	-0.164353	-1.056622	0.387953
H334	H	0.335647	-0.556622	0.887953
C335	C	-0.506181	-1.112341	0.181577
C336	C	-0.006181	-0.612341	0.681577
C337	C	-0.479251	-1.068882	0.156206
C338	C	0.020749	-0.568882	0.656206
H339	H	-0.522076	-1.141760	0.162100
H340	H	-0.022076	-0.641760	0.662100
H341	H	-0.526884	-1.086559	0.198663
H342	H	-0.026884	-0.586559	0.698663
H343	H	-0.487845	-1.138186	0.201169
H344	H	0.012155	-0.638186	0.701169
H345	H	-0.497588	-1.043034	0.136616
H346	H	0.002412	-0.543034	0.636616
H347	H	-0.458546	-1.094667	0.139113
H348	H	0.041454	-0.594667	0.639113
C349	C	-0.926239	-0.925338	0.305641
C350	C	-0.426239	-0.425338	0.805641
C351	C	-0.953251	-0.887213	0.276763
C352	C	-0.453251	-0.387213	0.776763
H353	H	-0.910341	-0.895928	0.325121
H354	H	-0.410341	-0.395928	0.825121
H355	H	-0.905540	-0.951117	0.288549
H356	H	-0.405540	-0.451117	0.788549
H357	H	-0.944521	-0.954818	0.322843
H358	H	-0.444521	-0.454818	0.822843
H359	H	-0.934968	-0.857737	0.259559
H360	H	-0.434968	-0.357737	0.759559
H361	H	-0.973953	-0.861423	0.293857
H362	H	-0.473953	-0.361423	0.793857
H363	H	-0.959861	-1.056744	0.164424
H364	H	-0.459861	-0.556744	0.664424
C365	C	-0.130820	-0.328731	0.131098
C366	C	0.369180	0.171269	0.631098
C367	C	-0.156073	-0.374672	0.156267
C368	C	0.343927	0.125328	0.656267
H369	H	-0.111292	-0.352723	0.111635
H370	H	0.388708	0.147277	0.611635
H371	H	-0.113671	-0.301185	0.150705
H372	H	0.386329	0.198815	0.650705
H373	H	-0.150374	-0.301135	0.113878
H374	H	0.349626	0.198865	0.613878
H375	H	-0.136519	-0.402265	0.173490
H376	H	0.363481	0.097735	0.673490
H377	H	-0.173223	-0.402229	0.136657
H378	H	0.326777	0.097771	0.636657
H379	H	-0.744018	-1.099970	0.135708
H380	H	-0.244018	-0.599970	0.635708
H381	H	-1.044984	-1.056781	0.164438
H382	H	-0.544984	-0.556781	0.664438
H383	H	-1.045037	-0.899595	0.268586
H384	H	-0.545037	-0.399595	0.768586
H385	H	-0.135570	-1.099975	0.603782
H386	H	0.364430	-0.599975	1.103782
C387	C	-0.330613	-0.805793	0.805774
C388	C	0.169387	-0.305793	1.305774
C389	C	-0.305396	-0.843821	0.836283
C390	C	0.194604	-0.343821	1.336283
H391	H	-0.350100	-0.776387	0.821685
H392	H	0.149900	-0.276387	1.321685
H393	H	-0.347805	-0.835261	0.787480
H394	H	0.152195	-0.335261	1.287480
H395	H	-0.311034	-0.779934	0.787470
H396	H	0.188966	-0.279934	1.287470
H397	H	-0.324974	-0.869685	0.854585
H398	H	0.175026	-0.369685	1.354585
H399	H	-0.288202	-0.814350	0.854585
H400	H	0.211798	-0.314350	1.354585
H401	H	-0.297233	-0.856157	0.744494
H402	H	0.202767	-0.356157	1.244494
H403	H	-0.164270	-0.592117	0.164434
H404	H	0.335730	-0.092117	0.664434
H405	H	-0.472650	-0.899336	0.268539
H406	H	0.027350	-0.399336	0.768539
C407	C	-0.767959	-0.805802	0.330632
C408	C	-0.267959	-0.305802	0.830632
C409	C	-0.737439	-0.843807	0.305441
C410	C	-0.237439	-0.343807	0.805441
H411	H	-0.752056	-0.776386	0.350104
H412	H	-0.252056	-0.276386	0.850104
H413	H	-0.786228	-0.835283	0.347838
H414	H	-0.286228	-0.335283	0.847838
H415	H	-0.786288	-0.779952	0.311035
H416	H	-0.286288	-0.279952	0.811035
H417	H	-0.719113	-0.869660	0.325038
H418	H	-0.219113	-0.369660	0.825038
H419	H	-0.719163	-0.814321	0.288233
H420	H	-0.219163	-0.314321	0.788233
C421	C	-0.130938	-1.106999	0.449249
C422	C	0.369062	-0.606999	0.949249
C423	C	-0.156140	-1.068981	0.479749
C424	C	0.343860	-0.568981	0.979749
H425	H	-0.111441	-1.136409	0.465169
H426	H	0.388559	-0.636409	0.965169
H427	H	-0.113757	-1.077526	0.430950
H428	H	0.386243	-0.577526	0.930950
H429	H	-0.150526	-1.132855	0.430949
H430	H	0.349474	-0.632855	0.930949
H431	H	-0.136552	-1.043122	0.498047
H432	H	0.363448	-0.543122	0.998047
H433	H	-0.173322	-1.098458	0.498056
H434	H	0.326678	-0.598458	0.998056
H435	H	-0.164278	-0.236359	0.164442
H436	H	0.335722	0.263641	0.664442
H437	H	-0.268468	-0.899516	0.960328
H438	H	0.231532	-0.399516	1.460328
H439	H	-0.297244	-0.856132	0.688844
H440	H	0.202756	-0.356132	1.188844
H441	H	-0.268578	-0.899437	0.473047
H442	H	0.231422	-0.399437	0.973047
H443	H	-0.268594	-0.899425	0.387924
H444	H	0.231406	-0.399425	0.887924
H445	H	-0.135536	-1.099995	0.744529
H446	H	0.364464	-0.599995	1.244529
C447	C	-0.082839	-1.097788	0.824993
C448	C	0.417161	-0.597788	1.324993
C449	C	-0.127328	-1.112347	0.836331
C450	C	0.372672	-0.612347	1.336331
H451	H	-0.063340	-1.127187	0.840919
H452	H	0.436660	-0.627187	1.340919
H453	H	-0.076266	-1.052323	0.832678
H454	H	0.423734	-0.552323	1.332678
H455	H	-0.078738	-1.103989	0.793695
H456	H	0.421262	-0.603989	1.293695
H457	H	-0.131430	-1.106140	0.867629
H458	H	0.368570	-0.606140	1.367629
H459	H	-0.133904	-1.157822	0.828649
H460	H	0.366096	-0.657822	1.328649
H461	H	-0.268684	-0.592074	0.268489
H462	H	0.231316	-0.092074	0.768489
C463	C	-0.267247	-0.713326	0.321162
C464	C	0.232753	-0.213326	0.821162
C465	C	-0.276880	-0.730380	0.276654
C466	C	0.223120	-0.230380	0.776654
H467	H	-0.286771	-0.737303	0.340624
H468	H	0.213229	-0.237303	0.840624
H469	H	-0.271368	-0.666172	0.325265
H470	H	0.228632	-0.166172	0.825265
H471	H	-0.237071	-0.724947	0.327785
H472	H	0.262929	-0.224947	0.827785
H473	H	-0.307055	-0.718754	0.270031
H474	H	0.192945	-0.218754	0.770031
H475	H	-0.272762	-0.777544	0.272549
H476	H	0.227238	-0.277544	0.772549
C477	C	-0.302142	-0.328657	0.301845
C478	C	0.197858	0.171343	0.801845
C479	C	-0.276886	-0.374619	0.276669
C480	C	0.223114	0.125381	0.776669
H481	H	-0.321664	-0.352633	0.321309
H482	H	0.178336	0.147367	0.821309
H483	H	-0.319298	-0.301063	0.282242
H484	H	0.180702	0.198937	0.782242
H485	H	-0.282590	-0.301111	0.319064
H486	H	0.217410	0.198889	0.819064
H487	H	-0.296438	-0.402162	0.259448
H488	H	0.203562	0.097838	0.759448
H489	H	-0.259728	-0.402225	0.296275
H490	H	0.240272	0.097775	0.796275
