data_functionalizedCrystal
_audit_creation_method	'MofGen! by Chris Wilmer'
_symmetry_space_group_name_H-M	'P1'
_symmetry_Int_Tables_number	1
_symmetry_cell_setting	triclinic
loop_
_symmetry_equiv_pos_as_xyz
  x,y,z
_cell_length_a	19.077105
_cell_length_b	19.077068
_cell_length_c	19.076919
_cell_angle_alpha	94.470751
_cell_angle_beta	90.076224
_cell_angle_gamma	90.115316
loop_
_atom_site_label
_atom_site_type_symbol
_atom_site_fract_x
_atom_site_fract_y
_atom_site_fract_z
Zn1	Zn	1.044048	-0.340450	-0.453500
Zn2	Zn	1.043962	-0.453600	-0.340340
Zn3	Zn	0.931660	-0.331023	-0.330931
Zn4	Zn	0.921801	-0.453176	-0.453077
O5	O	0.985368	-0.394562	-0.394462
O6	O	1.142196	-0.359583	-0.442604
O7	O	1.033154	-0.433572	-0.240616
O8	O	0.950731	-0.233799	-0.343429
O9	O	1.142133	-0.442714	-0.359466
O10	O	1.033302	-0.240725	-0.433479
O11	O	0.950647	-0.343516	-0.233703
O12	O	0.832193	-0.343104	-0.343019
O13	O	0.933928	-0.441990	-0.551609
O14	O	0.824949	-0.432849	-0.432759
O15	O	1.023742	-0.359171	-0.551919
O16	O	1.023594	-0.552019	-0.359056
O17	O	0.933844	-0.551707	-0.441883
C18	C	0.803119	-0.386908	-0.386822
C19	C	0.725151	-0.383651	-0.383571
C20	C	0.684769	-0.428912	-0.428699
C21	C	0.611510	-0.425842	-0.425647
C22	C	0.578634	-0.377515	-0.377464
C23	C	0.619022	-0.332250	-0.332335
C24	C	0.692280	-0.335317	-0.335390
C25	C	0.359940	-0.363323	-0.363326
C26	C	0.286677	-0.360262	-0.360273
C27	C	0.279170	-0.453853	-0.453586
C28	C	0.352429	-0.456918	-0.456635
C29	C	0.392810	-0.411651	-0.411508
N30	N	0.503752	-0.374378	-0.374342
N31	N	0.467691	-0.414785	-0.414634
C32	C	0.977658	-0.577398	-0.401461
C33	C	0.974423	-0.655619	-0.404482
C34	C	1.019665	-0.692509	-0.362816
C35	C	1.016626	-0.766007	-0.365661
C36	C	0.968342	-0.802612	-0.410169
C37	C	0.923098	-0.765717	-0.451839
C38	C	0.926141	-0.692221	-0.448997
C39	C	0.954231	-1.022406	-0.423292
C40	C	0.951190	-1.095907	-0.426130
C41	C	1.044720	-1.096192	-0.339952
C42	C	1.047755	-1.022695	-0.337111
C43	C	1.002514	-0.985806	-0.378784
N44	N	0.965233	-0.877738	-0.413077
N45	N	1.005627	-0.910681	-0.375880
C46	C	1.168328	-0.402247	-0.402132
C47	C	1.246295	-0.405522	-0.405400
C48	C	0.977745	-0.401585	-0.578012
C49	C	0.974497	-0.404578	-0.656230
C50	C	0.993126	-0.211015	-0.387451
C51	C	0.996432	-0.132798	-0.384464
C52	C	1.019730	-0.362866	-0.693140
C53	C	1.016669	-0.365675	-0.766634
C54	C	0.968378	-0.410200	-0.803216
C55	C	0.923140	-0.451913	-0.766301
C56	C	0.926198	-0.449100	-0.692809
C57	C	0.954216	-0.423233	-1.022998
C58	C	0.951163	-0.426044	-1.096496
C59	C	1.044691	-0.339805	-1.096823
C60	C	1.047748	-0.337000	-1.023329
C61	C	1.002507	-0.378710	-0.986421
N62	N	0.965250	-0.413073	-0.878339
N63	N	1.005632	-0.375832	-0.911299
C64	C	0.993003	-0.387518	-0.211626
C65	C	0.996396	-0.384333	-0.133406
H66	H	0.379191	-0.496273	-0.495869
O67	O	1.060629	-0.325257	-0.802575
C68	C	1.102481	-0.368847	-0.848514
H69	H	1.075033	-0.421560	-0.860518
H70	H	1.110932	-0.342553	-0.899495
H71	H	1.155321	-0.377674	-0.822678
H72	H	0.711530	-0.468267	-0.467932
O73	O	0.731538	-0.291283	-0.291650
C74	C	0.774179	-0.249214	-0.331818
H75	H	0.749992	-0.246151	-0.386167
H76	H	0.778340	-0.194082	-0.304415
H77	H	0.828685	-0.273390	-0.337355
H78	H	0.246283	-0.490707	-0.490327
O79	O	0.910332	-0.463852	-0.987196
C80	C	0.921928	-0.535320	-1.008488
H81	H	0.976980	-0.542012	-1.031164
H82	H	0.916404	-0.567983	-0.961233
H83	H	0.881777	-0.553757	-1.050283
O84	O	0.876134	-0.495084	-0.801796
C85	C	0.807620	-0.476091	-0.780303
H86	H	0.807295	-0.418951	-0.757808
H87	H	0.770699	-0.482550	-0.827411
H88	H	0.789465	-0.511415	-0.738312
O89	O	1.094676	-0.293685	-0.987902
C90	C	1.133957	-0.257483	-1.036241
H91	H	1.103150	-0.255843	-1.087330
H92	H	1.144668	-0.201541	-1.013203
H93	H	1.185817	-0.285791	-1.047278
O94	O	0.572387	-0.469888	-0.469506
C95	C	0.617113	-0.513194	-0.512693
H96	H	0.670425	-0.516659	-0.486135
H97	H	0.593307	-0.568051	-0.521336
H98	H	0.623773	-0.489893	-0.565530
O99	O	1.066661	-0.319554	-0.657714
C100	C	1.105939	-0.283353	-0.706056
H101	H	1.075130	-0.281716	-0.757144
H102	H	1.116648	-0.227410	-0.683020
H103	H	1.157799	-0.311659	-0.717093
O104	O	0.587124	-0.285207	-0.285602
C105	C	0.607353	-0.216438	-0.299150
H106	H	0.625311	-0.215968	-0.356083
H107	H	0.560890	-0.179415	-0.289802
H108	H	0.652214	-0.198323	-0.262521
O109	O	0.882164	-0.656302	-0.489369
C110	C	0.840300	-0.610422	-0.445732
H111	H	0.867749	-0.598411	-0.393034
H112	H	0.831827	-0.559438	-0.471998
H113	H	0.787471	-0.636315	-0.436877
H114	H	0.917392	-0.992377	-0.457223
H115	H	1.053467	-0.796040	-0.331732
H116	H	0.911836	-0.462303	-1.126280
H117	H	1.058980	-0.662710	-0.326570
O118	O	0.882337	-0.489729	-0.656987
C119	C	0.893949	-0.561194	-0.678279
H120	H	0.948994	-0.567869	-0.700978
H121	H	0.888458	-0.593856	-0.631019
H122	H	0.853786	-0.579648	-0.720056
O123	O	0.876215	-0.801380	-0.495013
C124	C	0.883239	-0.874162	-0.488600
H125	H	0.908096	-0.883092	-0.435664
H126	H	0.829338	-0.900111	-0.492208
H127	H	0.917963	-0.898134	-0.532740
O128	O	1.088559	-0.299310	-1.132784
C129	C	1.075520	-0.311350	-1.205496
H130	H	1.019996	-0.332509	-1.214142
H131	H	1.081342	-0.259907	-1.231612
H132	H	1.114677	-0.351368	-1.229530
O133	O	0.254853	-0.313249	-0.313446
C134	C	0.306202	-0.273964	-0.274259
H135	H	0.357333	-0.274857	-0.305173
H136	H	0.287673	-0.217339	-0.263840
H137	H	0.315124	-0.297926	-0.222077
H138	H	1.087072	-0.992892	-0.300869
H139	H	0.392810	-0.326468	-0.326576
H140	H	1.081554	-1.126235	-0.306026
O141	O	0.904360	-1.131445	-0.469473
C142	C	0.917460	-1.116761	-0.539566
H143	H	0.974183	-1.098993	-0.544727
H144	H	0.907953	-1.166165	-0.575937
H145	H	0.880838	-1.073253	-0.554714
