data_functionalizedCrystal
_audit_creation_method	'MofGen! by Chris Wilmer'
_symmetry_space_group_name_H-M	'P1'
_symmetry_Int_Tables_number	1
_symmetry_cell_setting	triclinic
loop_
_symmetry_equiv_pos_as_xyz
  x,y,z
_cell_length_a	14.519731
_cell_length_b	15.995292
_cell_length_c	12.996460
_cell_angle_alpha	89.997047
_cell_angle_beta	89.994327
_cell_angle_gamma	83.578735
loop_
_atom_site_label
_atom_site_type_symbol
_atom_site_fract_x
_atom_site_fract_y
_atom_site_fract_z
O1	O	1.223632	0.109848	-0.085562
O2	O	1.556965	0.443181	0.247772
O3	O	1.890299	0.776515	0.581105
O4	O	0.955131	0.122755	-0.085562
O5	O	1.288465	0.456089	0.247771
O6	O	1.621798	0.789422	0.581104
O7	O	1.096749	-0.005578	-0.085563
O8	O	1.430082	0.327756	0.247770
O9	O	1.763416	0.661089	0.581103
O10	O	1.082014	0.238181	-0.085560
O11	O	1.415347	0.571514	0.247773
O12	O	1.748681	0.904848	0.581106
O13	O	1.096734	-0.005585	0.085570
O14	O	1.430068	0.327748	0.418904
O15	O	1.763401	0.661082	0.752237
O16	O	0.955117	0.122748	0.085572
O17	O	1.288450	0.456081	0.418905
O18	O	1.621783	0.789415	0.752238
O19	O	1.223617	0.109841	0.085572
O20	O	1.556951	0.443174	0.418906
O21	O	1.890284	0.776508	0.752239
Cu22	Cu	1.089366	0.116294	0.101198
Cu23	Cu	1.422699	0.449627	0.434531
Cu24	Cu	1.756032	0.782961	0.767864
Cu25	Cu	1.089383	0.116302	-0.101188
Cu26	Cu	1.422716	0.449636	0.232146
Cu27	Cu	1.756050	0.782969	0.565479
O28	O	1.081999	0.238174	0.085573
O29	O	1.415333	0.571507	0.418907
O30	O	1.748666	0.904841	0.752240
C31	C	0.920766	0.122147	0.000004
C32	C	1.254099	0.455480	0.333338
C33	C	1.587432	0.788814	0.666671
C34	C	0.818389	0.120335	0.000004
C35	C	1.151722	0.453668	0.333337
C36	C	1.485056	0.787001	0.666671
C37	C	0.735248	0.118862	-0.000000
C38	C	1.068581	0.452195	0.333333
C39	C	1.401915	0.785529	0.666666
C40	C	0.630943	0.117022	-0.000001
C41	C	0.964276	0.450355	0.333333
C42	C	1.297610	0.783689	0.666666
C43	C	0.547807	0.115562	-0.000001
C44	C	0.881140	0.448895	0.333333
C45	C	1.214474	0.782228	0.666666
C46	C	0.443495	0.113722	-0.000003
C47	C	0.776829	0.447055	0.333330
C48	C	1.110162	0.780389	0.666664
C49	C	1.096142	-0.036778	0.000001
C50	C	1.429475	0.296555	0.333334
C51	C	1.762809	0.629889	0.666668
C52	C	1.094344	-0.129734	-0.000007
C53	C	1.427677	0.203600	0.333326
C54	C	1.761011	0.536933	0.666660
C55	C	1.087734	-0.467482	0.000003
C56	C	1.421068	-0.134149	0.333336
C57	C	1.754401	0.199184	0.666669
C58	C	1.189950	-0.444010	0.000385
C59	C	1.523284	-0.110677	0.333718
C60	C	1.856617	0.222657	0.667052
C61	C	1.191893	-0.347331	-0.000004
C62	C	1.525226	-0.013998	0.333329
C63	C	1.858560	0.319335	0.666662
C64	C	1.091014	-0.299921	-0.000002
C65	C	1.424347	0.033412	0.333332
C66	C	1.757681	0.366745	0.666665
C67	C	1.039919	-0.329098	-0.097724
C68	C	1.373253	0.004235	0.235609
C69	C	1.706586	0.337568	0.568942
C70	C	1.038689	-0.425891	-0.097802
C71	C	1.372022	-0.092558	0.235531
C72	C	1.705356	0.240776	0.568864
C73	C	1.036585	-0.425759	0.096809
C74	C	1.369918	-0.092426	0.430142
C75	C	1.703251	0.240907	0.763475
C76	C	1.040373	-0.329261	0.098097
C77	C	1.373706	0.004072	0.431430
C78	C	1.707039	0.337406	0.764763
C79	C	1.092862	-0.205222	-0.000007
C80	C	1.426196	0.128111	0.333326
C81	C	1.759529	0.461444	0.666659
C82	C	1.085883	-0.562181	0.000001
C83	C	1.419216	-0.228848	0.333335
C84	C	1.752550	0.104486	0.666668
C85	C	1.257983	0.110449	0.000003
C86	C	1.591316	0.443783	0.333337
C87	C	1.924649	0.777116	0.666670
C88	C	1.360359	0.112261	-0.000003
C89	C	1.693693	0.445595	0.333330
C90	C	2.027026	0.778928	0.666664
C91	C	1.082606	0.269374	0.000007
C92	C	1.415940	0.602707	0.333340
C93	C	1.749273	0.936041	0.666674
C94	C	1.084404	0.362330	0.000008
C95	C	1.417738	0.695663	0.333341
C96	C	1.751071	1.028996	0.666675
N97	N	1.089360	0.116287	0.243545
N98	N	1.422693	0.449621	0.576878
N99	N	1.756027	0.782954	0.910212
N100	N	1.089396	0.116302	-0.243535
N101	N	1.422729	0.449635	0.089798
N102	N	1.756062	0.782969	0.423132
C103	C	1.089382	0.116303	0.663359
C104	C	1.422715	0.449636	0.996693
C105	C	1.756048	0.782970	1.330026
C106	C	1.089373	0.116302	0.546554
C107	C	1.422706	0.449635	0.879887
C108	C	1.756040	0.782968	1.213221
C109	C	1.089371	0.116296	0.453456
C110	C	1.422705	0.449629	0.786789
C111	C	1.756038	0.782963	1.120122
C112	C	1.089362	0.116293	0.336643
C113	C	1.422695	0.449626	0.669977
C114	C	1.756028	0.782960	1.003310
H115	H	1.231910	-0.328246	0.070046
H116	H	1.565243	0.005087	0.403379
H117	H	1.898576	0.338420	0.736712
Br118	Br	0.913780	-0.450344	-0.105197
Br119	Br	1.247114	-0.117010	0.228136
Br120	Br	1.580447	0.216323	0.561469
Br121	Br	1.255614	-0.490572	0.117195
Br122	Br	1.588948	-0.157239	0.450528
Br123	Br	1.922281	0.176094	0.783861
Br124	Br	1.102374	-0.298219	0.218597
Br125	Br	1.435707	0.035114	0.551931
Br126	Br	1.769041	0.368447	0.885264
H127	H	0.965686	-0.297347	-0.101355
H128	H	1.299019	0.035986	0.231978
H129	H	1.632353	0.369320	0.565311
H130	H	0.961346	-0.439868	0.097469
H131	H	1.294679	-0.106534	0.430802
H132	H	1.628013	0.226799	0.764136
H133	H	1.074087	-0.452649	-0.170854
H134	H	1.407420	-0.119315	0.162479
H135	H	1.740754	0.214018	0.495813
Br136	Br	1.099076	-0.295571	-0.218944
Br137	Br	1.432409	0.037762	0.114389
Br138	Br	1.765743	0.371096	0.447722
H139	H	0.966741	-0.296407	0.104000
H140	H	1.300074	0.036926	0.437334
H141	H	1.633407	0.370260	0.770667
Br142	Br	1.089870	-0.472849	0.220263
Br143	Br	1.423203	-0.139516	0.553597
Br144	Br	1.756537	0.193818	0.886930
H145	H	1.229136	-0.472963	-0.069303
H146	H	1.562470	-0.139630	0.264031
H147	H	1.895803	0.193703	0.597364
H148	H	1.232158	-0.328861	-0.070178
H149	H	1.565491	0.004473	0.263155
H150	H	1.898824	0.337806	0.596489
