data_functionalizedCrystal
_audit_creation_method	'MofGen! by Chris Wilmer'
_symmetry_space_group_name_H-M	'P1'
_symmetry_Int_Tables_number	1
_symmetry_cell_setting	triclinic
loop_
_symmetry_equiv_pos_as_xyz
  x,y,z
_cell_length_a	20.919309
_cell_length_b	20.919309
_cell_length_c	23.196401
_cell_angle_alpha	57.439314
_cell_angle_beta	90.004269
_cell_angle_gamma	60.099716
loop_
_atom_site_label
_atom_site_type_symbol
_atom_site_fract_x
_atom_site_fract_y
_atom_site_fract_z
Zr1	Zr	0.668060	0.648707	-0.074988
O2	O	0.567404	0.790134	-0.175540
O3	O	0.695172	0.513025	-0.041055
O4	O	0.700547	0.646192	-0.165819
O5	O	0.562048	0.656947	0.044104
O6	O	0.809832	0.637673	-0.161686
O7	O	0.562029	0.656967	-0.050776
O8	O	0.800218	0.399461	0.061494
O9	O	0.571663	0.895159	-0.179076
O10	O	0.792817	0.560347	-0.027254
O11	O	0.711274	0.566690	0.040470
O12	O	0.717602	0.723478	-0.106424
O13	O	0.636058	0.729821	-0.038700
Zr14	Zr	0.842388	0.635089	0.082926
Zr15	Zr	0.842357	0.635120	-0.068397
Zr16	Zr	0.668091	0.648676	0.076335
Zr17	Zr	0.674853	0.816210	-0.080627
Zr18	Zr	0.835595	0.467586	0.088566
O19	O	0.815276	0.770771	0.048993
O20	O	0.815231	0.770816	-0.166169
O21	O	0.567448	0.790090	0.039621
O22	O	0.943044	0.493662	0.183479
O23	O	0.943000	0.493706	-0.031683
O24	O	0.695217	0.512980	0.174107
O25	O	0.948400	0.626849	-0.036165
O26	O	0.809901	0.637604	0.173757
O27	O	0.700616	0.646123	0.169625
O28	O	0.948419	0.626829	0.058715
O29	O	0.710205	0.884360	-0.173837
O30	O	0.800242	0.399436	0.181776
O31	O	0.938785	0.388637	0.187015
O32	O	0.938761	0.388661	0.066733
O33	O	0.571687	0.895134	-0.058795
O34	O	0.710230	0.884335	-0.053556
O35	O	0.792846	0.560318	0.114362
O36	O	0.874390	0.553975	0.046639
O37	O	0.799174	0.717106	-0.032531
O38	O	0.717631	0.723448	0.035192
C39	C	0.746727	0.432377	0.011023
C40	C	0.743844	0.361268	0.013418
C41	C	0.785052	0.324550	-0.020809
C42	C	0.782344	0.257730	-0.018553
C43	C	0.738423	0.227635	0.017926
C44	C	0.697214	0.264356	0.052157
C45	C	0.699927	0.331169	0.049905
C46	C	0.728108	0.026062	0.026500
C47	C	0.725396	-0.040754	0.028748
C48	C	0.810528	-0.047376	-0.041961
C49	C	0.813233	0.019443	-0.044214
C50	C	0.772027	0.056154	-0.009980
C51	C	0.735653	0.159337	0.020232
C52	C	0.774803	0.124446	-0.012281
C53	C	0.537205	0.658893	-0.004275
C54	C	0.463211	0.664661	-0.007073
C55	C	0.467709	0.582221	0.032934
C56	C	0.398181	0.587646	0.030303
C57	C	0.324157	0.675512	-0.012340
C58	C	0.319662	0.757959	-0.052349
C59	C	0.389188	0.752533	-0.049713
C60	C	0.112268	0.696155	-0.022361
C61	C	0.042739	0.701575	-0.024995
C62	C	0.121264	0.531262	0.057658
C63	C	0.190788	0.525843	0.060286
C64	C	0.186287	0.608290	0.020280
C65	C	0.253088	0.681060	-0.015032
C66	C	0.257355	0.602741	0.022977
C67	C	0.973243	0.624903	0.012214
C68	C	1.047237	0.619135	0.015012
C69	C	0.755185	0.641937	-0.185313
C70	C	0.755172	0.641950	-0.249553
C71	C	0.763721	0.851418	-0.003085
C72	C	0.766604	0.922528	-0.005479
C73	C	0.815380	0.637259	-0.277440
C74	C	0.815397	0.637239	-0.337785
C75	C	0.755195	0.641930	-0.370251
C76	C	0.694981	0.646617	-0.342355
C77	C	0.694970	0.646627	-0.282006
C78	C	0.683853	0.700238	-0.494181
C79	C	0.683864	0.700234	-0.554532
C80	C	0.755229	0.641895	-0.556385
C81	C	0.826589	0.583573	-0.497885
C82	C	0.826577	0.583583	-0.437536
C83	C	0.755201	0.641919	-0.435689
C84	C	0.815461	0.637181	-0.649703
C85	C	0.815479	0.637156	-0.710047
C86	C	0.695056	0.646544	-0.714621
C87	C	0.695045	0.646559	-0.654273
C88	C	0.755247	0.641882	-0.621821
C89	C	0.755263	0.641859	0.193251
C90	C	0.755276	0.641845	0.257492
C91	C	0.964746	0.415382	0.019268
C92	C	1.035856	0.338505	0.024460
C93	C	0.746766	0.432338	0.200305
C94	C	0.743896	0.361216	0.266940
C95	C	0.964785	0.415343	0.208550
C96	C	1.035908	0.338453	0.277983
C97	C	0.545663	0.868453	-0.200611
C98	C	0.474540	0.945343	-0.270044
C99	C	0.545702	0.868413	-0.011329
C100	C	0.474592	0.945291	-0.016522
C101	C	0.763682	0.851458	-0.192367
C102	C	0.766552	0.922580	-0.259001
C103	C	1.026670	0.305729	-0.011679
C104	C	1.093479	0.233504	-0.006815
C105	C	1.169473	0.194053	0.034193
C106	C	1.178658	0.226835	0.070333
C107	C	1.111850	0.299063	0.065464
C108	C	0.785128	0.324489	0.336810
C109	C	0.782428	0.257672	0.399425
C110	C	0.738500	0.227577	0.392170
C111	C	0.697263	0.264310	0.322293
C112	C	0.699959	0.331131	0.259679
C113	C	1.111881	0.299033	0.275238
C114	C	1.178715	0.226794	0.340472
C115	C	1.169576	0.193973	0.408449
C116	C	1.093595	0.233401	0.411192
C117	C	1.026763	0.305642	0.345959
C118	C	0.398568	0.984772	-0.267300
C119	C	0.331734	1.057030	-0.332534
C120	C	0.340873	1.089855	-0.400512
C121	C	0.416854	1.050423	-0.403254
C122	C	0.483686	0.978170	-0.338021
C123	C	0.483778	0.978074	0.019611
C124	C	0.416970	1.050317	0.014730
C125	C	0.340976	1.089771	-0.026280
C126	C	0.331791	1.056985	-0.062417
C127	C	0.398599	0.984748	-0.057540
C128	C	0.810488	0.952654	-0.251722
C129	C	0.813200	1.019471	-0.314326
C130	C	0.771973	1.056218	-0.384208
C131	C	0.728036	1.026139	-0.391486
C132	C	0.725328	0.959318	-0.328882
H133	H	0.694558	0.055941	0.054379
H134	H	0.401850	0.520514	0.062883
H135	H	0.391111	0.958051	-0.211955
H136	H	0.385522	0.819664	-0.082283
H137	H	0.964798	0.337850	-0.045080
H138	H	0.424286	1.077159	-0.458609
H139	H	0.964905	0.337729	0.348204
H140	H	0.625734	0.747736	-0.492677
H141	H	0.269908	1.089120	-0.095807
H142	H	0.286583	1.148591	-0.030246
H143	H	0.774184	1.110628	-0.435178
H144	H	0.816011	0.227771	0.456316
H145	H	0.646041	0.650358	-0.741051
H146	H	-0.017536	0.773130	-0.059724
H147	H	0.844061	0.922744	-0.194827
H148	H	1.240542	0.194703	0.103720
H149	H	0.269874	1.089124	-0.330287
O150	O	0.735752	0.162785	0.452967
C151	C	0.656522	0.201697	0.448717
H152	H	0.620394	0.281690	0.410504
H153	H	0.654621	0.175510	0.505877
H154	H	0.630484	0.179355	0.426333
O155	O	1.120919	0.330752	0.100651
C156	C	1.202322	0.280450	0.137873
H157	H	1.236642	0.209847	0.148855
H158	H	1.211571	0.268147	0.192327
H159	H	1.224577	0.322679	0.102536
H160	H	0.286448	1.148688	-0.453623
O161	O	0.125734	0.451114	0.096631
C162	C	0.166596	0.397989	0.172081
H163	H	0.205915	0.418263	0.178798
H164	H	0.204890	0.319903	0.198812
H165	H	0.122028	0.412843	0.199645
O166	O	1.084617	0.201510	0.477185
C167	C	1.040188	0.166169	0.484621
H168	H	1.003018	0.199357	0.427822
H169	H	0.999473	0.184019	0.514325
H170	H	1.082147	0.086556	0.517727
O171	O	0.873841	0.632599	-0.245748
C172	C	0.840326	0.713053	-0.249758
H173	H	0.780184	0.772507	-0.296809
H174	H	0.881270	0.735749	-0.259922
H175	H	0.832423	0.695962	-0.195786
O176	O	0.855884	1.048618	-0.307119
C177	C	0.891694	1.001844	-0.232013
H178	H	0.857181	0.976915	-0.200174
H179	H	0.891431	1.052140	-0.225369
H180	H	0.955425	0.938656	-0.209764
H181	H	1.085985	0.206822	-0.036245
H182	H	0.848996	0.043945	-0.073918
O183	O	0.426042	1.082011	0.049913
C184	C	0.507444	1.031699	0.087146
H185	H	0.541760	0.961091	0.098137
H186	H	0.516684	1.019408	0.141596
H187	H	0.529711	1.073914	0.051813
H188	H	0.661458	0.239842	0.081863
O189	O	1.234282	0.123864	0.038873
C190	C	1.209869	0.103417	-0.001834
H191	H	1.146439	0.126839	-0.007653
H192	H	1.250725	0.024473	0.027957
H193	H	1.212701	0.142400	-0.058721
O194	O	0.682938	-0.070224	0.064378
C195	C	0.712789	-0.111353	0.139006
H196	H	0.776828	-0.136304	0.155107
H197	H	0.710314	-0.173864	0.174576
H198	H	0.675364	-0.057153	0.147683
H199	H	0.545544	0.946068	-0.340264
H200	H	0.317628	0.531201	0.057700
H201	H	0.864428	0.633418	-0.360494
O202	O	0.262714	0.440513	0.101601
C203	C	0.305281	0.432300	0.055938
H204	H	0.262045	0.482260	-0.003019
H205	H	0.340797	0.356926	0.075853
H206	H	0.347422	0.451073	0.058057
O207	O	0.654479	0.235210	0.315211
C208	C	0.574255	0.312977	0.272421
H209	H	0.561468	0.370963	0.274951
H210	H	0.534731	0.290467	0.294773
H211	H	0.561694	0.340384	0.212941
H212	H	0.820812	0.349053	-0.050518
O213	O	0.827802	0.353654	0.343996
C214	C	0.863619	0.306890	0.419098
H215	H	0.829118	0.281948	0.450948
H216	H	0.863345	0.357198	0.425732
H217	H	0.927354	0.243712	0.441342
O218	O	0.389526	0.952980	-0.092653
C219	C	0.308125	1.003314	-0.129904
H220	H	0.272183	1.033736	-0.103240
H221	H	0.296387	0.953957	-0.126589
H222	H	0.289981	1.062949	-0.190003
H223	H	0.545651	0.945956	0.053010
O224	O	0.688104	1.061822	-0.459405
C225	C	0.742095	1.041226	-0.493906
H226	H	0.797804	1.028510	-0.468441
H227	H	0.713614	1.103005	-0.555157
H228	H	0.758523	0.975512	-0.486021
O229	O	0.636474	0.651174	-0.627298
C230	C	0.583351	0.655287	-0.668879
H231	H	0.587374	0.683477	-0.725585
H232	H	0.520327	0.703926	-0.675060
H233	H	0.599394	0.581785	-0.639619
H234	H	0.666385	0.361025	0.202790
O235	O	0.850540	-0.083170	-0.075143
C236	C	0.838715	-0.148578	-0.065350
H237	H	0.821860	-0.176584	-0.015040
H238	H	0.895694	-0.209410	-0.056980
H239	H	0.789032	-0.112633	-0.116111
O240	O	0.682573	0.930249	-0.336092
C241	C	0.646784	0.977004	-0.411197
H242	H	0.641114	1.045378	-0.445973
H243	H	0.585398	0.993362	-0.422351
H244	H	0.684897	0.930079	-0.425998
O245	O	1.252476	0.188665	0.337695
C246	C	1.264256	0.259291	0.298392
H247	H	1.204367	0.331007	0.260475
H248	H	1.300388	0.246386	0.264218
H249	H	1.297539	0.257590	0.338701
O250	O	0.822386	0.222194	-0.051871
C251	C	0.861743	0.263073	-0.084540
H252	H	0.831097	0.333399	-0.095400
H253	H	0.859901	0.274778	-0.138708
H254	H	0.926055	0.214099	-0.045933
H255	H	0.884680	0.536093	-0.389907
H256	H	1.119337	0.325744	0.219894
H257	H	0.645964	0.650435	-0.368790
O258	O	0.659820	0.366778	0.083160
C259	C	0.620487	0.325874	0.115855
H260	H	0.610932	0.299005	0.087474
H261	H	0.560678	0.380819	0.109840
H262	H	0.658044	0.264723	0.176687
H263	H	0.645940	0.650448	-0.259301
H264	H	0.864511	0.633329	-0.732750
O265	O	0.817524	0.153659	-0.047610
C266	C	0.876637	0.132643	0.002653
H267	H	0.858422	0.125702	0.050910
H268	H	0.884187	0.191598	-0.025963
H269	H	0.935102	0.063639	0.023655
O270	O	0.693131	0.129884	0.055732
C271	C	0.744061	0.031990	0.112814
H272	H	0.798942	-0.000639	0.100323
H273	H	0.711827	-0.000278	0.117284
H274	H	0.762597	0.017729	0.166990
O275	O	0.539659	0.496920	0.074409
C276	C	0.582224	0.488668	0.128081
H277	H	0.558557	0.561786	0.109150
H278	H	0.647730	0.448812	0.136258
H279	H	0.574806	0.448731	0.182236
H280	H	0.108592	0.763289	-0.054949
H281	H	0.192810	0.752601	-0.049752
H282	H	0.259385	0.829501	-0.087066
H283	H	0.884701	0.536068	-0.499390
O284	O	1.234418	0.123833	0.471883
C285	C	1.210069	0.103294	0.532476
H286	H	1.148267	0.166886	0.514237
H287	H	1.253446	0.085985	0.577222
H288	H	1.208803	0.040403	0.554967
O289	O	0.874021	0.632581	-0.618236
C290	C	0.927162	0.628449	-0.655800
H291	H	0.923157	0.600240	-0.685130
H292	H	0.990179	0.579816	-0.614745
H293	H	0.911124	0.701947	-0.697898
H294	H	0.625760	0.747727	-0.602161
