data_functionalizedCrystal
_audit_creation_method	'MofGen! by Chris Wilmer'
_symmetry_space_group_name_H-M	'P1'
_symmetry_Int_Tables_number	1
_symmetry_cell_setting	triclinic
loop_
_symmetry_equiv_pos_as_xyz
  x,y,z
_cell_length_a	16.625548
_cell_length_b	10.686285
_cell_length_c	16.625539
_cell_angle_alpha	94.392139
_cell_angle_beta	89.979432
_cell_angle_gamma	94.367355
loop_
_atom_site_label
_atom_site_type_symbol
_atom_site_fract_x
_atom_site_fract_y
_atom_site_fract_z
Zn1	Zn	1.257390	0.502308	-0.431351
Zn2	Zn	1.507390	0.752308	-0.181351
Zn3	Zn	1.757390	1.002308	0.068649
Zn4	Zn	2.007390	1.252308	0.318649
Zn5	Zn	1.267674	0.713328	-0.286201
Zn6	Zn	1.517674	0.963328	-0.036201
Zn7	Zn	1.767674	1.213328	0.213799
Zn8	Zn	2.017674	1.463328	0.463799
Zn9	Zn	1.122554	0.502356	-0.296529
Zn10	Zn	1.372554	0.752356	-0.046529
Zn11	Zn	1.622554	1.002356	0.203471
Zn12	Zn	1.872554	1.252356	0.453471
Zn13	Zn	1.132899	0.713256	-0.420995
Zn14	Zn	1.382899	0.963256	-0.170995
Zn15	Zn	1.632899	1.213256	0.079005
Zn16	Zn	1.882899	1.463256	0.329005
O17	O	1.195129	0.607812	-0.358769
O18	O	1.445129	0.857812	-0.108769
O19	O	1.695129	1.107812	0.141231
O20	O	1.945129	1.357812	0.391231
O21	O	1.371587	0.530310	-0.412109
O22	O	1.621587	0.780310	-0.162109
O23	O	1.871587	1.030310	0.087891
O24	O	2.121587	1.280310	0.337891
O25	O	1.248398	0.685393	-0.174736
O26	O	1.498398	0.935393	0.075264
O27	O	1.748398	1.185393	0.325264
O28	O	1.998398	1.435393	0.575264
O29	O	1.131807	0.325774	-0.323070
O30	O	1.381807	0.575774	-0.073070
O31	O	1.631807	0.825774	0.176930
O32	O	1.881807	1.075774	0.426930
O33	O	1.379142	0.685346	-0.305468
O34	O	1.629142	0.935346	-0.055468
O35	O	1.879142	1.185346	0.194532
O36	O	2.129142	1.435346	0.444532
O37	O	1.230871	0.325739	-0.422123
O38	O	1.480871	0.575739	-0.172123
O39	O	1.730871	0.825739	0.077877
O40	O	1.980871	1.075739	0.327877
O41	O	1.141779	0.530392	-0.182324
O42	O	1.391779	0.780392	0.067676
O43	O	1.641779	1.030392	0.317676
O44	O	1.891779	1.280392	0.567676
O45	O	1.011094	0.530322	-0.313028
O46	O	1.261094	0.780322	-0.063028
O47	O	1.511094	1.030322	0.186972
O48	O	1.761094	1.280322	0.436972
O49	O	1.149439	0.685223	-0.535203
O50	O	1.399439	0.935223	-0.285203
O51	O	1.649439	1.185223	-0.035203
O52	O	1.899439	1.435223	0.214797
O53	O	1.018694	0.685269	-0.404472
O54	O	1.268694	0.935269	-0.154472
O55	O	1.518694	1.185269	0.095528
O56	O	1.768694	1.435269	0.345528
O57	O	1.240902	0.530240	-0.542812
O58	O	1.490902	0.780240	-0.292812
O59	O	1.740902	1.030240	-0.042812
O60	O	1.990902	1.280240	0.207188
O61	O	1.258429	0.889894	-0.295425
O62	O	1.508429	1.139894	-0.045425
O63	O	1.758429	1.389894	0.204575
O64	O	2.008429	1.639894	0.454575
O65	O	1.159410	0.889841	-0.394458
O66	O	1.409410	1.139841	-0.144458
O67	O	1.659410	1.389841	0.105542
O68	O	1.909410	1.639841	0.355542
C69	C	1.211180	0.935651	-0.342715
C70	C	1.461180	1.185651	-0.092715
C71	C	1.711180	1.435651	0.157285
C72	C	1.961180	1.685651	0.407285
C73	C	1.218120	1.075902	-0.335873
C74	C	1.468120	1.325902	-0.085873
C75	C	1.718120	1.575902	0.164127
C76	C	1.968120	1.825902	0.414127
C77	C	0.985637	0.607794	-0.358747
C78	C	1.235637	0.857794	-0.108747
C79	C	1.485637	1.107794	0.141253
C80	C	1.735637	1.357794	0.391253
C81	C	0.896017	0.607817	-0.358756
C82	C	1.146017	0.857817	-0.108756
C83	C	1.396017	1.107817	0.141244
C84	C	1.646017	1.357817	0.391244
C85	C	1.195177	0.607718	-0.569083
C86	C	1.445177	0.857718	-0.319083
C87	C	1.695177	1.107718	-0.069083
C88	C	1.945177	1.357718	0.180917
C89	C	1.195197	0.607678	-0.658706
C90	C	1.445197	0.857678	-0.408706
C91	C	1.695197	1.107678	-0.158706
C92	C	1.945197	1.357678	0.091294
C93	C	0.567842	0.607825	-0.358790
C94	C	0.817842	0.857825	-0.108790
C95	C	1.067842	1.107825	0.141210
C96	C	1.317842	1.357825	0.391210
C97	C	0.659150	0.607819	-0.358778
C98	C	0.909150	0.857819	-0.108778
C99	C	1.159150	1.107819	0.141222
C100	C	1.409150	1.357819	0.391222
C101	C	0.731927	0.607821	-0.358772
C102	C	0.981927	0.857821	-0.108772
C103	C	1.231927	1.107821	0.141228
C104	C	1.481927	1.357821	0.391228
C105	C	0.823241	0.607814	-0.358762
C106	C	1.073241	0.857814	-0.108762
C107	C	1.323241	1.107814	0.141238
C108	C	1.573241	1.357814	0.391238
C109	C	1.405439	0.607831	-0.358791
C110	C	1.655439	0.857831	-0.108791
C111	C	1.905439	1.107831	0.141209
C112	C	2.155439	1.357831	0.391209
C113	C	1.495061	0.607839	-0.358801
C114	C	1.745061	0.857839	-0.108801
C115	C	1.995061	1.107839	0.141199
C116	C	2.245061	1.357839	0.391199
C117	C	1.179038	0.278693	-0.374904
C118	C	1.429038	0.528693	-0.124904
C119	C	1.679038	0.778693	0.125096
C120	C	1.929038	1.028693	0.375096
C121	C	1.172181	0.138442	-0.381780
C122	C	1.422181	0.388442	-0.131780
C123	C	1.672181	0.638442	0.118220
C124	C	1.922181	0.888442	0.368220
C125	C	1.195228	0.607537	-0.986889
C126	C	1.445228	0.857537	-0.736889
C127	C	1.695228	1.107537	-0.486889
C128	C	1.945228	1.357537	-0.236889
C129	C	1.195217	0.607580	-0.895578
C130	C	1.445217	0.857580	-0.645578
C131	C	1.695217	1.107580	-0.395578
C132	C	1.945217	1.357580	-0.145578
C133	C	1.195213	0.607608	-0.822800
C134	C	1.445213	0.857608	-0.572800
C135	C	1.695213	1.107608	-0.322800
C136	C	1.945213	1.357608	-0.072800
C137	C	1.195202	0.607650	-0.731484
C138	C	1.445202	0.857650	-0.481484
C139	C	1.695202	1.107650	-0.231484
C140	C	1.945202	1.357650	0.018516
C141	C	1.195124	0.607815	-0.149278
C142	C	1.445124	0.857815	0.100722
C143	C	1.695124	1.107815	0.350722
C144	C	1.945124	1.357815	0.600722
C145	C	1.195242	0.607499	-0.059673
C146	C	1.445242	0.857499	0.190327
C147	C	1.695242	1.107499	0.440327
C148	C	1.945242	1.357499	0.690327
H149	H	1.127541	1.084689	-0.426317
H150	H	1.377541	1.334689	-0.176317
H151	H	1.627541	1.584689	0.073683
H152	H	1.877541	1.834689	0.323683
H153	H	1.262758	1.129662	-0.291328
H154	H	1.512758	1.379662	-0.041328
H155	H	1.762758	1.629662	0.208672
H156	H	2.012758	1.879662	0.458672
