data_functionalizedCrystal
_audit_creation_method	'MofGen! by Chris Wilmer'
_symmetry_space_group_name_H-M	'P1'
_symmetry_Int_Tables_number	1
_symmetry_cell_setting	triclinic
loop_
_symmetry_equiv_pos_as_xyz
  x,y,z
_cell_length_a	18.101395
_cell_length_b	12.759401
_cell_length_c	12.759393
_cell_angle_alpha	90.019322
_cell_angle_beta	89.966555
_cell_angle_gamma	89.970982
loop_
_atom_site_label
_atom_site_type_symbol
_atom_site_fract_x
_atom_site_fract_y
_atom_site_fract_z
Zn1	Zn	-0.294827	-1.606136	-0.593991
Zn2	Zn	-0.418689	-1.605980	-0.418305
Zn3	Zn	-0.294861	-1.430438	-0.418328
Zn4	Zn	-0.418627	-1.430376	-0.593944
O5	O	-0.356751	-1.518232	-0.506142
O6	O	-0.311269	-1.753136	-0.570696
O7	O	-0.402303	-1.582654	-0.271287
O8	O	-0.191224	-1.453835	-0.441659
O9	O	-0.402270	-1.753021	-0.441620
O10	O	-0.191199	-1.582920	-0.570718
O11	O	-0.311327	-1.453684	-0.271303
O12	O	-0.311267	-1.283408	-0.441613
O13	O	-0.402164	-1.453730	-0.740971
O14	O	-0.402197	-1.283363	-0.570638
O15	O	-0.311209	-1.582860	-0.741006
O16	O	-0.522313	-1.582594	-0.441575
O17	O	-0.522268	-1.453579	-0.570616
C18	C	-0.356730	-1.245265	-0.506124
C19	C	-0.356739	-1.128488	-0.506141
C20	C	-0.549162	-1.518092	-0.506111
C21	C	-0.631476	-1.518128	-0.506133
C22	C	-0.404160	-1.073630	-0.573212
C23	C	-0.404167	-0.963906	-0.573222
C24	C	-0.309328	-0.963908	-0.439080
C25	C	-0.309318	-1.073630	-0.439076
C26	C	-0.451581	-1.128488	-0.640276
C27	C	-0.499007	-1.073630	-0.707352
C28	C	-0.499013	-0.963906	-0.707362
C29	C	-0.451593	-0.909040	-0.640296
C30	C	-0.930567	-1.518358	-0.506189
C31	C	-0.899244	-1.437374	-0.587580
C32	C	-0.813626	-1.436989	-0.587326
C33	C	-0.782184	-1.518244	-0.506162
C34	C	-0.813343	-1.488263	-0.395437
C35	C	-0.898988	-1.487741	-0.395924
C36	C	-0.898911	-1.629501	-0.534549
C37	C	-0.813260	-1.628847	-0.536978
C38	C	-0.698325	-1.518181	-0.506140
C39	C	-1.014426	-1.518418	-0.506204
C40	C	-0.163589	-1.518402	-0.506196
C41	C	-0.081275	-1.518474	-0.506219
C42	C	-0.356676	-1.518306	-0.780175
C43	C	-0.356644	-1.518337	-0.896952
C44	C	-0.356766	-0.792265	-0.506157
C45	C	-0.356754	-0.909042	-0.506154
C46	C	-0.309280	-1.585584	-0.951834
C47	C	-0.309253	-1.585609	-1.061558
C48	C	-0.403962	-1.451137	-1.061509
C49	C	-0.403985	-1.451108	-0.951787
C50	C	-0.261939	-1.652814	-0.896999
C51	C	-0.214571	-1.720067	-0.951880
C52	C	-0.214545	-1.720092	-1.061605
C53	C	-0.261886	-1.652864	-1.116447
C54	C	-0.356772	-1.518219	-0.233174
C55	C	-0.356595	-1.518392	-0.116398
H56	H	-0.451582	-1.217831	-0.640274
H57	H	-0.791853	-1.692377	-0.482017
H58	H	-0.919785	-1.455945	-0.669948
H59	H	-0.442505	-1.396402	-1.106170
H60	H	-0.537609	-1.118309	-0.761961
C61	C	-0.928009	-1.666423	-0.641772
N62	N	-0.949926	-1.694220	-0.722537
H63	H	-0.537624	-0.919243	-0.761986
C64	C	-0.451603	-0.788340	-0.640312
N65	N	-0.451614	-0.697429	-0.640319
C66	C	-0.785711	-1.659417	-0.647042
N67	N	-0.764948	-1.682447	-0.729936
H68	H	-0.175970	-1.774846	-1.106286
H69	H	-0.442542	-1.396333	-0.907101
H70	H	-0.270721	-0.919227	-0.384477
H71	H	-0.270698	-1.118297	-0.384469
H72	H	-0.261852	-1.652878	-1.205792
C73	C	-0.928395	-1.326752	-0.562515
N74	N	-0.950349	-1.243432	-0.543629
C75	C	-0.785159	-1.462325	-0.698243
N76	N	-0.763722	-1.481405	-0.781792
H77	H	-0.793202	-1.354607	-0.568540
H78	H	-0.919031	-1.406496	-0.371900
H79	H	-0.261957	-1.652803	-0.807656
H80	H	-0.792979	-1.545393	-0.333141
C81	C	-0.926987	-1.563958	-0.311196
N82	N	-0.948072	-1.621357	-0.247375
H83	H	-0.176023	-1.774796	-0.907221
H84	H	-0.791958	-1.407879	-0.370982
C85	C	-0.926280	-1.711014	-0.454470
N86	N	-0.946900	-1.772403	-0.394153
