data_functionalizedCrystal
_audit_creation_method	'MofGen! by Chris Wilmer'
_symmetry_space_group_name_H-M	'P1'
_symmetry_Int_Tables_number	1
_symmetry_cell_setting	triclinic
loop_
_symmetry_equiv_pos_as_xyz
  x,y,z
_cell_length_a	10.540539
_cell_length_b	10.540510
_cell_length_c	8.140239
_cell_angle_alpha	89.997029
_cell_angle_beta	89.998610
_cell_angle_gamma	84.519401
loop_
_atom_site_label
_atom_site_type_symbol
_atom_site_fract_x
_atom_site_fract_y
_atom_site_fract_z
O1	O	0.178718	1.685906	-0.136615
O2	O	0.195614	1.316488	-0.136616
O3	O	0.002459	1.509625	-0.136613
O4	O	0.371874	1.492769	-0.136617
O5	O	0.002456	1.509615	0.136614
O6	O	0.195612	1.316478	0.136612
O7	O	0.178716	1.685895	0.136612
Zn8	Zn	0.187164	1.501185	0.179992
Zn9	Zn	0.187167	1.501199	-0.179996
O10	O	0.371871	1.492758	0.136610
C11	C	0.194354	1.269179	-0.000002
C12	C	0.190587	1.128229	-0.000002
C13	C	0.324771	0.910774	-0.000632
C14	C	0.328789	1.057370	-0.000006
C15	C	0.119839	1.083463	0.156021
C16	C	0.116800	0.936702	0.156141
C17	C	0.113925	0.936909	-0.154569
C18	C	0.120480	1.083250	-0.156621
C19	C	-0.044845	1.508356	-0.000003
C20	C	-0.185793	1.504574	-0.000012
C21	C	-0.369204	1.359655	-0.000625
C22	C	-0.222587	1.363489	-0.000010
C23	C	-0.247459	1.572464	0.156014
C24	C	-0.394003	1.567649	0.156146
C25	C	-0.394519	1.570531	-0.154564
C26	C	-0.247537	1.571830	-0.156627
C27	C	0.419175	1.494028	-0.000005
C28	C	0.560123	1.497810	-0.000007
C29	C	0.179976	1.733204	-0.000005
C30	C	0.183743	1.874154	-0.000016
N31	N	0.187161	1.501184	0.425675
N32	N	0.187159	1.501209	-0.425679
H33	H	0.378614	0.868825	-0.112525
H34	H	0.019582	1.132318	-0.166042
H35	H	-0.397797	1.303927	-0.112514
H36	H	0.378302	0.867263	0.110626
H37	H	-0.223327	1.674693	-0.166049
H38	H	0.018098	1.130853	0.161825
H39	H	0.010163	0.914755	-0.155623
H40	H	-0.204856	1.525295	0.272124
H41	H	-0.422198	1.517466	0.272779
H42	H	-0.180826	1.309685	0.112022
H43	H	0.384470	1.085769	0.112024
H44	H	-0.399407	1.304145	0.110637
H45	H	-0.426066	1.524873	-0.272822
H46	H	-0.179977	1.310069	-0.111856
H47	H	0.165147	0.896482	0.272770
H48	H	-0.441983	1.669116	0.163224
H49	H	-0.441756	1.672436	-0.155614
H50	H	0.384136	1.086720	-0.111854
H51	H	0.171955	1.111873	-0.272046
H52	H	-0.206673	1.522156	-0.272051
H53	H	0.013434	0.913707	0.163230
H54	H	0.157508	0.894365	-0.272827
H55	H	0.168970	1.114313	0.272132
H56	H	-0.225116	1.676073	0.161816
