data_functionalizedCrystal
_audit_creation_method	'MofGen! by Chris Wilmer'
_symmetry_space_group_name_H-M	'P1'
_symmetry_Int_Tables_number	1
_symmetry_cell_setting	triclinic
loop_
_symmetry_equiv_pos_as_xyz
  x,y,z
_cell_length_a	10.540510
_cell_length_b	10.540510
_cell_length_c	9.616153
_cell_angle_alpha	90.000246
_cell_angle_beta	89.992871
_cell_angle_gamma	84.513311
loop_
_atom_site_label
_atom_site_type_symbol
_atom_site_fract_x
_atom_site_fract_y
_atom_site_fract_z
O1	O	1.685895	0.178718	-0.115646
O2	O	1.316475	0.195613	-0.115646
O3	O	1.509633	0.002456	-0.115646
O4	O	1.492737	0.371875	-0.115647
O5	O	1.509606	0.002460	0.115646
O6	O	1.316449	0.195617	0.115645
O7	O	1.685868	0.178722	0.115645
Zn8	Zn	1.501154	0.187170	0.152368
Zn9	Zn	1.501189	0.187165	-0.152369
O10	O	1.492711	0.371879	0.115645
C11	C	1.269159	0.194356	-0.000001
C12	C	1.128209	0.190589	-0.000001
C13	C	0.910739	0.324775	-0.000533
C14	C	1.057334	0.328793	-0.000003
C15	C	1.083442	0.119845	0.132075
C16	C	0.936681	0.116805	0.132177
C17	C	0.936905	0.113923	-0.130845
C18	C	1.083246	0.120478	-0.132582
C19	C	1.508361	-0.044846	-0.000003
C20	C	1.504594	-0.185795	-0.000011
C21	C	1.638780	-0.403265	0.000519
C22	C	1.642798	-0.256670	-0.000010
C23	C	1.433862	-0.230549	-0.132087
C24	C	1.430823	-0.377309	-0.132190
C25	C	1.427914	-0.377113	0.130831
C26	C	1.434469	-0.230773	0.132570
C27	C	1.733185	0.179979	-0.000003
C28	C	1.874135	0.183746	-0.000012
C29	C	1.493983	0.419181	-0.000001
C30	C	1.497750	0.560130	-0.000002
N31	N	1.501140	0.187173	0.360342
N32	N	1.501214	0.187152	-0.360343
C33	C	1.397498	0.290153	0.580712
C34	C	1.397726	0.290539	0.419544
C35	C	1.633862	0.217293	0.418792
C36	C	1.633297	0.218022	0.580010
C37	C	1.473381	0.053736	0.580254
C38	C	1.470335	0.054601	0.419027
H39	H	0.868791	0.378616	-0.095252
H40	H	1.712925	0.144320	0.380439
C41	C	1.711116	-0.462043	-0.126720
N42	N	1.765597	-0.506317	-0.222559
H43	H	1.698142	-0.227330	0.094665
C44	C	0.879592	0.172944	-0.266089
N45	N	0.836425	0.217417	-0.367949
C46	C	0.906988	-0.026255	-0.132054
N47	N	0.884445	-0.131833	-0.132956
H48	H	1.658749	0.313529	0.378401
C49	C	1.298152	-0.164477	0.143343
N50	N	1.195472	-0.114544	0.151446
C51	C	1.121926	0.190006	-0.264586
N52	N	1.151073	0.242375	-0.364009
C53	C	1.421348	0.423120	0.635421
N54	N	1.439317	0.523270	0.676629
H55	H	1.372697	0.031770	0.380827
H56	H	1.692611	-0.445224	0.095237
H57	H	1.327455	-0.400294	-0.138174
H58	H	1.332119	-0.183149	-0.136998
C59	C	1.565646	-0.053920	0.364621
N60	N	1.637453	-0.135655	0.323654
H61	H	1.549003	-0.022928	0.618370
C62	C	1.345370	0.015031	0.635237
N63	N	1.248945	-0.014107	0.676649
C64	C	1.666160	0.349527	0.630792
N65	N	1.690904	0.448583	0.669035
C66	C	1.718023	-0.218299	-0.128140
N67	N	1.774683	-0.189400	-0.224656
C68	C	1.149536	-0.015841	-0.143349
N69	N	1.199462	-0.118524	-0.151446
H70	H	1.324150	-0.399252	0.131721
H71	H	1.086685	0.384138	-0.094683
H72	H	0.867216	0.378309	0.093649
H73	H	1.085721	0.384478	0.094833
H74	H	1.479183	-0.417532	-0.230919
H75	H	1.485936	-0.202164	0.230278
H76	H	0.896448	0.165156	0.230905
H77	H	0.913696	0.013438	0.138177
C78	C	1.264493	0.266081	0.366158
N79	N	1.164134	0.247667	0.325954
H80	H	1.483005	-0.199699	-0.230378
C81	C	1.740801	0.120644	0.632686
N82	N	1.821787	0.047316	0.672355
H83	H	1.298573	0.272310	0.619523
H84	H	1.415615	0.389522	0.380964
H85	H	1.114279	0.168979	0.230366
C86	C	1.486917	-0.434447	0.266075
N87	N	1.531374	-0.477631	0.367934
H88	H	1.130842	0.018102	0.136987
