data_functionalizedCrystal
_audit_creation_method	'MofGen! by Chris Wilmer'
_symmetry_space_group_name_H-M	'P1'
_symmetry_Int_Tables_number	1
_symmetry_cell_setting	triclinic
loop_
_symmetry_equiv_pos_as_xyz
  x,y,z
_cell_length_a	10.654534
_cell_length_b	10.654550
_cell_length_c	9.730223
_cell_angle_alpha	89.996328
_cell_angle_beta	89.996615
_cell_angle_gamma	84.481667
loop_
_atom_site_label
_atom_site_type_symbol
_atom_site_fract_x
_atom_site_fract_y
_atom_site_fract_z
O1	O	-1.667850	-0.176302	0.114315
O2	O	-1.302369	-0.193129	0.114313
O3	O	-1.493512	-0.001976	0.114305
O4	O	-1.476706	-0.367455	0.114323
O5	O	-1.493502	-0.001973	-0.114274
O6	O	-1.302358	-0.193126	-0.114267
O7	O	-1.667840	-0.176299	-0.114264
Zn8	Zn	-1.485097	-0.184712	-0.150558
Zn9	Zn	-1.485111	-0.184716	0.150606
O10	O	-1.476696	-0.367452	-0.114257
C11	C	-1.255565	-0.191896	0.000022
C12	C	-1.116121	-0.188212	0.000021
C13	C	-1.050611	-0.186476	-0.124581
C14	C	-0.919591	-0.182994	-0.124584
C15	C	-0.919602	-0.182989	0.124627
C16	C	-1.050621	-0.186462	0.124628
C17	C	-1.492273	0.044824	0.000016
C18	C	-1.488581	0.184267	0.000018
C19	C	-0.714642	-0.177542	0.000023
C20	C	-0.854082	-0.181257	0.000016
C21	C	-1.477935	-0.414252	0.000035
C22	C	-1.481627	-0.553695	0.000042
N23	N	-1.485098	-0.184708	-0.356094
C24	C	-1.601123	0.263759	0.000020
C25	C	-1.597647	0.394779	0.000036
C26	C	-1.369076	0.366803	0.000045
C27	C	-1.372554	0.235785	0.000038
C28	C	-1.569771	-0.100097	-0.571916
C29	C	-1.569763	-0.100099	-0.428033
C30	C	-1.400443	-0.269330	-0.428046
C31	C	-1.400458	-0.269333	-0.571927
N32	N	-1.485120	-0.184710	0.356142
H33	H	-1.103961	-0.187873	0.226100
H34	H	-1.331525	-0.338241	-0.630506
O35	O	-1.256265	0.416643	0.000115
C36	C	-1.157678	0.318381	0.000082
H37	H	-1.193664	0.229084	0.043352
H38	H	-1.122898	0.300156	-0.109578
C39	C	-1.004155	0.465968	0.036586
C40	C	-1.048352	0.356294	0.089741
H41	H	-0.936715	0.489354	0.091885
H42	H	-1.070574	0.532170	0.036603
H43	H	-0.975182	0.450765	-0.054797
H44	H	-1.077339	0.371502	0.181115
H45	H	-0.981935	0.290095	0.089741
H46	H	-1.638710	-0.031194	-0.630478
O47	O	-1.263257	0.158506	0.000280
C48	C	-1.258459	0.081854	0.118645
H49	H	-1.322270	0.129273	0.201385
H50	H	-1.291801	-0.013681	0.091876
C51	C	-1.043608	0.004879	0.070709
C52	C	-1.121974	0.063125	0.172337
H53	H	-0.959417	-0.006680	0.103827
H54	H	-1.046841	0.056517	-0.009039
H55	H	-1.071408	-0.074727	0.048411
H56	H	-1.094183	0.142735	0.194620
H57	H	-1.118733	0.011499	0.252090
O58	O	-1.713797	0.213654	-0.000227
C59	C	-1.722638	0.138691	-0.118596
H60	H	-1.656735	0.170241	-0.201342
H61	H	-1.694575	0.035634	-0.091837
C62	C	-1.940170	0.114650	-0.070639
C63	C	-1.859235	0.153408	-0.172273
H64	H	-2.024430	0.123723	-0.103747
H65	H	-1.934214	0.165150	0.009112
H66	H	-1.916769	0.028772	-0.048349
H67	H	-1.882627	0.239289	-0.194549
H68	H	-1.865199	0.102923	-0.252028
O69	O	-0.855885	-0.181524	0.245626
C70	C	-0.766795	-0.288081	0.253068
H71	H	-0.796995	-0.365016	0.182364
H72	H	-0.670500	-0.260904	0.219585
C73	C	-0.721668	-0.242773	0.488774
C74	C	-0.758766	-0.337269	0.401944
H75	H	-0.716710	-0.273112	0.580608
H76	H	-0.781686	-0.170980	0.483761
H77	H	-0.641426	-0.220134	0.460856
H78	H	-0.839013	-0.359895	0.429852
H79	H	-0.698761	-0.409067	0.406966
O80	O	-1.706886	0.472127	-0.000147
C81	C	-1.711719	0.548747	-0.118538
H82	H	-1.611971	0.556236	-0.158001
H83	H	-1.769451	0.505168	-0.201443
C84	C	-1.896271	0.671993	-0.034095
C85	C	-1.773757	0.681200	-0.082557
H86	H	-1.934544	0.753695	-0.011904
H87	H	-1.893019	0.620370	0.045666
H88	H	-1.944365	0.635672	-0.103190
H89	H	-1.725662	0.717505	-0.013456
H90	H	-1.777003	0.732832	-0.162306
O91	O	-1.318243	-0.351399	-0.357957
C92	C	-1.336398	-0.333272	-0.215537
H93	H	-1.382473	-0.233855	-0.195889
H94	H	-1.399992	-0.404944	-0.174681
C95	C	-1.151490	-0.473059	-0.165825
C96	C	-1.208072	-0.350948	-0.141693
H97	H	-1.072334	-0.483968	-0.120272
H98	H	-1.139261	-0.485276	-0.261776
H99	H	-1.204498	-0.532771	-0.131779
H100	H	-1.155071	-0.291239	-0.175754
H101	H	-1.220289	-0.338722	-0.045745
H102	H	-1.103937	-0.187901	-0.226044
H103	H	-0.866258	-0.181581	-0.226047
H104	H	-1.638695	-0.031201	-0.369461
