data_functionalizedCrystal
_audit_creation_method	'MofGen! by Chris Wilmer'
_symmetry_space_group_name_H-M	'P1'
_symmetry_Int_Tables_number	1
_symmetry_cell_setting	triclinic
loop_
_symmetry_equiv_pos_as_xyz
  x,y,z
_cell_length_a	18.366186
_cell_length_b	19.288864
_cell_length_c	19.288865
_cell_angle_alpha	96.863755
_cell_angle_beta	89.988521
_cell_angle_gamma	90.022894
loop_
_atom_site_label
_atom_site_type_symbol
_atom_site_fract_x
_atom_site_fract_y
_atom_site_fract_z
O1	O	-0.060791	-0.921353	0.086649
O2	O	-0.060743	-0.719092	0.098337
O3	O	-0.060754	-0.826067	-0.008637
O4	O	-0.060780	-0.814378	0.193623
O5	O	0.060345	-0.826049	-0.008643
O6	O	0.060357	-0.719074	0.098332
O7	O	0.060308	-0.921335	0.086643
Zn8	Zn	0.079559	-0.820201	0.092487
Zn9	Zn	-0.079994	-0.820225	0.092494
O10	O	0.060319	-0.814360	0.193618
C11	C	-0.000187	-0.693207	0.097959
C12	C	-0.000167	-0.616103	0.096830
N13	N	0.188451	-0.820190	0.092482
C14	C	-0.000202	-0.825682	-0.034516
C15	C	-0.000195	-0.824553	-0.111620
N16	N	-0.188885	-0.820242	0.092493
C17	C	0.226546	-0.867574	0.045137
C18	C	0.302774	-0.867578	0.045134
C19	C	0.340903	-0.820206	0.092488
C20	C	0.302799	-0.772813	0.139836
C21	C	0.226572	-0.772805	0.139834
C22	C	0.461657	-0.810907	0.155775
C23	C	0.537882	-0.810920	0.155779
C24	C	0.576011	-0.820225	0.092496
C25	C	0.537905	-0.829533	0.029207
C26	C	0.461679	-0.829525	0.029204
C27	C	0.423558	-0.820208	0.092496
C28	C	0.696761	-0.867617	0.045144
C29	C	0.772990	-0.867616	0.045140
C30	C	0.773014	-0.772854	0.139849
C31	C	0.696786	-0.772851	0.139847
C32	C	0.658664	-0.820236	0.092495
C33	C	-0.000250	-0.947220	0.087022
C34	C	-0.000274	-1.024324	0.088151
C35	C	-0.000187	-0.571407	0.159598
C36	C	-0.000195	-0.498960	0.158537
C37	C	-0.000198	-0.471212	0.094705
C38	C	-0.000174	-0.515918	0.031929
C39	C	-0.000159	-0.588364	0.032991
C40	C	-0.042642	-0.362956	0.044527
C41	C	-0.042662	-0.290512	0.043468
C42	C	-0.000241	-0.247767	0.091425
C43	C	0.042189	-0.277473	0.140454
C44	C	0.042205	-0.349918	0.141517
C45	C	-0.000214	-0.392658	0.093546
C46	C	-0.000269	-0.124514	0.153047
C47	C	-0.000272	-0.052066	0.151984
C48	C	-0.000259	-0.069026	0.025374
C49	C	-0.000248	-0.141473	0.026439
C50	C	-0.000256	-0.169212	0.090278
C51	C	-0.000207	-0.887321	-0.156316
C52	C	-0.000218	-0.886260	-0.228763
C53	C	-0.000203	-0.822428	-0.256511
C54	C	-0.000196	-0.759652	-0.211805
C55	C	-0.000192	-0.760714	-0.139359
C56	C	0.042227	-0.772242	-0.364800
C57	C	0.042228	-0.771182	-0.437245
C58	C	-0.000219	-0.819148	-0.479956
C59	C	-0.042657	-0.868186	-0.450216
C60	C	-0.042653	-0.869248	-0.377771
C61	C	-0.000208	-0.821269	-0.335065
C62	C	-0.000244	-0.880770	-0.603209
C63	C	-0.000259	-0.879707	-0.675657
C64	C	-0.000230	-0.753097	-0.658697
C65	C	-0.000221	-0.754162	-0.586250
C66	C	-0.000225	-0.818001	-0.558511
C67	C	-0.000234	-0.814745	0.219497
C68	C	-0.000246	-0.815874	0.296601
H69	H	0.195509	-0.906156	0.006579
H70	H	-0.000231	-0.937375	-0.265162
N71	N	0.814076	-0.918735	-0.005924
H72	H	0.845724	-0.892306	-0.036621
H73	H	0.778305	-0.948736	-0.035865
N74	N	-0.000250	-0.949621	-0.573286
H75	H	0.044648	-0.952875	-0.543623
H76	H	-0.000291	-0.989182	-0.612638
N77	N	0.814128	-0.721752	0.190920
H78	H	0.868198	-0.728945	0.183737
H79	H	0.800789	-0.729616	0.240175
H80	H	0.333848	-0.734240	0.178392
H81	H	0.195554	-0.734219	0.178388
N82	N	-0.000201	-0.601326	0.228449
H83	H	-0.000217	-0.562013	0.268051
H84	H	0.044696	-0.630990	0.231653
N85	N	0.655653	-0.918709	-0.005949
H86	H	0.624053	-0.892255	-0.036634
H87	H	0.624041	-0.949375	0.020547
H88	H	0.076779	-0.731250	-0.461452
N89	N	-0.000226	-0.956177	-0.126407
H90	H	-0.045119	-0.959447	-0.096721
H91	H	0.044694	-0.959399	-0.096770
N92	N	-0.088427	-0.922130	-0.345694
H93	H	-0.081980	-0.915523	-0.293321
H94	H	-0.072576	-0.970790	-0.364903
N95	N	-0.088440	-0.919928	-0.496273
H96	H	-0.082008	-0.911814	-0.546680
H97	H	-0.141357	-0.913629	-0.482725
H98	H	0.076733	-0.242671	0.179506
N99	N	-0.000169	-0.485996	-0.036920
H100	H	-0.000182	-0.433319	-0.028069
H101	H	-0.045053	-0.502387	-0.064380
H102	H	0.333797	-0.906165	0.006578
N103	N	-0.000224	-0.450744	0.226242
H104	H	-0.045124	-0.420337	0.228616
H105	H	0.044689	-0.420326	0.228586
N106	N	0.420578	-0.839561	-0.039051
H107	H	0.456294	-0.845458	-0.079143
H108	H	0.388976	-0.797376	-0.042999
H109	H	0.076756	-0.374102	0.181436
H110	H	-0.000284	-0.015674	0.203099
N111	N	-0.000275	-0.947410	-0.723869
H112	H	-0.000274	-0.988009	-0.695300
H113	H	0.044615	-0.949714	-0.754308
H114	H	-0.000265	-0.147101	0.205028
N115	N	-0.000134	-0.636577	-0.034711
H116	H	-0.000134	-0.608010	-0.075312
H117	H	-0.045021	-0.667030	-0.037028
H118	H	0.568948	-0.837110	-0.022324
H119	H	0.665767	-0.734269	0.178402
N120	N	0.420535	-0.800872	0.224035
H121	H	0.456239	-0.794985	0.264127
H122	H	0.388887	-0.843052	0.227978
H123	H	-0.000306	-0.046435	-0.026600
H124	H	0.076796	-0.733180	-0.330029
N125	N	-0.088420	-0.258474	-0.009413
H126	H	-0.124716	-0.225022	0.015652
H127	H	-0.115236	-0.296586	-0.039624
N128	N	0.578978	-0.800878	0.224037
H129	H	0.543259	-0.794970	0.264125
H130	H	0.610625	-0.757888	0.225590
H131	H	-0.000236	-0.177866	-0.024674
H132	H	-0.077191	-0.397755	0.005473
H133	H	-0.000221	-0.701123	-0.681288
N134	N	-0.000205	-0.686462	-0.538036
H135	H	-0.000196	-0.645862	-0.566605
H136	H	0.044691	-0.684139	-0.507619
H137	H	-0.000185	-0.707679	-0.234401
H138	H	-0.000182	-0.709599	-0.102967
