data_functionalizedCrystal
_audit_creation_method	'MofGen! by Chris Wilmer'
_symmetry_space_group_name_H-M	'P1'
_symmetry_Int_Tables_number	1
_symmetry_cell_setting	triclinic
loop_
_symmetry_equiv_pos_as_xyz
  x,y,z
_cell_length_a	11.792241
_cell_length_b	10.540539
_cell_length_c	10.268362
_cell_angle_alpha	89.996859
_cell_angle_beta	89.999626
_cell_angle_gamma	84.359454
loop_
_atom_site_label
_atom_site_type_symbol
_atom_site_fract_x
_atom_site_fract_y
_atom_site_fract_z
O1	O	1.507362	0.173992	-0.108167
O2	O	1.177067	0.191924	-0.108197
O3	O	1.349750	-0.001773	-0.108180
O4	O	1.334679	0.367689	-0.108184
O5	O	1.349735	-0.001781	0.108421
O6	O	1.177052	0.191916	0.108404
O7	O	1.507347	0.173984	0.108433
Cu8	Cu	1.342198	0.182949	0.128196
Cu9	Cu	1.342216	0.182959	-0.127959
O10	O	1.334664	0.367681	0.108416
C11	C	1.134766	0.190793	0.000100
C12	C	1.008743	0.187422	0.000088
C13	C	0.778015	0.181223	0.000126
C14	C	0.906409	0.184667	0.000105
C15	C	1.348612	-0.049076	0.000118
C16	C	1.345231	-0.190014	0.000111
C17	C	1.215660	-0.373018	-0.000387
C18	C	1.219087	-0.226411	0.000101
C19	C	1.405928	-0.251874	0.123806
C20	C	1.401623	-0.398404	0.123910
C21	C	1.404206	-0.398921	-0.122405
C22	C	1.405368	-0.251943	-0.124041
C23	C	1.549648	0.175114	0.000134
C24	C	1.675671	0.178486	0.000137
C25	C	1.335802	0.414984	0.000116
C26	C	1.339183	0.555921	0.000114
N27	N	1.342194	0.182942	0.308362
N28	N	1.342229	0.182956	-0.308125
C29	C	1.342210	0.182956	0.574032
C30	C	1.342197	0.182952	0.426195
H31	H	1.171327	-0.183649	-0.088569
C32	C	1.345438	-0.196562	-0.247706
C33	C	1.412482	-0.125793	-0.348635
C34	C	1.352539	-0.070460	-0.472315
C35	C	1.225551	-0.085897	-0.495067
C36	C	1.158499	-0.156669	-0.394136
C37	C	1.218442	-0.212002	-0.270456
H38	H	1.506493	-0.114363	-0.331795
H39	H	1.402176	-0.018069	-0.547031
H40	H	1.181177	-0.044936	-0.586623
H41	H	1.064488	-0.168100	-0.410976
H42	H	1.168805	-0.264393	-0.195740
C43	C	1.529615	-0.219634	-0.134120
C44	C	1.627815	-0.327339	-0.134512
C45	C	1.752068	-0.295032	-0.144575
C46	C	1.778121	-0.155019	-0.154247
C47	C	1.679919	-0.047304	-0.153855
C48	C	1.555666	-0.079612	-0.143791
H49	H	1.608531	-0.430994	-0.127352
H50	H	1.824764	-0.374770	-0.144865
H51	H	1.870101	-0.131102	-0.161696
H52	H	1.699203	0.056351	-0.161015
H53	H	1.482970	0.000127	-0.143501
H54	H	1.165836	-0.401453	-0.089091
C55	C	1.527295	-0.463112	-0.123524
C56	C	1.568658	-0.556046	-0.013863
C57	C	1.691743	-0.620238	-0.014965
C58	C	1.773466	-0.591497	-0.125728
C59	C	1.732104	-0.498558	-0.235397
C60	C	1.609019	-0.434366	-0.234295
H61	H	1.508161	-0.577326	0.068138
H62	H	1.722361	-0.689037	0.066219
H63	H	1.864581	-0.639016	-0.126544
H64	H	1.792601	-0.477278	-0.317398
H65	H	1.578401	-0.365567	-0.315480
C66	C	1.148605	-0.413602	0.118765
C67	C	1.192281	-0.390241	0.257196
C68	C	1.125231	-0.430829	0.376350
C69	C	1.014507	-0.494778	0.357074
C70	C	0.970825	-0.518142	0.218638
C71	C	1.037875	-0.477554	0.099484
H72	H	1.274251	-0.342899	0.271470
H73	H	1.157568	-0.413533	0.478829
H74	H	0.964873	-0.524824	0.445279
H75	H	0.888855	-0.565484	0.204364
H76	H	1.005538	-0.494850	-0.002996
C77	C	1.154110	-0.169783	0.120082
C78	C	1.098942	-0.257981	0.215756
C79	C	1.033965	-0.201353	0.335745
C80	C	1.024156	-0.056527	0.360061
C81	C	1.079326	0.031680	0.264385
C82	C	1.144303	-0.024948	0.144396
H83	H	1.106202	-0.365198	0.197758
H84	H	0.993125	-0.266651	0.406571
H85	H	0.976056	-0.014608	0.448885
H86	H	1.072066	0.138896	0.282383
H87	H	1.185143	0.040349	0.073570
C88	C	1.349065	-0.441353	-0.249065
C89	C	1.342078	-0.584097	-0.275976
C90	C	1.286924	-0.626528	-0.402628
C91	C	1.238757	-0.526215	-0.502369
C92	C	1.245743	-0.383461	-0.475460
C93	C	1.300897	-0.341031	-0.348809
H94	H	1.377735	-0.658364	-0.202140
H95	H	1.281753	-0.732204	-0.422547
H96	H	1.197929	-0.557624	-0.596124
H97	H	1.210086	-0.309195	-0.549297
H98	H	1.306068	-0.235355	-0.328890
H99	H	1.356752	-0.426461	0.216366
C100	C	1.531068	-0.222065	0.130037
C101	C	1.559599	-0.082752	0.136759
C102	C	1.684736	-0.052933	0.142983
C103	C	1.781343	-0.162427	0.142484
C104	C	1.752815	-0.301749	0.135761
C105	C	1.627678	-0.331569	0.129538
H106	H	1.488082	-0.001689	0.137129
H107	H	1.705854	0.050204	0.147960
H108	H	1.873977	-0.140353	0.147092
H109	H	1.824332	-0.382812	0.135392
H110	H	1.606560	-0.434705	0.124561
H111	H	1.363752	-0.209140	0.215848
H112	H	1.492343	-0.446668	0.129529
