data_functionalizedCrystal
_audit_creation_method	'MofGen! by Chris Wilmer'
_symmetry_space_group_name_H-M	'P1'
_symmetry_Int_Tables_number	1
_symmetry_cell_setting	triclinic
loop_
_symmetry_equiv_pos_as_xyz
  x,y,z
_cell_length_a	21.295417
_cell_length_b	19.077300
_cell_length_c	21.295411
_cell_angle_alpha	87.718692
_cell_angle_beta	89.971282
_cell_angle_gamma	92.264088
loop_
_atom_site_label
_atom_site_type_symbol
_atom_site_fract_x
_atom_site_fract_y
_atom_site_fract_z
Zn1	Zn	-0.289245	-1.075886	-0.317250
Zn2	Zn	0.044088	-0.742553	0.016083
Zn3	Zn	0.377422	-0.409220	0.349417
Zn4	Zn	-0.394507	-1.075794	-0.211979
Zn5	Zn	-0.061173	-0.742460	0.121355
Zn6	Zn	0.272160	-0.409127	0.454688
Zn7	Zn	-0.285035	-0.958200	-0.216224
Zn8	Zn	0.048298	-0.624867	0.117109
Zn9	Zn	0.381631	-0.291534	0.450443
Zn10	Zn	-0.390255	-0.958149	-0.321438
Zn11	Zn	-0.056922	-0.624816	0.011895
Zn12	Zn	0.276411	-0.291483	0.345229
O13	O	-0.339761	-1.017007	-0.266723
O14	O	-0.006427	-0.683674	0.066611
O15	O	0.326906	-0.350341	0.399944
O16	O	-0.306749	-1.174360	-0.299756
O17	O	0.026584	-0.841027	0.033577
O18	O	0.359918	-0.507694	0.366910
O19	O	-0.380002	-1.060177	-0.124453
O20	O	-0.046669	-0.726844	0.208880
O21	O	0.286664	-0.393511	0.542213
O22	O	-0.197507	-0.973871	-0.229649
O23	O	0.135827	-0.640538	0.103684
O24	O	0.469160	-0.307205	0.437017
O25	O	-0.384084	-1.174293	-0.222414
O26	O	-0.050751	-0.840959	0.110919
O27	O	0.282582	-0.507626	0.444253
O28	O	-0.200599	-1.060335	-0.303873
O29	O	0.132734	-0.727002	0.029461
O30	O	0.466067	-0.393668	0.362794
O31	O	-0.299574	-0.973782	-0.127572
O32	O	0.033759	-0.640449	0.205761
O33	O	0.367092	-0.307115	0.539095
O34	O	-0.295452	-0.859707	-0.233710
O35	O	0.037881	-0.526374	0.099623
O36	O	0.371215	-0.193040	0.432956
O37	O	-0.376839	-0.973785	-0.408971
O38	O	-0.043505	-0.640451	-0.075638
O39	O	0.289828	-0.307118	0.257695
O40	O	-0.372757	-0.859669	-0.311010
O41	O	-0.039423	-0.526336	0.022323
O42	O	0.293910	-0.193003	0.355656
O43	O	-0.302627	-1.060286	-0.405894
O44	O	0.030706	-0.726952	-0.072561
O45	O	0.364040	-0.393619	0.260772
O46	O	-0.482030	-1.060128	-0.226475
O47	O	-0.148697	-0.726795	0.106859
O48	O	0.184637	-0.393461	0.440192
O49	O	-0.478907	-0.973695	-0.306894
O50	O	-0.145573	-0.640362	0.026439
O51	O	0.187760	-0.307028	0.359773
C52	C	-0.333187	-0.834152	-0.273276
C53	C	0.000147	-0.500818	0.060057
C54	C	0.333480	-0.167485	0.393391
C55	C	-0.330390	-0.755925	-0.276094
C56	C	0.002944	-0.422592	0.057239
C57	C	0.336277	-0.089259	0.390572
C58	C	-0.310279	-0.315598	-0.296318
C59	C	0.023054	0.017736	0.037015
C60	C	0.356388	0.351069	0.370349
C61	C	-0.312919	-0.389100	-0.293666
C62	C	0.020414	-0.055766	0.039667
C63	C	0.353748	0.277567	0.373000
C64	C	-0.354437	-0.425806	-0.252007
C65	C	-0.021104	-0.092473	0.081326
C66	C	0.312230	0.240860	0.414659
C67	C	-0.393322	-0.389007	-0.213002
C68	C	-0.059989	-0.055674	0.120331
C69	C	0.273345	0.277660	0.453665
C70	C	-0.390685	-0.315506	-0.215657
C71	C	-0.057352	0.017827	0.117676
C72	C	0.275982	0.351160	0.451009
C73	C	-0.366638	-0.645625	-0.239744
C74	C	-0.033304	-0.312292	0.093589
C75	C	0.300029	0.021041	0.426923
C76	C	-0.369271	-0.719131	-0.237090
C77	C	-0.035937	-0.385798	0.096243
C78	C	0.297396	-0.052465	0.429576
C79	C	-0.288868	-0.719219	-0.317756
C80	C	0.044465	-0.385885	0.015577
C81	C	0.377799	-0.052552	0.348911
C82	C	-0.286232	-0.645717	-0.320405
C83	C	0.047102	-0.312383	0.012928
C84	C	0.380435	0.020950	0.346262
C85	C	-0.325119	-0.608924	-0.281402
C86	C	0.008214	-0.275590	0.051931
C87	C	0.341548	0.057743	0.385265
N88	N	-0.357135	-0.500937	-0.249294
N89	N	-0.023802	-0.167604	0.084039
N90	N	0.309532	0.165729	0.417372
N91	N	-0.322424	-0.533794	-0.284118
N92	N	0.010909	-0.200461	0.049215
N93	N	0.344243	0.132873	0.382548
C94	C	-0.503309	-1.016915	-0.266691
C95	C	-0.169976	-0.683582	0.066642
C96	C	0.163358	-0.350248	0.399975
C97	C	-0.573278	-1.016940	-0.266696
C98	C	-0.239945	-0.683607	0.066637
C99	C	0.093389	-0.350273	0.399970
C100	C	-0.607751	-1.061986	-0.224862
C101	C	-0.274418	-0.728652	0.108471
C102	C	0.058915	-0.395319	0.441805
C103	C	-0.673495	-1.062019	-0.224875
C104	C	-0.340162	-0.728685	0.108458
C105	C	-0.006828	-0.395352	0.441792
C106	C	-0.704762	-1.016993	-0.266716
C107	C	-0.371429	-0.683660	0.066617
C108	C	-0.038096	-0.350327	0.399950
C109	C	-0.670281	-0.971945	-0.308559
C110	C	-0.336947	-0.638611	0.024775
C111	C	-0.003614	-0.305278	0.358108
C112	C	-0.604539	-0.971918	-0.308549
C113	C	-0.271205	-0.638585	0.024785
C114	C	0.062128	-0.305251	0.358118
N115	N	-0.805819	-0.955426	-0.273722
N116	N	-0.472486	-0.622093	0.059612
N117	N	-0.139152	-0.288759	0.392945
N118	N	-0.868271	-0.955453	-0.273727
N119	N	-0.534938	-0.622120	0.059606
N120	N	-0.201605	-0.288787	0.392939
C121	C	-0.902840	-1.017072	-0.266749
C122	C	-0.569506	-0.683739	0.066584
C123	C	-0.236173	-0.350406	0.399917
N124	N	-0.872597	-1.078664	-0.259754
N125	N	-0.539263	-0.745331	0.073580
N126	N	-0.205930	-0.411997	0.406913
N127	N	-0.810138	-1.078636	-0.259745
N128	N	-0.476805	-0.745303	0.073589
N129	N	-0.143472	-0.411969	0.406922
C130	C	-0.776049	-1.017018	-0.266732
C131	C	-0.442715	-0.683684	0.066601
C132	C	-0.109382	-0.350351	0.399935
C133	C	-1.008600	-1.062157	-0.224927
C134	C	-0.675267	-0.728824	0.108407
C135	C	-0.341934	-0.395491	0.441740
C136	C	-1.074345	-1.062192	-0.224944
C137	C	-0.741012	-0.728858	0.108389
C138	C	-0.407679	-0.395525	0.441722
C139	C	-1.071129	-0.972111	-0.308625
C140	C	-0.737796	-0.638778	0.024709
C141	C	-0.404463	-0.305445	0.358042
C142	C	-1.005386	-0.972084	-0.308610
C143	C	-0.672053	-0.638750	0.024723
C144	C	-0.338719	-0.305417	0.358056
C145	C	-0.974125	-1.017106	-0.266758
C146	C	-0.640792	-0.683772	0.066575
C147	C	-0.307459	-0.350439	0.399908
C148	C	-0.175574	-1.017119	-0.266768
C149	C	0.157759	-0.683786	0.066566
C150	C	0.491092	-0.350452	0.399899
C151	C	-0.105608	-1.017167	-0.266787
C152	C	0.227725	-0.683833	0.066547
C153	C	0.561059	-0.350500	0.399880
C154	C	-0.339728	-1.017040	-0.430912
C155	C	-0.006395	-0.683706	-0.097579
C156	C	0.326938	-0.350373	0.235755
C157	C	-0.339714	-1.017054	-0.500880
C158	C	-0.006381	-0.683720	-0.167546
C159	C	0.326952	-0.350387	0.165787
C160	C	-0.346357	-0.200577	-0.260138
C161	C	-0.013024	0.132756	0.073196
C162	C	0.320309	0.466090	0.406529
C163	C	-0.349160	-0.278803	-0.257314
C164	C	-0.015827	0.054530	0.076019
C165	C	0.317507	0.387863	0.409352
C166	C	-0.381466	-1.062118	-0.998711
C167	C	-0.048132	-0.728785	-0.665378
C168	C	0.285201	-0.395452	-0.332045
C169	C	-0.381485	-1.062106	-0.932969
C170	C	-0.048152	-0.728772	-0.599636
C171	C	0.285181	-0.395439	-0.266303
C172	C	-0.339619	-1.017120	-0.901717
C173	C	-0.006285	-0.683787	-0.568383
C174	C	0.327048	-0.350453	-0.235050
C175	C	-0.297740	-0.972131	-0.936212
C176	C	0.035593	-0.638798	-0.602879
C177	C	0.368926	-0.305465	-0.269546
C178	C	-0.297726	-0.972140	-1.001953
C179	C	0.035607	-0.638807	-0.668620
C180	C	0.368941	-0.305474	-0.335287
N181	N	-0.284346	-1.011744	-0.798705
N182	N	0.048987	-0.678411	-0.465371
N183	N	0.382320	-0.345078	-0.132038
N184	N	-0.284362	-1.011740	-0.736253
N185	N	0.048972	-0.678407	-0.402920
N186	N	0.382305	-0.345073	-0.069587
C187	C	-0.339660	-1.017089	-0.703643
C188	C	-0.006327	-0.683756	-0.370310
C189	C	0.327007	-0.350423	-0.036976
N190	N	-0.394944	-1.022457	-0.735843
N191	N	-0.061610	-0.689124	-0.402510
N192	N	0.271723	-0.355790	-0.069176
N193	N	-0.394928	-1.022465	-0.798300
N194	N	-0.061594	-0.689132	-0.464967
N195	N	0.271739	-0.355798	-0.131633
C196	C	-0.339630	-1.017105	-0.830432
C197	C	-0.006296	-0.683772	-0.497099
C198	C	0.327037	-0.350438	-0.163765
C199	C	-0.381560	-1.062058	-0.597871
C200	C	-0.048227	-0.728725	-0.264537
C201	C	0.285107	-0.395391	0.068796
C202	C	-0.381581	-1.062040	-0.532127
C203	C	-0.048247	-0.728707	-0.198794
C204	C	0.285086	-0.395374	0.134539
C205	C	-0.297830	-0.972070	-0.535372
C206	C	0.035503	-0.638736	-0.202038
C207	C	0.368836	-0.305403	0.131295
C208	C	-0.297815	-0.972084	-0.601114
C209	C	0.035518	-0.638750	-0.267780
C210	C	0.368852	-0.305417	0.065553
C211	C	-0.339679	-1.017082	-0.632359
C212	C	-0.006346	-0.683748	-0.299026
C213	C	0.326987	-0.350415	0.034308
C214	C	-0.339749	-1.017016	-0.103171
C215	C	-0.006416	-0.683682	0.230162
C216	C	0.326918	-0.350349	0.563496
C217	C	-0.339590	-1.017138	-0.033199
C218	C	-0.006257	-0.683805	0.300135
C219	C	0.327076	-0.350471	0.633468
H220	H	-0.403082	-0.749016	-0.203165
H221	H	-0.069748	-0.415682	0.130168
H222	H	0.263585	-0.082349	0.463501
C223	C	-1.112266	-1.111747	-0.178920
C224	C	-0.778933	-0.778414	0.154413
C225	C	-0.445599	-0.445081	0.487747
N226	N	-1.140829	-1.149072	-0.144252
N227	N	-0.807495	-0.815739	0.189081
N228	N	-0.474162	-0.482406	0.522414
H229	H	-0.427129	-0.418899	-0.179085
H230	H	-0.093796	-0.085566	0.154249
H231	H	0.239537	0.247767	0.487582
H232	H	-0.252426	-0.615835	-0.354331
H233	H	0.080908	-0.282502	-0.020997
H234	H	0.414241	0.050832	0.312336
C235	C	-0.974212	-1.111692	-0.178898
C236	C	-0.640878	-0.778359	0.154435
C237	C	-0.307545	-0.445026	0.487769
N238	N	-0.948312	-1.149005	-0.144231
N239	N	-0.614979	-0.815672	0.189103
N240	N	-0.281645	-0.482338	0.522436
H241	H	-0.422347	-0.285550	-0.183897
H242	H	-0.089014	0.047784	0.149436
H243	H	0.244320	0.381117	0.482769
H244	H	-0.398301	-0.615677	-0.207983
H245	H	-0.064967	-0.282344	0.125350
H246	H	0.268366	0.050989	0.458683
C247	C	-0.573368	-1.111504	-0.178817
C248	C	-0.240035	-0.778170	0.154517
C249	C	0.093298	-0.444837	0.487850
N250	N	-0.547470	-1.148798	-0.144132
N251	N	-0.214136	-0.815465	0.189201
N252	N	0.119197	-0.482132	0.522534
C253	C	-0.967464	-0.922543	-0.354645
C254	C	-0.634131	-0.589210	-0.021311
C255	C	-0.300797	-0.255877	0.312022
N256	N	-0.938902	-0.885236	-0.389327
N257	N	-0.605568	-0.551902	-0.055993
N258	N	-0.272235	-0.218569	0.277340
H259	H	-0.701569	-1.098703	-0.190808
H260	H	-0.368236	-0.765369	0.142525
H261	H	-0.034902	-0.432036	0.475858
C262	C	-0.566617	-0.922371	-0.354580
C263	C	-0.233283	-0.589038	-0.021246
C264	C	0.100050	-0.255704	0.312087
N265	N	-0.538053	-0.885054	-0.389253
N266	N	-0.204720	-0.551721	-0.055920
N267	N	0.128614	-0.218387	0.277414
C268	C	-0.251653	-0.922662	-1.039891
C269	C	0.081680	-0.589329	-0.706557
C270	C	0.415014	-0.255995	-0.373224
N271	N	-0.216948	-0.885397	-1.068466
N272	N	0.116385	-0.552063	-0.735132
N273	N	0.449719	-0.218730	-0.401799
C274	C	-0.427617	-1.111549	-0.632243
C275	C	-0.094284	-0.778216	-0.298910
C276	C	0.239050	-0.444882	0.034424
N277	N	-0.462309	-1.148825	-0.658130
N278	N	-0.128975	-0.815492	-0.324797
N279	N	0.204358	-0.482158	0.008536
C280	C	-0.427554	-1.111588	-0.895026
C281	C	-0.094221	-0.778255	-0.561692
C282	C	0.239113	-0.444921	-0.228359
N283	N	-0.462253	-1.148858	-0.866449
N284	N	-0.128920	-0.815525	-0.533115
N285	N	0.204413	-0.482192	-0.199782
H286	H	-0.695743	-0.935286	-0.342627
H287	H	-0.362409	-0.601953	-0.009294
H288	H	-0.029076	-0.268620	0.324040
H289	H	-0.415686	-1.098665	-0.504049
H290	H	-0.082353	-0.765332	-0.170716
H291	H	0.250980	-0.431998	0.162618
H292	H	-0.281260	-0.419054	-0.325430
H293	H	0.052073	-0.085721	0.007904
H294	H	0.385407	0.247613	0.341237
H295	H	-0.263653	-0.935503	-0.910762
H296	H	0.069680	-0.602170	-0.577429
H297	H	0.403014	-0.268836	-0.244096
C298	C	-0.427523	-1.111611	-1.033078
C299	C	-0.094190	-0.778277	-0.699744
C300	C	0.239143	-0.444944	-0.366411
N301	N	-0.462216	-1.148887	-1.058963
N302	N	-0.128883	-0.815553	-0.725630
N303	N	0.204450	-0.482220	-0.392297
H304	H	-0.257209	-0.749183	-0.349511
H305	H	0.076125	-0.415850	-0.016177
H306	H	0.409458	-0.082517	0.317156
C307	C	-1.105520	-0.922584	-0.354652
C308	C	-0.772186	-0.589251	-0.021319
C309	C	-0.438853	-0.255918	0.312015
N310	N	-1.131425	-0.885280	-0.389322
N311	N	-0.798092	-0.551947	-0.055989
N312	N	-0.464759	-0.218614	0.277345
H313	H	-0.263743	-0.935440	-0.509927
H314	H	0.069590	-0.602107	-0.176593
H315	H	0.402924	-0.268773	0.156740
H316	H	-0.276467	-0.285716	-0.330238
H317	H	0.056867	0.047617	0.003096
H318	H	0.390200	0.380950	0.336429
C319	C	-0.251740	-0.922611	-0.639051
C320	C	0.081593	-0.589277	-0.305718
C321	C	0.414927	-0.255944	0.027616
N322	N	-0.217034	-0.885346	-0.667625
N323	N	0.116300	-0.552013	-0.334292
N324	N	0.449633	-0.218679	-0.000958
