data_functionalizedCrystal
_audit_creation_method	'MofGen! by Chris Wilmer'
_symmetry_space_group_name_H-M	'P1'
_symmetry_Int_Tables_number	1
_symmetry_cell_setting	triclinic
loop_
_symmetry_equiv_pos_as_xyz
  x,y,z
_cell_length_a	21.295418
_cell_length_b	25.639239
_cell_length_c	21.295411
_cell_angle_alpha	90.019526
_cell_angle_beta	90.043738
_cell_angle_gamma	90.054499
loop_
_atom_site_label
_atom_site_type_symbol
_atom_site_fract_x
_atom_site_fract_y
_atom_site_fract_z
Zn1	Zn	0.962320	-0.207990	0.356243
Zn2	Zn	0.962207	-0.295410	0.250972
Zn3	Zn	0.857043	-0.208014	0.250953
Zn4	Zn	0.856998	-0.295420	0.356169
O5	O	0.909642	-0.251708	0.303584
O6	O	1.050395	-0.219572	0.342318
O7	O	0.948229	-0.283822	0.162880
O8	O	0.871075	-0.134846	0.264943
O9	O	1.050312	-0.283799	0.264976
O10	O	0.948421	-0.134828	0.342299
O11	O	0.870965	-0.219613	0.162866
O12	O	0.768948	-0.219623	0.264871
O13	O	0.870997	-0.283816	0.444268
O14	O	0.768914	-0.283840	0.342172
O15	O	0.948377	-0.219582	0.444322
O16	O	0.948185	-0.368576	0.264904
O17	O	0.870888	-0.368584	0.342191
C18	C	0.746090	-0.251736	0.303512
C19	C	0.676122	-0.251760	0.303496
C20	C	0.909536	-0.387551	0.303555
C21	C	0.909548	-0.445665	0.303564
C22	C	0.643255	-0.285242	0.343686
C23	C	0.577512	-0.285229	0.343715
C24	C	0.544640	-0.251740	0.303541
C25	C	0.577515	-0.218252	0.263347
C26	C	0.643257	-0.218262	0.263325
N27	N	0.441365	-0.247648	0.248483
N28	N	0.378913	-0.247641	0.248506
C29	C	0.346565	-0.251707	0.303608
N30	N	0.379028	-0.255789	0.358686
N31	N	0.441485	-0.255799	0.358662
C32	C	0.473354	-0.251725	0.303561
C33	C	0.242412	-0.285176	0.343832
C34	C	0.176668	-0.285160	0.343862
C35	C	0.176673	-0.218185	0.263489
C36	C	0.242415	-0.218199	0.263465
C37	C	0.275281	-0.251697	0.303636
C38	C	0.949996	-0.806011	0.263409
C39	C	0.950020	-0.860616	0.263418
O40	O	0.984300	-0.888838	0.229245
N41	N	0.909753	-0.887947	0.303626
C42	C	0.869463	-0.860672	0.343833
O43	O	0.835215	-0.888934	0.378034
C44	C	0.869442	-0.806069	0.343827
C45	C	0.909708	-0.778740	0.303612
C46	C	0.990259	-0.778683	0.223198
C47	C	0.990233	-0.724082	0.223188
C48	C	0.949945	-0.696810	0.263391
C49	C	0.909682	-0.724139	0.303603
C50	C	0.829156	-0.778794	0.384037
C51	C	0.829139	-0.724187	0.384028
C52	C	0.869404	-0.696858	0.343812
C53	C	0.869369	-0.642267	0.343796
N54	N	0.909636	-0.614935	0.303588
C55	C	0.949924	-0.642207	0.263385
C56	C	0.869510	-0.975343	0.343842
C57	C	0.869527	-1.029945	0.343845
C58	C	0.950086	-1.029885	0.263431
C59	C	0.950065	-0.975282	0.263425
C60	C	0.909778	-0.948011	0.303634
C61	C	0.949868	-0.527542	0.263369
C62	C	0.949837	-0.472937	0.263361
C63	C	0.869281	-0.473001	0.343778
C64	C	0.869309	-0.527602	0.343783
C65	C	0.909607	-0.554871	0.303577
O66	O	0.835108	-0.614010	0.377953
O67	O	0.984172	-0.613939	0.229195
C68	C	1.073832	-0.251681	0.303657
C69	C	1.143801	-0.251670	0.303688
C70	C	0.909694	-0.251697	0.467774
C71	C	0.909717	-0.251693	0.537743
C72	C	0.909766	-0.115335	0.303627
C73	C	0.909818	-0.057221	0.303645
C74	C	0.909626	-0.251682	0.140032
C75	C	0.909726	-0.251539	0.070065
C76	C	0.950007	-0.218244	0.570639
C77	C	0.950006	-0.218221	0.636381
C78	C	0.909721	-0.251657	0.669225
C79	C	0.869424	-0.285108	0.636321
C80	C	0.869421	-0.285126	0.570580
N81	N	0.904857	-0.297396	0.772441
N82	N	0.904863	-0.297377	0.834892
C83	C	0.909725	-0.251604	0.867300
N84	N	0.914594	-0.205848	0.834897
N85	N	0.914591	-0.205867	0.772440
C86	C	0.909719	-0.251641	0.740511
C87	C	0.950017	-0.218128	0.971482
C88	C	0.950011	-0.218104	1.037225
C89	C	0.869433	-0.284995	1.037164
C90	C	0.869435	-0.285014	0.971422
C91	C	0.909730	-0.251581	0.938584
H92	H	0.550746	-0.312494	0.376445
N93	N	0.828289	-0.319184	0.937806
N94	N	0.828292	-0.319195	0.879109
H95	H	0.799229	-0.343327	0.855366
N96	N	0.676815	-0.319462	0.384723
N97	N	0.647456	-0.349354	0.420607
H98	H	0.671158	-0.373521	0.449590
N99	N	0.828122	-0.445148	0.384844
N100	N	0.770040	-0.451308	0.380604
H101	H	0.740972	-0.431637	0.409610
N102	N	0.990973	-0.445019	0.222287
N103	N	1.031063	-0.414495	0.244476
H104	H	1.060114	-0.394779	0.215468
N105	N	0.991024	-0.555384	0.222286
N106	N	0.986866	-0.549304	0.164196
H107	H	1.015929	-0.568968	0.135177
H108	H	0.269176	-0.190937	0.230734
N109	N	0.991205	-0.947368	0.222358
N110	N	1.031300	-0.916851	0.244551
H111	H	1.060358	-0.897138	0.215546
N112	N	0.828391	-1.057865	0.384910
N113	N	0.788300	-1.088386	0.362717
H114	H	0.759248	-1.108104	0.391722
N115	N	0.991176	-0.184062	0.669991
N116	N	1.031272	-0.202449	0.706700
H117	H	1.060350	-0.178325	0.730435
N118	N	0.543931	-0.184043	0.222319
N119	N	0.485234	-0.184038	0.222344
H120	H	0.461514	-0.159875	0.193369
N121	N	0.676824	-0.184054	0.222267
N122	N	0.647470	-0.154150	0.186404
H123	H	0.671177	-0.129990	0.157406
N124	N	0.991177	-0.183942	1.070831
N125	N	1.031272	-0.202325	1.107545
H126	H	1.060347	-0.178198	1.131280
H127	H	0.836622	-0.312329	0.663067
N128	N	0.275978	-0.319396	0.384867
N129	N	0.246621	-0.349286	0.420754
H130	H	0.270325	-0.373455	0.449736
H131	H	0.149909	-0.190915	0.230781
H132	H	0.149909	-0.312424	0.376594
N133	N	1.031353	-0.696170	0.182099
N134	N	1.009207	-0.665748	0.141946
H135	H	1.038248	-0.646040	0.112920
N136	N	0.991245	-1.057739	0.222359
N137	N	0.987101	-1.051670	0.164266
H138	H	1.016169	-1.071343	0.135260
N139	N	1.031423	-0.806526	0.182127
N140	N	1.067367	-0.782109	0.146232
H141	H	1.096440	-0.801769	0.117221
H142	H	0.836698	-0.953141	0.376584
N143	N	0.828258	-0.319296	0.536984
N144	N	0.792287	-0.349144	0.566312
H145	H	0.763215	-0.373277	0.542584
H146	H	0.982818	-0.191020	0.543907
N147	N	0.991176	-0.183973	0.937944
N148	N	1.027143	-0.154105	0.967327
H149	H	1.056212	-0.129982	0.943643
H150	H	0.836626	-0.312213	1.063905
H151	H	0.796364	-0.801036	0.416781
N152	N	0.787985	-0.696340	0.425110
N153	N	0.752041	-0.720751	0.461011
H154	H	0.722976	-0.701086	0.490025
N155	N	0.828165	-0.555513	0.384854
N156	N	0.792192	-0.531154	0.420741
H157	H	0.763135	-0.550862	0.449751
