data_functionalizedCrystal
_audit_creation_method	'MofGen! by Chris Wilmer'
_symmetry_space_group_name_H-M	'P1'
_symmetry_Int_Tables_number	1
_symmetry_cell_setting	triclinic
loop_
_symmetry_equiv_pos_as_xyz
  x,y,z
_cell_length_a	29.839131
_cell_length_b	17.640112
_cell_length_c	17.640968
_cell_angle_alpha	92.139080
_cell_angle_beta	101.231391
_cell_angle_gamma	78.733316
loop_
_atom_site_label
_atom_site_type_symbol
_atom_site_fract_x
_atom_site_fract_y
_atom_site_fract_z
Zn1	Zn	-0.012909	-1.247771	0.195080
Zn2	Zn	0.487091	-0.747771	0.695080
Zn3	Zn	-0.105602	-1.221948	0.068098
Zn4	Zn	0.394398	-0.721948	0.568098
Zn5	Zn	-0.042134	-1.095086	0.093726
Zn6	Zn	0.457866	-0.595086	0.593726
Zn7	Zn	-0.099688	-1.120692	0.220680
Zn8	Zn	0.400312	-0.620692	0.720680
O9	O	-0.065083	-1.171374	0.144396
O10	O	0.434917	-0.671374	0.644396
O11	O	-0.015449	-1.350620	0.156796
O12	O	0.484551	-0.850620	0.656796
O13	O	-0.111889	-1.183596	-0.034776
O14	O	0.388111	-0.683596	0.465224
O15	O	0.024621	-1.115431	0.107183
O16	O	0.524621	-0.615431	0.607183
O17	O	-0.083550	-1.331648	0.063503
O18	O	0.416450	-0.831648	0.563503
O19	O	0.046093	-1.227608	0.181647
O20	O	0.546093	-0.727608	0.681647
O21	O	-0.065260	-1.090391	-0.015947
O22	O	0.434740	-0.590391	0.484053
O23	O	-0.059525	-0.992208	0.132006
O24	O	0.440475	-0.492208	0.632006
O25	O	-0.073471	-1.159073	0.323557
O26	O	0.426529	-0.659073	0.823557
O27	O	-0.101810	-1.011020	0.225278
O28	O	0.398190	-0.511020	0.725278
O29	O	-0.009714	-1.252437	0.304749
O30	O	0.490286	-0.752437	0.804749
O31	O	-0.167697	-1.208425	0.088326
O32	O	0.332303	-0.708425	0.588326
O33	O	-0.163352	-1.134033	0.200427
O34	O	0.336648	-0.634033	0.700427
C35	C	-0.083197	-0.974058	0.184201
C36	C	0.416803	-0.474058	0.684201
C37	C	-0.090955	-0.889649	0.201248
C38	C	0.409045	-0.389649	0.701248
C39	C	-0.181824	-1.171229	0.144386
C40	C	0.318176	-0.671229	0.644386
C41	C	-0.231756	-1.171242	0.144393
C42	C	0.268244	-0.671242	0.644393
C43	C	-0.037673	-1.211491	0.342479
C44	C	0.462327	-0.711491	0.842479
C45	C	-0.025992	-1.228587	0.426890
C46	C	0.474008	-0.728587	0.926890
C47	C	-0.543616	-1.210213	0.086078
C48	C	-0.043616	-0.710213	0.586078
C49	C	-0.731276	-1.210312	0.086088
C50	C	-0.231276	-0.710312	0.586088
O51	O	-0.757439	-1.243332	0.036500
O52	O	-0.257439	-0.743332	0.536500
N53	N	-0.752503	-1.171543	0.144421
N54	N	-0.252503	-0.671543	0.644421
C55	C	-0.726811	-1.132750	0.202759
C56	C	-0.226811	-0.632750	0.702759
O57	O	-0.749171	-1.099784	0.252379
O58	O	-0.249171	-0.599784	0.752379
C59	C	-0.539151	-1.132656	0.202750
C60	C	-0.039151	-0.632656	0.702750
C61	C	-0.517928	-1.171421	0.144409
C62	C	-0.017928	-0.671421	0.644409
C63	C	-0.522392	-1.248976	0.027742
C64	C	-0.022392	-0.748976	0.527742
C65	C	-0.475481	-1.248947	0.027738
C66	C	0.024519	-0.748947	0.527738
C67	C	-0.449792	-1.210155	0.086069
C68	C	0.050208	-0.710155	0.586069
C69	C	-0.471016	-1.171392	0.144405
C70	C	0.028984	-0.671392	0.644405
C71	C	-0.513459	-1.093868	0.261090
C72	C	-0.013459	-0.593868	0.761090
C73	C	-0.466541	-1.093850	0.261084
C74	C	0.033459	-0.593850	0.761084
C75	C	-0.445318	-1.132615	0.202743
C76	C	0.054682	-0.632615	0.702743
C77	C	-0.398416	-1.132572	0.202732
C78	C	0.101584	-0.632572	0.702732
N79	N	-0.377189	-1.171341	0.144399
N80	N	0.122811	-0.671341	0.644399
C81	C	-0.402877	-1.210133	0.086068
C82	C	0.097123	-0.710133	0.586068
C83	C	-0.825336	-1.132802	0.202758
C84	C	-0.325336	-0.632802	0.702758
C85	C	-0.872251	-1.132824	0.202759
C86	C	-0.372251	-0.632824	0.702759
C87	C	-0.876713	-1.210387	0.086090
C88	C	-0.376713	-0.710387	0.586090
C89	C	-0.829797	-1.210360	0.086086
C90	C	-0.329797	-0.710360	0.586086
C91	C	-0.804109	-1.171571	0.144425
C92	C	-0.304109	-0.671571	0.644425
C93	C	-0.304360	-1.210069	0.086062
C94	C	0.195640	-0.710069	0.586062
C95	C	-0.257444	-1.210034	0.086061
C96	C	0.242556	-0.710034	0.586061
C97	C	-0.252986	-1.132474	0.202733
C98	C	0.247014	-0.632474	0.702733
C99	C	-0.299898	-1.132505	0.202732
C100	C	0.200102	-0.632505	0.702732
C101	C	-0.325583	-1.171308	0.144393
C102	C	0.174417	-0.671308	0.644393
O103	O	-0.372224	-1.099577	0.252299
O104	O	0.127776	-0.599577	0.752299
O105	O	-0.380507	-1.243109	0.036464
O106	O	0.119493	-0.743109	0.536464
C107	C	-0.590527	-1.210242	0.086082
C108	C	-0.090527	-0.710242	0.586082
C109	C	-0.611751	-1.171479	0.144418
C110	C	-0.111751	-0.671479	0.644418
C111	C	-0.586063	-1.132687	0.202750
C112	C	-0.086063	-0.632687	0.702750
C113	C	-0.658666	-1.171501	0.144420
C114	C	-0.158666	-0.671501	0.644420
C115	C	-0.684354	-1.210293	0.086088
C116	C	-0.184354	-0.710293	0.586088
C117	C	-0.663127	-1.249062	0.027755
C118	C	-0.163127	-0.749062	0.527755
C119	C	-0.616215	-1.249033	0.027751
C120	C	-0.116215	-0.749033	0.527751
C121	C	-0.607290	-1.093918	0.261082
C122	C	-0.107290	-0.593918	0.761082
C123	C	-0.654202	-1.093949	0.261082
C124	C	-0.154202	-0.593949	0.761082
C125	C	-0.679890	-1.132741	0.202750
C126	C	-0.179890	-0.632741	0.702750
C127	C	0.052117	-1.171544	0.144418
C128	C	0.552117	-0.671544	0.644418
C129	C	0.102061	-1.171616	0.144428
C130	C	0.602061	-0.671616	0.644428
C131	C	-0.046899	-1.369461	0.104435
C132	C	0.453101	-0.869461	0.604435
C133	C	-0.039150	-1.453873	0.087407
C134	C	0.460850	-0.953873	0.587407
C135	C	-0.006143	-0.563036	0.014898
C136	C	0.493857	-0.063036	0.514898
C137	C	-0.013439	-0.483723	0.030927
C138	C	0.486561	0.016277	0.530927
C139	C	-0.057573	-0.503332	0.127883
C140	C	0.442427	-0.003332	0.627883
C141	C	-0.050277	-0.582649	0.111866
C142	C	0.449723	-0.082649	0.611866
C143	C	-0.024563	-0.612494	0.055372
C144	C	0.475437	-0.112494	0.555372
C145	C	-0.068697	-0.632108	0.152339
C146	C	0.431303	-0.132108	0.652339
C147	C	-0.061405	-0.711417	0.136320
C148	C	0.438595	-0.211417	0.636320
C149	C	-0.035692	-0.741268	0.079827
C150	C	0.464308	-0.241268	0.579827
C151	C	-0.017270	-0.691803	0.039352
C152	C	0.482730	-0.191803	0.539352
C153	C	-0.094415	-0.602261	0.208829
C154	C	0.405585	-0.102261	0.708829
C155	C	-0.112835	-0.651719	0.249303
C156	C	0.387165	-0.151719	0.749303
C157	C	-0.105540	-0.731031	0.233287
C158	C	0.394460	-0.231031	0.733287
C159	C	-0.079827	-0.760882	0.176794
C160	C	0.420173	-0.260882	0.676794
C161	C	-0.123962	-0.780495	0.273762
C162	C	0.376038	-0.280495	0.773762
C163	C	-0.116670	-0.859805	0.257742
C164	C	0.383330	-0.359805	0.757742
C165	C	-0.072535	-0.840191	0.160775
C166	C	0.427465	-0.340191	0.660775
C167	C	-0.092351	-1.131457	-0.052925
C168	C	0.407649	-0.631457	0.447075
C169	C	-0.103892	-1.114508	-0.137366
C170	C	0.396108	-0.614508	0.362634
C171	C	-0.153550	-1.041792	0.753463
C172	C	0.346450	-0.541792	1.253463
C173	C	-0.142567	-1.057872	0.832777
C174	C	0.357433	-0.557872	1.332777
C175	C	-0.076183	-1.155084	0.813183
C176	C	0.423817	-0.655084	1.313183
C177	C	-0.087159	-1.139010	0.733867
C178	C	0.412841	-0.639010	1.233867
C179	C	-0.125843	-1.082364	0.704013
C180	C	0.374157	-0.582364	1.204013
C181	C	-0.059452	-1.179581	0.684417
C182	C	0.440548	-0.679581	1.184417
C183	C	-0.070429	-1.163511	0.605107
C184	C	0.429571	-0.663511	1.105107
C185	C	-0.109113	-1.106869	0.575246
C186	C	0.390887	-0.606869	1.075246
C187	C	-0.136820	-1.066293	0.624703
C188	C	0.363180	-0.566293	1.124703
C189	C	-0.020770	-1.236231	0.714271
C190	C	0.479230	-0.736231	1.214271
C191	C	0.006936	-1.276802	0.664821
C192	C	0.506936	-0.776802	1.164821
C193	C	-0.004039	-1.260728	0.585510
C194	C	0.495961	-0.760728	1.085510
C195	C	-0.042722	-1.204086	0.555650
C196	C	0.457278	-0.704086	1.055650
C197	C	0.023669	-1.301304	0.536054
C198	C	0.523669	-0.801304	1.036054
C199	C	0.012692	-1.285233	0.456744
C200	C	0.512692	-0.785233	0.956744
C201	C	-0.053699	-1.188016	0.476340
C202	C	0.446301	-0.688016	0.976340
H203	H	-0.240166	-1.241600	0.038551
H204	H	0.259834	-0.741600	0.538551
C205	C	-0.332608	-1.252748	0.021883
C206	C	0.167392	-0.752748	0.521883
N207	N	-0.353885	-1.284890	-0.026461
N208	N	0.146115	-0.784890	0.473539
H209	H	-0.897636	-1.241973	0.038594
H210	H	-0.397636	-0.741973	0.538594
C211	C	0.006827	-0.429320	-0.013601
C212	C	0.506827	0.070680	0.486399
N213	N	0.022091	-0.388343	-0.047140
N214	N	0.522091	0.111657	0.452860
C215	C	-0.895593	-1.090170	0.266933
C216	C	-0.395593	-0.590170	0.766933
N217	N	-0.913172	-1.058046	0.315274
N218	N	-0.413172	-0.558046	0.815274
H219	H	-0.029756	-0.805847	0.066783
H220	H	0.470244	-0.305847	0.566783
C221	C	-0.452143	-1.291585	-0.036448
C222	C	0.047857	-0.791585	0.463552
N223	N	-0.434568	-1.323699	-0.084797
N224	N	0.065432	-0.823699	0.415203
H225	H	-0.168312	-1.020148	0.600398
H226	H	0.331688	-0.520148	1.100398
C227	C	-0.323245	-1.089859	0.266908
C228	C	0.176755	-0.589859	0.766908
N229	N	-0.340825	-1.057743	0.315251
N230	N	0.159175	-0.557743	0.815251
C231	C	0.066221	-1.363611	0.568905
C232	C	0.566221	-0.863611	1.068905
N233	N	0.098272	-1.410540	0.593648
N234	N	0.598272	-0.910540	1.093648
H235	H	-0.598939	-1.280600	-0.019756
H236	H	-0.098939	-0.780600	0.480244
C237	C	-0.085857	-0.470494	0.190027
C238	C	0.414143	0.029506	0.690027
N239	N	-0.107160	-0.445761	0.236836
N240	N	0.392840	0.054239	0.736836
C241	C	-0.141120	-0.618881	0.311446
C242	C	0.358880	-0.118881	0.811446
N243	N	-0.162423	-0.594148	0.358255
N244	N	0.337577	-0.094148	0.858255
C245	C	-0.121187	-1.089190	0.488002
C246	C	0.378813	-0.589190	0.988002
N247	N	-0.130281	-1.075873	0.422290
N248	N	0.369719	-0.575873	0.922290
H249	H	-0.671478	-1.062375	0.308591
H250	H	-0.171478	-0.562375	0.808591
H251	H	-0.144903	-0.756182	0.319754
H252	H	0.355097	-0.256182	0.819754
H253	H	-0.100352	-0.537681	0.221870
H254	H	0.399648	-0.037681	0.721870
H255	H	-0.051587	-0.864494	0.114783
H256	H	0.448413	-0.364494	0.614783
C257	C	-0.797080	-1.090152	0.266956
C258	C	-0.297080	-0.590152	0.766956
N259	N	-0.775798	-1.058035	0.315315
N260	N	-0.275798	-0.558035	0.815315
C261	C	-0.196104	-0.979478	0.720620
C262	C	0.303896	-0.479478	1.220620
N263	N	-0.228156	-0.932547	0.695882
N264	N	0.271844	-0.432547	1.195882
H265	H	-0.530732	-1.062297	0.308595
H266	H	-0.030732	-0.562297	0.808595
H267	H	-0.812520	-1.241926	0.038580
H268	H	-0.312520	-0.741926	0.538580
H269	H	0.038432	-1.322925	0.689139
H270	H	0.538432	-0.822925	1.189139
C271	C	-0.136930	-0.914213	0.302269
C272	C	0.363070	-0.414213	0.802269
N273	N	-0.152191	-0.955193	0.335807
N274	N	0.347809	-0.455193	0.835807
C275	C	-0.224720	-1.089809	0.266897
C276	C	0.275280	-0.589809	0.766897
N277	N	-0.203427	-1.057679	0.315229
N278	N	0.296573	-0.557679	0.815229
C279	C	-0.691393	-1.291732	-0.036411
C280	C	-0.191393	-0.791732	0.463589
N281	N	-0.712685	-1.323872	-0.084735
N282	N	-0.212685	-0.823872	0.415265
C283	C	-0.173048	-1.013234	0.887171
C284	C	0.326952	-0.513234	1.387171
N285	N	-0.196007	-0.979613	0.928140
N286	N	0.303993	-0.479613	1.428140
H287	H	-0.044687	-1.201208	0.837501
H288	H	0.455313	-0.701208	1.337501
H289	H	-0.085190	-1.141871	0.452035
H290	H	0.414810	-0.641871	0.952035
H291	H	-0.586378	-1.062330	0.308584
H292	H	-0.086378	-0.562330	0.808584
C293	C	-0.438286	-1.051178	0.325264
C294	C	0.061714	-0.551178	0.825264
N295	N	-0.417006	-1.019036	0.373603
N296	N	0.082994	-0.519036	0.873603
C297	C	-0.008696	-1.253906	0.801516
C298	C	0.491304	-0.753906	1.301516
N299	N	0.000399	-1.267217	0.867230
N300	N	0.500399	-0.767217	1.367230
C301	C	0.022148	-0.595869	-0.047246
C302	C	0.522148	-0.095869	0.452754
N303	N	0.043454	-0.620600	-0.094052
N304	N	0.543454	-0.120600	0.405948
C305	C	-0.550643	-1.291648	-0.036436
C306	C	-0.050643	-0.791648	0.463564
N307	N	-0.571920	-1.323786	-0.084784
N308	N	-0.071920	-0.823786	0.415216
C309	C	0.011020	-0.724637	-0.022792
C310	C	0.511020	-0.224637	0.477208
N311	N	0.032326	-0.749368	-0.069598
N312	N	0.532326	-0.249368	0.430402
C313	C	0.043171	-1.329862	0.402346
C314	C	0.543171	-0.829862	0.902346
N315	N	0.066129	-1.363480	0.361373
N316	N	0.566129	-0.863480	0.861373
