data_functionalizedCrystal
_audit_creation_method	'MofGen! by Chris Wilmer'
_symmetry_space_group_name_H-M	'P1'
_symmetry_Int_Tables_number	1
_symmetry_cell_setting	triclinic
loop_
_symmetry_equiv_pos_as_xyz
  x,y,z
_cell_length_a	10.654550
_cell_length_b	8.559649
_cell_length_c	9.130313
_cell_angle_alpha	90.000859
_cell_angle_beta	89.996220
_cell_angle_gamma	77.131784
loop_
_atom_site_label
_atom_site_type_symbol
_atom_site_fract_x
_atom_site_fract_y
_atom_site_fract_z
O1	O	1.644677	0.224178	-0.121910
O2	O	1.276992	0.245536	-0.121886
O3	O	1.493228	0.002614	-0.121899
O4	O	1.428441	0.467100	-0.121898
O5	O	1.493225	0.002621	0.121700
O6	O	1.276989	0.245543	0.121713
O7	O	1.644674	0.224184	0.121688
Cu8	Cu	1.460831	0.234864	0.143943
Cu9	Cu	1.460835	0.234856	-0.144141
O10	O	1.428438	0.467107	0.121701
C11	C	1.230355	0.243972	-0.000084
C12	C	1.091396	0.239279	-0.000075
C13	C	0.997136	0.382308	-0.000096
C14	C	0.866571	0.377890	-0.000121
C15	C	0.924542	0.087401	-0.000111
C16	C	1.055103	0.091821	-0.000075
C17	C	0.963666	0.550020	-0.000108
C18	C	0.833101	0.545601	-0.000133
C19	C	1.498136	-0.056858	-0.000103
C20	C	1.512750	-0.234076	-0.000112
C21	C	1.691311	0.225749	-0.000117
C22	C	1.830270	0.230441	-0.000136
C23	C	1.423530	0.526579	-0.000098
C24	C	1.408916	0.703797	-0.000099
N25	N	1.460838	0.234869	0.346566
N26	N	1.460839	0.234839	-0.346763
C27	C	1.556605	0.127340	0.423212
C28	C	1.556604	0.127320	0.576549
C29	C	1.365062	0.342374	0.576580
C30	C	1.365060	0.342384	0.423245
C31	C	1.667194	0.003185	0.423195
C32	C	1.667192	0.003166	0.576532
H33	H	1.131848	-0.024647	-0.000037
H34	H	1.760879	0.030513	0.618142
C35	C	0.884606	-0.074794	-0.000118
N36	N	0.854528	-0.196964	-0.000128
H37	H	1.612835	-0.316473	-0.000107
C38	C	1.642133	-0.153445	0.640776
N39	N	1.623250	-0.271397	0.689167
H40	H	1.287069	0.429928	0.360841
H41	H	0.986220	0.615614	0.101844
C42	C	1.259710	0.460632	0.660942
N43	N	1.180357	0.549706	0.724482
H44	H	1.308838	-0.213815	-0.000088
H45	H	1.754362	0.042059	0.375631
C46	C	1.004396	0.622130	-0.142200
N47	N	1.035078	0.676429	-0.249232
C48	C	1.655336	-0.162548	0.366963
N49	N	1.646402	-0.287373	0.324610
C50	C	0.764314	0.614110	0.141927
N51	N	0.712499	0.665721	0.248920
H52	H	0.784843	0.608790	-0.102087
