data_functionalizedCrystal
_audit_creation_method	'MofGen! by Chris Wilmer'
_symmetry_space_group_name_H-M	'P1'
_symmetry_Int_Tables_number	1
_symmetry_cell_setting	triclinic
loop_
_symmetry_equiv_pos_as_xyz
  x,y,z
_cell_length_a	13.032831
_cell_length_b	16.625546
_cell_length_c	13.033454
_cell_angle_alpha	82.779398
_cell_angle_beta	89.091650
_cell_angle_gamma	82.826778
loop_
_atom_site_label
_atom_site_type_symbol
_atom_site_fract_x
_atom_site_fract_y
_atom_site_fract_z
Zn1	Zn	1.498515	-0.391470	-0.780836
Zn2	Zn	1.520227	-0.545315	-0.608830
Zn3	Zn	1.348355	-0.395768	-0.587066
Zn4	Zn	1.326492	-0.511528	-0.758967
O5	O	1.423397	-0.461020	-0.683925
O6	O	1.645316	-0.424219	-0.776280
O7	O	1.515664	-0.541417	-0.462016
O8	O	1.368337	-0.282368	-0.612814
O9	O	1.661268	-0.537249	-0.649907
O10	O	1.478659	-0.279210	-0.755176
O11	O	1.389391	-0.431545	-0.446026
O12	O	1.201534	-0.398783	-0.591608
O13	O	1.331075	-0.479663	-0.905794
O14	O	1.185471	-0.483831	-0.717903
O15	O	1.457459	-0.391457	-0.921861
O16	O	1.494465	-0.653664	-0.628702
O17	O	1.352128	-0.628840	-0.739007
C18	C	1.156185	-0.438107	-0.650022
C19	C	1.041868	-0.428321	-0.635542
C20	C	0.982993	-0.466128	-0.691482
C21	C	0.864840	-0.456015	-0.676518
C22	C	1.423305	-0.670508	-0.683869
C23	C	1.423356	-0.760131	-0.683892
C24	C	1.423522	-1.088311	-0.684022
C25	C	1.423472	-0.997001	-0.683988
C26	C	1.423438	-0.924224	-0.683956
C27	C	1.423390	-0.832908	-0.683924
C28	C	1.691653	-0.484024	-0.717961
C29	C	1.805967	-0.493826	-0.732465
C30	C	1.389406	-0.431312	-0.952190
C31	C	1.374921	-0.418651	-1.066508
C32	C	1.423515	-0.250715	-0.684006
C33	C	1.423565	-0.161095	-0.684041
C34	C	1.430941	-0.467369	-1.125387
C35	C	1.415972	-0.454286	-1.243541
C36	C	1.457315	-0.490560	-0.416711
C37	C	1.471999	-0.503010	-0.302418
H38	H	1.004799	-0.388463	-0.576577
Cl39	Cl	1.522111	-0.546717	-1.068172
Cl40	Cl	1.324812	-0.374925	-1.300754
Cl41	Cl	0.863178	-0.555349	-0.823534
Cl42	Cl	1.563168	-0.582367	-1.245209
H43	H	0.827776	-0.416154	-0.617548
H44	H	1.315883	-0.367253	-1.103574
H45	H	1.020061	-0.505979	-0.750455
