data_functionalizedCrystal
_audit_creation_method	'MofGen! by Chris Wilmer'
_symmetry_space_group_name_H-M	'P1'
_symmetry_Int_Tables_number	1
_symmetry_cell_setting	triclinic
loop_
_symmetry_equiv_pos_as_xyz
  x,y,z
_cell_length_a	42.784839
_cell_length_b	42.784841
_cell_length_c	42.784893
_cell_angle_alpha	90.002418
_cell_angle_beta	59.997780
_cell_angle_gamma	119.999863
loop_
_atom_site_label
_atom_site_type_symbol
_atom_site_fract_x
_atom_site_fract_y
_atom_site_fract_z
O1	O	0.275695	-0.214412	-0.009300
O2	O	0.211692	-0.168961	0.009253
O3	O	0.275692	-0.168961	-0.054750
O4	O	0.211694	-0.214412	0.054702
O5	O	0.223708	-0.220945	-0.054749
O6	O	0.159708	-0.220945	0.009253
O7	O	0.223710	-0.266397	-0.009300
Zn8	Zn	0.183455	-0.251924	-0.000023
Zn9	Zn	0.251947	-0.183433	-0.000024
O10	O	0.159710	-0.266396	0.054703
C11	C	0.051021	-0.022778	0.028112
C12	C	0.013142	-0.041761	0.028375
C13	C	0.051018	-0.079378	0.028116
C14	C	0.013139	-0.098275	0.028379
C15	C	-0.005578	-0.079377	0.028112
C16	C	0.069652	-0.041762	0.028379
C17	C	0.152948	0.113708	0.017863
C18	C	0.173786	0.152360	0.014965
C19	C	0.155902	0.171750	0.013509
C20	C	0.178499	0.213661	0.010359
C21	C	0.117177	0.152485	0.014953
C22	C	0.096339	0.113835	0.017857
C23	C	0.114226	0.094447	0.019312
C24	C	-0.131813	-0.113936	0.017859
C25	C	-0.167567	-0.131750	0.014961
C26	C	-0.185502	-0.169024	0.013506
C27	C	-0.224264	-0.188340	0.010358
C28	C	-0.167685	-0.188485	0.014954
C29	C	-0.131938	-0.170675	0.017859
C30	C	-0.114002	-0.133396	0.019309
C31	C	0.152939	-0.113943	0.017877
C32	C	0.173778	-0.131757	0.014977
C33	C	0.155892	-0.169032	0.013523
C34	C	0.178486	-0.188349	0.010377
C35	C	0.117170	-0.188491	0.014967
C36	C	0.096334	-0.170675	0.017865
C37	C	0.114220	-0.133401	0.019323
C38	C	0.091629	0.052537	0.022456
C39	C	0.073617	0.019131	0.024964
C40	C	0.073613	-0.098693	0.024971
C41	C	0.091623	-0.114089	0.022466
C42	C	-0.044339	-0.098690	0.024964
C43	C	-0.075237	-0.114084	0.022456
O44	O	-0.327856	-0.266388	-0.009322
O45	O	-0.236954	-0.220935	0.009228
O46	O	-0.236950	-0.220939	-0.054773
O47	O	-0.327860	-0.266385	0.054680
O48	O	-0.236948	-0.168954	-0.054776
O49	O	-0.236952	-0.168950	0.009225
O50	O	-0.327854	-0.214403	-0.009325
Zn51	Zn	-0.282403	-0.183423	-0.000050
Zn52	Zn	-0.282405	-0.251916	-0.000046
O53	O	-0.327858	-0.214400	0.054676
C54	C	0.384390	-0.079141	-0.361606
C55	C	0.422270	-0.041526	-0.380503
C56	C	0.384390	-0.079141	-0.305008
C57	C	0.422270	-0.041526	-0.323990
C58	C	0.440988	-0.022543	-0.361606
C59	C	0.365758	-0.098038	-0.323991
C60	C	0.282465	-0.170819	-0.396168
C61	C	0.261627	-0.188759	-0.413983
C62	C	0.279513	-0.169420	-0.451257
C63	C	0.256917	-0.188867	-0.470572
C64	C	0.318239	-0.132140	-0.470717
C65	C	0.339076	-0.114205	-0.452905
C66	C	0.321187	-0.133546	-0.415628
C67	C	0.567227	0.113942	-0.453282
C68	C	0.602981	0.152594	-0.471222
C69	C	0.620916	0.171985	-0.451883
C70	C	0.659678	0.213894	-0.471328
C71	C	0.603097	0.152719	-0.414603
C72	C	0.567349	0.114068	-0.396667
C73	C	0.549414	0.094682	-0.416011
C74	C	0.282465	-0.170819	-0.168522
C75	C	0.261624	-0.188757	-0.129868
C76	C	0.279510	-0.169418	-0.110479
C77	C	0.256914	-0.188865	-0.068568
C78	C	0.318233	-0.132140	-0.129742
C79	C	0.339070	-0.114203	-0.168394
C80	C	0.321184	-0.133548	-0.187782
C81	C	0.343783	-0.114094	-0.396315
C82	C	0.361794	-0.098590	-0.380920
C83	C	0.361794	-0.098590	-0.263099
C84	C	0.343783	-0.114094	-0.229693
C85	C	0.479750	0.019366	-0.381054
C86	C	0.510649	0.052771	-0.396557
C87	C	0.440758	-0.356212	-0.028193
C88	C	0.422041	-0.393827	-0.028459
C89	C	0.384158	-0.356213	-0.028190
C90	C	0.365526	-0.393828	-0.028456
C91	C	0.384160	-0.412810	-0.028193
C92	C	0.422038	-0.337315	-0.028456
C93	C	0.567000	-0.264532	-0.017949
C94	C	0.602755	-0.246591	-0.015053
C95	C	0.620692	-0.265931	-0.013601
C96	C	0.659455	-0.246483	-0.010453
C97	C	0.602873	-0.303210	-0.015048
C98	C	0.567125	-0.321146	-0.017949
C99	C	0.549188	-0.301805	-0.019399
C100	C	0.339356	-0.549295	-0.017951
C101	C	0.318645	-0.587947	-0.015055
C102	C	0.279915	-0.607338	-0.013597
C103	C	0.257452	-0.649247	-0.010452
C104	C	0.261899	-0.588073	-0.015042
C105	C	0.282613	-0.549422	-0.017945
C106	C	0.321343	-0.530035	-0.019397
C107	C	0.339344	-0.264537	-0.017936
C108	C	0.318628	-0.246599	-0.015032
C109	C	0.279898	-0.265939	-0.013577
C110	C	0.257433	-0.246493	-0.010426
C111	C	0.261884	-0.303217	-0.015022
C112	C	0.282601	-0.321153	-0.017924
C113	C	0.321334	-0.301808	-0.019385
C114	C	0.510421	-0.321258	-0.022542
C115	C	0.479522	-0.336762	-0.025048
C116	C	0.361696	-0.336765	-0.025041
C117	C	0.343793	-0.321261	-0.022532
C118	C	0.361701	-0.454719	-0.025047
C119	C	0.343799	-0.488125	-0.022541
O120	O	0.223728	0.336934	-0.009323
O121	O	0.159726	0.227482	0.009227
O122	O	0.223729	0.291478	-0.054775
O123	O	0.159725	0.272938	0.054678
O124	O	0.275711	0.291477	-0.054771
O125	O	0.211707	0.227481	0.009230
O126	O	0.275710	0.336932	-0.009320
Zn127	Zn	0.251962	0.282206	-0.000045
Zn128	Zn	0.183474	0.282208	-0.000049
O129	O	0.211707	0.272936	0.054681
O130	O	0.763271	0.337164	-0.496871
O131	O	0.672367	0.227713	-0.451422
O132	O	0.672365	0.291711	-0.451418
O133	O	0.763273	0.273165	-0.496876
O134	O	0.672366	0.291712	-0.503402
O135	O	0.672368	0.227714	-0.503407
O136	O	0.763272	0.337165	-0.548856
Zn137	Zn	0.717820	0.282440	-0.534385
Zn138	Zn	0.717819	0.282438	-0.465893
O139	O	0.763275	0.273167	-0.548860
O140	O	0.211690	-0.214417	-0.548617
O141	O	0.275691	-0.168962	-0.503167
O142	O	0.211689	-0.168964	-0.503163
O143	O	0.275692	-0.214415	-0.548621
O144	O	0.159706	-0.220947	-0.451179
O145	O	0.223708	-0.220945	-0.451183
O146	O	0.159707	-0.266400	-0.496633
Zn147	Zn	0.183454	-0.251926	-0.465654
Zn148	Zn	0.251944	-0.183436	-0.534146
O149	O	0.223709	-0.266398	-0.496637
C150	C	-0.005343	-0.412572	0.361558
C151	C	0.013375	-0.393590	0.380456
C152	C	0.051255	-0.355974	0.304961
C153	C	0.069887	-0.337077	0.323944
C154	C	0.051254	-0.355974	0.361560
C155	C	0.013375	-0.393589	0.323943
C156	C	-0.131582	-0.549057	0.396116
C157	C	-0.167336	-0.587709	0.413930
C158	C	-0.185271	-0.607098	0.451205
C159	C	-0.224034	-0.649009	0.470519
C160	C	-0.167452	-0.587833	0.470666
C161	C	-0.131705	-0.549184	0.452854
C162	C	-0.113770	-0.529796	0.415578
C163	C	0.096061	-0.321414	0.453239
C164	C	0.116773	-0.303600	0.471179
C165	C	0.155502	-0.266327	0.451842
C166	C	0.177965	-0.247011	0.471288
C167	C	0.173517	-0.246866	0.414562
C168	C	0.152802	-0.264677	0.396625
C169	C	0.114073	-0.301955	0.415968
C170	C	0.096064	-0.321412	0.168474
C171	C	0.116779	-0.303599	0.129820
C172	C	0.155508	-0.266324	0.110432
C173	C	0.177972	-0.247009	0.068521
C174	C	0.173522	-0.246865	0.129696
C175	C	0.152807	-0.264680	0.168348
C176	C	0.114075	-0.301953	0.187735
C177	C	-0.075004	-0.487887	0.396265
C178	C	-0.044106	-0.454481	0.380871
C179	C	0.073715	-0.336660	0.263052
C180	C	0.091618	-0.321265	0.229646
C181	C	0.073714	-0.336661	0.381009
C182	C	0.091616	-0.321267	0.396513
C183	C	0.051046	-0.022794	-0.361634
C184	C	0.069679	-0.041778	-0.380530
C185	C	-0.005555	-0.079390	-0.305034
C186	C	0.013163	-0.098288	-0.324016
C187	C	0.051045	-0.079393	-0.361631
C188	C	0.013164	-0.041775	-0.324018
C189	C	0.095858	0.113693	-0.396200
C190	C	0.116571	0.152344	-0.414015
C191	C	0.155302	0.171732	-0.451290
C192	C	0.177767	0.213642	-0.470607
C193	C	0.173317	0.152465	-0.470750
C194	C	0.152600	0.113815	-0.452936
C195	C	0.113869	0.094429	-0.415659
C196	C	0.152973	-0.113959	-0.453306
C197	C	0.173810	-0.131775	-0.471245
C198	C	0.155926	-0.169048	-0.451906
C199	C	0.178519	-0.188366	-0.471350
C200	C	0.117198	-0.188507	-0.414626
C201	C	0.096358	-0.170694	-0.396690
C202	C	0.114251	-0.133416	-0.416035
C203	C	-0.131801	-0.113944	-0.168548
C204	C	-0.167554	-0.131755	-0.129895
C205	C	-0.185491	-0.169029	-0.110504
C206	C	-0.224255	-0.188343	-0.068593
C207	C	-0.167671	-0.188490	-0.129767
C208	C	-0.131918	-0.170677	-0.168418
C209	C	-0.113988	-0.133404	-0.187808
C210	C	0.091411	0.052521	-0.396344
C211	C	0.073508	0.019115	-0.380949
C212	C	-0.044320	-0.098701	-0.263125
C213	C	-0.075220	-0.114094	-0.229719
C214	C	0.073641	-0.098707	-0.381079
C215	C	0.091652	-0.114103	-0.396582
C216	C	-0.615853	-0.356193	0.361535
C217	C	-0.634487	-0.393808	0.380433
C218	C	-0.559253	-0.356195	0.304938
C219	C	-0.577972	-0.393810	0.323921
C220	C	-0.615854	-0.412792	0.361537
C221	C	-0.577972	-0.337297	0.323920
C222	C	-0.660661	-0.264512	0.396093
C223	C	-0.681373	-0.246571	0.413906
C224	C	-0.720104	-0.265909	0.451181
C225	C	-0.742568	-0.246461	0.470495
C226	C	-0.738120	-0.303189	0.470643
C227	C	-0.717405	-0.321125	0.452831
C228	C	-0.678674	-0.301785	0.415554
C229	C	-0.717784	-0.549275	0.453218
C230	C	-0.738622	-0.587926	0.471159
C231	C	-0.720740	-0.607319	0.451822
C232	C	-0.743333	-0.649227	0.471268
C233	C	-0.682012	-0.588055	0.414542
C234	C	-0.661170	-0.549403	0.396604
C235	C	-0.679063	-0.530016	0.415946
C236	C	-0.433006	-0.264522	0.168449
C237	C	-0.397253	-0.246585	0.129796
C238	C	-0.379317	-0.265926	0.110407
C239	C	-0.340553	-0.246480	0.068496
C240	C	-0.397138	-0.303204	0.129672
C241	C	-0.432891	-0.321139	0.168324
C242	C	-0.450820	-0.301793	0.187711
C243	C	-0.656216	-0.321238	0.396242
C244	C	-0.638314	-0.336743	0.380848
C245	C	-0.520488	-0.336748	0.263028
C246	C	-0.489588	-0.321245	0.229622
C247	C	-0.638451	-0.454700	0.380987
C248	C	-0.656463	-0.488106	0.396492
C249	C	0.440756	0.310302	-0.361620
C250	C	0.422038	0.310564	-0.380518
C251	C	0.384160	0.310312	-0.305026
C252	C	0.365528	0.310574	-0.324010
C253	C	0.384159	0.310303	-0.361624
C254	C	0.422038	0.310573	-0.324006
C255	C	0.566989	0.300046	-0.396172
C256	C	0.602741	0.297145	-0.413984
C257	C	0.620675	0.295684	-0.451257
C258	C	0.659436	0.292531	-0.470569
C259	C	0.602857	0.297127	-0.470719
C260	C	0.567111	0.300033	-0.452909
C261	C	0.549177	0.301493	-0.415634
C262	C	0.339351	0.300042	-0.453303
C263	C	0.318640	0.297142	-0.471244
C264	C	0.279912	0.295690	-0.451908
C265	C	0.257449	0.292541	-0.471354
C266	C	0.261899	0.297143	-0.414629
C267	C	0.282613	0.300049	-0.396692
C268	C	0.321341	0.301496	-0.416033
C269	C	0.339354	0.300088	-0.168540
C270	C	0.318640	0.297192	-0.129888
C271	C	0.279912	0.295742	-0.110501
C272	C	0.257450	0.292601	-0.068591
C273	C	0.261898	0.297184	-0.129766
C274	C	0.282612	0.300078	-0.168417
C275	C	0.321344	0.301533	-0.187802
C276	C	0.510413	0.304640	-0.396323
C277	C	0.479516	0.307151	-0.380931
C278	C	0.361701	0.307173	-0.263117
C279	C	0.343799	0.304671	-0.229712
C280	C	0.361700	0.307154	-0.381073
C281	C	0.343798	0.304644	-0.396578
O282	O	0.275503	0.336913	-0.548651
O283	O	0.211494	0.227461	-0.503201
O284	O	0.275490	0.291455	-0.503192
O285	O	0.211507	0.272919	-0.548659
O286	O	0.223502	0.291457	-0.451211
O287	O	0.159506	0.227463	-0.451219
O288	O	0.223515	0.336915	-0.496669
Zn289	Zn	0.183256	0.282189	-0.465691
Zn290	Zn	0.251753	0.282187	-0.534179
O291	O	0.159519	0.272921	-0.496677
C292	C	0.051032	0.254111	0.361530
C293	C	0.013154	0.253851	0.380425
C294	C	0.051031	0.254102	0.304932
C295	C	0.013153	0.253842	0.323913
C296	C	-0.005564	0.254113	0.361527
C297	C	0.069663	0.253840	0.323916
C298	C	0.152954	0.264360	0.396096
C299	C	0.173791	0.267260	0.413911
C300	C	0.155906	0.268721	0.451185
C301	C	0.178502	0.271871	0.470501
C302	C	0.117182	0.267279	0.470643
C303	C	0.096345	0.264374	0.452830
C304	C	0.114233	0.262915	0.415555
C305	C	-0.131796	0.264379	0.453195
C306	C	-0.167548	0.267281	0.471133
C307	C	-0.185483	0.268734	0.451793
C308	C	-0.224243	0.271886	0.471236
C309	C	-0.167664	0.267282	0.414515
C310	C	-0.131919	0.264374	0.396581
C311	C	-0.113984	0.262925	0.415925
C312	C	0.152952	0.264325	0.168451
C313	C	0.173792	0.267221	0.129798
C314	C	0.155907	0.268673	0.110407
C315	C	0.178502	0.271814	0.068498
C316	C	0.117186	0.267232	0.129669
C317	C	0.096350	0.264339	0.168320
C318	C	0.114234	0.262881	0.187709
C319	C	0.091638	0.259769	0.396240
C320	C	0.073627	0.257260	0.380845
C321	C	0.073626	0.257242	0.263024
C322	C	0.091636	0.259743	0.229619
C323	C	-0.044324	0.257264	0.380973
C324	C	-0.075221	0.259775	0.396474
H325	H	0.205316	0.168042	0.013788
H326	H	-0.769653	-0.318930	0.500992
O327	O	0.099817	-0.224677	0.013490
C328	C	0.098297	-0.225497	-0.018687
H329	H	0.123671	-0.195556	-0.040875
H330	H	0.106140	-0.246025	-0.031633
H331	H	0.063852	-0.235573	-0.009572
H332	H	0.370892	0.301275	-0.184323
H333	H	0.064825	-0.186540	-0.366338
O334	O	0.336134	-0.210407	-0.013579
C335	C	0.337649	-0.209654	0.018601
H336	H	0.337691	-0.234755	0.027459
H337	H	0.368990	-0.181651	0.011099
H338	H	0.307492	-0.211948	0.043265
O339	O	-0.379650	-0.321954	0.110845
C340	C	-0.334791	-0.301179	0.097194
H341	H	-0.328705	-0.282068	0.114966
H342	H	-0.326221	-0.321955	0.099633
H343	H	-0.313172	-0.282717	0.065946
O344	O	0.058761	-0.189537	0.019204
C345	C	0.065811	-0.168841	-0.012002
H346	H	0.102691	-0.149666	-0.035861
H347	H	0.047522	-0.189671	-0.023011
H348	H	0.052922	-0.150450	-0.002369
H349	H	-0.732075	-0.351477	0.468678
H350	H	0.437704	0.310998	-0.308766
H351	H	0.167269	0.098131	-0.468782
H352	H	0.205048	-0.216515	0.398819
O353	O	-0.184798	-0.606640	0.506854
C354	C	-0.151924	-0.605953	0.507667
H355	H	-0.117891	-0.580776	0.482637
H356	H	-0.156192	-0.602728	0.535727
H357	H	-0.155107	-0.633797	0.505295
O358	O	-0.005582	-0.023586	0.028967
C359	C	-0.018259	-0.013016	0.062135
H360	H	0.002152	-0.010956	0.072792
H361	H	-0.012357	0.015933	0.055104
H362	H	-0.054822	-0.035477	0.085326
H363	H	0.205059	-0.216514	0.113907
H364	H	0.333315	-0.603629	-0.013877
H365	H	-0.002293	-0.408830	0.308704
H366	H	0.267943	-0.533739	-0.019121
O367	O	0.265031	-0.189598	-0.187322
C368	C	0.221917	-0.199121	-0.169199
H369	H	0.218211	-0.179041	-0.152445
H370	H	0.215804	-0.196106	-0.191723
H371	H	0.196875	-0.229917	-0.148774
O372	O	-0.114180	-0.530174	0.359933
C373	C	-0.117695	-0.499113	0.360037
H374	H	-0.120434	-0.490470	0.386023
H375	H	-0.087106	-0.473865	0.332782
H376	H	-0.148386	-0.507886	0.361388
H377	H	-0.447603	-0.248768	0.184232
H378	H	-0.629125	-0.248761	0.365741
H379	H	0.102103	-0.319447	0.501532
H380	H	0.437930	-0.026285	-0.308746
H381	H	-0.629638	-0.533721	0.366252
O382	O	0.620352	0.295757	-0.506942
C383	C	0.665209	0.326968	-0.531035
H384	H	0.678574	0.337504	-0.513105
H385	H	0.684934	0.317525	-0.552846
H386	H	0.668391	0.351112	-0.546636
H387	H	0.617258	-0.216240	-0.013873
O388	O	0.099736	0.171258	0.013560
C389	C	0.061097	0.145971	0.015448
H390	H	0.046936	0.115216	0.029541
H391	H	0.035663	0.152300	0.033042
H392	H	0.069447	0.149948	-0.014709
H393	H	0.617482	-0.318952	-0.013867
O394	O	0.440893	-0.023393	-0.417368
C395	C	0.416240	-0.048228	-0.430054
H396	H	0.381144	-0.070968	-0.404313
H397	H	0.415183	-0.031151	-0.449511
H398	H	0.432455	-0.062646	-0.446595
O399	O	-0.005573	-0.023644	-0.305775
C400	C	-0.043100	-0.048485	-0.268440
H401	H	-0.040100	-0.071227	-0.259087
H402	H	-0.045490	-0.031414	-0.247919
H403	H	-0.074053	-0.062901	-0.268123
H404	H	0.552400	-0.248780	-0.019131
H405	H	-0.732353	-0.533492	0.468971
H406	H	0.167522	0.263171	0.365746
O407	O	0.099340	-0.322509	0.111073
C408	C	0.130427	-0.325983	0.079999
H409	H	0.154822	-0.323706	0.085521
H410	H	0.112549	-0.354925	0.076691
H411	H	0.149047	-0.302127	0.052660
H412	H	0.064808	0.098152	0.019035
O413	O	0.549858	-0.357363	-0.019333
C414	C	0.573360	-0.370584	-0.017440
H415	H	0.589993	-0.353918	-0.003353
H416	H	0.549519	-0.402340	0.000161
H417	H	0.599573	-0.366185	-0.047595
H418	H	0.167470	-0.248829	0.366274
H419	H	-0.182052	0.268464	0.501484
O420	O	0.170316	0.262961	0.187312
C421	C	0.180767	0.294178	0.200950
H422	H	0.160007	0.304712	0.203778
H423	H	0.173412	0.284743	0.230118
H424	H	0.217331	0.318321	0.179985
H425	H	0.102633	-0.218858	-0.398880
O426	O	-0.184583	-0.606366	0.394969
C427	C	-0.161097	-0.580963	0.358255
H428	H	-0.126789	-0.556617	0.349450
H429	H	-0.157842	-0.596971	0.336787
H430	H	-0.179669	-0.568758	0.358841
H431	H	-0.117412	-0.186525	-0.184100
H432	H	0.370892	-0.533512	-0.019136
H433	H	0.370885	0.301223	-0.469054
H434	H	0.552845	0.098385	-0.366316
H435	H	-0.562304	-0.409050	0.308680
O436	O	0.620282	0.171361	-0.507409
C437	C	0.616765	0.202417	-0.507378
H438	H	0.614117	0.211165	-0.481457
H439	H	0.647312	0.227613	-0.534691
H440	H	0.586024	0.193588	-0.505962
O441	O	0.099736	0.268588	0.110889
C442	C	0.056628	0.234992	0.129006
H443	H	0.042613	0.221926	0.159993
H444	H	0.034702	0.242294	0.128309
H445	H	0.057711	0.213591	0.113366
O446	O	0.170383	-0.077728	0.019271
C447	C	0.209023	-0.064375	0.017382
H448	H	0.223184	-0.080970	0.003290
H449	H	0.234456	-0.032613	-0.000211
H450	H	0.200673	-0.068745	0.047540
H451	H	0.617241	0.295963	-0.398133
O452	O	0.620485	0.171589	-0.395809
C453	C	0.617000	0.202666	-0.392411
H454	H	0.589293	0.197069	-0.394619
H455	H	0.609344	0.206088	-0.363521
H456	H	0.649543	0.229972	-0.416345
H457	H	0.370598	-0.083850	-0.184076
H458	H	-0.182293	-0.218837	0.013775
O459	O	0.211414	0.268677	0.394949
C460	C	0.222727	0.266758	0.358234
H461	H	0.207178	0.276711	0.349432
H462	H	0.260203	0.286030	0.336766
H463	H	0.209949	0.235984	0.358816
O464	O	-0.005593	-0.135164	-0.305785
C465	C	-0.043101	-0.147841	-0.268439
H466	H	-0.056023	-0.129837	-0.267266
H467	H	-0.069902	-0.179166	-0.260470
H468	H	-0.033709	-0.144770	-0.247381
O469	O	0.058450	-0.357624	0.187247
C470	C	0.046985	-0.370975	0.161960
H471	H	0.077673	-0.354387	0.131204
H472	H	0.032805	-0.402740	0.168293
H473	H	0.021205	-0.366596	0.165934
O474	O	0.329387	-0.134905	-0.305860
C475	C	0.316857	-0.147578	-0.330683
H476	H	0.346614	-0.129598	-0.361611
H477	H	0.304323	-0.178914	-0.326138
H478	H	0.289504	-0.144472	-0.324371
O479	O	-0.776252	-0.606587	0.507361
C480	C	-0.787568	-0.581185	0.520586
H481	H	-0.772011	-0.556833	0.495081
H482	H	-0.825044	-0.597192	0.538782
H483	H	-0.774800	-0.568989	0.538589
O484	O	-0.664646	-0.606916	0.395815
C485	C	-0.654200	-0.620556	0.416584
H486	H	-0.674963	-0.623384	0.447878
H487	H	-0.661553	-0.649723	0.414500
H488	H	-0.617637	-0.599592	0.404167
H489	H	-0.447397	-0.351491	0.184007
H490	H	0.267896	-0.186572	-0.365817
O491	O	0.329180	0.311106	-0.305783
C492	C	0.316664	0.311274	-0.268438
H493	H	0.346414	0.323019	-0.267264
H494	H	0.304177	0.330112	-0.260476
H495	H	0.289278	0.280826	-0.247377
H496	H	-0.117201	-0.533500	0.468702
O497	O	0.058770	0.262990	0.186976
C498	C	0.067446	0.296591	0.168783
H499	H	0.097557	0.309656	0.137832
H500	H	0.037587	0.289297	0.169363
H501	H	0.074209	0.317991	0.184441
O502	O	0.224321	0.295844	-0.110938
C503	C	0.231443	0.327053	-0.097288
H504	H	0.268325	0.350912	-0.115062
H505	H	0.213103	0.338058	-0.099725
H506	H	0.218661	0.317426	-0.066040
O507	O	-0.005490	0.253318	0.305681
C508	C	0.019177	0.253153	0.268336
H509	H	0.038349	0.241400	0.267165
H510	H	-0.004181	0.234322	0.260367
H511	H	0.043308	0.283602	0.247277
H512	H	0.064526	-0.351765	0.468991
H513	H	-0.664969	-0.409045	0.411340
H514	H	0.552607	0.301210	-0.468757
H515	H	-0.117435	-0.186523	0.019040
H516	H	0.267941	0.301250	-0.184099
H517	H	0.370881	-0.248784	-0.019122
O518	O	0.211388	-0.112913	-0.507478
C519	C	0.204346	-0.133609	-0.531638
H520	H	0.167468	-0.152784	-0.518623
H521	H	0.222641	-0.112778	-0.560937
H522	H	0.217235	-0.151999	-0.534891
H523	H	-0.562326	-0.306401	0.308670
O524	O	0.170351	-0.245717	0.187008
C525	C	0.208981	-0.209001	0.161607
H526	H	0.207827	-0.200200	0.137258
H527	H	0.211175	-0.187534	0.177616
H528	H	0.239177	-0.209580	0.149406
H529	H	0.100165	-0.026535	-0.411435
O530	O	0.223966	-0.224942	-0.111120
C531	C	0.189422	-0.224924	-0.080047
H532	H	0.197223	-0.195007	-0.085571
H533	H	0.157169	-0.246110	-0.076736
H534	H	0.185940	-0.233641	-0.052708
O535	O	0.105966	-0.023593	0.028959
C536	C	0.096087	-0.012976	0.062098
H537	H	0.058868	-0.032078	0.084839
H538	H	0.113606	-0.016428	0.073522
H539	H	0.107799	0.018160	0.054732
H540	H	0.332793	-0.116391	-0.113952
H541	H	0.230097	-0.219111	-0.398135
H542	H	-0.117197	0.263199	0.468949
H543	H	0.437707	0.310988	-0.411425
O544	O	0.210924	0.171235	-0.506964
C545	C	0.222387	0.145946	-0.520314
H546	H	0.191699	0.115192	-0.503719
H547	H	0.236557	0.152273	-0.552077
H548	H	0.248173	0.149925	-0.515943
O549	O	0.335548	-0.113347	-0.506898
C550	C	0.304381	-0.109952	-0.506808
H551	H	0.280064	-0.112161	-0.476893
H552	H	0.322194	-0.081062	-0.528042
H553	H	0.285685	-0.133885	-0.515419
H554	H	-0.666703	-0.216219	0.398058
H555	H	0.437704	-0.306410	-0.028878
H556	H	-0.182059	-0.115906	-0.114213
H557	H	0.370607	-0.083853	-0.468752
H558	H	0.230346	-0.318966	-0.013835
O559	O	0.265048	0.301439	-0.360475
C560	C	0.226431	0.299546	-0.347256
H561	H	0.212377	0.285456	-0.363921
H562	H	0.200913	0.281949	-0.315498
H563	H	0.234776	0.329701	-0.351660
H564	H	0.230365	-0.603862	-0.013858
H565	H	0.230368	0.295965	-0.398887
H566	H	-0.182279	-0.218843	-0.113977
O567	O	-0.114420	-0.077728	-0.187320
C568	C	-0.137816	-0.064372	-0.162032
H569	H	-0.154484	-0.080968	-0.131276
H570	H	-0.113890	-0.032611	-0.168360
H571	H	-0.163991	-0.068737	-0.166013
O572	O	0.265057	-0.357357	-0.019345
C573	C	0.226427	-0.370585	-0.017430
H574	H	0.227579	-0.345082	-0.027383
H575	H	0.224233	-0.388788	-0.036704
H576	H	0.196232	-0.388581	0.013343
O577	O	0.329179	-0.411947	-0.028987
C578	C	0.316661	-0.387119	-0.029149
H579	H	0.346411	-0.356195	-0.040890
H580	H	0.304178	-0.391639	-0.047988
H581	H	0.289274	-0.393447	0.001300
H582	H	0.100368	-0.306171	0.308703
O583	O	0.058227	0.094915	-0.359996
C584	C	0.046775	0.120209	-0.346639
H585	H	0.062254	0.144592	-0.372073
H586	H	0.009287	0.104113	-0.328427
H587	H	0.059522	0.132373	-0.328615
H588	H	0.205307	-0.115910	0.013801
H589	H	0.167543	-0.083608	-0.469060
H590	H	0.552629	0.098160	-0.469035
O591	O	-0.005378	-0.411821	0.417331
C592	C	-0.042909	-0.449154	0.430021
H593	H	-0.039896	-0.458525	0.404284
H594	H	-0.045323	-0.469668	0.449511
H595	H	-0.073856	-0.449459	0.446529
H596	H	0.333309	0.296016	-0.114204
H597	H	-0.002525	-0.129181	0.028805
H598	H	0.437709	-0.409066	-0.028885
H599	H	0.102623	0.268466	0.500992
H600	H	0.101900	0.168027	-0.398169
O601	O	-0.379983	-0.210367	0.111145
C602	C	-0.403482	-0.197144	0.136543
H603	H	-0.420116	-0.213811	0.167262
H604	H	-0.379639	-0.165388	0.130304
H605	H	-0.429693	-0.201540	0.132601
O606	O	0.211374	0.268572	0.111062
C607	C	0.204312	0.237353	0.097433
H608	H	0.175926	0.226830	0.094492
H609	H	0.235622	0.246782	0.068321
H610	H	0.195680	0.213205	0.118465
O611	O	0.170369	0.094927	0.019295
C612	C	0.209018	0.120219	0.017391
H613	H	0.207971	0.144606	0.027342
H614	H	0.211128	0.104123	0.036672
H615	H	0.239207	0.132378	-0.013379
O616	O	0.549636	0.301477	-0.359969
C617	C	0.573020	0.299571	-0.346609
H618	H	0.607360	0.309523	-0.372042
H619	H	0.576201	0.318850	-0.328400
H620	H	0.554410	0.268801	-0.328583
H621	H	0.333308	0.295959	-0.501595
O622	O	-0.005458	0.253382	0.417284
C623	C	0.019200	0.253211	0.429968
H624	H	0.054289	0.265548	0.404225
H625	H	0.020275	0.271366	0.449407
H626	H	0.002976	0.222583	0.446530
O627	O	-0.185119	0.268622	0.395735
C628	C	-0.200587	0.235030	0.386215
H629	H	-0.207626	0.211245	0.406300
H630	H	-0.232239	0.225903	0.389227
H631	H	-0.174407	0.240779	0.355421
H632	H	0.100149	0.253421	0.308676
H633	H	0.064816	0.263199	0.468675
O634	O	-0.114577	0.263032	0.360346
C635	C	-0.099181	0.296625	0.335418
H636	H	-0.092078	0.320408	0.348462
H637	H	-0.067580	0.305756	0.306725
H638	H	-0.125433	0.290875	0.330909
H639	H	-0.182070	-0.115902	0.013781
O640	O	-0.114460	-0.077733	0.019285
C641	C	-0.137845	-0.064374	0.017378
H642	H	-0.172184	-0.089806	0.027331
H643	H	-0.141027	-0.046162	0.036655
H644	H	-0.119235	-0.046350	-0.013394
