data_functionalizedCrystal
_audit_creation_method	'MofGen! by Chris Wilmer'
_symmetry_space_group_name_H-M	'P1'
_symmetry_Int_Tables_number	1
_symmetry_cell_setting	triclinic
loop_
_symmetry_equiv_pos_as_xyz
  x,y,z
_cell_length_a	16.109301
_cell_length_b	10.654550
_cell_length_c	15.186229
_cell_angle_alpha	89.996404
_cell_angle_beta	89.999362
_cell_angle_gamma	83.973206
loop_
_atom_site_label
_atom_site_type_symbol
_atom_site_fract_x
_atom_site_fract_y
_atom_site_fract_z
O1	O	1.104090	0.161419	-0.073173
O2	O	0.862148	0.181507	-0.073187
O3	O	0.988682	-0.011352	-0.073174
O4	O	0.977556	0.354278	-0.073185
O5	O	0.988673	-0.011354	0.073284
O6	O	0.862139	0.181504	0.073271
O7	O	1.104082	0.161416	0.073285
Zn8	Zn	0.983109	0.171460	0.096531
Zn9	Zn	0.983120	0.171463	-0.096433
O10	O	0.977548	0.354275	0.073272
C11	C	0.831164	0.180692	0.000040
C12	C	0.738854	0.178253	0.000035
C13	C	0.517228	0.287019	0.000042
C14	C	0.430494	0.284717	0.000048
C15	C	0.449008	0.055896	0.000051
C16	C	0.535741	0.058199	0.000052
C17	C	0.569848	0.173764	0.000043
C18	C	0.396382	0.169159	0.000048
C19	C	0.302341	0.166662	0.000054
C20	C	0.663895	0.176262	0.000038
C21	C	0.987861	-0.058140	0.000054
C22	C	0.985417	-0.197550	0.000053
C23	C	1.059918	-0.278046	0.000057
C24	C	1.057616	-0.409036	0.000046
C25	C	0.906306	-0.379020	0.000031
C26	C	0.908608	-0.248033	0.000035
C27	C	1.145364	-0.606070	-0.051264
C28	C	1.219869	-0.686572	-0.051245
C29	C	1.287407	-0.657317	0.000083
C30	C	1.280443	-0.547563	0.051414
C31	C	1.205937	-0.467068	0.051402
C32	C	1.138402	-0.496322	0.000054
C33	C	0.820866	-0.050997	0.051353
C34	C	0.746359	0.029500	0.051348
C35	C	0.678814	0.000249	0.000025
C36	C	0.685769	-0.109507	-0.051292
C37	C	0.760277	-0.190004	-0.051287
C38	C	0.827822	-0.160745	0.000034
C39	C	1.135066	0.162231	0.000056
C40	C	1.227376	0.164671	0.000055
C41	C	0.978369	0.401063	0.000042
C42	C	0.980813	0.540473	0.000037
N43	N	0.983108	0.171457	0.228224
N44	N	0.983129	0.171457	-0.228126
C45	C	1.039156	0.086088	0.453952
C46	C	1.039159	0.086085	0.546142
C47	C	0.927074	0.256830	0.546140
C48	C	0.927068	0.256826	0.453952
C49	C	0.983114	0.171456	0.407860
C50	C	0.983122	0.171457	0.592238
C51	C	0.983125	0.171455	0.692194
C52	C	0.983111	0.171457	0.307898
H53	H	0.387654	0.376940	0.000049
O54	O	1.093622	0.003034	0.409315
C55	C	1.143099	-0.072294	0.469770
H56	H	1.109009	-0.073721	0.535488
H57	H	1.155202	-0.172583	0.443142
H58	H	1.205095	-0.031494	0.479567
H59	H	0.740696	0.118862	0.093145
H60	H	0.421227	-0.038193	0.000064
O61	O	0.586742	-0.051939	0.000012
C62	C	0.538042	-0.154433	0.000035
H63	H	0.473502	-0.122540	-0.027695
H64	H	0.569580	-0.233780	-0.042483
H65	H	0.531663	-0.189860	0.070298
H66	H	1.122460	-0.236948	0.000069
H67	H	1.200266	-0.377712	0.093198
H68	H	1.084793	0.016568	0.583667
O69	O	0.872719	0.339715	0.591051
C70	C	0.884728	0.321396	0.682303
H71	H	0.950555	0.274486	0.694891
H72	H	0.876030	0.416500	0.717331
H73	H	0.837310	0.258394	0.708475
H74	H	1.225534	-0.775932	-0.093046
H75	H	0.875873	-0.027152	0.093129
O76	O	1.346067	-0.519373	0.101339
C77	C	1.366795	-0.617189	0.162528
H78	H	1.343604	-0.708068	0.137329
H79	H	1.437440	-0.631916	0.171197
H80	H	1.336103	-0.590683	0.228534
O81	O	0.872545	0.339589	0.409131
C82	C	0.820881	0.272308	0.355797
H83	H	0.818905	0.173272	0.383590
H84	H	0.755097	0.323521	0.354746
H85	H	0.846863	0.265727	0.285930
H86	H	0.544996	0.381119	0.000041
H87	H	1.348071	-0.722871	0.000097
O88	O	0.620186	-0.137761	-0.101258
C89	C	0.599424	-0.039924	-0.162422
H90	H	0.655954	0.013993	-0.173907
H91	H	0.579896	-0.081882	-0.227316
H92	H	0.545635	0.027228	-0.135503
H93	H	1.090377	-0.629892	-0.093073
O94	O	0.831770	-0.428271	0.000061
C95	C	0.845711	-0.561145	0.000039
H96	H	0.910413	-0.591937	0.027770
H97	H	0.796517	-0.601347	0.042556
H98	H	0.841476	-0.597599	-0.070225
H99	H	0.765940	-0.279365	-0.093086
H100	H	0.618142	0.065794	0.000037
