data_functionalizedCrystal
_audit_creation_method	'MofGen! by Chris Wilmer'
_symmetry_space_group_name_H-M	'P1'
_symmetry_Int_Tables_number	1
_symmetry_cell_setting	triclinic
loop_
_symmetry_equiv_pos_as_xyz
  x,y,z
_cell_length_a	12.827893
_cell_length_b	21.295417
_cell_length_c	12.827885
_cell_angle_alpha	89.961900
_cell_angle_beta	89.980728
_cell_angle_gamma	90.030477
loop_
_atom_site_label
_atom_site_type_symbol
_atom_site_fract_x
_atom_site_fract_y
_atom_site_fract_z
Zn1	Zn	1.597560	-0.250579	-0.590788
Zn2	Zn	1.597408	-0.355861	-0.416023
Zn3	Zn	1.422801	-0.250610	-0.416062
Zn4	Zn	1.422740	-0.355814	-0.590723
O5	O	1.510127	-0.303216	-0.503399
O6	O	1.743776	-0.264552	-0.567616
O7	O	1.574208	-0.341932	-0.269792
O8	O	1.446072	-0.162516	-0.439283
O9	O	1.743664	-0.341902	-0.439217
O10	O	1.574467	-0.162494	-0.567654
O11	O	1.445925	-0.264604	-0.269821
O12	O	1.276557	-0.264559	-0.439220
O13	O	1.445969	-0.341822	-0.736968
O14	O	1.276512	-0.341852	-0.567543
O15	O	1.574408	-0.264506	-0.737016
O16	O	1.574149	-0.443944	-0.439154
O17	O	1.445821	-0.443910	-0.567505
C18	C	1.238617	-0.303204	-0.503379
C19	C	1.122464	-0.303214	-0.503396
C20	C	1.070685	-0.341521	-0.566796
C21	C	0.950635	-0.341532	-0.566814
C22	C	1.509990	-0.466768	-0.503341
C23	C	1.510027	-0.536736	-0.503351
C24	C	1.576907	-0.569600	-0.436587
C25	C	1.576956	-0.635342	-0.436611
C26	C	1.510107	-0.668218	-0.503387
C27	C	1.443222	-0.635347	-0.570165
C28	C	1.443183	-0.569606	-0.570147
N29	N	1.418690	-0.771484	-0.511347
N30	N	1.418731	-0.833935	-0.511358
C31	C	1.510224	-0.866293	-0.503447
N32	N	1.601676	-0.833840	-0.495504
N33	N	1.601635	-0.771383	-0.495488
C34	C	1.510143	-0.739504	-0.503415
C35	C	1.577162	-0.970442	-0.436705
C36	C	1.577213	-1.036186	-0.436736
C37	C	1.443470	-1.036189	-0.570284
C38	C	1.443429	-0.970447	-0.570259
C39	C	1.510273	-0.937577	-0.503464
C40	C	1.782697	-0.303229	-0.503420
C41	C	1.898851	-0.303234	-0.503428
C42	C	1.510198	-0.303156	-0.775969
C43	C	1.510229	-0.303130	-0.892123
C44	C	1.510293	-0.139026	-0.503480
C45	C	1.510364	-0.069058	-0.503515
C46	C	1.573791	-0.264864	-0.943931
C47	C	1.573824	-0.264837	-1.063982
C48	C	1.510117	-0.303231	-0.231889
C49	C	1.510289	-0.303079	-0.115737
H50	H	0.943373	-0.270439	-0.449143
N51	N	1.126574	-0.382645	-0.634880
N52	N	1.224015	-0.382575	-0.634773
H53	H	1.263487	-0.411619	-0.682861
N54	N	1.441971	-0.344194	-0.947967
N55	N	1.375475	-0.321990	-1.008894
H56	H	1.327264	-0.350990	-1.048335
N57	N	1.645445	-0.936872	-0.368474
N58	N	1.705163	-0.966226	-0.308871
H59	H	1.753389	-0.942519	-0.260681
N60	N	1.642081	-0.223735	-1.119882
N61	N	1.605311	-0.183643	-1.180827
H62	H	1.653518	-0.154613	-1.220311
N63	N	1.375197	-1.069773	-0.638496
N64	N	1.375243	-1.128470	-0.638507
H65	H	1.327025	-1.152192	-0.686686
N66	N	1.442014	-0.344189	-1.059876
N67	N	1.448876	-0.402280	-1.071961
H68	H	1.400657	-0.431314	-1.032504
N69	N	1.642044	-0.223788	-0.888106
N70	N	1.701805	-0.187813	-0.936753
H71	H	1.750011	-0.158801	-0.897330
H72	H	0.906106	-0.374330	-0.621090
N73	N	1.066593	-0.262069	-0.435332
N74	N	1.005716	-0.222020	-0.472291
H75	H	0.966258	-0.192959	-0.424221
H76	H	1.631338	-0.542839	-0.382202
N77	N	1.645274	-0.668911	-0.368396
N78	N	1.704946	-0.639556	-0.308762
H79	H	1.753192	-0.663262	-0.260581
H80	H	1.388795	-0.662119	-0.624536
N81	N	1.374875	-0.536034	-0.638360
N82	N	1.381765	-0.543322	-0.734796
H83	H	1.333521	-0.519611	-0.782974
N84	N	1.645552	-1.069748	-0.368540
N85	N	1.705229	-1.040389	-0.308916
H86	H	1.753497	-1.064092	-0.260753
N87	N	1.375104	-0.936884	-0.638463
N88	N	1.315424	-0.966242	-0.698085
H89	H	1.267168	-0.942539	-0.746260
