data_functionalizedCrystal
_audit_creation_method	'MofGen! by Chris Wilmer'
_symmetry_space_group_name_H-M	'P1'
_symmetry_Int_Tables_number	1
_symmetry_cell_setting	triclinic
loop_
_symmetry_equiv_pos_as_xyz
  x,y,z
_cell_length_a	17.699083
_cell_length_b	17.038272
_cell_length_c	16.776229
_cell_angle_alpha	89.993292
_cell_angle_beta	89.998886
_cell_angle_gamma	87.197286
loop_
_atom_site_label
_atom_site_type_symbol
_atom_site_fract_x
_atom_site_fract_y
_atom_site_fract_z
O1	O	1.010620	0.098861	-0.066177
O2	O	1.510620	0.598861	0.433823
O3	O	0.791093	0.111723	-0.066203
O4	O	1.291093	0.611723	0.433797
O5	O	0.899552	-0.008521	-0.066184
O6	O	1.399552	0.491479	0.433816
O7	O	0.902161	0.219105	-0.066196
O8	O	1.402161	0.719105	0.433804
O9	O	0.899536	-0.008529	0.066393
O10	O	1.399536	0.491471	0.566393
O11	O	0.791077	0.111716	0.066374
O12	O	1.291077	0.611716	0.566374
O13	O	1.010604	0.098854	0.066400
O14	O	1.510604	0.598854	0.566400
Zn15	Zn	0.900838	0.105283	0.087436
Zn16	Zn	1.400838	0.605283	0.587436
Zn17	Zn	0.900859	0.105293	-0.087239
Zn18	Zn	1.400859	0.605293	0.412761
O19	O	0.902145	0.219098	0.066381
O20	O	1.402145	0.719098	0.566381
C21	C	0.762857	0.111258	0.000082
C22	C	1.262857	0.611258	0.500082
C23	C	0.678748	0.109876	0.000072
C24	C	1.178748	0.609876	0.500072
C25	C	0.634797	0.180457	0.000069
C26	C	1.134797	0.680457	0.500069
C27	C	0.555767	0.179153	0.000079
C28	C	1.055767	0.679153	0.500079
C29	C	0.520690	0.107267	0.000087
C30	C	1.020690	0.607267	0.500087
C31	C	0.564647	0.036681	0.000093
C32	C	1.064647	0.536681	0.500093
C33	C	0.643675	0.037986	0.000089
C34	C	1.143675	0.537986	0.500089
C35	C	0.245935	0.031418	0.000113
C36	C	0.745935	0.531418	0.500113
C37	C	0.166901	0.030119	0.000116
C38	C	0.666901	0.530119	0.500116
C39	C	0.158028	0.172585	0.000104
C40	C	0.658028	0.672585	0.500104
C41	C	0.237056	0.173890	0.000099
C42	C	0.737056	0.673890	0.500099
C43	C	0.281006	0.103304	0.000109
C44	C	0.781006	0.603304	0.500109
C45	C	0.366699	0.104719	0.000100
C46	C	0.866699	0.604719	0.500100
C47	C	0.434999	0.105852	0.000091
C48	C	0.934999	0.605852	0.500091
C49	C	0.897170	-0.037649	0.000104
C50	C	1.397170	0.462351	0.500104
C51	C	0.890090	-0.124431	0.000103
C52	C	1.390090	0.375569	0.500103
C53	C	0.955100	-0.174651	0.000112
C54	C	1.455100	0.325349	0.500112
C55	C	0.948442	-0.256191	0.000103
C56	C	1.448442	0.243809	0.500103
C57	C	0.876773	-0.287509	0.000092
C58	C	1.376773	0.212491	0.500092
C59	C	0.811758	-0.237282	0.000081
C60	C	1.311758	0.262718	0.500081
C61	C	0.818417	-0.155744	0.000084
C62	C	1.318417	0.344256	0.500084
C63	C	0.853251	-0.533228	0.000079
C64	C	1.353251	-0.033228	0.500079
C65	C	0.846597	-0.614773	0.000078
C66	C	1.346597	-0.114773	0.500078
C67	C	0.983282	-0.633676	0.000099
C68	C	1.483282	-0.133676	0.500099
C69	C	0.989934	-0.552135	0.000106
C70	C	1.489934	-0.052135	0.500106
C71	C	0.924919	-0.501916	0.000091
C72	C	1.424919	-0.001916	0.500091
C73	C	0.869967	-0.370855	0.000086
C74	C	1.369967	0.129145	0.500086
C75	C	0.931726	-0.418571	0.000092
C76	C	1.431726	0.081429	0.500092
C77	C	1.038840	0.099318	0.000113
C78	C	1.538840	0.599318	0.500113
C79	C	1.122949	0.100701	0.000118
C80	C	1.622949	0.600701	0.500118
C81	C	0.904526	0.248226	0.000091
C82	C	1.404526	0.748226	0.500091
C83	C	0.911607	0.335007	0.000087
C84	C	1.411607	0.835007	0.500087
N85	N	0.900829	0.105276	0.206647
N86	N	1.400829	0.605276	0.706647
N87	N	0.900873	0.105294	-0.206450
N88	N	1.400873	0.605294	0.293550
C89	C	0.948872	0.052054	0.248373
C90	C	1.448872	0.552054	0.748373
C91	C	0.948876	0.052053	0.331825
C92	C	1.448876	0.552053	0.831825
C93	C	0.900841	0.105279	0.373550
C94	C	1.400841	0.605279	0.873550
C95	C	0.852793	0.158504	0.331819
C96	C	1.352793	0.658504	0.831819
C97	C	0.852785	0.158501	0.248368
C98	C	1.352785	0.658501	0.748368
C99	C	0.852821	0.158520	0.668366
C100	C	1.352821	0.658520	1.168366
C101	C	0.852834	0.158521	0.751823
C102	C	1.352834	0.658521	1.251823
C103	C	0.948912	0.052072	0.751823
C104	C	1.448912	0.552072	1.251823
C105	C	0.948904	0.052069	0.668372
C106	C	1.448904	0.552069	1.168372
C107	C	0.900854	0.105290	0.626648
C108	C	1.400854	0.605290	1.126648
C109	C	0.900849	0.105289	0.536160
C110	C	1.400849	0.605289	1.036160
C111	C	0.900849	0.105285	0.464037
C112	C	1.400849	0.605285	0.964037
H113	H	0.265612	0.232426	0.000089
H114	H	0.765612	0.732426	0.500089
H115	H	0.811613	-0.396363	0.000079
H116	H	1.311613	0.103637	0.500079
H117	H	0.753404	-0.262788	0.000067
H118	H	1.253404	0.237212	0.500067
Br119	Br	1.014075	-0.020181	0.388456
Br120	Br	1.514075	0.479819	0.888456
H121	H	0.122235	0.230060	0.000100
H122	H	0.622235	0.730060	0.500100
Br123	Br	0.787640	0.230762	0.808450
Br124	Br	1.287640	0.730762	1.308450
H125	H	1.001381	-0.297077	0.000112
H126	H	1.501381	0.202923	0.500112
Br127	Br	1.014072	-0.020180	0.191755
Br128	Br	1.514072	0.479820	0.691755
H129	H	0.519986	0.236627	0.000075
H130	H	1.019986	0.736627	0.500075
Br131	Br	0.749326	-0.657275	0.000071
Br132	Br	1.249326	-0.157275	0.500071
H133	H	0.536080	-0.021849	0.000112
H134	H	1.036080	0.478151	0.500112
H135	H	0.988022	0.008730	0.634402
H136	H	1.488022	0.508730	1.134402
H137	H	0.813698	0.201856	0.634401
H138	H	1.313698	0.701856	1.134401
Br139	Br	1.014124	-0.020160	0.808452
Br140	Br	1.514124	0.479840	1.308452
H141	H	0.813663	0.201839	0.214396
H142	H	1.313663	0.701839	0.714396
Br143	Br	0.787594	0.230736	0.388443
Br144	Br	1.287594	0.730736	0.888443
Br145	Br	0.682394	0.278021	0.000049
Br146	Br	1.182394	0.778021	0.500049
H147	H	0.138344	-0.028422	0.000123
H148	H	0.638344	0.471578	0.500123
H149	H	0.800310	-0.492349	0.000066
H150	H	1.300310	0.007651	0.500066
H151	H	1.036213	-0.674572	0.000110
H152	H	1.536213	-0.174572	0.500110
Br153	Br	0.305571	-0.064377	0.000129
Br154	Br	0.805571	0.435623	0.500129
Br155	Br	0.703323	-0.057806	0.000101
Br156	Br	1.203323	0.442194	0.500101
Br157	Br	1.028988	-0.376067	0.000100
Br158	Br	1.528988	0.123933	0.500100
Br159	Br	1.087202	-0.509638	0.000096
Br160	Br	1.587202	-0.009638	0.500096
Br161	Br	1.052369	-0.132156	0.000139
Br162	Br	1.552369	0.367844	0.500139
H163	H	0.765478	-0.114855	0.000077
H164	H	1.265478	0.385145	0.500077
