data_functionalizedCrystal
_audit_creation_method	'MofGen! by Chris Wilmer'
_symmetry_space_group_name_H-M	'P1'
_symmetry_Int_Tables_number	1
_symmetry_cell_setting	triclinic
loop_
_symmetry_equiv_pos_as_xyz
  x,y,z
_cell_length_a	19.077236
_cell_length_b	19.076808
_cell_length_c	19.805399
_cell_angle_alpha	92.327057
_cell_angle_beta	92.320300
_cell_angle_gamma	94.519737
loop_
_atom_site_label
_atom_site_type_symbol
_atom_site_fract_x
_atom_site_fract_y
_atom_site_fract_z
Zn1	Zn	1.066459	-0.237477	0.414797
Zn2	Zn	1.061636	-0.355375	0.296864
Zn3	Zn	0.948570	-0.242222	0.296878
Zn4	Zn	0.943800	-0.360062	0.405271
O5	O	1.005116	-0.298784	0.353453
O6	O	1.164472	-0.249169	0.403134
O7	O	1.046616	-0.340390	0.202148
O8	O	0.968223	-0.142936	0.316512
O9	O	1.160928	-0.335788	0.316490
O10	O	1.054836	-0.139449	0.403147
O11	O	0.963546	-0.257257	0.202157
O12	O	0.849285	-0.261802	0.307275
O13	O	0.960093	-0.343776	0.501253
O14	O	0.845781	-0.348378	0.386911
O15	O	1.050211	-0.253713	0.508252
O16	O	1.041990	-0.454654	0.307253
O17	O	0.955416	-0.458098	0.386899
C18	C	0.821954	-0.306114	0.346061
C19	C	0.743595	-0.309267	0.342915
C20	C	0.708625	-0.265721	0.386611
C21	C	0.634999	-0.268680	0.383648
C22	C	0.596345	-0.315189	0.336993
C23	C	0.631320	-0.358736	0.293292
C24	C	0.704945	-0.355773	0.296251
C25	C	0.375952	-0.328875	0.323294
C26	C	0.302322	-0.331836	0.320339
C27	C	0.306007	-0.241779	0.410695
C28	C	0.379633	-0.238823	0.413653
C29	C	0.414602	-0.282368	0.369950
N30	N	0.521087	-0.318216	0.333965
N31	N	0.489858	-0.279337	0.372975
C32	C	0.997681	-0.481956	0.346056
C33	C	0.994565	-0.560315	0.342917
C34	C	1.038162	-0.595254	0.386582
C35	C	1.035231	-0.668881	0.383634
C36	C	0.988706	-0.707567	0.337016
C37	C	0.945105	-0.672624	0.293349
C38	C	0.948033	-0.598998	0.296301
C39	C	0.975115	-0.927965	0.323350
C40	C	0.972192	-1.001595	0.320399
C41	C	1.062318	-0.997847	0.410685
C42	C	1.065244	-0.924221	0.413630
C43	C	1.021640	-0.889284	0.369966
N44	N	0.985711	-0.782826	0.334000
N45	N	1.024632	-0.814027	0.372986
C46	C	1.188994	-0.291426	0.360873
C47	C	1.267352	-0.288291	0.364035
C48	C	1.005158	-0.298738	0.529999
C49	C	1.005175	-0.298719	0.605232
C50	C	1.012600	-0.114896	0.360894
C51	C	1.015789	-0.036534	0.364065
C52	C	1.005118	-0.298778	0.177597
C53	C	1.005245	-0.298593	0.102377
C54	C	1.052101	-0.251821	0.644222
C55	C	1.052109	-0.251800	0.714911
C56	C	1.005194	-0.298681	0.746610
C57	C	0.958264	-0.345581	0.707615
C58	C	0.958253	-0.345598	0.636927
C59	C	0.958307	-0.345514	0.992693
C60	C	0.958323	-0.345495	1.063386
C61	C	1.052162	-0.251716	1.070677
C62	C	1.052151	-0.251732	0.999989
C63	C	1.005219	-0.298630	0.961000
C64	C	1.005210	-0.298651	0.884351
C65	C	1.005206	-0.298664	0.823258
H66	H	0.740092	-0.227851	0.424605
O67	O	0.271955	-0.199580	0.453168
C68	C	0.227772	-0.241489	0.493500
H69	H	0.214570	-0.295329	0.466947
H70	H	0.255851	-0.248159	0.544473
C71	C	0.175625	-0.139401	0.537184
C72	C	0.159406	-0.205526	0.504568
H73	H	0.133455	-0.117217	0.544014
H74	H	0.205394	-0.111165	0.510013
H75	H	0.199026	-0.144969	0.579658
H76	H	0.136014	-0.199957	0.462091
H77	H	0.129631	-0.233760	0.531732
H78	H	0.270852	-0.369713	0.282346
O79	O	1.110460	-0.886751	0.458973
C80	C	1.148327	-0.933377	0.496868
H81	H	1.117361	-0.987039	0.495926
H82	H	1.201570	-0.939034	0.473965
C83	C	1.197634	-0.838269	0.571629
C84	C	1.159598	-0.904176	0.570477
H85	H	1.204590	-0.820256	0.617034
H86	H	1.172124	-0.806855	0.546097
H87	H	1.241999	-0.842992	0.552539
H88	H	1.115231	-0.899451	0.589558
H89	H	1.185101	-0.935589	0.596014
H90	H	1.070738	-0.697324	0.419186
H91	H	1.090321	-0.213612	0.746654
H92	H	0.606530	-0.233222	0.419232
H93	H	0.733416	-0.391232	0.260669
H94	H	1.090356	-0.213559	0.974184
H95	H	0.939612	-0.899525	0.287795
H96	H	1.090374	-0.213527	1.102431
O97	O	0.912676	-0.391060	1.094071
C98	C	0.871260	-0.432468	1.044502
H99	H	0.869985	-0.403703	0.995182
H100	H	0.894890	-0.484984	1.035859
C101	C	0.797389	-0.480947	1.129228
C102	C	0.795818	-0.445614	1.068654
H103	H	0.750854	-0.489059	1.144126
H104	H	0.825293	-0.453052	1.162624
H105	H	0.817084	-0.524707	1.122017
H106	H	0.776132	-0.401852	1.075867
H107	H	0.767909	-0.473502	1.035259
O108	O	0.417073	-0.193576	0.458989
C109	C	0.370419	-0.155785	0.496932
H110	H	0.318023	-0.155423	0.467205
H111	H	0.361566	-0.181982	0.546941
C112	C	0.466545	-0.080052	0.547492
C113	C	0.402194	-0.079602	0.510978
H114	H	0.486146	-0.033060	0.556160
H115	H	0.497978	-0.105514	0.521931
H116	H	0.459158	-0.101886	0.589162
H117	H	0.409582	-0.057777	0.469306
H118	H	0.370763	-0.054135	0.536532
H119	H	1.076050	-0.563760	0.424540
O120	O	0.409803	-0.371245	0.280816
C121	C	0.359896	-0.412917	0.238993
H122	H	0.307327	-0.417508	0.264509
H123	H	0.353087	-0.387343	0.188360
C124	C	0.450154	-0.481142	0.195901
C125	C	0.385590	-0.486786	0.227242
H126	H	0.466004	-0.526707	0.188650
H127	H	0.483778	-0.453065	0.224075
H128	H	0.444472	-0.459828	0.153710
H129	H	0.391275	-0.508091	0.269436
H130	H	0.351967	-0.514867	0.199075
H131	H	0.599842	-0.396601	0.255301
H132	H	1.097817	-1.026301	0.446235
H133	H	0.934302	-1.033092	0.282437
H134	H	0.907221	-0.704128	0.255395
O135	O	0.912814	-0.391104	0.954760
C136	C	0.951079	-0.435063	0.913659
H137	H	1.005513	-0.408067	0.906220
H138	H	0.956707	-0.486989	0.939106
C139	C	0.844887	-0.482562	0.853574
C140	C	0.911742	-0.449402	0.844432
H141	H	0.820621	-0.491410	0.810872
H142	H	0.819107	-0.452948	0.881266
H143	H	0.849587	-0.525830	0.874781
H144	H	0.907041	-0.406131	0.823233
H145	H	0.937521	-0.479009	0.816735
H146	H	0.912531	-0.570552	0.260746
O147	O	0.912654	-0.391231	0.599151
C148	C	0.871240	-0.432599	0.642285
H149	H	0.900021	-0.433865	0.693745
H150	H	0.818745	-0.408932	0.648678
C151	C	0.822687	-0.506495	0.548049
C152	C	0.858039	-0.508055	0.611251
H153	H	0.814541	-0.553039	0.528905
H154	H	0.850586	-0.478623	0.518988
H155	H	0.778945	-0.486769	0.553385
H156	H	0.901783	-0.527772	0.605913
H157	H	0.830147	-0.535932	0.640311
H158	H	1.090306	-0.213646	0.618418
H159	H	0.920063	-0.383751	0.733430
