data_functionalizedCrystal
_audit_creation_method	'MofGen! by Chris Wilmer'
_symmetry_space_group_name_H-M	'P1'
_symmetry_Int_Tables_number	1
_symmetry_cell_setting	triclinic
loop_
_symmetry_equiv_pos_as_xyz
  x,y,z
_cell_length_a	19.288864
_cell_length_b	14.421503
_cell_length_c	19.288865
_cell_angle_alpha	90.000948
_cell_angle_beta	83.136245
_cell_angle_gamma	90.021447
loop_
_atom_site_label
_atom_site_type_symbol
_atom_site_fract_x
_atom_site_fract_y
_atom_site_fract_z
O1	O	0.921353	0.077420	0.086638
O2	O	0.719092	0.077358	0.098327
O3	O	0.826067	0.077372	-0.008648
O4	O	0.814378	0.077405	0.193613
O5	O	0.826049	-0.076851	-0.008632
O6	O	0.719074	-0.076866	0.098343
O7	O	0.921335	-0.076804	0.086654
Cu8	Cu	0.820203	-0.090917	0.092500
Cu9	Cu	0.820224	0.091470	0.092481
O10	O	0.814360	-0.076818	0.193629
C11	C	0.693207	0.000238	0.097959
C12	C	0.616103	0.000213	0.096830
N13	N	0.820193	-0.219198	0.092513
C14	C	0.571407	0.000238	0.159598
C15	C	0.498960	0.000248	0.158537
C16	C	0.471212	0.000252	0.094705
C17	C	0.515918	0.000222	0.031929
C18	C	0.588364	0.000202	0.032991
C19	C	0.362956	0.054306	0.044520
C20	C	0.290512	0.054331	0.043460
C21	C	0.247767	0.000308	0.091425
C22	C	0.277473	-0.053729	0.140462
C23	C	0.349919	-0.053749	0.141524
C24	C	0.392658	0.000272	0.093546
C25	C	0.124514	0.000342	0.153047
C26	C	0.052066	0.000346	0.151984
C27	C	0.069026	0.000329	0.025374
C28	C	0.141473	0.000316	0.026439
C29	C	0.169212	0.000326	0.090277
C30	C	0.770720	-0.468858	0.141956
C31	C	0.833441	-0.530639	0.155241
C32	C	0.820210	-0.408359	0.092496
C33	C	0.757505	-0.530673	0.079227
C34	C	0.820221	-0.591081	0.092481
C35	C	0.882963	-0.468779	0.105812
C36	C	0.806986	-0.468808	0.029771
C37	C	0.869753	-0.530560	0.043030
C38	C	0.820203	-0.303098	0.092506
C39	C	0.820235	-0.696340	0.092471
C40	C	0.947220	0.000318	0.087022
C41	C	1.024324	0.000349	0.088151
C42	C	0.825682	0.000257	-0.034516
C43	C	0.824553	0.000249	-0.111620
N44	N	0.820239	0.219752	0.092463
C45	C	0.887321	0.000264	-0.156316
C46	C	0.886260	0.000278	-0.228763
C47	C	0.822428	0.000259	-0.256511
C48	C	0.759652	0.000250	-0.211805
C49	C	0.760714	0.000244	-0.139359
C50	C	0.772242	-0.053778	-0.364793
C51	C	0.771182	-0.053778	-0.437237
C52	C	0.819148	0.000279	-0.479956
C53	C	0.868186	0.054324	-0.450224
C54	C	0.869248	0.054319	-0.377778
C55	C	0.821269	0.000265	-0.335065
C56	C	0.880770	0.000310	-0.603209
C57	C	0.879707	0.000330	-0.675657
C58	C	0.753097	0.000293	-0.658697
C59	C	0.754162	0.000282	-0.586250
C60	C	0.818001	0.000286	-0.558511
C61	C	0.814745	0.000298	0.219497
C62	C	0.815874	0.000313	0.296601
H63	H	0.462561	0.000266	0.209652
O64	O	0.792136	-0.432791	-0.040460
H65	H	0.740026	-0.457534	-0.051349
H66	H	0.046435	0.000390	-0.026600
O67	O	0.690805	0.000228	-0.241732
H68	H	0.647335	0.000223	-0.198477
O69	O	0.189689	0.000297	-0.041261
H70	H	0.158225	0.000307	-0.085827
O71	O	0.258473	0.112598	-0.009433
H72	H	0.300367	0.150142	-0.042620
O73	O	0.956171	0.000294	-0.126395
H74	H	0.999640	0.000321	-0.169652
O75	O	0.231379	-0.112003	0.192201
H76	H	0.246220	-0.186071	0.185246
O77	O	0.409059	0.112583	-0.007213
H78	H	0.376232	0.150173	-0.041480
H79	H	0.493322	0.000238	-0.020044
H80	H	0.147101	0.000337	0.205028
O81	O	0.636579	0.000180	-0.034711
H82	H	0.605117	0.000187	-0.079278
H83	H	0.728909	-0.441766	0.183815
H84	H	0.374103	-0.097750	0.181449
H85	H	0.704472	-0.557862	0.068011
H86	H	0.844636	-0.557798	0.208279
O87	O	0.953228	-0.432932	0.120758
H88	H	0.952662	-0.355972	0.120675
O89	O	0.925251	-0.566242	-0.012383
H90	H	0.977222	-0.541320	-0.001205
H91	H	0.937375	0.000294	-0.265162
H92	H	0.733180	-0.097802	-0.330016
H93	H	0.909175	0.098327	-0.353573
O94	O	0.003857	0.000371	0.219690
H95	H	-0.029575	-0.062486	0.222246
O96	O	0.601317	0.000234	0.228454
H97	H	0.633942	0.063086	0.231969
O98	O	0.693010	0.000211	-0.091148
H99	H	0.662453	0.063057	-0.100983
H100	H	0.907244	0.098343	-0.485005
H101	H	0.932751	0.000318	-0.580622
O102	O	0.947409	0.000339	-0.723871
H103	H	0.991975	0.000329	-0.692408
H104	H	0.701123	0.000282	-0.681288
O105	O	0.686462	0.000243	-0.538034
H106	H	0.641896	0.000221	-0.569498
H107	H	0.731250	-0.097780	-0.461439
