data_functionalizedCrystal
_audit_creation_method	'MofGen! by Chris Wilmer'
_symmetry_space_group_name_H-M	'P1'
_symmetry_Int_Tables_number	1
_symmetry_cell_setting	triclinic
loop_
_symmetry_equiv_pos_as_xyz
  x,y,z
_cell_length_a	14.908782
_cell_length_b	14.908520
_cell_length_c	19.805399
_cell_angle_alpha	93.270609
_cell_angle_beta	93.283594
_cell_angle_gamma	89.837842
loop_
_atom_site_label
_atom_site_type_symbol
_atom_site_fract_x
_atom_site_fract_y
_atom_site_fract_z
Zn1	Zn	1.353893	-0.437247	-0.342898
Zn2	Zn	1.853893	0.062753	0.157102
Zn3	Zn	1.345114	-0.587606	-0.236600
Zn4	Zn	1.845114	-0.087606	0.263400
Zn5	Zn	1.203538	-0.428602	-0.235873
Zn6	Zn	1.703538	0.071398	0.264127
Zn7	Zn	1.194828	-0.578893	-0.355891
Zn8	Zn	1.694828	-0.078893	0.144109
O9	O	1.274343	-0.508087	-0.292816
O10	O	1.774343	-0.008087	0.207184
O11	O	1.478548	-0.464456	-0.323664
O12	O	1.978548	0.035544	0.176336
O13	O	1.326305	-0.566543	-0.141790
O14	O	1.826305	-0.066543	0.358210
O15	O	1.230803	-0.303926	-0.244328
O16	O	1.730803	0.196074	0.255672
O17	O	1.472098	-0.574925	-0.245568
O18	O	1.972098	-0.074925	0.254432
O19	O	1.341268	-0.310277	-0.322959
O20	O	1.841268	0.189723	0.177041
O21	O	1.222290	-0.449723	-0.141255
O22	O	1.722290	0.050277	0.358745
O23	O	1.076563	-0.441274	-0.256927
O24	O	1.576563	0.058726	0.243073
O25	O	1.215957	-0.560074	-0.448882
O26	O	1.715957	-0.060074	0.051118
O27	O	1.070164	-0.551692	-0.345104
O28	O	1.570164	-0.051692	0.154896
O29	O	1.332822	-0.456007	-0.439336
O30	O	1.832822	0.043993	0.060664
O31	O	1.317858	-0.712273	-0.258167
O32	O	1.817858	-0.212273	0.241833
O33	O	1.207444	-0.705872	-0.345809
O34	O	1.707444	-0.205872	0.154191
C35	C	1.040740	-0.494600	-0.302347
C36	C	1.540740	0.005400	0.197653
C37	C	0.940802	-0.488852	-0.306441
C38	C	1.440802	0.011148	0.193559
C39	C	0.746300	-0.592924	-0.232674
C40	C	1.246300	-0.092924	0.267326
C41	C	0.652399	-0.587526	-0.236519
C42	C	1.152399	-0.087526	0.263481
C43	C	0.659098	-0.472664	-0.317980
C44	C	1.159098	0.027336	0.182020
C45	C	0.752999	-0.478061	-0.314135
C46	C	1.252999	0.021939	0.185865
C47	C	0.796596	-0.538193	-0.271480
C48	C	1.296596	-0.038193	0.228520
C49	C	0.890499	-0.543585	-0.267631
C50	C	1.390499	-0.043585	0.232369
C51	C	0.897196	-0.428728	-0.349095
C52	C	1.397196	0.071272	0.150905
C53	C	0.803296	-0.423330	-0.352941
C54	C	1.303296	0.076670	0.147059
C55	C	1.260778	-0.741698	-0.303490
C56	C	1.760778	-0.241698	0.196510
C57	C	1.255056	-0.841643	-0.308076
C58	C	1.755056	-0.341643	0.191924
C59	C	1.359399	-1.036062	-0.225497
C60	C	1.859399	-0.536062	0.274503
C61	C	1.354026	-1.129969	-0.229803
C62	C	1.854026	-0.629969	0.270197
C63	C	1.238944	-1.123367	-0.320999
C64	C	1.738944	-0.623367	0.179001
C65	C	1.244317	-1.029460	-0.316692
C66	C	1.744317	-0.529460	0.183308
C67	C	1.304545	-0.985810	-0.268939
C68	C	1.804545	-0.485810	0.231061
C69	C	1.309912	-0.891901	-0.264630
C70	C	1.809912	-0.391901	0.235370
C71	C	1.194835	-0.885301	-0.355828
C72	C	1.694835	-0.385301	0.144172
C73	C	1.189463	-0.979208	-0.360135
C74	C	1.689463	-0.479208	0.139865
C75	C	1.508859	-0.521627	-0.283248
C76	C	2.008859	-0.021627	0.216752
C77	C	1.608795	-0.527397	-0.279170
C78	C	2.108795	-0.027397	0.220830
C79	C	1.274397	-0.508033	-0.469354
C80	C	1.774397	-0.008033	0.030646
C81	C	1.274420	-0.508010	-0.544584
C82	C	1.774420	-0.008010	-0.044584
C83	C	1.287986	-0.273564	-0.282113
C84	C	1.787986	0.226436	0.217887
C85	C	1.293800	-0.173625	-0.277552
C86	C	1.793800	0.326375	0.222448
C87	C	1.335273	-0.453820	-0.574958
C88	C	1.835273	0.046180	-0.074958
C89	C	1.335283	-0.453794	-0.645645
C90	C	1.835283	0.046206	-0.145645
C91	C	1.274445	-0.507964	-0.685956
C92	C	1.774445	-0.007964	-0.185956
C93	C	1.213585	-0.562157	-0.655577
C94	C	1.713585	-0.062157	-0.155577
C95	C	1.213571	-0.562177	-0.584892
C96	C	1.713571	-0.062177	-0.084892
C97	C	1.213641	-0.562076	-0.940645
C98	C	1.713641	-0.062076	-0.440645
C99	C	1.213662	-0.562054	-1.011335
C100	C	1.713662	-0.062054	-0.511335
C101	C	1.335353	-0.453693	-1.001398
C102	C	1.835353	0.046307	-0.501398
C103	C	1.335339	-0.453713	-0.930713
C104	C	1.835339	0.046287	-0.430713
C105	C	1.274477	-0.507902	-0.900340
C106	C	1.774477	-0.007902	-0.400340
C107	C	1.274465	-0.507928	-0.823693
C108	C	1.774465	-0.007928	-0.323693
C109	C	1.274460	-0.507944	-0.762602
C110	C	1.774460	-0.007944	-0.262602
C111	C	1.274345	-0.508078	-0.116959
C112	C	1.774345	-0.008078	0.383041
C113	C	1.274511	-0.507858	-0.041711
C114	C	1.774511	-0.007858	0.458289
H115	H	0.925994	-0.592545	-0.232898
H116	H	1.425994	-0.092545	0.267102
H117	H	0.781797	-0.641880	-0.197938
H118	H	1.281797	-0.141880	0.302062
Br119	Br	1.428478	-1.198166	-0.170847
Br120	Br	1.928478	-0.698166	0.329153
H121	H	0.623585	-0.423715	-0.352714
H122	H	1.123585	0.076285	0.147286
H123	H	1.150167	-0.844375	-0.391200
H124	H	1.650167	-0.344375	0.108800
Br125	Br	1.131012	-0.635669	-0.710285
Br126	Br	1.631012	-0.135669	-0.210285
H127	H	1.189915	-1.158923	-0.359882
H128	H	1.689915	-0.658923	0.140118
H129	H	0.938158	-0.384158	-0.380691
H130	H	1.438158	0.115842	0.119309
Br131	Br	0.584141	-0.661811	-0.183856
Br132	Br	1.084141	-0.161811	0.316144
Br133	Br	1.107734	-1.038455	-0.424943
Br134	Br	1.607734	-0.538455	0.075057
Br135	Br	1.417851	-0.380306	-0.520257
Br136	Br	1.917851	0.119694	-0.020257
Br137	Br	1.131091	-0.635577	-1.066044
Br138	Br	1.631091	-0.135577	-0.566044
H139	H	0.767786	-0.374376	-0.387671
H140	H	1.267786	0.125624	0.112329
Br141	Br	1.391644	-0.832663	-0.199818
Br142	Br	1.891644	-0.332663	0.300182
Br143	Br	1.441117	-0.976818	-0.160679
Br144	Br	1.941117	-0.476818	0.339321
H145	H	1.384838	-0.409669	-0.670372
H146	H	1.884838	0.090331	-0.170372
H147	H	1.384883	-0.409606	-0.897894
H148	H	1.884883	0.090394	-0.397894
Br149	Br	1.417953	-0.380149	-1.042622
Br150	Br	1.917953	0.119851	-0.542622
H151	H	1.164096	-0.606214	-0.915924
H152	H	1.664096	-0.106214	-0.415924
Br153	Br	1.130977	-0.635718	-0.543668
Br154	Br	1.630977	-0.135718	-0.043668
