data_functionalizedCrystal
_audit_creation_method	'MofGen! by Chris Wilmer'
_symmetry_space_group_name_H-M	'P1'
_symmetry_Int_Tables_number	1
_symmetry_cell_setting	triclinic
loop_
_symmetry_equiv_pos_as_xyz
  x,y,z
_cell_length_a	34.490303
_cell_length_b	34.489386
_cell_length_c	34.485816
_cell_angle_alpha	60.004462
_cell_angle_beta	60.008900
_cell_angle_gamma	59.994399
loop_
_atom_site_label
_atom_site_type_symbol
_atom_site_fract_x
_atom_site_fract_y
_atom_site_fract_z
O1	O	0.053846	-0.566517	0.473678
O2	O	0.020329	-0.441078	0.381663
O3	O	0.099768	-0.520436	0.381578
O4	O	-0.025592	-0.487159	0.473762
O5	O	0.126127	-0.494082	0.407849
O6	O	0.046689	-0.414724	0.407933
O7	O	0.080206	-0.540163	0.499949
Zn8	Zn	0.067632	-0.473259	0.458112
Zn9	Zn	0.032903	-0.507982	0.423499
O10	O	0.000767	-0.460805	0.500033
N11	N	0.091336	-0.449565	0.481736
N12	N	0.009203	-0.531680	0.399875
C13	C	0.142510	-0.268211	0.532817
C14	C	0.142641	-0.398441	0.662987
C15	C	0.142524	-0.398421	0.532817
C16	C	0.272762	-0.398394	0.532723
C17	C	0.156853	-0.311177	0.547124
C18	C	0.156928	-0.384109	0.620020
C19	C	0.229794	-0.384081	0.547073
C20	C	0.156863	-0.384097	0.547124
C21	C	0.124253	-0.213522	0.514606
C22	C	0.124277	-0.416652	0.514606
C23	C	0.175110	-0.365866	0.565335
C24	C	0.352285	-0.384669	0.490824
C25	C	0.401998	-0.401229	0.474223
C26	C	0.402027	-0.481671	0.504898
C27	C	0.352316	-0.465109	0.521500
C28	C	0.136220	-0.188652	0.465734
C29	C	0.119621	-0.138936	0.449181
C30	C	0.079092	-0.138961	0.530374
C31	C	0.095691	-0.188678	0.546927
C32	C	0.075398	-0.404656	0.526651
C33	C	0.058814	-0.421229	0.510091
C34	C	0.139984	-0.461794	0.469452
C35	C	0.156570	-0.445221	0.486007
C36	C	0.075593	-0.404694	0.742565
C37	C	0.059066	-0.421281	0.792280
C38	C	0.140274	-0.461856	0.792215
C39	C	0.156800	-0.445269	0.742499
C40	C	0.124458	-0.416687	0.717675
C41	C	0.327446	-0.416608	0.514460
C42	C	-0.023585	-0.564792	0.161919
C43	C	-0.023910	-0.769260	0.366530
C44	C	-0.023880	-0.564780	0.366623
C45	C	-0.228325	-0.564561	0.366222
C46	C	-0.129610	-0.597564	0.333467
C47	C	-0.056729	-0.597644	0.333613
C48	C	-0.074925	-0.615849	0.315324
C49	C	-0.088689	-0.695351	0.357144
C50	C	-0.072155	-0.745068	0.373736
C51	C	0.008283	-0.745150	0.343188
C52	C	-0.008252	-0.695435	0.326596
C53	C	-0.154529	-0.609541	0.382326
C54	C	-0.204241	-0.592916	0.398818
C55	C	-0.204114	-0.552341	0.317588
C56	C	-0.154401	-0.568966	0.301096
C57	C	-0.068707	-0.548770	0.321590
C58	C	-0.052166	-0.532225	0.338221
C59	C	-0.011669	-0.613425	0.378886
C60	C	-0.028210	-0.629972	0.362261
C61	C	-0.068581	-0.548777	0.235758
C62	C	-0.051939	-0.532234	0.186043
C63	C	-0.011379	-0.613438	0.186090
C64	C	-0.028020	-0.629981	0.235806
C65	C	-0.056622	-0.597649	0.260639
C66	C	-0.056739	-0.670537	0.333576
C67	C	-0.005614	-0.545951	0.107238
C68	C	-0.006360	-0.823943	0.385033
C69	C	-0.005995	-0.545937	0.384582
C70	C	-0.283006	-0.545971	0.383725
N71	N	0.426163	-0.449489	0.481488
O72	O	0.588601	-0.457377	0.364497
O73	O	0.588789	-0.549696	0.489801
O74	O	0.588709	-0.549485	0.410335
O75	O	0.588681	-0.457588	0.443963
O76	O	0.509731	-0.523223	0.436741
O77	O	0.509811	-0.523434	0.516207
O78	O	0.509624	-0.431115	0.390903
Zn79	Zn	0.497178	-0.473105	0.457747
Zn80	Zn	0.601234	-0.507706	0.422956
O81	O	0.509704	-0.431326	0.470368
N82	N	0.672250	-0.531322	0.399211
N83	N	0.091303	-0.114798	0.481730
O84	O	-0.025603	0.047729	0.473733
O85	O	0.099703	0.047764	0.381394
O86	O	0.020199	0.047731	0.381655
O87	O	0.053901	0.047761	0.473472
O88	O	0.046564	-0.031252	0.407974
O89	O	0.126068	-0.031219	0.407713
O90	O	0.000762	-0.031254	0.500052
Zn91	Zn	0.067601	-0.043777	0.458061
Zn92	Zn	0.032864	0.060287	0.423385
O93	O	0.080266	-0.031222	0.499791
N94	N	0.009156	0.131307	0.399717
N95	N	0.091635	-0.449614	0.816396
O96	O	0.083664	-0.566502	0.978913
O97	O	-0.008637	-0.441152	0.978954
O98	O	-0.008421	-0.520640	0.978930
O99	O	0.083448	-0.487013	0.978936
O100	O	0.017877	-0.494296	0.899950
O101	O	0.017661	-0.414807	0.899974
O102	O	0.109961	-0.540157	0.899933
Zn103	Zn	0.067986	-0.473299	0.887414
Zn104	Zn	0.033338	-0.508010	0.991473
O105	O	0.109746	-0.460669	0.899956
N106	N	0.009689	-0.531700	1.062491
C107	C	0.030367	-0.412095	0.382120
C108	C	0.128741	-0.510370	0.382016
C109	C	0.070168	-0.569147	0.499490
C110	C	-0.028207	-0.470871	0.499595
C111	C	0.549323	-0.549278	0.518791
C112	C	0.549225	-0.549017	0.420381
C113	C	0.549087	-0.431532	0.361914
C114	C	0.549188	-0.431794	0.460322
C115	C	0.128638	0.008374	0.381806
C116	C	0.030215	0.008236	0.382161
C117	C	-0.028206	0.008233	0.499608
C118	C	0.070250	0.008272	0.499285
C119	C	-0.008199	-0.412187	0.939469
C120	C	-0.007927	-0.510619	0.939425
C121	C	0.109523	-0.569121	0.939417
C122	C	0.109257	-0.470684	0.939444
H123	H	0.019274	-0.411508	0.812539
H124	H	0.549237	-0.577886	0.413185
C125	C	0.549392	-0.588434	0.567407
C126	C	0.590436	-0.607117	0.585417
C127	C	0.590506	-0.646273	0.634033
C128	C	0.549532	-0.666746	0.664639
C129	C	0.508485	-0.648063	0.646630
C130	C	0.508416	-0.608907	0.598014
H131	H	0.620770	-0.591962	0.562760
H132	H	0.620891	-0.660104	0.647365
H133	H	0.549584	-0.695732	0.700628
H134	H	0.478151	-0.663218	0.669287
H135	H	0.478030	-0.595076	0.584682
C136	C	-0.076820	0.008222	0.538771
C137	C	-0.115973	0.008204	0.529311
C138	C	-0.164586	0.008193	0.568474
C139	C	-0.174047	0.008198	0.617097
C140	C	-0.134893	0.008215	0.626559
C141	C	-0.086279	0.008227	0.587396
H142	H	-0.108970	0.008201	0.493316
H143	H	-0.193570	0.008180	0.561470
H144	H	-0.210034	0.008189	0.646088
H145	H	-0.141895	0.008219	0.662555
H146	H	-0.057295	0.008240	0.594401
H147	H	0.549027	-0.402547	0.325928
H148	H	-0.036776	-0.517804	0.939391
H149	H	0.138119	-0.463487	0.939440
H150	H	0.077468	0.008281	0.528131
C151	C	0.020468	0.008226	0.343188
C152	C	0.007368	-0.032799	0.351985
C153	C	-0.002378	-0.032809	0.313013
C154	C	0.000975	0.008207	0.265243
C155	C	0.014075	0.049235	0.256444
C156	C	0.023822	0.049245	0.295417
H157	H	0.004886	-0.063163	0.387349
H158	H	-0.012076	-0.063181	0.319527
H159	H	-0.006240	0.008199	0.236394
H160	H	0.016558	0.079599	0.221081
H161	H	0.033520	0.079617	0.288903
C162	C	0.079838	-0.617826	0.538535
C163	C	0.049061	-0.648496	0.559002
C164	C	0.058732	-0.697175	0.598047
C165	C	0.099179	-0.715183	0.616625
C166	C	0.129958	-0.684512	0.596158
C167	C	0.120288	-0.635834	0.557113
H168	H	0.019118	-0.635165	0.545250
H169	H	0.035947	-0.719879	0.613198
H170	H	0.106337	-0.751218	0.645529
H171	H	0.159902	-0.697843	0.609911
H172	H	0.143073	-0.613129	0.541962
H173	H	0.549182	-0.402927	0.467517
H174	H	0.023205	-0.376060	0.353221
C175	C	0.177151	0.008687	0.342543
C176	C	0.216253	0.008855	0.351953
C177	C	0.264765	0.009168	0.312690
C178	C	0.274175	0.009313	0.264017
C179	C	0.235072	0.009145	0.254605
C180	C	0.186560	0.008832	0.293868
H181	H	0.209288	0.008747	0.387985
H182	H	0.293712	0.009292	0.319657
H183	H	0.310087	0.009545	0.234952
H184	H	0.242037	0.009253	0.218572
H185	H	0.157613	0.008708	0.286900
C186	C	-0.231654	-0.606090	0.452567
C187	C	-0.265854	-0.633717	0.475060
C188	C	-0.293264	-0.646892	0.528809
C189	C	-0.286474	-0.632440	0.560065
C190	C	-0.252273	-0.604811	0.537572
C191	C	-0.224863	-0.591636	0.483823
H192	H	-0.270881	-0.644417	0.451923
H193	H	-0.318582	-0.667345	0.545460
H194	H	-0.306765	-0.642193	0.599853
H195	H	-0.247246	-0.594111	0.560709
H196	H	-0.199545	-0.571183	0.467173
C197	C	-0.047349	-0.363555	0.939486
C198	C	-0.037864	-0.324417	0.939497
C199	C	-0.077014	-0.275785	0.939514
C200	C	-0.125649	-0.266290	0.939519
C201	C	-0.135136	-0.305429	0.939508
C202	C	-0.095986	-0.354061	0.939491
H203	H	-0.001859	-0.331445	0.939493
H204	H	-0.069990	-0.246812	0.939522
H205	H	-0.154630	-0.230289	0.939531
H206	H	-0.171141	-0.298401	0.939511
H207	H	-0.103010	-0.383034	0.939483
C208	C	0.148673	-0.617754	0.939401
C209	C	0.140063	-0.663161	0.980403
C210	C	0.179213	-0.711794	0.980387
C211	C	0.226973	-0.715019	0.939368
C212	C	0.235586	-0.669611	0.898363
C213	C	0.196436	-0.620978	0.898379
H214	H	0.104706	-0.660775	1.010771
H215	H	0.172837	-0.745408	1.010742
H216	H	0.255954	-0.751020	0.939356
H217	H	0.270943	-0.671997	0.867996
H218	H	0.202812	-0.587363	0.868024
C219	C	0.040014	-0.373251	0.715261
C220	C	-0.013737	-0.360059	0.742640
C221	C	-0.049315	-0.328619	0.715335
C222	C	-0.031141	-0.310371	0.660652
C223	C	0.022613	-0.323563	0.633270
C224	C	0.058191	-0.355003	0.660574
H225	H	-0.027193	-0.373567	0.783123
H226	H	-0.089107	-0.318853	0.735606
H227	H	-0.057478	-0.287097	0.640440
H228	H	0.036069	-0.310055	0.592787
H229	H	0.097983	-0.364769	0.640304
H230	H	0.196592	-0.455039	0.722237
C231	C	0.175850	-0.493287	0.819522
C232	C	0.229602	-0.506476	0.792145
C233	C	0.265178	-0.537909	0.819452
C234	C	0.247001	-0.556153	0.874135
C235	C	0.193247	-0.542965	0.901515
C236	C	0.157671	-0.511531	0.874208
H237	H	0.243060	-0.492970	0.751662
H238	H	0.304971	-0.547672	0.799183
H239	H	0.273337	-0.579422	0.894349
H240	H	0.179789	-0.556471	0.941998
H241	H	0.117878	-0.501768	0.894477
H242	H	0.085944	-0.208923	0.586721
C243	C	0.177380	-0.519946	0.342907
C244	C	0.216483	-0.568602	0.352466
C245	C	0.265122	-0.578177	0.313357
C246	C	0.274657	-0.539097	0.264689
C247	C	0.235553	-0.490438	0.255128
C248	C	0.186914	-0.480863	0.294237
H249	H	0.209425	-0.597534	0.388494
H250	H	0.294069	-0.614198	0.320435
H251	H	0.310662	-0.546186	0.235738
H252	H	0.242611	-0.461506	0.219099
H253	H	0.157967	-0.444842	0.287159
C254	C	0.005047	-0.408035	0.523332
C255	C	-0.017482	-0.447346	0.551005
C256	C	-0.071247	-0.434151	0.564243
C257	C	-0.102483	-0.381645	0.549807
C258	C	-0.079955	-0.342330	0.522131
C259	C	-0.026189	-0.355525	0.508894
H260	H	0.005642	-0.486218	0.561693
H261	H	-0.087924	-0.463255	0.584730
H262	H	-0.142284	-0.371877	0.559606
H263	H	-0.103078	-0.303459	0.511444
H264	H	-0.009512	-0.326422	0.488407
C265	C	0.175509	-0.493224	0.437995
C266	C	0.211305	-0.541173	0.456987
C267	C	0.246828	-0.572602	0.425529
C268	C	0.246555	-0.556081	0.375080
C269	C	0.210759	-0.508129	0.356086
C270	C	0.175236	-0.476701	0.387543
H271	H	0.211507	-0.553405	0.494335
H272	H	0.273327	-0.608099	0.439591
H273	H	0.272852	-0.579346	0.351794
H274	H	0.210556	-0.495897	0.318738
H275	H	0.148736	-0.441204	0.373482
H276	H	0.196371	-0.454985	0.476195
C277	C	0.324994	-0.500244	0.547494
C278	C	0.352354	-0.553592	0.555225
C279	C	0.325033	-0.588728	0.581215
C280	C	0.270351	-0.570517	0.599474
C281	C	0.242987	-0.517166	0.591743
C282	C	0.270309	-0.482030	0.565753
H283	H	0.392836	-0.567075	0.541709
H284	H	0.345290	-0.628222	0.586938
H285	H	0.250126	-0.596527	0.618713
H286	H	0.202506	-0.503683	0.605259
H287	H	0.250052	-0.442537	0.560030
H288	H	0.159477	-0.208876	0.439413
H289	H	0.422274	-0.521162	0.510626
C290	C	0.429326	-0.366096	0.448218
C291	C	0.422514	-0.335884	0.473632
C292	C	0.449842	-0.300751	0.447623
C293	C	0.483982	-0.295829	0.396202
C294	C	0.490795	-0.326042	0.370786
C295	C	0.463467	-0.361175	0.396794
H296	H	0.397240	-0.339526	0.511700
H297	H	0.444798	-0.278385	0.466438
H298	H	0.504211	-0.269822	0.376949
H299	H	0.516069	-0.322400	0.332718
H300	H	0.468511	-0.383541	0.377979
C301	C	0.324928	-0.331316	0.483082
C302	C	0.352254	-0.296185	0.457083
C303	C	0.324898	-0.242833	0.449340
C304	C	0.270217	-0.224611	0.467595
C305	C	0.242887	-0.259743	0.493596
C306	C	0.270243	-0.313095	0.501339
H307	H	0.392736	-0.309674	0.443568
H308	H	0.345130	-0.216827	0.430092
H309	H	0.249966	-0.185116	0.461863
H310	H	0.202405	-0.246254	0.507111
H311	H	0.250011	-0.339101	0.520587
H312	H	0.049100	-0.381393	0.549936
C313	C	-0.076846	-0.461297	0.538703
C314	C	-0.086382	-0.500377	0.587370
C315	C	-0.135022	-0.490803	0.626478
C316	C	-0.174126	-0.442148	0.616919
C317	C	-0.164591	-0.403064	0.568249
C318	C	-0.115951	-0.412638	0.529141
H319	H	-0.057434	-0.536398	0.594449
H320	H	-0.142080	-0.519735	0.662507
H321	H	-0.210132	-0.435060	0.645869
H322	H	-0.193539	-0.367043	0.561171
H323	H	-0.108893	-0.383705	0.493113
C324	C	0.132786	-0.111575	0.395420
C325	C	0.164208	-0.138903	0.359869
C326	C	0.177373	-0.111544	0.306107
C327	C	0.159116	-0.056858	0.287897
C328	C	0.127692	-0.029528	0.323449
C329	C	0.114527	-0.056886	0.377211
H330	H	0.177724	-0.179387	0.373348
H331	H	0.200634	-0.131776	0.279789
H332	H	0.168861	-0.036606	0.248100
H333	H	0.114176	0.010957	0.309970
H334	H	0.091266	-0.036654	0.403529
H335	H	0.055841	-0.118733	0.556693
H336	H	-0.061683	-0.492436	0.165791
H337	H	-0.091873	-0.522445	0.255974
H338	H	0.011902	-0.639768	0.165877
C339	C	-0.014863	-0.683743	0.263174
C340	C	-0.054196	-0.706248	0.297291
C341	C	-0.041039	-0.760010	0.324658
C342	C	0.011450	-0.791267	0.317906
C343	C	0.050785	-0.768763	0.283787
C344	C	0.037629	-0.715001	0.256421
H345	H	-0.093054	-0.683109	0.302291
H346	H	-0.070158	-0.776668	0.349915
H347	H	0.021189	-0.831065	0.338164
H348	H	0.089644	-0.791902	0.278788
H349	H	0.066748	-0.698343	0.231164
C350	C	-0.100078	-0.513211	0.290078
C351	C	-0.150538	-0.513385	0.306497
C352	C	-0.181907	-0.477827	0.274982
C353	C	-0.162817	-0.442095	0.227047
C354	C	-0.112355	-0.441919	0.210626
C355	C	-0.080986	-0.477478	0.242141
H356	H	-0.164672	-0.539838	0.341983
H357	H	-0.219263	-0.477957	0.287138
H358	H	-0.186039	-0.415772	0.203718
H359	H	-0.098222	-0.415467	0.175140
H360	H	-0.043630	-0.477348	0.229985
C361	C	-0.065337	-0.478462	0.324997
C362	C	-0.096702	-0.442901	0.293481
C363	C	-0.109872	-0.389139	0.280256
C364	C	-0.091676	-0.370939	0.298547
C365	C	-0.060309	-0.406501	0.330064
C366	C	-0.047139	-0.460263	0.343289
H367	H	-0.110174	-0.456373	0.279939
H368	H	-0.133092	-0.362813	0.256924
H369	H	-0.101425	-0.331141	0.288757
H370	H	-0.046838	-0.393029	0.343606
H371	H	-0.023919	-0.486588	0.366621
H372	H	0.011557	-0.639751	0.402207
C373	C	0.026896	-0.668138	0.300672
C374	C	0.031887	-0.633979	0.249245
C375	C	0.067036	-0.606682	0.223319
C376	C	0.097192	-0.613544	0.248820
C377	C	0.092202	-0.647704	0.300250
C378	C	0.057053	-0.675001	0.326176
H379	H	0.009563	-0.628898	0.230365
H380	H	0.070730	-0.581395	0.185247
H381	H	0.123211	-0.593338	0.229629
H382	H	0.114526	-0.652785	0.319130
H383	H	0.053359	-0.700289	0.364247
C384	C	0.061619	-0.772544	0.335515
C385	C	0.078752	-0.806728	0.378541
C386	C	0.132087	-0.834121	0.370867
C387	C	0.168289	-0.827330	0.320168
C388	C	0.151157	-0.793144	0.277139
C389	C	0.097822	-0.765751	0.284812
H390	H	0.051952	-0.811757	0.416075
H391	H	0.144768	-0.859428	0.402720
H392	H	0.207771	-0.847608	0.314487
H393	H	0.177957	-0.788115	0.239605
H394	H	0.085140	-0.740444	0.252959
C395	C	-0.107308	-0.772359	0.399667
C396	C	-0.148050	-0.765475	0.445804
C397	C	-0.183207	-0.792763	0.471739
C398	C	-0.177621	-0.826936	0.451535
C399	C	-0.136876	-0.833822	0.405395
C400	C	-0.101720	-0.806533	0.379461
H401	H	-0.152187	-0.740176	0.460762
H402	H	-0.213369	-0.787666	0.505895
H403	H	-0.203646	-0.847137	0.470733
H404	H	-0.132739	-0.859120	0.390438
H405	H	-0.071558	-0.811631	0.345305
C406	C	-0.127256	-0.640997	0.417931
C407	C	-0.134135	-0.621968	0.453717
C408	C	-0.106862	-0.653424	0.489323
C409	C	-0.072711	-0.703909	0.489143
C410	C	-0.065831	-0.722940	0.453356
C411	C	-0.093104	-0.691484	0.417750
H412	H	-0.159417	-0.584594	0.453851
H413	H	-0.111955	-0.639336	0.515815
H414	H	-0.052523	-0.727194	0.515500
H415	H	-0.040549	-0.760314	0.453221
H416	H	-0.088011	-0.705572	0.391258
C417	C	-0.231391	-0.520892	0.281985
C418	C	-0.224515	-0.539928	0.246207
C419	C	-0.251793	-0.508481	0.210606
C420	C	-0.285947	-0.457996	0.210783
C421	C	-0.292825	-0.438957	0.246563
C422	C	-0.265547	-0.470405	0.282164
H423	H	-0.199230	-0.577302	0.246075
H424	H	-0.246701	-0.522575	0.184120
H425	H	-0.306140	-0.434717	0.184429
H426	H	-0.318110	-0.401583	0.246695
H427	H	-0.270639	-0.456310	0.308650
H428	H	-0.128170	-0.675084	0.362831
H429	H	-0.018458	-0.669769	0.372051
H430	H	-0.134111	-0.559208	0.261309
