data_functionalizedCrystal
_audit_creation_method	'MofGen! by Chris Wilmer'
_symmetry_space_group_name_H-M	'P1'
_symmetry_Int_Tables_number	1
_symmetry_cell_setting	triclinic
loop_
_symmetry_equiv_pos_as_xyz
  x,y,z
_cell_length_a	16.109301
_cell_length_b	11.892095
_cell_length_c	16.109301
_cell_angle_alpha	93.886619
_cell_angle_beta	96.538519
_cell_angle_gamma	93.895190
loop_
_atom_site_label
_atom_site_type_symbol
_atom_site_fract_x
_atom_site_fract_y
_atom_site_fract_z
O1	O	1.108445	0.093935	-0.101554
O2	O	1.441779	0.427268	0.231779
O3	O	1.775112	0.760602	0.565112
O4	O	0.866384	0.093953	-0.114853
O5	O	1.199718	0.427287	0.218481
O6	O	1.533051	0.760620	0.551814
O7	O	0.994064	0.093932	0.012827
O8	O	1.327397	0.427265	0.346160
O9	O	1.660731	0.760599	0.679493
O10	O	0.980766	0.093956	-0.229234
O11	O	1.314099	0.427289	0.104100
O12	O	1.647433	0.760623	0.437433
O13	O	0.983418	-0.094074	0.002198
O14	O	1.316752	0.239260	0.335531
O15	O	1.650085	0.572593	0.668864
O16	O	0.855739	-0.094052	-0.125482
O17	O	1.189072	0.239281	0.207851
O18	O	1.522405	0.572614	0.541185
O19	O	1.097800	-0.094071	-0.112184
O20	O	1.431133	0.239263	0.221150
O21	O	1.764466	0.572596	0.554483
Zn22	Zn	0.975079	-0.123912	-0.120520
Zn23	Zn	1.308412	0.209422	0.212813
Zn24	Zn	1.641746	0.542755	0.546146
Zn25	Zn	0.989105	0.123794	-0.106516
Zn26	Zn	1.322438	0.457127	0.226817
Zn27	Zn	1.655772	0.790461	0.560151
O28	O	0.970120	-0.094050	-0.239863
O29	O	1.303454	0.239284	0.093470
O30	O	1.636787	0.572617	0.426804
C31	C	0.830087	-0.000047	-0.119628
C32	C	1.163420	0.333286	0.213705
C33	C	1.496753	0.666619	0.547038
C34	C	0.737792	-0.000041	-0.118013
C35	C	1.071125	0.333293	0.215320
C36	C	1.404459	0.666626	0.548654
N37	N	0.965513	-0.292964	-0.130078
N38	N	1.298846	0.040369	0.203256
N39	N	1.632179	0.373703	0.536589
C40	C	0.515519	-0.000047	-0.190021
C41	C	0.848853	0.333287	0.143312
C42	C	1.182186	0.666620	0.476646
C43	C	0.428798	-0.000054	-0.188497
C44	C	0.762132	0.333279	0.144836
C45	C	1.095465	0.666613	0.478169
C46	C	0.448672	-0.000064	-0.037009
C47	C	0.782005	0.333269	0.296324
C48	C	1.115339	0.666602	0.629657
C49	C	0.535391	-0.000065	-0.038534
C50	C	0.868724	0.333268	0.294799
C51	C	1.202057	0.666602	0.628133
C52	C	0.568812	-0.000050	-0.115042
C53	C	0.902145	0.333283	0.218291
C54	C	1.235479	0.666616	0.551625
C55	C	0.395373	-0.000057	-0.111994
C56	C	0.728706	0.333276	0.221340
C57	C	1.062039	0.666610	0.554673
C58	C	0.301346	-0.000065	-0.110341
C59	C	0.634679	0.333268	0.222992
C60	C	0.968013	0.666602	0.556326
C61	C	0.662844	-0.000045	-0.116695
C62	C	0.996178	0.333289	0.216638
C63	C	1.329511	0.666622	0.549971
C64	C	1.065245	-0.529628	-0.030401
C65	C	1.398579	-0.196295	0.302932
C66	C	1.731912	0.137038	0.636266
C67	C	1.058565	-0.647969	-0.037087
C68	C	1.391898	-0.314636	0.296246
C69	C	1.725231	0.018697	0.629579
C70	C	0.945467	-0.647989	-0.150132
C71	C	1.278800	-0.314655	0.183201
C72	C	1.612133	0.018678	0.516534
C73	C	0.952148	-0.529648	-0.143446
C74	C	1.285481	-0.196314	0.189887
C75	C	1.618814	0.137019	0.523221
C76	C	1.012040	-0.470472	-0.083579
C77	C	1.345373	-0.137139	0.249754
C78	C	1.678706	0.196195	0.583088
C79	C	1.018724	-0.352129	-0.076897
C80	C	1.352057	-0.018796	0.256436
C81	C	1.685391	0.314538	0.589769
C82	C	0.905623	-0.352150	-0.189938
C83	C	1.238956	-0.018817	0.143396
C84	C	1.572289	0.314516	0.476729
C85	C	0.898942	-0.470491	-0.196624
C86	C	1.232275	-0.137158	0.136709
C87	C	1.565609	0.196176	0.470042
C88	C	1.134097	-0.000068	-0.107408
C89	C	1.467431	0.333266	0.225926
C90	C	1.800764	0.666599	0.559259
C91	C	1.226393	-0.000067	-0.109023
C92	C	1.559726	0.333266	0.224311
C93	C	1.893059	0.666600	0.557644
C94	C	0.988202	-0.000071	0.038487
C95	C	1.321536	0.333262	0.371820
C96	C	1.654869	0.666595	0.705154
C97	C	0.986587	-0.000073	0.130782
C98	C	1.319920	0.333261	0.464116
C99	C	1.653254	0.666594	0.797449
N100	N	0.998678	0.292847	-0.096952
N101	N	1.332011	0.626180	0.236381
N102	N	1.665345	0.959513	0.569715
C103	C	0.975982	-0.000044	-0.265523
C104	C	1.309315	0.333290	0.067810
C105	C	1.642649	0.666623	0.401144
C106	C	0.977598	-0.000035	-0.357818
C107	C	1.310931	0.333299	-0.024485
C108	C	1.644264	0.666632	0.308849
C109	C	1.058595	-0.000060	0.353055
C110	C	1.391929	0.333273	0.686389
C111	C	1.725262	0.666606	1.019722
C112	C	1.057072	-0.000051	0.439776
C113	C	1.390405	0.333282	0.773110
C114	C	1.723739	0.666616	1.106443
C115	C	0.905584	-0.000044	0.419902
C116	C	1.238917	0.333290	0.753236
C117	C	1.572250	0.666623	1.086569
C118	C	0.907108	-0.000045	0.333184
C119	C	1.240442	0.333288	0.666517
C120	C	1.573775	0.666622	0.999850
C121	C	0.983617	-0.000059	0.299762
C122	C	1.316950	0.333274	0.633096
C123	C	1.650283	0.666608	0.966429
C124	C	0.980568	-0.000048	0.473202
C125	C	1.313901	0.333285	0.806535
C126	C	1.647235	0.666618	1.139869
C127	C	0.978916	-0.000038	0.567229
C128	C	1.312249	0.333295	0.900562
C129	C	1.645582	0.666628	1.233895
C130	C	0.985270	-0.000067	0.205730
C131	C	1.318603	0.333266	0.539063
C132	C	1.651936	0.666599	0.872397
H133	H	0.542727	-0.000043	-0.252319
H134	H	0.876060	0.333290	0.081014
H135	H	1.209394	0.666623	0.414348
H136	H	0.846048	-0.000041	0.289790
H137	H	1.179381	0.333293	0.623123
H138	H	1.512715	0.666626	0.956457
F139	F	1.140022	-0.000074	0.317489
F140	F	1.473355	0.333259	0.650822
F141	F	1.806689	0.666593	0.984156
H142	H	1.114017	-0.481447	0.018340
H143	H	1.447351	-0.148113	0.351673
H144	H	1.780684	0.185220	0.685006
F145	F	0.592113	-0.000077	0.041273
F146	F	0.925446	0.333257	0.374606
F147	F	1.258779	0.666590	0.707939
F148	F	0.881722	-0.710980	-0.213836
F149	F	1.215055	-0.377647	0.119497
F150	F	1.548388	-0.044314	0.452831
H151	H	0.421449	-0.000083	0.025281
H152	H	0.754783	0.333250	0.358614
H153	H	1.088116	0.666584	0.691947
F154	F	0.372083	-0.000052	-0.268300
F155	F	0.705416	0.333282	0.065033
F156	F	1.038750	0.666615	0.398366
F157	F	1.082468	-0.289152	-0.013184
F158	F	1.415801	0.044181	0.320149
F159	F	1.749134	0.377515	0.653482
H160	H	1.101889	-0.696131	0.006217
H161	H	1.435222	-0.362798	0.339550
H162	H	1.768556	-0.029465	0.672883
H163	H	0.850177	-0.518686	-0.245365
H164	H	1.183510	-0.185352	0.087969
H165	H	1.516843	0.147981	0.421302
F166	F	0.848999	-0.289180	-0.246540
F167	F	1.182332	0.044153	0.086793
F168	F	1.515666	0.377486	0.420126
F169	F	1.136875	-0.000050	0.496492
F170	F	1.470209	0.333284	0.829825
F171	F	1.803542	0.666617	1.163158
H172	H	0.843293	-0.000035	0.447125
H173	H	1.176627	0.333299	0.780458
H174	H	1.509960	0.666632	1.113791
