data_functionalizedCrystal
_audit_creation_method	'MofGen! by Chris Wilmer'
_symmetry_space_group_name_H-M	'P1'
_symmetry_Int_Tables_number	1
_symmetry_cell_setting	triclinic
loop_
_symmetry_equiv_pos_as_xyz
  x,y,z
_cell_length_a	14.044202
_cell_length_b	13.930277
_cell_length_c	14.853567
_cell_angle_alpha	90.000757
_cell_angle_beta	91.586184
_cell_angle_gamma	89.995315
loop_
_atom_site_label
_atom_site_type_symbol
_atom_site_fract_x
_atom_site_fract_y
_atom_site_fract_z
O1	O	-1.257997	0.079767	0.217412
O2	O	-0.757997	0.579767	0.717412
O3	O	-0.982017	0.079780	0.209559
O4	O	-0.482017	0.579780	0.709559
O5	O	-1.127379	0.079776	0.082840
O6	O	-0.627379	0.579776	0.582840
O7	O	-1.112635	0.079771	0.344131
O8	O	-0.612635	0.579771	0.844131
O9	O	-1.127359	-0.079886	0.082836
O10	O	-0.627359	0.420114	0.582836
O11	O	-0.981997	-0.079882	0.209555
O12	O	-0.481997	0.420118	0.709555
O13	O	-1.257977	-0.079895	0.217407
O14	O	-0.757977	0.420105	0.717407
Zn15	Zn	-1.119984	-0.105238	0.213480
Zn16	Zn	-0.619984	0.394762	0.713480
Zn17	Zn	-1.120011	0.105123	0.213486
Zn18	Zn	-0.620011	0.605123	0.713486
O19	O	-1.112615	-0.079891	0.344126
O20	O	-0.612615	0.420109	0.844126
C21	C	-0.946688	-0.000049	0.206122
C22	C	-0.446688	0.499951	0.706122
C23	C	-0.841449	-0.000044	0.195877
C24	C	-0.341449	0.499956	0.695877
N25	N	-1.119973	-0.248804	0.213476
N26	N	-0.619973	0.251196	0.713476
C27	C	-0.591234	-0.000054	0.249801
C28	C	-0.091234	0.499946	0.749801
C29	C	-0.648767	-0.000051	0.177162
C30	C	-0.148767	0.499949	0.677162
C31	C	-0.755985	-0.000047	0.187577
C32	C	-0.255985	0.499953	0.687577
C33	C	-0.484006	-0.000058	0.239387
C34	C	0.015994	0.499942	0.739387
C35	C	-1.055642	-0.701072	0.269573
C36	C	-0.555642	-0.201072	0.769573
C37	C	-1.184405	-0.701045	0.157394
C38	C	-0.684405	-0.201045	0.657394
C39	C	-1.184394	-0.600549	0.157391
C40	C	-0.684394	-0.100549	0.657391
C41	C	-1.120007	-0.550310	0.213480
C42	C	-0.620007	-0.050310	0.713480
C43	C	-1.055631	-0.600567	0.269573
C44	C	-0.555631	-0.100567	0.769573
C45	C	-1.248775	-0.550285	0.101305
C46	C	-0.748775	-0.050285	0.601305
C47	C	-1.248767	-0.449783	0.101300
C48	C	-0.748767	0.050217	0.601300
C49	C	-1.184375	-0.399542	0.157385
C50	C	-0.684375	0.100458	0.657385
C51	C	-1.119995	-0.449805	0.213480
C52	C	-0.619995	0.050195	0.713480
C53	C	-1.055608	-0.399566	0.269569
C54	C	-0.555608	0.100434	0.769569
C55	C	-0.991223	-0.449827	0.325660
C56	C	-0.491223	0.050173	0.825660
C57	C	-0.991238	-0.550326	0.325659
C58	C	-0.491238	-0.050326	0.825659
C59	C	-1.184360	-0.299043	0.157387
C60	C	-0.684360	0.200957	0.657387
C61	C	-1.055597	-0.299061	0.269569
C62	C	-0.555597	0.200939	0.769569
C63	C	-0.293306	-0.000063	0.220842
C64	C	0.206694	0.499937	0.720842
C65	C	-0.398546	-0.000061	0.231082
C66	C	0.101454	0.499939	0.731082
C67	C	-1.126701	-0.000052	0.049196
C68	C	-0.626701	0.499948	0.549196
C69	C	-1.124699	-0.000044	-0.051046
C70	C	-0.624699	0.499956	0.448954
N71	N	-1.120029	0.248689	0.213484
N72	N	-0.620029	0.748689	0.713484
C73	C	-1.029889	-0.000057	-0.471095
C74	C	-0.529889	0.499943	0.028905
C75	C	-1.202582	-0.000065	-0.478688
C76	C	-0.702582	0.499935	0.021312
C77	C	-1.204464	-0.000060	-0.384505
C78	C	-0.704464	0.499940	0.115495
C79	C	-1.119057	-0.000055	-0.333613
C80	C	-0.619057	0.499945	0.166387
C81	C	-1.031768	-0.000055	-0.376903
C82	C	-0.531768	0.499945	0.123097
C83	C	-1.291751	-0.000070	-0.341208
C84	C	-0.791751	0.499930	0.158792
C85	C	-1.293637	-0.000065	-0.247019
C86	C	-0.793637	0.499935	0.252981
C87	C	-1.208230	-0.000053	-0.196125
C88	C	-0.708230	0.499947	0.303875
C89	C	-1.120937	-0.000052	-0.239421
C90	C	-0.620937	0.499948	0.260579
C91	C	-1.035530	-0.000046	-0.188528
C92	C	-0.535530	0.499954	0.311472
C93	C	-0.948237	-0.000039	-0.231823
C94	C	-0.448237	0.499961	0.268177
C95	C	-0.946361	-0.000042	-0.326009
C96	C	-0.446361	0.499958	0.173991
C97	C	-1.210106	-0.000049	-0.101939
C98	C	-0.710106	0.499951	0.398061
C99	C	-1.037410	-0.000044	-0.094337
C100	C	-0.537410	0.499956	0.405663
C101	C	-1.113293	-0.000061	0.377770
C102	C	-0.613293	0.499939	0.877770
C103	C	-1.115295	-0.000063	0.478013
C104	C	-0.615295	0.499937	0.978013
H105	H	-0.617500	0.000018	0.107150
H106	H	-0.117500	0.500018	0.607150
H107	H	-1.272116	-0.000078	-0.520130
H108	H	-0.772116	0.499922	-0.020130
H109	H	-0.878699	-0.000041	-0.190374
H110	H	-0.378699	0.499959	0.309626
H111	H	-0.875291	-0.000037	-0.361267
H112	H	-0.375291	0.499963	0.138733
H113	H	-0.622500	-0.000052	0.319807
H114	H	-0.122500	0.499948	0.819807
O115	O	-1.253769	-0.244823	0.096878
O116	O	-0.753769	0.255177	0.596878
H117	H	-1.299887	-0.199014	0.138551
H118	H	-0.799887	0.300986	0.638551
H119	H	-1.003161	-0.258162	0.315241
H120	H	-0.503161	0.241838	0.815241
H121	H	-0.938802	-0.408911	0.371333
H122	H	-0.438802	0.091089	0.871333
H123	H	-0.938819	-0.591255	0.371327
H124	H	-0.438819	-0.091255	0.871327
O125	O	-0.986204	-0.755271	0.330076
O126	O	-0.486204	-0.255271	0.830076
H127	H	-0.997028	-0.833595	0.320660
H128	H	-0.497028	-0.333595	0.820660
O129	O	-1.253851	-0.755223	0.096900
O130	O	-0.753851	-0.255223	0.596900
H131	H	-1.243041	-0.833550	0.106322
H132	H	-0.743041	-0.333550	0.606322
O133	O	-1.318221	-0.604465	0.040813
O134	O	-0.818221	-0.104465	0.540813
H135	H	-1.307403	-0.682792	0.050230
H136	H	-0.807403	-0.182792	0.550230
H137	H	-1.301192	-0.408866	0.055627
H138	H	-0.801192	0.091134	0.555627
O139	O	-0.945292	-0.000047	-0.039445
O140	O	-0.445292	0.499953	0.460555
H141	H	-0.884282	-0.000051	-0.085375
H142	H	-0.384282	0.499949	0.414625
H143	H	-0.958816	-0.000047	-0.506349
H144	H	-0.458816	0.499953	-0.006349
O145	O	-1.304246	-0.000060	-0.055242
O146	O	-0.804246	0.499940	0.444758
H147	H	-1.309241	0.065015	-0.012511
H148	H	-0.809241	0.565015	0.487489
H149	H	-1.361285	-0.000083	-0.382651
H150	H	-0.861285	0.499917	0.117349
O151	O	-1.387783	-0.000051	-0.200324
O152	O	-0.887783	0.499949	0.299676
H153	H	-1.446854	-0.000044	-0.251537
H154	H	-0.946854	0.499956	0.248463
