data_functionalizedCrystal
_audit_creation_method	'MofGen! by Chris Wilmer'
_symmetry_space_group_name_H-M	'P1'
_symmetry_Int_Tables_number	1
_symmetry_cell_setting	triclinic
loop_
_symmetry_equiv_pos_as_xyz
  x,y,z
_cell_length_a	15.944551
_cell_length_b	17.038272
_cell_length_c	15.021413
_cell_angle_alpha	90.004029
_cell_angle_beta	89.997174
_cell_angle_gamma	87.305147
loop_
_atom_site_label
_atom_site_type_symbol
_atom_site_fract_x
_atom_site_fract_y
_atom_site_fract_z
O1	O	1.121728	0.100827	-0.073940
O2	O	0.878066	0.113259	-0.073962
O3	O	0.998449	-0.006773	-0.073944
O4	O	1.001345	0.220859	-0.073958
O5	O	0.998429	-0.006755	0.074120
O6	O	0.878046	0.113277	0.074102
O7	O	1.121708	0.100844	0.074125
Zn8	Zn	0.999874	0.107063	0.097622
Zn9	Zn	0.999900	0.107041	-0.097459
O10	O	1.001326	0.220876	0.074107
C11	C	0.846725	0.112752	0.000067
C12	C	0.753369	0.111205	0.000059
C13	C	0.995805	-0.035893	0.000088
C14	C	0.987945	-0.122688	0.000087
C15	C	0.532936	0.033105	0.000081
C16	C	0.474515	0.069363	-0.072924
C17	C	0.582443	0.108405	0.000070
C18	C	0.474519	0.069398	0.073055
C19	C	0.417337	0.105696	0.000084
C20	C	0.525252	0.144684	-0.072996
C21	C	0.525262	0.144709	0.073049
C22	C	0.466862	0.181022	0.000026
C23	C	0.677557	0.109964	0.000061
C24	C	0.322225	0.104143	0.000087
C25	C	1.060103	-0.172781	0.000094
C26	C	1.052713	-0.254334	0.000085
C27	C	0.973165	-0.285792	0.000075
C28	C	0.901002	-0.235693	0.000065
C29	C	0.908393	-0.154142	0.000068
C30	C	0.947056	-0.531558	0.000061
C31	C	0.939671	-0.613115	0.000060
C32	C	1.091383	-0.631751	0.000079
C33	C	1.098766	-0.550197	0.000087
C34	C	1.026603	-0.500105	0.000072
C35	C	0.965610	-0.369152	0.000069
C36	C	1.034159	-0.416747	0.000073
C37	C	1.153049	0.101352	0.000093
C38	C	1.246405	0.102899	0.000096
C39	C	1.003969	0.249997	0.000073
C40	C	1.011829	0.336792	0.000068
N41	N	0.999863	0.107078	0.230759
N42	N	0.999917	0.107019	-0.230597
C43	C	0.944187	0.162555	0.470434
C44	C	1.021171	0.177734	0.529775
C45	C	0.999883	0.107059	0.412366
C46	C	0.922921	0.091897	0.529768
C47	C	0.999896	0.107041	0.587790
C48	C	1.076908	0.122273	0.470400
C49	C	0.978606	0.036405	0.470388
C50	C	1.055643	0.051554	0.529702
C51	C	0.999875	0.107070	0.311309
C52	C	0.999913	0.107029	0.688846
H53	H	0.452139	0.037507	-0.134642
H54	H	0.897140	0.209524	0.444412
H55	H	0.561807	-0.029389	-0.000005
H56	H	0.438170	0.243580	-0.000019
C57	C	1.011777	-0.102477	0.466359
C58	C	0.954267	-0.044217	0.435136
H59	H	0.996740	-0.152250	0.444597
H60	H	1.066492	-0.091781	0.446065
H61	H	1.011089	-0.102920	0.529592
H62	H	0.954959	-0.043771	0.371903
H63	H	0.899538	-0.054916	0.455425
C64	C	0.776832	0.132786	0.535041
C65	C	0.835051	0.074585	0.564965
H66	H	0.722584	0.122098	0.556764
H67	H	0.792332	0.182583	0.556254
H68	H	0.776090	0.133139	0.471807
H69	H	0.835798	0.074236	0.628199
H70	H	0.819548	0.024775	0.543757
C71	C	0.987070	0.316419	0.535090
C72	C	1.045482	0.258379	0.564999
H73	H	1.002073	0.366206	0.556840
H74	H	0.986745	0.317153	0.471865
H75	H	0.932778	0.305265	0.556296
H76	H	1.099773	0.269531	0.543788
H77	H	1.045815	0.257647	0.628237
C78	C	0.769432	-0.244926	-0.076073
C79	C	0.813562	-0.270272	0.000049
H80	H	0.715451	-0.266278	-0.076082
H81	H	0.763505	-0.189195	-0.076066
H82	H	0.799406	-0.262128	-0.127695
H83	H	0.783591	-0.253065	0.051672
H84	H	0.819485	-0.326015	0.000051
C85	C	0.520757	0.264693	0.157122
C86	C	0.555504	0.187676	0.156368
H87	H	0.539427	0.291212	0.208568
H88	H	0.538026	0.291502	0.105305
H89	H	0.461252	0.263596	0.158019
H90	H	0.615010	0.188774	0.155464
H91	H	0.538241	0.160861	0.208198
C92	C	0.643063	0.188656	-0.155685
C93	C	0.555305	0.187631	-0.156415
H94	H	0.661616	0.215164	-0.207187
H95	H	0.660844	0.215231	-0.103916
H96	H	0.666245	0.136266	-0.155472
H97	H	0.532123	0.240021	-0.156621
H98	H	0.537516	0.161058	-0.208197
H99	H	0.452150	0.037542	0.134774
H100	H	0.888296	-0.490782	0.000049
H101	H	1.163543	-0.524590	0.000096
C102	C	1.118307	-0.011741	0.657831
C103	C	1.119299	-0.011818	0.564621
H104	H	1.157603	-0.050866	0.679388
H105	H	1.132966	0.038306	0.679060
H106	H	1.063679	-0.022625	0.678259
H107	H	1.173926	-0.000928	0.544193
H108	H	1.104644	-0.061877	0.543384
H109	H	1.124879	-0.147175	0.000108
H110	H	0.849634	-0.113356	0.000061
C111	C	1.218426	-0.672741	-0.076024
C112	C	1.170702	-0.686811	0.000085
H113	H	1.267399	-0.706731	-0.076019
H114	H	1.186054	-0.682284	-0.127650
H115	H	1.234203	-0.619668	-0.076011
H116	H	1.154920	-0.739884	0.000068
H117	H	1.203081	-0.677275	0.051724
H118	H	1.111472	-0.295117	0.000093
H119	H	1.098927	-0.391130	0.000061
H120	H	0.874891	-0.638725	0.000067
H121	H	0.900842	-0.394774	0.000062
H122	H	1.142018	0.135160	0.444432
