data_functionalizedCrystal
_audit_creation_method	'MofGen! by Chris Wilmer'
_symmetry_space_group_name_H-M	'P1'
_symmetry_Int_Tables_number	1
_symmetry_cell_setting	triclinic
loop_
_symmetry_equiv_pos_as_xyz
  x,y,z
_cell_length_a	15.944545
_cell_length_b	15.944564
_cell_length_c	15.021413
_cell_angle_alpha	89.997162
_cell_angle_beta	89.995468
_cell_angle_gamma	96.499946
loop_
_atom_site_label
_atom_site_type_symbol
_atom_site_fract_x
_atom_site_fract_y
_atom_site_fract_z
O1	O	1.114537	-0.108295	-0.073977
O2	O	1.447870	0.225038	0.259357
O3	O	1.781204	0.558372	0.592690
O4	O	0.869987	-0.121657	-0.073992
O5	O	1.203321	0.211677	0.259342
O6	O	1.536654	0.545010	0.592675
O7	O	0.998935	0.007298	-0.073975
O8	O	1.332268	0.340632	0.259358
O9	O	1.665601	0.673965	0.592691
O10	O	0.985590	-0.237250	-0.073993
O11	O	1.318923	0.096083	0.259340
O12	O	1.652256	0.429417	0.592674
O13	O	0.998914	0.007280	0.074089
O14	O	1.332248	0.340613	0.407422
O15	O	1.665581	0.673947	0.740756
O16	O	0.869967	-0.121675	0.074073
O17	O	1.203300	0.211658	0.407406
O18	O	1.536633	0.544992	0.740739
O19	O	1.114517	-0.108314	0.074087
O20	O	1.447850	0.225020	0.407421
O21	O	1.781183	0.558353	0.740754
Zn22	Zn	0.992238	-0.114997	0.097588
Zn23	Zn	1.325572	0.218336	0.430922
Zn24	Zn	1.658905	0.551669	0.764255
Zn25	Zn	0.992265	-0.114973	-0.097493
Zn26	Zn	1.325599	0.218360	0.235841
Zn27	Zn	1.658932	0.551694	0.569174
O28	O	0.985569	-0.237269	0.074071
O29	O	1.318902	0.096065	0.407404
O30	O	1.652236	0.429398	0.740738
C31	C	0.838683	-0.121112	0.000039
C32	C	1.172016	0.212221	0.333372
C33	C	1.505350	0.545554	0.666705
C34	C	0.745437	-0.119452	0.000033
C35	C	1.078770	0.213881	0.333367
C36	C	1.412103	0.547215	0.666700
C37	C	0.474800	-0.034559	0.000049
C38	C	0.808133	0.298774	0.333382
C39	C	1.141467	0.632108	0.666716
C40	C	0.525373	-0.075497	0.073052
C41	C	0.858707	0.257837	0.406385
C42	C	1.192040	0.591170	0.739718
C43	C	0.409793	-0.113531	0.000049
C44	C	0.743126	0.219802	0.333382
C45	C	1.076459	0.553135	0.666716
C46	C	0.525374	-0.075500	-0.072928
C47	C	0.858708	0.257834	0.260405
C48	C	1.192041	0.591167	0.593739
C49	C	0.574706	-0.116436	0.000040
C50	C	0.908039	0.216897	0.333373
C51	C	1.241373	0.550231	0.666707
C52	C	0.459138	-0.154448	0.073112
C53	C	0.792471	0.178885	0.406445
C54	C	1.125804	0.512219	0.739779
C55	C	0.459135	-0.154439	-0.072933
C56	C	0.792468	0.178894	0.260400
C57	C	1.125802	0.512227	0.593733
C58	C	0.509676	-0.195435	0.000087
C59	C	0.843009	0.137898	0.333420
C60	C	1.176342	0.471232	0.666754
C61	C	0.314790	-0.111856	0.000055
C62	C	0.648124	0.221478	0.333389
C63	C	0.981457	0.554811	0.666722
C64	C	0.669706	-0.118118	0.000040
C65	C	1.003039	0.215215	0.333374
C66	C	1.336372	0.548549	0.666707
C67	C	0.998369	0.038583	0.000057
C68	C	1.331702	0.371916	0.333390
C69	C	1.665035	0.705250	0.666724
C70	C	0.996702	0.131828	0.000058
C71	C	1.330035	0.465162	0.333391
C72	C	1.663369	0.798495	0.666725
C73	C	1.145821	-0.108858	0.000055
C74	C	1.479154	0.224475	0.333388
C75	C	1.812488	0.557809	0.666722
C76	C	1.239067	-0.110518	0.000055
C77	C	1.572401	0.222815	0.333388
C78	C	1.905734	0.556148	0.666721
C79	C	0.912788	0.346682	0.000042
C80	C	1.246121	0.680015	0.333375
C81	C	1.579454	1.013349	0.666708
C82	C	0.951737	0.407691	0.073049
C83	C	1.285071	0.741024	0.406382
C84	C	1.618404	1.074357	0.739715
C85	C	0.993687	0.302553	0.000052
C86	C	1.327020	0.635886	0.333385
C87	C	1.660354	0.969220	0.666718
C88	C	0.951777	0.407692	-0.072931
C89	C	1.285110	0.741025	0.260402
C90	C	1.618443	1.074359	0.593736
C91	C	0.990769	0.467465	0.000042
C92	C	1.324102	0.800798	0.333375
C93	C	1.657435	1.134131	0.666708
C94	C	1.032659	0.362334	0.073119
C95	C	1.365992	0.695667	0.406452
C96	C	1.699325	1.029000	0.739786
C97	C	1.032687	0.362329	-0.072926
C98	C	1.366020	0.695662	0.260407
C99	C	1.699353	1.028996	0.593740
C100	C	1.071695	0.423320	0.000099
C101	C	1.405029	0.756653	0.333432
C102	C	1.738362	1.089987	0.666765
C103	C	0.995366	0.207551	0.000058
C104	C	1.328699	0.540885	0.333391
C105	C	1.662032	0.874218	0.666725
C106	C	0.989096	0.562465	0.000042
C107	C	1.322429	0.895799	0.333375
C108	C	1.655763	1.229132	0.666708
N109	N	0.992226	-0.115013	0.230726
N110	N	1.325559	0.218320	0.564059
N111	N	1.658893	0.551653	0.897393
C112	C	0.986124	0.731445	0.000038
C113	C	1.319457	1.064779	0.333371
C114	C	1.652790	1.398112	0.666705
C115	C	0.987756	0.638195	0.000034
C116	C	1.321090	0.971529	0.333368
C117	C	1.654423	1.304862	0.666701
N118	N	0.992284	-0.114950	-0.230630
N119	N	1.325618	0.218383	0.102703
N120	N	1.658951	0.551716	0.436036
C121	C	0.932592	-0.174614	0.470402
C122	C	1.265925	0.158719	0.803735
C123	C	1.599258	0.492053	1.137068
C124	C	1.008493	-0.190919	0.529739
C125	C	1.341826	0.142414	0.863073
C126	C	1.675160	0.475747	1.196406
C127	C	0.992248	-0.114992	0.412333
C128	C	1.325581	0.218341	0.745666
C129	C	1.658914	0.551674	1.079000
C130	C	0.916367	-0.098706	0.529737
C131	C	1.249700	0.234627	0.863070
C132	C	1.583033	0.567961	1.196404
C133	C	0.992262	-0.114974	0.587757
C134	C	1.325595	0.218359	0.921090
C135	C	1.658928	0.551693	1.254424
C136	C	1.068187	-0.131335	0.470364
C137	C	1.401521	0.201998	0.803697
C138	C	1.734854	0.535331	1.137031
C139	C	0.976011	-0.039089	0.470356
C140	C	1.309344	0.294244	0.803690
C141	C	1.642678	0.627578	1.137023
C142	C	1.051967	-0.055362	0.529667
C143	C	1.385301	0.277972	0.863001
C144	C	1.718634	0.611305	1.196334
C145	C	0.992238	-0.115005	0.311276
C146	C	1.325572	0.218328	0.644609
C147	C	1.658905	0.551662	0.977942
C148	C	0.992279	-0.114961	0.688812
C149	C	1.325613	0.218373	1.022146
C150	C	1.658946	0.551706	1.355479
H151	H	0.525171	-0.263500	0.000125
H152	H	0.858504	0.069834	0.333458
H153	H	1.191837	0.403167	0.666791
H154	H	0.430321	-0.187783	0.134896
H155	H	0.763654	0.145550	0.468229
H156	H	1.096988	0.478884	0.801563
H157	H	0.430199	-0.187755	-0.134658
H158	H	0.763532	0.145579	0.198675
H159	H	1.096865	0.478912	0.532008
Cl160	Cl	0.570032	-0.023976	-0.168210
Cl161	Cl	0.903366	0.309357	0.165124
Cl162	Cl	1.236699	0.642691	0.498457
Cl163	Cl	0.809119	0.295255	0.000142
Cl164	Cl	1.142452	0.628588	0.333475
Cl165	Cl	1.475786	0.961922	0.666808
H166	H	0.917511	0.427790	0.134766
H167	H	1.250845	0.761124	0.468100
H168	H	1.584178	1.094457	0.801433
H169	H	1.066839	0.342336	0.134908
H170	H	1.400172	0.675670	0.468242
H171	H	1.733505	1.009003	0.801575
Cl172	Cl	1.175454	0.474521	0.000165
Cl173	Cl	1.508787	0.807854	0.333499
Cl174	Cl	1.842121	1.141187	0.666832
Cl175	Cl	1.085484	0.331258	-0.168219
Cl176	Cl	1.418818	0.664592	0.165114
Cl177	Cl	1.752151	0.997925	0.498448
H178	H	0.917557	0.427776	-0.134657
H179	H	1.250891	0.761109	0.198676
H180	H	1.584224	1.094442	0.532010
H181	H	0.882194	-0.225075	0.444380
H182	H	1.215527	0.108258	0.777713
H183	H	1.548860	0.441592	1.111046
H184	H	1.022239	-0.255101	0.555823
H185	H	1.355572	0.078232	0.889156
H186	H	1.688905	0.411566	1.222489
Cl187	Cl	0.450623	0.070443	0.000163
Cl188	Cl	0.783956	0.403777	0.333496
Cl189	Cl	1.117289	0.737110	0.666830
Cl190	Cl	1.167295	-0.152707	0.430274
Cl191	Cl	1.500628	0.180626	0.763607
Cl192	Cl	1.833962	0.513959	1.096940
H193	H	1.102477	-0.004931	0.555526
H194	H	1.435811	0.328403	0.888859
H195	H	1.769144	0.661736	1.222193
H196	H	0.554294	-0.042152	0.134774
H197	H	0.887627	0.291181	0.468108
H198	H	1.220961	0.624515	0.801441
H199	H	0.962242	0.025072	0.444252
H200	H	1.295575	0.358406	0.777586
H201	H	1.628908	0.691739	1.110919
H202	H	0.852190	-0.084939	0.555819
H203	H	1.185523	0.248394	0.889153
H204	H	1.518857	0.581728	1.222486
