data_functionalizedCrystal
_audit_creation_method	'MofGen! by Chris Wilmer'
_symmetry_space_group_name_H-M	'P1'
_symmetry_Int_Tables_number	1
_symmetry_cell_setting	triclinic
loop_
_symmetry_equiv_pos_as_xyz
  x,y,z
_cell_length_a	11.892095
_cell_length_b	10.654550
_cell_length_c	10.654550
_cell_angle_alpha	84.484931
_cell_angle_beta	93.927085
_cell_angle_gamma	86.066452
loop_
_atom_site_label
_atom_site_type_symbol
_atom_site_fract_x
_atom_site_fract_y
_atom_site_fract_z
O1	O	0.093918	-1.675794	-0.168447
O2	O	0.093939	-1.310318	-0.185251
O3	O	0.093921	-1.501458	0.005889
O4	O	0.093936	-1.484653	-0.359588
O5	O	-0.094085	-1.485521	-0.010023
O6	O	-0.094067	-1.294380	-0.201164
O7	O	-0.094088	-1.659857	-0.184359
Zn8	Zn	-0.123927	-1.474588	-0.195288
Zn9	Zn	0.123779	-1.495586	-0.174323
O10	O	-0.094070	-1.468716	-0.375500
C11	C	-0.000061	-1.255551	-0.191973
C12	C	-0.000054	-1.116109	-0.188281
N13	N	-0.292980	-1.460267	-0.209595
C14	C	-0.000081	-1.492256	0.044731
C15	C	-0.000079	-1.488564	0.184175
C16	C	-0.529642	-1.609571	-0.060376
C17	C	-0.647983	-1.599570	-0.070386
C18	C	-0.648005	-1.430258	-0.239618
C19	C	-0.529664	-1.440259	-0.229608
C20	C	-0.470487	-1.529920	-0.139986
C21	C	-0.352144	-1.539927	-0.129983
C22	C	-0.352168	-1.370609	-0.299208
C23	C	-0.470509	-1.360608	-0.309218
N24	N	0.292831	-1.509917	-0.160006
C25	C	-0.000085	-1.714624	-0.177637
C26	C	-0.000085	-1.854067	-0.181329
C27	C	-0.000052	-1.036623	-0.300822
C28	C	-0.000072	-0.905601	-0.297347
C29	C	-0.000090	-0.933562	-0.068779
C30	C	-0.000078	-1.064582	-0.072256
C31	C	-0.000065	-1.477919	-0.414342
C32	C	-0.000060	-1.481611	-0.553785
C33	C	-0.000085	-1.601105	0.263660
C34	C	-0.000071	-1.597630	0.394682
C35	C	-0.000050	-1.369062	0.366720
C36	C	-0.000056	-1.372539	0.235702
H37	H	-0.303962	-1.612936	-0.057011
C38	C	-0.000037	-1.093299	-0.428444
H39	H	-0.000049	-1.027189	-0.494971
H40	H	0.065529	-1.149375	-0.429005
H41	H	-0.065603	-1.138279	-0.440100
H42	H	-0.000102	-1.695580	0.221712
H43	H	-0.000117	-0.891592	0.025684
H44	H	-0.696144	-1.664428	-0.005559
C45	C	-0.000079	-1.152027	0.051542
H46	H	-0.000080	-1.237435	0.032850
H47	H	0.065477	-1.141851	0.104624
H48	H	-0.065655	-1.130753	0.093513
H49	H	-0.000074	-1.689273	0.459394
H50	H	-0.000033	-1.274598	0.408690
H51	H	-0.481459	-1.682585	0.012590
C52	C	-0.000053	-1.248738	0.148262
H53	H	-0.000055	-1.179139	0.197711
H54	H	0.065506	-1.250905	0.102112
H55	H	-0.065625	-1.239788	0.091029
C56	C	-0.535610	-1.261994	-0.407799
H57	H	-0.614562	-1.267450	-0.402366
H58	H	-0.516228	-1.179695	-0.391756
H59	H	-0.516212	-1.278020	-0.490107
H60	H	-0.696203	-1.357250	-0.312578
C61	C	-0.287095	-1.283003	-0.386796
H62	H	-0.208140	-1.301799	-0.368002
H63	H	-0.306497	-1.295747	-0.472376
H64	H	-0.306492	-1.197418	-0.374030
C65	C	-0.000062	-0.818172	-0.421142
H66	H	-0.000037	-0.867630	-0.490734
H67	H	-0.065628	-0.760934	-0.430097
H68	H	0.065504	-0.772029	-0.418979
