data_functionalizedCrystal
_audit_creation_method	'MofGen! by Chris Wilmer'
_symmetry_space_group_name_H-M	'P1'
_symmetry_Int_Tables_number	1
_symmetry_cell_setting	triclinic
loop_
_symmetry_equiv_pos_as_xyz
  x,y,z
_cell_length_a	27.731994
_cell_length_b	27.732048
_cell_length_c	26.809956
_cell_angle_alpha	89.988846
_cell_angle_beta	90.017800
_cell_angle_gamma	97.368405
loop_
_atom_site_label
_atom_site_type_symbol
_atom_site_fract_x
_atom_site_fract_y
_atom_site_fract_z
O1	O	0.640958	-0.057391	0.041414
O2	O	1.140958	0.442609	0.541414
O3	O	0.500161	-0.066164	0.041431
O4	O	1.000161	0.433836	0.541431
O5	O	0.574932	0.008620	0.041412
O6	O	1.074932	0.508620	0.541412
O7	O	0.566187	-0.132176	0.041432
O8	O	1.066187	0.367824	0.541432
O9	O	0.574899	0.008620	-0.041547
O10	O	1.074899	0.508620	0.458453
O11	O	0.500127	-0.066164	-0.041528
O12	O	1.000127	0.433836	0.458472
O13	O	0.640924	-0.057391	-0.041545
O14	O	1.140924	0.442609	0.458455
Zn15	Zn	0.570520	-0.061777	-0.054708
Zn16	Zn	1.070520	0.438223	0.445292
Zn17	Zn	0.570565	-0.061778	0.054594
Zn18	Zn	1.070565	0.438222	0.554594
O19	O	0.566153	-0.132175	-0.041527
O20	O	1.066153	0.367825	0.458473
C21	C	0.482137	-0.065984	-0.000046
C22	C	0.982137	0.434016	0.499954
C23	C	0.428480	-0.065442	-0.000040
C24	C	0.928480	0.434558	0.499960
C25	C	0.095743	-0.062025	-0.045281
C26	C	0.595743	0.437975	0.454719
C27	C	-0.105915	-0.059964	-0.045287
C28	C	0.394085	0.440036	0.454713
O29	O	-0.132003	-0.059676	-0.083746
O30	O	0.367997	0.440324	0.416254
N31	N	-0.131111	-0.059708	-0.000066
N32	N	0.368889	0.440292	0.499934
C33	C	-0.105890	-0.059965	0.045160
C34	C	0.394110	0.440035	0.545160
O35	O	-0.131947	-0.059695	0.083623
O36	O	0.368053	0.440305	0.583623
C37	C	0.095768	-0.062023	0.045165
C38	C	0.595768	0.437977	0.545165
C39	C	0.120961	-0.062283	-0.000059
C40	C	0.620961	0.437717	0.499941
C41	C	0.120937	-0.062285	-0.090501
C42	C	0.620937	0.437715	0.409499
C43	C	0.171348	-0.062803	-0.090499
C44	C	0.671348	0.437197	0.409501
C45	C	0.196566	-0.063061	-0.045277
C46	C	0.696566	0.436939	0.454723
C47	C	0.171372	-0.062801	-0.000057
C48	C	0.671372	0.437199	0.499943
C49	C	0.120989	-0.062276	0.090390
C50	C	0.620989	0.437724	0.590390
C51	C	0.171407	-0.062789	0.090388
C52	C	0.671407	0.437211	0.590388
C53	C	0.196600	-0.063050	0.045164
C54	C	0.696600	0.436950	0.545164
C55	C	0.247001	-0.063578	0.045167
C56	C	0.747001	0.436422	0.545167
N57	N	0.272198	-0.063833	-0.000054
N58	N	0.772198	0.436167	0.499946
C59	C	0.246980	-0.063575	-0.045276
C60	C	0.746980	0.436425	0.454724
C61	C	-0.211763	-0.058885	0.045154
C62	C	0.288237	0.441115	0.545154
C63	C	-0.262177	-0.058372	0.045152
C64	C	0.237823	0.441628	0.545152
C65	C	-0.262199	-0.058370	-0.045294
C66	C	0.237801	0.441630	0.454706
C67	C	-0.211784	-0.058887	-0.045293
C68	C	0.288216	0.441113	0.454707
C69	C	-0.186567	-0.059141	-0.000067
C70	C	0.313433	0.440859	0.499933
C71	C	0.352847	-0.064663	-0.045268
C72	C	0.852847	0.435337	0.454732
C73	C	0.403262	-0.065184	-0.045262
C74	C	0.903262	0.434816	0.454738
C75	C	0.403280	-0.065183	0.045184
C76	C	0.903280	0.434817	0.545184
C77	C	0.352869	-0.064665	0.045179
C78	C	0.852869	0.435335	0.545179
C79	C	0.327654	-0.064404	-0.000052
C80	C	0.827654	0.435596	0.499948
O81	O	0.273121	-0.063860	0.083606
O82	O	0.773121	0.436140	0.583606
O83	O	0.273048	-0.063834	-0.083733
O84	O	0.773048	0.436166	0.416267
C85	C	0.045332	-0.061507	-0.045283
C86	C	0.545332	0.438493	0.454717
C87	C	0.020139	-0.061247	-0.000063
C88	C	0.520139	0.438753	0.499937
C89	C	0.045357	-0.061505	0.045160
C90	C	0.545357	0.438495	0.545160
C91	C	-0.030275	-0.060734	-0.000064
C92	C	0.469725	0.439266	0.499936
C93	C	-0.055493	-0.060476	-0.045286
C94	C	0.444507	0.439524	0.454714
C95	C	-0.030297	-0.060731	-0.090507
C96	C	0.469703	0.439269	0.409493
C97	C	0.020114	-0.061249	-0.090505
C98	C	0.520114	0.438751	0.409495
C99	C	0.020160	-0.061250	0.090381
C100	C	0.520160	0.438750	0.590381
C101	C	-0.030251	-0.060732	0.090375
C102	C	0.469749	0.439268	0.590375
C103	C	-0.055469	-0.060474	0.045153
C104	C	0.444531	0.439526	0.545153
C105	C	0.574732	0.026627	-0.000069
C106	C	1.074732	0.526627	0.499931
C107	C	0.574179	0.080282	-0.000073
C108	C	1.074179	0.580282	0.499927
C109	C	0.658949	-0.057571	-0.000067
C110	C	1.158949	0.442429	0.499933
C111	C	0.712605	-0.058114	-0.000070
C112	C	1.212605	0.441886	0.499930
N113	N	0.570494	-0.061776	-0.129304
N114	N	1.070494	0.438224	0.370696
C115	C	0.566353	-0.150182	-0.000045
C116	C	1.066353	0.349818	0.499955
C117	C	0.566906	-0.203837	-0.000037
C118	C	1.066906	0.296163	0.499963
C119	C	0.614884	0.419105	-0.000052
C120	C	1.114884	0.919105	0.499948
C121	C	0.612833	0.620764	-0.000045
C122	C	1.112833	1.120764	0.499955
O123	O	0.650055	0.652027	-0.000028
O124	O	1.150055	1.152027	0.499972
N125	N	0.568496	0.639879	-0.000040
N126	N	1.068496	1.139879	0.499960
C127	C	0.524670	0.608576	-0.000033
C128	C	1.024670	1.108576	0.499967
O129	O	0.486912	0.629462	-0.000024
O130	O	0.986912	1.129462	0.499976
C131	C	0.526721	0.406918	-0.000037
C132	C	1.026721	0.906918	0.499963
C133	C	0.571060	0.387805	-0.000047
C134	C	1.071060	0.887805	0.499953
C135	C	0.659220	0.399992	-0.000061
C136	C	1.159220	0.899992	0.499939
C137	C	0.659732	0.349580	-0.000066
C138	C	1.159732	0.849580	0.499934
C139	C	0.615908	0.318281	-0.000061
C140	C	1.115908	0.818281	0.499939
C141	C	0.571573	0.337394	-0.000052
C142	C	1.071573	0.837394	0.499948
C143	C	0.482895	0.375615	-0.000027
C144	C	0.982895	0.875615	0.499973
C145	C	0.483412	0.325198	-0.000027
C146	C	0.983412	0.825198	0.499973
C147	C	0.527751	0.306086	-0.000037
C148	C	1.027751	0.806086	0.499963
C149	C	0.528262	0.255683	-0.000051
C150	C	1.028262	0.755683	0.499949
N151	N	0.572598	0.236567	-0.000056
N152	N	1.072598	0.736567	0.499944
C153	C	0.616421	0.267867	-0.000061
C154	C	1.116421	0.767867	0.499939
C155	C	0.523596	0.714450	-0.000032
C156	C	1.023596	1.214450	0.499968
C157	C	0.523083	0.764864	-0.000032
C158	C	1.023083	1.264864	0.499968
C159	C	0.611246	0.777049	-0.000043
C160	C	1.111246	1.277049	0.499957
C161	C	0.611759	0.726633	-0.000047
C162	C	1.111759	1.226633	0.499953
C163	C	0.567932	0.695335	-0.000037
C164	C	1.067932	1.195335	0.499963
C165	C	0.617494	0.161998	-0.000071
C166	C	1.117494	0.661998	0.499929
C167	C	0.618002	0.111581	-0.000078
C168	C	1.118002	0.611581	0.499922
C169	C	0.529839	0.099401	-0.000064
C170	C	1.029839	0.599401	0.499936
C171	C	0.529331	0.149813	-0.000060
C172	C	1.029331	0.649813	0.499940
C173	C	0.573162	0.181111	-0.000062
C174	C	1.073162	0.681111	0.499938
O175	O	0.491060	0.224391	-0.000063
O176	O	0.991060	0.724391	0.499937
O177	O	0.654174	0.246971	-0.000060
O178	O	1.154174	0.746971	0.499940
C179	C	0.614372	0.469517	-0.000047
C180	C	1.114372	0.969517	0.499953
C181	C	0.570036	0.488629	-0.000038
C182	C	1.070036	0.988629	0.499962
C183	C	0.526213	0.457330	-0.000033
C184	C	1.026213	0.957330	0.499967
C185	C	0.569523	0.539043	-0.000038
C186	C	1.069523	1.039043	0.499962
C187	C	0.613346	0.570343	-0.000043
C188	C	1.113346	1.070343	0.499957
C189	C	0.657683	0.551228	-0.000048
C190	C	1.157683	1.051228	0.499952
C191	C	0.658195	0.500816	-0.000052
C192	C	1.158195	1.000816	0.499948
C193	C	0.481876	0.476445	-0.000028
C194	C	0.981876	0.976445	0.499972
C195	C	0.481367	0.526857	-0.000024
C196	C	0.981367	1.026857	0.499976
C197	C	0.525191	0.558157	-0.000029
C198	C	1.025191	1.058157	0.499971
C199	C	0.537423	-0.094877	-0.526179
C200	C	1.037423	0.405123	-0.026179
C201	C	0.537398	-0.094877	-0.317302
C202	C	1.037398	0.405123	0.182698
O203	O	0.509219	-0.123016	-0.290294
O204	O	1.009219	0.376984	0.209706
N205	N	0.570510	-0.061774	-0.291183
N206	N	1.070510	0.438226	0.208817
C207	C	0.603630	-0.028667	-0.317287
C208	C	1.103630	0.471333	0.182713
O209	O	0.631790	-0.000508	-0.290278
O210	O	1.131790	0.499492	0.209722
C211	C	0.603652	-0.028665	-0.526163
C212	C	1.103652	0.471335	-0.026163
C213	C	0.570541	-0.061773	-0.552280
C214	C	1.070541	0.438227	-0.052280
C215	C	0.504313	-0.127982	-0.552296
C216	C	1.004313	0.372018	-0.052296
C217	C	0.504322	-0.127983	-0.604512
C218	C	1.004322	0.372017	-0.104512
C219	C	0.537440	-0.094880	-0.630612
C220	C	1.037440	0.405120	-0.130612
C221	C	0.570549	-0.061775	-0.604496
C222	C	1.070549	0.438225	-0.104496
C223	C	0.636769	0.004444	-0.552266
C224	C	1.136769	0.504444	-0.052266
C225	C	0.636771	0.004442	-0.604489
C226	C	1.136771	0.504442	-0.104489
C227	C	0.603659	-0.028666	-0.630605
C228	C	1.103659	0.471334	-0.130605
C229	C	0.603675	-0.028672	-0.682812
C230	C	1.103675	0.471328	-0.182812
N231	N	0.570562	-0.061775	-0.708931
N232	N	1.070562	0.438225	-0.208931
C233	C	0.537445	-0.094879	-0.682831
C234	C	1.037445	0.405121	-0.182831
C235	C	0.603616	-0.028671	-0.207623
C236	C	1.103616	0.471329	0.292377
C237	C	0.603611	-0.028672	-0.155405
C238	C	1.103611	0.471328	0.344595
C239	C	0.537378	-0.094882	-0.155423
C240	C	1.037378	0.405118	0.344577
C241	C	0.537386	-0.094883	-0.207643
C242	C	1.037386	0.405117	0.292357
C243	C	0.570503	-0.061774	-0.233742
C244	C	1.070503	0.438226	0.266258
C245	C	0.537465	-0.094879	-0.792489
C246	C	1.037465	0.405121	-0.292489
C247	C	0.537478	-0.094879	-0.844710
C248	C	1.037478	0.405121	-0.344710
C249	C	0.603709	-0.028668	-0.844687
C250	C	1.103709	0.471332	-0.344687
C251	C	0.603698	-0.028670	-0.792470
C252	C	1.103698	0.471330	-0.292470
C253	C	0.570572	-0.061777	-0.766373
C254	C	1.070572	0.438223	-0.266373
O255	O	0.631836	-0.000545	-0.709852
O256	O	1.131836	0.499455	-0.209852
O257	O	0.509281	-0.123026	-0.709848
O258	O	1.009281	0.376974	-0.209848
C259	C	0.537414	-0.094875	-0.473963
C260	C	1.037414	0.405125	0.026037
C261	C	0.570524	-0.061770	-0.447847
C262	C	1.070524	0.438230	0.052153
C263	C	0.603642	-0.028667	-0.473947
C264	C	1.103642	0.471333	0.026053
C265	C	0.570519	-0.061771	-0.395628
C266	C	1.070519	0.438229	0.104372
C267	C	0.537401	-0.094875	-0.369528
C268	C	1.037401	0.405125	0.130472
C269	C	0.504288	-0.127978	-0.395647
C270	C	1.004288	0.372022	0.104353
C271	C	0.504297	-0.127979	-0.447863
C272	C	1.004297	0.372021	0.052137
C273	C	0.636755	0.004436	-0.447828
C274	C	1.136755	0.504436	0.052172
C275	C	0.636744	0.004434	-0.395612
C276	C	1.136744	0.504434	0.104388
C277	C	0.603626	-0.028669	-0.369512
C278	C	1.103626	0.471331	0.130488
N279	N	0.570595	-0.061775	0.129190
N280	N	1.070595	0.438225	0.629190
H281	H	0.332322	-0.064455	-0.082099
H282	H	0.832322	0.435545	0.417901
H283	H	0.693365	0.576720	-0.000054
H284	H	1.193365	1.076720	0.499946
H285	H	0.477358	-0.154941	-0.625773
H286	H	0.977358	0.345059	-0.125773
H287	H	0.654110	0.096023	-0.000087
H288	H	1.154110	0.596023	0.499913
H289	H	0.694301	0.485260	-0.000060
H290	H	1.194301	0.985260	0.499940
H291	H	-0.191235	-0.059092	0.081984
H292	H	0.308765	0.440908	0.581984
H293	H	0.630579	-0.001718	-0.134144
H294	H	1.130579	0.498282	0.365856
H295	H	0.100486	-0.062063	0.127217
H296	H	0.600486	0.437937	0.627217
H297	H	0.494160	0.073908	-0.000062
H298	H	0.994160	0.573908	0.499938
H299	H	0.446789	0.391167	-0.000016
H300	H	0.946789	0.891167	0.499984
H301	H	0.191937	-0.062997	0.127217
H302	H	0.691937	0.437003	0.627217
H303	H	0.663723	0.031394	-0.469075
H304	H	1.163723	0.531394	0.030925
H305	H	-0.050838	-0.060524	-0.127329
H306	H	0.449162	0.439476	0.372671
H307	H	0.477343	-0.154939	-0.531049
H308	H	0.977343	0.345061	-0.031049
H309	H	0.630665	-0.001715	-0.771206
H310	H	1.130665	0.498285	-0.271206
H311	H	0.630586	-0.001710	-0.228870
H312	H	1.130586	0.498290	0.271130
H313	H	0.663731	0.031404	-0.531010
H314	H	1.163731	0.531404	-0.031010
H315	H	0.510423	-0.121842	-0.228904
H316	H	1.010423	0.378158	0.271096
H317	H	0.510413	-0.121837	-0.134164
H318	H	1.010413	0.378163	0.365836
H319	H	0.630674	-0.001717	-0.865946
H320	H	1.130674	0.498283	-0.365946
H321	H	0.510490	-0.121838	-0.771246
H322	H	1.010490	0.378162	-0.271246
H323	H	0.663739	0.031405	-0.625736
H324	H	1.163739	0.531405	-0.125736
H325	H	0.647863	0.711076	-0.000054
H326	H	1.147863	1.211076	0.499946
H327	H	0.332354	-0.064461	0.082004
H328	H	0.832354	0.435539	0.582004
H329	H	0.040688	-0.061459	0.127207
H330	H	0.540688	0.438541	0.627207
H331	H	0.445258	0.542413	-0.000020
H332	H	0.945258	1.042413	0.499980
H333	H	0.493226	0.165375	-0.000066
H334	H	0.993226	0.665375	0.499934
H335	H	0.447722	0.299716	-0.000018
H336	H	0.947722	0.799716	0.499982
H337	H	0.446189	0.450966	-0.000023
H338	H	0.946189	0.950966	0.499977
H339	H	0.510514	-0.121841	-0.865972
H340	H	1.010514	0.378159	-0.365972
H341	H	0.477334	-0.154939	-0.469123
H342	H	0.977334	0.345061	0.030877
H343	H	0.477324	-0.154934	-0.374387
H344	H	0.977324	0.345066	0.125613
H345	H	0.663712	0.031394	-0.374352
H346	H	1.163712	0.531394	0.125648
H347	H	0.423772	-0.065397	-0.082091
H348	H	0.923772	0.434603	0.417909
H349	H	0.191856	-0.063013	-0.127325
H350	H	0.691856	0.436987	0.372675
H351	H	0.646929	0.802541	-0.000047
H352	H	1.146929	1.302541	0.499953
H353	H	-0.191275	-0.059099	-0.082118
H354	H	0.308725	0.440901	0.417882
H355	H	0.100410	-0.062074	-0.127329
H356	H	0.600410	0.437926	0.372671
H357	H	-0.282740	-0.058161	-0.082116
H358	H	0.217260	0.441839	0.417884
H359	H	-0.282686	-0.058167	0.081978
H360	H	0.217314	0.441833	0.581978
H361	H	0.486977	0.780420	-0.000033
H362	H	0.986977	1.280420	0.499967
H363	H	0.423821	-0.065395	0.082003
H364	H	0.923821	0.434605	0.582003
H365	H	0.653186	0.187475	-0.000070
H366	H	1.153186	0.687475	0.499930
H367	H	0.040622	-0.061461	-0.127331
H368	H	0.540622	0.438539	0.372669
H369	H	-0.050759	-0.060524	0.127205
H370	H	0.449241	0.439476	0.627205
H371	H	0.694908	0.425472	-0.000064
H372	H	1.194908	0.925472	0.499936
H373	H	0.487905	0.688970	-0.000025
H374	H	0.987905	1.188970	0.499975
H375	H	0.695837	0.334024	-0.000072
H376	H	1.195837	0.834024	0.499928
