data_functionalizedCrystal
_audit_creation_method	'MofGen! by Chris Wilmer'
_symmetry_space_group_name_H-M	'P1'
_symmetry_Int_Tables_number	1
_symmetry_cell_setting	triclinic
loop_
_symmetry_equiv_pos_as_xyz
  x,y,z
_cell_length_a	10.723023
_cell_length_b	10.723024
_cell_length_c	16.053802
_cell_angle_alpha	92.591250
_cell_angle_beta	87.394764
_cell_angle_gamma	84.467709
loop_
_atom_site_label
_atom_site_type_symbol
_atom_site_fract_x
_atom_site_fract_y
_atom_site_fract_z
O1	O	1.662408	0.169814	-0.069418
O2	O	1.299256	0.186568	-0.069422
O3	O	1.489208	-0.003385	-0.069417
O4	O	1.472455	0.359767	-0.069423
O5	O	1.478752	0.007027	0.069442
O6	O	1.288800	0.196980	0.069437
O7	O	1.651952	0.180226	0.069440
Zn8	Zn	1.468716	0.190257	0.091485
Zn9	Zn	1.482492	0.176538	-0.091467
O10	O	1.461999	0.370179	0.069435
C11	C	1.247528	0.190555	0.000007
C12	C	1.108974	0.186908	0.000006
C13	C	1.041785	0.190676	0.071938
C14	C	0.898582	0.186906	0.071938
C15	C	1.482761	-0.044678	0.000011
C16	C	1.479114	-0.183233	0.000008
C17	C	1.585401	-0.258216	0.000008
C18	C	1.581634	-0.401419	0.000005
C19	C	1.703680	0.176239	0.000009
C20	C	1.842234	0.179886	0.000005
C21	C	1.468447	0.411473	0.000005
C22	C	1.472095	0.550027	0.000003
N23	N	1.459323	0.199618	0.216345
N24	N	1.491894	0.167167	-0.216327
C25	C	1.540178	0.118822	0.260041
C26	C	1.533620	0.125383	0.347448
C27	C	1.446211	0.212746	0.391157
C28	C	1.365347	0.293546	0.347455
C29	C	1.371901	0.286978	0.260050
C30	C	1.417584	0.241399	0.652566
C31	C	1.411039	0.247963	0.739977
C32	C	1.579311	0.079797	0.739964
C33	C	1.585862	0.073243	0.652557
C34	C	1.504993	0.154038	0.608863
N35	N	1.439508	0.219457	0.480501
N36	N	1.511692	0.147320	0.519521
H37	H	1.090281	0.196685	0.133522
H38	H	0.840822	0.190132	0.133522
O39	O	1.625167	0.034099	0.217530
C40	C	1.706503	0.097781	0.166911
H41	H	1.707556	0.198186	0.193239
H42	H	1.805305	0.047636	0.165876
H43	H	1.672420	0.099017	0.100686
O44	O	1.697363	-0.208477	0.000118
C45	C	1.760228	-0.243247	0.072044
H46	H	1.723766	-0.332073	0.096022
H47	H	1.865221	-0.261502	0.055867
H48	H	1.742533	-0.164283	0.122401
H49	H	1.306059	0.352770	0.224473
O50	O	1.051337	0.179678	-0.073542
C51	C	1.141608	0.176943	-0.140425
H52	H	1.237614	0.141605	-0.118315
H53	H	1.115279	0.111508	-0.193334
H54	H	1.144927	0.275502	-0.163710
O55	O	0.911236	0.176220	-0.073418
C56	C	0.973649	0.285773	-0.077894
H57	H	0.983673	0.327182	-0.012157
H58	H	1.070633	0.261526	-0.109850
H59	H	0.917114	0.357196	-0.115293
H60	H	1.351740	0.307188	0.616997
H61	H	1.385328	-0.225055	0.000002
H62	H	1.294171	0.364675	0.383048
H63	H	1.672624	-0.465852	0.000009
O64	O	1.363457	-0.373258	-0.000109
C65	C	1.298931	-0.401885	-0.072039
H66	H	1.330417	-0.502182	-0.096017
H67	H	1.193709	-0.392280	-0.055867
H68	H	1.320489	-0.334345	-0.122395
O69	O	1.612131	0.046728	0.389798
C70	C	1.592397	-0.078601	0.368468
H71	H	1.549046	-0.083658	0.305016
H72	H	1.685908	-0.139408	0.365461
H73	H	1.526283	-0.114081	0.417676
O74	O	1.670803	-0.011738	0.610230
C75	C	1.740785	-0.081625	0.667542
H76	H	1.684942	-0.078824	0.729855
H77	H	1.760868	-0.183008	0.642293
H78	H	1.833132	-0.039559	0.676820
H79	H	1.645148	0.014016	0.775548
O80	O	1.326002	0.332856	0.782308
C81	C	1.256045	0.402776	0.725001
H82	H	1.258878	0.346923	0.662698
H83	H	1.154657	0.422777	0.750271
H84	H	1.298027	0.495164	0.715694
