data_functionalizedCrystal
_audit_creation_method	'MofGen! by Chris Wilmer'
_symmetry_space_group_name_H-M	'P1'
_symmetry_Int_Tables_number	1
_symmetry_cell_setting	triclinic
loop_
_symmetry_equiv_pos_as_xyz
  x,y,z
_cell_length_a	16.956984
_cell_length_b	27.732048
_cell_length_c	16.053802
_cell_angle_alpha	92.539157
_cell_angle_beta	87.610701
_cell_angle_gamma	79.348037
loop_
_atom_site_label
_atom_site_type_symbol
_atom_site_fract_x
_atom_site_fract_y
_atom_site_fract_z
O1	O	1.061184	0.017866	-0.069436
O2	O	1.561184	0.517866	0.430564
O3	O	0.828817	0.034845	-0.069439
O4	O	1.328817	0.534845	0.430561
O5	O	0.952216	-0.044297	-0.069421
O6	O	1.452216	0.455703	0.430579
O7	O	0.937784	0.097007	-0.069453
O8	O	1.437784	0.597007	0.430547
O9	O	0.945424	-0.039957	0.069437
O10	O	1.445424	0.460043	0.569437
O11	O	0.822025	0.039184	0.069419
O12	O	1.322025	0.539184	0.569419
O13	O	1.054392	0.022205	0.069422
O14	O	1.554392	0.522205	0.569422
Zn15	Zn	0.937130	0.031384	0.091467
Zn16	Zn	1.437130	0.531384	0.591467
Zn17	Zn	0.946079	0.025666	-0.091484
Zn18	Zn	1.446079	0.525666	0.408516
O19	O	0.930992	0.101347	0.069405
O20	O	1.430992	0.601347	0.569405
C21	C	0.795702	0.037884	-0.000010
C22	C	1.295702	0.537884	0.499990
C23	C	0.707150	0.040469	-0.000011
C24	C	1.207150	0.540469	0.499989
C25	C	0.948517	-0.060123	0.000010
C26	C	1.448517	0.439877	0.500010
C27	C	0.947604	-0.113745	0.000017
C28	C	1.447604	0.386255	0.500017
C29	C	0.675597	-0.002750	0.000000
C30	C	1.175597	0.497250	0.500000
C31	C	0.592392	-0.000318	-0.000006
C32	C	1.092392	0.499682	0.499994
C33	C	0.540741	0.045332	-0.000018
C34	C	1.040741	0.545332	0.499982
C35	C	0.572298	0.088554	-0.000032
C36	C	1.072298	0.588554	0.499968
C37	C	0.655502	0.086122	-0.000031
C38	C	1.155502	0.586122	0.499969
C39	C	0.290820	0.057371	-0.000027
C40	C	0.790820	0.557371	0.499973
C41	C	0.207611	0.059800	-0.000025
C42	C	0.707611	0.559800	0.499975
C43	C	0.227711	-0.029073	-0.000000
C44	C	0.727711	0.470927	0.500000
C45	C	0.310916	-0.031501	0.000005
C46	C	0.810916	0.468499	0.500005
C47	C	0.342466	0.011721	-0.000013
C48	C	0.842466	0.511721	0.499987
N49	N	0.455692	0.047819	-0.000022
N50	N	0.955692	0.547819	0.499978
N51	N	0.427514	0.009233	-0.000015
N52	N	0.927514	0.509233	0.499985
C53	C	1.014784	-0.454942	-0.000025
C54	C	1.514784	0.045058	0.499975
C55	C	1.011400	-0.656482	-0.000037
C56	C	1.511400	-0.156482	0.499963
O57	O	1.072831	-0.689915	-0.000073
O58	O	1.572831	-0.189915	0.499927
N59	N	0.938229	-0.673013	-0.000037
N60	N	1.438229	-0.173013	0.499963
C61	C	0.865899	-0.639156	-0.000040
C62	C	1.365899	-0.139156	0.499960
O63	O	0.803585	-0.657841	-0.000049
O64	O	1.303585	-0.157841	0.499951
C65	C	0.869284	-0.437617	-0.000034
C66	C	1.369284	0.062383	0.499966
C67	C	0.942460	-0.421089	-0.000026
C68	C	1.442460	0.078911	0.499974
C69	C	1.087954	-0.438413	-0.000017
C70	C	1.587954	0.061587	0.499983
C71	C	1.088799	-0.388031	-0.000010
C72	C	1.588799	0.111969	0.499990
C73	C	1.016475	-0.354178	-0.000010
C74	C	1.516475	0.145822	0.499990
C75	C	0.943305	-0.370706	-0.000018
C76	C	1.443305	0.129294	0.499982
C77	C	0.796955	-0.403761	-0.000043
C78	C	1.296955	0.096239	0.499957
C79	C	0.797808	-0.353374	-0.000044
C80	C	1.297808	0.146626	0.499956
C81	C	0.870984	-0.336845	-0.000035
C82	C	1.370984	0.163155	0.499965
C83	C	0.871825	-0.286471	-0.000011
C84	C	1.371825	0.213529	0.499989
N85	N	0.944997	-0.269940	-0.000011
N86	N	1.444997	0.230060	0.499989
C87	C	1.017321	-0.303793	-0.000010
C88	C	1.517321	0.196207	0.499990
C89	C	0.864126	-0.744967	-0.000041
C90	C	1.364126	-0.244967	0.499959
C91	C	0.863280	-0.795351	-0.000041
C92	C	1.363280	-0.295351	0.499959
C93	C	1.008781	-0.812674	-0.000040
C94	C	1.508781	-0.312674	0.499960
C95	C	1.009627	-0.762289	-0.000034
C96	C	1.509627	-0.262289	0.499966
C97	C	0.937298	-0.728436	-0.000041
C98	C	1.437298	-0.228436	0.499959
C99	C	1.019091	-0.197986	0.000006
C100	C	1.519091	0.302014	0.500006
C101	C	1.019929	-0.147599	0.000017
C102	C	1.519929	0.352401	0.500017
C103	C	0.874428	-0.130280	0.000011
C104	C	1.374428	0.369720	0.500011
C105	C	0.873589	-0.180663	0.000005
C106	C	1.373589	0.319337	0.500005
C107	C	0.945927	-0.214516	-0.000001
C108	C	1.445927	0.285484	0.499999
O109	O	0.810428	-0.253011	0.000015
O110	O	1.310428	0.246989	0.500015
O111	O	1.079627	-0.285098	-0.000020
O112	O	1.579627	0.214902	0.499980
C113	C	1.013939	-0.505324	-0.000033
C114	C	1.513939	-0.005324	0.499967
C115	C	0.940770	-0.521853	-0.000040
C116	C	1.440770	-0.021853	0.499960
C117	C	0.868445	-0.488000	-0.000041
C118	C	1.368445	0.012000	0.499959
C119	C	0.939923	-0.572238	-0.000040
C120	C	1.439923	-0.072238	0.499960
C121	C	1.012248	-0.606091	-0.000040
C122	C	1.512248	-0.106091	0.499960
C123	C	1.085419	-0.589560	-0.000040
C124	C	1.585419	-0.089560	0.499960
C125	C	1.086264	-0.539177	-0.000032
C126	C	1.586264	-0.039177	0.499968
C127	C	0.795274	-0.504531	-0.000041
C128	C	1.295274	-0.004531	0.499959
C129	C	0.794435	-0.554914	-0.000048
C130	C	1.294435	-0.054914	0.499952
C131	C	0.866759	-0.588767	-0.000047
C132	C	1.366759	-0.088767	0.499953
C133	C	1.087506	0.019166	-0.000008
C134	C	1.587506	0.519166	0.499992
C135	C	1.176059	0.016581	-0.000013
C136	C	1.676059	0.516581	0.499987
C137	C	0.934691	0.117173	-0.000029
C138	C	1.434691	0.617173	0.499971
C139	C	0.935604	0.170795	-0.000041
C140	C	1.435604	0.670795	0.499959
N141	N	0.931028	0.035285	0.216327
N142	N	1.431028	0.535285	0.716327
N143	N	0.952186	0.021761	-0.216344
N144	N	1.452186	0.521761	0.283656
C145	C	0.983554	0.001621	0.260028
C146	C	1.483554	0.501621	0.760028
C147	C	0.979293	0.004354	0.347434
C148	C	1.479293	0.504354	0.847434
C149	C	0.922510	0.040754	0.391137
C150	C	1.422510	0.540754	0.891137
C151	C	0.869979	0.074420	0.347430
C152	C	1.369979	0.574420	0.847430
C153	C	0.874237	0.071684	0.260025
C154	C	1.374237	0.571684	0.760025
C155	C	0.903913	0.052691	0.652544
C156	C	1.403913	0.552691	1.152544
C157	C	0.899661	0.055425	0.739955
C158	C	1.399661	0.555425	1.239955
C159	C	1.008974	-0.014642	0.739953
C160	C	1.508974	0.485358	1.239953
C161	C	1.013230	-0.017372	0.652547
C162	C	1.513230	0.482628	1.152547
C163	C	0.960696	0.016292	0.608847
C164	C	1.460696	0.516292	1.108847
N165	N	0.918155	0.043550	0.480481
N166	N	1.418155	0.543550	0.980481
N167	N	0.965048	0.013494	0.519506
N168	N	1.465048	0.513494	1.019506
H169	H	0.717647	-0.039923	0.000014
H170	H	1.217647	0.460077	0.500014
C171	C	0.718246	-0.316136	-0.000051
C172	C	1.218246	0.183864	0.499949
H173	H	0.729224	-0.283760	-0.000053
H174	H	1.229224	0.216240	0.499947
H175	H	0.685844	-0.319327	0.048367
H176	H	1.185844	0.180673	0.548367
H177	H	0.690592	-0.322345	-0.048485
H178	H	1.190592	0.177655	0.451515
C179	C	0.557684	-0.047857	-0.000000
C180	C	1.057684	0.452143	0.500000
H181	H	0.500735	-0.039873	-0.000015
H182	H	1.000735	0.460127	0.499985
H183	H	0.573076	-0.065002	0.048426
H184	H	1.073076	0.434998	0.548426
H185	H	0.577823	-0.068024	-0.048426
H186	H	1.077823	0.431976	0.451574
H187	H	1.029796	-0.028018	0.224451
H188	H	1.529796	0.471982	0.724451
H189	H	0.831464	0.099097	0.224444
H190	H	1.331464	0.599097	0.724444
C191	C	1.090119	-0.744112	-0.000032
C192	C	1.590119	-0.244112	0.499968
H193	H	1.133068	-0.771494	-0.000036
H194	H	1.633068	-0.271494	0.499964
H195	H	1.091110	-0.723307	0.048388
H196	H	1.591110	-0.223307	0.548388
H197	H	1.095845	-0.726330	-0.048463
H198	H	1.595845	-0.226330	0.451537
C199	C	0.716461	-0.421931	-0.000060
C200	C	1.216461	0.078069	0.499940
H201	H	0.673517	-0.394547	-0.000071
H202	H	1.173517	0.105453	0.499929
H203	H	0.710723	-0.439717	0.048359
H204	H	1.210723	0.060283	0.548359
H205	H	0.715477	-0.442732	-0.048493
H206	H	1.215477	0.057268	0.451507
C207	C	0.150792	0.110016	-0.000037
C208	C	0.650792	0.610016	0.499963
H209	H	0.096721	0.105273	-0.000024
H210	H	0.596721	0.605273	0.499976
H211	H	0.162661	0.126363	-0.048465
H212	H	0.662661	0.626363	0.451535
H213	H	0.157933	0.129388	0.048386
H214	H	0.657933	0.629388	0.548386
H215	H	0.861139	0.080103	0.616971
H216	H	1.361139	0.580103	1.116971
C217	C	1.075687	-0.057415	0.604480
C218	C	1.575687	0.442585	1.104480
H219	H	1.106355	-0.077076	0.643026
H220	H	1.606355	0.422924	1.143026
H221	H	1.110340	-0.042402	0.570366
H222	H	1.610340	0.457598	1.070366
H223	H	1.048892	-0.077478	0.570401
H224	H	1.548892	0.422522	1.070401
H225	H	0.352965	-0.068674	0.000018
H226	H	0.852965	0.431326	0.500018
C227	C	1.066751	-0.051674	0.788021
C228	C	1.566751	0.448326	1.288021
H229	H	1.101180	-0.073742	0.749474
H230	H	1.601180	0.426258	1.249474
H231	H	1.036641	-0.069601	0.822132
H232	H	1.536641	0.430399	1.322132
H233	H	1.098088	-0.034525	0.822102
H234	H	1.598088	0.465475	1.322102
H235	H	0.853419	0.085069	0.775534
H236	H	1.353419	0.585069	1.275534
H237	H	1.022063	-0.023058	0.383016
H238	H	1.522063	0.476942	0.883016
H239	H	0.202014	-0.064261	0.000005
H240	H	0.702014	0.435739	0.500005
C241	C	0.807520	0.114460	0.395501
C242	C	1.307520	0.614460	0.895501
H243	H	0.812512	0.111272	0.453815
H244	H	1.312512	0.611272	0.953815
H245	H	0.755040	0.110870	0.381194
H246	H	1.255040	0.610870	0.881194
H247	H	0.816489	0.145945	0.381157
H248	H	1.316489	0.645945	0.881157
C249	C	0.325520	0.104911	-0.000045
C250	C	0.825520	0.604911	0.499955
H251	H	0.382471	0.096927	-0.000053
H252	H	0.882471	0.596927	0.499947
H253	H	0.305388	0.125082	0.048372
H254	H	0.805388	0.625082	0.548372
H255	H	0.310120	0.122050	-0.048479
H256	H	0.810120	0.622050	0.451521
C257	C	0.515488	0.138769	-0.000051
C258	C	1.015488	0.638769	0.499949
H259	H	0.546199	0.164160	-0.000066
H260	H	1.046199	0.664160	0.499934
H261	H	0.480242	0.143081	0.048370
H262	H	0.980242	0.643081	0.548370
H263	H	0.484984	0.140049	-0.048482
H264	H	0.984984	0.640049	0.451518
C265	C	0.690210	0.133662	-0.000042
C266	C	1.190210	0.633662	0.499958
H267	H	0.647532	0.161198	-0.000043
H268	H	1.147532	0.661198	0.499957
H269	H	0.724618	0.133046	-0.048466
H270	H	1.224618	0.633046	0.451534
H271	H	0.719881	0.136074	0.048386
H272	H	1.219881	0.636074	0.548386
H273	H	1.079520	-0.134145	0.000026
H274	H	1.579520	0.365855	0.500026
H275	H	1.145851	-0.525726	-0.000025
H276	H	1.645851	-0.025726	0.499975
H277	H	1.077995	-0.225544	-0.000001
H278	H	1.577995	0.274456	0.499999
H279	H	1.148386	-0.374579	-0.000006
H280	H	1.648386	0.125421	0.499994
H281	H	1.146853	-0.465973	-0.000020
H282	H	1.646853	0.034027	0.499980
H283	H	1.067671	-0.840247	-0.000039
H284	H	1.567671	-0.340247	0.499961
H285	H	0.805224	-0.717407	-0.000047
H286	H	1.305224	-0.217407	0.499953
C287	C	0.782787	-0.813527	-0.000044
C288	C	1.282787	-0.313527	0.499956
H289	H	0.739838	-0.786145	-0.000053
H290	H	1.239838	-0.286145	0.499947
H291	H	0.777056	-0.831313	0.048376
H292	H	1.277056	-0.331313	0.548376
H293	H	0.781801	-0.834329	-0.048476
H294	H	1.281801	-0.334329	0.451524
C295	C	0.793099	-0.198846	-0.000007
C296	C	1.293099	0.301154	0.499993
H297	H	0.750147	-0.171466	-0.000012
H298	H	1.250147	0.328534	0.499988
H299	H	0.787368	-0.216638	0.048406
H300	H	1.287368	0.283362	0.548406
H301	H	0.792120	-0.219644	-0.048445
H302	H	1.292120	0.280356	0.451555
C303	C	0.794876	-0.093038	0.000005
C304	C	1.294876	0.406962	0.500005
H305	H	0.751171	-0.110095	0.000004
H306	H	1.251171	0.389905	0.500004
H307	H	0.794560	-0.074533	-0.048417
H308	H	1.294560	0.425467	0.451583
H309	H	0.789811	-0.071514	0.048434
H310	H	1.289811	0.428486	0.548434
C311	C	1.164976	-0.626803	-0.000041
C312	C	1.664976	-0.126803	0.499959
H313	H	1.208681	-0.609747	-0.000032
H314	H	1.708681	-0.109747	0.499968
H315	H	1.170032	-0.648325	-0.048466
H316	H	1.670032	-0.148325	0.451534
H317	H	1.165297	-0.645309	0.048386
H318	H	1.665297	-0.145309	0.548386
C319	C	0.713936	-0.573089	-0.000060
C320	C	1.213936	-0.073089	0.499940
H321	H	0.670988	-0.545707	-0.000068
H322	H	1.170988	-0.045707	0.499932
H323	H	0.708201	-0.590878	0.048356
H324	H	1.208201	-0.090878	0.548356
H325	H	0.712955	-0.593888	-0.048496
H326	H	1.212955	-0.093888	0.451504
H327	H	0.736377	-0.476972	-0.000043
H328	H	1.236377	0.023028	0.499957
