data_functionalizedCrystal
_audit_creation_method	'MofGen! by Chris Wilmer'
_symmetry_space_group_name_H-M	'P1'
_symmetry_Int_Tables_number	1
_symmetry_cell_setting	triclinic
loop_
_symmetry_equiv_pos_as_xyz
  x,y,z
_cell_length_a	18.760490
_cell_length_b	23.196402
_cell_length_c	23.196402
_cell_angle_alpha	60.002465
_cell_angle_beta	90.019911
_cell_angle_gamma	60.025025
loop_
_atom_site_label
_atom_site_type_symbol
_atom_site_fract_x
_atom_site_fract_y
_atom_site_fract_z
Zr1	Zr	0.686559	0.631228	-0.075563
O2	O	0.572768	0.751455	-0.167619
O3	O	0.721440	0.510974	-0.047346
O4	O	0.721440	0.631239	-0.167610
O5	O	0.572770	0.631190	0.047516
O6	O	0.838719	0.631279	-0.167599
O7	O	0.572767	0.631190	-0.047355
O8	O	0.838718	0.416146	0.047532
O9	O	0.572771	0.846322	-0.167615
O10	O	0.823843	0.560475	-0.035299
O11	O	0.736321	0.560446	0.035493
O12	O	0.736322	0.702043	-0.106102
O13	O	0.648800	0.702013	-0.035310
Zr14	Zr	0.873610	0.631290	0.075763
Zr15	Zr	0.873605	0.631290	-0.075545
Zr16	Zr	0.686564	0.631228	0.075745
Zr17	Zr	0.686564	0.782530	-0.075556
Zr18	Zr	0.873605	0.479988	0.075756
O19	O	0.838729	0.751544	0.047546
O20	O	0.838723	0.751544	-0.167594
O21	O	0.572774	0.751455	0.047521
O22	O	0.987401	0.511063	0.167819
O23	O	0.987395	0.511063	-0.047321
O24	O	0.721446	0.510974	0.167794
O25	O	0.987399	0.631328	-0.047316
O26	O	0.838729	0.631278	0.167811
O27	O	0.721450	0.631239	0.167800
O28	O	0.987402	0.631328	0.047555
O29	O	0.721447	0.846372	-0.167601
O30	O	0.838722	0.416146	0.167801
O31	O	0.987398	0.416196	0.167815
O32	O	0.987394	0.416196	0.047546
O33	O	0.572775	0.846322	-0.047345
O34	O	0.721451	0.846372	-0.047331
O35	O	0.823847	0.560475	0.106303
O36	O	0.911369	0.560504	0.035510
O37	O	0.823848	0.702072	-0.035293
O38	O	0.736326	0.702043	0.035500
C39	C	0.780078	0.442003	0.000092
C40	C	0.780076	0.377771	0.000089
C41	C	0.546119	0.631181	0.000078
C42	C	0.466713	0.631154	0.000071
C43	C	0.825755	0.347616	-0.036866
C44	C	0.825764	0.287255	-0.036861
C45	C	0.780076	0.257063	0.000091
C46	C	0.734394	0.287222	0.037055
C47	C	0.734395	0.347576	0.037054
C48	C	0.703550	0.195008	-0.005190
C49	C	0.703547	0.134658	-0.005195
C50	C	0.780077	0.070908	0.000098
C51	C	0.856608	0.067522	0.005381
C52	C	0.856609	0.127876	0.005380
C53	C	0.780071	0.191618	0.000097
C54	C	0.825769	-0.024698	-0.036853
C55	C	0.825780	-0.085064	-0.036842
C56	C	0.734403	-0.085090	0.037069
C57	C	0.734400	-0.024731	0.037063
C58	C	0.780082	0.005464	0.000098
C59	C	0.130724	0.631343	-0.052144
C60	C	0.130843	0.631342	0.052391
C61	C	0.205489	0.631302	0.052380
C62	C	0.242757	0.631280	0.000106
C63	C	0.205379	0.631300	-0.052156
C64	C	0.242879	0.631274	0.104645
C65	C	0.317530	0.631233	0.104636
C66	C	0.354796	0.631217	0.052359
C67	C	0.317412	0.631237	0.000094
C68	C	0.354680	0.631216	-0.052179
C69	C	0.317294	0.631242	-0.104447
C70	C	0.242644	0.631284	-0.104433
C71	C	0.429445	0.631175	0.052344
C72	C	0.429334	0.631173	-0.052191
C73	C	1.014050	0.631337	0.000122
C74	C	1.093456	0.631364	0.000130
C75	C	0.780079	0.631259	-0.189163
C76	C	0.780077	0.631259	-0.253397
C77	C	0.780091	0.820515	0.000108
C78	C	0.780093	0.884747	0.000111
C79	C	0.715477	0.631247	-0.716243
C80	C	0.715476	0.631241	-0.655886
C81	C	0.780086	0.631264	-0.625698
C82	C	0.844713	0.631271	-0.655862
C83	C	0.844716	0.631269	-0.716215
C84	C	0.800221	0.678776	-0.553828
C85	C	0.800212	0.678783	-0.493480
C86	C	0.780080	0.631268	-0.439549
C87	C	0.759939	0.583755	-0.445980
C88	C	0.759943	0.583753	-0.506333
C89	C	0.780089	0.631266	-0.560256
C90	C	0.715460	0.631249	-0.343943
C91	C	0.715466	0.631238	-0.283581
C92	C	0.844699	0.631276	-0.283563
C93	C	0.844697	0.631279	-0.343919
C94	C	0.780073	0.631269	-0.374107
C95	C	0.780090	0.631259	0.189363
C96	C	0.780092	0.631259	0.253597
C97	C	1.014044	0.442081	0.000114
C98	C	1.093447	0.377876	0.000119
C99	C	0.780084	0.442003	0.189355
C100	C	0.780084	0.377771	0.253586
C101	C	1.014050	0.442081	0.189377
C102	C	1.093455	0.377876	0.253616
C103	C	0.546119	0.820437	-0.189177
C104	C	0.466714	0.884642	-0.253415
C105	C	0.546125	0.820437	0.000086
C106	C	0.466722	0.884642	0.000082
C107	C	0.780085	0.820515	-0.189155
C108	C	0.780085	0.884747	-0.253386
C109	C	1.085049	0.347709	-0.036847
C110	C	1.159650	0.287390	-0.036857
C111	C	1.242649	0.257234	0.000104
C112	C	1.251046	0.287407	0.037071
C113	C	1.176445	0.347729	0.037076
C114	C	0.825771	0.347622	0.320718
C115	C	0.825768	0.287278	0.381076
C116	C	0.780081	0.257079	0.374301
C117	C	0.734388	0.287234	0.307162
C118	C	0.734387	0.347581	0.246806
C119	C	1.176438	0.347739	0.246830
C120	C	1.251055	0.287420	0.307183
C121	C	1.242688	0.257234	0.374322
C122	C	1.159696	0.287376	0.381106
C123	C	1.085081	0.347698	0.320754
C124	C	0.383731	0.914786	-0.246630
C125	C	0.309114	0.975124	-0.306983
C126	C	0.317481	1.005313	-0.374122
C127	C	0.400473	0.975167	-0.380906
C128	C	0.475088	0.914834	-0.320553
C129	C	0.475120	0.914815	0.037041
C130	C	0.400519	0.975151	0.037034
C131	C	0.317520	1.005309	0.000072
C132	C	0.309123	0.975133	-0.036893
C133	C	0.383724	0.914803	-0.036889
C134	C	0.825781	0.914927	-0.246588
C135	C	0.825798	0.975271	-0.306935
C136	C	0.780114	1.005440	-0.374078
C137	C	0.734417	0.975254	-0.380875
C138	C	0.734406	0.914907	-0.320529
H139	H	0.862954	0.372197	-0.066963
F140	F	0.374771	0.882692	-0.076225
H141	H	0.862982	0.890373	-0.191922
H142	H	0.862969	-0.000115	-0.066949
H143	H	0.862980	0.262733	0.435737
F144	F	0.913477	0.631291	-0.623732
H145	H	1.303386	0.208115	0.000094
H146	H	0.347649	0.631219	-0.147006
H147	H	0.862983	-0.109620	-0.066933
H148	H	0.697203	-0.109672	0.067156
F149	F	0.938057	0.124269	0.011005
F150	F	0.780091	0.192851	0.438545
F151	F	0.874432	1.007390	-0.299686
H152	H	1.183296	0.372283	0.067182
F153	F	0.685760	0.882800	-0.327775
H154	H	0.780130	1.054579	-0.423210
H155	H	0.347965	0.631213	0.147194
F156	F	0.874391	0.255149	-0.076189
H157	H	0.697223	0.999827	-0.435551
H158	H	0.212200	0.631304	-0.146987
H159	H	0.918929	0.015609	0.009699
F160	F	0.622090	0.262855	-0.010824
F161	F	0.091185	0.631358	0.108026
H162	H	0.697196	0.262635	0.067142
H163	H	0.542655	0.890292	-0.326087
F164	F	0.685779	0.007365	0.076395
F165	F	0.913492	0.631282	-0.748314
H166	H	0.641230	0.137424	-0.009500
F167	F	0.996722	0.379794	-0.076191
F168	F	0.563447	0.882732	0.076383
F169	F	0.996766	0.379761	0.327987
H170	H	1.152896	0.262790	0.435779
H171	H	1.152795	0.262830	-0.066960
F172	F	1.322108	0.193032	0.438549
H173	H	0.697192	0.262637	0.301656
F174	F	0.685775	0.379670	0.076390
F175	F	0.220796	1.007194	-0.299748
F176	F	0.685762	0.379658	0.175361
H177	H	0.459671	0.631160	-0.094761
H178	H	0.459885	0.631149	0.094903
F179	F	0.090934	0.631374	-0.107771
H180	H	0.407374	0.999710	0.067137
H181	H	0.376901	0.890209	-0.191967
F182	F	0.646685	0.631233	-0.376069
H183	H	0.862975	0.372203	0.326248
H184	H	0.212537	0.631286	0.147207
F185	F	0.238131	1.069518	0.000075
H186	H	0.743543	0.545065	-0.402070
F187	F	0.238061	1.069525	-0.438349
H188	H	0.662858	0.631236	-0.740819
F189	F	0.220782	1.007236	-0.076227
H190	H	1.183268	0.372308	0.192168
F191	F	0.646700	0.631229	-0.623783
H192	H	0.743545	0.545065	-0.511565
F193	F	1.339373	0.255349	0.299948
F194	F	0.646694	0.631219	-0.251479
F195	F	0.913466	0.631293	-0.251434
H196	H	1.318633	0.262845	0.067162
H197	H	0.816607	0.717474	-0.488251
F198	F	0.821660	0.729344	-0.611218
F199	F	0.409365	1.007304	-0.452366
F200	F	0.913467	0.631297	-0.376022
