data_functionalizedCrystal
_audit_creation_method	'MofGen! by Chris Wilmer'
_symmetry_space_group_name_H-M	'P1'
_symmetry_Int_Tables_number	1
_symmetry_cell_setting	triclinic
loop_
_symmetry_equiv_pos_as_xyz
  x,y,z
_cell_length_a	16.109317
_cell_length_b	11.804365
_cell_length_c	16.109301
_cell_angle_alpha	78.174178
_cell_angle_beta	96.535152
_cell_angle_gamma	78.158999
loop_
_atom_site_label
_atom_site_type_symbol
_atom_site_fract_x
_atom_site_fract_y
_atom_site_fract_z
O1	O	-1.119903	0.098901	0.090163
O2	O	-0.619903	0.598901	0.590163
O3	O	-0.877848	0.098932	0.103443
O4	O	-0.377848	0.598932	0.603443
O5	O	-1.005523	0.098903	-0.024225
O6	O	-0.505523	0.598903	0.475775
O7	O	-0.992228	0.098929	0.217831
O8	O	-0.492228	0.598929	0.717831
O9	O	-0.971911	-0.099145	0.009351
O10	O	-0.471911	0.400855	0.509351
O11	O	-0.844236	-0.099117	0.137019
O12	O	-0.344236	0.400883	0.637019
O13	O	-1.086291	-0.099147	0.123739
O14	O	-0.586291	0.400853	0.623739
Cu15	Cu	-0.962194	-0.117215	0.133445
Cu16	Cu	-0.462194	0.382785	0.633445
Cu17	Cu	-1.001944	0.117000	0.093737
Cu18	Cu	-0.501944	0.617000	0.593737
O19	O	-0.958616	-0.099119	0.251408
O20	O	-0.458616	0.400881	0.751408
C21	C	-0.830068	-0.000089	0.119690
C22	C	-0.330068	0.499911	0.619690
C23	C	-0.737775	-0.000077	0.118067
C24	C	-0.237775	0.499923	0.618067
C25	C	-0.457021	0.107865	0.094533
C26	C	0.042979	0.607865	0.594533
C27	C	-0.543743	0.107870	0.096050
C28	C	-0.043743	0.607870	0.596050
C29	C	-0.507116	-0.108053	0.132645
C30	C	-0.007116	0.391947	0.632645
C31	C	-0.420397	-0.108057	0.131122
C32	C	0.079603	0.391943	0.631122
C33	C	-0.395351	-0.000095	0.112070
C34	C	0.104649	0.499905	0.612070
C35	C	-0.568793	-0.000085	0.115109
C36	C	-0.068793	0.499915	0.615109
C37	C	-0.662821	-0.000080	0.116753
C38	C	-0.162821	0.499920	0.616753
C39	C	-0.301318	-0.000099	0.110424
C40	C	0.198682	0.499901	0.610424
N41	N	-0.934243	-0.281950	0.161373
N42	N	-0.434243	0.218050	0.661373
C43	C	-1.097026	-0.655935	-0.001278
C44	C	-0.597026	-0.155935	0.498722
C45	C	-1.118170	-0.531278	-0.022409
C46	C	-0.618170	-0.031278	0.477591
C47	C	-1.072190	-0.468940	0.023534
C48	C	-0.572190	0.031060	0.523534
C49	C	-1.005062	-0.531271	0.090613
C50	C	-0.505062	-0.031271	0.590613
C51	C	-0.983919	-0.655940	0.111750
C52	C	-0.483919	-0.155940	0.611750
C53	C	-0.959084	-0.468945	0.136563
C54	C	-0.459084	0.031055	0.636563
C55	C	-0.891956	-0.531276	0.203641
C56	C	-0.391956	-0.031276	0.703641
C57	C	-0.870816	-0.655933	0.224775
C58	C	-0.370816	-0.155933	0.724775
C59	C	-0.916797	-0.718271	0.178831
C60	C	-0.416797	-0.218271	0.678831
C61	C	-0.980226	-0.344276	0.115425
C62	C	-0.480226	0.155724	0.615425
C63	C	-0.867120	-0.344281	0.228454
C64	C	-0.367120	0.155719	0.728454
C65	C	-0.845975	-0.468938	0.249585
C66	C	-0.345975	0.031062	0.749585
C67	C	-0.134072	-0.000118	0.107492
C68	C	0.365928	0.499882	0.607492
C69	C	-0.226369	-0.000103	0.109112
C70	C	0.273631	0.499897	0.609112
C71	C	-0.988178	-0.000121	-0.038412
C72	C	-0.488178	0.499879	0.461588
C73	C	-0.986563	-0.000123	-0.130707
C74	C	-0.486563	0.499877	0.369293
N75	N	-1.029903	0.281734	0.065803
N76	N	-0.529903	0.781734	0.565803
C77	C	-1.058571	-0.000113	-0.352977
C78	C	-0.558571	0.499887	0.147023
C79	C	-1.057049	-0.000103	-0.439699
C80	C	-0.557049	0.499897	0.060301
C81	C	-0.905564	-0.000089	-0.419836
C82	C	-0.405564	0.499911	0.080164
C83	C	-0.907089	-0.000090	-0.333117
C84	C	-0.407089	0.499910	0.166883
C85	C	-0.983594	-0.000108	-0.299689
C86	C	-0.483594	0.499892	0.200311
C87	C	-0.980547	-0.000097	-0.473130
C88	C	-0.480547	0.499903	0.026870
C89	C	-0.978896	-0.000086	-0.567158
C90	C	-0.478896	0.499914	-0.067158
C91	C	-0.985246	-0.000117	-0.205656
C92	C	-0.485246	0.499883	0.294344
C93	C	-0.975961	-0.000092	0.265594
C94	C	-0.475961	0.499908	0.765594
C95	C	-0.977578	-0.000082	0.357888
C96	C	-0.477578	0.499918	0.857888
H97	H	-0.593953	0.195782	0.081768
H98	H	-0.093953	0.695782	0.581768
F99	F	-0.894289	-0.850947	0.201318
F100	F	-0.394289	-0.350947	0.701318
F101	F	-1.136851	-0.000106	-0.496409
F102	F	-0.636851	0.499894	0.003591
H103	H	-0.370181	-0.195976	0.145403
H104	H	0.129819	0.304024	0.645403
H105	H	-1.034882	-0.293537	0.060810
H106	H	-0.534882	0.206463	0.560810
F107	F	-0.827284	-0.000076	-0.276402
F108	F	-0.327284	0.499924	0.223598
H109	H	-1.089409	-0.367438	0.006326
H110	H	-0.589409	0.132562	0.506326
F111	F	-0.430369	0.222768	0.074253
F112	F	0.069631	0.722768	0.574253
H113	H	-0.843276	-0.000076	-0.447064
H114	H	-0.343276	0.499924	0.052936
H115	H	-0.527519	-0.195952	0.148158
H116	H	-0.027519	0.304048	0.648158
H117	H	-0.816163	-0.706683	0.279400
H118	H	-0.316163	-0.206683	0.779400
H119	H	-1.134461	-0.706698	-0.038675
H120	H	-0.634461	-0.206698	0.461325
F121	F	-1.189610	-0.464945	-0.093794
F122	F	-0.689610	0.035055	0.406206
F123	F	-0.774534	-0.535288	0.320974
F124	F	-0.274534	-0.035288	0.820974
H125	H	-0.829680	-0.293526	0.265867
H126	H	-0.329680	0.206474	0.765867
H127	H	-1.120867	-0.000126	-0.325763
H128	H	-0.620867	0.499874	0.174237
