data_functionalizedCrystal
_audit_creation_method	'MofGen! by Chris Wilmer'
_symmetry_space_group_name_H-M	'P1'
_symmetry_Int_Tables_number	1
_symmetry_cell_setting	triclinic
loop_
_symmetry_equiv_pos_as_xyz
  x,y,z
_cell_length_a	17.699083
_cell_length_b	10.654550
_cell_length_c	9.730223
_cell_angle_alpha	89.998521
_cell_angle_beta	90.002740
_cell_angle_gamma	83.883971
loop_
_atom_site_label
_atom_site_type_symbol
_atom_site_fract_x
_atom_site_fract_y
_atom_site_fract_z
O1	O	1.005084	0.158805	-0.114088
O2	O	0.784837	0.179467	-0.114132
O3	O	0.900024	-0.013692	-0.114110
O4	O	0.889897	0.351964	-0.114110
O5	O	0.900017	-0.013697	0.114470
O6	O	0.784830	0.179462	0.114448
O7	O	1.005077	0.158800	0.114492
Zn8	Zn	0.894952	0.169130	0.150762
Zn9	Zn	0.894962	0.169137	-0.150402
O10	O	0.889889	0.351959	0.114470
C11	C	0.756632	0.178724	0.000152
C12	C	0.672599	0.176503	0.000135
C13	C	0.899277	-0.060479	0.000176
C14	C	0.897052	-0.199884	0.000166
C15	C	0.893913	-0.396366	-0.124423
C16	C	0.896011	-0.265383	-0.124431
C17	C	0.896003	-0.265376	0.124780
C18	C	0.893911	-0.396359	0.124786
C19	C	0.624699	0.289883	0.000135
C20	C	0.545743	0.287788	0.000153
C21	C	0.514688	0.172313	0.000161
C22	C	0.562594	0.058924	0.000164
C23	C	0.641549	0.061020	0.000156
C24	C	0.244177	0.050470	0.000198
C25	C	0.165216	0.048383	0.000202
C26	C	0.148371	0.277239	0.000195
C27	C	0.227326	0.279334	0.000187
C28	C	0.275225	0.165946	0.000198
C29	C	0.360839	0.168219	0.000181
C30	C	0.429076	0.170039	0.000168
C31	C	1.033282	0.159543	0.000204
C32	C	1.117314	0.161764	0.000212
C33	C	0.890637	0.398746	0.000180
C34	C	0.892861	0.538151	0.000181
N35	N	0.894951	0.169125	0.356298
N36	N	0.894969	0.169132	-0.355939
C37	C	0.945973	0.083630	0.428234
C38	C	0.945981	0.083630	0.572117
C39	C	0.843941	0.254631	0.572116
C40	C	0.843930	0.254624	0.428235
H41	H	0.893058	-0.449685	-0.225884
H42	H	0.252606	0.373366	0.000175
H43	H	0.537303	-0.035098	0.000190
H44	H	0.987516	0.014009	0.369666
Cl45	Cl	0.892594	-0.478688	0.281444
Cl46	Cl	1.010124	-0.023856	0.662546
Cl47	Cl	0.701767	-0.081521	0.000162
H48	H	0.802402	0.324245	0.630701
H49	H	0.802378	0.324245	0.369661
Cl50	Cl	0.897317	-0.183035	0.281417
Cl51	Cl	0.897335	-0.183067	-0.281083
H52	H	0.649978	0.383916	0.000128
Cl53	Cl	0.485528	0.430330	0.000145
H54	H	0.109361	0.369564	0.000194
Cl55	Cl	0.126177	-0.096798	0.000213
H56	H	0.283168	-0.041858	0.000208
