data_functionalizedCrystal
_audit_creation_method	'MofGen! by Chris Wilmer'
_symmetry_space_group_name_H-M	'P1'
_symmetry_Int_Tables_number	1
_symmetry_cell_setting	triclinic
loop_
_symmetry_equiv_pos_as_xyz
  x,y,z
_cell_length_a	14.908783
_cell_length_b	25.639239
_cell_length_c	14.909227
_cell_angle_alpha	86.672199
_cell_angle_beta	83.584164
_cell_angle_gamma	93.329368
loop_
_atom_site_label
_atom_site_type_symbol
_atom_site_fract_x
_atom_site_fract_y
_atom_site_fract_z
Zn1	Zn	1.413344	-0.141147	-0.591770
Zn2	Zn	1.913344	0.358853	-0.091770
Zn3	Zn	1.404451	-0.233947	-0.440386
Zn4	Zn	1.904451	0.266053	0.059614
Zn5	Zn	1.253226	-0.151870	-0.431669
Zn6	Zn	1.753226	0.348130	0.068331
Zn7	Zn	1.261886	-0.233906	-0.582961
Zn8	Zn	1.761886	0.266094	-0.082961
O9	O	1.333227	-0.190217	-0.511697
O10	O	1.833227	0.309783	-0.011697
O11	O	1.538839	-0.148987	-0.579023
O12	O	2.038839	0.351013	-0.079023
O13	O	1.377045	-0.227564	-0.312559
O14	O	1.877045	0.272436	0.187441
O15	O	1.274563	-0.077278	-0.452945
O16	O	1.774563	0.422722	0.047055
O17	O	1.532305	-0.217167	-0.467802
O18	O	2.032305	0.282833	0.032198
O19	O	1.392201	-0.069399	-0.570571
O20	O	1.892201	0.430601	-0.070571
O21	O	1.265940	-0.167262	-0.306155
O22	O	1.765940	0.332738	0.193845
O23	O	1.127700	-0.167222	-0.444404
O24	O	1.627700	0.332778	0.055596
O25	O	1.289323	-0.217096	-0.710801
O26	O	1.789323	0.282904	-0.210801
O27	O	1.134063	-0.227494	-0.555558
O28	O	1.634063	0.272506	-0.055558
O29	O	1.400598	-0.148947	-0.717273
O30	O	1.900598	0.351053	-0.217273
O31	O	1.385443	-0.307111	-0.459260
O32	O	1.885443	0.192889	0.040740
O33	O	1.280700	-0.307081	-0.564010
O34	O	1.780700	0.192919	-0.064010
C35	C	1.098036	-0.198518	-0.498080
C36	C	1.598036	0.301482	0.001920
C37	C	0.997422	-0.202080	-0.492276
C38	C	1.497422	0.297920	0.007724
C39	C	0.815168	-0.137865	-0.597361
C40	C	1.315168	0.362135	-0.097361
C41	C	0.720632	-0.141210	-0.591910
C42	C	1.220632	0.358790	-0.091910
C43	C	0.713812	-0.212114	-0.475920
C44	C	1.213812	0.287886	0.024080
C45	C	0.808348	-0.208769	-0.481371
C46	C	1.308348	0.291231	0.018629
C47	C	0.859023	-0.171643	-0.542094
C48	C	1.359023	0.328357	-0.042094
C49	C	0.953561	-0.168300	-0.547548
C50	C	1.453561	0.331700	-0.047548
C51	C	0.946739	-0.239202	-0.431554
C52	C	1.446739	0.260798	0.068446
C53	C	0.852203	-0.242547	-0.426104
C54	C	1.352203	0.257453	0.073896
C55	C	1.333072	-0.326067	-0.511646
C56	C	1.833072	0.173933	-0.011646
C57	C	1.333090	-0.384180	-0.511660
C58	C	1.833090	0.115820	-0.011660
C59	C	1.387923	-0.744531	-0.457261
C60	C	1.887923	-0.244531	0.042739
C61	C	1.387959	-0.799134	-0.457275
C62	C	1.887959	-0.299134	0.042725
O63	O	1.434418	-0.827368	-0.410969
O64	O	1.934418	-0.327368	0.089031
N65	N	1.333389	-0.826449	-0.511766
N66	N	1.833389	-0.326449	-0.011766
C67	C	1.278787	-0.799157	-0.566253
C68	C	1.778787	-0.299157	-0.066253
O69	O	1.232376	-0.827404	-0.612603
O70	O	1.732376	-0.327404	-0.112603
C71	C	1.278757	-0.744555	-0.566243
C72	C	1.778757	-0.244555	-0.066243
C73	C	1.333323	-0.717244	-0.511742
C74	C	1.833323	-0.217244	-0.011742
C75	C	1.442485	-0.717220	-0.402765
C76	C	1.942485	-0.217220	0.097235
C77	C	1.442448	-0.662621	-0.402750
C78	C	1.942448	-0.162621	0.097250
C79	C	1.387848	-0.635334	-0.457231
C80	C	1.887848	-0.135334	0.042769
C81	C	1.333286	-0.662645	-0.511727
C82	C	1.833286	-0.162645	-0.011727
C83	C	1.224161	-0.717265	-0.620734
C84	C	1.724161	-0.217265	-0.120734
C85	C	1.224136	-0.662659	-0.620720
C86	C	1.724136	-0.162659	-0.120720
C87	C	1.278702	-0.635348	-0.566219
C88	C	1.778702	-0.135348	-0.066219
C89	C	1.278649	-0.580759	-0.566192
C90	C	1.778649	-0.080759	-0.066192
N91	N	1.333218	-0.553445	-0.511701
N92	N	1.833218	-0.053445	-0.011701
C93	C	1.387818	-0.580732	-0.457221
C94	C	1.887818	-0.080732	0.042779
C95	C	1.278856	-0.913825	-0.566271
C96	C	1.778856	-0.413825	-0.066271
C97	C	1.278881	-0.968426	-0.566276
C98	C	1.778881	-0.468426	-0.066276
C99	C	1.388054	-0.968399	-0.457300
C100	C	1.888054	-0.468399	0.042700
C101	C	1.388024	-0.913797	-0.457290
C102	C	1.888024	-0.413797	0.042710
C103	C	1.333426	-0.886510	-0.511780
C104	C	1.833426	-0.386510	-0.011780
C105	C	1.387735	-0.466071	-0.457192
C106	C	1.887735	0.033929	0.042808
C107	C	1.387690	-0.411467	-0.457179
C108	C	1.887690	0.088533	0.042821
C109	C	1.278521	-0.411499	-0.566159
C110	C	1.778521	0.088501	-0.066159
C111	C	1.278562	-0.466098	-0.566169
C112	C	1.778562	0.033902	-0.066169
C113	C	1.333176	-0.493382	-0.511683
C114	C	1.833176	0.006618	-0.011683
O115	O	1.232216	-0.552490	-0.612478
O116	O	1.732216	-0.052490	-0.112478
O117	O	1.434231	-0.552478	-0.410887
O118	O	1.934231	-0.052478	0.089113
C119	C	1.569336	-0.181885	-0.525367
C120	C	2.069336	0.318115	-0.025367
C121	C	1.669951	-0.178334	-0.531193
C122	C	2.169951	0.321666	-0.031193
C123	C	1.346919	-0.181821	-0.747799
C124	C	1.846919	0.318179	-0.247799
C125	C	1.352753	-0.178243	-0.848412
C126	C	1.852753	0.321757	-0.348412
C127	C	1.333408	-0.053836	-0.511768
C128	C	1.833408	0.446164	-0.011768
C129	C	1.333485	0.004282	-0.511799
C130	C	1.833485	0.504282	-0.011799
C131	C	1.418905	-0.137722	-0.993592
C132	C	1.918905	0.362278	-0.493592
C133	C	1.413428	-0.141081	-0.899057
C134	C	1.913428	0.358919	-0.399057
C135	C	1.297554	-0.212048	-0.892308
C136	C	1.797554	0.287952	-0.392308
C137	C	1.303031	-0.208688	-0.986843
C138	C	1.803031	0.291312	-0.486843
C139	C	1.363708	-0.171523	-1.037481
C140	C	1.863708	0.328477	-0.537481
C141	C	1.369180	-0.168161	-1.132017
C142	C	1.869180	0.331839	-0.632017
C143	C	1.253311	-0.239130	-1.125267
C144	C	1.753311	0.260870	-0.625267
C145	C	1.247834	-0.242490	-1.030732
C146	C	1.747834	0.257510	-0.530732
C147	C	1.319640	-0.198542	-0.276515
C148	C	1.819640	0.301458	0.223485
C149	C	1.313981	-0.201966	-0.175913
C150	C	1.813981	0.298034	0.324087
H151	H	0.982455	-0.266711	-0.386559
H152	H	1.482455	0.233289	0.113441
H153	H	1.418582	-0.137897	-1.173246
H154	H	1.918582	0.362103	-0.673246
H155	H	1.458376	-0.113557	-0.863327
H156	H	1.958376	0.386443	-0.363327
H157	H	0.684929	-0.113703	-0.636912
H158	H	1.184929	0.386297	-0.136912
H159	H	1.208356	-0.266649	-1.161011
H160	H	1.708356	0.233351	-0.661011
H161	H	1.468302	-0.107455	-1.034822
H162	H	1.968302	0.392545	-0.534822
H163	H	1.486883	-0.640387	-0.358373
H164	H	1.986883	-0.140387	0.141627
H165	H	1.198435	-0.272750	-0.989490
H166	H	1.698435	0.227250	-0.489490
H167	H	1.486952	-0.739431	-0.358400
H168	H	1.986952	-0.239431	0.141600
H169	H	0.994819	-0.138071	-0.596993
H170	H	1.494819	0.361929	-0.096993
H171	H	0.856429	-0.107638	-0.646808
H172	H	1.356429	0.392362	-0.146808
H173	H	1.248160	-0.242309	-0.851063
H174	H	1.748160	0.257691	-0.351063
H175	H	0.810930	-0.272772	-0.376662
H176	H	1.310930	0.227228	0.123338
H177	H	0.672536	-0.242335	-0.426473
H178	H	1.172536	0.257665	0.073527
H179	H	1.432124	-0.389232	-0.412795
H180	H	1.932124	0.110768	0.087205
H181	H	1.432209	-0.488279	-0.412827
H182	H	1.932209	0.011721	0.087173
H183	H	1.432456	-0.891563	-0.412911
H184	H	1.932456	-0.391563	0.087089
H185	H	1.234439	-0.990659	-0.610648
H186	H	1.734439	-0.490659	-0.110648
H187	H	1.432515	-0.990626	-0.412942
H188	H	1.932515	-0.490626	0.087058
H189	H	1.234389	-0.891611	-0.610640
H190	H	1.734389	-0.391611	-0.110640
H191	H	1.234064	-0.389273	-0.610514
H192	H	1.734064	0.110727	-0.110514
H193	H	1.179723	-0.739493	-0.665110
H194	H	1.679723	-0.239493	-0.165110
H195	H	1.179677	-0.640445	-0.665095
H196	H	1.679677	-0.140445	-0.165095
H197	H	1.234133	-0.488336	-0.610551
H198	H	1.734133	0.011664	-0.110551
