data_functionalizedCrystal
_audit_creation_method	'MofGen! by Chris Wilmer'
_symmetry_space_group_name_H-M	'P1'
_symmetry_Int_Tables_number	1
_symmetry_cell_setting	triclinic
loop_
_symmetry_equiv_pos_as_xyz
  x,y,z
_cell_length_a	34.571875
_cell_length_b	34.571051
_cell_length_c	34.567439
_cell_angle_alpha	60.004367
_cell_angle_beta	60.008842
_cell_angle_gamma	59.994195
loop_
_atom_site_label
_atom_site_type_symbol
_atom_site_fract_x
_atom_site_fract_y
_atom_site_fract_z
O1	O	0.053721	-0.565181	0.472559
O2	O	0.553721	-0.065181	0.972559
O3	O	0.020283	-0.440038	0.380761
O4	O	0.520283	0.059962	0.880761
O5	O	0.099534	-0.519209	0.380676
O6	O	0.599534	-0.019209	0.880676
O7	O	-0.025530	-0.486010	0.472643
O8	O	0.474470	0.013990	0.972643
O9	O	0.125831	-0.492917	0.406885
O10	O	0.625831	0.007083	0.906885
O11	O	0.046580	-0.413746	0.406969
O12	O	0.546580	0.086254	0.906969
O13	O	0.080018	-0.538889	0.498767
O14	O	0.580018	-0.038889	0.998767
Zn15	Zn	0.067475	-0.472143	0.457030
Zn16	Zn	0.567475	0.027857	0.957030
Zn17	Zn	0.032827	-0.506784	0.422498
Zn18	Zn	0.532827	-0.006784	0.922498
O19	O	0.000767	-0.459718	0.498852
O20	O	0.500767	0.040282	0.998852
N21	N	0.091122	-0.448505	0.480598
N22	N	0.591122	0.051495	0.980598
N23	N	0.009184	-0.530426	0.398930
N24	N	0.509184	-0.030426	0.898930
C25	C	0.124402	-0.415465	0.717633
C26	C	0.624402	0.084535	1.217633
C27	C	0.328327	-0.415388	0.513477
C28	C	0.828327	0.084612	1.013477
C29	C	0.124221	-0.415437	0.513630
C30	C	0.624221	0.084563	1.013630
C31	C	0.124201	-0.211364	0.513624
C32	C	0.624201	0.288636	1.013624
C33	C	0.157075	-0.309853	0.546423
C34	C	0.657075	0.190147	1.046423
C35	C	0.157084	-0.382601	0.546423
C36	C	0.657084	0.117399	1.046423
C37	C	0.175289	-0.364414	0.564591
C38	C	0.675289	0.135586	1.064591
C39	C	0.254624	-0.350722	0.522790
C40	C	0.754624	0.149278	1.022790
C41	C	0.304220	-0.367243	0.506229
C42	C	0.804220	0.132757	1.006229
C43	C	0.304249	-0.447494	0.536832
C44	C	0.804249	0.052506	1.036832
C45	C	0.254655	-0.430972	0.553394
C46	C	0.754655	0.069028	1.053394
C47	C	0.169014	-0.285043	0.497667
C48	C	0.669014	0.214957	0.997667
C49	C	0.152454	-0.235444	0.481153
C50	C	0.652454	0.264556	0.981153
C51	C	0.112020	-0.235469	0.562154
C52	C	0.612020	0.264531	1.062154
C53	C	0.128580	-0.285068	0.578668
C54	C	0.628580	0.214932	1.078668
C55	C	0.108321	-0.370634	0.558439
C56	C	0.608321	0.129366	1.058439
C57	C	0.091776	-0.387168	0.541918
C58	C	0.591776	0.112832	1.041918
C59	C	0.172754	-0.427637	0.501375
C60	C	0.672754	0.072363	1.001375
C61	C	0.189301	-0.411103	0.517891
C62	C	0.689301	0.088897	1.017891
C63	C	0.108399	-0.370649	0.643978
C64	C	0.608399	0.129351	1.143978
C65	C	0.091911	-0.387197	0.693575
C66	C	0.591911	0.112803	1.193575
C67	C	0.172928	-0.427676	0.693511
C68	C	0.672928	0.072324	1.193511
C69	C	0.189415	-0.411128	0.643912
C70	C	0.689415	0.088872	1.143912
C71	C	0.157149	-0.382613	0.619147
C72	C	0.657149	0.117387	1.119147
C73	C	0.229844	-0.382585	0.546371
C74	C	0.729844	0.117415	1.046371
C75	C	0.105624	-0.433333	0.772186
C76	C	0.605624	0.066667	1.272186
C77	C	0.382878	-0.432925	0.495007
C78	C	0.882878	0.067075	0.995007
C79	C	0.105380	-0.433313	0.495792
C80	C	0.605380	0.066687	0.995792
C81	C	0.105683	-0.156808	0.496094
C82	C	0.605683	0.343192	0.996094
C83	C	-0.023527	-0.563458	0.161535
C84	C	0.476473	-0.063458	0.661535
C85	C	-0.023851	-0.767445	0.365663
C86	C	0.476149	-0.267445	0.865663
C87	C	-0.023821	-0.563448	0.365756
C88	C	0.476179	-0.063448	0.865756
C89	C	-0.227785	-0.563229	0.365355
C90	C	0.272215	-0.063229	0.865355
C91	C	-0.129302	-0.596153	0.332678
C92	C	0.370698	-0.096153	0.832678
C93	C	-0.056593	-0.596234	0.332823
C94	C	0.443407	-0.096234	0.832823
C95	C	-0.074746	-0.614396	0.314578
C96	C	0.425254	-0.114396	0.814578
C97	C	-0.088477	-0.693710	0.356299
C98	C	0.411523	-0.193710	0.856299
C99	C	-0.071982	-0.743310	0.372851
C100	C	0.428018	-0.243310	0.872851
C101	C	0.008266	-0.743392	0.342376
C102	C	0.508266	-0.243392	0.842376
C103	C	-0.008230	-0.693794	0.325823
C104	C	0.491770	-0.193794	0.825823
C105	C	-0.154162	-0.608103	0.381422
C106	C	0.345838	-0.108103	0.881422
C107	C	-0.203757	-0.591517	0.397874
C108	C	0.296243	-0.091517	0.897874
C109	C	-0.203630	-0.551037	0.316836
C110	C	0.296370	-0.051037	0.816836
C111	C	-0.154034	-0.567623	0.300384
C112	C	0.345966	-0.067623	0.800384
C113	C	-0.068543	-0.547475	0.320829
C114	C	0.431457	-0.047475	0.820829
C115	C	-0.052041	-0.530969	0.337421
C116	C	0.447959	-0.030969	0.837421
C117	C	-0.011639	-0.611977	0.377990
C118	C	0.488361	-0.111977	0.877990
C119	C	-0.028141	-0.628485	0.361404
C120	C	0.471859	-0.128485	0.861404
C121	C	-0.068417	-0.547482	0.235199
C122	C	0.431583	-0.047482	0.735199
C123	C	-0.051814	-0.530977	0.185602
C124	C	0.448186	-0.030977	0.685602
C125	C	-0.011349	-0.611990	0.185649
C126	C	0.488651	-0.111990	0.685649
C127	C	-0.027951	-0.628493	0.235248
C128	C	0.472049	-0.128493	0.735248
C129	C	-0.056486	-0.596238	0.260022
C130	C	0.443514	-0.096238	0.760022
C131	C	-0.056602	-0.668955	0.332787
C132	C	0.443398	-0.168955	0.832787
C133	C	-0.005599	-0.544662	0.106983
C134	C	0.494401	-0.044662	0.606983
C135	C	-0.006342	-0.821999	0.384121
C136	C	0.493658	-0.321999	0.884121
C137	C	-0.005979	-0.544649	0.383673
C138	C	0.494021	-0.044649	0.883673
C139	C	-0.282336	-0.544682	0.382817
C140	C	0.217664	-0.044682	0.882817
N141	N	0.427518	-0.448428	0.480350
N142	N	0.927518	0.051572	0.980350
O143	O	0.589573	-0.456297	0.363634
O144	O	1.089573	0.043703	0.863634
O145	O	0.589761	-0.548399	0.488643
O146	O	1.089761	-0.048399	0.988643
O147	O	0.589681	-0.548188	0.409364
O148	O	1.089681	-0.048188	0.909364
O149	O	0.589654	-0.456508	0.442913
O150	O	1.089654	0.043492	0.942913
O151	O	0.510890	-0.521988	0.435708
O152	O	1.010890	-0.021988	0.935708
O153	O	0.510970	-0.522199	0.514987
O154	O	1.010970	-0.022199	1.014987
O155	O	0.510782	-0.430098	0.389978
O156	O	1.010782	0.069902	0.889978
Zn157	Zn	0.498366	-0.471989	0.456665
Zn158	Zn	0.998366	0.028011	0.956665
Zn159	Zn	0.602177	-0.506508	0.421956
Zn160	Zn	1.102177	-0.006508	0.921956
O161	O	0.510862	-0.430308	0.469257
O162	O	1.010862	0.069692	0.969257
N163	N	0.673025	-0.530068	0.398267
N164	N	1.173025	-0.030068	0.898267
N165	N	0.091092	-0.112167	0.480590
N166	N	0.591092	0.387833	0.980590
O167	O	-0.025539	0.049976	0.472612
O168	O	0.474461	0.549976	0.972612
O169	O	0.099472	0.050011	0.380491
O170	O	0.599472	0.550011	0.880491
O171	O	0.020155	0.049979	0.380751
O172	O	0.520155	0.549979	0.880751
O173	O	0.053778	0.050009	0.472352
O174	O	0.553778	0.550009	0.972352
O175	O	0.046458	-0.028818	0.407008
O176	O	0.546458	0.471182	0.907008
O177	O	0.125775	-0.028785	0.406748
O178	O	0.625775	0.471215	0.906748
O179	O	0.000764	-0.028821	0.498869
O180	O	0.500764	0.471179	0.998869
Zn181	Zn	0.067445	-0.041314	0.456977
Zn182	Zn	0.567445	0.458686	0.956977
Zn183	Zn	0.032791	0.062504	0.422382
Zn184	Zn	0.532791	0.562504	0.922382
O185	O	0.080081	-0.028788	0.498609
O186	O	0.580081	0.471212	0.998609
N187	N	0.009138	0.133358	0.398771
N188	N	0.509138	0.633358	0.898771
N189	N	0.091421	-0.448552	0.816827
N190	N	0.591421	0.051448	1.316827
O191	O	0.083469	-0.565164	0.978960
O192	O	0.583469	-0.065164	1.478960
O193	O	-0.008614	-0.440110	0.979002
O194	O	0.491386	0.059890	1.479002
O195	O	-0.008399	-0.519410	0.978978
O196	O	0.491601	-0.019410	1.478978
O197	O	0.083253	-0.485863	0.978984
O198	O	0.583253	0.014137	1.478984
O199	O	0.017837	-0.493128	0.900185
O200	O	0.517837	0.006872	1.400185
O201	O	0.017621	-0.413827	0.900208
O202	O	0.517621	0.086173	1.400208
O203	O	0.109704	-0.538881	0.900167
O204	O	0.609704	-0.038881	1.400167
Zn205	Zn	0.067828	-0.472181	0.887677
Zn206	Zn	0.567828	0.027819	1.387677
Zn207	Zn	0.033262	-0.506810	0.991491
Zn208	Zn	0.533262	-0.006810	1.491491
O209	O	0.109489	-0.459581	0.900191
O210	O	0.609489	0.040419	1.400191
N211	N	0.009668	-0.530444	1.062341
N212	N	0.509668	-0.030444	1.562341
C213	C	0.030297	-0.411123	0.381218
C214	C	0.530297	0.088877	0.881218
C215	C	0.128439	-0.509167	0.381113
C216	C	0.628439	-0.009167	0.881113
C217	C	0.070004	-0.567805	0.498310
C218	C	0.570004	-0.067805	0.998310
C219	C	-0.028138	-0.469761	0.498415
C220	C	0.471862	0.030239	0.998415
C221	C	0.550388	-0.547982	0.517564
C222	C	1.050388	-0.047982	1.017564
C223	C	0.550290	-0.547721	0.419387
C224	C	1.050290	-0.047721	0.919387
C225	C	0.550153	-0.430514	0.361058
C226	C	1.050153	0.069486	0.861058
C227	C	0.550253	-0.430775	0.459234
C228	C	1.050253	0.069225	0.959234
C229	C	0.128339	0.010714	0.380902
C230	C	0.628339	0.510714	0.880902
C231	C	0.030148	0.010577	0.381256
C232	C	0.530148	0.510577	0.881256
C233	C	-0.028136	0.010574	0.498426
C234	C	0.471864	0.510574	0.998426
C235	C	0.070089	0.010613	0.498104
C236	C	0.570089	0.510613	0.998104
C237	C	-0.008178	-0.411214	0.939610
C238	C	0.491822	0.088786	1.439610
C239	C	-0.007906	-0.509413	0.939566
C240	C	0.492094	-0.009413	1.439566
C241	C	0.109268	-0.567777	0.939558
C242	C	0.609268	-0.067777	1.439558
C243	C	0.109002	-0.469572	0.939586
C244	C	0.609002	0.030428	1.439586
H245	H	0.082121	-0.347425	0.623816
H246	H	0.582121	0.152575	1.123816
H247	H	-0.036687	-0.516580	0.939532
H248	H	0.463313	-0.016580	1.439532
C249	C	0.147750	-0.615703	0.939563
C250	C	0.647750	-0.115703	1.439563
C251	C	0.130771	-0.644949	0.939565
C252	C	0.630771	-0.144949	1.439565
C253	C	0.166206	-0.689103	0.939575
C254	C	0.666206	-0.189103	1.439575
H255	H	0.174685	-0.611614	0.912091
H256	H	0.674685	-0.111614	1.412091
H257	H	0.156365	-0.629909	0.967049
H258	H	0.656365	-0.129909	1.467049
H259	H	0.122164	-0.630746	0.912083
H260	H	0.622164	-0.130746	1.412083
H261	H	0.103841	-0.649052	0.967035
H262	H	0.603841	-0.149052	1.467035
H263	H	0.174821	-0.703309	0.967060
H264	H	0.674821	-0.203309	1.467060
H265	H	0.193139	-0.685009	0.912102
H266	H	0.693139	-0.185009	1.412102
H267	H	0.154690	-0.708954	0.939581
H268	H	0.654690	-0.208954	1.439581
H269	H	0.137795	-0.462392	0.939581
H270	H	0.637795	0.037608	1.439581
H271	H	0.550303	-0.576522	0.412207
H272	H	1.050303	-0.076522	0.912207
C273	C	-0.076008	-0.460274	0.536940
C274	C	0.423992	0.039726	1.036940
C275	C	-0.084374	-0.422203	0.547778
C276	C	0.415626	0.077797	1.047778
C277	C	-0.128463	-0.413454	0.583271
C278	C	0.371537	0.086546	1.083271
H279	H	-0.100158	-0.452753	0.526121
H280	H	0.399842	0.047247	1.026121
H281	H	-0.076088	-0.487688	0.564488
H282	H	0.423912	0.012312	1.064488
H283	H	-0.084298	-0.394795	0.520236
H284	H	0.415702	0.105205	1.020236
H285	H	-0.060236	-0.429713	0.558605
H286	H	0.439764	0.070287	1.058605
H287	H	-0.128543	-0.440868	0.610819
H288	H	0.371457	0.059132	1.110819
H289	H	-0.152608	-0.405935	0.572448
H290	H	0.347392	0.094065	1.072448
H291	H	-0.134143	-0.387625	0.590632
H292	H	0.365857	0.112375	1.090632
H293	H	0.550247	-0.401977	0.466412
H294	H	1.050247	0.098023	0.966412
C295	C	0.176158	0.010946	0.342311
C296	C	0.676158	0.510946	0.842311
C297	C	0.211778	-0.029489	0.358242
C298	C	0.711778	0.470511	0.858242
C299	C	0.255836	-0.029289	0.322710
C300	C	0.755836	0.470711	0.822710
H301	H	0.176237	0.010978	0.314776
H302	H	0.676237	0.510978	0.814776
H303	H	0.181806	0.038477	0.334943
H304	H	0.681806	0.538477	0.834943
H305	H	0.206132	-0.057012	0.365604
H306	H	0.706132	0.442988	0.865604
H307	H	0.211714	-0.029529	0.385772
H308	H	0.711714	0.470471	0.885772
H309	H	0.261484	-0.001759	0.315342
H310	H	0.761484	0.498241	0.815342
H311	H	0.255911	-0.029256	0.295177
H312	H	0.755911	0.470744	0.795177
H313	H	0.280010	-0.056721	0.333515
H314	H	0.780010	0.443279	0.833515
H315	H	0.052212	-0.377448	0.713786
H316	H	0.552212	0.122552	1.213786
C317	C	-0.046712	-0.363302	0.939528
C318	C	0.453288	0.136698	1.439528
C319	C	-0.059316	-0.342507	0.898987
C320	C	0.440684	0.157493	1.398987
C321	C	-0.094807	-0.298368	0.898891
C322	C	0.405193	0.201632	1.398891
H323	H	-0.073667	-0.367392	0.966975
H324	H	0.426333	0.132608	1.466975
H325	H	-0.035279	-0.343371	0.939507
H326	H	0.464721	0.156629	1.439507
H327	H	-0.070750	-0.362433	0.899013
H328	H	0.429250	0.137567	1.399013
H329	H	-0.032372	-0.338405	0.871534
H330	H	0.467628	0.161595	1.371534
H331	H	-0.083374	-0.278437	0.898871
H332	H	0.416626	0.221563	1.398871
H333	H	-0.121758	-0.302463	0.926340
H334	H	0.378242	0.197537	1.426340
H335	H	-0.103360	-0.284251	0.871383
H336	H	0.396640	0.215749	1.371383
C337	C	0.550437	-0.586592	0.565411
C338	C	1.050437	-0.086592	1.065411
C339	C	0.550453	-0.627071	0.565354
C340	C	1.050453	-0.127071	1.065354
C341	C	0.550493	-0.662647	0.609424
C342	C	1.050493	-0.162647	1.109424
H343	H	0.577919	-0.594085	0.571209
H344	H	1.077919	-0.094085	1.071209
H345	H	0.522963	-0.575775	0.589549
H346	H	1.022963	-0.075775	1.089549
H347	H	0.577924	-0.637887	0.541224
H348	H	1.077924	-0.137887	1.041224
H349	H	0.522972	-0.619595	0.559565
H350	H	1.022972	-0.119595	1.059565
H351	H	0.523019	-0.651830	0.633561
H352	H	1.023019	-0.151830	1.133561
H353	H	0.577976	-0.670135	0.615218
H354	H	1.077976	-0.170135	1.115218
H355	H	0.550499	-0.690115	0.609393
H356	H	1.050499	-0.190115	1.109393
C357	C	0.176335	-0.518506	0.342584
C358	C	0.676335	-0.018506	0.842584
C359	C	0.197151	-0.486166	0.329934
C360	C	0.697151	0.013834	0.829934
C361	C	0.241270	-0.494751	0.294438
C362	C	0.741270	0.005249	0.794438
H363	H	0.196273	-0.549842	0.354016
H364	H	0.696273	-0.049842	0.854016
H365	H	0.172203	-0.514922	0.315649
H366	H	0.672203	-0.014922	0.815649
H367	H	0.201286	-0.489755	0.356864
H368	H	0.701286	0.010245	0.856864
H369	H	0.177227	-0.454827	0.318493
H370	H	0.677227	0.045173	0.818493
H371	H	0.237137	-0.491167	0.267503
H372	H	0.737137	0.008833	0.767503
H373	H	0.261203	-0.526088	0.305874
H374	H	0.761203	-0.026088	0.805874
H375	H	0.255397	-0.472808	0.285847
H376	H	0.755397	0.027192	0.785847
H377	H	0.550093	-0.401597	0.325157
H378	H	1.050093	0.098403	0.825157
H379	H	0.077290	0.010621	0.526881
H380	H	0.577290	0.510621	1.026881
H381	H	0.011877	-0.638258	0.165483
H382	H	0.511877	-0.138258	0.665483
H383	H	-0.223999	-0.601245	0.437568
H384	H	0.276001	-0.101245	0.937568
C385	C	0.208035	-0.458640	0.720310
C386	C	0.708035	0.041360	1.220310
C387	C	0.254257	-0.465581	0.687946
C388	C	0.754257	0.034419	1.187946
C389	C	0.286612	-0.494107	0.712615
C390	C	0.786612	0.005893	1.212615
H391	H	0.203346	-0.443536	0.739657
H392	H	0.703346	0.056464	1.239657
H393	H	0.203322	-0.488392	0.739647
H394	H	0.703322	0.011608	1.239647
H395	H	0.258968	-0.435834	0.668617
H396	H	0.758968	0.064166	1.168617
H397	H	0.258961	-0.480689	0.668597
H398	H	0.758961	0.019311	1.168597
H399	H	0.281899	-0.523860	0.731952
H400	H	0.781899	-0.023860	1.231952
H401	H	0.281918	-0.479001	0.731962
H402	H	0.781918	0.020999	1.231962
H403	H	0.317977	-0.498824	0.690660
H404	H	0.817977	0.001176	1.190660
H405	H	0.229113	-0.420876	0.623698
H406	H	0.729113	0.079124	1.123698
C407	C	-0.075966	0.010538	0.537057
C408	C	0.424034	0.510538	1.037057
C409	C	-0.075876	0.010535	0.577518
C410	C	0.424124	0.510535	1.077518
C411	C	-0.119926	0.010496	0.613117
C412	C	0.380074	0.510496	1.113117
H413	H	-0.100125	0.038003	0.526272
H414	H	0.399875	0.538003	1.026272
H415	H	-0.081745	-0.016957	0.544551
H416	H	0.418255	0.483043	1.044551
H417	H	-0.070101	0.038028	0.570025
H418	H	0.429899	0.538028	1.070025
H419	H	-0.051726	-0.016927	0.588318
H420	H	0.448274	0.483073	1.088318
H421	H	-0.125706	-0.017000	0.620611
H422	H	0.374294	0.483000	1.120611
H423	H	-0.144081	0.037960	0.602327
H424	H	0.355919	0.537960	1.102327
H425	H	-0.119869	0.010489	0.640575
H426	H	0.380131	0.510489	1.140575
C427	C	0.020714	-0.363215	0.342755
C428	C	0.520714	0.136785	0.842755
C429	C	-0.017380	-0.354873	0.331966
C430	C	0.482620	0.145127	0.831966
C431	C	-0.026217	-0.310748	0.296532
C432	C	0.473783	0.189252	0.796532
H433	H	0.013182	-0.339088	0.353609
H434	H	0.513182	0.160912	0.853609
H435	H	0.048093	-0.363072	0.315177
H436	H	0.548093	0.136928	0.815177
H437	H	-0.044753	-0.355012	0.359538
H438	H	0.455247	0.144988	0.859538
H439	H	-0.009858	-0.378989	0.321104
H440	H	0.490142	0.121011	0.821104
H441	H	0.001162	-0.310605	0.268954
H442	H	0.501162	0.189395	0.768954
H443	H	-0.033748	-0.286625	0.307389
H444	H	0.466252	0.213375	0.807389
H445	H	-0.052062	-0.305085	0.289204
H446	H	0.447938	0.194915	0.789204
C447	C	0.020567	0.010457	0.342930
C448	C	0.520567	0.510457	0.842930
C449	C	0.009529	-0.030102	0.359194
C450	C	0.509529	0.469898	0.859194
C451	C	0.000712	-0.030238	0.323899
C452	C	0.500712	0.469762	0.823899
H453	H	-0.005296	0.037893	0.335536
H454	H	0.494704	0.537893	0.835536
H455	H	0.047944	0.010434	0.315350
H456	H	0.547944	0.510434	0.815350
H457	H	-0.017844	-0.030075	0.386765
H458	H	0.482156	0.469925	0.886765
H459	H	0.035386	-0.057545	0.366585
H460	H	0.535386	0.442455	0.866585
H461	H	0.028088	-0.030261	0.296319
H462	H	0.528088	0.469739	0.796319
H463	H	-0.025150	-0.002800	0.316507
H464	H	0.474850	0.497200	0.816507
H465	H	-0.006774	-0.057759	0.334927
H466	H	0.493226	0.442241	0.834927
C467	C	0.038814	-0.374149	0.555037
C468	C	0.538814	0.125851	1.055037
C469	C	0.014140	-0.345664	0.583574
C470	C	0.514140	0.154336	1.083574
C471	C	-0.034648	-0.333669	0.595675
C472	C	0.465352	0.166331	1.095675
H473	H	0.030585	-0.357293	0.527047
H474	H	0.530585	0.142707	1.027047
H475	H	0.030684	-0.402196	0.571889
H476	H	0.530684	0.097804	1.071889
H477	H	0.022266	-0.317622	0.566722
H478	H	0.522266	0.182378	1.066722
H479	H	0.022354	-0.362511	0.611570
H480	H	0.522354	0.137489	1.111570
H481	H	-0.042778	-0.361716	0.612526
H482	H	0.457222	0.138284	1.112526
H483	H	-0.042872	-0.316814	0.567682
H484	H	0.457128	0.183186	1.067682
H485	H	-0.051396	-0.314344	0.615041
H486	H	0.448604	0.185656	1.115041
C487	C	0.207809	-0.458559	0.470387
C488	C	0.707809	0.041441	0.970387
C489	C	0.254054	-0.465490	0.463396
C490	C	0.754054	0.034510	0.963396
C491	C	0.286360	-0.493967	0.434845
C492	C	0.786360	0.006033	0.934845
H493	H	0.203123	-0.488317	0.485491
H494	H	0.703123	0.011683	0.985491
H495	H	0.203045	-0.443410	0.440653
H496	H	0.703045	0.056590	0.940653
H497	H	0.258816	-0.480640	0.493125
H498	H	0.758816	0.019360	0.993125
H499	H	0.258756	-0.435741	0.448287
H500	H	0.758756	0.064259	0.948287
H501	H	0.281596	-0.478818	0.405111
H502	H	0.781596	0.021182	0.905111
H503	H	0.281670	-0.523723	0.449952
H504	H	0.781670	-0.023723	0.949952
H505	H	0.317741	-0.498670	0.430094
H506	H	0.817741	0.001330	0.930094
H507	H	0.077150	-0.603753	0.527142
H508	H	0.577150	-0.103753	1.027142
H509	H	0.082085	-0.347427	0.581670
H510	H	0.582085	0.152573	1.081670
H511	H	-0.223768	-0.527810	0.290539
H512	H	0.276232	-0.027810	0.790539
H513	H	0.234479	-0.456922	0.572596
H514	H	0.734479	0.043078	1.072596
C515	C	0.331106	-0.500049	0.544515
C516	C	0.831106	-0.000049	1.044515
C517	C	0.298788	-0.524421	0.568721
C518	C	0.798788	-0.024421	1.068721
C519	C	0.323510	-0.572835	0.575813
C520	C	0.823510	-0.072835	1.075813
H521	H	0.350433	-0.504706	0.514740
H522	H	0.850433	-0.004706	1.014740
H523	H	0.350465	-0.511704	0.562691
H524	H	0.850465	-0.011704	1.062691
H525	H	0.279437	-0.512770	0.550546
H526	H	0.779437	-0.012770	1.050546
H527	H	0.279460	-0.519779	0.598501
H528	H	0.779460	-0.019779	1.098501
H529	H	0.342870	-0.584490	0.593989
H530	H	0.842870	-0.084490	1.093989
H531	H	0.342837	-0.577487	0.546036
H532	H	0.842837	-0.077487	1.046036
H533	H	0.301587	-0.589378	0.592241
H534	H	0.801587	-0.089378	1.092241
H535	H	0.324395	-0.341295	0.487026
H536	H	0.824395	0.158705	0.987026
C537	C	0.227774	-0.298173	0.515141
C538	C	0.727774	0.201827	1.015141
C539	C	0.260095	-0.273808	0.490953
C540	C	0.760095	0.226192	0.990953
C541	C	0.235377	-0.225399	0.483903
C542	C	0.735377	0.274601	0.983903
H543	H	0.208404	-0.286479	0.496970
H544	H	0.708404	0.213521	0.996970
H545	H	0.208457	-0.293557	0.544941
H546	H	0.708457	0.206443	1.044941
H547	H	0.279403	-0.278421	0.461158
H548	H	0.779403	0.221579	0.961158
H549	H	0.279466	-0.285487	0.509117
H550	H	0.779466	0.214513	1.009117
H551	H	0.216060	-0.220783	0.513703
H552	H	0.716060	0.279217	1.013703
H553	H	0.216007	-0.213710	0.465733
H554	H	0.716007	0.286290	0.965733
H555	H	0.257303	-0.208862	0.467495
H556	H	0.757303	0.291138	0.967495
C557	C	-0.127222	-0.639100	0.416407
C558	C	0.372778	-0.139100	0.916407
C559	C	-0.078468	-0.651078	0.391566
C560	C	0.421532	-0.151078	0.891566
C561	C	-0.053637	-0.679637	0.423780
C562	C	0.446363	-0.179637	0.923780
H563	H	-0.135315	-0.622309	0.435774
H564	H	0.364685	-0.122309	0.935774
H565	H	-0.135353	-0.667146	0.435739
H566	H	0.364647	-0.167146	0.935739
H567	H	-0.070340	-0.623038	0.372242
H568	H	0.429660	-0.123038	0.872242
H569	H	-0.070361	-0.667876	0.372201
H570	H	0.429639	-0.167876	0.872201
H571	H	-0.061768	-0.707683	0.443112
H572	H	0.438232	-0.207683	0.943112
H573	H	-0.061734	-0.662843	0.443145
H574	H	0.438266	-0.162843	0.943145
H575	H	-0.020555	-0.687772	0.406930
H576	H	0.479445	-0.187772	0.906930
C577	C	0.199867	-0.311930	0.462640
C578	C	0.699867	0.188070	0.962640
C579	C	0.174921	-0.299877	0.434225
C580	C	0.674921	0.200123	0.934225
C581	C	0.203325	-0.324641	0.401956
C582	C	0.703325	0.175359	0.901956
H583	H	0.227907	-0.303811	0.443226
H584	H	0.727907	0.196189	0.943226
H585	H	0.208010	-0.345027	0.479442
H586	H	0.708010	0.154973	0.979442
H587	H	0.166785	-0.266787	0.417424
H588	H	0.666785	0.233213	0.917424
H589	H	0.146883	-0.307998	0.453626
H590	H	0.646883	0.192002	0.953626
H591	H	0.211468	-0.357738	0.418758
H592	H	0.711468	0.142262	0.918758
H593	H	0.231364	-0.316519	0.382545
H594	H	0.731364	0.183481	0.882545
H595	H	0.186402	-0.316470	0.382676
H596	H	0.686402	0.183530	0.882676
C597	C	0.165319	-0.208477	0.428220
C598	C	0.665319	0.291523	0.928220
C599	C	0.123889	-0.180018	0.416395
C600	C	0.623889	0.319982	0.916395
C601	C	0.135723	-0.155175	0.367638
C602	C	0.635723	0.344825	0.867638
H603	H	0.182122	-0.189083	0.420023
H604	H	0.682122	0.310917	0.920023
H605	H	0.184642	-0.230326	0.411363
H606	H	0.684642	0.269674	0.911363
H607	H	0.104573	-0.158172	0.433246
H608	H	0.604573	0.341828	0.933246
H609	H	0.107080	-0.199400	0.424580
H610	H	0.607080	0.300600	0.924580
H611	H	0.155046	-0.177025	0.350781
H612	H	0.655046	0.322975	0.850781
H613	H	0.152526	-0.135785	0.359445
H614	H	0.652526	0.364215	0.859445
H615	H	0.107615	-0.135867	0.359608
H616	H	0.607615	0.364133	0.859608
H617	H	0.229008	-0.420842	0.508101
H618	H	0.729008	0.079158	1.008101
H619	H	-0.091707	-0.521211	0.297556
H620	H	0.408293	-0.021211	0.797556
H621	H	0.118851	-0.305270	0.618371
H622	H	0.618851	0.194730	1.118371
C623	C	0.081073	-0.208642	0.597236
C624	C	0.581073	0.291358	1.097236
C625	C	0.074160	-0.240986	0.643471
C626	C	0.574160	0.259014	1.143471
C627	C	0.045650	-0.216291	0.675800
C628	C	0.545650	0.283709	1.175800
H629	H	0.096175	-0.189283	0.592517
H630	H	0.596175	0.310717	1.092517
H631	H	0.051314	-0.189313	0.592526
H632	H	0.551314	0.310687	1.092526
H633	H	0.103915	-0.260307	0.648179
H634	H	0.603915	0.239693	1.148179
H635	H	0.059053	-0.260346	0.648205
H636	H	0.559053	0.239654	1.148205
H637	H	0.015890	-0.196962	0.671091
H638	H	0.515890	0.303038	1.171091
H639	H	0.060755	-0.196934	0.671078
H640	H	0.560755	0.303066	1.171078
H641	H	0.040952	-0.238233	0.707175
H642	H	0.540952	0.261767	1.207175
H643	H	-0.091654	-0.521212	0.255368
H644	H	0.408346	-0.021212	0.755368
C645	C	-0.064873	-0.478032	0.158683
C646	C	0.435127	0.021968	0.658683
C647	C	-0.114200	-0.457584	0.170663
C648	C	0.385800	0.042416	0.670663
C649	C	-0.126247	-0.408814	0.145869
C650	C	0.373753	0.091186	0.645869
H651	H	-0.053532	-0.464054	0.166826
H652	H	0.446468	0.035946	0.666826
H653	H	-0.050930	-0.472798	0.125592
H654	H	0.449070	0.027202	0.625592
H655	H	-0.128138	-0.462814	0.203747
H656	H	0.371862	0.037186	0.703747
H657	H	-0.125553	-0.471548	0.162518
H658	H	0.374447	0.028452	0.662518
H659	H	-0.112305	-0.403580	0.112778
H660	H	0.387695	0.096420	0.612778
H661	H	-0.114904	-0.394841	0.154014
H662	H	0.385096	0.105159	0.654014
H663	H	-0.159716	-0.394935	0.153990
H664	H	0.340284	0.105065	0.653990
C665	C	-0.014966	-0.681451	0.262111
C666	C	0.485034	-0.181451	0.762111
C667	C	0.013563	-0.706163	0.229797
C668	C	0.513563	-0.206163	0.729797
C669	C	0.025528	-0.754947	0.254525
C670	C	0.525528	-0.254947	0.754525
H671	H	0.001849	-0.689664	0.281507
H672	H	0.501849	-0.189664	0.781507
H673	H	-0.043020	-0.689568	0.281403
H674	H	0.456980	-0.189568	0.781403
H675	H	0.041612	-0.698050	0.210513
H676	H	0.541612	-0.198050	0.710513
H677	H	-0.003242	-0.697965	0.210400
H678	H	0.496758	-0.197965	0.710400
H679	H	-0.002526	-0.763064	0.273817
H680	H	0.497474	-0.263064	0.773817
H681	H	0.042341	-0.763155	0.273920
H682	H	0.542341	-0.263155	0.773920
H683	H	0.044882	-0.771721	0.232604
H684	H	0.544882	-0.271721	0.732604
H685	H	0.011532	-0.638242	0.401256
H686	H	0.511532	-0.138242	0.901256
C687	C	-0.065031	-0.478012	0.324317
C688	C	0.434969	0.021988	0.824317
C689	C	-0.093463	-0.453299	0.295719
C690	C	0.406537	0.046701	0.795719
C691	C	-0.105427	-0.404515	0.283627
C692	C	0.394573	0.095485	0.783627
H693	H	-0.081915	-0.469786	0.352308
H694	H	0.418085	0.030214	0.852308
H695	H	-0.036973	-0.469908	0.307513
H696	H	0.463027	0.030092	0.807513
H697	H	-0.121516	-0.461399	0.312523
H698	H	0.378484	0.038601	0.812523
H699	H	-0.076588	-0.461510	0.267721
H700	H	0.423412	0.038490	0.767721
H701	H	-0.077369	-0.396411	0.266823
H702	H	0.422631	0.103589	0.766823
H703	H	-0.122309	-0.396294	0.311621
H704	H	0.377691	0.103706	0.811621
H705	H	-0.124715	-0.387741	0.264219
H706	H	0.375285	0.112259	0.764219
H707	H	0.017729	-0.673638	0.306677
H708	H	0.517729	-0.173638	0.806677
C709	C	0.060804	-0.770340	0.334721
C710	C	0.560804	-0.270340	0.834721
C711	C	0.086230	-0.758317	0.286097
C712	C	0.586230	-0.258317	0.786097
C713	C	0.134627	-0.783137	0.279026
C714	C	0.634627	-0.283137	0.779026
H715	H	0.071105	-0.762247	0.349703
H716	H	0.571105	-0.262247	0.849703
H717	H	0.066084	-0.803429	0.347919
H718	H	0.566084	-0.303429	0.847919
H719	H	0.080952	-0.725235	0.272905
H720	H	0.580952	-0.225235	0.772905
H721	H	0.075943	-0.766411	0.271105
H722	H	0.575943	-0.266411	0.771105
H723	H	0.139907	-0.816226	0.292224
H724	H	0.639907	-0.316226	0.792224
H725	H	0.144923	-0.775042	0.294011
H726	H	0.644923	-0.275042	0.794011
H727	H	0.151884	-0.774986	0.246035
H728	H	0.651884	-0.274986	0.746035
C729	C	-0.106663	-0.770101	0.398354
C730	C	0.393337	-0.270101	0.898354
C731	C	-0.129703	-0.758017	0.368164
C732	C	0.370297	-0.258017	0.868164
C733	C	-0.161673	-0.782672	0.391664
C734	C	0.338327	-0.282672	0.891664
H735	H	-0.089995	-0.803211	0.407246
H736	H	0.410005	-0.303211	0.907246
H737	H	-0.129398	-0.761906	0.425881
H738	H	0.370602	-0.261906	0.925881
H739	H	-0.106971	-0.766216	0.340645
H740	H	0.393029	-0.266216	0.840645
H741	H	-0.146380	-0.724912	0.359270
H742	H	0.353620	-0.224912	0.859270
H743	H	-0.184408	-0.774477	0.419191
H744	H	0.315592	-0.274477	0.919191
H745	H	-0.145001	-0.815780	0.400555
H746	H	0.354999	-0.315780	0.900555
H747	H	-0.177312	-0.774474	0.371185
H748	H	0.322688	-0.274474	0.871185
C749	C	-0.140971	-0.666676	0.363753
C750	C	0.359029	-0.166676	0.863753
C751	C	-0.147541	-0.638199	0.319732
C752	C	0.352459	-0.138199	0.819732
C753	C	-0.195892	-0.613279	0.326576
C754	C	0.304108	-0.113279	0.826576
H755	H	-0.157650	-0.688465	0.380101
H756	H	0.342350	-0.188465	0.880101
H757	H	-0.152632	-0.647292	0.381904
H758	H	0.347368	-0.147292	0.881904
H759	H	-0.135886	-0.657581	0.301588
H760	H	0.364114	-0.157581	0.801588
H761	H	-0.130874	-0.616401	0.303377
H762	H	0.369126	-0.116401	0.803377
H763	H	-0.207553	-0.593895	0.344727
H764	H	0.292447	-0.093895	0.844727
H765	H	-0.212566	-0.635072	0.342925
H766	H	0.287434	-0.135072	0.842925
H767	H	-0.200355	-0.593951	0.296710
H768	H	0.299645	-0.093951	0.796710
H769	H	-0.133793	-0.557888	0.260690
H770	H	0.366207	-0.057888	0.760690
H771	H	-0.018411	-0.668189	0.371171
H772	H	0.481589	-0.168189	0.871171
