data_functionalizedCrystal
_audit_creation_method	'MofGen! by Chris Wilmer'
_symmetry_space_group_name_H-M	'P1'
_symmetry_Int_Tables_number	1
_symmetry_cell_setting	triclinic
loop_
_symmetry_equiv_pos_as_xyz
  x,y,z
_cell_length_a	6.817900
_cell_length_b	17.078472
_cell_length_c	16.015572
_cell_angle_alpha	78.650868
_cell_angle_beta	104.485554
_cell_angle_gamma	99.306020
loop_
_atom_site_label
_atom_site_type_symbol
_atom_site_fract_x
_atom_site_fract_y
_atom_site_fract_z
V1	V	-3.985538	-0.032007	-0.269368
O2	O	-3.995265	0.081581	-0.264329
O3	O	-3.916727	-0.140446	-0.267439
O4	O	-3.928561	0.003607	-0.386887
O5	O	-3.983349	-0.063470	-0.144055
V6	V	-4.472922	-0.022570	-0.254390
O7	O	-4.238327	-0.052707	-0.302223
O8	O	-4.670331	-0.001871	-0.221534
O9	O	-4.318526	0.085869	-0.256318
O10	O	-4.580592	-0.136158	-0.259428
O11	O	-4.592508	0.008892	-0.379703
O12	O	-4.306692	-0.058184	-0.136870
C13	C	-3.757040	-0.167979	-0.263168
C14	C	-3.782009	-0.256404	-0.262375
C15	C	-3.772135	0.015776	-0.415534
C16	C	-3.806698	0.044176	-0.511607
C17	C	-3.974754	-0.300743	-0.266310
C18	C	-3.998205	-0.383826	-0.265570
C19	C	-3.828906	-0.422569	-0.260888
C20	C	-3.636146	-0.378224	-0.256956
C21	C	-3.612700	-0.295141	-0.257702
C22	C	-3.879619	-0.670750	-0.258200
C23	C	-3.903079	-0.753839	-0.257451
C24	C	-4.265137	-0.759435	-0.266066
C25	C	-4.241672	-0.676351	-0.266807
C26	C	-4.048918	-0.632012	-0.262879
N27	N	-3.852871	-0.507494	-0.260129
N28	N	-4.024957	-0.547088	-0.263645
C29	C	-4.047885	-0.207907	-0.889041
C30	C	-4.080372	-0.181194	-0.979311
C31	C	-4.029396	-0.042993	-0.954713
C32	C	-3.996894	-0.069694	-0.864439
C33	C	-4.006144	-0.152152	-0.831610
C34	C	-3.955154	-0.013939	-0.807008
C35	C	-3.922666	-0.040638	-0.716742
C36	C	-3.931917	-0.123092	-0.683906
C37	C	-3.973656	-0.178851	-0.741344
C38	C	-3.945919	0.068518	-0.839839
C39	C	-3.904179	0.124273	-0.782408
C40	C	-3.871675	0.097575	-0.692140
C41	C	-3.880927	0.015120	-0.659304
C42	C	-3.829937	0.153333	-0.634702
C43	C	-3.797448	0.126634	-0.544436
C44	C	-3.848439	-0.011579	-0.569038
C45	C	-4.141555	0.113397	-0.260587
C46	C	-4.095824	0.201822	-0.261386
C47	C	-4.126461	-0.070357	-0.108218
C48	C	-4.071137	-0.098754	-0.012145
H49	H	-4.112616	-0.269206	-0.270113
Cl50	Cl	-3.423314	-0.426929	-0.251076
H51	H	-3.722668	-0.634659	-0.254996
H52	H	-4.379540	-0.644812	-0.270625
H53	H	-4.422071	-0.795545	-0.269264
H54	H	-3.455751	-0.259040	-0.254501
Cl55	Cl	-4.240522	-0.439564	-0.270515
Cl56	Cl	-3.818338	0.256990	-0.675985
Cl57	Cl	-4.017772	0.060664	-0.995993
Cl58	Cl	-3.690233	-0.802541	-0.251579
H59	H	-3.855944	-0.078724	-0.542306
Cl60	Cl	-4.059466	-0.311569	-0.847762
H61	H	-3.981161	-0.245996	-0.714612
Cl62	Cl	-3.891079	-0.156659	-0.570427
Cl63	Cl	-4.132854	-0.251296	-1.051509
H64	H	-3.972343	0.090254	-0.913340
Cl65	Cl	-3.892554	0.227931	-0.823688
H66	H	-3.763461	0.172036	-0.497674
