data_functionalizedCrystal
_audit_creation_method	'MofGen! by Chris Wilmer'
_symmetry_space_group_name_H-M	'P1'
_symmetry_Int_Tables_number	1
_symmetry_cell_setting	triclinic
loop_
_symmetry_equiv_pos_as_xyz
  x,y,z
_cell_length_a	10.654534
_cell_length_b	14.048226
_cell_length_c	10.654550
_cell_angle_alpha	90.006260
_cell_angle_beta	95.518333
_cell_angle_gamma	89.992767
loop_
_atom_site_label
_atom_site_type_symbol
_atom_site_fract_x
_atom_site_fract_y
_atom_site_fract_z
O1	O	-1.667856	0.079178	0.176306
O2	O	-1.302375	0.079176	0.193133
O3	O	-1.493519	0.079171	0.001980
O4	O	-1.476713	0.079183	0.367460
O5	O	-1.493495	-0.079150	0.001969
O6	O	-1.302352	-0.079145	0.193122
O7	O	-1.667833	-0.079143	0.176295
Zn8	Zn	-1.485089	-0.104281	0.184706
Zn9	Zn	-1.485119	0.104314	0.184722
O10	O	-1.476689	-0.079138	0.367448
C11	C	-1.255565	0.000015	0.191896
C12	C	-1.116121	0.000014	0.188212
N13	N	-1.485077	-0.246642	0.184695
C14	C	-1.050603	-0.086288	0.186472
C15	C	-0.919583	-0.086291	0.182990
C16	C	-0.919609	0.086320	0.182994
C17	C	-1.050628	0.086321	0.186467
C18	C	-1.569742	-0.296462	0.100088
C19	C	-1.569751	-0.396119	0.100088
C20	C	-1.485099	-0.445955	0.184701
C21	C	-1.400424	-0.396128	0.269312
C22	C	-1.400411	-0.296472	0.269306
C23	C	-1.400461	-0.603842	0.269322
C24	C	-1.400476	-0.703505	0.269330
C25	C	-1.569801	-0.703490	0.100103
C26	C	-1.569787	-0.603834	0.100097
C27	C	-1.485114	-0.554013	0.184710
C28	C	-0.714642	0.000016	0.177542
C29	C	-0.854082	0.000011	0.181257
C30	C	-1.492273	0.000011	-0.044824
C31	C	-1.488581	0.000013	-0.184267
N32	N	-1.485141	0.246675	0.184723
C33	C	-1.601123	0.000014	-0.263759
C34	C	-1.597647	0.000025	-0.394779
C35	C	-1.369076	0.000031	-0.366803
C36	C	-1.372554	0.000026	-0.235785
C37	C	-1.477935	0.000024	0.414252
C38	C	-1.481627	0.000029	0.553695
H39	H	-1.103924	-0.156565	0.187893
H40	H	-1.695600	0.000005	-0.221817
H41	H	-0.866269	0.156588	0.181574
H42	H	-1.638744	-0.744059	0.031209
H43	H	-1.331542	-0.744076	0.338230
H44	H	-1.274610	0.000040	-0.408766
C45	C	-1.721447	0.000023	-0.482220
C46	C	-1.816187	-0.082196	-0.475764
C47	C	-1.939993	-0.082196	-0.563203
C48	C	-1.969059	0.000022	-0.657100
C49	C	-1.874317	0.082246	-0.663559
C50	C	-1.750511	0.082247	-0.576120
H51	H	-1.794672	-0.143064	-0.406253
H52	H	-2.010127	-0.143065	-0.558421
H53	H	-2.060708	0.000021	-0.721828
H54	H	-1.895831	0.143115	-0.733070
H55	H	-1.680376	0.143116	-0.580902
C56	C	-1.307279	-0.241667	0.362378
C57	C	-1.214207	-0.296481	0.455497
C58	C	-1.121068	-0.241677	0.548567
C59	C	-1.121000	-0.132059	0.548520
C60	C	-1.214076	-0.077239	0.455398
C61	C	-1.307215	-0.132043	0.362327
H62	H	-1.214254	-0.377632	0.455535
H63	H	-1.052167	-0.282259	0.617502
H64	H	-1.052053	-0.091491	0.617416
H65	H	-1.214029	0.003911	0.455360
H66	H	-1.376116	-0.091461	0.293392
H67	H	-1.280902	0.000028	-0.171059
H68	H	-1.103974	0.156604	0.187881
H69	H	-0.866245	-0.156567	0.181573
H70	H	-1.638681	-0.255892	0.031191
H71	H	-1.638691	-0.436683	0.031193
H72	H	-1.638723	-0.563258	0.031205
H73	H	-1.331506	-0.563282	0.338219
H74	H	-1.331493	-0.436710	0.338202
