data_functionalizedCrystal
_audit_creation_method	'MofGen! by Chris Wilmer'
_symmetry_space_group_name_H-M	'P1'
_symmetry_Int_Tables_number	1
_symmetry_cell_setting	triclinic
loop_
_symmetry_equiv_pos_as_xyz
  x,y,z
_cell_length_a	19.188905
_cell_length_b	19.188930
_cell_length_c	11.892095
_cell_angle_alpha	93.870839
_cell_angle_beta	86.107483
_cell_angle_gamma	83.139668
loop_
_atom_site_label
_atom_site_type_symbol
_atom_site_fract_x
_atom_site_fract_y
_atom_site_fract_z
O1	O	0.930643	0.082597	-0.094202
O2	O	0.727328	0.094352	-0.094166
O3	O	0.834852	-0.013181	-0.094163
O4	O	0.823119	0.190130	-0.094205
O5	O	0.825887	-0.004229	0.093844
O6	O	0.718363	0.103304	0.093842
O7	O	0.921678	0.091549	0.093805
Zn8	Zn	0.818597	0.098848	0.123674
Zn9	Zn	0.830409	0.087053	-0.124034
O10	O	0.814154	0.199082	0.093802
C11	C	0.696834	0.098450	-0.000157
C12	C	0.619328	0.097317	-0.000142
C13	C	0.587823	0.091893	-0.102627
C14	C	0.515000	0.090819	-0.102641
C15	C	0.473686	0.095156	-0.000164
C16	C	0.505198	0.100585	0.102336
C17	C	0.578019	0.101666	0.102346
N18	N	0.361029	0.057359	0.076109
N19	N	0.291853	0.056331	0.076092
C20	C	0.254281	0.091902	-0.000190
N21	N	0.288500	0.128531	-0.076471
N22	N	0.357683	0.129556	-0.076457
C23	C	0.394723	0.093985	-0.000164
C24	C	0.143813	0.085314	-0.102698
C25	C	0.070988	0.084245	-0.102707
C26	C	0.061189	0.094004	0.102272
C27	C	0.134012	0.095080	0.102279
C28	C	0.175320	0.090732	-0.000209
C29	C	0.829989	-0.034716	-0.000156
C30	C	0.828848	-0.112220	-0.000146
C31	C	0.891940	-0.157149	-0.000152
C32	C	0.890869	-0.229974	-0.000170
C33	C	0.826702	-0.257864	-0.000159
C34	C	0.763602	-0.212925	-0.000160
C35	C	0.764675	-0.140102	-0.000153
N36	N	0.774602	-0.362818	0.063832
N37	N	0.773587	-0.431997	0.063828
C38	C	0.823464	-0.477274	-0.000181
N39	N	0.874406	-0.450759	-0.064173
N40	N	0.875423	-0.381574	-0.064164
C41	C	0.825531	-0.336827	-0.000167
C42	C	0.885400	-0.601169	-0.000209
C43	C	0.884327	-0.673995	-0.000233
C44	C	0.757057	-0.656943	-0.000212
C45	C	0.758132	-0.584120	-0.000198
C46	C	0.822305	-0.556237	-0.000191
C47	C	0.952172	0.087451	-0.000206
C48	C	1.029679	0.088583	-0.000229
C49	C	0.819017	0.220616	-0.000207
C50	C	0.820159	0.298120	-0.000225
N51	N	0.810541	0.106897	0.292727
N52	N	0.838471	0.078998	-0.293088
C53	C	0.894530	0.022949	0.529377
C54	C	0.888904	0.028580	0.647719
C55	C	0.793659	0.123787	0.647755
C56	C	0.799286	0.118156	0.529413
C57	C	0.849723	0.067736	0.470228
C58	C	0.855352	0.062108	0.351885
C59	C	0.760105	0.157312	0.351923
C60	C	0.754479	0.162943	0.470264
H61	H	0.027551	0.097540	0.185712
O62	O	0.954241	-0.129992	-0.000310
C63	C	1.033984	-0.062341	-0.097759
C64	C	0.963403	-0.093043	-0.097702
H65	H	1.041421	-0.032473	-0.176504
H66	H	1.033933	-0.024892	-0.019132
H67	H	1.078877	-0.106979	-0.097714
H68	H	0.918470	-0.048451	-0.097787
H69	H	0.963514	-0.130510	-0.176323
H70	H	0.177447	0.081781	-0.186150
O71	O	0.952149	-0.273668	-0.000368
C72	C	1.029422	-0.370444	-0.097728
C73	C	0.960013	-0.321000	-0.097661
H74	H	1.035795	-0.408734	-0.176369
H75	H	1.075503	-0.338046	-0.097796
H76	H	1.028327	-0.401189	-0.019011
H77	H	0.961039	-0.290244	-0.176365
H78	H	0.913962	-0.353437	-0.097534
O79	O	0.932504	-0.014961	0.705002
C80	C	1.027534	-0.110021	0.692473
C81	C	0.978212	-0.060741	0.627460
H82	H	1.064491	-0.147056	0.629809
H83	H	1.059739	-0.077374	0.747823
H84	H	0.994844	-0.142151	0.747929
H85	H	1.010848	-0.028601	0.571942
H86	H	0.946004	-0.093429	0.572181
H87	H	0.935602	-0.018101	0.481188
H88	H	0.471556	0.104118	0.185774
H89	H	0.896422	0.021055	0.303697
H90	H	0.603669	0.106084	0.185805
H91	H	0.723623	0.193782	0.303750
O92	O	0.040499	0.078941	-0.202369
C93	C	0.057903	0.069401	-0.405676
C94	C	0.092525	0.075390	-0.292890
H95	H	0.099948	0.066544	-0.478892
H96	H	0.030624	0.019787	-0.410864
H97	H	0.017489	0.117494	-0.410762
H98	H	0.132968	0.027334	-0.287729
H99	H	0.119757	0.125034	-0.287750
O100	O	0.945680	-0.717541	-0.000190
C101	C	1.072027	-0.726767	-0.000256
C102	C	1.002595	-0.677369	-0.000280
H103	H	1.118062	-0.694309	-0.000352
H104	H	1.070997	-0.757538	0.078437
H105	H	1.078423	-0.765035	-0.078925
H106	H	0.996154	-0.639060	0.078336
H107	H	1.003656	-0.646648	-0.079024
O108	O	0.744570	0.172682	0.705213
C109	C	0.621320	0.215641	0.741448
C110	C	0.676841	0.160220	0.676323
H111	H	0.566550	0.205594	0.718097
H112	H	0.624936	0.211962	0.836201
H113	H	0.631379	0.270434	0.718200
H114	H	0.666818	0.105402	0.699477
H115	H	0.673211	0.163961	0.581586
O116	O	0.694783	-0.684141	-0.000157
C117	C	0.636729	-0.788775	-0.000243
C118	C	0.707303	-0.758062	-0.000270
H119	H	0.646828	-0.848545	-0.000359
H120	H	0.601794	-0.766569	0.078461
H121	H	0.609316	-0.773945	-0.078901
H122	H	0.734775	-0.772881	0.078334
H123	H	0.742187	-0.780268	-0.079026
H124	H	0.711356	-0.235638	-0.000153
H125	H	0.713296	-0.103520	-0.000148
H126	H	0.937653	-0.578466	-0.000208
O127	O	0.627995	0.087555	-0.202150
C128	C	0.724037	0.022666	-0.321055
C129	C	0.678582	0.027481	-0.208320
H130	H	0.764956	-0.025892	-0.326070
H131	H	0.689047	0.018559	-0.394356
H132	H	0.751789	0.071803	-0.326166
H133	H	0.650822	-0.021642	-0.203099
H134	H	0.713607	0.031623	-0.135073
O135	O	0.705393	0.211846	0.527713
C136	C	0.582147	0.254828	0.563933
C137	C	0.637662	0.199392	0.498824
H138	H	0.527375	0.244787	0.540582
H139	H	0.585760	0.251158	0.658688
H140	H	0.592218	0.309614	0.540668
H141	H	0.627628	0.144581	0.521993
H142	H	0.634035	0.203123	0.404084
H143	H	0.489343	0.086403	-0.186100
O144	O	0.164604	0.100217	0.201865
C145	C	0.186574	0.048435	0.377100
C146	C	0.151911	0.042520	0.264343
H147	H	0.176313	0.001802	0.427655
H148	H	0.245728	0.048420	0.359575
H149	H	0.163300	0.099500	0.427582
H150	H	0.175129	-0.008540	0.213805
H151	H	0.092758	0.042575	0.281947
O152	O	0.696777	-0.540567	-0.000127
C153	C	0.570435	-0.531345	-0.000171
C154	C	0.639870	-0.580747	-0.000220
H155	H	0.524409	-0.563812	-0.000270
H156	H	0.563956	-0.493101	0.078533
H157	H	0.571545	-0.500547	-0.078828
H158	H	0.638809	-0.611592	0.078384
H159	H	0.646323	-0.618945	-0.078976
