data_functionalizedCrystal
_audit_creation_method	'MofGen! by Chris Wilmer'
_symmetry_space_group_name_H-M	'P1'
_symmetry_Int_Tables_number	1
_symmetry_cell_setting	triclinic
loop_
_symmetry_equiv_pos_as_xyz
  x,y,z
_cell_length_a	16.120484
_cell_length_b	12.759401
_cell_length_c	12.759393
_cell_angle_alpha	89.983263
_cell_angle_beta	92.862882
_cell_angle_gamma	92.927176
loop_
_atom_site_label
_atom_site_type_symbol
_atom_site_fract_x
_atom_site_fract_y
_atom_site_fract_z
Zn1	Zn	-0.331816	1.584974	-0.615095
Zn2	Zn	0.168184	2.084974	-0.115095
Zn3	Zn	-0.471253	1.575926	-0.448308
Zn4	Zn	0.028747	2.075926	0.051692
Zn5	Zn	-0.331863	1.409273	-0.439443
Zn6	Zn	0.168137	1.909273	0.060557
Zn7	Zn	-0.471193	1.400326	-0.623951
Zn8	Zn	0.028807	1.900326	-0.123951
O9	O	-0.401531	1.492625	-0.531699
O10	O	0.098469	1.992625	-0.031699
O11	O	-0.350317	1.730795	-0.592974
O12	O	0.149683	2.230795	-0.092974
O13	O	-0.452808	1.553776	-0.300114
O14	O	0.047192	2.053776	0.199886
O15	O	-0.215192	1.440112	-0.455327
O16	O	0.284808	1.940112	0.044673
O17	O	-0.452762	1.724147	-0.470436
O18	O	0.047238	2.224147	0.029564
O19	O	-0.215156	1.569198	-0.584377
O20	O	0.284844	2.069198	-0.084377
O21	O	-0.350399	1.431338	-0.293600
O22	O	0.149601	1.931338	0.206400
O23	O	-0.350341	1.261066	-0.463914
O24	O	0.149659	1.761066	0.036086
O25	O	-0.452660	1.424862	-0.769794
O26	O	0.047340	1.924862	-0.269794
O27	O	-0.452706	1.254492	-0.599472
O28	O	0.047294	1.754492	-0.099472
O29	O	-0.350259	1.560523	-0.763288
O30	O	0.149741	2.060523	-0.263288
O31	O	-0.587911	1.545101	-0.479024
O32	O	-0.087911	2.045101	0.020976
O33	O	-0.587867	1.416088	-0.608068
O34	O	-0.087867	1.916088	-0.108068
C35	C	-0.618139	1.478670	-0.545492
C36	C	-0.118139	1.978670	-0.045492
C37	C	-0.710804	1.472796	-0.551428
C38	C	-0.210804	1.972796	-0.051428
C39	C	-0.401523	1.219658	-0.531693
C40	C	0.098477	1.719658	-0.031693
C41	C	-0.401539	1.102880	-0.531716
C42	C	0.098461	1.602880	-0.031716
C43	C	-0.401447	1.492704	-0.805727
C44	C	0.098553	1.992704	-0.305727
C45	C	-0.401411	1.492737	-0.922502
C46	C	0.098589	1.992737	-0.422502
C47	C	-0.880465	1.462078	-0.562287
C48	C	-0.380465	1.962078	-0.062287
C49	C	-0.921757	1.523359	-0.501129
C50	C	-0.421757	2.023359	-0.001129
C51	C	-1.016162	1.517396	-0.507171
C52	C	-0.516162	2.017396	-0.007171
C53	C	-0.786052	1.468041	-0.556246
C54	C	-0.286052	1.968041	-0.056246
C55	C	-0.184078	1.506662	-0.517875
C56	C	0.315922	2.006662	-0.017875
C57	C	-0.091413	1.512644	-0.511984
C58	C	0.408587	2.012644	-0.011984
C59	C	-0.401541	1.766657	-0.531706
C60	C	0.098459	2.266657	-0.031706
C61	C	-0.401545	1.883434	-0.531709
C62	C	0.098455	2.383434	-0.031709
C63	C	-0.454883	1.934836	-0.467916
C64	C	0.045117	2.434836	0.032084
C65	C	-0.454878	2.044560	-0.467917
C66	C	0.045122	2.544560	0.032083
C67	C	-0.348195	2.051470	-0.595511
C68	C	0.151805	2.551470	-0.095511
C69	C	-0.348196	1.941748	-0.595505
C70	C	0.151804	2.441748	-0.095505
C71	C	-0.508231	1.876521	-0.404121
C72	C	-0.008231	2.376521	0.095879
C73	C	-0.561574	1.927924	-0.340324
C74	C	-0.061574	2.427924	0.159676
C75	C	-0.561569	2.037648	-0.340324
C76	C	-0.061569	2.537648	0.159676
C77	C	-0.508222	2.095970	-0.404121
C78	C	-0.008222	2.595970	0.095879
C79	C	-0.348087	1.563385	-0.973977
C80	C	0.151913	2.063385	-0.473977
C81	C	-0.348056	1.563412	-1.083699
C82	C	0.151944	2.063412	-0.583699
C83	C	-0.454683	1.422140	-1.090461
C84	C	0.045317	1.922140	-0.590461
C85	C	-0.454709	1.422109	-0.980741
C86	C	0.045291	1.922109	-0.480741
C87	C	-0.294789	1.634014	-0.915738
C88	C	0.205211	2.134014	-0.415738
C89	C	-0.241461	1.704668	-0.967213
C90	C	0.258539	2.204668	-0.467213
C91	C	-0.241431	1.704695	-1.076935
C92	C	0.258569	2.204695	-0.576935
C93	C	-0.294729	1.634068	-1.135182
C94	C	0.205271	2.134068	-0.635182
C95	C	-0.401555	1.492610	-0.258733
C96	C	0.098445	1.992610	0.241267
C97	C	-0.401356	1.492795	-0.141944
C98	C	0.098644	1.992795	0.358056
H99	H	-0.916013	1.405140	-0.619178
H100	H	-0.416013	1.905140	-0.119178
H101	H	-0.886207	1.580301	-0.444232
H102	H	-0.386207	2.080301	0.055768
H103	H	-0.294810	1.634002	-0.826396
H104	H	0.205190	2.134002	-0.326396
H105	H	-0.198062	1.762164	-0.919781
H106	H	0.301938	2.262164	-0.419781
O107	O	-0.294697	1.634082	-1.253527
O108	O	0.205303	2.134082	-0.753527
H109	H	-0.311549	1.712239	-1.283539
H110	H	0.188451	2.212239	-0.783539
O111	O	-0.183904	1.780893	-1.132445
O112	O	0.316096	2.280893	-0.632445
H113	H	-0.141464	1.736620	-1.179724
H114	H	0.358536	2.236620	-0.679724
O115	O	-0.508228	1.758177	-0.404114
O116	O	-0.008228	2.258177	0.095886
H117	H	-0.554278	1.726261	-0.349030
H118	H	-0.054278	2.226261	0.150970
O119	O	-0.619093	2.093096	-0.271512
O120	O	-0.119093	2.593096	0.228488
H121	H	-0.656189	2.034109	-0.227156
H122	H	-0.156189	2.534109	0.272844
O123	O	-0.619108	1.865029	-0.271510
O124	O	-0.119108	2.365029	0.228490
H125	H	-0.610157	1.780096	-0.282231
H126	H	-0.110157	2.280096	0.217769
H127	H	-0.508216	2.185315	-0.404108
H128	H	-0.008216	2.685315	0.095892
O129	O	-0.290664	2.114367	-0.664327
O130	O	0.209336	2.614367	-0.164327
H131	H	-0.299630	2.199299	-0.653621
H132	H	0.200370	2.699299	-0.153621
H133	H	-0.498076	1.364638	-1.137895
H134	H	0.001924	1.864638	-0.637895
H135	H	-0.498118	1.364565	-0.938828
H136	H	0.001882	1.864565	-0.438828
O137	O	-0.290674	1.886294	-0.664313
O138	O	0.209326	2.386294	-0.164313
H139	H	-0.253587	1.945275	-0.708688
H140	H	0.246413	2.445275	-0.208688
