data_functionalizedCrystal
_audit_creation_method	'MofGen! by Chris Wilmer'
_symmetry_space_group_name_H-M	'P1'
_symmetry_Int_Tables_number	1
_symmetry_cell_setting	triclinic
loop_
_symmetry_equiv_pos_as_xyz
  x,y,z
_cell_length_a	18.426585
_cell_length_b	12.477989
_cell_length_c	12.478026
_cell_angle_alpha	67.745424
_cell_angle_beta	95.297774
_cell_angle_gamma	55.726983
loop_
_atom_site_label
_atom_site_type_symbol
_atom_site_fract_x
_atom_site_fract_y
_atom_site_fract_z
Zr1	Zr	0.643020	1.178129	-0.064012
O2	O	0.507392	1.402659	-0.221138
O3	O	0.690843	0.953594	-0.026055
O4	O	0.667797	1.178131	-0.235868
O5	O	0.541513	1.178123	0.165794
O6	O	0.787222	1.178138	-0.235872
O7	O	0.530438	1.178122	-0.011325
O8	O	0.828447	0.776483	0.139446
O9	O	0.500287	1.579778	-0.209524
O10	O	0.792819	1.045956	0.002467
O11	O	0.711958	1.045951	0.134652
O12	O	0.684824	1.310314	-0.112376
O13	O	0.603963	1.310309	0.019809
Zr14	Zr	0.851152	1.178142	0.218466
Zr15	Zr	0.833489	1.178141	-0.064018
Zr16	Zr	0.660683	1.178130	0.218473
Zr17	Zr	0.631689	1.460614	-0.045488
Zr18	Zr	0.862483	0.895657	0.199942
O19	O	0.803329	1.402677	0.180509
O20	O	0.778215	1.402676	-0.221147
O21	O	0.532506	1.402660	0.180518
O22	O	0.986780	0.953612	0.375593
O23	O	0.961666	0.953611	-0.026064
O24	O	0.715957	0.953595	0.375602
O25	O	0.952659	1.178148	-0.011339
O26	O	0.826375	1.178141	0.390322
O27	O	0.706950	1.178133	0.390326
O28	O	0.963734	1.178149	0.165780
O29	O	0.651685	1.579787	-0.209529
O30	O	0.842487	0.776484	0.363983
O31	O	0.993885	0.776493	0.363978
O32	O	0.979845	0.776492	0.139441
O33	O	0.514327	1.579779	0.015014
O34	O	0.665725	1.579788	0.015009
O35	O	0.809348	1.045957	0.266831
O36	O	0.890209	1.045962	0.134646
O37	O	0.782214	1.310320	0.019803
O38	O	0.701353	1.310315	0.151988
C39	C	0.761260	0.824790	0.054056
C40	C	0.766070	0.704868	0.046192
C41	C	0.508838	1.178121	0.077235
C42	C	0.427978	1.178116	0.077238
C43	C	0.131860	1.178161	0.077218
C44	C	0.214247	1.178155	0.077220
C45	C	0.279916	1.178139	0.077227
C46	C	0.362308	1.178132	0.077231
C47	C	0.985334	1.178151	0.077219
C48	C	1.066194	1.178156	0.077216
C49	C	0.724993	1.178134	-0.276118
C50	C	0.717494	1.178134	-0.396040
C51	C	0.732912	1.531481	0.100398
C52	C	0.728102	1.651403	0.108262
C53	C	0.769179	1.178137	0.430572
C54	C	0.776678	1.178137	0.550494
C55	C	0.999508	0.824805	0.054048
C56	C	1.085178	0.704888	0.046182
C57	C	0.783353	0.824792	0.407401
C58	C	0.795662	0.704870	0.519459
C59	C	1.021601	0.824807	0.407393
C60	C	1.114769	0.704890	0.519448
C61	C	0.472571	1.531464	-0.252939
C62	C	0.379403	1.651381	-0.364994
C63	C	0.494664	1.531466	0.100406
C64	C	0.408994	1.651383	0.108273
C65	C	0.710819	1.531479	-0.252947
C66	C	0.698510	1.651401	-0.365005
C67	C	1.074571	0.648571	-0.026521
C68	C	1.155058	0.535911	-0.033938
C69	C	1.246150	0.479564	0.031356
C70	C	1.256754	0.535893	0.104061
C71	C	1.176268	0.648558	0.111470
C72	C	0.852279	0.648557	0.641091
C73	C	0.863841	0.535893	0.746393
C74	C	0.818790	0.479538	0.730060
C75	C	0.762165	0.535862	0.608416
C76	C	0.750599	0.648531	0.503117
C77	C	1.200739	0.648579	0.503072
C78	C	1.288286	0.535920	0.608350
C79	C	1.289862	0.479567	0.730003
C80	C	1.203883	0.535890	0.746378
C81	C	1.116338	0.648554	0.641101
C82	C	0.293433	1.707706	-0.348616
C83	C	0.205884	1.820400	-0.453892
C84	C	0.204308	1.876759	-0.575545
C85	C	0.290287	1.820429	-0.591920
C86	C	0.377833	1.707745	-0.486645
C87	C	0.419599	1.707712	0.180964
C88	C	0.339110	1.820403	0.188352
C89	C	0.248017	1.876754	0.123055
C90	C	0.237413	1.820420	0.050355
C91	C	0.317901	1.707739	0.042961
C92	C	0.743575	1.707721	-0.348632
C93	C	0.732028	1.820385	-0.453913
C94	C	0.675411	1.876735	-0.575564
C95	C	0.630346	1.820404	-0.591935
C96	C	0.641899	1.707734	-0.486656
H97	H	0.833089	1.178133	-0.403535
H98	H	0.725488	0.489960	0.595137
H99	H	0.605196	1.661891	-0.500004
H100	H	0.802256	0.658897	-0.012972
H101	H	0.133016	1.968513	-0.661256
Br102	Br	0.623476	1.178110	-0.472649
H103	H	0.163235	1.866318	-0.002807
Br104	Br	0.673758	0.724936	0.338049
H105	H	1.199473	0.694445	0.404024
Br106	Br	1.206039	0.459395	0.911488
Br107	Br	0.793191	1.896817	-0.431666
H108	H	1.000405	0.694448	-0.079707
Br109	Br	0.303492	1.631299	-0.055694
Br110	Br	1.140644	0.459486	-0.132610
H111	H	1.358284	0.490073	0.594994
Br112	Br	1.355373	0.326659	0.021287
Br113	Br	1.380388	0.459401	0.192670
Br114	Br	1.190680	0.724967	0.210153
Br115	Br	0.834498	0.326628	0.872982
Br116	Br	0.913436	0.725007	0.663291
H117	H	0.691909	0.697382	0.167411
H118	H	1.361154	0.387828	0.815715
H119	H	0.294699	1.661825	-0.249570
H120	H	1.046342	0.694388	0.654453
Br121	Br	0.940694	0.459475	0.911465
Br122	Br	0.553502	1.896908	-0.757042
H123	H	0.135886	1.866245	-0.440534
Br124	Br	0.288131	1.896929	-0.757031
Br125	Br	0.543215	1.631265	0.269590
Br126	Br	0.494502	1.631310	-0.508896
Br127	Br	0.353523	1.896828	0.287024
H128	H	0.182487	1.968506	0.129086
H129	H	0.789677	1.661859	-0.249586
Br130	Br	0.659741	2.029648	-0.718431
