data_functionalizedCrystal
_audit_creation_method	'MofGen! by Chris Wilmer'
_symmetry_space_group_name_H-M	'P1'
_symmetry_Int_Tables_number	1
_symmetry_cell_setting	triclinic
loop_
_symmetry_equiv_pos_as_xyz
  x,y,z
_cell_length_a	17.640280
_cell_length_b	10.686220
_cell_length_c	10.686551
_cell_angle_alpha	89.691918
_cell_angle_beta	73.631970
_cell_angle_gamma	96.018024
loop_
_atom_site_label
_atom_site_type_symbol
_atom_site_fract_x
_atom_site_fract_y
_atom_site_fract_z
Zn1	Zn	-0.193149	-2.029519	-0.495722
Zn2	Zn	-0.336546	-2.055778	-0.236472
Zn3	Zn	-0.213416	-1.809642	-0.295045
Zn4	Zn	-0.334940	-1.861733	-0.462803
O5	O	-0.269513	-1.939168	-0.372511
O6	O	-0.204361	-2.206230	-0.450596
O7	O	-0.329366	-2.012318	-0.065537
O8	O	-0.099857	-1.806019	-0.359955
O9	O	-0.309714	-2.225523	-0.260125
O10	O	-0.084968	-1.967562	-0.507392
O11	O	-0.238903	-1.831482	-0.108570
O12	O	-0.237346	-1.643324	-0.328035
O13	O	-0.306978	-1.894800	-0.645875
O14	O	-0.326629	-1.681595	-0.451286
O15	O	-0.202805	-2.018072	-0.670060
O16	O	-0.447203	-2.062828	-0.228205
O17	O	-0.446023	-1.920263	-0.394490
C18	C	-0.284013	-1.617544	-0.392445
C19	C	-0.290234	-1.479959	-0.400997
C20	C	-0.475357	-2.000083	-0.301445
C21	C	-0.563411	-2.026258	-0.271079
C22	C	-0.252451	-1.959317	-0.705599
C23	C	-0.245181	-1.967904	-0.847542
C24	C	-0.850116	-1.740852	-0.603633
C25	C	-0.932858	-1.765448	-0.575058
C26	C	-0.934008	-1.914008	-0.402065
C27	C	-0.851264	-1.889430	-0.430629
C28	C	-0.809324	-1.802849	-0.531413
C29	C	-0.810472	-1.951427	-0.358409
C30	C	-0.727736	-1.926845	-0.386967
C31	C	-0.685791	-1.840266	-0.487744
C32	C	-0.726588	-1.778267	-0.559971
C33	C	-0.852414	-2.038000	-0.257619
C34	C	-0.811622	-2.099997	-0.185400
C35	C	-0.728884	-2.075422	-0.213963
C36	C	-0.686939	-1.988843	-0.314741
C37	C	-0.688087	-2.137421	-0.141737
C38	C	-0.605351	-2.112839	-0.170295
C39	C	-0.604203	-1.964261	-0.343299
C40	C	-0.062861	-1.878051	-0.443879
C41	C	0.025201	-1.852006	-0.474292
C42	C	-0.254956	-2.262048	-0.352499
C43	C	-0.248753	-2.399641	-0.343971
C44	C	-0.286447	-1.919151	-0.040733
C45	C	-0.293484	-1.910739	0.101147
H46	H	-0.570053	-1.893768	-0.425376
H47	H	-0.618423	-1.820243	-0.510986
H48	H	-0.208480	-1.436133	-0.288605
H49	H	-0.815966	-1.670359	-0.685711
O50	O	-0.338348	-1.436646	-0.467057
C51	C	-0.375647	-1.538941	-0.518392
H52	H	-0.376900	-1.628776	-0.459486
H53	H	-0.341137	-1.549975	-0.624596
C54	C	-0.459774	-1.404090	-0.582927
C55	C	-0.461320	-1.514425	-0.510570
H56	H	-0.512620	-1.388967	-0.578108
H57	H	-0.434644	-1.335170	-0.548346
H58	H	-0.431012	-1.413299	-0.671424
H59	H	-0.490073	-1.505210	-0.422073
H60	H	-0.486457	-1.583343	-0.545136
H61	H	-0.340403	-1.855232	-0.834191
O62	O	-0.932789	-2.061988	-0.229667
C63	C	-0.961057	-2.151714	-0.125243
H64	H	-0.916414	-2.150423	-0.066026
H65	H	-0.969017	-2.249354	-0.165308
C66	C	-1.096323	-2.121158	-0.109779
C67	C	-1.041493	-2.119565	-0.037041
H68	H	-1.145941	-2.101333	-0.055374
H69	H	-1.077278	-2.060712	-0.180134
H70	H	-1.102946	-2.202528	-0.143162
H71	H	-1.034863	-2.038193	-0.003673
H72	H	-1.060538	-2.179998	0.033323
H73	H	-0.198264	-2.023424	-0.912208
H74	H	-0.966065	-1.714971	-0.633890
H75	H	-0.692438	-1.707774	-0.642049
H76	H	-0.845781	-2.170487	-0.103338
O77	O	-0.728856	-2.221659	-0.043991
C78	C	-0.769362	-2.320142	-0.095288
H79	H	-0.738922	-2.326403	-0.204014
H80	H	-0.833585	-2.300745	-0.080380
C81	C	-0.805359	-2.437776	0.108951
C82	C	-0.767968	-2.445472	-0.024587
H83	H	-0.804503	-2.515085	0.152565
H84	H	-0.778072	-2.371425	0.143513
H85	H	-0.858875	-2.421607	0.121356
H86	H	-0.714452	-2.461625	-0.036990
H87	H	-0.795246	-2.511830	-0.059149
H88	H	-0.968166	-1.984498	-0.320002
H89	H	-0.572138	-2.163322	-0.111485
