data_functionalizedCrystal
_audit_creation_method	'MofGen! by Chris Wilmer'
_symmetry_space_group_name_H-M	'P1'
_symmetry_Int_Tables_number	1
_symmetry_cell_setting	triclinic
loop_
_symmetry_equiv_pos_as_xyz
  x,y,z
_cell_length_a	19.077105
_cell_length_b	16.625546
_cell_length_c	19.076919
_cell_angle_alpha	87.730083
_cell_angle_beta	89.923776
_cell_angle_gamma	87.718759
loop_
_atom_site_label
_atom_site_type_symbol
_atom_site_fract_x
_atom_site_fract_y
_atom_site_fract_z
Zn1	Zn	1.058283	-0.390077	0.440407
Zn2	Zn	1.391616	-0.056743	0.773740
Zn3	Zn	1.724949	0.276590	1.107073
Zn4	Zn	1.062927	-0.519720	0.322896
Zn5	Zn	1.396260	-0.186387	0.656230
Zn6	Zn	1.729593	0.146947	0.989563
Zn7	Zn	0.945500	-0.379275	0.318200
Zn8	Zn	1.278833	-0.045942	0.651534
Zn9	Zn	1.612167	0.287391	0.984867
Zn10	Zn	0.940748	-0.519234	0.435649
Zn11	Zn	1.274082	-0.185900	0.768982
Zn12	Zn	1.607415	0.147433	1.102316
O13	O	1.001864	-0.452076	0.379288
O14	O	1.335198	-0.118743	0.712621
O15	O	1.668531	0.214590	1.045955
O16	O	1.157231	-0.411998	0.428775
O17	O	1.490564	-0.078665	0.762108
O18	O	1.823897	0.254669	1.095442
O19	O	1.051282	-0.496773	0.223942
O20	O	1.384615	-0.163439	0.557276
O21	O	1.717949	0.169894	0.890609
O22	O	0.960506	-0.267879	0.334437
O23	O	1.293839	0.065454	0.667771
O24	O	1.627173	0.398788	1.001104
O25	O	1.160642	-0.507246	0.342441
O26	O	1.493976	-0.173913	0.675774
O27	O	1.827309	0.159420	1.009107
O28	O	1.043367	-0.275815	0.424222
O29	O	1.376700	0.057519	0.757555
O30	O	1.710034	0.390852	1.090888
O31	O	0.965009	-0.393589	0.220492
O32	O	1.298342	-0.060255	0.553826
O33	O	1.631676	0.273078	0.887159
O34	O	0.846538	-0.393117	0.329824
O35	O	1.179871	-0.059784	0.663157
O36	O	1.513204	0.273549	0.996490
O37	O	0.952407	-0.506418	0.534611
O38	O	1.285741	-0.173084	0.867945
O39	O	1.619074	0.160249	1.201278
O40	O	0.843047	-0.495944	0.416113
O41	O	1.176380	-0.162611	0.749446
O42	O	1.509713	0.170723	1.082779
O43	O	1.038759	-0.411527	0.538107
O44	O	1.372093	-0.078193	0.871440
O45	O	1.705426	0.255140	1.204773
O46	O	1.046674	-0.632485	0.337827
O47	O	1.380008	-0.299151	0.671161
O48	O	1.713341	0.034182	1.004494
O49	O	0.956910	-0.632127	0.420666
O50	O	1.290244	-0.298794	0.753999
O51	O	1.623577	0.034539	1.087333
C52	C	0.819296	-0.443306	0.371943
C53	C	1.152629	-0.109973	0.705276
C54	C	1.485963	0.223360	1.038609
C55	C	0.741192	-0.439575	0.368817
C56	C	1.074525	-0.106241	0.702150
C57	C	1.407858	0.227092	1.035484
C58	C	0.702702	-0.491432	0.412204
C59	C	1.036035	-0.158099	0.745537
C60	C	1.369368	0.175234	1.078871
C61	C	0.629314	-0.487916	0.409270
C62	C	0.962648	-0.154582	0.742604
C63	C	1.295981	0.178751	1.075937
C64	C	0.594418	-0.432544	0.362946
C65	C	0.927752	-0.099211	0.696279
C66	C	1.261085	0.234122	1.029613
C67	C	0.632913	-0.380681	0.319557
C68	C	0.966247	-0.047348	0.652891
C69	C	1.299580	0.285986	0.986224
C70	C	0.706299	-0.384194	0.322495
C71	C	1.039633	-0.050861	0.655828
C72	C	1.372966	0.282472	0.989162
C73	C	0.375130	-0.416284	0.349354
C74	C	0.708464	-0.082950	0.682687
C75	C	1.041797	0.250383	1.016021
C76	C	0.301739	-0.412776	0.346418
C77	C	0.635073	-0.079442	0.679751
C78	C	0.968406	0.253891	1.013085
C79	C	0.298145	-0.520010	0.436133
C80	C	0.631478	-0.186676	0.769466
C81	C	0.964812	0.146657	1.102799
C82	C	0.371533	-0.523522	0.439063
C83	C	0.704866	-0.190188	0.772396
C84	C	1.038199	0.143145	1.105730
C85	C	0.410021	-0.471655	0.395677
C86	C	0.743355	-0.138322	0.729010
C87	C	1.076688	0.195011	1.062344
N88	N	0.519405	-0.428950	0.359945
N89	N	0.852738	-0.095617	0.693278
N90	N	1.186071	0.237717	1.026611
N91	N	0.485034	-0.475247	0.398682
N92	N	0.818367	-0.141913	0.732016
N93	N	1.151700	0.191420	1.065349
C94	C	1.001799	-0.661563	0.379256
C95	C	1.335132	-0.328230	0.712589
C96	C	1.668466	0.005104	1.045923
C97	C	1.001834	-0.751186	0.379268
C98	C	1.335168	-0.417853	0.712602
C99	C	1.668501	-0.084519	1.045935
C100	C	1.001954	-1.079371	0.379346
C101	C	1.335287	-0.746037	0.712680
C102	C	1.668621	-0.412704	1.046013
C103	C	1.001918	-0.988060	0.379327
C104	C	1.335252	-0.654726	0.712660
C105	C	1.668585	-0.321393	1.045993
C106	C	1.001894	-0.915281	0.379307
C107	C	1.335227	-0.581948	0.712640
C108	C	1.668560	-0.248615	1.045974
C109	C	1.001859	-0.823965	0.379288
C110	C	1.335193	-0.490631	0.712621
C111	C	1.668526	-0.157298	1.045955
C112	C	1.185146	-0.460881	0.386662
C113	C	1.518479	-0.127548	0.719996
C114	C	1.851812	0.205785	1.053329
C115	C	1.263249	-0.464634	0.389805
C116	C	1.596583	-0.131300	0.723138
C117	C	1.929916	0.202033	1.056472
C118	C	0.994535	-0.460123	0.562568
C119	C	1.327869	-0.126789	0.895901
C120	C	1.661202	0.206544	1.229235
C121	C	0.991412	-0.463552	0.640671
C122	C	1.324745	-0.130218	0.974004
C123	C	1.658079	0.203115	1.307338
C124	C	1.001948	-0.241774	0.379336
C125	C	1.335282	0.091560	0.712670
C126	C	1.668615	0.424893	1.046003
C127	C	1.001984	-0.152155	0.379357
C128	C	1.335318	0.181178	0.712690
C129	C	1.668651	0.514512	1.046024
C130	C	1.009205	-0.444005	0.196723
C131	C	1.342539	-0.110672	0.530056
C132	C	1.675872	0.222661	0.863389
C133	C	1.012465	-0.440356	0.118626
C134	C	1.345798	-0.107022	0.451959
C135	C	1.679132	0.226311	0.785292
C136	C	1.034901	-0.415760	0.679185
C137	C	1.368234	-0.082427	1.012518
C138	C	1.701568	0.250907	1.345852
C139	C	1.031958	-0.418978	0.752571
C140	C	1.365291	-0.085645	1.085904
C141	C	1.698625	0.247688	1.419237
C142	C	0.985529	-0.469993	0.787441
C143	C	1.318862	-0.136660	1.120775
C144	C	1.652195	0.196674	1.454108
C145	C	0.942035	-0.517786	0.748922
C146	C	1.275368	-0.184453	1.082255
C147	C	1.608701	0.148880	1.415589
C148	C	0.944975	-0.514563	0.675537
C149	C	1.278308	-0.181230	1.008871
C150	C	1.611641	0.152103	1.342204
C151	C	0.971911	-0.484926	1.006722
C152	C	1.305244	-0.151593	1.340055
C153	C	1.638578	0.181741	1.673389
C154	C	0.968976	-0.488147	1.080112
C155	C	1.302309	-0.154814	1.413445
C156	C	1.635642	0.178519	1.746778
C157	C	1.058898	-0.389338	1.083755
C158	C	1.392232	-0.056004	1.417089
C159	C	1.725565	0.277329	1.750422
C160	C	1.061837	-0.386123	1.010369
C161	C	1.395171	-0.052790	1.343703
C162	C	1.728504	0.280544	1.677036
C163	C	1.018341	-0.433913	0.971856
C164	C	1.351674	-0.100580	1.305190
C165	C	1.685008	0.232754	1.638523
N166	N	0.982521	-0.473286	0.862453
N167	N	1.315854	-0.139952	1.195787
N168	N	1.649187	0.193381	1.529120
N169	N	1.021346	-0.430616	0.896846
N170	N	1.354679	-0.097282	1.230179
N171	N	1.688013	0.236051	1.563512
H172	H	0.597979	-0.530145	0.444600
H173	H	0.931312	-0.196811	0.777933
H174	H	1.264645	0.136522	1.111267
H175	H	0.936503	-0.523853	0.975374
H176	H	1.269837	-0.190519	1.308707
H177	H	1.603170	0.142814	1.642040
H178	H	0.909554	-0.553472	0.644180
H179	H	1.242887	-0.220138	0.977513
H180	H	1.576221	0.113195	1.310847
O181	O	0.897031	-0.567433	0.782829
O182	O	1.230365	-0.234100	1.116163
O183	O	1.563698	0.099234	1.449496
C184	C	0.935314	-0.623284	0.826890
C185	C	1.268648	-0.289951	1.160223
C186	C	1.601981	0.043383	1.493556
H187	H	0.991541	-0.629954	0.807003
H188	H	1.324874	-0.296620	1.140336
H189	H	1.658208	0.036713	1.473670
H190	H	0.909840	-0.684149	0.826683
H191	H	1.243174	-0.350815	1.160016
H192	H	1.576507	-0.017482	1.493350
H193	H	0.935519	-0.600914	0.882610
H194	H	1.268852	-0.267581	1.215943
H195	H	1.602185	0.065753	1.549277
O196	O	0.736485	-0.545244	0.457267
O197	O	1.069818	-0.211911	0.790600
O198	O	1.403152	0.121422	1.123933
C199	C	0.686773	-0.590273	0.494920
C200	C	1.020106	-0.256939	0.828253
C201	C	1.353439	0.076394	1.161587
H202	H	0.634372	-0.554855	0.495309
H203	H	0.967705	-0.221522	0.828642
H204	H	1.301038	0.111812	1.161976
H205	H	0.705770	-0.602416	0.551120
H206	H	1.039103	-0.269083	0.884453
H207	H	1.372437	0.064251	1.217787
H208	H	0.679977	-0.649956	0.468780
H209	H	1.013311	-0.316623	0.802114
H210	H	1.346644	0.016710	1.135447
H211	H	1.067373	-0.380063	0.783926
H212	H	1.400706	-0.046730	1.117259
H213	H	1.734040	0.286603	1.450592
H214	H	1.072711	-0.374221	0.650799
H215	H	1.406045	-0.040888	0.984132
H216	H	1.739378	0.292446	1.317466
H217	H	1.094310	-0.350429	1.115120
H218	H	1.427643	-0.017095	1.448454
H219	H	1.760977	0.316238	1.781787
H220	H	0.406459	-0.374056	0.314021
H221	H	0.739793	-0.040723	0.647354
H222	H	1.073126	0.292610	0.980687
O223	O	0.405317	-0.577333	0.484125
O224	O	0.738650	-0.243999	0.817459
O225	O	1.071984	0.089334	1.150792
C226	C	0.355608	-0.622366	0.521779
C227	C	0.688941	-0.289033	0.855112
C228	C	1.022274	0.044301	1.188445
H229	H	0.303206	-0.586950	0.522174
H230	H	0.636540	-0.253616	0.855507
H231	H	0.969873	0.079717	1.188841
H232	H	0.374609	-0.634515	0.577976
H233	H	0.707943	-0.301182	0.911310
H234	H	1.041276	0.032151	1.244643
H235	H	0.348811	-0.682047	0.495634
H236	H	0.682145	-0.348714	0.828968
H237	H	1.015478	-0.015380	1.162301
O238	O	0.260649	-0.570302	0.478253
O239	O	0.593982	-0.236969	0.811586
O240	O	0.927316	0.096364	1.144919
C241	C	0.188394	-0.555345	0.465717
C242	C	0.521728	-0.222012	0.799050
C243	C	0.855061	0.111322	1.132384
H244	H	0.179299	-0.491595	0.442399
H245	H	0.512632	-0.158261	0.775732
H246	H	0.845966	0.175072	1.109065
H247	H	0.158410	-0.561882	0.517227
H248	H	0.491744	-0.228549	0.850561
H249	H	0.825077	0.104785	1.183894
H250	H	0.169046	-0.600463	0.427390
H251	H	0.502379	-0.267129	0.760724
H252	H	0.835713	0.066204	1.094057
H253	H	1.099647	-0.344584	0.981983
H254	H	1.432980	-0.011250	1.315316
H255	H	1.766314	0.322083	1.648650
H256	H	0.273329	-0.367677	0.308699
H257	H	0.606662	-0.034343	0.642033
H258	H	0.939996	0.298990	0.975366
O259	O	0.923907	-0.537811	1.113914
O260	O	1.257240	-0.204477	1.447247
O261	O	1.590574	0.128856	1.780580
C262	C	0.939951	-0.618126	1.096599
C263	C	1.273284	-0.284793	1.429932
C264	C	1.606617	0.048540	1.763265
H265	H	0.969089	-0.618764	1.044401
H266	H	1.302422	-0.285431	1.377734
H267	H	1.635755	0.047903	1.711067
H268	H	0.889319	-0.651728	1.092046
H269	H	1.222653	-0.318394	1.425379
H270	H	1.555986	0.014939	1.758712
H271	H	0.974416	-0.648832	1.139347
H272	H	1.307749	-0.315499	1.472680
H273	H	1.641083	0.017834	1.806014
O274	O	0.598987	-0.327001	0.274484
O275	O	0.932321	0.006332	0.607818
O276	O	1.265654	0.339666	0.941151
C277	C	0.558319	-0.368793	0.227338
C278	C	0.891652	-0.035460	0.560671
C279	C	1.224985	0.297874	0.894004
H280	H	0.580594	-0.433152	0.223777
H281	H	0.913927	-0.099818	0.557111
H282	H	1.247260	0.233515	0.890444
H283	H	0.559641	-0.337118	0.173275
H284	H	0.892975	-0.003784	0.506608
H285	H	1.226308	0.329549	0.839942
H286	H	0.501837	-0.369904	0.246835
H287	H	0.835170	-0.036570	0.580168
H288	H	1.168503	0.296763	0.913502
O289	O	0.743585	-0.333791	0.280274
O290	O	1.076918	-0.000457	0.613607
O291	O	1.410252	0.332876	0.946941
C292	C	0.697050	-0.284153	0.238767
C293	C	1.030383	0.049180	0.572100
C294	C	1.363717	0.382514	0.905434
H295	H	0.644827	-0.314560	0.234189
H296	H	0.978160	0.018774	0.567523
H297	H	1.311493	0.352107	0.900856
H298	H	0.720458	-0.274041	0.184265
H299	H	1.053791	0.059292	0.517598
H300	H	1.387125	0.392626	0.850931
H301	H	0.688237	-0.223721	0.264281
H302	H	1.021570	0.109612	0.597615
H303	H	1.354903	0.442946	0.930948
