data_functionalizedCrystal
_audit_creation_method	'MofGen! by Chris Wilmer'
_symmetry_space_group_name_H-M	'P1'
_symmetry_Int_Tables_number	1
_symmetry_cell_setting	triclinic
loop_
_symmetry_equiv_pos_as_xyz
  x,y,z
_cell_length_a	29.839133
_cell_length_b	29.839134
_cell_length_c	29.839126
_cell_angle_alpha	89.970362
_cell_angle_beta	90.013855
_cell_angle_gamma	89.975535
loop_
_atom_site_label
_atom_site_type_symbol
_atom_site_fract_x
_atom_site_fract_y
_atom_site_fract_z
Zn1	Zn	-0.178949	-0.686790	0.254157
Zn2	Zn	0.321051	-0.186790	0.754157
Zn3	Zn	-0.254070	-0.686728	0.179041
Zn4	Zn	0.245930	-0.186728	0.679041
Zn5	Zn	-0.178948	-0.611663	0.179027
Zn6	Zn	0.321052	-0.111663	0.679027
Zn7	Zn	-0.254046	-0.611637	0.254129
Zn8	Zn	0.245954	-0.111637	0.754129
O9	O	-0.216503	-0.649205	0.216588
O10	O	0.283497	-0.149205	0.716588
O11	O	-0.188925	-0.749649	0.244210
O12	O	0.311075	-0.249649	0.744210
O13	O	-0.244114	-0.676756	0.116172
O14	O	0.255886	-0.176756	0.616172
O15	O	-0.116081	-0.621666	0.188999
O16	O	0.383919	-0.121666	0.688999
O17	O	-0.244115	-0.749603	0.189023
O18	O	0.255885	-0.249603	0.689023
O19	O	-0.116082	-0.676862	0.244197
O20	O	0.383918	-0.176862	0.744197
O21	O	-0.188922	-0.621606	0.116161
O22	O	0.311078	-0.121606	0.616161
O23	O	-0.188899	-0.548793	0.188972
O24	O	0.311101	-0.048793	0.688972
O25	O	-0.244075	-0.621621	0.317000
O26	O	0.255925	-0.121621	0.817000
O27	O	-0.244074	-0.548773	0.244149
O28	O	0.255926	-0.048773	0.744149
O29	O	-0.188902	-0.676836	0.317021
O30	O	0.311098	-0.176836	0.817021
O31	O	-0.316934	-0.676730	0.188995
O32	O	0.183066	-0.176730	0.688995
O33	O	-0.316916	-0.621560	0.244162
O34	O	0.183084	-0.121560	0.744162
C35	C	-0.216484	-0.532482	0.216556
C36	C	0.283516	-0.032482	0.716556
C37	C	-0.216487	-0.482548	0.216553
C38	C	0.283513	0.017452	0.716553
C39	C	-0.333226	-0.649148	0.216587
C40	C	0.166774	-0.149148	0.716587
C41	C	-0.383160	-0.649164	0.216602
C42	C	0.116840	-0.149164	0.716602
C43	C	-0.216486	-0.649232	0.333767
C44	C	0.283514	-0.149232	0.833767
C45	C	-0.216479	-0.649244	0.383701
C46	C	0.283521	-0.149244	0.883701
C47	C	-0.739713	-0.677961	0.245363
C48	C	-0.239713	-0.177961	0.745363
C49	C	-0.552040	-0.677919	0.245362
C50	C	-0.052040	-0.177919	0.745362
O51	O	-0.527746	-0.702345	0.269810
O52	O	-0.027746	-0.202345	0.769810
N53	N	-0.528605	-0.649200	0.216601
N54	N	-0.028605	-0.149200	0.716601
C55	C	-0.552092	-0.620491	0.187835
C56	C	-0.052092	-0.120491	0.687835
O57	O	-0.527853	-0.596066	0.163368
O58	O	-0.027853	-0.096066	0.663368
C59	C	-0.739764	-0.620536	0.187833
C60	C	-0.239764	-0.120536	0.687833
C61	C	-0.763196	-0.649254	0.216600
C62	C	-0.263196	-0.149254	0.716600
C63	C	-0.763145	-0.706677	0.274127
C64	C	-0.263145	-0.206677	0.774127
C65	C	-0.810061	-0.706686	0.274129
C66	C	-0.310061	-0.206686	0.774129
C67	C	-0.833544	-0.677979	0.245366
C68	C	-0.333544	-0.177979	0.745366
C69	C	-0.810112	-0.649263	0.216602
C70	C	-0.310112	-0.149263	0.716602
C71	C	-0.763250	-0.591830	0.159065
C72	C	-0.263250	-0.091830	0.659065
C73	C	-0.810171	-0.591845	0.159067
C74	C	-0.310171	-0.091845	0.659067
C75	C	-0.833603	-0.620563	0.187834
C76	C	-0.333603	-0.120563	0.687834
C77	C	-0.880510	-0.620564	0.187841
C78	C	-0.380510	-0.120564	0.687841
N79	N	-0.903945	-0.649283	0.216603
N80	N	-0.403945	-0.149283	0.716603
C81	C	-0.880462	-0.677991	0.245365
C82	C	-0.380462	-0.177991	0.745365
C83	C	-0.453561	-0.620469	0.187838
C84	C	0.046439	-0.120469	0.687838
C85	C	-0.406644	-0.620457	0.187839
C86	C	0.093356	-0.120457	0.687839
C87	C	-0.406595	-0.677885	0.245366
C88	C	0.093405	-0.177885	0.745366
C89	C	-0.453513	-0.677895	0.245367
C90	C	0.046487	-0.177895	0.745367
C91	C	-0.476996	-0.649188	0.216600
C92	C	0.023004	-0.149188	0.716600
C93	C	-0.978988	-0.678006	0.245367
C94	C	-0.478988	-0.178006	0.745367
C95	C	-1.025907	-0.678011	0.245367
C96	C	-0.525907	-0.178011	0.745367
C97	C	-1.025952	-0.620584	0.187838
C98	C	-0.525952	-0.120584	0.687838
C99	C	-0.979036	-0.620578	0.187839
C100	C	-0.479036	-0.120578	0.687839
C101	C	-0.955555	-0.649292	0.216605
C102	C	-0.455555	-0.149292	0.716605
O103	O	-0.904833	-0.596154	0.163403
O104	O	-0.404833	-0.096154	0.663403
O105	O	-0.904709	-0.702419	0.269822
O106	O	-0.404709	-0.202419	0.769822
C107	C	-0.692798	-0.677953	0.245361
C108	C	-0.192798	-0.177953	0.745361
C109	C	-0.669365	-0.649237	0.216597
C110	C	-0.169365	-0.149237	0.716597
C111	C	-0.692849	-0.620530	0.187834
C112	C	-0.192849	-0.120530	0.687834
C113	C	-0.622448	-0.649225	0.216598
C114	C	-0.122448	-0.149225	0.716598
C115	C	-0.598964	-0.677932	0.245361
C116	C	-0.098964	-0.177932	0.745361
C117	C	-0.622399	-0.706652	0.274123
C118	C	-0.122399	-0.206652	0.774123
C119	C	-0.669314	-0.706660	0.274124
C120	C	-0.169314	-0.206660	0.774124
C121	C	-0.669414	-0.591810	0.159072
C122	C	-0.169414	-0.091810	0.659072
C123	C	-0.622499	-0.591804	0.159074
C124	C	-0.122499	-0.091804	0.659074
C125	C	-0.599015	-0.620511	0.187836
C126	C	-0.099015	-0.120511	0.687836
C127	C	-0.099325	-0.649274	0.216600
C128	C	0.400675	-0.149274	0.716600
C129	C	-0.049390	-0.649304	0.216604
C130	C	0.450610	-0.149304	0.716604
C131	C	-0.216523	-0.766383	0.216621
C132	C	0.283477	-0.266383	0.716621
C133	C	-0.216531	-0.816317	0.216635
C134	C	0.283469	-0.316317	0.716635
C135	C	-0.245275	-0.172903	0.245284
C136	C	0.254725	0.327097	0.745284
C137	C	-0.245288	0.014770	0.245304
C138	C	0.254712	0.514770	0.745304
O139	O	-0.269743	0.039035	0.269713
O140	O	0.230257	0.539035	0.769713
N141	N	-0.216520	0.038237	0.216622
N142	N	0.283480	0.538237	0.716622
C143	C	-0.187744	0.014784	0.187936
C144	C	0.312256	0.514784	0.687936
O145	O	-0.163272	0.039051	0.163544
O146	O	0.336728	0.539051	0.663544
C147	C	-0.187730	-0.172888	0.187918
C148	C	0.312270	0.327112	0.687918
C149	C	-0.216503	-0.196353	0.216599
C150	C	0.283497	0.303647	0.716599
C151	C	-0.274045	-0.196369	0.273963
C152	C	0.225955	0.303631	0.773963
C153	C	-0.274044	-0.243284	0.273956
C154	C	0.225956	0.256716	0.773956
C155	C	-0.245272	-0.266734	0.245270
C156	C	0.254728	0.233266	0.745270
C157	C	-0.216501	-0.243269	0.216592
C158	C	0.283499	0.256731	0.716592
C159	C	-0.158953	-0.196340	0.159234
C160	C	0.341047	0.303660	0.659234
C161	C	-0.158951	-0.243261	0.159233
C162	C	0.341049	0.256739	0.659233
C163	C	-0.187724	-0.266727	0.187913
C164	C	0.312276	0.233273	0.687913
C165	C	-0.187727	-0.313634	0.187899
C166	C	0.312273	0.186366	0.687899
N167	N	-0.216495	-0.337102	0.216581
N168	N	0.283505	0.162898	0.716581
C169	C	-0.245267	-0.313652	0.245266
C170	C	0.254733	0.186348	0.745266
C171	C	-0.187755	0.113315	0.187946
C172	C	0.312245	0.613315	0.687946
C173	C	-0.187759	0.160233	0.187950
C174	C	0.312241	0.660233	0.687950
C175	C	-0.245302	0.160215	0.245319
C176	C	0.254698	0.660215	0.745319
C177	C	-0.245300	0.113296	0.245313
C178	C	0.254700	0.613296	0.745313
C179	C	-0.216523	0.089847	0.216628
C180	C	0.283477	0.589847	0.716628
C181	C	-0.245262	-0.412178	0.245249
C182	C	0.254738	0.087822	0.745249
C183	C	-0.245259	-0.459098	0.245238
C184	C	0.254741	0.040902	0.745238
C185	C	-0.187715	-0.459076	0.187871
C186	C	0.312285	0.040924	0.687871
C187	C	-0.187719	-0.412160	0.187880
C188	C	0.312281	0.087840	0.687880
C189	C	-0.216494	-0.388713	0.216573
C190	C	0.283506	0.111287	0.716573
O191	O	-0.163281	-0.337929	0.163506
O192	O	0.336719	0.162071	0.663506
O193	O	-0.269729	-0.337927	0.269662
O194	O	0.230271	0.162073	0.769662
C195	C	-0.245277	-0.125988	0.245291
C196	C	0.254723	0.374012	0.745291
C197	C	-0.216506	-0.102523	0.216613
C198	C	0.283494	0.397477	0.716613
C199	C	-0.187734	-0.125972	0.187927
C200	C	0.312266	0.374028	0.687927
C201	C	-0.216511	-0.055605	0.216616
C202	C	0.283489	0.444395	0.716616
C203	C	-0.245283	-0.032155	0.245302
C204	C	0.254717	0.467845	0.745302
C205	C	-0.274051	-0.055623	0.273984
C206	C	0.225949	0.444377	0.773984
C207	C	-0.274049	-0.102538	0.273977
C208	C	0.225951	0.397462	0.773977
C209	C	-0.158966	-0.102505	0.159245
C210	C	0.341034	0.397495	0.659245
C211	C	-0.158971	-0.055589	0.159254
C212	C	0.341029	0.444411	0.659254
C213	C	-0.187743	-0.032139	0.187940
C214	C	0.312257	0.467861	0.687940
C215	C	-0.216488	-0.649203	0.099866
C216	C	0.283512	-0.149203	0.599866
C217	C	-0.216369	-0.649278	0.049932
C218	C	0.283631	-0.149278	0.549932
C219	C	-0.187695	-0.620537	0.693342
C220	C	0.312305	-0.120537	1.193342
C221	C	-0.187664	-0.620549	0.881015
C222	C	0.312336	-0.120549	1.381015
O223	O	-0.163236	-0.596119	0.905278
O224	O	0.336764	-0.096119	1.405278
N225	N	-0.216394	-0.649266	0.904487
N226	N	0.283606	-0.149266	1.404487
C227	C	-0.245137	-0.677978	0.881036
C228	C	0.254863	-0.177978	1.381036
O229	O	-0.269576	-0.702400	0.905306
O230	O	0.230424	-0.202400	1.405306
C231	C	-0.245170	-0.677963	0.693364
C232	C	0.254830	-0.177963	1.193364
C233	C	-0.216434	-0.649248	0.669896
C234	C	0.283566	-0.149248	1.169896
C235	C	-0.158963	-0.591824	0.669874
C236	C	0.341037	-0.091824	1.169874
C237	C	-0.158969	-0.591823	0.622958
C238	C	0.341031	-0.091823	1.122958
C239	C	-0.187708	-0.620534	0.599511
C240	C	0.312292	-0.120534	1.099511
C241	C	-0.216441	-0.649247	0.622980
C242	C	0.283559	-0.149247	1.122980
C243	C	-0.273914	-0.706673	0.669915
C244	C	0.226086	-0.206673	1.169915
C245	C	-0.273920	-0.706666	0.622994
C246	C	0.226080	-0.206666	1.122994
C247	C	-0.245185	-0.677951	0.599525
C248	C	0.254815	-0.177951	1.099525
C249	C	-0.245186	-0.677958	0.552618
C250	C	0.254814	-0.177958	1.052618
N251	N	-0.216456	-0.649242	0.529147
N252	N	0.283544	-0.149242	1.029147
C253	C	-0.187717	-0.620530	0.552594
C254	C	0.312283	-0.120530	1.052594
C255	C	-0.245116	-0.677985	0.979567
C256	C	0.254884	-0.177985	1.479567
C257	C	-0.245108	-0.677990	1.026485
C258	C	0.254892	-0.177990	1.526485
C259	C	-0.187636	-0.620560	1.026461
C260	C	0.312364	-0.120560	1.526461
C261	C	-0.187643	-0.620558	0.979542
C262	C	0.312357	-0.120558	1.479542
C263	C	-0.216386	-0.649269	0.956096
C264	C	0.283614	-0.149269	1.456096
C265	C	-0.187732	-0.620530	0.454068
C266	C	0.312268	-0.120530	0.954068
C267	C	-0.187740	-0.620533	0.407148
C268	C	0.312260	-0.120533	0.907148
C269	C	-0.245213	-0.677960	0.407176
C270	C	0.254787	-0.177960	0.907176
C271	C	-0.245204	-0.677960	0.454092
C272	C	0.254796	-0.177960	0.954092
C273	C	-0.216462	-0.649241	0.477536
C274	C	0.283538	-0.149241	0.977536
O275	O	-0.269605	-0.702372	0.528326
O276	O	0.230395	-0.202372	1.028326
O277	O	-0.163288	-0.596105	0.528316
O278	O	0.336712	-0.096105	1.028316
C279	C	-0.187689	-0.620538	0.740258
C280	C	0.312311	-0.120538	1.240258
C281	C	-0.216422	-0.649251	0.763726
C282	C	0.283578	-0.149251	1.263726
C283	C	-0.245161	-0.677962	0.740280
C284	C	0.254839	-0.177962	1.240280
C285	C	-0.216413	-0.649255	0.810644
C286	C	0.283587	-0.149255	1.310644
C287	C	-0.187674	-0.620544	0.834091
C288	C	0.312326	-0.120544	1.334091
C289	C	-0.158944	-0.591827	0.810620
C290	C	0.341056	-0.091827	1.310620
C291	C	-0.158950	-0.591826	0.763705
C292	C	0.341050	-0.091826	1.263705
C293	C	-0.273891	-0.706678	0.763751
C294	C	0.226109	-0.206678	1.263751
C295	C	-0.273882	-0.706678	0.810666
C296	C	0.226118	-0.206678	1.310666
C297	C	-0.245143	-0.677966	0.834113
C298	C	0.254857	-0.177966	1.334113
H299	H	-1.044983	-0.701396	0.268795
H300	H	-0.544983	-0.201396	0.768795
N301	N	-0.129627	-0.562486	0.598982
N302	N	0.370373	-0.062486	1.098982
N303	N	-0.129634	-0.562480	0.557092
N304	N	0.370366	-0.062480	1.057092
H305	H	-0.108911	-0.541758	0.540160
H306	H	0.391089	-0.041758	1.040160
N307	N	-0.303442	-0.031657	0.303279
N308	N	0.196558	0.468343	0.803279
N309	N	-0.303436	0.010233	0.303275
N310	N	0.196564	0.510233	0.803275
H311	H	-0.324191	0.027162	0.323965
H312	H	0.175809	0.527162	0.823965
N313	N	-0.129562	-0.267220	0.129929
N314	N	0.370438	0.232780	0.629929
N315	N	-0.129563	-0.309111	0.129924
N316	N	0.370437	0.190889	0.629924
H317	H	-0.108809	-0.326032	0.109227
H318	H	0.391191	0.173968	0.609227
H319	H	-0.164327	-0.597145	0.473151
H320	H	0.335673	-0.097145	0.973151
N321	N	-0.739161	-0.736014	0.303500
N322	N	-0.239161	-0.236014	0.803500
N323	N	-0.712973	-0.764651	0.287724
N324	N	-0.212973	-0.264651	0.787724
H325	H	-0.696038	-0.785373	0.308470
H326	H	-0.196038	-0.285373	0.808470
H327	H	-0.829288	-0.568468	0.135640
H328	H	-0.329288	-0.068468	0.635640
N329	N	-0.598559	-0.562468	0.129691
N330	N	-0.098559	-0.062468	0.629691
N331	N	-0.556669	-0.562459	0.129690
N332	N	-0.056669	-0.062459	0.629690
H333	H	-0.539762	-0.541743	0.108938
H334	H	-0.039762	-0.041743	0.608938
H335	H	-0.688530	-0.568434	0.135649
H336	H	-0.188530	-0.068434	0.635649
N337	N	-0.129608	-0.562496	0.693827
N338	N	0.370392	-0.062496	1.193827
N339	N	-0.145396	-0.533858	0.719996
N340	N	0.354604	-0.033858	1.219996
H341	H	-0.124660	-0.513146	0.736912
H342	H	0.375340	-0.013146	1.236912
N343	N	-0.129593	-0.562493	0.739743
N344	N	0.370407	-0.062493	1.239743
N345	N	-0.103938	-0.536862	0.760691
N346	N	0.396062	-0.036862	1.260691
H347	H	-0.083203	-0.516144	0.743770
H348	H	0.416797	-0.016144	1.243770
N349	N	-0.382609	-0.707218	0.274744
N350	N	0.117391	-0.207218	0.774744
N351	N	-0.403532	-0.732865	0.300421
N352	N	0.096468	-0.232865	0.800421
H353	H	-0.386591	-0.753583	0.321166
H354	H	0.113409	-0.253583	0.821166
H355	H	-0.164338	-0.597150	0.388042
H356	H	0.335662	-0.097150	0.888042
H357	H	-0.268598	-0.701347	0.473201
H358	H	0.231402	-0.201347	0.973201
N359	N	-0.274694	0.089336	0.274610
N360	N	0.225306	0.589336	0.774610
N361	N	-0.300382	0.110285	0.300217
N362	N	0.199618	0.610285	0.800217
H363	H	-0.321144	0.093365	0.320910
H364	H	0.178856	0.593365	0.820910
H365	H	-0.268729	0.179316	0.268676
H366	H	0.231271	0.679316	0.768676
H367	H	-0.829135	-0.730074	0.297551
H368	H	-0.329135	-0.230074	0.797551
N369	N	-0.303267	-0.736007	0.693878
N370	N	0.196733	-0.236007	1.193878
N371	N	-0.300303	-0.777463	0.688653
N372	N	0.199697	-0.277463	1.188653
H373	H	-0.321037	-0.798181	0.705575
H374	H	0.178963	-0.298181	1.205575
H375	H	-0.268691	-0.478201	0.268594
H376	H	0.231309	0.021799	0.768594
H377	H	-0.297479	-0.121639	0.297331
H378	H	0.202521	0.378361	0.797331
H379	H	-0.135536	-0.121593	0.135886
H380	H	0.364464	0.378407	0.635886
H381	H	-0.164291	-0.393054	0.164525
H382	H	0.335709	0.106946	0.664525
N383	N	-0.955105	-0.591235	0.158459
N384	N	-0.455105	-0.091235	0.658459
N385	N	-0.976081	-0.565602	0.132783
N386	N	-0.476081	-0.065602	0.632783
H387	H	-0.959182	-0.544880	0.112031
H388	H	-0.459182	-0.044880	0.612031
H389	H	-0.135524	-0.177243	0.135878
H390	H	0.364476	0.322757	0.635878
H391	H	-0.164291	-0.478177	0.164515
H392	H	0.335709	0.021823	0.664515
H393	H	-0.297281	-0.730065	0.829770
H394	H	0.202719	-0.230065	1.329770
N395	N	-1.049951	-0.591262	0.158464
N396	N	-0.549951	-0.091262	0.658464
N397	N	-1.091842	-0.591279	0.158473
N398	N	-0.591842	-0.091279	0.658473
H399	H	-1.108793	-0.570572	0.137726
H400	H	-0.608793	-0.070572	0.637726
N401	N	-0.129578	-0.031630	0.129949
N402	N	0.370422	0.468370	0.629949
N403	N	-0.103892	-0.052578	0.104341
N404	N	0.396108	0.447422	0.604341
H405	H	-0.083132	-0.035659	0.083646
H406	H	0.416868	0.464341	0.583646
N407	N	-0.158285	-0.591227	0.955578
N408	N	0.341715	-0.091227	1.455578
N409	N	-0.132626	-0.565598	0.976524
N410	N	0.367374	-0.065598	1.476524
H411	H	-0.111890	-0.544881	0.959603
H412	H	0.388110	-0.044881	1.459603
N413	N	-0.158279	-0.591237	1.050423
N414	N	0.341721	-0.091237	1.550423
N415	N	-0.158279	-0.591249	1.092313
N416	N	0.341721	-0.091249	1.592313
H417	H	-0.137548	-0.570540	1.109239
H418	H	0.362452	-0.070540	1.609239
H419	H	-0.472589	-0.701277	0.268794
H420	H	0.027411	-0.201277	0.768794
N421	N	-0.477546	-0.591134	0.158462
N422	N	0.022454	-0.091134	0.658462
N423	N	-0.503739	-0.562501	0.174238
N424	N	-0.003739	-0.062501	0.674238
H425	H	-0.520677	-0.541781	0.153493
H426	H	-0.020677	-0.041781	0.653493
N427	N	-0.382718	-0.591112	0.158458
N428	N	0.117282	-0.091112	0.658458
N429	N	-0.403697	-0.565484	0.132781
N430	N	0.096303	-0.065484	0.632781
H431	H	-0.386801	-0.544759	0.112029
H432	H	0.113199	-0.044759	0.612029
H433	H	-0.164321	0.094227	0.164585
H434	H	0.335679	0.594227	0.664585
H435	H	-0.268502	-0.701377	1.045589
H436	H	0.231498	-0.201377	1.545589
H437	H	-0.268525	-0.701365	0.960482
H438	H	0.231475	-0.201365	1.460482
N439	N	-0.693239	-0.735997	0.303513
N440	N	-0.193239	-0.235997	0.803513
N441	N	-0.672258	-0.761623	0.329190
N442	N	-0.172258	-0.261623	0.829190
H443	H	-0.689152	-0.782344	0.349948
H444	H	-0.189152	-0.282344	0.849948
N445	N	-0.274656	-0.388238	0.274562
N446	N	0.225344	0.111762	0.774562
N447	N	-0.300340	-0.409203	0.300163
N448	N	0.199660	0.090797	0.800163
H449	H	-0.321101	-0.392296	0.320864
H450	H	0.178899	0.107704	0.820864
N451	N	-0.955008	-0.707343	0.274745
N452	N	-0.455008	-0.207343	0.774745
N453	N	-0.960228	-0.748799	0.271812
N454	N	-0.460228	-0.248799	0.771812
H455	H	-0.943293	-0.769517	0.292561
H456	H	-0.443293	-0.269517	0.792561
H457	H	-0.744178	-0.568446	0.135641
H458	H	-0.244178	-0.068446	0.635641
H459	H	-0.135542	-0.568451	0.829719
H460	H	0.364458	-0.068451	1.329719
N461	N	-0.303287	-0.735995	0.599052
N462	N	0.196713	-0.235995	1.099052
N463	N	-0.328940	-0.761628	0.620016
N464	N	0.171060	-0.261628	1.120016
H465	H	-0.349680	-0.782342	0.603108
H466	H	0.150320	-0.282342	1.103108
H467	H	-0.268610	-0.701338	0.388078
H468	H	0.231390	-0.201338	0.888078
H469	H	-0.297296	-0.730058	0.744665
H470	H	0.202704	-0.230058	1.244665
H471	H	-0.603271	-0.730025	0.297544
H472	H	-0.103271	-0.230025	0.797544
H473	H	-0.297473	-0.262386	0.297311
H474	H	0.202527	0.237614	0.797311
N475	N	-0.303447	-0.172428	0.303265
N476	N	0.196553	0.327572	0.803265
N477	N	-0.344895	-0.177663	0.300211
N478	N	0.155105	0.322337	0.800211
H479	H	-0.365664	-0.160759	0.320905
H480	H	0.134336	0.339241	0.820905
N481	N	-0.158372	0.184192	0.158643
N482	N	0.341628	0.684192	0.658643
N483	N	-0.132686	0.163243	0.133035
N484	N	0.367314	0.663243	0.633035
H485	H	-0.111929	0.180163	0.112337
H486	H	0.388071	0.680163	0.612337
