data_functionalizedCrystal
_audit_creation_method	'MofGen! by Chris Wilmer'
_symmetry_space_group_name_H-M	'P1'
_symmetry_Int_Tables_number	1
_symmetry_cell_setting	triclinic
loop_
_symmetry_equiv_pos_as_xyz
  x,y,z
_cell_length_a	19.188930
_cell_length_b	23.532407
_cell_length_c	17.666332
_cell_angle_alpha	89.988854
_cell_angle_beta	89.976766
_cell_angle_gamma	82.996728
loop_
_atom_site_label
_atom_site_type_symbol
_atom_site_fract_x
_atom_site_fract_y
_atom_site_fract_z
O1	O	0.925923	0.071102	-0.063199
O2	O	1.425923	0.571102	0.436801
O3	O	0.722581	0.080673	-0.063148
O4	O	1.222581	0.580673	0.436852
O5	O	0.830384	-0.007031	-0.063161
O6	O	1.330384	0.492969	0.436839
O7	O	0.818120	0.158806	-0.063186
O8	O	1.318120	0.658806	0.436814
O9	O	0.830365	-0.007036	0.062735
O10	O	1.330365	0.492964	0.562735
O11	O	0.722562	0.080669	0.062748
O12	O	1.222562	0.580669	0.562748
O13	O	0.925904	0.071097	0.062697
O14	O	1.425904	0.571097	0.562697
Cu15	Cu	0.824231	0.075883	0.074218
Cu16	Cu	1.324231	0.575883	0.574218
Cu17	Cu	0.824253	0.075888	-0.074669
Cu18	Cu	1.324253	0.575888	0.425331
O19	O	0.818101	0.158802	0.062711
O20	O	1.318101	0.658802	0.562711
C21	C	0.696561	0.080361	-0.000193
C22	C	1.196561	0.580361	0.499807
C23	C	0.619060	0.079431	-0.000173
C24	C	1.119060	0.579431	0.499827
C25	C	0.573972	0.130893	-0.000193
C26	C	1.073972	0.630893	0.499807
C27	C	0.501151	0.130019	-0.000201
C28	C	1.001151	0.630019	0.499799
C29	C	0.473421	0.077680	-0.000205
C30	C	0.973421	0.577680	0.499795
C31	C	0.518519	0.026211	-0.000181
C32	C	1.018519	0.526211	0.499819
C33	C	0.591339	0.027086	-0.000165
C34	C	1.091339	0.527086	0.499835
N35	N	0.365575	0.037674	-0.043078
N36	N	0.865575	0.537674	0.456922
N37	N	0.296399	0.036846	-0.043094
N38	N	0.796399	0.536846	0.456906
C39	C	0.254021	0.075038	-0.000251
C40	C	0.754021	0.575038	0.499749
N41	N	0.283431	0.114099	0.042600
N42	N	0.783431	0.614099	0.542600
N43	N	0.352613	0.114929	0.042614
N44	N	0.852613	0.614929	0.542614
C45	C	0.394462	0.076724	-0.000222
C46	C	0.894462	0.576724	0.499778
C47	C	0.129971	0.125556	-0.000278
C48	C	0.629971	0.625556	0.499722
C49	C	0.057149	0.124680	-0.000282
C50	C	0.557149	0.624680	0.499718
C51	C	0.074520	0.020870	-0.000269
C52	C	0.574520	0.520870	0.499731
C53	C	0.147340	0.021748	-0.000258
C54	C	0.647340	0.521748	0.499742
C55	C	0.175061	0.074092	-0.000266
C56	C	0.675061	0.574092	0.499734
C57	C	0.830062	-0.028250	-0.000211
C58	C	1.330062	0.471750	0.499789
C59	C	0.829123	-0.091469	-0.000205
C60	C	1.329123	0.408531	0.499795
C61	C	0.887029	-0.490449	-0.000261
C62	C	1.387029	0.009551	0.499739
C63	C	0.886157	-0.549851	-0.000267
C64	C	1.386157	-0.049851	0.499733
O65	O	0.939837	-0.586482	-0.000308
O66	O	1.439837	-0.086482	0.499692
N67	N	0.822068	-0.572613	-0.000250
N68	N	1.322068	-0.072613	0.499750
C69	C	0.758848	-0.535970	-0.000236
C70	C	1.258848	-0.035970	0.499764
O71	O	0.704255	-0.560786	-0.000223
O72	O	1.204255	-0.060786	0.499777
C73	C	0.759721	-0.476569	-0.000235
C74	C	1.259721	0.023431	0.499765
C75	C	0.823814	-0.453810	-0.000244
C76	C	1.323814	0.046190	0.499756
C77	C	0.951117	-0.467690	-0.000271
C78	C	1.451117	0.032310	0.499729
C79	C	0.951989	-0.408292	-0.000264
C80	C	1.451989	0.091708	0.499736
C81	C	0.888773	-0.371653	-0.000247
C82	C	1.388773	0.128347	0.499753
C83	C	0.824685	-0.394412	-0.000237
C84	C	1.324685	0.105588	0.499763
C85	C	0.696501	-0.439927	-0.000226
C86	C	1.196501	0.060073	0.499774
C87	C	0.697379	-0.380523	-0.000227
C88	C	1.197379	0.119477	0.499773
C89	C	0.761472	-0.357764	-0.000236
C90	C	1.261472	0.142236	0.499764
C91	C	0.762342	-0.298376	-0.000214
C92	C	1.262342	0.201624	0.499786
N93	N	0.826430	-0.275614	-0.000230
N94	N	1.326430	0.224386	0.499770
C95	C	0.889646	-0.312252	-0.000247
C96	C	1.389646	0.187748	0.499753
C97	C	0.757019	-0.660717	-0.000237
C98	C	1.257019	-0.160717	0.499763
C99	C	0.756146	-0.720116	-0.000232
C100	C	1.256146	-0.220116	0.499768
C101	C	0.883455	-0.733993	-0.000264
C102	C	1.383455	-0.233993	0.499736
C103	C	0.884328	-0.674592	-0.000264
C104	C	1.384328	-0.174592	0.499736
C105	C	0.821108	-0.637954	-0.000254
C106	C	1.321108	-0.137954	0.499746
C107	C	0.891472	-0.187512	-0.000232
C108	C	1.391472	0.312488	0.499768
C109	C	0.892339	-0.128108	-0.000222
C110	C	1.392339	0.371892	0.499778
C111	C	0.765029	-0.114236	-0.000193
C112	C	1.265029	0.385764	0.499807
C113	C	0.764163	-0.173634	-0.000199
C114	C	1.264163	0.326366	0.499801
C115	C	0.827390	-0.210272	-0.000221
C116	C	1.327390	0.289728	0.499779
O117	O	0.708690	-0.261710	-0.000176
O118	O	1.208690	0.238290	0.499824
O119	O	0.944230	-0.287428	-0.000270
O120	O	1.444230	0.212572	0.499730
C121	C	0.951923	0.071410	-0.000259
C122	C	1.451923	0.571410	0.499741
C123	C	1.029425	0.072340	-0.000284
C124	C	1.529425	0.572340	0.499716
C125	C	0.818423	0.180021	-0.000241
C126	C	1.318423	0.680021	0.499759
C127	C	0.819362	0.243240	-0.000252
C128	C	1.319362	0.743240	0.499748
N129	N	0.824221	0.075878	0.178938
N130	N	1.324221	0.575878	0.678938
N131	N	0.824270	0.075888	-0.179389
N132	N	1.324270	0.575888	0.320611
C133	C	0.871971	0.037062	0.218542
C134	C	1.371971	0.537062	0.718542
C135	C	0.871975	0.037059	0.297789
C136	C	1.371975	0.537059	0.797789
C137	C	0.824236	0.075883	0.337430
C138	C	1.324236	0.575883	0.837430
C139	C	0.776476	0.114702	0.297816
C140	C	1.276476	0.614702	0.797816
C141	C	0.776469	0.114700	0.218570
C142	C	1.276469	0.614700	0.718570
N143	N	0.814998	0.126298	0.461842
N144	N	1.314998	0.626298	0.961842
N145	N	0.815010	0.126298	0.537123
N146	N	1.315010	0.626298	1.037123
C147	C	0.824254	0.075891	0.576194
C148	C	1.324254	0.575891	1.076194
N149	N	0.833500	0.025481	0.537141
N150	N	1.333500	0.525481	1.037141
N151	N	0.833493	0.025482	0.461853
N152	N	1.333493	0.525482	0.961853
C153	C	0.824238	0.075889	0.423359
C154	C	1.324238	0.575889	0.923359
C155	C	0.872011	0.037068	0.701727
C156	C	1.372011	0.537068	1.201727
C157	C	0.872010	0.037064	0.780976
C158	C	1.372010	0.537064	1.280976
C159	C	0.776515	0.114713	0.781002
C160	C	1.276515	0.614713	1.281002
C161	C	0.776512	0.114711	0.701754
C162	C	1.276512	0.614711	1.201754
C163	C	0.824264	0.075889	0.662122
C164	C	1.324264	0.575889	1.162122
H165	H	0.464433	0.171927	-0.000215
H166	H	0.964433	0.671927	0.499785
H167	H	0.051943	-0.021745	-0.000319
H168	H	0.551943	0.478255	0.499681
O169	O	0.634259	-0.462054	-0.000092
O170	O	1.134259	0.037946	0.499908
C171	C	0.629923	-0.496022	0.065096
C172	C	1.129923	0.003978	0.565096
H173	H	0.666295	-0.482074	0.110672
H174	H	1.166295	0.017926	0.610672
H175	H	0.573607	-0.490555	0.086983
H176	H	1.073607	0.009445	0.586983
H177	H	0.646359	-0.542904	0.050347
H178	H	1.146359	-0.042904	0.550347
H179	H	0.737642	0.146321	0.813277
H180	H	1.237642	0.646321	1.313277
H181	H	0.910852	0.005450	0.186275
H182	H	1.410852	0.505450	0.686275
H183	H	0.910860	0.005449	0.330041
H184	H	1.410860	0.505449	0.830041
O185	O	0.693947	-0.742315	-0.000183
O186	O	1.193947	-0.242315	0.499817
C187	C	0.706722	-0.802601	-0.000213
C188	C	1.206722	-0.302601	0.499787
H189	H	0.761302	-0.816689	0.023609
H190	H	1.261302	-0.316689	0.523609
H191	H	0.665728	-0.820748	0.036343
H192	H	1.165728	-0.320748	0.536343
H193	H	0.703466	-0.819116	-0.060614
H194	H	1.203466	-0.319116	0.439386
H195	H	0.737605	0.146312	0.330096
H196	H	1.237605	0.646312	0.830096
H197	H	0.944533	-0.109581	-0.000227
H198	H	1.444533	0.390419	0.499773
H199	H	0.020438	0.166588	-0.000293
H200	H	0.520438	0.666588	0.499707
O201	O	0.730058	0.152466	0.180213
O202	O	1.230058	0.652466	0.680213
C203	C	0.687907	0.186722	0.232189
C204	C	1.187907	0.686722	0.732189
H205	H	0.716528	0.187309	0.288665
H206	H	1.216528	0.687309	0.788665
H207	H	0.676935	0.232226	0.209285
H208	H	1.176935	0.732226	0.709285
H209	H	0.636172	0.168334	0.240647
H210	H	1.136172	0.668334	0.740647
H211	H	0.596537	0.173516	-0.000201
H212	H	1.096537	0.673516	0.499799
H213	H	0.705535	-0.630888	-0.000222
H214	H	1.205535	-0.130888	0.499778
H215	H	0.495937	-0.016404	-0.000195
H216	H	0.995937	0.483596	0.499805
O217	O	0.952845	-0.223153	-0.000149
O218	O	1.452845	0.276847	0.499851
C219	C	0.956151	-0.257929	0.065061
C220	C	1.456151	0.242071	0.565061
H221	H	0.900751	-0.260815	0.086808
H222	H	1.400751	0.239185	0.586808
H223	H	0.982491	-0.302632	0.050389
H224	H	1.482491	0.197368	0.550389
H225	H	0.987884	-0.238464	0.110715
H226	H	1.487884	0.261536	0.610715
O227	O	0.191043	-0.028295	-0.000281
O228	O	0.691043	0.471705	0.499719
C229	C	0.150957	-0.074680	-0.000267
C230	C	0.650957	0.425320	0.499733
H231	H	0.096516	-0.060088	-0.024114
H232	H	0.596516	0.439912	0.475886
H233	H	0.178090	-0.110726	-0.036809
H234	H	0.678090	0.389274	0.463191
H235	H	0.145850	-0.090735	0.060133
H236	H	0.645850	0.409265	0.560133
H237	H	0.628050	-0.014822	-0.000150
H238	H	1.128050	0.485178	0.499850
O239	O	1.014311	-0.386283	-0.000312
O240	O	1.514311	0.113717	0.499688
C241	C	1.069911	-0.431368	-0.000311
C242	C	1.569911	0.068632	0.499689
H243	H	1.050622	-0.471669	-0.024141
H244	H	1.550622	0.028331	0.475859
H245	H	1.114690	-0.419061	-0.036874
H246	H	1.614690	0.080939	0.463126
H247	H	1.089382	-0.439831	0.060083
H248	H	1.589382	0.060169	0.560083
H249	H	0.910892	0.005455	0.669457
H250	H	1.410892	0.505455	1.169457
O251	O	0.635901	-0.345014	-0.000183
O252	O	1.135901	0.154986	0.499817
C253	C	0.579151	-0.377845	-0.000196
C254	C	1.079151	0.122155	0.499804
H255	H	0.597188	-0.422226	0.023633
H256	H	1.097188	0.077774	0.523633
H257	H	0.534874	-0.355837	0.036363
H258	H	1.034874	0.144163	0.536363
H259	H	0.559500	-0.382020	-0.060593
H260	H	1.059500	0.117980	0.439407
O261	O	0.918466	-0.000665	0.819333
O262	O	1.418466	0.499335	1.319333
C263	C	0.960598	-0.034936	0.767354
C264	C	1.460598	0.465064	1.267354
H265	H	0.961215	-0.011588	0.710858
H266	H	1.461215	0.488412	1.210858
H267	H	1.016417	-0.043730	0.790224
H268	H	1.516417	0.456270	1.290224
H269	H	0.938232	-0.077202	0.758951
H270	H	1.438232	0.422798	1.258951
H271	H	0.152543	0.168178	-0.000274
H272	H	0.652543	0.668178	0.499726
H273	H	1.002598	-0.497516	-0.000287
H274	H	1.502598	0.002484	0.499713
H275	H	0.737632	0.146322	0.669507
H276	H	1.237632	0.646322	1.169507
H277	H	0.936518	-0.656067	-0.000272
H278	H	1.436518	-0.156067	0.499728
O279	O	0.944801	-0.769671	-0.000323
O280	O	1.444801	-0.269671	0.499677
C281	C	0.930280	-0.826978	-0.000307
C282	C	1.430280	-0.326978	0.499693
H283	H	0.875455	-0.829115	-0.024123
H284	H	1.375455	-0.329115	0.475877
H285	H	0.970598	-0.853982	-0.036876
H286	H	1.470598	-0.353982	0.463124
H287	H	0.933044	-0.844177	0.060089
H288	H	1.433044	-0.344177	0.560089
H289	H	0.711973	-0.192165	-0.000171
H290	H	1.211973	0.307835	0.499829
H291	H	0.713561	-0.084394	-0.000177
H292	H	1.213561	0.415606	0.499823
