data_functionalizedCrystal
_audit_creation_method	'MofGen! by Chris Wilmer'
_symmetry_space_group_name_H-M	'P1'
_symmetry_Int_Tables_number	1
_symmetry_cell_setting	triclinic
loop_
_symmetry_equiv_pos_as_xyz
  x,y,z
_cell_length_a	13.635800
_cell_length_b	19.453114
_cell_length_c	11.102308
_cell_angle_alpha	85.494764
_cell_angle_beta	108.606174
_cell_angle_gamma	78.290712
loop_
_atom_site_label
_atom_site_type_symbol
_atom_site_fract_x
_atom_site_fract_y
_atom_site_fract_z
V1	V	2.016578	-0.218999	0.177162
O2	O	1.996839	-0.214830	-0.007152
O3	O	2.005236	-0.217500	0.349974
O4	O	1.987877	-0.314512	0.175035
O5	O	2.014318	-0.117147	0.168998
V6	V	2.257309	-0.206816	0.155046
O7	O	2.149468	-0.245721	0.225677
O8	O	2.349519	-0.180094	0.106531
O9	O	2.157048	-0.208315	-0.017766
O10	O	2.335747	-0.210985	0.339360
O11	O	2.318268	-0.308668	0.163210
O12	O	2.174407	-0.111303	0.157173
V13	V	2.516578	-0.218999	0.177162
O14	O	2.496839	-0.214830	-0.007152
O15	O	2.505236	-0.217500	0.349974
O16	O	2.487877	-0.314512	0.175035
O17	O	2.514318	-0.117147	0.168998
V18	V	2.757309	-0.206816	0.155046
O19	O	2.649468	-0.245721	0.225677
O20	O	2.849519	-0.180094	0.106531
O21	O	2.657048	-0.208315	-0.017766
O22	O	2.835747	-0.210985	0.339360
O23	O	2.818268	-0.308668	0.163210
O24	O	2.674407	-0.111303	0.157173
C25	C	1.908867	-0.337792	0.168929
C26	C	1.926128	-0.415874	0.168333
C27	C	2.025602	-0.456132	0.174432
C28	C	2.041821	-0.529498	0.173872
C29	C	1.958565	-0.562607	0.167238
C30	C	1.859075	-0.522340	0.161131
C31	C	1.842856	-0.448974	0.161678
N32	N	1.933687	-0.681396	0.234355
N33	N	1.949101	-0.751092	0.233839
C34	C	2.007425	-0.783656	0.165586
N35	N	2.049772	-0.743893	0.097887
N36	N	2.034361	-0.674192	0.098410
C37	C	1.976141	-0.642160	0.166643
C38	C	2.124492	-0.903465	0.171077
C39	C	2.140705	-0.976833	0.170509
C40	C	1.957959	-0.969674	0.157781
C41	C	1.941746	-0.896307	0.158336
C42	C	2.025018	-0.863208	0.164990
C43	C	1.931010	-0.214046	0.392083
C44	C	1.962349	-0.213457	0.533362
C45	C	2.062946	-0.211768	-0.059868
C46	C	2.021225	-0.212360	-0.201146
C47	C	2.085089	-0.088019	0.163283
C48	C	2.057447	-0.009936	0.163873
C49	C	2.431010	-0.214046	0.392083
C50	C	2.462349	-0.213457	0.533362
C51	C	2.408867	-0.337792	0.168929
C52	C	2.426128	-0.415874	0.168333
C53	C	2.145116	-0.220459	0.546370
C54	C	2.251217	-0.223682	0.619244
C55	C	2.280658	-0.223130	0.751988
C56	C	2.203988	-0.219357	0.811860
C57	C	2.097886	-0.216135	0.738985
C58	C	2.068455	-0.216685	0.606238
C59	C	1.915124	-0.209138	0.725979
C60	C	1.885680	-0.209685	0.593234
C61	C	1.838454	-0.205365	0.785851
C62	C	1.732349	-0.202138	0.712975
C63	C	1.702910	-0.202689	0.580223
C64	C	1.779578	-0.206462	0.520359
C65	C	2.562946	-0.211768	-0.059868
C66	C	2.521225	-0.212360	-0.201146
C67	C	2.585089	-0.088019	0.163283
C68	C	2.557447	-0.009936	0.163873
C69	C	2.525607	-0.456123	0.174411
C70	C	2.541835	-0.529489	0.173834
C71	C	2.458585	-0.562605	0.167188
C72	C	2.359097	-0.522351	0.161106
C73	C	2.342868	-0.448986	0.161674
C74	C	2.458465	0.023162	0.170504
C75	C	2.432473	0.096530	0.171043
C76	C	2.505469	0.136798	0.164960
C77	C	2.604458	0.103695	0.158324
C78	C	2.630445	0.030329	0.157776
C79	C	2.425191	-0.084807	0.496307
C80	C	2.421333	-0.020208	0.544152
C81	C	2.450783	-0.019659	0.676897
C82	C	2.484096	-0.083716	0.761803
C83	C	2.487954	-0.148315	0.713958
C84	C	2.458499	-0.148857	0.581207
C85	C	2.525119	-0.276964	0.751013
C86	C	2.495663	-0.277514	0.618267
C87	C	2.558432	-0.341021	0.835918
C88	C	2.562283	-0.405621	0.788073
C89	C	2.532830	-0.406168	0.655319
C90	C	2.499520	-0.342113	0.570422
H91	H	2.093409	-0.429186	0.179846
H92	H	2.121150	-0.220899	0.438280
F93	F	2.647727	-0.572318	0.180316
F94	F	2.385909	0.047961	0.453785
F95	F	2.213113	-0.868235	0.178151
H96	H	1.755617	-0.206907	0.412271
H97	H	2.589414	-0.457771	0.857212
H98	H	2.593406	-0.429170	0.179826
F99	F	2.332809	-0.227700	0.555517
F100	F	2.147699	-0.572351	0.180357
F101	F	2.393583	-0.226565	0.829550
F102	F	2.393831	-0.085386	0.355025
F103	F	2.475875	-0.640689	0.166589
H104	H	2.447644	0.032942	0.715851
H105	H	2.663883	0.136492	0.153367
H106	H	1.761848	-0.416195	0.156702
H107	H	1.791287	-0.549302	0.155726
H108	H	2.508087	-0.083264	0.869890
F109	F	2.589783	-0.340436	0.977198
H110	H	2.221709	-1.009609	0.175466
F111	F	2.235329	-0.218781	0.953142
F112	F	2.536947	-0.474924	0.604411
F113	F	1.869345	-1.004904	0.150701
H114	H	1.860747	-0.863530	0.153383
H115	H	2.291320	-0.549326	0.155696
F116	F	1.869791	-0.204782	0.927131
F117	F	1.650766	-0.198128	0.776703
H118	H	2.475521	-0.342551	0.462331
H119	H	2.261860	-0.416221	0.156727
H120	H	1.616514	-0.200070	0.520897
H121	H	2.399014	-0.009614	0.175458
H122	H	2.711050	0.003386	0.152383
F123	F	2.327120	0.131747	0.178114
F124	F	2.477797	0.214881	0.165548
