data_functionalizedCrystal
_audit_creation_method	'MofGen! by Chris Wilmer'
_symmetry_space_group_name_H-M	'P1'
_symmetry_Int_Tables_number	1
_symmetry_cell_setting	triclinic
loop_
_symmetry_equiv_pos_as_xyz
  x,y,z
_cell_length_a	6.817900
_cell_length_b	10.992469
_cell_length_c	10.992410
_cell_angle_alpha	91.830594
_cell_angle_beta	108.764651
_cell_angle_gamma	108.765624
loop_
_atom_site_label
_atom_site_type_symbol
_atom_site_fract_x
_atom_site_fract_y
_atom_site_fract_z
V1	V	-4.114252	-0.177761	-0.400575
O2	O	-4.072376	0.008542	-0.392968
O3	O	-4.091835	-0.352470	-0.397817
O4	O	-4.091844	-0.175026	-0.575288
O5	O	-4.072367	-0.170130	-0.214269
V6	V	-4.591146	-0.155477	-0.378293
O7	O	-4.390054	-0.226642	-0.449451
O8	O	-4.765541	-0.106595	-0.329417
O9	O	-4.390356	0.019232	-0.381051
O10	O	-4.750419	-0.341780	-0.385900
O11	O	-4.750428	-0.163108	-0.564599
O12	O	-4.390347	-0.158211	-0.203581
C13	C	-3.942316	-0.395060	-0.391493
C14	C	-4.005448	-0.537887	-0.390403
C15	C	-3.807069	-0.584385	-0.382247
C16	C	-3.872923	-0.733022	-0.381616
C17	C	-4.270158	-0.764535	-0.515760
C18	C	-4.203032	-0.615889	-0.516930
C19	C	-4.079366	-0.577587	-0.271579
C20	C	-4.140104	-0.725808	-0.268700
C21	C	-3.942326	-0.168712	-0.617873
C22	C	-4.005461	-0.167632	-0.760701
C23	C	-3.872583	-0.157796	-0.955826
C24	C	-3.807033	-0.159451	-0.807342
C25	C	-4.203480	-0.294312	-0.837792
C26	C	-4.267793	-0.293192	-0.986359
C27	C	-4.145553	-0.047893	-0.948352
C28	C	-4.074844	-0.047293	-0.799339
C29	C	-4.203218	0.061816	-0.387371
C30	C	-4.119326	0.204641	-0.388470
C31	C	-4.203207	-0.164530	-0.160989
C32	C	-4.119310	-0.165603	-0.018159
H33	H	-4.451611	-0.806311	-0.525421
H34	H	-3.756357	-0.752659	-0.290140
Cl35	Cl	-4.243771	-0.430797	-1.057788
Cl36	Cl	-3.986663	0.100630	-0.979801
Cl37	Cl	-3.834023	-0.804523	-0.513467
H38	H	-4.314806	-0.767458	-0.266277
H39	H	-4.157720	-0.383659	-0.812178
H40	H	-4.257886	-0.813377	-0.604719
Cl41	Cl	-4.435659	-0.310624	-0.793329
Cl42	Cl	-4.294247	-0.044985	-0.749136
Cl43	Cl	-3.966487	-0.753911	-0.123420
Cl44	Cl	-4.132555	-0.580318	-0.655650
Cl45	Cl	-3.718774	-0.291851	-0.769009
H46	H	-3.749666	-0.557714	-0.467603
H47	H	-3.931588	0.046420	-0.746991
Cl48	Cl	-3.691579	-0.016067	-0.984693
Cl49	Cl	-3.868672	-0.493345	-0.124161
Cl50	Cl	-3.576744	-0.503190	-0.241762
Cl51	Cl	-4.435088	-0.570691	-0.535243
Cl52	Cl	-4.307380	-0.531968	-0.278962
H53	H	-4.449795	-0.304208	-1.028989
Cl54	Cl	-4.421884	-0.054995	-1.011410
Cl55	Cl	-3.577773	-0.018841	-0.724999
H56	H	-3.847648	-0.242371	-1.003809
