data_functionalizedCrystal
_audit_creation_method	'MofGen! by Chris Wilmer'
_symmetry_space_group_name_H-M	'P1'
_symmetry_Int_Tables_number	1
_symmetry_cell_setting	triclinic
loop_
_symmetry_equiv_pos_as_xyz
  x,y,z
_cell_length_a	6.394989
_cell_length_b	16.109302
_cell_length_c	14.586319
_cell_angle_alpha	89.994552
_cell_angle_beta	89.999285
_cell_angle_gamma	84.979746
loop_
_atom_site_label
_atom_site_type_symbol
_atom_site_fract_x
_atom_site_fract_y
_atom_site_fract_z
O1	O	0.268487	1.105973	-0.076275
O2	O	0.301898	0.864264	-0.076268
O3	O	-0.018874	0.988549	-0.076272
O4	O	0.589259	0.981688	-0.076270
O5	O	-0.018879	0.988540	0.076208
O6	O	0.301893	0.864255	0.076213
O7	O	0.268483	1.105964	0.076205
Cu8	Cu	0.285187	0.985109	0.090132
Cu9	Cu	0.285193	0.985119	-0.090194
O10	O	0.589254	0.981679	0.076210
C11	C	0.300542	0.833271	-0.000026
C12	C	0.296483	0.740932	-0.000023
C13	C	0.287097	0.528487	0.083085
C14	C	0.283261	0.441727	0.083082
C15	C	0.283277	0.441747	-0.083161
C16	C	0.287098	0.528507	-0.083157
C17	C	0.289018	0.571874	-0.000031
C18	C	0.281362	0.398354	-0.000039
C19	C	0.277203	0.304284	-0.000043
C20	C	0.293173	0.665950	-0.000027
C21	C	0.667077	0.983040	-0.000034
C22	C	0.903309	0.987186	-0.000037
C23	C	0.269839	1.136957	-0.000038
C24	C	0.273897	1.229296	-0.000047
N25	N	0.285182	0.985107	0.216964
N26	N	0.285182	0.985127	-0.217026
C27	C	0.143192	1.040160	0.451968
C28	C	0.143187	1.040162	0.547949
C29	C	0.427179	0.930069	0.547963
C30	C	0.427172	0.930063	0.451984
C31	C	0.285181	0.985113	0.403989
C32	C	0.285183	0.985121	0.595949
C33	C	0.285178	0.985123	0.700016
C34	C	0.285182	0.985110	0.299915
H35	H	0.027572	1.084984	0.412893
H36	H	0.027564	1.084985	0.587012
N37	N	0.580320	0.870696	0.599729
H38	H	0.558785	0.879052	0.667813
H39	H	0.728505	0.881849	0.582946
N40	N	0.289167	0.575264	0.172737
H41	H	0.287365	0.534611	0.225390
H42	H	0.161347	0.616648	0.176358
N43	N	0.580307	0.870681	0.400226
H44	H	0.670266	0.835811	0.445193
H45	H	0.672669	0.903470	0.360391
N46	N	0.281241	0.394975	-0.172818
H47	H	0.152506	0.415462	-0.209159
H48	H	0.278618	0.333440	-0.160138
N49	N	0.281179	0.394931	0.172728
H50	H	0.281504	0.435631	0.225382
H51	H	0.409744	0.353951	0.176630
N52	N	0.289152	0.575303	-0.172813
H53	H	0.417893	0.554828	-0.209154
H54	H	0.291771	0.636835	-0.160123
