data_functionalizedCrystal
_audit_creation_method	'MofGen! by Chris Wilmer'
_symmetry_space_group_name_H-M	'P1'
_symmetry_Int_Tables_number	1
_symmetry_cell_setting	triclinic
loop_
_symmetry_equiv_pos_as_xyz
  x,y,z
_cell_length_a	19.805407
_cell_length_b	29.839131
_cell_length_c	29.839125
_cell_angle_alpha	89.974637
_cell_angle_beta	89.986802
_cell_angle_gamma	90.035228
loop_
_atom_site_label
_atom_site_type_symbol
_atom_site_fract_x
_atom_site_fract_y
_atom_site_fract_z
Zn1	Zn	1.034652	-0.178916	-0.253996
Zn2	Zn	1.034562	-0.254028	-0.178856
Zn3	Zn	0.921479	-0.178913	-0.178877
Zn4	Zn	0.921412	-0.254020	-0.253956
O5	O	0.978026	-0.216469	-0.216421
O6	O	1.129356	-0.188885	-0.244036
O7	O	1.019551	-0.244066	-0.115991
O8	O	0.936557	-0.116046	-0.188867
O9	O	1.129290	-0.244069	-0.188831
O10	O	1.019704	-0.116049	-0.244057
O11	O	0.936470	-0.188880	-0.116007
O12	O	0.826753	-0.188871	-0.188828
O13	O	0.936444	-0.244055	-0.316828
O14	O	0.826705	-0.244052	-0.243988
O15	O	1.019640	-0.188877	-0.316858
O16	O	1.019487	-0.316894	-0.188792
O17	O	0.936356	-0.316888	-0.243968
C18	C	0.802170	-0.216461	-0.216407
C19	C	0.726938	-0.216468	-0.216411
C20	C	0.691586	-0.245244	-0.245086
C21	C	0.620898	-0.245245	-0.245093
C22	C	0.585562	-0.216472	-0.216421
C23	C	0.620919	-0.187693	-0.187745
C24	C	0.691606	-0.187690	-0.187741
C25	C	0.335846	-0.187702	-0.187759
C26	C	0.265154	-0.187708	-0.187764
C27	C	0.265137	-0.245257	-0.245111
C28	C	0.335824	-0.245255	-0.245108
C29	C	0.371175	-0.216474	-0.216433
C30	C	0.447824	-0.216473	-0.216427
C31	C	0.508915	-0.216475	-0.216424
C32	C	0.977923	-0.333192	-0.216383
C33	C	0.977941	-0.383126	-0.216382
C34	C	1.021312	-0.692736	-0.245199
C35	C	1.021385	-0.880409	-0.245226
O36	O	1.058159	-0.904645	-0.269700
N37	N	0.978141	-0.903912	-0.216471
C38	C	0.934872	-0.880493	-0.187709
O39	O	0.898088	-0.904789	-0.163255
C40	C	0.934796	-0.692821	-0.187685
C41	C	0.978048	-0.669321	-0.216439
C42	C	1.064559	-0.669236	-0.273951
C43	C	1.064543	-0.622321	-0.273942
C44	C	1.021279	-0.598905	-0.245182
C45	C	0.978032	-0.622405	-0.216430
C46	C	0.891525	-0.669403	-0.158925
C47	C	0.891508	-0.622482	-0.158922
C48	C	0.934760	-0.598982	-0.187676
C49	C	0.934752	-0.552074	-0.187660
N50	N	0.977996	-0.528572	-0.216416
C51	C	1.021259	-0.551987	-0.245176
C52	C	0.934917	-0.979023	-0.187723
C53	C	0.934936	-1.025941	-0.187729
C54	C	1.021448	-1.025854	-0.245247
C55	C	1.021431	-0.978936	-0.245239
C56	C	0.978161	-0.955521	-0.216478
C57	C	1.021222	-0.453462	-0.245155
C58	C	1.021204	-0.406542	-0.245143
C59	C	0.934690	-0.406633	-0.187627
C60	C	0.934711	-0.453548	-0.187637
C61	C	0.977979	-0.476962	-0.216405
O62	O	0.897991	-0.527809	-0.163203
O63	O	1.058028	-0.527683	-0.269634
C64	C	1.021328	-0.739652	-0.245208
C65	C	0.978080	-0.763152	-0.216456
C66	C	0.934816	-0.739736	-0.187695
C67	C	0.978100	-0.810069	-0.216461
C68	C	1.021364	-0.833485	-0.245222
C69	C	1.064608	-0.809983	-0.273978
C70	C	1.064592	-0.763067	-0.273969
C71	C	0.891572	-0.763238	-0.158940
C72	C	0.891593	-0.810154	-0.158951
C73	C	0.934856	-0.833569	-0.187712
C74	C	1.154569	-0.216478	-0.216436
C75	C	1.229801	-0.216482	-0.216442
C76	C	0.978044	-0.216465	-0.333599
C77	C	0.978052	-0.216464	-0.383534
C78	C	0.978148	-0.099291	-0.216469
C79	C	0.978200	-0.049357	-0.216489
C80	C	1.021418	-0.187657	-0.693196
C81	C	1.021452	-0.187619	-0.880869
O82	O	1.058273	-0.163169	-0.905149
N83	N	0.978142	-0.216343	-0.904319
C84	C	0.934818	-0.245078	-0.880848
O85	O	0.897976	-0.269505	-0.905101
C86	C	0.934781	-0.245113	-0.693176
C87	C	0.978099	-0.216390	-0.669728
C88	C	1.064731	-0.158936	-0.669748
C89	C	1.064725	-0.158947	-0.622832
C90	C	1.021406	-0.187680	-0.599365
C91	C	0.978092	-0.216402	-0.622813
C92	C	0.891454	-0.273845	-0.669706
C93	C	0.891447	-0.273850	-0.622785
C94	C	0.934765	-0.245127	-0.599337
C95	C	0.934766	-0.245146	-0.552430
N96	N	0.978076	-0.216421	-0.528979
C97	C	1.021396	-0.187689	-0.552447
C98	C	0.934841	-0.245057	-0.979379
C99	C	0.934851	-0.245049	-1.026297
C100	C	1.021484	-0.187590	-1.026314
C101	C	1.021477	-0.187601	-0.979396
C102	C	0.978150	-0.216333	-0.955929
C103	C	1.021380	-0.187715	-0.453921
C104	C	1.021372	-0.187731	-0.407002
C105	C	0.934736	-0.245188	-0.406988
C106	C	0.934746	-0.245175	-0.453904
C107	C	0.978071	-0.216435	-0.477369
O108	O	0.897960	-0.269580	-0.528120
O109	O	1.058221	-0.163257	-0.528187
C110	C	1.021424	-0.187646	-0.740111
C111	C	0.978111	-0.216367	-0.763559
C112	C	0.934791	-0.245100	-0.740092
C113	C	0.978121	-0.216359	-0.810477
C114	C	1.021440	-0.187626	-0.833945
C115	C	1.064750	-0.158901	-0.810494
C116	C	1.064744	-0.158913	-0.763579
C117	C	0.891482	-0.273824	-0.763542
C118	C	0.891492	-0.273811	-0.810457
C119	C	0.934812	-0.245078	-0.833925
C120	C	0.978047	-0.216441	-0.099699
C121	C	0.978170	-0.216316	-0.049764
H122	H	0.236386	-0.164275	-0.164416
C123	C	1.069118	-0.156001	-0.953607
H124	H	1.094914	-0.138886	-0.974307
H125	H	1.098590	-0.173186	-0.935299
H126	H	1.043237	-0.136425	-0.935311
H127	H	0.856373	-0.829283	-0.135532
C128	C	1.068780	-0.380693	-0.276773
H129	H	1.062582	-0.349396	-0.272648
H130	H	1.058846	-0.388369	-0.306953
H131	H	1.114269	-0.388362	-0.270225
H132	H	0.899679	-0.959962	-0.164302
H133	H	0.856341	-0.744177	-0.135520
H134	H	0.364620	-0.164271	-0.164407
H135	H	0.592144	-0.164263	-0.164402
H136	H	1.056451	-0.472519	-0.268584
C137	C	0.730494	-0.156036	-0.156199
H138	H	0.699326	-0.138902	-0.139121
H139	H	0.758092	-0.136487	-0.173423
H140	H	0.758046	-0.173191	-0.136587
C141	C	1.069034	-1.051617	-0.276885
H142	H	1.062844	-1.082925	-0.272770
H143	H	1.114518	-1.043908	-0.270343
H144	H	1.059083	-1.043918	-0.307064
H145	H	0.856305	-0.688528	-0.135510
H146	H	0.899497	-0.472683	-0.164220
H147	H	1.099998	-0.135557	-0.603745
H148	H	1.099760	-0.603190	-0.297358
C149	C	0.887364	-1.051786	-0.156097
H150	H	0.861592	-1.031117	-0.138972
H151	H	0.913278	-1.070086	-0.136539
H152	H	0.857857	-1.070094	-0.173269
H153	H	1.056648	-0.164340	-0.387912
C154	C	0.843789	-0.305456	-0.596972
H155	H	0.849981	-0.301349	-0.565671
H156	H	0.853661	-0.335640	-0.604657
H157	H	0.798319	-0.298872	-0.604660
C158	C	0.374693	-0.276911	-0.276638
H159	H	0.421855	-0.272792	-0.272524
H160	H	0.363134	-0.270389	-0.306839
H161	H	0.363075	-0.307086	-0.269996
C162	C	0.226253	-0.276897	-0.276674
H163	H	0.257422	-0.294030	-0.293750
H164	H	0.198715	-0.259728	-0.296280
H165	H	0.198641	-0.296453	-0.259465
H166	H	1.056656	-0.164311	-0.473021
C167	C	1.112158	-0.694986	-0.305588
H168	H	1.137911	-0.674265	-0.322706
H169	H	1.086264	-0.713295	-0.325153
H170	H	1.141680	-0.713278	-0.288420
C171	C	1.112195	-0.835746	-0.305615
H172	H	1.106002	-0.867053	-0.301501
H173	H	1.157679	-0.828038	-0.299071
H174	H	1.102248	-0.828046	-0.335794
C175	C	1.112391	-0.127329	-0.695555
H176	H	1.138185	-0.110231	-0.674865
H177	H	1.086535	-0.107746	-0.713864
H178	H	1.141874	-0.144517	-0.713852
H179	H	0.592117	-0.268677	-0.268443
C180	C	0.843911	-0.596726	-0.127286
H181	H	0.850088	-0.565417	-0.131400
H182	H	0.853847	-0.604429	-0.097108
H183	H	0.798428	-0.604438	-0.133840
H184	H	0.899559	-0.268458	-0.960277
H185	H	1.056650	-0.959805	-0.268653
H186	H	0.720351	-0.268676	-0.268433
H187	H	0.899469	-0.268583	-0.387872
C188	C	0.843798	-0.305437	-0.695489
H189	H	0.817994	-0.322543	-0.674786
H190	H	0.869659	-0.325014	-0.713791
H191	H	0.814324	-0.288241	-0.713790
H192	H	0.899467	-0.387561	-0.164209
C193	C	1.112401	-0.127296	-0.836315
H194	H	1.106193	-0.131405	-0.867615
H195	H	1.157872	-0.133873	-0.828631
H196	H	1.102521	-0.097110	-0.828634
C197	C	1.069136	-0.155985	-1.052134
H198	H	1.062932	-0.160095	-1.083434
H199	H	1.114606	-0.162561	-1.044448
H200	H	1.059255	-0.125799	-1.044456
C201	C	0.887206	-0.276648	-1.052085
H202	H	0.861403	-0.293756	-1.031384
H203	H	0.913076	-0.296222	-1.070385
H204	H	0.857732	-0.259455	-1.070388
H205	H	0.899480	-0.268568	-0.472996
C206	C	0.843838	-0.305408	-0.836245
H207	H	0.818035	-0.322517	-0.815545
H208	H	0.869703	-0.324982	-0.854549
H209	H	0.814364	-0.288211	-0.854545
H210	H	1.099811	-0.743937	-0.297383
H211	H	1.100017	-0.135523	-0.744492
H212	H	0.856206	-0.297223	-0.744439
