data_functionalizedCrystal
_audit_creation_method	'MofGen! by Chris Wilmer'
_symmetry_space_group_name_H-M	'P1'
_symmetry_Int_Tables_number	1
_symmetry_cell_setting	triclinic
loop_
_symmetry_equiv_pos_as_xyz
  x,y,z
_cell_length_a	16.625546
_cell_length_b	19.805407
_cell_length_c	19.805399
_cell_angle_alpha	90.019197
_cell_angle_beta	89.972133
_cell_angle_gamma	89.981382
loop_
_atom_site_label
_atom_site_type_symbol
_atom_site_fract_x
_atom_site_fract_y
_atom_site_fract_z
Zn1	Zn	-0.321103	-1.034754	-0.382711
Zn2	Zn	-0.455940	-1.034677	-0.269523
Zn3	Zn	-0.321116	-0.921569	-0.269537
Zn4	Zn	-0.455888	-0.921540	-0.382670
O5	O	-0.388512	-0.978135	-0.326110
O6	O	-0.339006	-1.129460	-0.367708
O7	O	-0.438083	-1.019652	-0.174808
O8	O	-0.208282	-0.936628	-0.284573
O9	O	-0.438070	-1.129404	-0.284549
O10	O	-0.208272	-1.019784	-0.367722
O11	O	-0.339028	-0.936552	-0.174818
O12	O	-0.338978	-0.826848	-0.284533
O13	O	-0.437982	-0.936579	-0.477392
O14	O	-0.437994	-0.826827	-0.367651
O15	O	-0.338955	-1.019756	-0.477423
O16	O	-0.568766	-1.019625	-0.284509
O17	O	-0.568728	-0.936504	-0.367638
C18	C	-0.388483	-0.802279	-0.326090
C19	C	-0.388489	-0.727047	-0.326097
C20	C	-0.336997	-0.691733	-0.369463
C21	C	-0.336999	-0.621045	-0.369464
C22	C	-0.388499	-0.585671	-0.326101
C23	C	-0.439994	-0.620990	-0.282731
C24	C	-0.439987	-0.691677	-0.282727
C25	C	-0.440023	-0.335917	-0.282744
C26	C	-0.440028	-0.265225	-0.282753
C27	C	-0.337036	-0.265284	-0.369481
C28	C	-0.337029	-0.335971	-0.369478
C29	C	-0.388520	-0.371284	-0.326104
C30	C	-0.388516	-0.447932	-0.326103
C31	C	-0.388508	-0.509024	-0.326106
C32	C	-0.598003	-0.978071	-0.326082
C33	C	-0.687624	-0.978105	-0.326092
C34	C	-1.015800	-0.978224	-0.326163
C35	C	-0.924491	-0.978189	-0.326145
C36	C	-0.851715	-0.978164	-0.326127
C37	C	-0.760400	-0.978130	-0.326110
C38	C	-0.178203	-0.978218	-0.326154
C39	C	-0.088582	-0.978253	-0.326172
C40	C	-0.388461	-0.978173	-0.502653
C41	C	-0.388440	-0.978189	-0.577885
C42	C	-0.388536	-0.154678	-0.326125
C43	C	-0.388531	-0.229910	-0.326116
C44	C	-0.336874	-1.021501	-0.613246
C45	C	-0.336851	-1.021508	-0.683935
C46	C	-0.388398	-0.978206	-0.719261
C47	C	-0.439965	-0.934889	-0.683895
C48	C	-0.439984	-0.934880	-0.613208
C49	C	-0.439890	-0.934928	-0.968968
C50	C	-0.439869	-0.934942	-1.039660
C51	C	-0.336757	-1.021556	-1.039695
C52	C	-0.336776	-1.021546	-0.969008
C53	C	-0.388340	-0.978227	-0.933648
C54	C	-0.388364	-0.978219	-0.857000
C55	C	-0.388379	-0.978217	-0.795908
C56	C	-0.388504	-0.978136	-0.150254
C57	C	-0.388299	-0.978251	-0.075023
H58	H	-0.481967	-0.236426	-0.247440
H59	H	-0.295106	-0.236524	-0.404795
H60	H	-0.294768	-1.056826	-1.068494
H61	H	-0.481951	-0.364660	-0.247428
H62	H	-0.481922	-0.592184	-0.247421
H63	H	-0.294901	-1.056764	-0.584489
C64	C	-0.495864	-0.887848	-1.077894
C65	C	-0.541010	-0.849895	-1.031799
C66	C	-0.592590	-0.806502	-1.066995
H67	H	-0.531066	-0.913653	-1.105468
H68	H	-0.465020	-0.858342	-1.105457
H69	H	-0.571852	-0.879398	-1.004248
H70	H	-0.505829	-0.824076	-1.004224
H71	H	-0.561746	-0.776996	-1.094558
H72	H	-0.627787	-0.832313	-1.094568
H73	H	-0.623222	-0.780741	-1.035725
C74	C	-0.495792	-0.887929	-0.930461
C75	C	-0.484765	-0.897170	-0.860995
C76	C	-0.536244	-0.853879	-0.825499
H77	H	-0.549998	-0.897775	-0.941956
H78	H	-0.483974	-0.842444	-0.942003
H79	H	-0.496589	-0.942645	-0.849458
H80	H	-0.430570	-0.887319	-0.849481
H81	H	-0.524427	-0.808394	-0.837041
H82	H	-0.590447	-0.863729	-0.836999
H83	H	-0.528765	-0.860139	-0.778362
H84	H	-0.294863	-1.056778	-0.712722
C85	C	-0.281067	-0.374463	-0.416447
C86	C	-0.229339	-0.415053	-0.378197
C87	C	-0.177781	-0.450526	-0.421441
H88	H	-0.250322	-0.343385	-0.442290
H89	H	-0.311933	-0.402083	-0.445879
H90	H	-0.198477	-0.387435	-0.348777
H91	H	-0.260063	-0.446143	-0.352355
H92	H	-0.208647	-0.478146	-0.450873
H93	H	-0.147041	-0.419443	-0.447282
H94	H	-0.142683	-0.478075	-0.395495
C95	C	-0.496031	-0.729986	-0.235730
C96	C	-0.575834	-0.712796	-0.250360
C97	C	-0.627484	-0.748079	-0.207084
H98	H	-0.484268	-0.718416	-0.190246
H99	H	-0.488704	-0.777157	-0.241943
H100	H	-0.583157	-0.665636	-0.244141
H101	H	-0.587622	-0.724369	-0.295836
H102	H	-0.620157	-0.795250	-0.213297
H103	H	-0.615714	-0.736506	-0.161603
H104	H	-0.681636	-0.736426	-0.217009
H105	H	-0.294804	-1.056809	-0.940249
H106	H	-0.481933	-0.899630	-0.712663
H107	H	-0.481966	-0.899604	-0.584417
H108	H	-0.295062	-0.720529	-0.404775
H109	H	-0.295071	-0.592295	-0.404778
