data_functionalizedCrystal
_audit_creation_method	'MofGen! by Chris Wilmer'
_symmetry_space_group_name_H-M	'P1'
_symmetry_Int_Tables_number	1
_symmetry_cell_setting	triclinic
loop_
_symmetry_equiv_pos_as_xyz
  x,y,z
_cell_length_a	6.817900
_cell_length_b	11.102188
_cell_length_c	9.514088
_cell_angle_alpha	88.635877
_cell_angle_beta	118.843545
_cell_angle_gamma	108.603875
loop_
_atom_site_label
_atom_site_type_symbol
_atom_site_fract_x
_atom_site_fract_y
_atom_site_fract_z
V1	V	-4.243914	-0.178092	-0.500743
O2	O	-4.200436	0.006240	-0.491211
O3	O	-4.219776	-0.350896	-0.497319
O4	O	-4.278436	-0.176370	-0.719134
O5	O	-4.141370	-0.169495	-0.267859
V6	V	-4.713653	-0.155924	-0.472888
O7	O	-4.535408	-0.226720	-0.561845
O8	O	-4.872356	-0.107295	-0.411787
O9	O	-4.514584	0.016881	-0.476313
O10	O	-4.874527	-0.340255	-0.482421
O11	O	-4.933593	-0.164520	-0.705772
O12	O	-4.455924	-0.157646	-0.254497
C13	C	-4.067996	-0.392991	-0.489419
C14	C	-4.130100	-0.534267	-0.488075
C15	C	-4.060223	-0.581828	-0.340370
C16	C	-4.118602	-0.714574	-0.339114
C17	C	-4.316730	-0.752187	-0.633279
C18	C	-4.258366	-0.619444	-0.634535
C19	C	-4.142820	-0.170363	-0.772365
C20	C	-4.252490	-0.170098	-0.950901
C21	C	-4.329705	0.058969	-0.484208
C22	C	-4.246844	0.200244	-0.485563
C23	C	-4.254879	-0.163657	-0.201258
C24	C	-4.124446	-0.163915	-0.022720
H25	H	-3.955783	-0.512480	-0.221113
F26	F	-4.505461	-0.176757	-1.049065
H27	H	-4.315286	-0.580722	-0.754821
H28	H	-3.930928	-0.158835	-0.947624
H29	H	-4.421165	-0.821554	-0.752521
F30	F	-4.044235	-0.765185	-0.181906
