data_functionalizedCrystal
_audit_creation_method	'MofGen! by Chris Wilmer'
_symmetry_space_group_name_H-M	'P1'
_symmetry_Int_Tables_number	1
_symmetry_cell_setting	triclinic
loop_
_symmetry_equiv_pos_as_xyz
  x,y,z
_cell_length_a	17.699083
_cell_length_b	19.188930
_cell_length_c	16.176319
_cell_angle_alpha	89.988074
_cell_angle_beta	89.998611
_cell_angle_gamma	83.213899
loop_
_atom_site_label
_atom_site_type_symbol
_atom_site_fract_x
_atom_site_fract_y
_atom_site_fract_z
O1	O	1.003963	0.088294	-0.068640
O2	O	1.337296	0.421628	0.264693
O3	O	1.670629	0.754961	0.598027
O4	O	0.783569	0.099782	-0.068668
O5	O	1.116902	0.433115	0.264665
O6	O	1.450236	0.766448	0.597998
O7	O	0.900126	-0.007610	-0.068637
O8	O	1.233459	0.325723	0.264696
O9	O	1.566792	0.659056	0.598029
O10	O	0.887406	0.195687	-0.068671
O11	O	1.220739	0.529020	0.264662
O12	O	1.554072	0.862353	0.597996
O13	O	0.900110	-0.007617	0.068856
O14	O	1.233443	0.325716	0.402189
O15	O	1.566777	0.659049	0.735523
O16	O	0.783553	0.099775	0.068825
O17	O	1.116886	0.433108	0.402158
O18	O	1.450220	0.766442	0.735492
O19	O	1.003947	0.088288	0.068853
O20	O	1.337280	0.421621	0.402187
O21	O	1.670613	0.754954	0.735520
Cu22	Cu	0.893748	0.094031	0.081393
Cu23	Cu	1.227082	0.427364	0.414727
Cu24	Cu	1.560415	0.760697	0.748060
Cu25	Cu	0.893767	0.094039	-0.081208
Cu26	Cu	1.227101	0.427372	0.252125
Cu27	Cu	1.560434	0.760705	0.585458
O28	O	0.887390	0.195680	0.068822
O29	O	1.220723	0.529013	0.402155
O30	O	1.554056	0.862346	0.735489
C31	C	0.755365	0.099367	0.000075
C32	C	1.088698	0.432700	0.333408
C33	C	1.422031	0.766033	0.666742
C34	C	0.671348	0.098132	0.000065
C35	C	1.004681	0.431465	0.333398
C36	C	1.338015	0.764799	0.666731
C37	C	0.622644	0.161169	0.000055
C38	C	0.955977	0.494502	0.333388
C39	C	1.289311	0.827835	0.666721
C40	C	0.543702	0.160004	0.000065
C41	C	0.877036	0.493338	0.333399
C42	C	1.210369	0.826671	0.666732
C43	C	0.513466	0.095802	0.000081
C44	C	0.846799	0.429136	0.333414
C45	C	1.180133	0.762469	0.666747
C46	C	0.562176	0.032761	0.000093
C47	C	0.895510	0.366094	0.333427
C48	C	1.228843	0.699427	0.666760
C49	C	0.641117	0.033926	0.000088
C50	C	0.974450	0.367259	0.333422
C51	C	1.307783	0.700592	0.666755
C52	C	0.243819	0.028060	0.000115
C53	C	0.577153	0.361394	0.333448
C54	C	0.910486	0.694727	0.666781
C55	C	0.164873	0.026900	0.000117
C56	C	0.498206	0.360233	0.333450
C57	C	0.831540	0.693567	0.666784
C58	C	0.146405	0.154139	0.000092
C59	C	0.479739	0.487472	0.333425
C60	C	0.813072	0.820806	0.666758
C61	C	0.225345	0.155304	0.000087
C62	C	0.558679	0.488637	0.333420
C63	C	0.892012	0.821971	0.666753
C64	C	0.274049	0.092263	0.000104
C65	C	0.607382	0.425596	0.333437
C66	C	0.940715	0.758929	0.666770
C67	C	0.359646	0.093526	0.000094
C68	C	0.692980	0.426859	0.333427
C69	C	1.026313	0.760193	0.666760
C70	C	0.427870	0.094538	0.000085
C71	C	0.761203	0.427872	0.333418
C72	C	1.094537	0.761205	0.666752
C73	C	0.899706	-0.033625	0.000112
C74	C	1.233039	0.299708	0.333445
C75	C	1.566373	0.633041	0.666778
C76	C	0.898469	-0.111131	0.000119
C77	C	1.231803	0.222202	0.333452
C78	C	1.565136	0.555535	0.666785
C79	C	0.966861	-0.155978	0.000131
C80	C	1.300194	0.177355	0.333465
C81	C	1.633528	0.510688	0.666798
C82	C	0.965699	-0.228804	0.000118
C83	C	1.299033	0.104530	0.333451
C84	C	1.632366	0.437863	0.666785
C85	C	0.896142	-0.256778	0.000108
C86	C	1.229475	0.076555	0.333442
C87	C	1.562809	0.409889	0.666775
C88	C	0.827741	-0.211921	0.000091
C89	C	1.161075	0.121412	0.333424
C90	C	1.494408	0.454746	0.666758
C91	C	0.828905	-0.139098	0.000096
C92	C	1.162238	0.194236	0.333430
C93	C	1.495572	0.527569	0.666763
N94	N	0.842968	-0.364845	0.046893
N95	N	1.176302	-0.031512	0.380227
N96	N	1.509635	0.301822	0.713560
N97	N	0.841868	-0.434025	0.046890
N98	N	1.175201	-0.100692	0.380223
N99	N	1.508534	0.232642	0.713557
C100	C	0.892632	-0.476191	0.000091
C101	C	1.225965	-0.142857	0.333425
C102	C	1.559299	0.190476	0.666758
N103	N	0.944550	-0.446565	-0.046694
N104	N	1.277883	-0.113231	0.286639
N105	N	1.611217	0.220102	0.619973
N106	N	0.945653	-0.377379	-0.046687
N107	N	1.278986	-0.044045	0.286646
N108	N	1.612320	0.289288	0.619979
C109	C	0.894873	-0.335742	0.000102
C110	C	1.228206	-0.002409	0.333436
C111	C	1.561539	0.330925	0.666769
C112	C	0.959769	-0.600004	0.000088
C113	C	1.293102	-0.266671	0.333422
C114	C	1.626435	0.066663	0.666755
C115	C	0.958604	-0.672830	0.000070
C116	C	1.291937	-0.339497	0.333403
C117	C	1.625271	-0.006163	0.666737
C118	C	0.820644	-0.655946	0.000051
C119	C	1.153977	-0.322612	0.333385
C120	C	1.487311	0.010721	0.666718
C121	C	0.821811	-0.583121	0.000061
C122	C	1.155144	-0.249788	0.333395
C123	C	1.488477	0.083545	0.666728
C124	C	0.891375	-0.555155	0.000084
C125	C	1.224708	-0.221822	0.333417
C126	C	1.558042	0.111512	0.666751
C127	C	1.032151	0.088703	0.000108
C128	C	1.365484	0.422036	0.333441
C129	C	1.698818	0.755369	0.666775
C130	C	1.116167	0.089938	0.000113
C131	C	1.449501	0.423271	0.333446
C132	C	1.782834	0.756604	0.666779
C133	C	0.887810	0.221695	0.000071
C134	C	1.221143	0.555028	0.333405
C135	C	1.554476	0.888361	0.666738
C136	C	0.889046	0.299201	0.000059
C137	C	1.222379	0.632534	0.333392
C138	C	1.555713	0.965867	0.666726
N139	N	0.893741	0.094025	0.195758
N140	N	1.227074	0.427358	0.529092
N141	N	1.560407	0.760691	0.862425
N142	N	0.893781	0.094039	-0.195574
N143	N	1.227114	0.427373	0.137760
N144	N	1.560448	0.760706	0.471093
C145	C	0.945367	0.046491	0.239036
C146	C	1.278701	0.379824	0.572370
C147	C	1.612034	0.713157	0.905703
C148	C	0.945371	0.046490	0.325584
C149	C	1.278705	0.379823	0.658917
C150	C	1.612038	0.713157	0.992250
C151	C	0.893751	0.094027	0.368851
C152	C	1.227085	0.427360	0.702184
C153	C	1.560418	0.760694	1.035518
C154	C	0.842119	0.141563	0.325567
C155	C	1.175452	0.474896	0.658900
C156	C	1.508786	0.808230	0.992234
C157	C	0.842112	0.141560	0.239022
C158	C	1.175445	0.474893	0.572355
C159	C	1.508779	0.808227	0.905688
C160	C	0.842145	0.141576	0.674595
C161	C	1.175478	0.474909	1.007929
C162	C	1.508811	0.808243	1.341262
C163	C	0.842157	0.141577	0.761147
C164	C	1.175491	0.474910	1.094480
C165	C	1.508824	0.808244	1.427814
C166	C	0.945404	0.046506	0.761157
C167	C	1.278737	0.379840	1.094491
C168	C	1.612071	0.713173	1.427824
C169	C	0.945397	0.046503	0.674612
C170	C	1.278730	0.379836	1.007945
C171	C	1.612064	0.713170	1.341278
C172	C	0.893763	0.094036	0.631335
C173	C	1.227096	0.427370	0.964669
C174	C	1.560429	0.760703	1.298002
C175	C	0.893758	0.094036	0.537491
C176	C	1.227091	0.427369	0.870824
C177	C	1.560425	0.760702	1.204158
C178	C	0.893759	0.094031	0.462694
C179	C	1.227092	0.427365	0.796027
C180	C	1.560425	0.760698	1.129360
H181	H	0.680771	-0.017406	0.000096
H182	H	1.014105	0.315928	0.333430
H183	H	1.347438	0.649261	0.666763
H184	H	0.504050	0.211335	0.000056
H185	H	0.837383	0.544669	0.333389
H186	H	1.170717	0.878002	0.666723
H187	H	0.800085	0.180266	0.360800
H188	H	1.133419	0.513600	0.694134
H189	H	1.466752	0.846933	1.027467
H190	H	0.773210	-0.102582	0.000086
H191	H	1.106544	0.230751	0.333419
H192	H	1.439877	0.564085	0.666753
H193	H	0.800119	0.180289	0.796374
H194	H	1.133452	0.513622	1.129707
H195	H	1.466786	0.846955	1.463041
O196	O	1.034797	-0.569837	0.000101
O197	O	1.368130	-0.236504	0.333434
O198	O	1.701464	0.096829	0.666767
H199	H	1.024117	-0.511663	0.000114
H200	H	1.357450	-0.178330	0.333447
H201	H	1.690784	0.155003	0.666780
H202	H	1.014299	-0.709345	0.000076
H203	H	1.347633	-0.376011	0.333409
H204	H	1.680966	-0.042678	0.666742
O205	O	0.257953	0.224553	0.000083
O206	O	0.591287	0.557886	0.333416
O207	O	0.924620	0.891219	0.666749
H208	H	0.238368	0.254848	-0.055955
H209	H	0.571701	0.588181	0.277379
H210	H	0.905034	0.921514	0.610712
O211	O	0.093869	0.222134	0.000088
O212	O	0.427202	0.555467	0.333421
O213	O	0.760536	0.888801	0.666754
H214	H	0.104582	0.252864	-0.055964
H215	H	0.437915	0.586197	0.277370
H216	H	0.771249	0.919530	0.610703
O217	O	1.041887	-0.125812	0.000132
O218	O	1.375221	0.207521	0.333466
O219	O	1.708554	0.540854	0.666799
H220	H	1.089250	-0.169237	0.000127
H221	H	1.422583	0.164096	0.333460
H222	H	1.755917	0.497429	0.666794
O223	O	0.296339	-0.039934	0.000132
O224	O	0.629672	0.293399	0.333465
O225	O	0.963006	0.626732	0.666799
H226	H	0.332752	-0.042448	-0.055904
H227	H	0.666085	0.290885	0.277429
H228	H	0.999419	0.624218	0.610763
H229	H	1.021394	-0.265325	0.000125
H230	H	1.354727	0.068008	0.333458
H231	H	1.688061	0.401341	0.666792
O232	O	1.001070	-0.004776	0.627950
O233	O	1.334403	0.328558	0.961283
O234	O	1.667737	0.661891	1.294616
H235	H	0.969314	-0.038668	0.588535
H236	H	1.302648	0.294665	0.921868
H237	H	1.635981	0.627998	1.255201
H238	H	0.800104	0.180281	0.639366
H239	H	1.133437	0.513614	0.972700
H240	H	1.466770	0.846947	1.306033
O241	O	0.786433	0.192831	0.192336
O242	O	1.119767	0.526165	0.525670
O243	O	1.453100	0.859498	0.859003
H244	H	0.750544	0.225893	0.236961
H245	H	1.083878	0.559226	0.570294
H246	H	1.417211	0.892559	0.903628
O247	O	0.748045	-0.534743	0.000056
O248	O	1.081378	-0.201410	0.333390
O249	O	1.414711	0.131923	0.666723
H250	H	0.745275	-0.501170	0.056096
H251	H	1.078608	-0.167837	0.389429
H252	H	1.411941	0.165496	0.722762
H253	H	0.764009	-0.678722	0.000039
H254	H	1.097342	-0.345388	0.333373
H255	H	1.430676	-0.012055	0.666706
H256	H	0.987405	0.007784	0.203814
H257	H	1.320739	0.341117	0.537147
H258	H	1.654072	0.674450	0.870480
O259	O	0.529571	-0.036489	0.000113
O260	O	0.862904	0.296844	0.333446
O261	O	1.196237	0.630177	0.666780
H262	H	0.466496	-0.026711	0.000107
H263	H	0.799829	0.306623	0.333440
H264	H	1.133162	0.639956	0.666774
O265	O	1.001067	-0.004766	0.372265
O266	O	1.334401	0.328568	0.705599
O267	O	1.667734	0.661901	1.038932
H268	H	1.036972	-0.037811	0.327639
H269	H	1.370305	0.295522	0.660972
H270	H	1.703638	0.628856	0.994306
O271	O	1.001092	-0.004772	0.807832
O272	O	1.334426	0.328561	1.141165
O273	O	1.667759	0.661895	1.474499
H274	H	0.992422	0.003208	0.875282
H275	H	1.325756	0.336541	1.208615
H276	H	1.659089	0.669874	1.541949
O277	O	0.655247	0.230420	0.000043
O278	O	0.988580	0.563753	0.333376
O279	O	1.321914	0.897087	0.666710
H280	H	0.690763	0.234005	-0.056003
H281	H	1.024096	0.567338	0.277331
H282	H	1.357430	0.900672	0.610664
O283	O	0.132261	-0.042351	0.000150
O284	O	0.465594	0.290982	0.333483
O285	O	0.798927	0.624315	0.666816
H286	H	0.151843	-0.072645	-0.055876
H287	H	0.485176	0.260688	0.277458
H288	H	0.818510	0.594022	0.610791
O289	O	0.752716	-0.242087	0.000090
O290	O	1.086049	0.091247	0.333424
O291	O	1.419383	0.424580	0.666757
H292	H	0.763396	-0.300261	0.000100
H293	H	1.096729	0.033073	0.333434
H294	H	1.430063	0.366406	0.666767
