data_functionalizedCrystal
_audit_creation_method	'MofGen! by Chris Wilmer'
_symmetry_space_group_name_H-M	'P1'
_symmetry_Int_Tables_number	1
_symmetry_cell_setting	triclinic
loop_
_symmetry_equiv_pos_as_xyz
  x,y,z
_cell_length_a	6.817900
_cell_length_b	11.168138
_cell_length_c	11.168144
_cell_angle_alpha	92.019895
_cell_angle_beta	108.508840
_cell_angle_gamma	108.508793
loop_
_atom_site_label
_atom_site_type_symbol
_atom_site_fract_x
_atom_site_fract_y
_atom_site_fract_z
V1	V	-4.109885	-0.174723	-0.393710
O2	O	-4.069468	0.008378	-0.386204
O3	O	-4.086174	-0.346428	-0.391027
O4	O	-4.086176	-0.172043	-0.565415
O5	O	-4.069466	-0.167214	-0.210609
V6	V	-4.587114	-0.152821	-0.371808
O7	O	-4.384949	-0.222766	-0.441752
O8	O	-4.762247	-0.104777	-0.323765
O9	O	-4.387618	0.018885	-0.374490
O10	O	-4.744928	-0.335921	-0.379314
O11	O	-4.744930	-0.160329	-0.554909
O12	O	-4.387616	-0.155500	-0.200102
C13	C	-3.936382	-0.388286	-0.384819
C14	C	-3.998447	-0.528657	-0.383771
C15	C	-3.851278	-0.585128	-0.377314
C16	C	-3.915421	-0.730209	-0.376230
C17	C	-3.936383	-0.165839	-0.607267
C18	C	-3.998445	-0.164784	-0.747637
C19	C	-4.082930	-0.274207	-0.827364
C20	C	-4.147076	-0.273120	-0.972444
C21	C	-4.200753	0.060736	-0.380695
C22	C	-4.117927	0.201106	-0.381752
C23	C	-4.200751	-0.161708	-0.158244
C24	C	-4.117926	-0.162757	-0.017873
H25	H	-3.789535	-0.778797	-0.370708
H26	H	-4.219500	-0.366798	-1.040942
C27	C	-4.020071	-0.036188	-0.925355
C28	C	-3.788322	0.000824	-0.823574
C29	C	-3.690463	0.127392	-0.731046
C30	C	-3.824352	0.216949	-0.740298
C31	C	-4.056114	0.179939	-0.842083
C32	C	-4.153974	0.053371	-0.934612
H33	H	-3.689197	-0.065473	-0.816721
H34	H	-3.518896	0.154789	-0.655698
H35	H	-3.751910	0.310643	-0.671803
H36	H	-4.155239	0.246236	-0.848936
H37	H	-4.325540	0.025974	-1.009960
C38	C	-4.116497	-0.401859	-0.774488
C39	C	-4.268028	-0.440228	-0.694843
C40	C	-4.301597	-0.567883	-0.641970
C41	C	-4.183636	-0.657170	-0.668742
C42	C	-4.032095	-0.618804	-0.748391
C43	C	-3.998525	-0.491148	-0.801264
H44	H	-4.355359	-0.374131	-0.675021
H45	H	-4.413779	-0.596284	-0.583008
H46	H	-4.208486	-0.751669	-0.629602
H47	H	-3.944763	-0.684901	-0.768212
H48	H	-3.886344	-0.462747	-0.860225
H49	H	-3.677791	-0.526066	-0.372582
H50	H	-4.243832	-0.750316	-0.387287
H51	H	-4.171923	-0.587715	-0.388483
H52	H	-3.973615	-0.070299	-0.786787
