data_functionalizedCrystal
_audit_creation_method	'MofGen! by Chris Wilmer'
_symmetry_space_group_name_H-M	'P1'
_symmetry_Int_Tables_number	1
_symmetry_cell_setting	triclinic
loop_
_symmetry_equiv_pos_as_xyz
  x,y,z
_cell_length_a	10.654550
_cell_length_b	14.044220
_cell_length_c	9.130313
_cell_angle_alpha	89.994483
_cell_angle_beta	89.999724
_cell_angle_gamma	88.836904
loop_
_atom_site_label
_atom_site_type_symbol
_atom_site_fract_x
_atom_site_fract_y
_atom_site_fract_z
O1	O	1.681228	0.133232	-0.121694
O2	O	1.317025	0.145925	-0.121721
O3	O	1.493660	0.001558	-0.121693
O4	O	1.504593	0.277599	-0.121721
O5	O	1.493646	0.001554	0.121906
O6	O	1.317011	0.145921	0.121878
O7	O	1.681214	0.133227	0.121905
Cu8	Cu	1.499112	0.139574	0.144134
Cu9	Cu	1.499128	0.139579	-0.143950
O10	O	1.504580	0.277595	0.121877
C11	C	1.270127	0.144991	0.000075
C12	C	1.130403	0.142202	0.000065
C13	C	1.059459	0.227204	0.000061
C14	C	0.928175	0.224578	0.000086
C15	C	0.938790	0.051942	0.000115
C16	C	1.070072	0.054569	0.000100
C17	C	1.488867	-0.033790	0.000106
C18	C	1.474592	-0.139110	0.000107
C19	C	1.448493	-0.331943	0.000084
C20	C	1.549741	-0.388910	0.000087
C21	C	1.535219	-0.496209	0.000074
C22	C	1.463013	-0.224634	0.000097
C23	C	1.728113	0.134162	0.000106
C24	C	1.867836	0.136950	0.000106
C25	C	1.509372	0.312943	0.000075
C26	C	1.523648	0.418262	0.000064
N27	N	1.499109	0.139570	0.346757
N28	N	1.499139	0.139575	-0.346572
C29	C	1.577355	0.075671	0.423421
C30	C	1.577367	0.075671	0.576758
C31	C	1.420885	0.203477	0.576753
C32	C	1.420867	0.203472	0.423419
H33	H	0.870417	0.293795	0.000086
C34	C	1.335732	0.272745	0.659917
C35	C	1.210509	0.256472	0.622675
C36	C	1.132030	0.320256	0.699269
H37	H	1.356293	0.336191	0.634834
H38	H	1.346866	0.263592	0.762231
H39	H	1.199380	0.265633	0.520384
H40	H	1.189909	0.193038	0.647761
H41	H	1.143164	0.311103	0.801583
H42	H	1.152602	0.383698	0.674181
H43	H	1.047057	0.309218	0.674022
H44	H	0.889652	-0.019406	0.000152
H45	H	1.357144	0.255506	0.360995
H46	H	1.641063	0.023637	0.361006
C47	C	1.125196	0.322251	-0.000041
C48	C	1.255353	0.306363	-0.000096
C49	C	1.315946	0.393899	-0.000208
H50	H	1.101656	0.357360	0.084882
H51	H	1.101562	0.357294	-0.085026
H52	H	1.278978	0.271334	0.084880
H53	H	1.278930	0.271268	-0.085013
H54	H	1.292311	0.428943	-0.085193
H55	H	1.292396	0.429002	0.084716
H56	H	1.404263	0.383131	-0.000259
C57	C	1.146886	-0.037828	0.000029
C58	C	1.065955	-0.115136	0.000011
C59	C	1.136672	-0.200261	-0.000068
H60	H	1.198339	-0.040524	0.084949
H61	H	1.198291	-0.040442	-0.084958
H62	H	1.014573	-0.112523	0.084989
H63	H	1.014502	-0.112471	-0.084904
H64	H	1.188076	-0.202875	-0.085055
H65	H	1.188121	-0.202947	0.084854
H66	H	1.081771	-0.252724	-0.000094
H67	H	1.647328	-0.357098	-0.000004
H68	H	1.350913	-0.363754	0.000073
C69	C	1.662460	0.006255	0.659728
C70	C	1.730994	-0.049689	0.559765
C71	C	1.809407	-0.113640	0.636143
H72	H	1.612978	-0.033641	0.719563
H73	H	1.718665	0.040726	0.719498
H74	H	1.674796	-0.084157	0.500020
H75	H	1.780500	-0.009818	0.499927
H76	H	1.865612	-0.079169	0.695913
H77	H	1.759916	-0.153530	0.695975
H78	H	1.855925	-0.151600	0.568330
