data_functionalizedCrystal
_audit_creation_method	'MofGen! by Chris Wilmer'
_symmetry_space_group_name_H-M	'P1'
_symmetry_Int_Tables_number	1
_symmetry_cell_setting	triclinic
loop_
_symmetry_equiv_pos_as_xyz
  x,y,z
_cell_length_a	14.519709
_cell_length_b	14.519731
_cell_length_c	13.596369
_cell_angle_alpha	90.005416
_cell_angle_beta	90.006934
_cell_angle_gamma	83.684499
loop_
_atom_site_label
_atom_site_type_symbol
_atom_site_fract_x
_atom_site_fract_y
_atom_site_fract_z
O1	O	0.120986	1.223856	0.081796
O2	O	0.620986	1.723856	0.581796
O3	O	0.135202	0.955382	0.081797
O4	O	0.635202	1.455382	0.581797
O5	O	-0.006144	1.096737	0.081788
O6	O	0.493856	1.596737	0.581788
O7	O	0.262332	1.082501	0.081805
O8	O	0.762332	1.582501	0.581805
O9	O	-0.006151	1.096723	-0.081795
O10	O	0.493849	1.596723	0.418205
O11	O	0.135195	0.955368	-0.081785
O12	O	0.635195	1.455368	0.418215
O13	O	0.120979	1.223842	-0.081787
O14	O	0.620979	1.723842	0.418213
Zn15	Zn	0.128086	1.089603	-0.107759
Zn16	Zn	0.628086	1.589603	0.392241
Zn17	Zn	0.128096	1.089621	0.107769
Zn18	Zn	0.628096	1.589621	0.607769
O19	O	0.262325	1.082487	-0.081777
O20	O	0.762325	1.582487	0.418223
C21	C	0.134532	0.921016	0.000006
C22	C	0.634532	1.421016	0.500006
C23	C	0.132536	0.818635	0.000007
C24	C	0.632536	1.318635	0.500007
C25	C	0.130915	0.735491	0.000010
C26	C	0.630915	1.235491	0.500010
C27	C	0.128888	0.631182	0.000011
C28	C	0.628888	1.131182	0.500011
C29	C	0.127280	0.548043	0.000010
C30	C	0.627280	1.048043	0.500010
C31	C	0.125253	0.443728	0.000012
C32	C	0.625253	0.943728	0.500012
C33	C	-0.040507	1.096067	-0.000004
C34	C	0.459493	1.596067	0.499996
C35	C	-0.142889	1.094079	-0.000005
C36	C	0.357111	1.594079	0.499995
C37	C	-0.517785	1.086759	0.000021
C38	C	-0.017785	1.586759	0.500021
C39	C	-0.413477	1.088792	0.000014
C40	C	0.086523	1.588792	0.500014
C41	C	-0.330340	1.090419	0.000007
C42	C	0.169660	1.590419	0.500007
C43	C	-0.226025	1.092452	0.000002
C44	C	0.273975	1.592452	0.500002
C45	C	0.296688	1.083157	0.000016
C46	C	0.796688	1.583157	0.500016
C47	C	0.399070	1.085146	0.000023
C48	C	0.899070	1.585146	0.500023
C49	C	0.121649	1.258209	0.000006
C50	C	0.621649	1.758209	0.500006
C51	C	0.123645	1.360589	0.000012
C52	C	0.623645	1.860589	0.500012
N53	N	0.128078	1.089597	-0.254851
N54	N	0.628078	1.589597	0.245149
C55	C	0.128096	1.089620	-0.656141
C56	C	0.628096	1.589620	-0.156141
C57	C	0.128095	1.089611	-0.544490
C58	C	0.628095	1.589611	-0.044490
C59	C	0.128088	1.089609	-0.455500
C60	C	0.628088	1.589609	0.044500
C61	C	0.128085	1.089599	-0.343841
C62	C	0.628085	1.589599	0.156159
N63	N	0.128096	1.089635	0.254861
N64	N	0.628096	1.589635	0.754861
