data_functionalizedCrystal
_audit_creation_method	'MofGen! by Chris Wilmer'
_symmetry_space_group_name_H-M	'P1'
_symmetry_Int_Tables_number	1
_symmetry_cell_setting	triclinic
loop_
_symmetry_equiv_pos_as_xyz
  x,y,z
_cell_length_a	18.050591
_cell_length_b	18.050589
_cell_length_c	18.215399
_cell_angle_alpha	89.976397
_cell_angle_beta	89.975463
_cell_angle_gamma	90.024669
loop_
_atom_site_label
_atom_site_type_symbol
_atom_site_fract_x
_atom_site_fract_y
_atom_site_fract_z
Zn1	Zn	1.135328	-0.295737	-0.416230
Zn2	Zn	1.468661	0.037596	-0.082897
Zn3	Zn	1.801994	0.370929	0.250436
Zn4	Zn	1.135228	-0.419932	-0.293173
Zn5	Zn	1.468561	-0.086599	0.040160
Zn6	Zn	1.801895	0.246734	0.373493
Zn7	Zn	1.011136	-0.295753	-0.293168
Zn8	Zn	1.344470	0.037580	0.040166
Zn9	Zn	1.677803	0.370914	0.373499
Zn10	Zn	1.011095	-0.419882	-0.416188
Zn11	Zn	1.344428	-0.086549	-0.082855
Zn12	Zn	1.677761	0.246784	0.250478
O13	O	1.073197	-0.357826	-0.354690
O14	O	1.406530	-0.024493	-0.021357
O15	O	1.739863	0.308840	0.311977
O16	O	1.239239	-0.312227	-0.399927
O17	O	1.572572	0.021107	-0.066593
O18	O	1.905906	0.354440	0.266740
O19	O	1.118743	-0.403487	-0.190188
O20	O	1.452076	-0.070154	0.143145
O21	O	1.785409	0.263179	0.476478
O22	O	1.027670	-0.191826	-0.309507
O23	O	1.361003	0.141507	0.023826
O24	O	1.694336	0.474840	0.357159
O25	O	1.239166	-0.403472	-0.309517
O26	O	1.572499	-0.070139	0.023816
O27	O	1.905832	0.263195	0.357149
O28	O	1.118912	-0.191815	-0.399921
O29	O	1.452246	0.141518	-0.066588
O30	O	1.785579	0.474852	0.266746
O31	O	1.027573	-0.312253	-0.190184
O32	O	1.360906	0.021080	0.143149
O33	O	1.694240	0.354413	0.476483
O34	O	0.907206	-0.312205	-0.309467
O35	O	1.240540	0.021129	0.023867
O36	O	1.573873	0.354462	0.357200
O37	O	1.027599	-0.403387	-0.519178
O38	O	1.360932	-0.070054	-0.185845
O39	O	1.694265	0.263280	0.147488
O40	O	0.907176	-0.403402	-0.399849
O41	O	1.240509	-0.070069	-0.066516
O42	O	1.573842	0.263265	0.266817
O43	O	1.118872	-0.312178	-0.519209
O44	O	1.452205	0.021155	-0.185876
O45	O	1.785539	0.354489	0.147458
O46	O	1.118702	-0.523850	-0.309476
O47	O	1.452036	-0.190517	0.023857
O48	O	1.785369	0.142816	0.357190
O49	O	1.027502	-0.523814	-0.399855
O50	O	1.360835	-0.190480	-0.066522
O51	O	1.694169	0.142853	0.266812
C52	C	0.880245	-0.357800	-0.354653
C53	C	1.213578	-0.024467	-0.021320
C54	C	1.546911	0.308867	0.312014
C55	C	0.797699	-0.357807	-0.354655
C56	C	1.131032	-0.024474	-0.021322
C57	C	1.464365	0.308860	0.312012
C58	C	1.073107	-0.550778	-0.354678
C59	C	1.406440	-0.217445	-0.021344
C60	C	1.739774	0.115888	0.311989
C61	C	1.073137	-0.633324	-0.354697
C62	C	1.406470	-0.299991	-0.021364
C63	C	1.739803	0.033342	0.311970
C64	C	0.548868	-0.308162	-0.305621
C65	C	0.882202	0.025171	0.027712
C66	C	1.215535	0.358504	0.361046
C67	C	0.598306	-0.290075	-0.372783
C68	C	0.931639	0.043258	-0.039449
C69	C	1.264973	0.376592	0.293884
C70	C	0.500578	-0.357845	-0.354715
C71	C	0.833912	-0.024511	-0.021382
C72	C	1.167245	0.308822	0.311952
C73	C	0.598222	-0.375879	-0.287528
C74	C	0.931556	-0.042545	0.045806
C75	C	1.264889	0.290788	0.379139
C76	C	0.646563	-0.357824	-0.354682
C77	C	0.979897	-0.024491	-0.021349
C78	C	1.313230	0.308842	0.311985
C79	C	0.548929	-0.339722	-0.421912
C80	C	0.882262	-0.006389	-0.088579
C81	C	1.215595	0.326944	0.244754
C82	C	0.548841	-0.425557	-0.336612
C83	C	0.882174	-0.092224	-0.003279
C84	C	1.215508	0.241109	0.330054
C85	C	0.598256	-0.407496	-0.403820
C86	C	0.931590	-0.074162	-0.070487
C87	C	1.264923	0.259171	0.262847
C88	C	0.416480	-0.357855	-0.354733
C89	C	0.749813	-0.024521	-0.021400
C90	C	1.083147	0.308812	0.311933
C91	C	0.730660	-0.357815	-0.354671
C92	C	1.063993	-0.024481	-0.021338
C93	C	1.397327	0.308852	0.311995
C94	C	1.023591	-0.832782	-0.403828
C95	C	1.356924	-0.499449	-0.070494
C96	C	1.690257	-0.166115	0.262839
C97	C	1.005487	-0.882221	-0.336672
C98	C	1.338821	-0.548888	-0.003339
C99	C	1.672154	-0.215554	0.329995
C100	C	1.073210	-0.784455	-0.354707
C101	C	1.406543	-0.451121	-0.021373
C102	C	1.739876	-0.117788	0.311960
C103	C	1.091350	-0.882097	-0.421870
C104	C	1.424683	-0.548764	-0.088537
C105	C	1.758016	-0.215430	0.244797
C106	C	1.073279	-0.930440	-0.354722
C107	C	1.406612	-0.597106	-0.021389
C108	C	1.739945	-0.263773	0.311945
C109	C	1.055070	-0.832807	-0.287515
C110	C	1.388404	-0.499473	0.045818
C111	C	1.721737	-0.166140	0.379151
C112	C	1.140964	-0.832678	-0.372759
C113	C	1.474298	-0.499345	-0.039425
C114	C	1.807631	-0.166011	0.293908
C115	C	1.122886	-0.882095	-0.305557
C116	C	1.456220	-0.548762	0.027776
C117	C	1.789553	-0.215428	0.361110
C118	C	1.073168	-0.700356	-0.354699
C119	C	1.406501	-0.367023	-0.021366
C120	C	1.739835	-0.033690	0.311968
C121	C	1.073320	-1.014536	-0.354722
C122	C	1.406654	-0.681203	-0.021389
C123	C	1.739987	-0.347869	0.311945
C124	C	1.266902	-0.357853	-0.354727
C125	C	1.600236	-0.024520	-0.021394
C126	C	1.933569	0.308814	0.311939
C127	C	1.349448	-0.357865	-0.354743
C128	C	1.682781	-0.024531	-0.021410
C129	C	2.016115	0.308802	0.311923
C130	C	1.073242	-0.357775	-0.546643
C131	C	1.406575	-0.024442	-0.213310
C132	C	1.739909	0.308892	0.120024
C133	C	1.073261	-0.357753	-0.628442
C134	C	1.406595	-0.024420	-0.295109
C135	C	1.739928	0.308913	0.038225
C136	C	1.073307	-0.164121	-0.354718
C137	C	1.406640	0.169213	-0.021385
C138	C	1.739974	0.502546	0.311948
C139	C	1.073354	-0.081575	-0.354730
C140	C	1.406687	0.251758	-0.021397
C141	C	1.740021	0.585092	0.311936
C142	C	1.120804	-0.310216	-0.816653
C143	C	1.454138	0.023117	-0.483320
C144	C	1.787471	0.356450	-0.149987
C145	C	1.120813	-0.310195	-0.893512
C146	C	1.454146	0.023139	-0.560179
C147	C	1.787480	0.356472	-0.226845
C148	C	1.025771	-0.405175	-0.893469
C149	C	1.359104	-0.071842	-0.560135
C150	C	1.692437	0.261491	-0.226802
C151	C	1.025759	-0.405193	-0.816611
C152	C	1.359092	-0.071859	-0.483278
C153	C	1.692425	0.261474	-0.149944
C154	C	1.073280	-0.357714	-0.778205
C155	C	1.406613	-0.024381	-0.444872
C156	C	1.739946	0.308952	-0.111539
C157	C	1.073301	-0.357675	-0.931922
C158	C	1.406634	-0.024342	-0.598588
C159	C	1.739967	0.308991	-0.265255
C160	C	1.073310	-0.357652	-1.015255
C161	C	1.406643	-0.024319	-0.681922
C162	C	1.739976	0.309014	-0.348589
C163	C	1.073270	-0.357736	-0.694866
C164	C	1.406603	-0.024403	-0.361533
C165	C	1.739936	0.308930	-0.028200
C166	C	1.073194	-0.357824	-0.163484
C167	C	1.406528	-0.024490	0.169850
C168	C	1.739861	0.308843	0.503183
C169	C	1.073319	-0.357636	-0.081685
C170	C	1.406652	-0.024303	0.251648
C171	C	1.739986	0.309030	0.584981
H172	H	0.620020	-0.232800	-0.388094
H173	H	0.953353	0.100533	-0.054760
H174	H	1.286686	0.433866	0.278573
H175	H	1.159497	-0.271555	-0.785386
H176	H	1.492830	0.061779	-0.452052
H177	H	1.826164	0.395112	-0.118719
O178	O	1.111643	-0.910775	-0.497097
O179	O	1.444977	-0.577442	-0.163764
O180	O	1.778310	-0.244108	0.169569
H181	H	1.070337	-0.891024	-0.537754
H182	H	1.403671	-0.557691	-0.204421
H183	H	1.737004	-0.224357	0.128912
H184	H	0.987082	-0.443832	-0.924748
H185	H	1.320416	-0.110499	-0.591414
H186	H	1.653749	0.222835	-0.258081
O187	O	0.520370	-0.319409	-0.497178
O188	O	0.853703	0.013924	-0.163845
O189	O	1.187037	0.347257	0.169489
H190	H	0.567895	-0.309337	-0.534563
H191	H	0.901228	0.023996	-0.201230
H192	H	1.234562	0.357329	0.132104
O193	O	1.172076	-0.258970	-0.934984
O194	O	1.505409	0.074364	-0.601650
O195	O	1.838742	0.407697	-0.268317
H196	H	1.205120	-0.225965	-0.895363
H197	H	1.538453	0.107369	-0.562030
H198	H	1.871786	0.440702	-0.228696
O199	O	0.626811	-0.463138	-0.458852
O200	O	0.960144	-0.129805	-0.125519
O201	O	1.293477	0.203528	0.207815
H202	H	0.606963	-0.447985	-0.514531
H203	H	0.940296	-0.114652	-0.181198
H204	H	1.273630	0.218682	0.152136
O205	O	0.520025	-0.501395	-0.316320
O206	O	0.853358	-0.168062	0.017014
O207	O	1.186692	0.165272	0.350347
H208	H	0.539728	-0.516249	-0.260511
H209	H	0.873061	-0.182916	0.072822
H210	H	1.206394	0.150418	0.406156
H211	H	0.619878	-0.391140	-0.230722
H212	H	0.953211	-0.057806	0.102611
H213	H	1.286544	0.275527	0.435944
O214	O	0.967934	-0.804084	-0.458773
O215	O	1.301267	-0.470751	-0.125439
O216	O	1.634601	-0.137418	0.207894
H217	H	0.911762	-0.823927	-0.443613
H218	H	1.245095	-0.490594	-0.110280
H219	H	1.578429	-0.157261	0.223054
H220	H	1.164877	-0.903611	-0.263975
H221	H	1.498210	-0.570278	0.069358
H222	H	1.831544	-0.236945	0.402691
O223	O	0.974474	-0.456410	-0.775145
O224	O	1.307807	-0.123077	-0.441812
O225	O	1.641141	0.210256	-0.108479
H226	H	0.987167	-0.514701	-0.789877
H227	H	1.320501	-0.181368	-0.456544
H228	H	1.653834	0.151966	-0.123210
O229	O	0.929632	-0.911049	-0.316441
O230	O	1.262965	-0.577715	0.016892
O231	O	1.596299	-0.244382	0.350225
H232	H	0.888512	-0.891304	-0.357287
H233	H	1.221845	-0.557970	-0.023953
H234	H	1.555179	-0.224637	0.309380
H235	H	1.039689	-0.811245	-0.230707
H236	H	1.373022	-0.477911	0.102627
H237	H	1.706355	-0.144578	0.435960
O238	O	1.216887	-0.803994	-0.392920
O239	O	1.550221	-0.470660	-0.059587
O240	O	1.883554	-0.137327	0.273746
H241	H	1.231824	-0.823759	-0.448686
H242	H	1.565158	-0.490426	-0.115353
H243	H	1.898491	-0.157093	0.217980
H244	H	0.527185	-0.266125	-0.264169
H245	H	0.860518	0.067209	0.069164
H246	H	1.193852	0.400542	0.402498
