data_functionalizedCrystal
_audit_creation_method	'MofGen! by Chris Wilmer'
_symmetry_space_group_name_H-M	'P1'
_symmetry_Int_Tables_number	1
_symmetry_cell_setting	triclinic
loop_
_symmetry_equiv_pos_as_xyz
  x,y,z
_cell_length_a	14.908571
_cell_length_b	29.839131
_cell_length_c	14.908694
_cell_angle_alpha	93.265636
_cell_angle_beta	83.592472
_cell_angle_gamma	86.737317
loop_
_atom_site_label
_atom_site_type_symbol
_atom_site_fract_x
_atom_site_fract_y
_atom_site_fract_z
Zn1	Zn	1.413164	-0.236510	-0.591460
Zn2	Zn	1.746497	0.096823	-0.258127
Zn3	Zn	2.079830	0.430157	0.075207
Zn4	Zn	1.404279	-0.307038	-0.440081
Zn5	Zn	1.737612	0.026296	-0.106747
Zn6	Zn	2.070945	0.359629	0.226586
Zn7	Zn	1.253073	-0.227321	-0.431397
Zn8	Zn	1.586406	0.106012	-0.098064
Zn9	Zn	1.919739	0.439345	0.235270
Zn10	Zn	1.261711	-0.307003	-0.582679
Zn11	Zn	1.595044	0.026331	-0.249346
Zn12	Zn	1.928377	0.359664	0.083988
O13	O	1.333056	-0.269468	-0.511404
O14	O	1.666390	0.063865	-0.178071
O15	O	1.999723	0.397199	0.155263
O16	O	1.538649	-0.249726	-0.578688
O17	O	1.871982	0.083608	-0.245355
O18	O	2.205316	0.416941	0.087979
O19	O	1.376888	-0.292632	-0.312264
O20	O	1.710221	0.040701	0.021069
O21	O	2.043554	0.374035	0.354403
O22	O	1.274412	-0.165677	-0.452670
O23	O	1.607746	0.167656	-0.119337
O24	O	1.941079	0.500990	0.213996
O25	O	1.532121	-0.301542	-0.467470
O26	O	1.865455	0.031791	-0.134137
O27	O	2.198788	0.365125	0.199196
O28	O	1.392030	-0.172428	-0.570268
O29	O	1.725364	0.160905	-0.236934
O30	O	2.058697	0.494239	0.096399
O31	O	1.265797	-0.234065	-0.305884
O32	O	1.599130	0.099268	0.027449
O33	O	1.932464	0.432602	0.360783
O34	O	1.127554	-0.234031	-0.444156
O35	O	1.460888	0.099302	-0.110823
O36	O	1.794221	0.432636	0.222511
O37	O	1.289135	-0.301483	-0.710509
O38	O	1.622468	0.031851	-0.377175
O39	O	1.955801	0.365184	-0.043842
O40	O	1.133901	-0.292573	-0.555302
O41	O	1.467234	0.040761	-0.221969
O42	O	1.800567	0.374094	0.111365
O43	O	1.400406	-0.249692	-0.716960
O44	O	1.733740	0.083641	-0.383626
O45	O	2.067073	0.416975	-0.050293
O46	O	1.385264	-0.369896	-0.458956
O47	O	1.718597	-0.036563	-0.125623
O48	O	2.051930	0.296771	0.207711
O49	O	1.280519	-0.369870	-0.563722
O50	O	1.613853	-0.036537	-0.230389
O51	O	1.947186	0.296796	0.102944
C52	C	1.097885	-0.262301	-0.497834
C53	C	1.431218	0.071032	-0.164501
C54	C	1.764552	0.404365	0.168832
C55	C	0.997279	-0.259247	-0.492051
C56	C	1.330612	0.074086	-0.158717
C57	C	1.663946	0.407420	0.174616
C58	C	0.814877	-0.314551	-0.596763
C59	C	1.148210	0.018782	-0.263430
C60	C	1.481544	0.352115	0.069903
C61	C	0.720349	-0.311683	-0.591332
C62	C	1.053682	0.021651	-0.257999
C63	C	1.387016	0.354984	0.075334
C64	C	0.713693	-0.250640	-0.475762
C65	C	1.047026	0.082693	-0.142429
C66	C	1.380359	0.416027	0.190904
C67	C	0.808221	-0.253508	-0.481193
C68	C	1.141554	0.079825	-0.147860
C69	C	1.474888	0.413158	0.185473
C70	C	0.858810	-0.285465	-0.541695
C71	C	1.192143	0.047868	-0.208362
C72	C	1.525477	0.381201	0.124972
C73	C	0.953340	-0.288336	-0.547121
C74	C	1.286673	0.044998	-0.213788
C75	C	1.620006	0.378331	0.119546
C76	C	0.946682	-0.227291	-0.431556
C77	C	1.280015	0.106042	-0.098223
C78	C	1.613349	0.439376	0.235110
C79	C	0.852154	-0.224423	-0.426125
C80	C	1.185487	0.108911	-0.092792
C81	C	1.518821	0.442244	0.240542
C82	C	1.332890	-0.386184	-0.511350
C83	C	1.666224	-0.052851	-0.178016
C84	C	1.999557	0.280483	0.155317
C85	C	1.332904	-0.436119	-0.511362
C86	C	1.666237	-0.102786	-0.178028
C87	C	1.999571	0.230547	0.155305
C88	C	1.387707	-0.745775	-0.456943
C89	C	1.721040	-0.412441	-0.123610
C90	C	2.054374	-0.079108	0.209724
C91	C	1.387821	-0.933452	-0.456984
C92	C	1.721154	-0.600119	-0.123651
C93	C	2.054487	-0.266786	0.209682
O94	O	1.434284	-0.957722	-0.410674
O95	O	1.767618	-0.624389	-0.077340
O96	O	2.100951	-0.291056	0.255993
N97	N	1.333248	-0.956918	-0.511483
N98	N	1.666581	-0.623584	-0.178150
N99	N	1.999915	-0.290251	0.155183
C100	C	1.278648	-0.933461	-0.565980
C101	C	1.611981	-0.600128	-0.232646
C102	C	1.945314	-0.266794	0.100687
O103	O	1.232240	-0.957727	-0.612342
O104	O	1.565573	-0.624393	-0.279009
O105	O	1.898906	-0.291060	0.054324
C106	C	1.278539	-0.745785	-0.565942
C107	C	1.611873	-0.412451	-0.232609
C108	C	1.945206	-0.079118	0.100724
C109	C	1.333109	-0.722321	-0.511433
C110	C	1.666442	-0.388988	-0.178100
C111	C	1.999775	-0.055655	0.155233
C112	C	1.442272	-0.722311	-0.402439
C113	C	1.775606	-0.388978	-0.069106
C114	C	2.108939	-0.055645	0.264228
C115	C	1.442240	-0.675394	-0.402425
C116	C	1.775573	-0.342061	-0.069092
C117	C	2.108906	-0.008728	0.264241
C118	C	1.387642	-0.651941	-0.456916
C119	C	1.720975	-0.318608	-0.123583
C120	C	2.054308	0.014726	0.209751
C121	C	1.333076	-0.675405	-0.511420
C122	C	1.666409	-0.342071	-0.178086
C123	C	1.999743	-0.008738	0.155247
C124	C	1.223944	-0.722329	-0.620443
C125	C	1.557278	-0.388996	-0.287110
C126	C	1.890611	-0.055663	0.046223
C127	C	1.223924	-0.675407	-0.620431
C128	C	1.557257	-0.342074	-0.287097
C129	C	1.890590	-0.008741	0.046236
C130	C	1.278493	-0.651944	-0.565922
C131	C	1.611826	-0.318611	-0.232588
C132	C	1.945160	0.014723	0.100745
C133	C	1.278445	-0.605034	-0.565897
C134	C	1.611778	-0.271701	-0.232563
C135	C	1.945112	0.061632	0.100770
N136	N	1.333018	-0.581569	-0.511398
N137	N	1.666351	-0.248236	-0.178065
N138	N	1.999684	0.085098	0.155269
C139	C	1.387616	-0.605022	-0.456908
C140	C	1.720949	-0.271689	-0.123574
C141	C	2.054282	0.061644	0.209759
C142	C	1.278707	-1.031994	-0.565994
C143	C	1.612040	-0.698661	-0.232661
C144	C	1.945374	-0.365327	0.100672
C145	C	1.278733	-1.078913	-0.566003
C146	C	1.612066	-0.745579	-0.232669
C147	C	1.945399	-0.412246	0.100664
C148	C	1.387907	-1.078901	-0.457008
C149	C	1.721241	-0.745567	-0.123675
C150	C	2.054574	-0.412234	0.209658
C151	C	1.387876	-1.031981	-0.456996
C152	C	1.721209	-0.698647	-0.123662
C153	C	2.054543	-0.365314	0.209671
C154	C	1.333280	-1.008528	-0.511496
C155	C	1.666613	-0.675195	-0.178162
C156	C	1.999946	-0.341862	0.155171
C157	C	1.387542	-0.506494	-0.456883
C158	C	1.720876	-0.173160	-0.123549
C159	C	2.054209	0.160173	0.209784
C160	C	1.387502	-0.459573	-0.456871
C161	C	1.720836	-0.126239	-0.123538
C162	C	2.054169	0.207094	0.209795
C163	C	1.278332	-0.459589	-0.565869
C164	C	1.611665	-0.126256	-0.232535
C165	C	1.944998	0.207078	0.100798
C166	C	1.278368	-0.506506	-0.565877
C167	C	1.611701	-0.173172	-0.232544
C168	C	1.945035	0.160161	0.100790
C169	C	1.332981	-0.529957	-0.511381
C170	C	1.666314	-0.196624	-0.178048
C171	C	1.999647	0.136710	0.155285
O172	O	1.232013	-0.580736	-0.612191
O173	O	1.565346	-0.247403	-0.278857
O174	O	1.898680	0.085931	0.054476
O175	O	1.434032	-0.580749	-0.410567
O176	O	1.767365	-0.247416	-0.077234
O177	O	2.100698	0.085917	0.256100
C178	C	1.387740	-0.792691	-0.456956
C179	C	1.721073	-0.459358	-0.123623
C180	C	2.054406	-0.126025	0.209710
C181	C	1.333174	-0.816155	-0.511460
C182	C	1.666507	-0.482822	-0.178127
C183	C	1.999841	-0.149488	0.155206
C184	C	1.278576	-0.792702	-0.565951
C185	C	1.611909	-0.459368	-0.232617
C186	C	1.945242	-0.126035	0.100716
C187	C	1.333200	-0.863074	-0.511469
C188	C	1.666533	-0.529740	-0.178135
C189	C	1.999866	-0.196407	0.155198
C190	C	1.387798	-0.886527	-0.456978
C191	C	1.721131	-0.553194	-0.123645
C192	C	2.054465	-0.219860	0.209688
C193	C	1.442370	-0.863062	-0.402480
C194	C	1.775704	-0.529728	-0.069146
C195	C	2.109037	-0.196395	0.264187
C196	C	1.442338	-0.816145	-0.402466
C197	C	1.775671	-0.482811	-0.069133
C198	C	2.109004	-0.149478	0.264201
C199	C	1.224003	-0.816167	-0.620449
C200	C	1.557336	-0.482834	-0.287116
C201	C	1.890670	-0.149500	0.046217
C202	C	1.224039	-0.863084	-0.620458
C203	C	1.557373	-0.529750	-0.287124
C204	C	1.890706	-0.196417	0.046209
C205	C	1.278638	-0.886537	-0.565967
C206	C	1.611971	-0.553204	-0.232634
C207	C	1.945304	-0.219870	0.100699
C208	C	1.569146	-0.276663	-0.525027
C209	C	1.902479	0.056671	-0.191694
C210	C	2.235813	0.390004	0.141639
C211	C	1.669753	-0.279729	-0.530833
C212	C	2.003087	0.053605	-0.197499
C213	C	2.336420	0.386938	0.135834
C214	C	1.346725	-0.276608	-0.747495
C215	C	1.680058	0.056725	-0.414162
C216	C	2.013392	0.390058	-0.080829
C217	C	1.352550	-0.279651	-0.848103
C218	C	1.685883	0.053682	-0.514770
C219	C	2.019217	0.387016	-0.181437
C220	C	1.333249	-0.152297	-0.511480
C221	C	1.666582	0.181036	-0.178147
C222	C	1.999916	0.514369	0.155187
C223	C	1.333331	-0.102366	-0.511512
C224	C	1.666664	0.230967	-0.178179
C225	C	1.999998	0.564301	0.155155
C226	C	1.247796	-0.224383	-1.030513
C227	C	1.581129	0.108950	-0.697180
C228	C	1.914462	0.442283	-0.363847
C229	C	1.253265	-0.227241	-1.125043
C230	C	1.586599	0.106092	-0.791710
C231	C	1.919932	0.439426	-0.458377
C232	C	1.368954	-0.288225	-1.131695
C233	C	1.702288	0.045108	-0.798361
C234	C	2.035621	0.378441	-0.465028
C235	C	1.363484	-0.285368	-1.037165
C236	C	1.696818	0.047965	-0.703831
C237	C	2.030151	0.381299	-0.370498
C238	C	1.302904	-0.253445	-0.986577
C239	C	1.636237	0.079888	-0.653244
C240	C	1.969571	0.413221	-0.319911
C241	C	1.297439	-0.250586	-0.892046
C242	C	1.630773	0.082747	-0.558712
C243	C	1.964106	0.416081	-0.225379
C244	C	1.413123	-0.311572	-0.898699
C245	C	1.746456	0.021761	-0.565365
C246	C	2.079790	0.355094	-0.232032
C247	C	1.418593	-0.314430	-0.993229
C248	C	1.751926	0.018904	-0.659895
C249	C	2.085259	0.352237	-0.326562
C250	C	1.319493	-0.262324	-0.276234
C251	C	1.652826	0.071009	0.057099
C252	C	1.986160	0.404342	0.390432
C253	C	1.313844	-0.259160	-0.175637
C254	C	1.647177	0.074173	0.157696
C255	C	1.980510	0.407506	0.491030
H256	H	0.810952	-0.198403	-0.376869
H257	H	1.144285	0.134930	-0.043536
H258	H	1.477618	0.468264	0.289798
H259	H	0.994528	-0.314358	-0.596383
H260	H	1.327861	0.018976	-0.263050
H261	H	1.661194	0.352309	0.070283
O262	O	0.672921	-0.343052	-0.650692
O263	O	1.006254	-0.009719	-0.317359
O264	O	1.339587	0.323615	0.015975
H265	H	0.627469	-0.363326	-0.607581
H266	H	0.960802	-0.029992	-0.274248
H267	H	1.294135	0.303341	0.059085
H268	H	1.418263	-0.314221	-1.172898
H269	H	1.751597	0.019113	-0.839565
H270	H	2.084930	0.352446	-0.506232
H271	H	1.179594	-0.882183	-0.664844
H272	H	1.512928	-0.548850	-0.331511
H273	H	1.846261	-0.215517	0.001822
H274	H	1.248115	-0.224592	-0.850859
H275	H	1.581449	0.108742	-0.517526
H276	H	1.914782	0.442075	-0.184192
O277	O	1.193839	-0.195888	-1.172429
O278	O	1.527172	0.137446	-0.839096
O279	O	1.860506	0.470779	-0.505763
H280	H	1.207817	-0.203237	-1.246661
H281	H	1.541151	0.130097	-0.913328
H282	H	1.874484	0.463430	-0.579995
O283	O	1.472566	-0.342923	-0.851313
O284	O	1.805899	-0.009589	-0.517980
O285	O	2.139232	0.323744	-0.184647
H286	H	1.458583	-0.335576	-0.777081
H287	H	1.791917	-0.002242	-0.443748
H288	H	2.125250	0.331091	-0.110415
O289	O	0.869450	-0.349017	-0.662013
O290	O	1.202784	-0.015683	-0.328680
O291	O	1.536117	0.317650	0.004654
H292	H	0.823019	-0.368760	-0.699397
H293	H	1.156353	-0.035426	-0.366063
H294	H	1.489686	0.297907	-0.032730
H295	H	0.672487	-0.224619	-0.426511
H296	H	1.005821	0.108714	-0.093177
H297	H	1.339154	0.442047	0.240156
O298	O	1.446815	-1.104201	-0.398251
O299	O	1.780149	-0.770868	-0.064918
O300	O	2.113482	-0.437534	0.268416
H301	H	1.437670	-1.140768	-0.407430
H302	H	1.771003	-0.807435	-0.074097
H303	H	2.104337	-0.474101	0.259236
H304	H	1.467912	-0.340421	-1.034429
H305	H	1.801246	-0.007088	-0.701096
H306	H	2.134579	0.326245	-0.367763
O307	O	0.994064	-0.195915	-0.372157
O308	O	1.327397	0.137418	-0.038824
O309	O	1.660730	0.470752	0.294509
H310	H	1.068295	-0.203276	-0.386099
H311	H	1.401628	0.130058	-0.052766
H312	H	1.734962	0.463391	0.280567
O313	O	1.501172	-0.747598	-0.343659
O314	O	1.834505	-0.414264	-0.010326
O315	O	2.167838	-0.080931	0.323008
H316	H	1.549565	-0.771568	-0.386861
H317	H	1.882898	-0.438234	-0.053527
H318	H	2.216231	-0.104901	0.279806
H319	H	1.198477	-0.198387	-0.989325
H320	H	1.531810	0.134946	-0.655991
H321	H	1.865143	0.468279	-0.322658
H322	H	1.431939	-0.440470	-0.412480
H323	H	1.765272	-0.107137	-0.079147
H324	H	2.098605	0.226197	0.254187
H325	H	1.432015	-0.525582	-0.412509
H326	H	1.765349	-0.192249	-0.079176
H327	H	2.098682	0.141084	0.254157
H328	H	1.486678	-0.656293	-0.358042
H329	H	1.820011	-0.322960	-0.024709
H330	H	2.153344	0.010373	0.308624
H331	H	1.179503	-0.741425	-0.664826
H332	H	1.512837	-0.408092	-0.331493
H333	H	1.846170	-0.074758	0.001841
O334	O	1.446742	-1.006675	-0.398215
O335	O	1.780075	-0.673341	-0.064882
O336	O	2.113408	-0.340008	0.268451
H337	H	1.484713	-1.030871	-0.360334
H338	H	1.818046	-0.697537	-0.027001
H339	H	2.151379	-0.364204	0.306333
H340	H	1.234288	-1.098012	-0.610380
H341	H	1.567621	-0.764679	-0.277047
H342	H	1.900955	-0.431345	0.056286
H343	H	1.179544	-0.797075	-0.664823
H344	H	1.512877	-0.463742	-0.331490
H345	H	1.846210	-0.130408	0.001843
O346	O	1.165025	-0.650111	-0.679202
O347	O	1.498358	-0.316777	-0.345869
O348	O	1.831691	0.016556	-0.012535
H349	H	1.127080	-0.674312	-0.717094
H350	H	1.460413	-0.340978	-0.383761
H351	H	1.793747	-0.007645	-0.050427
O352	O	1.219792	-1.006705	-0.624763
O353	O	1.553125	-0.673372	-0.291430
O354	O	1.886459	-0.340039	0.041904
H355	H	1.239359	-1.018315	-0.696710
H356	H	1.572692	-0.684982	-0.363377
H357	H	1.906025	-0.351648	-0.030043
O358	O	1.219511	-0.531817	-0.624664
O359	O	1.552845	-0.198484	-0.291331
O360	O	1.886178	0.134849	0.042003
H361	H	1.181544	-0.507624	-0.662555
H362	H	1.514877	-0.174291	-0.329222
H363	H	1.848210	0.159042	0.004112
O364	O	1.219449	-0.434290	-0.624644
O365	O	1.552782	-0.100956	-0.291311
O366	O	1.886115	0.232377	0.042022
H367	H	1.228609	-0.397723	-0.615481
H368	H	1.561942	-0.064390	-0.282148
H369	H	1.895275	0.268944	0.051185
H370	H	1.486773	-0.797044	-0.358080
H371	H	1.820107	-0.463711	-0.024747
H372	H	2.153440	-0.130378	0.308587
H373	H	1.486824	-0.882165	-0.358109
H374	H	1.820157	-0.548832	-0.024775
H375	H	2.153490	-0.215499	0.308558
