data_functionalizedCrystal
_audit_creation_method	'MofGen! by Chris Wilmer'
_symmetry_space_group_name_H-M	'P1'
_symmetry_Int_Tables_number	1
_symmetry_cell_setting	triclinic
loop_
_symmetry_equiv_pos_as_xyz
  x,y,z
_cell_length_a	21.295411
_cell_length_b	19.077142
_cell_length_c	19.077068
_cell_angle_alpha	89.885450
_cell_angle_beta	92.278858
_cell_angle_gamma	92.323127
loop_
_atom_site_label
_atom_site_type_symbol
_atom_site_fract_x
_atom_site_fract_y
_atom_site_fract_z
Zn1	Zn	-0.405704	-1.063027	-0.323084
Zn2	Zn	-0.072370	-0.729694	0.010249
Zn3	Zn	0.260963	-0.396360	0.343582
Zn4	Zn	-0.304479	-1.058205	-0.440571
Zn5	Zn	0.028855	-0.724871	-0.107238
Zn6	Zn	0.362188	-0.391538	0.226096
Zn7	Zn	-0.296058	-0.945509	-0.318353
Zn8	Zn	0.037276	-0.612176	0.014980
Zn9	Zn	0.370609	-0.278843	0.348313
Zn10	Zn	-0.405322	-0.940762	-0.435824
Zn11	Zn	-0.071988	-0.607429	-0.102491
Zn12	Zn	0.261345	-0.274095	0.230843
O13	O	-0.352890	-1.001876	-0.379458
O14	O	-0.019557	-0.668542	-0.046125
O15	O	0.313776	-0.335209	0.287208
O16	O	-0.395960	-1.160719	-0.342636
O17	O	-0.062626	-0.827386	-0.009303
O18	O	0.270707	-0.494052	0.324031
O19	O	-0.215271	-1.043224	-0.424365
O20	O	0.118062	-0.709890	-0.091032
O21	O	0.451395	-0.376557	0.242301
O22	O	-0.307238	-0.965103	-0.220650
O23	O	0.026095	-0.631770	0.112683
O24	O	0.359428	-0.298436	0.446016
O25	O	-0.321590	-1.157176	-0.428953
O26	O	0.011743	-0.823843	-0.095620
O27	O	0.345076	-0.490509	0.237714
O28	O	-0.387794	-1.051443	-0.224126
O29	O	-0.054461	-0.718110	0.109207
O30	O	0.278872	-0.384776	0.442541
O31	O	-0.209085	-0.960427	-0.334572
O32	O	0.124249	-0.627094	-0.001239
O33	O	0.457582	-0.293760	0.332094
O34	O	-0.306868	-0.846548	-0.329969
O35	O	0.026465	-0.513214	0.003364
O36	O	0.359799	-0.179881	0.336697
O37	O	-0.493463	-0.957012	-0.420862
O38	O	-0.160129	-0.623679	-0.087529
O39	O	0.173204	-0.290346	0.245804
O40	O	-0.387144	-0.843060	-0.416275
O41	O	-0.053810	-0.509727	-0.082941
O42	O	0.279523	-0.176394	0.250392
O43	O	-0.493743	-1.046840	-0.338033
O44	O	-0.160410	-0.713507	-0.004699
O45	O	0.172923	-0.380173	0.328634
O46	O	-0.321220	-1.038621	-0.538272
O47	O	0.012113	-0.705287	-0.204939
O48	O	0.345447	-0.371954	0.128395
O49	O	-0.395309	-0.952336	-0.534784
O50	O	-0.061976	-0.619003	-0.201451
O51	O	0.271358	-0.285670	0.131882
C52	C	-0.346051	-0.819308	-0.372094
C53	C	-0.012718	-0.485974	-0.038761
C54	C	0.320616	-0.152641	0.294573
C55	C	-0.343141	-0.741204	-0.368960
C56	C	-0.009807	-0.407870	-0.035627
C57	C	0.323526	-0.074537	0.297706
C58	C	-0.383507	-0.702710	-0.412491
C59	C	-0.050174	-0.369377	-0.079157
C60	C	0.283159	-0.036043	0.254176
C61	C	-0.380776	-0.629323	-0.409537
C62	C	-0.047442	-0.295990	-0.076204
C63	C	0.285891	0.037344	0.257130
C64	C	-0.337673	-0.594431	-0.363056
C65	C	-0.004340	-0.261098	-0.029723
C66	C	0.328994	0.072235	0.303610
C67	C	-0.297304	-0.632930	-0.319522
C68	C	0.036029	-0.299597	0.013812
C69	C	0.369362	0.033736	0.347145
C70	C	-0.300040	-0.706316	-0.322472
C71	C	0.033294	-0.372982	0.010861
C72	C	0.366627	-0.039649	0.344195
C73	C	-0.325020	-0.375145	-0.349403
C74	C	0.008314	-0.041812	-0.016070
C75	C	0.341647	0.291521	0.317264
C76	C	-0.322286	-0.301754	-0.346457
C77	C	0.011047	0.031579	-0.013124
C78	C	0.344381	0.364912	0.320209
C79	C	-0.405758	-0.298152	-0.436472
C80	C	-0.072425	0.035181	-0.103139
C81	C	0.260909	0.368514	0.230194
C82	C	-0.408487	-0.371539	-0.439422
C83	C	-0.075154	-0.038206	-0.106088
C84	C	0.258179	0.295127	0.227245
C85	C	-0.368121	-0.410032	-0.395884
C86	C	-0.034787	-0.076699	-0.062551
C87	C	0.298546	0.256635	0.270782
N88	N	-0.334878	-0.519418	-0.360038
N89	N	-0.001545	-0.186085	-0.026705
N90	N	0.331788	0.147248	0.306629
N91	N	-0.370919	-0.485044	-0.398900
N92	N	-0.037586	-0.151711	-0.065566
N93	N	0.295747	0.181623	0.267767
C94	C	-0.517082	-1.001935	-0.379446
C95	C	-0.183749	-0.668601	-0.046112
C96	C	0.149584	-0.335268	0.287221
C97	C	-0.587051	-1.001960	-0.379440
C98	C	-0.253718	-0.668626	-0.046107
C99	C	0.079615	-0.335293	0.287226
C100	C	-0.620065	-1.048731	-0.336309
C101	C	-0.286732	-0.715398	-0.002976
C102	C	0.046602	-0.382064	0.330358
C103	C	-0.685806	-1.048731	-0.336279
C104	C	-0.352473	-0.715398	-0.002945
C105	C	-0.019140	-0.382065	0.330388
C106	C	-0.718532	-1.001967	-0.379392
C107	C	-0.385199	-0.668634	-0.046059
C108	C	-0.051866	-0.335301	0.287274
C109	C	-0.685511	-0.955187	-0.422526
C110	C	-0.352177	-0.621854	-0.089193
C111	C	-0.018844	-0.288520	0.244140
C112	C	-0.619770	-0.955183	-0.422550
C113	C	-0.286437	-0.621850	-0.089217
C114	C	0.046897	-0.288517	0.244116
N115	N	-0.823666	-0.994080	-0.440645
N116	N	-0.490333	-0.660746	-0.107312
N117	N	-0.156999	-0.327413	0.226021
N118	N	-0.886117	-0.994087	-0.440621
N119	N	-0.552784	-0.660754	-0.107287
N120	N	-0.219450	-0.327421	0.226046
C121	C	-0.916605	-1.001974	-0.379321
C122	C	-0.583272	-0.668641	-0.045988
C123	C	-0.249938	-0.335308	0.287346
N124	N	-0.882283	-1.009867	-0.318046
N125	N	-0.548950	-0.676534	0.015287
N126	N	-0.215617	-0.343201	0.348620
N127	N	-0.819827	-1.009863	-0.318072
N128	N	-0.486493	-0.676530	0.015261
N129	N	-0.153160	-0.343197	0.348595
C130	C	-0.789817	-1.001966	-0.379371
C131	C	-0.456484	-0.668632	-0.046037
C132	C	-0.123150	-0.335299	0.287296
C133	C	-1.020903	-1.048749	-0.336153
C134	C	-0.687570	-0.715415	-0.002820
C135	C	-0.354236	-0.382082	0.330514
C136	C	-1.086645	-1.048744	-0.336121
C137	C	-0.753312	-0.715411	-0.002788
C138	C	-0.419979	-0.382077	0.330546
C139	C	-1.086349	-0.955203	-0.422375
C140	C	-0.753015	-0.621870	-0.089042
C141	C	-0.419682	-0.288536	0.244291
C142	C	-1.020607	-0.955204	-0.422401
C143	C	-0.687274	-0.621871	-0.089068
C144	C	-0.353940	-0.288538	0.244266
C145	C	-0.987888	-1.001981	-0.379291
C146	C	-0.654555	-0.668647	-0.045957
C147	C	-0.321222	-0.335314	0.287376
C148	C	-0.189337	-1.001860	-0.379422
C149	C	0.143996	-0.668526	-0.046088
C150	C	0.477330	-0.335193	0.287245
C151	C	-0.119367	-1.001979	-0.379234
C152	C	0.213967	-0.668645	-0.045901
C153	C	0.547300	-0.335312	0.287432
C154	C	-0.359151	-0.994459	-0.562025
C155	C	-0.025818	-0.661126	-0.228692
C156	C	0.307515	-0.327792	0.104642
C157	C	-0.361853	-0.991350	-0.640130
C158	C	-0.028520	-0.658017	-0.306797
C159	C	0.304814	-0.324684	0.026536
C160	C	-0.359749	-0.185157	-0.386848
C161	C	-0.026416	0.148176	-0.053515
C162	C	0.306917	0.481510	0.279819
C163	C	-0.362653	-0.263261	-0.389988
C164	C	-0.029319	0.070073	-0.056654
C165	C	0.304014	0.403406	0.276679
C166	C	-0.324583	-1.034849	-0.678618
C167	C	0.008750	-0.701515	-0.345285
C168	C	0.342084	-0.368182	-0.011952
C169	C	-0.327128	-1.031929	-0.752007
C170	C	0.006205	-0.698596	-0.418673
C171	C	0.339539	-0.365262	-0.085340
C172	C	-0.366940	-0.985507	-0.786906
C173	C	-0.033607	-0.652174	-0.453572
C174	C	0.299726	-0.318841	-0.120239
C175	C	-0.404215	-0.942007	-0.748412
C176	C	-0.070881	-0.608674	-0.415079
C177	C	0.262452	-0.275341	-0.081746
C178	C	-0.401673	-0.944931	-0.675026
C179	C	-0.068339	-0.611598	-0.341692
C180	C	0.264994	-0.278264	-0.008359
C181	C	-0.378679	-0.971945	-1.006197
C182	C	-0.045346	-0.638612	-0.672863
C183	C	0.287987	-0.305279	-0.339530
C184	C	-0.381217	-0.969023	-1.079589
C185	C	-0.047884	-0.635690	-0.746255
C186	C	0.285449	-0.302357	-0.412922
C187	C	-0.304131	-1.058947	-1.083178
C188	C	0.029202	-0.725613	-0.749845
C189	C	0.362535	-0.392280	-0.416511
C190	C	-0.301590	-1.061863	-1.009789
C191	C	0.031743	-0.728530	-0.676456
C192	C	0.365077	-0.395196	-0.343123
C193	C	-0.338867	-1.018366	-0.971303
C194	C	-0.005533	-0.685032	-0.637969
C195	C	0.327800	-0.351699	-0.304636
N196	N	-0.369541	-0.982520	-0.861920
N197	N	-0.036208	-0.649187	-0.528587
N198	N	0.297125	-0.315853	-0.195254
N199	N	-0.336269	-1.021357	-0.896290
N200	N	-0.002935	-0.688024	-0.562956
N201	N	0.330398	-0.354690	-0.229623
C202	C	-0.346620	-1.009341	-0.196179
C203	C	-0.013286	-0.676007	0.137154
C204	C	0.320047	-0.342674	0.470487
C205	C	-0.343947	-1.012522	-0.118077
C206	C	-0.010614	-0.679188	0.215257
C207	C	0.322719	-0.345855	0.548590
H208	H	-0.292146	-0.406477	-0.313957
H209	H	0.041188	-0.073144	0.019376
H210	H	0.374521	0.260190	0.352710
C211	C	-1.186990	-0.913687	-0.460651
C212	C	-0.853656	-0.580354	-0.127317
C213	C	-0.520323	-0.247021	0.206016
C214	C	-1.122314	-0.903806	-0.469776
C215	C	-0.788981	-0.570472	-0.136443
C216	C	-0.455648	-0.237139	0.196891
H217	H	-1.209194	-0.881959	-0.489919
H218	H	-0.875861	-0.548626	-0.156586
H219	H	-0.542528	-0.215292	0.176747
H220	H	-1.195749	-0.905317	-0.413027
H221	H	-0.862415	-0.571984	-0.079694
H222	H	-0.529082	-0.238651	0.253639
H223	H	-1.199889	-0.960487	-0.472829
H224	H	-0.866556	-0.627154	-0.139496
H225	H	-0.533223	-0.293820	0.193838
H226	H	-1.109414	-0.857007	-0.457593
H227	H	-0.776080	-0.523674	-0.124259
H228	H	-0.442747	-0.190341	0.209074
H229	H	-1.113551	-0.912170	-0.517410
H230	H	-0.780218	-0.578837	-0.184077
H231	H	-0.446884	-0.245504	0.149257
C232	C	-0.919701	-0.913668	-0.460735
C233	C	-0.586368	-0.580335	-0.127402
C234	C	-0.253034	-0.247001	0.205932
C235	C	-0.984314	-0.903797	-0.469819
C236	C	-0.650980	-0.570464	-0.136485
C237	C	-0.317647	-0.237130	0.196848
H238	H	-0.897296	-0.881925	-0.490007
H239	H	-0.563963	-0.548592	-0.156673
H240	H	-0.230629	-0.215258	0.176660
H241	H	-0.911066	-0.960456	-0.472928
H242	H	-0.577733	-0.627123	-0.139595
H243	H	-0.244400	-0.293789	0.193739
H244	H	-0.906920	-0.905305	-0.413110
H245	H	-0.573586	-0.571972	-0.079776
H246	H	-0.240253	-0.238638	0.253557
H247	H	-0.997096	-0.912165	-0.517443
H248	H	-0.663763	-0.578832	-0.184110
H249	H	-0.330429	-0.245499	0.149223
H250	H	-0.992953	-0.856998	-0.457630
H251	H	-0.659619	-0.523665	-0.124297
H252	H	-0.326286	-0.190331	0.209037
H253	H	-0.292161	-1.072647	-0.650209
H254	H	0.041173	-0.739314	-0.316875
H255	H	0.374506	-0.405980	0.016458
H256	H	-0.432023	-0.909511	-0.643689
H257	H	-0.098689	-0.576178	-0.310356
H258	H	0.234644	-0.242844	0.022978
C259	C	-0.398436	-0.781401	-0.510349
C260	C	-0.065103	-0.448068	-0.177015
C261	C	0.268231	-0.114735	0.156318
C262	C	-0.430888	-0.741059	-0.463585
C263	C	-0.097554	-0.407725	-0.130252
C264	C	0.235779	-0.074392	0.203082
H265	H	-0.427690	-0.805070	-0.541894
H266	H	-0.094356	-0.471737	-0.208560
H267	H	0.238977	-0.138404	0.124773
H268	H	-0.374793	-0.814829	-0.484848
H269	H	-0.041459	-0.481496	-0.151514
H270	H	0.291874	-0.148163	0.181819
H271	H	-0.370824	-0.751660	-0.536028
H272	H	-0.037491	-0.418327	-0.202694
H273	H	0.295842	-0.084993	0.130639
H274	H	-0.458496	-0.770801	-0.437902
H275	H	-0.125163	-0.437467	-0.104569
H276	H	0.208170	-0.104134	0.228765
H277	H	-0.454542	-0.707627	-0.489089
H278	H	-0.121208	-0.374293	-0.155755
H279	H	0.212125	-0.040960	0.177578
C280	C	-0.463540	-0.633133	-0.498828
C281	C	-0.130207	-0.299800	-0.165494
C282	C	0.203126	0.033533	0.167839
C283	C	-0.425138	-0.587010	-0.457398
C284	C	-0.091805	-0.253677	-0.124065
C285	C	0.241528	0.079656	0.209268
H286	H	-0.490924	-0.607009	-0.528381
H287	H	-0.157591	-0.273676	-0.195048
H288	H	0.175742	0.059657	0.138286
H289	H	-0.487690	-0.663006	-0.469408
H290	H	-0.154356	-0.329673	-0.136075
H291	H	0.178977	0.003660	0.197258
H292	H	-0.438048	-0.660656	-0.526800
H293	H	-0.104715	-0.327322	-0.193466
H294	H	0.228619	0.006011	0.139867
H295	H	-0.450631	-0.559491	-0.429423
H296	H	-0.117297	-0.226158	-0.096089
H297	H	0.216036	0.107175	0.237244
H298	H	-0.400987	-0.557125	-0.486821
H299	H	-0.067653	-0.223792	-0.153488
H300	H	0.265680	0.109542	0.179845
C301	C	-0.213721	-0.280470	-0.311116
C302	C	0.119612	0.052863	0.022218
C303	C	0.452946	0.386197	0.355551
C304	C	-0.274914	-0.263390	-0.295358
C305	C	0.058419	0.069943	0.037975
C306	C	0.391753	0.403277	0.371309
H307	H	-0.184480	-0.256785	-0.279568
H308	H	0.148853	0.076549	0.053765
H309	H	0.482186	0.409882	0.387099
H310	H	-0.205608	-0.266526	-0.357824
H311	H	0.127725	0.066807	-0.024491
H312	H	0.461059	0.400141	0.308843
H313	H	-0.209572	-0.329684	-0.306630
H314	H	0.123761	0.003649	0.026704
H315	H	0.457095	0.336983	0.360037
H316	H	-0.279064	-0.214176	-0.299849
H317	H	0.054269	0.119157	0.033484
H318	H	0.387602	0.452491	0.366818
H319	H	-0.283029	-0.277330	-0.248638
H320	H	0.050304	0.056004	0.084695
H321	H	0.383637	0.389337	0.418028
C322	C	-0.256048	-0.522036	-0.275029
C323	C	0.077285	-0.188703	0.058304
C324	C	0.410619	0.144630	0.391637
C325	C	-0.249927	-0.594579	-0.268426
C326	C	0.083406	-0.261245	0.064907
C327	C	0.416740	0.072088	0.398241
H328	H	-0.226795	-0.498362	-0.243487
H329	H	0.106538	-0.165029	0.089847
H330	H	0.439871	0.168304	0.423180
H331	H	-0.297556	-0.510453	-0.264334
H332	H	0.035777	-0.177120	0.068999
H333	H	0.369110	0.156213	0.402332
H334	H	-0.247932	-0.508095	-0.321745
H335	H	0.085401	-0.174762	0.011589
H336	H	0.418735	0.158572	0.344922
H337	H	-0.258047	-0.608521	-0.221712
H338	H	0.075286	-0.275187	0.111622
H339	H	0.408619	0.058146	0.444955
H340	H	-0.208409	-0.606167	-0.279116
H341	H	0.124924	-0.272833	0.054217
H342	H	0.458258	0.060500	0.387551
H343	H	-0.273784	-1.094360	-1.114522
H344	H	0.059550	-0.761027	-0.781188
H345	H	0.392883	-0.427694	-0.447855
H346	H	-0.296778	-1.067349	-0.783341
H347	H	0.036555	-0.734016	-0.450007
H348	H	0.369888	-0.400683	-0.116674
H349	H	-0.592891	-0.917093	-0.457672
H350	H	-0.259557	-0.583760	-0.124339
H351	H	0.073776	-0.250427	0.208995
H352	H	-0.438623	-0.266804	-0.471917
H353	H	-0.105290	0.066529	-0.138584
H354	H	0.228044	0.399863	0.194750
C355	C	-0.708552	-0.916112	-0.540125
C356	C	-0.375218	-0.582779	-0.206792
C357	C	-0.041885	-0.249446	0.126541
C358	C	-0.721478	-0.903783	-0.469921
C359	C	-0.388145	-0.570449	-0.136587
C360	C	-0.054812	-0.237116	0.196746
H361	H	-0.730753	-0.884371	-0.569382
H362	H	-0.397420	-0.551038	-0.236049
H363	H	-0.064087	-0.217704	0.097284
H364	H	-0.721462	-0.962901	-0.552305
H365	H	-0.388129	-0.629568	-0.218972
H366	H	-0.054796	-0.296234	0.114361
H367	H	-0.664672	-0.909415	-0.546301
H368	H	-0.331339	-0.576081	-0.212968
H369	H	0.001995	-0.242748	0.120365
H370	H	-0.765358	-0.910486	-0.463743
H371	H	-0.432024	-0.577152	-0.130410
H372	H	-0.098691	-0.243819	0.202923
H373	H	-0.708571	-0.856983	-0.457736
H374	H	-0.375238	-0.523650	-0.124403
H375	H	-0.041904	-0.190316	0.208930
C376	C	-0.225662	-1.150469	-1.020712
C377	C	0.107671	-0.817135	-0.687379
C378	C	0.441005	-0.483802	-0.354046
C379	C	-0.257835	-1.112900	-0.971431
C380	C	0.075498	-0.779567	-0.638098
C381	C	0.408832	-0.446234	-0.304765
H382	H	-0.198653	-1.181980	-0.997030
H383	H	0.134681	-0.848647	-0.663697
H384	H	0.468014	-0.515313	-0.330363
H385	H	-0.201403	-1.118727	-1.048138
H386	H	0.131930	-0.785394	-0.714805
H387	H	0.465263	-0.452061	-0.381472
H388	H	-0.255113	-1.176187	-1.050384
H389	H	0.078221	-0.842854	-0.717050
H390	H	0.411554	-0.509521	-0.383717
H391	H	-0.228384	-1.087177	-0.941763
H392	H	0.104949	-0.753844	-0.608430
H393	H	0.438283	-0.420511	-0.275096
H394	H	-0.282095	-1.144646	-0.943993
H395	H	0.051238	-0.811313	-0.610660
H396	H	0.384572	-0.477979	-0.277327
C397	C	-1.027796	-1.141203	-0.250886
C398	C	-0.694463	-0.807869	0.082448
C399	C	-0.361130	-0.474536	0.415781
C400	C	-0.984933	-1.100156	-0.288759
C401	C	-0.651599	-0.766822	0.044574
C402	C	-0.318266	-0.433489	0.377907
H403	H	-1.005589	-1.172935	-0.221624
H404	H	-0.672256	-0.839602	0.111710
H405	H	-0.338923	-0.506268	0.445043
H406	H	-1.055505	-1.166836	-0.282573
H407	H	-0.722172	-0.833503	0.050761
H408	H	-0.388839	-0.500169	0.384094
H409	H	-1.051357	-1.111673	-0.222765
H410	H	-0.718023	-0.778340	0.110568
H411	H	-0.384690	-0.445006	0.443902
H412	H	-0.961375	-1.129685	-0.316884
H413	H	-0.628042	-0.796352	0.016450
H414	H	-0.294709	-0.463018	0.349783
H415	H	-0.957213	-1.074521	-0.257068
H416	H	-0.623879	-0.741187	0.076265
H417	H	-0.290546	-0.407854	0.409599
C418	C	-1.157674	-1.062360	-0.241956
C419	C	-0.824341	-0.729027	0.091377
C420	C	-0.491007	-0.395693	0.424710
C421	C	-1.122932	-1.100155	-0.288699
C422	C	-0.789599	-0.766822	0.044635
C423	C	-0.456266	-0.433489	0.377968
H424	H	-1.180072	-1.094100	-0.212676
H425	H	-0.846739	-0.760767	0.120658
H426	H	-0.513405	-0.427433	0.453991
H427	H	-1.186571	-1.034515	-0.267625
H428	H	-0.853238	-0.701182	0.065708
H429	H	-0.519905	-0.367848	0.399042
H430	H	-1.129937	-1.032840	-0.213860
H431	H	-0.796603	-0.699507	0.119474
H432	H	-0.463270	-0.366174	0.452807
H433	H	-1.150670	-1.129671	-0.316799
H434	H	-0.817337	-0.796338	0.016534
H435	H	-0.484004	-0.463004	0.349868
H436	H	-1.094032	-1.128012	-0.263028
H437	H	-0.760699	-0.794679	0.070306
H438	H	-0.427365	-0.461346	0.403639
H439	H	-0.267172	-0.737657	-0.287021
H440	H	0.066161	-0.404323	0.046312
H441	H	0.399495	-0.070990	0.379645
H442	H	-0.443584	-0.399943	-0.477273
H443	H	-0.110251	-0.066610	-0.143939
H444	H	0.223082	0.266724	0.189394
C445	C	-0.626967	-1.141191	-0.251048
C446	C	-0.293633	-0.807857	0.082286
C447	C	0.039700	-0.474524	0.415619
C448	C	-0.584101	-1.100140	-0.288915
C449	C	-0.250767	-0.766807	0.044418
C450	C	0.082566	-0.433473	0.377752
H451	H	-0.604761	-1.172924	-0.221785
H452	H	-0.271428	-0.839590	0.111548
H453	H	0.061906	-0.506257	0.444882
H454	H	-0.654672	-1.166823	-0.282739
H455	H	-0.321339	-0.833490	0.050594
H456	H	0.011994	-0.500157	0.383928
H457	H	-0.650530	-1.111664	-0.222928
H458	H	-0.317197	-0.778330	0.110405
H459	H	0.016136	-0.444997	0.443738
H460	H	-0.560540	-1.129667	-0.317038
H461	H	-0.227207	-0.796334	0.016295
H462	H	0.106127	-0.463000	0.349628
H463	H	-0.556384	-1.074506	-0.257220
H464	H	-0.223051	-0.741172	0.076114
H465	H	0.110283	-0.407839	0.409447
C466	C	-0.457176	-0.880442	-1.068674
C467	C	-0.123842	-0.547108	-0.735341
C468	C	0.209491	-0.213775	-0.402007
C469	C	-0.424989	-0.918000	-1.117952
C470	C	-0.091656	-0.584667	-0.784618
C471	C	0.241677	-0.251333	-0.451285
H472	H	-0.484199	-0.848948	-1.092360
H473	H	-0.150866	-0.515614	-0.759026
H474	H	0.182467	-0.182281	-0.425693
H475	H	-0.427738	-0.854712	-1.039008
H476	H	-0.094405	-0.521378	-0.705674
H477	H	0.238928	-0.188045	-0.372341
H478	H	-0.481426	-0.912197	-1.041243
H479	H	-0.148093	-0.578863	-0.707909
H480	H	0.185240	-0.245530	-0.374576
H481	H	-0.400735	-0.886245	-1.145380
H482	H	-0.067401	-0.552912	-0.812046
H483	H	0.265932	-0.219579	-0.478713
H484	H	-0.454430	-0.943732	-1.147630
H485	H	-0.121097	-0.610398	-0.814296
H486	H	0.212236	-0.277065	-0.480963
H487	H	-0.712691	-1.086817	-0.301152
H488	H	-0.379358	-0.753484	0.032181
H489	H	-0.046024	-0.420150	0.365515
H490	H	-0.436634	-0.904213	-0.776833
H491	H	-0.103300	-0.570879	-0.443500
H492	H	0.230033	-0.237546	-0.110166
H493	H	-0.409030	-0.936527	-0.974866
H494	H	-0.075697	-0.603194	-0.641533
H495	H	0.257636	-0.269860	-0.308200
