data_functionalizedCrystal
_audit_creation_method	'MofGen! by Chris Wilmer'
_symmetry_space_group_name_H-M	'P1'
_symmetry_Int_Tables_number	1
_symmetry_cell_setting	triclinic
loop_
_symmetry_equiv_pos_as_xyz
  x,y,z
_cell_length_a	16.109301
_cell_length_b	12.503552
_cell_length_c	16.109301
_cell_angle_alpha	93.517221
_cell_angle_beta	96.538519
_cell_angle_gamma	93.519472
loop_
_atom_site_label
_atom_site_type_symbol
_atom_site_fract_x
_atom_site_fract_y
_atom_site_fract_z
O1	O	1.107930	0.089256	-0.102063
O2	O	1.441263	0.422589	0.231270
O3	O	1.774596	0.755923	0.564603
O4	O	0.865869	0.089273	-0.115362
O5	O	1.199202	0.422607	0.217972
O6	O	1.532535	0.755940	0.551305
O7	O	0.993548	0.089253	0.012318
O8	O	1.326881	0.422587	0.345651
O9	O	1.660215	0.755920	0.678985
O10	O	0.980250	0.089276	-0.229743
O11	O	1.313583	0.422609	0.103590
O12	O	1.646917	0.755943	0.436924
O13	O	0.983935	-0.089388	0.002707
O14	O	1.317268	0.243946	0.336041
O15	O	1.650601	0.577279	0.669374
O16	O	0.856255	-0.089368	-0.124972
O17	O	1.189589	0.243966	0.208361
O18	O	1.522922	0.577299	0.541694
O19	O	1.098316	-0.089385	-0.111674
O20	O	1.431650	0.243948	0.221659
O21	O	1.764983	0.577282	0.554993
Cu22	Cu	0.976408	-0.105688	-0.119201
Cu23	Cu	1.309741	0.227646	0.214133
Cu24	Cu	1.643075	0.560979	0.547466
Cu25	Cu	0.987777	0.105576	-0.107835
Cu26	Cu	1.321110	0.438909	0.225498
Cu27	Cu	1.654443	0.772243	0.558832
O28	O	0.970637	-0.089365	-0.239354
O29	O	1.303970	0.243968	0.093980
O30	O	1.637303	0.577302	0.427313
C31	C	0.830087	-0.000045	-0.119628
C32	C	1.163420	0.333288	0.213705
C33	C	1.496754	0.666622	0.547038
C34	C	0.737792	-0.000039	-0.118013
C35	C	1.071125	0.333295	0.215321
C36	C	1.404459	0.666628	0.548654
N37	N	0.968418	-0.254279	-0.127194
N38	N	1.301751	0.079054	0.206139
N39	N	1.635084	0.412388	0.539472
C40	C	0.515519	-0.000044	-0.190021
C41	C	0.848853	0.333289	0.143313
C42	C	1.182186	0.666622	0.476646
C43	C	0.428799	-0.000051	-0.188497
C44	C	0.762132	0.333282	0.144836
C45	C	1.095465	0.666615	0.478170
C46	C	0.448672	-0.000061	-0.037009
C47	C	0.782006	0.333272	0.296325
C48	C	1.115339	0.666606	0.629658
C49	C	0.535391	-0.000062	-0.038534
C50	C	0.868724	0.333272	0.294800
C51	C	1.202058	0.666605	0.628133
C52	C	0.568812	-0.000048	-0.115042
C53	C	0.902146	0.333285	0.218291
C54	C	1.235479	0.666619	0.551625
C55	C	0.395373	-0.000054	-0.111993
C56	C	0.728706	0.333279	0.221340
C57	C	1.062040	0.666612	0.554673
C58	C	0.301346	-0.000062	-0.110341
C59	C	0.634680	0.333271	0.222993
C60	C	0.968013	0.666605	0.556326
C61	C	0.662845	-0.000042	-0.116695
C62	C	0.996178	0.333291	0.216638
C63	C	1.329511	0.666624	0.549972
C64	C	1.007523	-0.526718	-0.088073
C65	C	1.340857	-0.193385	0.245260
C66	C	1.674190	0.139948	0.578593
C67	C	0.956671	-0.473386	-0.138953
C68	C	1.290004	-0.140053	0.194380
C69	C	1.623338	0.193280	0.527714
C70	C	0.963209	-0.351464	-0.132409
C71	C	1.296542	-0.018130	0.200925
C72	C	1.629875	0.315203	0.534258
C73	C	1.000987	-0.648652	-0.094617
C74	C	1.334320	-0.315319	0.238717
C75	C	1.667653	0.018015	0.572050
C76	C	1.134098	-0.000064	-0.107407
C77	C	1.467431	0.333269	0.225926
C78	C	1.800764	0.666602	0.559259
C79	C	1.226393	-0.000064	-0.109022
C80	C	1.559726	0.333270	0.224311
C81	C	1.893060	0.666603	0.557644
C82	C	0.988203	-0.000068	0.038487
C83	C	1.321536	0.333266	0.371821
C84	C	1.654869	0.666599	0.705154
C85	C	0.986587	-0.000069	0.130783
C86	C	1.319921	0.333264	0.464116
C87	C	1.653254	0.666598	0.797449
N88	N	0.995774	0.254168	-0.099835
N89	N	1.329107	0.587501	0.233499
N90	N	1.662440	0.920834	0.566832
C91	C	0.975982	-0.000042	-0.265523
C92	C	1.309316	0.333292	0.067810
C93	C	1.642649	0.666625	0.401144
C94	C	0.977598	-0.000033	-0.357818
C95	C	1.310931	0.333300	-0.024484
C96	C	1.644264	0.666634	0.308849
C97	C	1.058596	-0.000057	0.353056
C98	C	1.391929	0.333276	0.686389
C99	C	1.725262	0.666609	1.019722
C100	C	1.057072	-0.000048	0.439777
C101	C	1.390406	0.333285	0.773110
C102	C	1.723739	0.666618	1.106443
C103	C	0.905584	-0.000042	0.419903
C104	C	1.238917	0.333292	0.753236
C105	C	1.572251	0.666625	1.086569
C106	C	0.907109	-0.000043	0.333184
C107	C	1.240442	0.333290	0.666517
C108	C	1.573775	0.666624	0.999850
C109	C	0.983617	-0.000056	0.299763
C110	C	1.316950	0.333277	0.633096
C111	C	1.650284	0.666610	0.966429
C112	C	0.980568	-0.000046	0.473202
C113	C	1.313902	0.333287	0.806536
C114	C	1.647235	0.666621	1.139869
C115	C	0.978916	-0.000036	0.567229
C116	C	1.312249	0.333297	0.900562
C117	C	1.645583	0.666630	1.233895
C118	C	0.985270	-0.000064	0.205730
C119	C	1.318603	0.333269	0.539064
C120	C	1.651937	0.666603	0.872397
H121	H	0.542727	-0.000041	-0.252319
H122	H	0.876061	0.333292	0.081014
H123	H	1.209394	0.666626	0.414348
C124	C	1.032252	-0.400061	0.031747
C125	C	1.365585	-0.066727	0.365081
C126	C	1.698918	0.266606	0.698414
C127	C	1.072935	-0.464739	-0.022660
C128	C	1.406269	-0.131406	0.310673
C129	C	1.739602	0.201927	0.644006
H130	H	1.072640	-0.361781	0.072119
H131	H	1.405974	-0.028447	0.405453
H132	H	1.739307	0.304886	0.738786
H133	H	0.995342	-0.443928	0.059347
H134	H	1.328675	-0.110595	0.392680
H135	H	1.662009	0.222739	0.726014
H136	H	1.001193	-0.350596	0.000673
H137	H	1.334526	-0.017263	0.334006
H138	H	1.667859	0.316071	0.667339
H139	H	1.103990	-0.514210	0.008414
H140	H	1.437323	-0.180876	0.341747
H141	H	1.770656	0.152457	0.675081
H142	H	1.109860	-0.420868	-0.050262
H143	H	1.443193	-0.087535	0.283071
H144	H	1.776527	0.245799	0.616405
H145	H	0.908226	-0.519294	-0.187428
H146	H	1.241559	-0.185961	0.145906
H147	H	1.574892	0.147372	0.479239
H148	H	1.118128	-0.000047	0.483165
H149	H	1.451461	0.333286	0.816498
H150	H	1.784795	0.666620	1.149832
C151	C	0.677152	-0.000070	0.026391
C152	C	1.010485	0.333263	0.359724
C153	C	1.343818	0.666596	0.693057
C154	C	0.593979	-0.000065	0.043889
C155	C	0.927313	0.333268	0.377222
C156	C	1.260646	0.666602	0.710556
H157	H	0.713319	-0.000082	0.077273
H158	H	1.046652	0.333252	0.410606
H159	H	1.379986	0.666585	0.743940
H160	H	0.690625	0.062223	-0.001625
H161	H	1.023958	0.395557	0.331708
H162	H	1.357292	0.728890	0.665041
H163	H	0.683918	-0.062369	-0.008332
H164	H	1.017252	0.270964	0.325001
H165	H	1.350585	0.604297	0.658334
H166	H	0.587211	0.062238	0.078607
H167	H	0.920544	0.395572	0.411941
H168	H	1.253878	0.728905	0.745274
H169	H	0.580502	-0.062365	0.071918
H170	H	0.913835	0.270968	0.405251
H171	H	1.247168	0.604301	0.738585
H172	H	1.120894	-0.000066	0.325847
H173	H	1.454227	0.333267	0.659181
H174	H	1.787560	0.666601	0.992514
C175	C	0.417872	-0.000025	-0.338386
C176	C	0.751205	0.333308	-0.005053
C177	C	1.084538	0.666642	0.328280
C178	C	0.370219	-0.000040	-0.270916
C179	C	0.703553	0.333294	0.062417
C180	C	1.036886	0.666627	0.395751
H181	H	0.381706	-0.000012	-0.389269
H182	H	0.715039	0.333321	-0.055936
H183	H	1.048372	0.666655	0.277397
H184	H	0.448758	-0.062317	-0.339183
H185	H	0.782091	0.271017	-0.005849
H186	H	1.115424	0.604350	0.327484
H187	H	0.455460	0.062276	-0.332470
H188	H	0.788794	0.395609	0.000863
H189	H	1.122127	0.728943	0.334197
H190	H	0.332635	-0.062345	-0.276829
H191	H	0.665968	0.270988	0.056504
H192	H	0.999301	0.604322	0.389837
H193	H	0.339319	0.062258	-0.270121
H194	H	0.672653	0.395592	0.063212
H195	H	1.005986	0.728925	0.396546
C196	C	0.835981	-0.000050	0.544012
C197	C	1.169314	0.333283	0.877345
C198	C	1.502648	0.666616	1.210679
C199	C	0.821488	-0.000043	0.456642
C200	C	1.154821	0.333290	0.789975
C201	C	1.488155	0.666624	1.123308
H202	H	0.784061	-0.000061	0.566689
H203	H	1.117394	0.333273	0.900022
H204	H	1.450727	0.666606	1.233356
H205	H	0.870194	0.062242	0.565650
H206	H	1.203528	0.395576	0.898984
H207	H	1.536861	0.728909	1.232317
H208	H	0.863505	-0.062350	0.558948
H209	H	1.196838	0.270983	0.892282
H210	H	1.530172	0.604316	1.225615
H211	H	0.793969	0.062262	0.441705
H212	H	1.127303	0.395595	0.775038
H213	H	1.460636	0.728928	1.108372
H214	H	0.787261	-0.062342	0.434996
H215	H	1.120595	0.270991	0.768329
H216	H	1.453928	0.604325	1.101662
C217	C	0.783391	0.091790	0.294479
C218	C	1.116724	0.425123	0.627812
C219	C	1.450058	0.758456	0.961146
C220	C	0.824684	-0.000043	0.274599
C221	C	1.158017	0.333291	0.607932
C222	C	1.491350	0.666624	0.941265
H223	H	0.732506	0.091787	0.258314
H224	H	1.065839	0.425121	0.591647
H225	H	1.399173	0.758454	0.924981
H226	H	0.818113	0.154072	0.287694
H227	H	1.151446	0.487406	0.621028
H228	H	1.484780	0.820739	0.954361
H229	H	0.771538	0.091777	0.350910
H230	H	1.104871	0.425111	0.684243
H231	H	1.438204	0.758444	1.017576
H232	H	0.836543	-0.000026	0.218169
H233	H	1.169876	0.333307	0.551503
H234	H	1.503209	0.666640	0.884836
H235	H	0.789954	-0.062341	0.281376
H236	H	1.123288	0.270992	0.614709
H237	H	1.456621	0.604325	0.948042
C238	C	0.324563	-0.000053	0.032594
C239	C	0.657896	0.333280	0.365927
C240	C	0.991230	0.666613	0.699261
C241	C	0.411933	-0.000062	0.047087
C242	C	0.745266	0.333271	0.380420
C243	C	1.078600	0.666604	0.713753
H244	H	0.301886	-0.000045	0.084514
H245	H	0.635219	0.333288	0.417847
H246	H	0.968552	0.666622	0.751181
H247	H	0.302923	-0.062344	-0.001619
H248	H	0.636256	0.270989	0.331714
H249	H	0.969589	0.604322	0.665048
H250	H	0.309629	0.062248	0.005070
H251	H	0.642962	0.395582	0.338403
H252	H	0.976296	0.728915	0.671737
H253	H	0.426867	-0.062368	0.074606
H254	H	0.760201	0.270965	0.407939
H255	H	1.093534	0.604298	0.741272
H256	H	0.433581	0.062235	0.081314
H257	H	0.766915	0.395569	0.414647
H258	H	1.100248	0.728902	0.747980
