data_functionalizedCrystal
_audit_creation_method	'MofGen! by Chris Wilmer'
_symmetry_space_group_name_H-M	'P1'
_symmetry_Int_Tables_number	1
_symmetry_cell_setting	triclinic
loop_
_symmetry_equiv_pos_as_xyz
  x,y,z
_cell_length_a	18.050590
_cell_length_b	18.050591
_cell_length_c	18.050582
_cell_angle_alpha	89.979078
_cell_angle_beta	89.976663
_cell_angle_gamma	90.014558
loop_
_atom_site_label
_atom_site_type_symbol
_atom_site_fract_x
_atom_site_fract_y
_atom_site_fract_z
Zn1	Zn	-0.295786	1.135342	-0.420027
Zn2	Zn	-0.419969	1.135274	-0.295836
Zn3	Zn	-0.295789	1.011162	-0.295839
Zn4	Zn	-0.419930	1.011131	-0.419971
O5	O	-0.357868	1.073227	-0.357918
O6	O	-0.312274	1.239258	-0.403576
O7	O	-0.403514	1.118795	-0.191912
O8	O	-0.191864	1.027676	-0.312337
O9	O	-0.403511	1.239208	-0.312332
O10	O	-0.191862	1.118911	-0.403578
O11	O	-0.312279	1.027610	-0.191914
O12	O	-0.312241	0.907233	-0.312283
O13	O	-0.403444	1.027623	-0.523903
O14	O	-0.403447	0.907210	-0.403482
O15	O	-0.312236	1.118881	-0.523945
O16	O	-0.523888	1.118765	-0.312278
O17	O	-0.523860	1.027557	-0.403480
C18	C	-0.357841	0.880275	-0.357877
C19	C	-0.357847	0.797729	-0.357877
C20	C	-0.308191	0.598269	-0.308397
C21	C	-0.375927	0.548861	-0.290120
C22	C	-0.357869	0.646599	-0.357911
C23	C	-0.290157	0.548925	-0.376186
C24	C	-0.357885	0.500614	-0.357942
C25	C	-0.425641	0.598278	-0.339598
C26	C	-0.339825	0.598346	-0.425696
C27	C	-0.407607	0.548961	-0.407445
C28	C	-0.357859	0.730697	-0.357891
C29	C	-0.357903	0.416517	-0.357962
C30	C	-0.550820	1.073170	-0.357889
C31	C	-0.633366	1.073214	-0.357901
C32	C	-0.832806	1.122916	-0.308375
C33	C	-0.882145	1.141051	-0.376157
C34	C	-0.784497	1.073256	-0.357930
C35	C	-0.882238	1.055196	-0.290179
C36	C	-0.930482	1.073298	-0.357953
C37	C	-0.832749	1.091426	-0.425748
C38	C	-0.832838	1.005539	-0.339725
C39	C	-0.882155	1.023649	-0.407554
C40	C	-0.700398	1.073233	-0.357916
C41	C	-1.014578	1.073320	-0.357975
C42	C	-0.164163	1.073305	-0.357964
C43	C	-0.081617	1.073338	-0.357984
C44	C	-0.357835	1.073256	-0.551624
C45	C	-0.357821	1.073269	-0.634170
C46	C	-0.357897	1.266933	-0.357960
C47	C	-0.357909	1.349479	-0.357978
C48	C	-0.407353	1.023681	-0.833598
C49	C	-0.425511	1.091439	-0.882996
C50	C	-0.357765	1.073305	-0.785300
C51	C	-0.339586	1.005584	-0.882984
C52	C	-0.357711	1.073335	-0.931285
C53	C	-0.375958	1.141099	-0.833611
C54	C	-0.290002	1.055199	-0.833594
C55	C	-0.308134	1.123004	-0.882970
C56	C	-0.357797	1.073287	-0.701202
C57	C	-0.357679	1.073360	-1.015382
C58	C	-0.357848	1.073241	-0.164966
C59	C	-0.357652	1.073372	-0.082421
H60	H	-0.449673	0.527446	-0.449330
H61	H	-0.482928	0.619866	-0.324091
C62	C	-0.911601	1.034533	-0.212761
N63	N	-0.933713	1.018974	-0.154448
C64	C	-0.803544	0.928176	-0.318871
N65	N	-0.781475	0.869907	-0.303154
H66	H	-0.482794	1.106771	-0.904696
H67	H	-0.391377	1.198399	-0.812015
C68	C	-0.251500	0.627525	-0.251770
N69	N	-0.208804	0.649561	-0.209116
H70	H	-0.903806	1.198335	-0.391570
C71	C	-0.396559	0.519491	-0.212697
N72	N	-0.412093	0.497371	-0.154381
H73	H	-0.324530	0.620100	-0.482990
C74	C	-0.911244	0.966937	-0.464246
N75	N	-0.933155	0.924224	-0.506948
C76	C	-0.464079	0.967051	-0.804294
N77	N	-0.506808	0.924404	-0.782217
H78	H	-0.232894	0.527208	-0.391604
C79	C	-0.803521	1.179668	-0.251822
N80	N	-0.781461	1.222416	-0.209232
H81	H	-0.266177	1.165031	-0.904511
C82	C	-0.803509	1.112181	-0.503188
N83	N	-0.781483	1.127817	-0.561513
H84	H	-0.232736	1.039846	-0.811878
H85	H	-0.324232	0.948301	-0.904672
