data_functionalizedCrystal
_audit_creation_method	'MofGen! by Chris Wilmer'
_symmetry_space_group_name_H-M	'P1'
_symmetry_Int_Tables_number	1
_symmetry_cell_setting	triclinic
loop_
_symmetry_equiv_pos_as_xyz
  x,y,z
_cell_length_a	17.038272
_cell_length_b	10.723024
_cell_length_c	9.798715
_cell_angle_alpha	90.003391
_cell_angle_beta	89.996584
_cell_angle_gamma	92.210287
loop_
_atom_site_label
_atom_site_type_symbol
_atom_site_fract_x
_atom_site_fract_y
_atom_site_fract_z
O1	O	0.109720	-1.667337	-0.113484
O2	O	0.120222	-1.305156	-0.113489
O3	O	0.001144	-1.484094	-0.113475
O4	O	0.228799	-1.488399	-0.113497
O5	O	0.001144	-1.484079	0.113507
O6	O	0.120222	-1.305141	0.113494
O7	O	0.109720	-1.667322	0.113498
Zn8	Zn	0.114971	-1.486230	0.149534
Zn9	Zn	0.114971	-1.486248	-0.149525
O10	O	0.228798	-1.488384	0.113485
C11	C	0.119458	-1.258578	0.000002
C12	C	0.117171	-1.119813	0.000000
C13	C	-0.028006	-1.480171	0.000015
C14	C	-0.114864	-1.468489	0.000015
C15	C	0.110484	-1.713900	0.000005
C16	C	0.112771	-1.852666	-0.000003
C17	C	-0.164385	-1.575744	0.000018
C18	C	-0.245996	-1.564760	0.000005
C19	C	-0.278084	-1.446520	-0.000002
C20	C	-0.228557	-1.339256	-0.000009
C21	C	-0.146947	-1.350241	-0.000005
C22	C	-0.524057	-1.407711	-0.000021
C23	C	-0.605673	-1.396734	-0.000020
C24	C	-0.623107	-1.622239	-0.000009
C25	C	-0.541495	-1.633214	0.000002
C26	C	-0.491974	-1.525950	-0.000012
C27	C	-0.361504	-1.435289	-0.000011
C28	C	-0.408556	-1.537182	-0.000013
C29	C	0.257948	-1.492307	-0.000009
C30	C	0.344806	-1.503989	-0.000017
N31	N	0.114970	-1.486226	0.353634
C32	C	0.183801	-1.050993	-0.000007
C33	C	0.181440	-0.907571	-0.000008
N34	N	0.114966	-1.486261	-0.353624
C35	C	0.064752	-1.561337	0.421416
C36	C	0.064749	-1.561356	0.578579
H37	H	-0.138265	-1.672028	0.000031
O38	O	-0.510238	-1.748009	-0.000183
C39	C	-0.463565	-1.761134	-0.117754
H40	H	-0.443764	-1.664890	-0.156947
H41	H	-0.409870	-1.816581	-0.091313
H42	H	-0.499318	-1.812543	-0.200072
O43	O	0.166297	-1.409714	0.576706
C44	C	0.214782	-1.481981	0.494064
H45	H	0.184010	-1.576262	0.472779
H46	H	0.226896	-1.431301	0.393537
H47	H	0.272644	-1.496816	0.549046
O48	O	0.166290	-1.409404	0.422986
C49	C	0.212997	-1.339585	0.329448
H50	H	0.180986	-1.334537	0.227556
H51	H	0.224507	-1.241222	0.370858
H52	H	0.271265	-1.386537	0.314292
H53	H	0.238480	-0.848415	-0.000020
O54	O	-0.476043	-1.303425	-0.000201
C55	C	-0.490668	-1.232170	-0.117771
H56	H	-0.552397	-1.256268	-0.156967
H57	H	-0.485494	-1.128646	-0.091327
H58	H	-0.445939	-1.253973	-0.200087
O59	O	0.047047	-1.063386	-0.000237
C60	C	0.041616	-0.988372	-0.117775
H61	H	0.082631	-1.023603	-0.199943
H62	H	-0.021370	-0.993236	-0.157231
H63	H	0.059194	-0.887621	-0.091198
H64	H	-0.663435	-1.709567	-0.000000
O65	O	-0.294018	-1.669043	-0.000168
C66	C	-0.279383	-1.740319	-0.117731
H67	H	-0.217648	-1.716231	-0.156921
H68	H	-0.284562	-1.843837	-0.091280
H69	H	-0.324102	-1.718526	-0.200055
O70	O	0.253965	-1.107302	0.000229
C71	C	0.296783	-1.071041	0.117762
H72	H	0.254568	-1.039387	0.199931
H73	H	0.330419	-1.153536	0.157220
H74	H	0.339985	-0.990883	0.091176
O75	O	0.013347	-1.638009	0.647960
C76	C	-0.064171	-1.609149	0.613182
H77	H	-0.064320	-1.561102	0.509410
H78	H	-0.102319	-1.698752	0.608426
H79	H	-0.088557	-1.544261	0.693586
H80	H	-0.254689	-1.242982	-0.000022
O81	O	-0.636939	-1.281938	-0.000214
C82	C	-0.683609	-1.268850	-0.117784
H83	H	-0.703397	-1.365107	-0.156967
H84	H	-0.737313	-1.213416	-0.091345
H85	H	-0.647859	-1.217445	-0.200109
O86	O	-0.098952	-1.245926	0.000053
C87	C	-0.144771	-1.139207	0.000012
H88	H	-0.205502	-1.164424	0.042990
H89	H	-0.115094	-1.063516	0.065902
H90	H	-0.150768	-1.103385	-0.108886
H91	H	-0.387640	-1.339017	-0.000013
O92	O	-0.377482	-1.652105	0.000173
C93	C	-0.402712	-1.717992	0.117751
H94	H	-0.459490	-1.677962	0.156942
H95	H	-0.413473	-1.820767	0.091320
H96	H	-0.355574	-1.708528	0.200067
O97	O	0.044662	-0.923088	0.000184
C98	C	0.000814	-0.895787	0.117761
H99	H	0.019419	-0.799006	0.156955
H100	H	-0.064384	-0.898151	0.091327
H101	H	0.011949	-0.968126	0.200076
H102	H	0.021757	-1.625623	0.363099
