data_functionalizedCrystal
_audit_creation_method	'MofGen! by Chris Wilmer'
_symmetry_space_group_name_H-M	'P1'
_symmetry_Int_Tables_number	1
_symmetry_cell_setting	triclinic
loop_
_symmetry_equiv_pos_as_xyz
  x,y,z
_cell_length_a	16.120490
_cell_length_b	18.101397
_cell_length_c	16.120297
_cell_angle_alpha	92.869027
_cell_angle_beta	90.129683
_cell_angle_gamma	87.112663
loop_
_atom_site_label
_atom_site_type_symbol
_atom_site_fract_x
_atom_site_fract_y
_atom_site_fract_z
Zn1	Zn	1.247471	-0.375252	-0.534508
Zn2	Zn	1.497471	-0.125252	-0.284508
Zn3	Zn	1.747471	0.124748	-0.034508
Zn4	Zn	1.997471	0.374748	0.215492
Zn5	Zn	1.254429	-0.493146	-0.395442
Zn6	Zn	1.504429	-0.243146	-0.145442
Zn7	Zn	1.754429	0.006854	0.104558
Zn8	Zn	2.004429	0.256854	0.354558
Zn9	Zn	1.115459	-0.362732	-0.388430
Zn10	Zn	1.365459	-0.112732	-0.138430
Zn11	Zn	1.615459	0.137268	0.111570
Zn12	Zn	1.865459	0.387268	0.361570
Zn13	Zn	1.108384	-0.492457	-0.527415
Zn14	Zn	1.358384	-0.242457	-0.277415
Zn15	Zn	1.608384	0.007543	-0.027415
Zn16	Zn	1.858384	0.257543	0.222585
O17	O	1.181436	-0.430897	-0.461449
O18	O	1.431436	-0.180897	-0.211449
O19	O	1.681436	0.069103	0.038551
O20	O	1.931436	0.319103	0.288551
O21	O	1.364761	-0.396420	-0.521964
O22	O	1.614761	-0.146420	-0.271964
O23	O	1.864761	0.103580	-0.021964
O24	O	2.114761	0.353580	0.228036
O25	O	1.241867	-0.470895	-0.278147
O26	O	1.491867	-0.220895	-0.028147
O27	O	1.741867	0.029105	0.221853
O28	O	1.991867	0.279105	0.471853
O29	O	1.133020	-0.260764	-0.407842
O30	O	1.383020	-0.010764	-0.157842
O31	O	1.633020	0.239236	0.092158
O32	O	1.883020	0.489236	0.342158
O33	O	1.369873	-0.483035	-0.419793
O34	O	1.619873	-0.233035	-0.169793
O35	O	1.869873	0.016965	0.080207
O36	O	2.119873	0.266965	0.330207
O37	O	1.230008	-0.269962	-0.515165
O38	O	1.480008	-0.019962	-0.265165
O39	O	1.730008	0.230038	-0.015165
O40	O	1.980008	0.480038	0.234835
O41	O	1.139767	-0.375080	-0.272995
O42	O	1.389767	-0.125080	-0.022995
O43	O	1.639767	0.124920	0.227005
O44	O	1.889767	0.374920	0.477005
O45	O	0.998154	-0.374412	-0.400964
O46	O	1.248154	-0.124412	-0.150964
O47	O	1.498154	0.125588	0.099036
O48	O	1.748154	0.375588	0.349036
O49	O	1.120962	-0.481861	-0.644721
O50	O	1.370962	-0.231861	-0.394721
O51	O	1.620962	0.018139	-0.144721
O52	O	1.870962	0.268139	0.105279
O53	O	0.992956	-0.469720	-0.503075
O54	O	1.242956	-0.219720	-0.253075
O55	O	1.492956	0.030280	-0.003075
O56	O	1.742956	0.280280	0.246925
O57	O	1.223148	-0.395751	-0.649932
O58	O	1.473148	-0.145751	-0.399932
O59	O	1.723148	0.104249	-0.149932
O60	O	1.973148	0.354249	0.100068
O61	O	1.235007	-0.596684	-0.412915
O62	O	1.485007	-0.346684	-0.162915
O63	O	1.735007	-0.096684	0.087085
O64	O	1.985007	0.153316	0.337085
O65	O	1.127709	-0.596177	-0.509874
O66	O	1.377709	-0.346177	-0.259874
O67	O	1.627709	-0.096177	-0.009874
O68	O	1.877709	0.153823	0.240126
C69	C	0.965382	-0.420633	-0.450489
C70	C	1.215382	-0.170633	-0.200489
C71	C	1.465382	0.079367	0.049511
C72	C	1.715382	0.329367	0.299511
C73	C	0.872952	-0.416261	-0.445821
C74	C	1.122952	-0.166261	-0.195821
C75	C	1.372952	0.083739	0.054179
C76	C	1.622952	0.333739	0.304179
C77	C	0.659993	-0.453570	-0.485668
C78	C	0.909993	-0.203570	-0.235668
C79	C	1.159993	0.046430	0.014332
C80	C	1.409993	0.296430	0.264332
C81	C	0.703727	-0.408285	-0.437296
C82	C	0.953727	-0.158285	-0.187296
C83	C	1.203727	0.091715	0.062704
C84	C	1.453727	0.341715	0.312704
C85	C	0.797893	-0.412724	-0.442040
C86	C	1.047893	-0.162724	-0.192040
C87	C	1.297893	0.087276	0.057960
C88	C	1.547893	0.337276	0.307960
C89	C	0.565818	-0.449132	-0.480924
C90	C	0.815818	-0.199132	-0.230924
C91	C	1.065818	0.050868	0.019076
C92	C	1.315818	0.300868	0.269076
C93	C	1.181367	-0.623302	-0.461405
C94	C	1.431367	-0.373302	-0.211405
C95	C	1.681367	-0.123302	0.038595
C96	C	1.931367	0.126698	0.288595
C97	C	1.181412	-0.705619	-0.461418
C98	C	1.431412	-0.455619	-0.211418
C99	C	1.681412	-0.205619	0.038582
C100	C	1.931412	0.044381	0.288582
C101	C	1.181514	-1.004718	-0.461499
C102	C	1.431514	-0.754718	-0.211499
C103	C	1.681514	-0.504718	0.038501
C104	C	1.931514	-0.254718	0.288501
C105	C	1.248853	-0.973665	-0.400313
C106	C	1.498853	-0.723665	-0.150313
C107	C	1.748853	-0.473665	0.099687
C108	C	1.998853	-0.223665	0.349687
C109	C	1.249066	-0.888064	-0.400491
C110	C	1.499066	-0.638064	-0.150491
C111	C	1.749066	-0.388064	0.099509
C112	C	1.999066	-0.138064	0.349509
C113	C	1.181463	-0.856331	-0.461458
C114	C	1.431463	-0.606331	-0.211458
C115	C	1.681463	-0.356331	0.038542
C116	C	1.931463	-0.106331	0.288542
C117	C	1.200776	-0.892215	-0.550311
C118	C	1.450776	-0.642215	-0.300311
C119	C	1.700776	-0.392215	-0.050311
C120	C	1.950776	-0.142215	0.199689
C121	C	1.201290	-0.977868	-0.549985
C122	C	1.451290	-0.727868	-0.299985
C123	C	1.701290	-0.477868	-0.049985
C124	C	1.951290	-0.227868	0.200015
C125	C	1.094654	-0.968092	-0.434582
C126	C	1.344654	-0.718092	-0.184582
C127	C	1.594654	-0.468092	0.065418
C128	C	1.844654	-0.218092	0.315418
C129	C	1.095187	-0.882379	-0.432648
C130	C	1.345187	-0.632379	-0.182648
C131	C	1.595187	-0.382379	0.067352
C132	C	1.845187	-0.132379	0.317352
C133	C	1.181433	-0.772470	-0.461440
C134	C	1.431433	-0.522470	-0.211440
C135	C	1.681433	-0.272470	0.038560
C136	C	1.931433	-0.022470	0.288560
C137	C	1.181546	-1.088580	-0.461523
C138	C	1.431546	-0.838580	-0.211523
C139	C	1.681546	-0.588580	0.038477
C140	C	1.931546	-0.338580	0.288477
C141	C	1.398333	-0.441201	-0.472452
C142	C	1.648333	-0.191201	-0.222452
C143	C	1.898333	0.058799	0.027548
C144	C	2.148333	0.308799	0.277548
C145	C	1.490762	-0.445592	-0.477140
C146	C	1.740762	-0.195592	-0.227140
C147	C	1.990762	0.054408	0.022860
C148	C	2.240762	0.304408	0.272860
C149	C	1.170489	-0.440126	-0.678343
C150	C	1.420489	-0.190126	-0.428343
C151	C	1.670489	0.059874	-0.178343
C152	C	1.920489	0.309874	0.071657
C153	C	1.165824	-0.444059	-0.770770
C154	C	1.415824	-0.194059	-0.520770
C155	C	1.665824	0.055941	-0.270770
C156	C	1.915824	0.305941	-0.020770
C157	C	1.181527	-0.237742	-0.461512
C158	C	1.431527	0.012258	-0.211512
C159	C	1.681527	0.262258	0.038488
C160	C	1.931527	0.512258	0.288488
C161	C	1.181566	-0.155431	-0.461539
C162	C	1.431566	0.094569	-0.211539
C163	C	1.681566	0.344569	0.038461
C164	C	1.931566	0.594569	0.288461
C165	C	1.157277	-0.451222	-0.939994
C166	C	1.407277	-0.201222	-0.689994
C167	C	1.657277	0.048778	-0.439994
C168	C	1.907277	0.298778	-0.189994
C169	C	1.205758	-0.410358	-0.983764
C170	C	1.455758	-0.160358	-0.733764
C171	C	1.705758	0.089642	-0.483764
C172	C	1.955758	0.339642	-0.233764
C173	C	1.201003	-0.414343	-1.077926
C174	C	1.451003	-0.164343	-0.827926
C175	C	1.701003	0.085657	-0.577926
C176	C	1.951003	0.335657	-0.327926
C177	C	1.162032	-0.447237	-0.845823
C178	C	1.412032	-0.197237	-0.595823
C179	C	1.662032	0.052763	-0.345823
C180	C	1.912032	0.302763	-0.095823
C181	C	1.192388	-0.421652	-0.245401
C182	C	1.442388	-0.171652	0.004599
C183	C	1.692388	0.078348	0.254599
C184	C	1.942388	0.328348	0.504599
C185	C	1.197214	-0.417518	-0.152983
C186	C	1.447214	-0.167518	0.097017
C187	C	1.697214	0.082482	0.347017
C188	C	1.947214	0.332482	0.597017
H189	H	0.670448	-0.366182	-0.392319
H190	H	0.920448	-0.116182	-0.142319
H191	H	1.170448	0.133818	0.107681
H192	H	1.420448	0.383818	0.357681
F193	F	1.026549	-0.853741	-0.486163
F194	F	1.276549	-0.603741	-0.236163
F195	F	1.526549	-0.353741	0.013837
F196	F	1.776549	-0.103741	0.263837
H197	H	0.693269	-0.495670	-0.530640
H198	H	0.943269	-0.245670	-0.280640
H199	H	1.193269	0.004330	-0.030640
H200	H	1.443269	0.254330	0.219360
F201	F	1.098363	-0.500860	-0.983446
F202	F	1.348363	-0.250860	-0.733446
F203	F	1.598363	-0.000860	-0.483446
F204	F	1.848363	0.249140	-0.233446
F205	F	1.233987	-0.996095	-0.314138
F206	F	1.483987	-0.746095	-0.064138
F207	F	1.733987	-0.496095	0.185862
F208	F	1.983987	-0.246095	0.435862
F209	F	1.233903	-0.856106	-0.314568
F210	F	1.483903	-0.606106	-0.064568
F211	F	1.733903	-0.356106	0.185432
F212	F	1.983903	-0.106106	0.435432
H213	H	1.312937	-0.998836	-0.418286
H214	H	1.562937	-0.748836	-0.168286
H215	H	1.812937	-0.498836	0.081714
H216	H	2.062937	-0.248836	0.331714
H217	H	1.313498	-0.871248	-0.418653
H218	H	1.563498	-0.621248	-0.168653
H219	H	1.813498	-0.371248	0.081347
H220	H	2.063498	-0.121248	0.331347
F221	F	1.284104	-1.008958	-0.579109
F222	F	1.534104	-0.758958	-0.329109
F223	F	1.784104	-0.508958	-0.079109
F224	F	2.034104	-0.258958	0.170891
H225	H	1.154149	-0.998603	-0.597385
H226	H	1.404149	-0.748603	-0.347385
H227	H	1.654149	-0.498603	-0.097385
H228	H	1.904149	-0.248603	0.152615
F229	F	1.138373	-0.865564	-0.611751
F230	F	1.388373	-0.615564	-0.361751
F231	F	1.638373	-0.365564	-0.111751
F232	F	1.888373	-0.115564	0.138249
F233	F	1.282628	-0.869131	-0.579812
F234	F	1.532628	-0.619131	-0.329812
F235	F	1.782628	-0.369131	-0.079812
F236	F	2.032628	-0.119131	0.170188
H237	H	1.076226	-0.986041	-0.370682
H238	H	1.326226	-0.736041	-0.120682
H239	H	1.576226	-0.486041	0.129318
H240	H	1.826226	-0.236041	0.379318
F241	F	1.076043	-0.851180	-0.347154
F242	F	1.326043	-0.601180	-0.097154
F243	F	1.576043	-0.351180	0.152846
F244	F	1.826043	-0.101180	0.402846
H245	H	1.044536	-0.988101	-0.479092
H246	H	1.294536	-0.738101	-0.229092
H247	H	1.544536	-0.488101	0.020908
H248	H	1.794536	-0.238101	0.270908
H249	H	1.250836	-0.372379	-0.950518
H250	H	1.500836	-0.122379	-0.700518
H251	H	1.750836	0.127621	-0.450518
H252	H	2.000836	0.377621	-0.200518
