data_functionalizedCrystal
_audit_creation_method	'MofGen! by Chris Wilmer'
_symmetry_space_group_name_H-M	'P1'
_symmetry_Int_Tables_number	1
_symmetry_cell_setting	triclinic
loop_
_symmetry_equiv_pos_as_xyz
  x,y,z
_cell_length_a	10.654550
_cell_length_b	14.519709
_cell_length_c	9.730223
_cell_angle_alpha	89.994652
_cell_angle_beta	89.999957
_cell_angle_gamma	84.082538
loop_
_atom_site_label
_atom_site_type_symbol
_atom_site_fract_x
_atom_site_fract_y
_atom_site_fract_z
O1	O	1.666594	0.129532	-0.114191
O2	O	1.300996	0.141873	-0.114216
O3	O	1.493488	0.001514	-0.114190
O4	O	1.474102	0.269891	-0.114216
O5	O	1.493476	0.001511	0.114390
O6	O	1.300984	0.141869	0.114364
O7	O	1.666581	0.129528	0.114389
Zn8	Zn	1.483781	0.135698	0.150669
Zn9	Zn	1.483797	0.135703	-0.150495
O10	O	1.474089	0.269887	0.114363
C11	C	1.254201	0.140965	0.000071
C12	C	1.114784	0.138254	0.000061
C13	C	1.034504	0.220895	0.000057
C14	C	0.903507	0.218342	0.000081
C15	C	0.933084	0.050500	0.000108
C16	C	1.064078	0.053054	0.000094
C17	C	1.492579	-0.032852	0.000100
C18	C	1.489871	-0.135247	0.000100
C19	C	1.479904	-0.510195	0.000064
C20	C	1.482672	-0.405872	0.000075
C21	C	1.484887	-0.322724	0.000083
C22	C	1.487656	-0.218395	0.000091
C23	C	1.713377	0.130436	0.000099
C24	C	1.852794	0.133147	0.000100
C25	C	1.474999	0.304253	0.000070
C26	C	1.477706	0.406649	0.000061
N27	N	1.483779	0.135694	0.356205
N28	N	1.483809	0.135700	-0.356032
C29	C	1.569043	0.073570	0.428142
C30	C	1.569056	0.073570	0.572025
C31	C	1.398535	0.197827	0.572021
C32	C	1.398518	0.197822	0.428140
H33	H	1.129446	-0.014247	0.000101
H34	H	1.329079	0.248411	0.369565
C35	C	0.816199	0.307997	-0.000147
C36	C	0.740096	0.311420	-0.117718
C37	C	0.659642	0.393994	-0.117965
H38	H	0.865007	0.359176	-0.000239
H39	H	0.764418	0.310502	0.079530
H40	H	0.791871	0.308924	-0.197374
H41	H	0.691262	0.260261	-0.117651
H42	H	0.607861	0.396499	-0.038289
H43	H	0.708460	0.445166	-0.118054
H44	H	0.607989	0.396324	-0.197729
C45	C	1.661431	0.006014	0.650201
C46	C	1.594430	-0.050918	0.732794
C47	C	1.679485	-0.113173	0.804814
H48	H	1.713814	0.039441	0.706429
H49	H	1.712184	-0.031038	0.586791
H50	H	1.543698	-0.013870	0.796197
H51	H	1.542052	-0.084365	0.676600
H52	H	1.730238	-0.150226	0.741404
H53	H	1.731863	-0.079738	0.861034
H54	H	1.634037	-0.151814	0.860852
C55	C	0.878199	-0.042064	-0.000089
C56	C	0.919004	-0.092079	-0.117668
C57	C	0.868485	-0.177359	-0.117893
H58	H	0.788690	-0.031881	-0.000157
H59	H	0.905782	-0.076178	0.079582
H60	H	0.891414	-0.057972	-0.197319
H61	H	1.008506	-0.102287	-0.117625
H62	H	0.896069	-0.211474	-0.038222
H63	H	0.778978	-0.167167	-0.117957
H64	H	0.896174	-0.211308	-0.197662
C65	C	1.089314	0.313487	0.000106
C66	C	0.990964	0.385313	0.000146
C67	C	1.041402	0.470623	0.000214
H68	H	1.139774	0.318107	-0.079589
H69	H	1.139771	0.318021	0.079843
H70	H	0.940528	0.380782	-0.079583
H71	H	0.940496	0.380724	0.079835
H72	H	1.091859	0.475157	0.079951
H73	H	1.091861	0.475234	-0.079483
H74	H	0.974680	0.519367	0.000254
H75	H	1.638466	0.022980	0.369576
H76	H	1.329120	0.248412	0.630605
