data_functionalizedCrystal
_audit_creation_method	'MofGen! by Chris Wilmer'
_symmetry_space_group_name_H-M	'P1'
_symmetry_Int_Tables_number	1
_symmetry_cell_setting	triclinic
loop_
_symmetry_equiv_pos_as_xyz
  x,y,z
_cell_length_a	17.038272
_cell_length_b	17.038272
_cell_length_c	15.500227
_cell_angle_alpha	93.033254
_cell_angle_beta	86.956295
_cell_angle_gamma	91.111556
loop_
_atom_site_label
_atom_site_type_symbol
_atom_site_fract_x
_atom_site_fract_y
_atom_site_fract_z
O1	O	1.052160	0.167139	-0.071836
O2	O	0.824350	0.164430	-0.071862
O3	O	0.936901	0.051879	-0.071842
O4	O	0.939609	0.279690	-0.071856
O5	O	0.930069	0.058680	0.072045
O6	O	0.817518	0.171231	0.072026
O7	O	1.045328	0.173940	0.072051
Cu8	Cu	0.930799	0.173207	0.085177
Cu9	Cu	0.938879	0.165164	-0.084987
O10	O	0.932777	0.286491	0.072032
C11	C	0.791641	0.165368	0.000079
C12	C	0.704358	0.158019	0.000069
C13	C	0.658749	0.225482	0.000066
C14	C	0.576737	0.218574	0.000078
C15	C	0.540335	0.144201	0.000088
C16	C	0.585950	0.076733	0.000094
C17	C	0.667961	0.083642	0.000088
C18	C	0.292946	0.119792	0.000112
C19	C	0.210929	0.112887	0.000116
C20	C	0.201721	0.254729	0.000102
C21	C	0.283734	0.261632	0.000091
C22	C	0.329342	0.194164	0.000101
C23	C	0.456505	0.137138	0.000098
C24	C	0.413170	0.201228	0.000098
C25	C	0.931022	0.025987	0.000101
C26	C	0.923674	-0.061297	0.000100
C27	C	0.991137	-0.106906	0.000108
C28	C	0.984229	-0.188918	0.000100
C29	C	0.909856	-0.225320	0.000088
C30	C	0.842388	-0.179705	0.000077
C31	C	0.849297	-0.097694	0.000080
C32	C	0.885446	-0.472708	0.000074
C33	C	0.878541	-0.554725	0.000074
C34	C	1.020383	-0.563932	0.000094
C35	C	1.027286	-0.481919	0.000102
C36	C	0.959818	-0.436312	0.000087
C37	C	0.902792	-0.309149	0.000082
C38	C	0.966882	-0.352484	0.000087
C39	C	1.078037	0.173003	0.000109
C40	C	1.165320	0.180351	0.000113
C41	C	0.938656	0.312383	0.000087
C42	C	0.946004	0.399667	0.000082
N43	N	0.925122	0.178864	0.204861
N44	N	0.944561	0.159501	-0.204671
C45	C	0.972833	0.131192	0.250145
C46	C	0.968547	0.135478	0.340718
C47	C	0.916555	0.187440	0.386003
C48	C	0.868839	0.235114	0.340712
C49	C	0.873121	0.230823	0.250142
C50	C	0.901128	0.202884	0.659467
C51	C	0.896851	0.207172	0.750044
C52	C	0.996559	0.107535	0.750044
C53	C	1.000840	0.103252	0.659471
C54	C	0.953121	0.150923	0.614188
C55	C	0.912174	0.191824	0.478582
C56	C	0.957498	0.146534	0.521610
H57	H	0.442811	0.261782	0.000095
C58	C	0.405363	0.335199	0.000015
C59	C	0.323747	0.343383	0.000042
H60	H	0.430065	0.385669	-0.000034
H61	H	0.418328	0.309595	0.050203
H62	H	0.423049	0.304792	-0.050151
H63	H	0.306061	0.373785	0.050213
H64	H	0.310777	0.368998	-0.050150
C65	C	0.197028	-0.013644	-0.073831
C66	C	0.170913	0.031131	0.000129
H67	H	0.172325	-0.064115	-0.073821
H68	H	0.184072	0.011990	-0.124002
H69	H	0.252397	-0.019185	-0.073820
H70	H	0.115544	0.036677	0.000114
H71	H	0.183863	0.005491	0.050312
H72	H	0.862274	0.241701	0.622605
H73	H	0.842237	-0.338796	0.000075
H74	H	1.087848	-0.452287	0.000111
C75	C	1.077689	-0.016537	0.074091
C76	C	1.072892	-0.066899	0.000121
H77	H	1.128165	0.008154	0.074098
H78	H	1.038507	0.022363	0.074082
H79	H	1.069661	-0.045980	0.124261
H80	H	1.080914	-0.037456	-0.050048
H81	H	1.112086	-0.105804	0.000122
H82	H	0.999827	0.104223	0.484736
H83	H	0.854510	0.249490	0.786912
C84	C	0.778296	-0.003618	-0.073899
C85	C	0.775139	-0.047558	0.000071
H86	H	0.732510	0.027329	-0.073909
H87	H	0.823573	0.029793	-0.073885
H88	H	0.780933	-0.038182	-0.124069
H89	H	0.772509	-0.012994	0.050241
H90	H	0.729850	-0.080973	0.000065
H91	H	0.164579	0.309658	0.000096
H92	H	0.705095	0.028706	0.000090
H93	H	1.043177	0.060940	0.622602
C94	C	0.394008	0.041774	-0.073857
C95	C	0.343070	0.045630	0.000112
H96	H	0.424957	-0.004012	-0.073854
H97	H	0.364198	0.039658	-0.124022
H98	H	0.427425	0.087056	-0.073849
H99	H	0.309649	0.000350	0.000101
H100	H	0.372883	0.047739	0.050290
C101	C	1.125123	-0.189781	0.000140
C102	C	1.058386	-0.239051	0.000119
H103	H	1.170906	-0.220732	0.000158
H104	H	1.127256	-0.159972	-0.050033
H105	H	1.122472	-0.155231	0.050321
H106	H	1.061034	-0.273596	-0.050066
H107	H	1.056253	-0.268872	0.050297
C108	C	1.067556	0.036584	0.331620
C109	C	1.021006	0.083088	0.390495
H110	H	1.099948	0.004246	0.362352
H111	H	1.034664	0.004460	0.296310
H112	H	1.099635	0.069511	0.296278
H113	H	0.988923	0.050161	0.425832
H114	H	1.053901	0.115216	0.425819
C115	C	1.032311	-0.024004	0.777940
C116	C	1.048999	0.055128	0.799822
H117	H	1.064688	-0.056360	0.808668
H118	H	0.978635	-0.035334	0.792794
H119	H	1.042306	-0.033984	0.717517
H120	H	1.038999	0.065109	0.860243
H121	H	1.102687	0.066463	0.784974
H122	H	1.075311	-0.601074	0.000105
C123	C	0.565046	-0.042795	0.074074
C124	C	0.545940	-0.005020	0.000104
H125	H	0.540343	-0.093265	0.074078
H126	H	0.620410	-0.048334	0.074066
H127	H	0.547331	-0.012409	0.124243
H128	H	0.563660	-0.035404	-0.050066
H129	H	0.490565	0.000515	0.000103
C130	C	0.801627	0.206518	0.580461
C131	C	0.855031	0.248944	0.528369
H132	H	0.766352	0.241782	0.611204
H133	H	0.772872	0.170274	0.545136
H134	H	0.829440	0.178735	0.620382
H135	H	0.827218	0.276723	0.488444
H136	H	0.883788	0.285203	0.563698
C137	C	0.814429	-0.378649	-0.073909
C138	C	0.811282	-0.422588	0.000061
H139	H	0.768637	-0.347710	-0.073918
H140	H	0.859700	-0.345230	-0.073898
H141	H	0.817069	-0.413213	-0.124079
H142	H	0.808647	-0.388024	0.050231
H143	H	0.765999	-0.456010	0.000057
C144	C	0.575873	0.359470	0.000052
C145	C	0.526603	0.292732	0.000071
H146	H	0.544922	0.405253	0.000044
H147	H	0.605677	0.361589	0.050222
H148	H	0.610427	0.356832	-0.050132
H149	H	0.492053	0.295367	0.050258
H150	H	0.496786	0.290613	-0.050105
H151	H	0.426857	0.076584	0.000130
C152	C	0.758283	0.249808	0.442588
C153	C	0.811687	0.292231	0.390492
H154	H	0.723005	0.285073	0.473322
H155	H	0.729533	0.213557	0.407266
H156	H	0.786096	0.222033	0.482516
H157	H	0.783874	0.320002	0.350560
H158	H	0.840441	0.328496	0.425817
H159	H	0.817974	-0.584359	0.000078
C160	C	0.774142	0.329749	0.259234
C161	C	0.820680	0.283230	0.200361
H162	H	0.741769	0.362104	0.228500
H163	H	0.742052	0.296837	0.294568
H164	H	0.807048	0.361863	0.294551
H165	H	0.787774	0.251111	0.165048
H166	H	0.852773	0.316145	0.165012
H167	H	0.781832	-0.209350	0.000063
H168	H	0.688381	0.286045	0.000058
H169	H	1.027437	-0.322844	0.000077
H170	H	1.015175	0.088882	0.213280
