data_functionalizedCrystal
_audit_creation_method	'MofGen! by Chris Wilmer'
_symmetry_space_group_name_H-M	'P1'
_symmetry_Int_Tables_number	1
_symmetry_cell_setting	triclinic
loop_
_symmetry_equiv_pos_as_xyz
  x,y,z
_cell_length_a	15.625110
_cell_length_b	14.185569
_cell_length_c	12.837942
_cell_angle_alpha	104.575716
_cell_angle_beta	89.271854
_cell_angle_gamma	59.445489
loop_
_atom_site_label
_atom_site_type_symbol
_atom_site_fract_x
_atom_site_fract_y
_atom_site_fract_z
O1	O	1.293384	-0.387135	0.026426
O2	O	1.009468	-0.283840	0.071616
O3	O	1.145132	-0.333204	-0.101248
O4	O	1.157720	-0.337771	0.199289
O5	O	1.185209	-0.514621	-0.152308
O6	O	1.049545	-0.465257	0.020555
O7	O	1.333461	-0.568552	-0.024635
Cu8	Cu	1.195162	-0.533470	-0.006702
Cu9	Cu	1.147767	-0.318923	0.053683
O10	O	1.197797	-0.519189	0.148229
C11	C	0.992914	-0.361236	0.049101
C12	C	0.883880	-0.321567	0.058074
C13	C	0.708355	-0.166772	0.098553
C14	C	0.810812	-0.204058	0.090118
C15	C	0.854511	-0.401835	0.034458
C16	C	0.752056	-0.364565	0.042894
C17	C	0.678985	-0.247032	0.074941
C18	C	0.722686	-0.444826	0.019281
C19	C	0.620239	-0.407558	0.027710
C20	C	0.547163	-0.290030	0.059753
C21	C	0.576538	-0.209764	0.083370
C22	C	0.795759	-0.562358	-0.012774
C23	C	0.766389	-0.642619	-0.036386
C24	C	0.663940	-0.605351	-0.027950
C25	C	0.590864	-0.487823	0.004093
C26	C	0.634565	-0.685617	-0.051567
C27	C	0.532118	-0.648349	-0.043137
C28	C	0.488417	-0.450556	0.012522
N29	N	1.228505	-0.684373	-0.049175
C30	C	1.016467	-0.974869	0.220887
C31	C	1.041731	-1.089084	0.188721
C32	C	1.161893	-1.132768	0.035699
C33	C	1.136636	-1.018554	0.067850
C34	C	1.063923	-0.939613	0.160445
C35	C	1.184091	-0.983297	0.007408
C36	C	1.158840	-0.869094	0.039560
C37	C	1.086132	-0.790148	0.132153
C38	C	1.038671	-0.825410	0.192597
C39	C	1.256809	-1.062242	-0.085183
C40	C	1.304265	-1.026985	-0.145625
C41	C	1.279008	-0.912779	-0.113478
C42	C	1.206301	-0.833832	-0.020884
C43	C	1.326469	-0.877517	-0.173922
C44	C	1.301217	-0.763314	-0.141770
C45	C	1.181049	-0.719629	0.011267
C46	C	1.350014	-0.491154	-0.002119
C47	C	1.459047	-0.530816	-0.011090
C48	C	1.160917	-0.422364	-0.164969
C49	C	1.148231	-0.417747	-0.278763
N50	N	1.114431	-0.168022	0.096147
C51	C	1.300732	-0.473210	-0.535126
C52	C	1.288817	-0.468873	-0.642047
C53	C	1.112484	-0.404730	-0.599527
C54	C	1.124399	-0.409066	-0.492606
C55	C	1.218527	-0.443309	-0.460410
C56	C	1.230443	-0.447653	-0.353489
C57	C	1.054109	-0.383503	-0.310969
C58	C	1.042194	-0.379166	-0.417890
C59	C	1.182012	-0.430026	0.211950
C60	C	1.194696	-0.434636	0.325747
H61	H	0.463745	-0.259689	0.066617
H62	H	1.277370	-1.155233	-0.111354
F63	F	0.939067	-0.890847	0.319431
F64	F	1.012309	-0.368262	-0.633804
F65	F	0.842064	-0.118624	0.115252
F66	F	1.330621	-0.484104	-0.319228
H67	H	1.221099	-1.197055	-0.039691
F68	F	1.376311	-0.500694	-0.721562
H69	H	0.965557	-0.351282	-0.444118
F70	F	1.103649	-0.635607	0.109811
H71	H	1.377376	-0.501102	-0.508916
F72	F	0.498764	-0.084671	0.117493
H73	H	0.987173	-0.359164	-0.250125
H74	H	0.428917	-0.354849	0.038631
H75	H	0.914019	-0.497531	0.008361
F76	F	0.630581	-0.041678	0.132676
H77	H	1.363471	-1.091272	-0.221015
H78	H	0.825896	-0.738315	-0.062483
F79	F	0.904793	-0.602020	-0.021755
F80	F	0.961271	-0.741388	0.291140
F81	F	0.712343	-0.810700	-0.085683
F82	F	0.500858	-0.733771	-0.068281
H83	H	1.065576	-0.697159	0.158333
H84	H	1.003081	-1.117780	0.237949
H85	H	1.385680	-0.941807	-0.249308
H86	H	1.339862	-0.734610	-0.190988
