data_functionalizedCrystal
_audit_creation_method	'MofGen! by Chris Wilmer'
_symmetry_space_group_name_H-M	'P1'
_symmetry_Int_Tables_number	1
_symmetry_cell_setting	triclinic
loop_
_symmetry_equiv_pos_as_xyz
  x,y,z
_cell_length_a	13.897448
_cell_length_b	13.033293
_cell_length_c	13.032268
_cell_angle_alpha	90.920818
_cell_angle_beta	82.851959
_cell_angle_gamma	97.187372
loop_
_atom_site_label
_atom_site_type_symbol
_atom_site_fract_x
_atom_site_fract_y
_atom_site_fract_z
Zn1	Zn	-0.300097	1.498462	0.781480
Zn2	Zn	-0.438715	1.520205	0.609506
Zn3	Zn	-0.295004	1.348322	0.587656
Zn4	Zn	-0.478925	1.326456	0.759546
O5	O	-0.378185	1.423361	0.684547
O6	O	-0.303789	1.645265	0.776992
O7	O	-0.400691	1.515655	0.462699
O8	O	-0.160696	1.368291	0.613402
O9	O	-0.405630	1.661239	0.650643
O10	O	-0.164438	1.478598	0.755804
O11	O	-0.295107	1.389374	0.446646
O12	O	-0.334098	1.201503	0.592134
O13	O	-0.474163	1.331022	0.906364
O14	O	-0.469224	1.185438	0.718420
O15	O	-0.342779	1.457394	0.922479
O16	O	-0.579032	1.494452	0.629374
O17	O	-0.608575	1.352105	0.739608
C18	C	-0.405472	1.156154	0.650526
C19	C	-0.417172	1.041838	0.635996
C20	C	-0.372103	0.982956	0.692130
C21	C	-0.384195	0.864805	0.677114
C22	C	-0.628803	1.423290	0.684508
C23	C	-0.736014	1.423349	0.684537
C24	C	-0.932306	1.423449	0.684616
C25	C	-0.823076	1.423390	0.684575
C26	C	-0.126589	1.423458	0.684613
C27	C	-0.019373	1.423499	0.684641
C28	C	-0.413525	1.389344	0.952779
C29	C	-0.428585	1.374847	1.067083
C30	C	-0.350792	1.691612	0.718701
C31	C	-0.339119	1.805925	0.733256
C32	C	-0.342907	1.457306	0.417367
C33	C	-0.327556	1.472001	0.303088
C34	C	-0.370293	1.430911	1.126017
C35	C	-0.385856	1.415930	1.244156
H36	H	-0.464707	1.004778	0.576820
H37	H	-0.291573	0.842979	0.792430
C38	C	-0.364846	1.086388	0.845748
C39	C	-0.307930	1.032975	0.772020
H40	H	-0.325227	1.117260	0.895073
H41	H	-0.391545	1.138634	0.812473
H42	H	-0.416358	1.039488	0.879714
H43	H	-0.256422	1.079876	0.738049
H44	H	-0.281216	0.980723	0.805299
C45	C	-0.454984	1.237569	1.255254
C46	C	-0.468788	1.336155	1.294102
H47	H	-0.506180	1.188322	1.286096
H48	H	-0.455412	1.237176	1.182425
H49	H	-0.394003	1.220345	1.270913
H50	H	-0.529767	1.353383	1.278436
H51	H	-0.468370	1.336551	1.366948
C52	C	-0.497708	1.196491	1.078186
C53	C	-0.511513	1.295076	1.117033
H54	H	-0.548904	1.147244	1.109028
H55	H	-0.498137	1.196097	1.005356
H56	H	-0.436727	1.179266	1.093844
H57	H	-0.572491	1.312304	1.101367
H58	H	-0.511094	1.295472	1.189879
C59	C	-0.223272	1.460480	1.006926
C60	C	-0.287368	1.510685	1.076066
H61	H	-0.172082	1.509734	0.976086
H62	H	-0.196428	1.410424	1.043140
H63	H	-0.257839	1.427247	0.954651
H64	H	-0.252803	1.543912	1.128346
H65	H	-0.314214	1.560760	1.039851
C66	C	-0.180514	1.501541	1.184031
C67	C	-0.244606	1.551765	1.253157
H68	H	-0.129304	1.550781	1.153205
H69	H	-0.153695	1.451470	1.220253
H70	H	-0.215075	1.468323	1.131744
H71	H	-0.210046	1.584976	1.305448
H72	H	-0.271425	1.601854	1.216934
C73	C	-0.524306	0.745683	0.647322
C74	C	-0.448378	0.814793	0.597225
H75	H	-0.563931	0.714814	0.598003
H76	H	-0.497593	0.693437	0.680582
H77	H	-0.562897	0.781935	0.697348
H78	H	-0.409782	0.778539	0.547205
H79	H	-0.475091	0.867047	0.563949
