data_functionalizedCrystal
_audit_creation_method	'MofGen! by Chris Wilmer'
_symmetry_space_group_name_H-M	'P1'
_symmetry_Int_Tables_number	1
_symmetry_cell_setting	triclinic
loop_
_symmetry_equiv_pos_as_xyz
  x,y,z
_cell_length_a	10.489746
_cell_length_b	10.489716
_cell_length_c	11.295483
_cell_angle_alpha	94.140629
_cell_angle_beta	85.855585
_cell_angle_gamma	84.535218
loop_
_atom_site_label
_atom_site_type_symbol
_atom_site_fract_x
_atom_site_fract_y
_atom_site_fract_z
O1	O	1.702540	0.171498	-0.098933
O2	O	1.331345	0.188382	-0.098952
O3	O	1.525406	-0.005660	-0.098947
O4	O	1.508480	0.365540	-0.098939
O5	O	1.508361	0.011357	0.099104
O6	O	1.314300	0.205399	0.099098
O7	O	1.685495	0.188515	0.099117
Cu8	Cu	1.498341	0.198511	0.117191
Cu9	Cu	1.518499	0.178386	-0.117026
O10	O	1.491435	0.382557	0.099111
C11	C	1.275292	0.195614	0.000070
C12	C	1.133664	0.191793	0.000063
C13	C	1.515612	-0.044684	0.000075
C14	C	1.511808	-0.186316	0.000064
C15	C	0.980816	0.066070	0.000077
C16	C	1.049800	0.137317	0.097724
C17	C	1.066561	0.120569	-0.097538
C18	C	0.950290	0.256308	0.097819
C19	C	0.967052	0.239535	-0.097530
C20	C	1.035986	0.310872	0.000141
C21	C	1.630811	-0.283986	0.000081
C22	C	1.576331	-0.369738	-0.097568
C23	C	1.559498	-0.352925	0.097694
C24	C	1.457384	-0.270209	-0.097666
C25	C	1.440562	-0.253383	0.097684
C26	C	1.385996	-0.339088	0.000011
C27	C	1.741549	0.181283	0.000092
C28	C	1.883178	0.185103	0.000092
C29	C	1.501229	0.421581	0.000087
C30	C	1.505033	0.563212	0.000091
N31	N	1.484173	0.212664	0.281927
N32	N	1.532678	0.164223	-0.281762
C33	C	1.634670	0.062266	0.531221
C34	C	1.623972	0.072971	0.655884
C35	C	1.452073	0.244772	0.655919
C36	C	1.462771	0.234067	0.531256
C37	C	1.554074	0.142813	0.468911
C38	C	1.564777	0.132115	0.344246
C39	C	1.392873	0.303909	0.344283
C40	C	1.382175	0.314614	0.468946
H41	H	1.086176	0.094161	0.180278
H42	H	1.709021	-0.012028	0.480459
O43	O	0.883553	0.332207	0.207317
H44	H	0.778194	0.328733	0.206497
O45	O	1.400311	-0.222262	-0.207148
H46	H	1.299050	-0.244749	-0.207395
H47	H	1.282410	-0.363526	-0.000047
O48	O	0.948039	-0.071007	0.000226
H49	H	0.842465	-0.072672	-0.000595
H50	H	1.117113	0.063204	-0.180093
O51	O	1.068415	0.448073	0.000207
H52	H	1.021239	0.504144	0.081346
H53	H	0.930653	0.282646	-0.180087
O54	O	1.710913	-0.013887	0.723096
H55	H	1.776204	-0.079127	0.658795
H56	H	1.734332	-0.259316	-0.000013
O57	O	1.305938	0.390783	0.277068
H58	H	1.321051	0.492438	0.300991
O59	O	1.364673	-0.186318	0.207032
H60	H	1.324761	-0.258910	0.261996
H61	H	1.633672	-0.420325	-0.180120
O62	O	1.353579	0.343172	0.723166
H63	H	1.372767	0.440726	0.699245
O64	O	1.616642	-0.401098	0.207058
H65	H	1.718190	-0.379456	0.206847
O66	O	1.663228	0.033682	0.276985
H67	H	1.760769	0.052929	0.300891
H68	H	1.307835	0.388908	0.519722
