data_functionalizedCrystal
_audit_creation_method	'MofGen! by Chris Wilmer'
_symmetry_space_group_name_H-M	'P1'
_symmetry_Int_Tables_number	1
_symmetry_cell_setting	triclinic
loop_
_symmetry_equiv_pos_as_xyz
  x,y,z
_cell_length_a	16.992694
_cell_length_b	10.489716
_cell_length_c	16.053802
_cell_angle_alpha	92.595649
_cell_angle_beta	87.249047
_cell_angle_gamma	87.598679
loop_
_atom_site_label
_atom_site_type_symbol
_atom_site_fract_x
_atom_site_fract_y
_atom_site_fract_z
O1	O	1.045179	0.265586	-0.069312
O2	O	0.816878	0.262616	-0.069337
O3	O	0.936234	0.078954	-0.069327
O4	O	0.925823	0.449248	-0.069322
O5	O	0.929664	0.089019	0.069531
O6	O	0.810308	0.272681	0.069521
O7	O	1.038609	0.275651	0.069546
Zn8	Zn	0.923416	0.275764	0.091581
Zn9	Zn	0.932072	0.262503	-0.091371
O10	O	0.919254	0.459313	0.069536
C11	C	0.784359	0.263829	0.000089
C12	C	0.697252	0.252433	0.000079
C13	C	0.647626	0.362383	0.000081
C14	C	0.565779	0.351669	0.000093
C15	C	0.533560	0.231003	0.000096
C16	C	0.583192	0.121045	0.000096
C17	C	0.665037	0.131760	0.000091
C18	C	0.289713	0.186591	0.000118
C19	C	0.207861	0.175884	0.000121
C20	C	0.190454	0.406509	0.000118
C21	C	0.272302	0.417214	0.000108
C22	C	0.321927	0.307256	0.000113
N23	N	0.449899	0.220049	0.000105
N24	N	0.405585	0.318212	0.000110
C25	C	0.932167	0.036386	0.000100
C26	C	0.929827	-0.105449	0.000092
C27	C	1.003019	-0.196754	0.000107
C28	C	0.967582	-0.282443	-0.068359
C29	C	0.961087	-0.272485	0.068544
C30	C	0.894423	-0.189273	-0.068431
C31	C	0.887936	-0.179305	0.068534
C32	C	0.852446	-0.264950	0.000051
C33	C	1.071128	0.274438	0.000118
C34	C	1.158235	0.285834	0.000123
C35	C	0.923321	0.501881	0.000108
C36	C	0.925661	0.643716	0.000110
N37	N	0.917514	0.284814	0.216440
N38	N	0.937980	0.253444	-0.216231
C39	C	0.968318	0.206697	0.260139
C40	C	0.964197	0.213040	0.347545
C41	C	0.909275	0.297508	0.391252
C42	C	0.858465	0.375628	0.347547
C43	C	0.862582	0.369277	0.260143
C44	C	0.891287	0.325213	0.652660
C45	C	0.887175	0.331560	0.740071
C46	C	0.992907	0.168970	0.740062
C47	C	0.997023	0.162633	0.652656
C48	C	0.946210	0.240748	0.608959
N49	N	0.905063	0.303997	0.480595
N50	N	0.950419	0.234251	0.519617
H51	H	0.556952	0.022797	0.000111
C52	C	0.246871	0.644102	0.000121
C53	C	0.307715	0.549854	0.000112
H54	H	0.268735	0.725988	0.000127
H55	H	0.217596	0.631620	-0.048298
H56	H	0.213025	0.638626	0.048549
H57	H	0.341557	0.555324	-0.048319
H58	H	0.337002	0.562341	0.048536
H59	H	1.066687	-0.166544	0.000045
C60	C	0.943383	-0.385927	0.194206
C61	C	0.999114	-0.321871	0.146687
H62	H	0.966866	-0.416420	0.242442
H63	H	0.899973	-0.328864	0.210658
H64	H	0.925525	-0.455954	0.161747
H65	H	1.016968	-0.251838	0.179145
H66	H	1.042538	-0.378938	0.130237
C67	C	0.779982	-0.039724	0.122418
C68	C	0.842563	-0.118511	0.146667
H69	H	0.751973	-0.002200	0.170661
H70	H	0.800086	0.025611	0.089420
H71	H	0.745439	-0.089161	0.090738
H72	H	0.877110	-0.069072	0.178342
H73	H	0.822460	-0.183855	0.179679
C74	C	0.674028	-0.097278	0.000079
C75	C	0.719589	0.010899	0.000081
H76	H	0.707708	-0.171893	0.000070
H77	H	0.639462	-0.093153	0.048502
H78	H	0.644024	-0.100160	-0.048345
H79	H	0.749589	0.013787	0.048508
H80	H	0.754169	0.006773	-0.048347
C81	C	1.127033	0.109937	0.766958
C82	C	1.048750	0.083093	0.788093
H83	H	1.161506	0.056917	0.796614
H84	H	1.137338	0.094069	0.708655
H85	H	1.135348	0.197030	0.781286
H86	H	1.040434	-0.003998	0.773760
H87	H	1.038442	0.098952	0.846410
H88	H	1.001218	-0.327445	-0.126237
H89	H	0.181632	0.077618	0.000122
C90	C	1.042898	-0.055621	0.626239
C91	C	1.057376	0.069490	0.604840
H92	H	1.080152	-0.113204	0.596782
H93	H	1.047585	-0.062708	0.684584
H94	H	0.991139	-0.075804	0.611850
H95	H	1.109132	0.089677	0.619234
H96	H	1.052696	0.076582	0.546482
H97	H	0.866284	-0.152856	-0.126378
C98	C	0.786371	0.486572	0.661460
C99	C	0.835440	0.411087	0.604636
H100	H	0.751896	0.539595	0.631808
H101	H	0.756253	0.433021	0.695557
H102	H	0.817688	0.538310	0.695544
H103	H	0.804124	0.359342	0.570556
H104	H	0.865561	0.464644	0.570525
C105	C	0.732925	0.503056	-0.071315
C106	C	0.683036	0.495025	0.000073
H107	H	0.754778	0.584950	-0.071319
H108	H	0.774193	0.439120	-0.071311
H109	H	0.703632	0.490565	-0.119728
H110	H	0.712330	0.507508	0.048487
H111	H	0.641761	0.558980	0.000077
H112	H	0.842448	0.400349	0.775653
H113	H	0.813741	0.444399	0.383138
C114	C	0.757666	0.530639	0.268924
C115	C	0.806740	0.455152	0.212106
H116	H	0.723192	0.583658	0.239268
H117	H	0.727546	0.477089	0.303021
H118	H	0.788979	0.582381	0.303010
H119	H	0.775426	0.403403	0.178025
H120	H	0.836862	0.508708	0.177995
H121	H	0.788735	-0.294927	0.000007
H122	H	0.150041	0.496030	0.000116
C123	C	0.556795	0.580703	0.000078
C124	C	0.511231	0.472530	0.000091
H125	H	0.523118	0.655319	0.000074
H126	H	0.586796	0.583600	0.048495
H127	H	0.591364	0.576559	-0.048351
H128	H	0.476665	0.476669	0.048524
H129	H	0.481216	0.469633	-0.048330
C130	C	1.014400	-0.011465	0.233283
C131	C	1.028688	0.113816	0.212121
H132	H	1.051667	-0.068816	0.203643
H133	H	1.019207	-0.018823	0.291589
H134	H	0.962638	-0.031726	0.218954
H135	H	1.080449	0.134080	0.226456
H136	H	1.023888	0.121179	0.153802
C137	C	0.298686	-0.042444	0.000114
C138	C	0.344253	0.065726	0.000116
H139	H	0.332361	-0.117064	0.000109
H140	H	0.264117	-0.038312	0.048535
H141	H	0.268685	-0.045325	-0.048312
H142	H	0.374250	0.068612	0.048546
H143	H	0.378835	0.061592	-0.048309
C144	C	0.975643	0.048228	0.445834
C145	C	1.020050	0.127172	0.395572
H146	H	1.010128	-0.004791	0.475476
H147	H	0.942353	0.099433	0.484373
H148	H	0.944343	-0.003513	0.411733
H149	H	1.051346	0.178920	0.429673
H150	H	1.053354	0.075962	0.357028
