data_functionalizedCrystal
_audit_creation_method	'MofGen! by Chris Wilmer'
_symmetry_space_group_name_H-M	'P1'
_symmetry_Int_Tables_number	1
_symmetry_cell_setting	triclinic
loop_
_symmetry_equiv_pos_as_xyz
  x,y,z
_cell_length_a	25.639239
_cell_length_b	19.121246
_cell_length_c	19.120904
_cell_angle_alpha	90.125749
_cell_angle_beta	92.410104
_cell_angle_gamma	87.528032
loop_
_atom_site_label
_atom_site_type_symbol
_atom_site_fract_x
_atom_site_fract_y
_atom_site_fract_z
Zn1	Zn	-0.188790	-1.054808	-0.442205
Zn2	Zn	0.061210	-0.804808	-0.192205
Zn3	Zn	0.311210	-0.554808	0.057795
Zn4	Zn	0.561210	-0.304808	0.307795
Zn5	Zn	-0.272346	-1.059701	-0.324962
Zn6	Zn	-0.022346	-0.809701	-0.074962
Zn7	Zn	0.227654	-0.559701	0.175038
Zn8	Zn	0.477654	-0.309701	0.425038
Zn9	Zn	-0.188478	-0.942574	-0.319972
Zn10	Zn	0.061522	-0.692574	-0.069972
Zn11	Zn	0.311522	-0.442574	0.180028
Zn12	Zn	0.561522	-0.192574	0.430028
Zn13	Zn	-0.279751	-0.937508	-0.437146
Zn14	Zn	-0.029751	-0.687508	-0.187146
Zn15	Zn	0.220249	-0.437508	0.062854
Zn16	Zn	0.470249	-0.187508	0.312854
O17	O	-0.232341	-0.998648	-0.381071
O18	O	0.017659	-0.748648	-0.131071
O19	O	0.267659	-0.498648	0.118929
O20	O	0.517659	-0.248648	0.368929
O21	O	-0.196905	-1.153565	-0.430858
O22	O	0.053095	-0.903565	-0.180858
O23	O	0.303095	-0.653565	0.069142
O24	O	0.553095	-0.403565	0.319142
O25	O	-0.257991	-1.048332	-0.226196
O26	O	-0.007991	-0.798332	0.023804
O27	O	0.242009	-0.548332	0.273804
O28	O	0.492009	-0.298332	0.523804
O29	O	-0.115353	-0.957535	-0.336215
O30	O	0.134647	-0.707535	-0.086215
O31	O	0.384647	-0.457535	0.163785
O32	O	0.634647	-0.207535	0.413785
O33	O	-0.258293	-1.157160	-0.344720
O34	O	-0.008293	-0.907160	-0.094720
O35	O	0.241707	-0.657160	0.155280
O36	O	0.491707	-0.407160	0.405280
O37	O	-0.115582	-1.039992	-0.426019
O38	O	0.134418	-0.789992	-0.176019
O39	O	0.384418	-0.539992	0.073981
O40	O	0.634418	-0.289992	0.323981
O41	O	-0.196374	-0.962280	-0.222530
O42	O	0.053626	-0.712280	0.027470
O43	O	0.303626	-0.462280	0.277470
O44	O	0.553626	-0.212280	0.527470
O45	O	-0.203555	-0.843794	-0.331309
O46	O	0.046445	-0.593794	-0.081309
O47	O	0.296445	-0.343794	0.168691
O48	O	0.546445	-0.093794	0.418691
O49	O	-0.270915	-0.948899	-0.535921
O50	O	-0.020915	-0.698899	-0.285921
O51	O	0.229085	-0.448899	-0.035921
O52	O	0.479085	-0.198899	0.214079
O53	O	-0.270613	-0.840071	-0.417397
O54	O	-0.020613	-0.590071	-0.167397
O55	O	0.229387	-0.340071	0.082603
O56	O	0.479387	-0.090071	0.332603
O57	O	-0.204086	-1.035079	-0.539638
O58	O	0.045914	-0.785079	-0.289638
O59	O	0.295914	-0.535079	-0.039638
O60	O	0.545914	-0.285079	0.210362
O61	O	-0.346495	-1.043419	-0.339815
O62	O	-0.096495	-0.793419	-0.089815
O63	O	0.153505	-0.543419	0.160185
O64	O	0.403505	-0.293419	0.410185
O65	O	-0.351936	-0.953644	-0.422236
O66	O	-0.101936	-0.703644	-0.172236
O67	O	0.148064	-0.453644	0.077764
O68	O	0.398064	-0.203644	0.327764
C69	C	-0.237854	-0.816494	-0.373263
C70	C	0.012146	-0.566494	-0.123263
C71	C	0.262146	-0.316494	0.126737
C72	C	0.512146	-0.066494	0.376737
C73	C	-0.240225	-0.738567	-0.369939
C74	C	0.009775	-0.488567	-0.119939
C75	C	0.259775	-0.238567	0.130061
C76	C	0.509775	0.011433	0.380061
C77	C	-0.209433	-0.700083	-0.413293
C78	C	0.040567	-0.450083	-0.163293
C79	C	0.290567	-0.200083	0.086707
C80	C	0.540567	0.049917	0.336707
C81	C	-0.211659	-0.626863	-0.410164
C82	C	0.038341	-0.376863	-0.160164
C83	C	0.288341	-0.126863	0.089836
C84	C	0.538341	0.123137	0.339836
C85	C	-0.244679	-0.592128	-0.363684
C86	C	0.005321	-0.342128	-0.113684
C87	C	0.255321	-0.092128	0.136316
C88	C	0.505321	0.157872	0.386316
C89	C	-0.275473	-0.630618	-0.320325
C90	C	-0.025473	-0.380618	-0.070325
C91	C	0.224527	-0.130618	0.179675
C92	C	0.474527	0.119382	0.429675
C93	C	-0.273244	-0.703837	-0.323451
C94	C	-0.023244	-0.453837	-0.073451
C95	C	0.226756	-0.203837	0.176549
C96	C	0.476756	0.046163	0.426549
C97	C	-0.253002	-0.371148	-0.351996
C98	C	-0.003002	-0.121148	-0.101996
C99	C	0.246998	0.128852	0.148004
C100	C	0.496998	0.378852	0.398004
C101	C	-0.255229	-0.297924	-0.348874
C102	C	-0.005229	-0.047924	-0.098874
C103	C	0.244771	0.202076	0.151126
C104	C	0.494771	0.452076	0.401126
C105	C	-0.191414	-0.294174	-0.438713
C106	C	0.058586	-0.044174	-0.188713
C107	C	0.308586	0.205826	0.061287
C108	C	0.558586	0.455826	0.311287
C109	C	-0.189191	-0.367394	-0.441838
C110	C	0.060809	-0.117394	-0.191838
C111	C	0.310809	0.132606	0.058162
C112	C	0.560809	0.382606	0.308162
C113	C	-0.219982	-0.405878	-0.398476
C114	C	0.030018	-0.155878	-0.148476
C115	C	0.280018	0.094122	0.101524
C116	C	0.530018	0.344122	0.351524
C117	C	-0.246956	-0.517285	-0.360486
C118	C	0.003044	-0.267285	-0.110486
C119	C	0.253044	-0.017285	0.139514
C120	C	0.503044	0.232715	0.389514
C121	C	-0.217702	-0.480719	-0.401671
C122	C	0.032298	-0.230719	-0.151671
C123	C	0.282298	0.019281	0.098329
C124	C	0.532298	0.269281	0.348329
C125	C	-0.368186	-0.998531	-0.381034
C126	C	-0.118186	-0.748531	-0.131034
C127	C	0.131814	-0.498531	0.118966
C128	C	0.381814	-0.248531	0.368966
C129	C	-0.426300	-0.998544	-0.381044
C130	C	-0.176300	-0.748544	-0.131044
C131	C	0.073700	-0.498544	0.118956
C132	C	0.323700	-0.248544	0.368956
C133	C	-0.783814	-1.045507	-0.338236
C134	C	-0.533814	-0.795507	-0.088236
C135	C	-0.283814	-0.545507	0.161764
C136	C	-0.033814	-0.295507	0.411764
C137	C	-0.838418	-1.045534	-0.338247
C138	C	-0.588418	-0.795534	-0.088247
C139	C	-0.338418	-0.545534	0.161753
C140	C	-0.088418	-0.295534	0.411753
O141	O	-0.864235	-1.085343	-0.301809
O142	O	-0.614235	-0.835343	-0.051809
O143	O	-0.364235	-0.585343	0.198191
O144	O	-0.114235	-0.335343	0.448191
N145	N	-0.868578	-0.998769	-0.381123
N146	N	-0.618578	-0.748769	-0.131123
N147	N	-0.368578	-0.498769	0.118877
N148	N	-0.118578	-0.248769	0.368877
C149	C	-0.844132	-0.951979	-0.423997
C150	C	-0.594132	-0.701979	-0.173997
C151	C	-0.344132	-0.451979	0.076003
C152	C	-0.094132	-0.201979	0.326003
O153	O	-0.874799	-0.912204	-0.460468
O154	O	-0.624799	-0.662204	-0.210468
O155	O	-0.374799	-0.412204	0.039532
O156	O	-0.124799	-0.162204	0.289532
C157	C	-0.789529	-0.951956	-0.423989
C158	C	-0.539529	-0.701956	-0.173989
C159	C	-0.289529	-0.451956	0.076011
C160	C	-0.039529	-0.201956	0.326011
C161	C	-0.759371	-0.998719	-0.381105
C162	C	-0.509371	-0.748719	-0.131105
C163	C	-0.259371	-0.498719	0.118895
C164	C	-0.009371	-0.248719	0.368895
C165	C	-0.753657	-1.092267	-0.295356
C166	C	-0.503657	-0.842267	-0.045356
C167	C	-0.253657	-0.592267	0.204644
C168	C	-0.003657	-0.342267	0.454644
C169	C	-0.699057	-1.092239	-0.295344
C170	C	-0.449057	-0.842239	-0.045344
C171	C	-0.199057	-0.592239	0.204656
C172	C	0.050943	-0.342239	0.454656
C173	C	-0.674614	-1.045452	-0.338213
C174	C	-0.424614	-0.795452	-0.088213
C175	C	-0.174614	-0.545452	0.161787
C176	C	0.075386	-0.295452	0.411787
C177	C	-0.704771	-0.998692	-0.381094
C178	C	-0.454771	-0.748692	-0.131094
C179	C	-0.204771	-0.498692	0.118906
C180	C	0.045229	-0.248692	0.368906
C181	C	-0.765084	-0.905170	-0.466866
C182	C	-0.515084	-0.655170	-0.216866
C183	C	-0.265084	-0.405170	0.033134
C184	C	-0.015084	-0.155170	0.283134
C185	C	-0.710477	-0.905151	-0.466856
C186	C	-0.460477	-0.655151	-0.216856
C187	C	-0.210477	-0.405151	0.033144
C188	C	0.039523	-0.155151	0.283144
C189	C	-0.680319	-0.951915	-0.423971
C190	C	-0.430319	-0.701915	-0.173971
C191	C	-0.180319	-0.451915	0.076029
C192	C	0.069681	-0.201915	0.326029
C193	C	-0.625729	-0.951876	-0.423951
C194	C	-0.375729	-0.701876	-0.173951
C195	C	-0.125729	-0.451876	0.076049
C196	C	0.124271	-0.201876	0.326049
N197	N	-0.595569	-0.998641	-0.381075
N198	N	-0.345569	-0.748641	-0.131075
N199	N	-0.095569	-0.498641	0.118925
N200	N	0.154431	-0.248641	0.368925
C201	C	-0.620011	-1.045429	-0.338206
C202	C	-0.370011	-0.795429	-0.088206
C203	C	-0.120011	-0.545429	0.161794
C204	C	0.129989	-0.295429	0.411794
C205	C	-0.958801	-0.952031	-0.424010
C206	C	-0.708801	-0.702031	-0.174010
C207	C	-0.458801	-0.452031	0.075990
C208	C	-0.208801	-0.202031	0.325990
C209	C	-1.013403	-0.952050	-0.424014
C210	C	-0.763403	-0.702050	-0.174014
C211	C	-0.513403	-0.452050	0.075986
C212	C	-0.263403	-0.202050	0.325986
C213	C	-1.007685	-1.045606	-0.338265
C214	C	-0.757685	-0.795606	-0.088265
C215	C	-0.507685	-0.545606	0.161735
C216	C	-0.257685	-0.295606	0.411735
C217	C	-0.953083	-1.045584	-0.338257
C218	C	-0.703083	-0.795584	-0.088257
C219	C	-0.453083	-0.545584	0.161743
C220	C	-0.203083	-0.295584	0.411743
C221	C	-0.928641	-0.998796	-0.381133
C222	C	-0.678641	-0.748796	-0.131133
C223	C	-0.428641	-0.498796	0.118867
C224	C	-0.178641	-0.248796	0.368867
C225	C	-0.505348	-1.045366	-0.338185
C226	C	-0.255348	-0.795366	-0.088185
C227	C	-0.005348	-0.545366	0.161815
C228	C	0.244652	-0.295366	0.411815
C229	C	-0.450743	-1.045332	-0.338175
C230	C	-0.200743	-0.795332	-0.088175
C231	C	0.049257	-0.545332	0.161825
C232	C	0.299257	-0.295332	0.411825
C233	C	-0.456465	-0.951779	-0.423927
C234	C	-0.206465	-0.701779	-0.173927
C235	C	0.043535	-0.451779	0.076073
C236	C	0.293535	-0.201779	0.326073
C237	C	-0.511065	-0.951810	-0.423934
C238	C	-0.261065	-0.701810	-0.173934
C239	C	-0.011065	-0.451810	0.076066
C240	C	0.238935	-0.201810	0.326066
C241	C	-0.535505	-0.998610	-0.381061
C242	C	-0.285505	-0.748610	-0.131061
C243	C	-0.035505	-0.498610	0.118939
C244	C	0.214495	-0.248610	0.368939
O245	O	-0.599876	-0.912089	-0.460372
O246	O	-0.349876	-0.662089	-0.210372
O247	O	-0.099876	-0.412089	0.039628
O248	O	0.150124	-0.162089	0.289628
O249	O	-0.589338	-1.085203	-0.301748
O250	O	-0.339338	-0.835203	-0.051748
O251	O	-0.089338	-0.585203	0.198252
O252	O	0.160662	-0.335203	0.448252
C253	C	-0.095966	-0.998783	-0.381125
C254	C	0.154034	-0.748783	-0.131125
C255	C	0.404034	-0.498783	0.118875
C256	C	0.654034	-0.248783	0.368875
C257	C	-0.037850	-0.998841	-0.381147
C258	C	0.212150	-0.748841	-0.131147
C259	C	0.462150	-0.498841	0.118853
C260	C	0.712150	-0.248841	0.368853
C261	C	-0.238361	-0.990878	-0.563928
C262	C	0.011639	-0.740878	-0.313928
C263	C	0.261639	-0.490878	-0.063928
C264	C	0.511639	-0.240878	0.186072
C265	C	-0.240927	-0.987567	-0.641850
C266	C	0.009073	-0.737567	-0.391850
C267	C	0.259073	-0.487567	-0.141850
C268	C	0.509073	-0.237567	0.108150
C269	C	-0.226805	-0.181513	-0.388904
C270	C	0.023195	0.068487	-0.138904
C271	C	0.273195	0.318487	0.111096
C272	C	0.523195	0.568487	0.361096
C273	C	-0.224437	-0.259439	-0.392229
C274	C	0.025563	-0.009439	-0.142229
C275	C	0.275563	0.240561	0.107771
C276	C	0.525563	0.490561	0.357771
C277	C	-0.207339	-1.030879	-0.680395
C278	C	0.042661	-0.780879	-0.430395
C279	C	0.292661	-0.530879	-0.180395
C280	C	0.542661	-0.280879	0.069605
C281	C	-0.209748	-1.027759	-0.753611
C282	C	0.040252	-0.777759	-0.503611
C283	C	0.290252	-0.527759	-0.253611
C284	C	0.540252	-0.277759	-0.003611
C285	C	-0.245747	-0.981332	-0.788282
C286	C	0.004253	-0.731332	-0.538282
C287	C	0.254253	-0.481332	-0.288282
C288	C	0.504253	-0.231332	-0.038282
C289	C	-0.279336	-0.938015	-0.749732
C290	C	-0.029336	-0.688015	-0.499732
C291	C	0.220664	-0.438015	-0.249732
C292	C	0.470664	-0.188015	0.000268
C293	C	-0.276924	-0.941132	-0.676517
C294	C	-0.026924	-0.691132	-0.426517
C295	C	0.223076	-0.441132	-0.176517
C296	C	0.473076	-0.191132	0.073483
C297	C	-0.254766	-0.969674	-1.009246
C298	C	-0.004766	-0.719674	-0.759246
C299	C	0.245234	-0.469674	-0.509246
C300	C	0.495234	-0.219674	-0.259246
C301	C	-0.257177	-0.966562	-1.082467
C302	C	-0.007177	-0.716562	-0.832467
C303	C	0.242823	-0.466562	-0.582467
C304	C	0.492823	-0.216562	-0.332467
C305	C	-0.187588	-1.056306	-1.086341
C306	C	0.062412	-0.806306	-0.836341
C307	C	0.312412	-0.556306	-0.586341
C308	C	0.562412	-0.306306	-0.336341
C309	C	-0.185181	-1.059421	-1.013124
C310	C	0.064819	-0.809421	-0.763124
C311	C	0.314819	-0.559421	-0.513124
C312	C	0.564819	-0.309421	-0.263124
C313	C	-0.218768	-1.016103	-0.974581
C314	C	0.031232	-0.766103	-0.724581
C315	C	0.281232	-0.516103	-0.474581
C316	C	0.531232	-0.266103	-0.224581
C317	C	-0.248211	-0.978143	-0.863120
C318	C	0.001789	-0.728143	-0.613120
C319	C	0.251789	-0.478143	-0.363120
C320	C	0.501789	-0.228143	-0.113120
C321	C	-0.216301	-1.019288	-0.899743
C322	C	0.033699	-0.769288	-0.649743
C323	C	0.283699	-0.519288	-0.399743
C324	C	0.533699	-0.269288	-0.149743
C325	C	-0.226306	-1.006427	-0.198928
C326	C	0.023694	-0.756427	0.051072
C327	C	0.273694	-0.506427	0.301072
C328	C	0.523694	-0.256427	0.551072
C329	C	-0.223589	-1.009874	-0.121011
C330	C	0.026411	-0.759874	0.128989
C331	C	0.276411	-0.509874	0.378989
C332	C	0.526411	-0.259874	0.628989
H333	H	-0.162304	-0.395670	-0.479689
H334	H	0.087696	-0.145670	-0.229689
H335	H	0.337696	0.104330	0.020311
H336	H	0.587696	0.354330	0.270311
H337	H	-0.308645	-0.900210	-0.777966
H338	H	-0.058645	-0.650210	-0.527966
H339	H	0.191355	-0.400210	-0.277966
H340	H	0.441355	-0.150210	-0.027966
F341	F	-0.290513	-0.923570	-0.968235
F342	F	-0.040513	-0.673570	-0.718235
F343	F	0.209487	-0.423570	-0.468235
F344	F	0.459487	-0.173570	-0.218235
F345	F	-0.295491	-0.917142	-1.119364
F346	F	-0.045491	-0.667142	-0.869364
F347	F	0.204509	-0.417142	-0.619364
F348	F	0.454509	-0.167142	-0.369364
F349	F	-0.543162	-0.902027	-0.469563
F350	F	-0.293162	-0.652027	-0.219563
F351	F	-0.043162	-0.402027	0.030437
F352	F	0.206838	-0.152027	0.280437
F353	F	-0.151843	-1.102404	-1.127366
F354	F	0.098157	-0.852404	-0.877366
F355	F	0.348157	-0.602404	-0.627366
F356	F	0.598157	-0.352404	-0.377366
F357	F	-0.178886	-0.585908	-0.456310
F358	F	0.071114	-0.335908	-0.206310
F359	F	0.321114	-0.085908	0.043690
F360	F	0.571114	0.164092	0.293690
F361	F	-0.174290	-0.737044	-0.462768
F362	F	0.075710	-0.487044	-0.212768
F363	F	0.325710	-0.237044	0.037232
F364	F	0.575710	0.012956	0.287232
F365	F	-0.430442	-0.901988	-0.469551
F366	F	-0.180442	-0.651988	-0.219551
F367	F	0.069558	-0.401988	0.030449
F368	F	0.319558	-0.151988	0.280449
F369	F	-0.158646	-0.253212	-0.484857
F370	F	0.091354	-0.003212	-0.234857
F371	F	0.341354	0.246788	0.015143
F372	F	0.591354	0.496788	0.265143
F373	F	-0.779662	-1.142071	-0.249726
F374	F	-0.529662	-0.892071	0.000274
F375	F	-0.279662	-0.642071	0.250274
F376	F	-0.029662	-0.392071	0.500274
H377	H	-0.178026	-1.068688	-0.652171
H378	H	0.071974	-0.818688	-0.402171
H379	H	0.321974	-0.568688	-0.152171
H380	H	0.571974	-0.318688	0.097829
H381	H	-0.282121	-0.269645	-0.311024
H382	H	-0.032121	-0.019645	-0.061024
H383	H	0.217879	0.230355	0.188976
H384	H	0.467879	0.480355	0.438976
F385	F	-0.285764	-0.412096	-0.305834
F386	F	-0.035764	-0.162096	-0.055834
F387	F	0.214236	0.087904	0.194166
F388	F	0.464236	0.337904	0.444166
H389	H	-0.938904	-0.913926	-0.458922
H390	H	-0.688904	-0.663926	-0.208922
H391	H	-0.438904	-0.413926	0.041078
H392	H	-0.188904	-0.163926	0.291078
H393	H	-0.302356	-0.602331	-0.282477
H394	H	-0.052356	-0.352331	-0.032477
H395	H	0.197644	-0.102331	0.217523
H396	H	0.447644	0.147669	0.467523
H397	H	-0.298318	-0.735170	-0.288147
H398	H	-0.048318	-0.485170	-0.038147
H399	H	0.201682	-0.235170	0.211853
H400	H	0.451682	0.014830	0.461853
H401	H	-0.426190	-1.083413	-0.303251
H402	H	-0.176190	-0.833413	-0.053251
H403	H	0.073810	-0.583413	0.196749
H404	H	0.323810	-0.333413	0.446749
H405	H	-0.304270	-0.905856	-0.645134
H406	H	-0.054270	-0.655856	-0.395134
H407	H	0.195730	-0.405856	-0.145134
H408	H	0.445730	-0.155856	0.104866
H409	H	-0.190815	-0.509004	-0.439512
H410	H	0.059185	-0.259004	-0.189512
H411	H	0.309185	-0.009004	0.060488
H412	H	0.559185	0.240996	0.310488
F413	F	-0.282099	-0.480312	-0.311021
F414	F	-0.032099	-0.230312	-0.061021
F415	F	0.217901	0.019688	0.188979
F416	F	0.467901	0.269688	0.438979
H417	H	-0.789629	-0.867087	-0.501784
H418	H	-0.539629	-0.617087	-0.251784
H419	H	-0.289629	-0.367087	-0.001784
H420	H	-0.039629	-0.117087	0.248216
H421	H	-0.525240	-1.083476	-0.303275
H422	H	-0.275240	-0.833476	-0.053275
H423	H	-0.025240	-0.583476	0.196725
H424	H	0.224760	-0.333476	0.446725
F425	F	-1.033709	-1.095402	-0.292638
F426	F	-0.783709	-0.845402	-0.042638
F427	F	-0.533709	-0.595402	0.207362
F428	F	-0.283709	-0.345402	0.457362
H429	H	-0.674506	-1.130320	-0.260427
H430	H	-0.424506	-0.880320	-0.010427
H431	H	-0.174506	-0.630320	0.239573
H432	H	0.075494	-0.380320	0.489573
F433	F	-0.920992	-1.095355	-0.292615
F434	F	-0.670992	-0.845355	-0.042615
F435	F	-0.420992	-0.595355	0.207385
F436	F	-0.170992	-0.345355	0.457385
F437	F	-0.174016	-1.073882	-0.794631
F438	F	0.075984	-0.823882	-0.544631
F439	F	0.325984	-0.573882	-0.294631
F440	F	0.575984	-0.323882	-0.044631
H441	H	-0.186989	-1.057086	-0.871511
H442	H	0.063011	-0.807086	-0.621511
H443	H	0.313011	-0.557086	-0.371511
H444	H	0.563011	-0.307086	-0.121511
H445	H	-0.690579	-0.867052	-0.501773
H446	H	-0.440579	-0.617052	-0.251773
H447	H	-0.190579	-0.367052	-0.001773
H448	H	0.059421	-0.117052	0.248227
F449	F	-0.286524	-0.928735	-0.900026
F450	F	-0.036524	-0.678735	-0.650026
F451	F	0.213476	-0.428735	-0.400026
F452	F	0.463476	-0.178735	-0.150026
H453	H	-1.037953	-0.913964	-0.458928
H454	H	-0.787953	-0.663964	-0.208928
H455	H	-0.537953	-0.413964	0.041072
H456	H	-0.287953	-0.163964	0.291072
H457	H	-0.155868	-1.097230	-0.984901
H458	H	0.094132	-0.847230	-0.734901
H459	H	0.344132	-0.597230	-0.484901
H460	H	0.594132	-0.347230	-0.234901
