data_functionalizedCrystal
_audit_creation_method	'MofGen! by Chris Wilmer'
_symmetry_space_group_name_H-M	'P1'
_symmetry_Int_Tables_number	1
_symmetry_cell_setting	triclinic
loop_
_symmetry_equiv_pos_as_xyz
  x,y,z
_cell_length_a	25.639243
_cell_length_b	25.639234
_cell_length_c	16.120444
_cell_angle_alpha	92.875700
_cell_angle_beta	92.929446
_cell_angle_gamma	89.976852
loop_
_atom_site_label
_atom_site_type_symbol
_atom_site_fract_x
_atom_site_fract_y
_atom_site_fract_z
Zn1	Zn	0.788752	-0.306211	-0.331902
Zn2	Zn	0.784250	-0.223209	-0.471312
Zn3	Zn	0.701317	-0.218786	-0.331922
Zn4	Zn	0.696860	-0.310608	-0.471284
O5	O	0.742795	-0.264704	-0.401605
O6	O	0.861320	-0.295212	-0.350398
O7	O	0.773230	-0.149458	-0.452842
O8	O	0.716665	-0.226691	-0.215252
O9	O	0.858012	-0.234231	-0.452822
O10	O	0.780903	-0.290923	-0.215237
O11	O	0.712299	-0.146208	-0.350433
O12	O	0.627560	-0.230954	-0.350405
O13	O	0.709068	-0.383189	-0.452774
O14	O	0.624286	-0.298416	-0.452794
O15	O	0.776581	-0.379959	-0.350370
O16	O	0.768908	-0.238494	-0.587976
O17	O	0.704703	-0.302706	-0.587955
C18	C	0.606952	-0.264683	-0.401599
C19	C	0.548838	-0.264687	-0.401617
C20	C	0.190189	-0.296515	-0.348356
C21	C	0.135585	-0.296518	-0.348356
O22	O	0.108806	-0.323553	-0.303056
N23	N	0.106556	-0.264718	-0.401602
C24	C	0.132134	-0.232908	-0.454847
O25	O	0.102428	-0.205860	-0.500137
C26	C	0.186737	-0.232903	-0.454843
C27	C	0.215763	-0.264709	-0.401599
C28	C	0.219215	-0.328318	-0.295116
C29	C	0.273816	-0.328315	-0.295118
C30	C	0.299390	-0.296510	-0.348360
C31	C	0.270364	-0.264706	-0.401601
C32	C	0.212314	-0.201091	-0.508083
C33	C	0.266922	-0.201088	-0.508074
C34	C	0.295948	-0.232894	-0.454830
C35	C	0.350539	-0.232898	-0.454846
N36	N	0.379568	-0.264698	-0.401599
C37	C	0.353993	-0.296504	-0.348356
C38	C	0.017463	-0.232922	-0.454851
C39	C	-0.037140	-0.232930	-0.454860
C40	C	-0.033685	-0.296539	-0.348367
C41	C	0.020919	-0.296533	-0.348363
C42	C	0.046492	-0.264722	-0.401604
C43	C	0.468658	-0.296496	-0.348365
C44	C	0.523263	-0.296493	-0.348374
C45	C	0.519804	-0.232882	-0.454864
C46	C	0.465203	-0.232887	-0.454858
C47	C	0.439632	-0.264696	-0.401602
O48	O	0.377353	-0.205875	-0.500120
O49	O	0.383706	-0.323543	-0.303066
C50	C	0.742830	-0.401075	-0.401567
C51	C	0.742845	-0.459189	-0.401551
C52	C	0.711136	-0.817862	-0.348127
C53	C	0.711139	-0.872466	-0.348112
O54	O	0.684150	-0.899269	-0.302781
N55	N	0.742866	-0.901467	-0.401420
C56	C	0.774588	-0.875863	-0.454753
O57	O	0.801574	-0.905545	-0.500095
C58	C	0.774582	-0.821260	-0.454771
C59	C	0.742857	-0.792261	-0.401454
C60	C	0.679413	-0.788863	-0.294814
C61	C	0.679411	-0.734263	-0.294828
C62	C	0.711131	-0.708662	-0.348155
C63	C	0.742854	-0.737661	-0.401468
C64	C	0.806300	-0.795656	-0.508108
C65	C	0.806291	-0.741049	-0.508122
C66	C	0.774566	-0.712050	-0.454804
C67	C	0.774572	-0.657459	-0.454809
N68	N	0.742845	-0.628458	-0.401501
C69	C	0.711125	-0.654059	-0.348174
C70	C	0.774599	-0.990532	-0.454710
C71	C	0.774608	-1.045133	-0.454688
C72	C	0.711158	-1.041733	-0.348048
C73	C	0.711152	-0.987130	-0.348067
C74	C	0.742872	-0.961530	-0.401402
C75	C	0.711122	-0.539395	-0.348207
C76	C	0.711124	-0.484790	-0.348224
C77	C	0.774572	-0.488195	-0.454867
C78	C	0.774572	-0.542795	-0.454847
C79	C	0.742843	-0.568394	-0.401515
O80	O	0.801546	-0.630621	-0.500119
O81	O	0.684138	-0.624371	-0.302847
C82	C	0.879167	-0.264725	-0.401611
C83	C	0.937281	-0.264734	-0.401614
C84	C	0.735847	-0.271569	-0.618216
C85	C	0.732923	-0.274523	-0.710883
C86	C	0.742792	-0.128860	-0.401583
C87	C	0.742885	-0.070740	-0.401364
C88	C	0.758092	-0.249490	-0.921817
C89	C	0.727594	-0.279922	-0.880541
C90	C	0.730560	-0.276917	-0.786134
C91	C	0.755127	-0.252495	-1.016233
C92	C	0.749783	-0.257823	-0.184148
C93	C	0.752761	-0.254891	-0.091481
H94	H	0.540636	-0.206987	-0.498214
Cl95	Cl	0.814465	-0.579252	-0.521862
H96	H	0.800435	-0.969692	-0.498138
Cl97	Cl	0.428712	-0.192918	-0.521819
Cl98	Cl	0.671239	-0.448338	-0.281189
Cl99	Cl	0.846181	-0.832099	-0.575147
Cl100	Cl	0.671238	-0.571567	-0.281154
Cl101	Cl	0.846168	-0.708870	-0.575179
H102	H	0.800399	-0.467341	-0.498281
H103	H	0.699256	-0.308233	-0.916105
H104	H	0.447845	-0.322397	-0.304996
H105	H	0.287741	-0.175182	-0.551430
Cl106	Cl	0.559750	-0.336482	-0.281435
Cl107	Cl	0.310298	-0.368300	-0.228175
H108	H	0.198399	-0.354218	-0.251754
H109	H	0.786428	-0.221181	-0.886258
Cl110	Cl	0.057403	-0.336518	-0.281422
Cl111	Cl	0.639524	-0.821038	-0.227775
H112	H	-0.054517	-0.322436	-0.305011
Cl113	Cl	-0.073623	-0.192948	-0.521807
H114	H	0.038281	-0.207019	-0.498214
H115	H	0.188690	-0.175190	-0.551440
H116	H	0.653575	-0.710657	-0.251415
Cl117	Cl	0.671266	-0.950680	-0.281038
H118	H	0.685330	-1.062588	-0.304627
H119	H	0.800448	-1.068740	-0.498095
