data_functionalizedCrystal
_audit_creation_method	'MofGen! by Chris Wilmer'
_symmetry_space_group_name_H-M	'P1'
_symmetry_Int_Tables_number	1
_symmetry_cell_setting	triclinic
loop_
_symmetry_equiv_pos_as_xyz
  x,y,z
_cell_length_a	14.908520
_cell_length_b	14.908571
_cell_length_c	14.908308
_cell_angle_alpha	90.175053
_cell_angle_beta	96.360765
_cell_angle_gamma	90.205961
loop_
_atom_site_label
_atom_site_type_symbol
_atom_site_fract_x
_atom_site_fract_y
_atom_site_fract_z
Zn1	Zn	-0.470613	1.316651	-0.613065
Zn2	Zn	0.029387	1.816651	-0.113065
Zn3	Zn	-0.613252	1.316549	-0.470429
Zn4	Zn	-0.113252	1.816549	0.029571
Zn5	Zn	-0.453291	1.176020	-0.453125
Zn6	Zn	0.046709	1.676020	0.046875
Zn7	Zn	-0.612180	1.157642	-0.612023
Zn8	Zn	-0.112180	1.657642	-0.112023
O9	O	-0.537334	1.241715	-0.537161
O10	O	-0.037334	1.741715	-0.037161
O11	O	-0.497231	1.441995	-0.601822
O12	O	0.002769	1.941995	-0.101822
O13	O	-0.585232	1.305556	-0.341941
O14	O	-0.085232	1.805556	0.158059
O15	O	-0.329399	1.202409	-0.467536
O16	O	0.170601	1.702409	0.032464
O17	O	-0.602028	1.441920	-0.497029
O18	O	-0.102028	1.941920	0.002971
O19	O	-0.342124	1.305730	-0.585043
O20	O	0.157876	1.805730	-0.085043
O21	O	-0.467710	1.202310	-0.329228
O22	O	0.032290	1.702310	0.170772
O23	O	-0.466671	1.048225	-0.466525
O24	O	0.033329	1.548225	0.033475
O25	O	-0.600202	1.171086	-0.738354
O26	O	-0.100202	1.671086	-0.238354
O27	O	-0.583406	1.034722	-0.583267
O28	O	-0.083406	1.534722	-0.083267
O29	O	-0.496192	1.287909	-0.739120
O30	O	0.003808	1.787909	-0.239120
O31	O	-0.739300	1.287736	-0.496018
O32	O	-0.239300	1.787736	0.003982
O33	O	-0.738513	1.170987	-0.600046
O34	O	-0.238513	1.670987	-0.100046
C35	C	-0.523043	1.008970	-0.522906
C36	C	-0.023043	1.508970	-0.022906
C37	C	-0.516953	0.909397	-0.516830
C38	C	-0.016953	1.409397	-0.016830
C39	C	-0.771629	1.227379	-0.549818
C40	C	-0.271629	1.727379	-0.049818
C41	C	-0.871868	1.221326	-0.555268
C42	C	-0.371868	1.721326	-0.055268
C43	C	-1.060998	1.331634	-0.457284
C44	C	-0.560998	1.831634	0.042716
C45	C	-1.155181	1.325950	-0.462402
C46	C	-0.655181	1.825950	0.037598
C47	C	-1.154420	1.204279	-0.570626
C48	C	-0.654420	1.704279	-0.070626
C49	C	-1.060237	1.209963	-0.565508
C50	C	-0.560237	1.709963	-0.065508
C51	C	-1.013529	1.273642	-0.508834
C52	C	-0.513529	1.773642	-0.008834
C53	C	-0.919343	1.279321	-0.503712
C54	C	-0.419343	1.779321	-0.003712
C55	C	-0.918584	1.157655	-0.611940
C56	C	-0.418584	1.657655	-0.111940
C57	C	-1.012768	1.151970	-0.617058
C58	C	-0.512768	1.651970	-0.117058
C59	C	-0.627234	0.708277	-0.626831
C60	C	-0.127234	1.208277	-0.126831
C61	C	-0.621514	0.614720	-0.621125
C62	C	-0.121514	1.114720	-0.121125
C63	C	-0.499789	0.628723	-0.499719
C64	C	0.000211	1.128723	0.000281
C65	C	-0.505509	0.722281	-0.505424
C66	C	-0.005509	1.222281	-0.005424
C67	C	-0.569235	0.762054	-0.568981
C68	C	-0.069235	1.262054	-0.068981
C69	C	-0.574958	0.855613	-0.574682
C70	C	-0.074958	1.355613	-0.074682
C71	C	-0.453230	0.869615	-0.453280
C72	C	0.046770	1.369615	0.046720
C73	C	-0.447510	0.776058	-0.447575
C74	C	0.052490	1.276058	0.052425
C75	C	-0.302127	1.256131	-0.524476
C76	C	0.197873	1.756131	-0.024476
C77	C	-0.201896	1.262274	-0.519070
C78	C	0.298104	1.762274	-0.019070
C79	C	-0.550010	1.227459	-0.772372
C80	C	-0.050010	1.727459	-0.272372
C81	C	-0.555411	1.221383	-0.872606
C82	C	-0.055411	1.721383	-0.372606
C83	C	-0.551681	1.475370	-0.551472
C84	C	-0.051681	1.975370	-0.051472
C85	C	-0.557795	1.574939	-0.557571
C86	C	-0.057795	2.074939	-0.057571
C87	C	-0.457236	1.331614	-1.061752
C88	C	0.042764	1.831614	-0.561752
C89	C	-0.462308	1.325908	-1.155930
C90	C	0.037692	1.825908	-0.655930
C91	C	-0.570623	1.204264	-1.155141
C92	C	-0.070623	1.704264	-0.655141
C93	C	-0.565551	1.209969	-1.060963
C94	C	-0.065551	1.709969	-0.560963
C95	C	-0.508856	1.273647	-1.014272
C96	C	-0.008856	1.773647	-0.514272
C97	C	-0.503789	1.279356	-0.920093
C98	C	-0.003789	1.779356	-0.420093
C99	C	-0.612099	1.157708	-0.919305
C100	C	-0.112099	1.657708	-0.419305
C101	C	-0.617171	1.152002	-1.013483
C102	C	-0.117171	1.652002	-0.513483
C103	C	-0.524646	1.255972	-0.302864
C104	C	-0.024646	1.755972	0.197136
C105	C	-0.519001	1.262236	-0.202628
C106	C	-0.019001	1.762236	0.297372
H107	H	-0.881314	1.331169	-0.457563
H108	H	-0.381314	1.831169	0.042437
C109	C	-0.866367	1.093863	-0.668650
C110	C	-0.366367	1.593863	-0.168650
H111	H	-0.803585	1.106369	-0.657490
H112	H	-0.303585	1.606369	-0.157490
H113	H	-0.877458	1.033553	-0.652558
H114	H	-0.377458	1.533553	-0.152558
H115	H	-0.885835	1.102325	-0.730892
H116	H	-0.385835	1.602325	-0.230892
C117	C	-0.394884	1.401658	-1.010386
C118	C	0.105116	1.901658	-0.510386
H119	H	-0.399262	1.396757	-0.947497
H120	H	0.100738	1.896757	-0.447497
H121	H	-0.334320	1.391331	-1.021746
H122	H	0.165680	1.891331	-0.521746
H123	H	-0.412618	1.460105	-1.030218
H124	H	0.087382	1.960105	-0.530218
H125	H	-0.616780	1.152420	-1.193173
H126	H	-0.116780	1.652420	-0.693173
C127	C	-0.377417	0.732306	-0.377666
C128	C	0.122583	1.232306	0.122334
H129	H	-0.343690	0.777736	-0.344034
H130	H	0.156310	1.277736	0.155966
H131	H	-0.407501	0.696079	-0.337957
H132	H	0.092499	1.196079	0.162043
H133	H	-0.337802	0.696123	-0.407885
H134	H	0.162198	1.196123	0.092115
C135	C	-0.405530	1.389675	-1.208156
C136	C	0.094470	1.889675	-0.708156
H137	H	-0.371046	1.428419	-1.166858
H138	H	0.128954	1.928419	-0.666858
H139	H	-0.366116	1.355591	-1.240680
H140	H	0.133884	1.855591	-0.740680
H141	H	-0.444407	1.424373	-1.249143
H142	H	0.055593	1.924373	-0.749143
C143	C	-1.064150	1.081926	-0.679389
C144	C	-0.564150	1.581926	-0.179389
H145	H	-1.127041	1.086841	-0.675050
H146	H	-0.627041	1.586841	-0.175050
H147	H	-1.052748	1.092236	-0.739951
H148	H	-0.552748	1.592236	-0.239951
H149	H	-1.044368	1.023478	-0.661604
H150	H	-0.544368	1.523478	-0.161604
H151	H	-0.406004	0.913411	-0.406173
H152	H	0.093996	1.413411	0.093827
C153	C	-0.697330	0.752036	-0.696732
C154	C	-0.197330	1.252036	-0.196732
H155	H	-0.692433	0.815457	-0.691840
H156	H	-0.192433	1.315457	-0.191840
H157	H	-0.686561	0.733845	-0.755703
H158	H	-0.186561	1.233845	-0.255703
H159	H	-0.756247	0.733809	-0.685764
H160	H	-0.256247	1.233809	-0.185764
H161	H	-0.663328	1.100156	-1.051511
H162	H	-0.163328	1.600156	-0.551511
C163	C	-1.207394	1.389737	-0.405693
C164	C	-0.707394	1.889737	0.094307
H165	H	-1.166084	1.428469	-0.371204
H166	H	-0.666084	1.928469	0.128796
H167	H	-1.248344	1.424432	-0.444602
H168	H	-0.748344	1.924432	0.055398
H169	H	-1.239957	1.355660	-0.366269
H170	H	-0.739957	1.855660	0.133731
H171	H	-0.654134	1.110509	-0.880636
H172	H	-0.154134	1.610509	-0.380636
C173	C	-1.205809	1.134238	-0.632957
C174	C	-0.705809	1.634238	-0.132957
H175	H	-1.268699	1.139159	-0.628616
H176	H	-0.768699	1.639159	-0.128616
H177	H	-1.194408	1.144549	-0.693519
H178	H	-0.694408	1.644549	-0.193519
H179	H	-1.186031	1.075788	-0.615176
H180	H	-0.686031	1.575788	-0.115176
C181	C	-0.645054	0.899368	-0.644586
C182	C	-0.145054	1.399368	-0.144586
H183	H	-0.640163	0.962790	-0.639693
H184	H	-0.140163	1.462790	-0.139693
H185	H	-0.634280	0.881179	-0.703556
H186	H	-0.134280	1.381179	-0.203556
H187	H	-0.703971	0.881137	-0.633621
H188	H	-0.203971	1.381137	-0.133621
H189	H	-0.457627	1.331207	-0.882079
H190	H	0.042373	1.831207	-0.382079
H191	H	-0.447902	0.596323	-0.447979
H192	H	0.052098	1.096323	0.052021
C193	C	-1.009616	1.401673	-0.394945
C194	C	-0.509616	1.901673	0.105055
H195	H	-1.051378	1.435400	-0.364977
H196	H	-0.551378	1.935400	0.135023
H197	H	-0.968700	1.372035	-0.351536
H198	H	-0.468700	1.872035	0.148464
H199	H	-0.977084	1.440807	-0.429870
H200	H	-0.477084	1.940807	0.070130
H201	H	-0.668742	0.570938	-0.668234
H202	H	-0.168742	1.070938	-0.168234
