data_functionalizedCrystal
_audit_creation_method	'MofGen! by Chris Wilmer'
_symmetry_space_group_name_H-M	'P1'
_symmetry_Int_Tables_number	1
_symmetry_cell_setting	triclinic
loop_
_symmetry_equiv_pos_as_xyz
  x,y,z
_cell_length_a	25.639234
_cell_length_b	25.639242
_cell_length_c	25.639239
_cell_angle_alpha	90.034811
_cell_angle_beta	90.025460
_cell_angle_gamma	90.029352
loop_
_atom_site_label
_atom_site_type_symbol
_atom_site_fract_x
_atom_site_fract_y
_atom_site_fract_z
Zn1	Zn	-0.295740	-0.799260	0.208245
Zn2	Zn	0.204260	-0.299260	0.708245
Zn3	Zn	-0.208304	-0.799172	0.295673
Zn4	Zn	0.291696	-0.299172	0.795673
Zn5	Zn	-0.208304	-0.711825	0.208247
Zn6	Zn	0.291696	-0.211825	0.708247
Zn7	Zn	-0.295694	-0.711780	0.295644
Zn8	Zn	0.204306	-0.211780	0.795644
O9	O	-0.252010	-0.755509	0.251952
O10	O	0.247990	-0.255509	0.751952
O11	O	-0.284161	-0.872413	0.219854
O12	O	0.215839	-0.372413	0.719854
O13	O	-0.135139	-0.787567	0.284089
O14	O	0.364861	-0.287567	0.784089
O15	O	-0.219923	-0.723479	0.135081
O16	O	0.280077	-0.223479	0.635081
O17	O	-0.219922	-0.872348	0.284087
O18	O	0.280078	-0.372348	0.784087
O19	O	-0.284161	-0.787717	0.135080
O20	O	0.215839	-0.287717	0.635080
O21	O	-0.135139	-0.723394	0.219857
O22	O	0.364861	-0.223394	0.719857
O23	O	-0.219877	-0.638654	0.219829
O24	O	0.280123	-0.138654	0.719829
O25	O	-0.368865	-0.723403	0.284038
O26	O	0.131135	-0.223403	0.784038
O27	O	-0.284082	-0.638621	0.284040
O28	O	0.215918	-0.138621	0.784040
O29	O	-0.368899	-0.787674	0.219826
O30	O	0.131101	-0.287674	0.719826
O31	O	-0.219876	-0.787523	0.368835
O32	O	0.280124	-0.287523	0.868835
O33	O	-0.284081	-0.723317	0.368813
O34	O	0.215919	-0.223317	0.868813
C35	C	-0.251985	-0.755420	0.387795
C36	C	0.248015	-0.255420	0.887795
C37	C	-0.251992	-0.755430	0.445909
C38	C	0.248008	-0.255430	0.945909
C39	C	-0.251975	-0.619667	0.251932
C40	C	0.248025	-0.119667	0.751932
C41	C	-0.251972	-0.561553	0.251935
C42	C	0.248028	-0.061553	0.751935
C43	C	-0.388384	-0.755543	0.251928
C44	C	0.111616	-0.255543	0.751928
C45	C	-0.446498	-0.755558	0.251918
C46	C	0.053502	-0.255558	0.751918
C47	C	-0.806867	-0.722158	0.218411
C48	C	-0.306867	-0.222158	0.718411
C49	C	-0.861471	-0.722160	0.218401
C50	C	-0.361471	-0.222160	0.718401
O51	O	-0.889712	-0.693736	0.189969
O52	O	-0.389712	-0.193736	0.689969
N53	N	-0.888780	-0.755575	0.251836
N54	N	-0.388780	-0.255575	0.751836
C55	C	-0.861483	-0.788986	0.285287
C56	C	-0.361483	-0.288986	0.785287
O57	O	-0.889725	-0.817407	0.313726
O58	O	-0.389725	-0.317407	0.813726
C59	C	-0.806879	-0.788980	0.285299
C60	C	-0.306879	-0.288980	0.785299
C61	C	-0.779573	-0.755567	0.251857
C62	C	-0.279573	-0.255567	0.751857
C63	C	-0.779560	-0.688747	0.184972
C64	C	-0.279560	-0.188747	0.684972
C65	C	-0.724959	-0.688745	0.184981
C66	C	-0.224959	-0.188745	0.684981
C67	C	-0.697665	-0.722154	0.218428
C68	C	-0.197665	-0.222154	0.718428
C69	C	-0.724972	-0.755565	0.251866
C70	C	-0.224972	-0.255565	0.751866
C71	C	-0.779582	-0.822387	0.318752
C72	C	-0.279582	-0.322387	0.818752
C73	C	-0.724975	-0.822378	0.318761
C74	C	-0.224975	-0.322378	0.818761
C75	C	-0.697669	-0.788965	0.285319
C76	C	-0.197669	-0.288965	0.785319
C77	C	-0.643078	-0.788971	0.285322
C78	C	-0.143078	-0.288971	0.785322
N79	N	-0.615768	-0.755557	0.251887
N80	N	-0.115768	-0.255557	0.751887
C81	C	-0.643062	-0.722148	0.218440
C82	C	-0.143062	-0.222148	0.718440
C83	C	-0.976153	-0.788995	0.285260
C84	C	-0.476153	-0.288995	0.785260
C85	C	-1.030756	-0.789003	0.285246
C86	C	-0.530756	-0.289003	0.785246
C87	C	-1.030740	-0.722178	0.218361
C88	C	-0.530740	-0.222178	0.718361
C89	C	-0.976137	-0.722172	0.218373
C90	C	-0.476137	-0.222172	0.718373
C91	C	-0.948844	-0.755580	0.251825
C92	C	-0.448844	-0.255580	0.751825
C93	C	-0.528397	-0.722146	0.218461
C94	C	-0.028397	-0.222146	0.718461
C95	C	-0.473792	-0.722149	0.218471
C96	C	0.026208	-0.222149	0.718471
C97	C	-0.473812	-0.788973	0.285358
C98	C	0.026188	-0.288973	0.785358
C99	C	-0.528412	-0.788972	0.285346
C100	C	-0.028412	-0.288972	0.785346
C101	C	-0.555704	-0.755555	0.251896
C102	C	-0.055704	-0.255555	0.751896
O103	O	-0.614801	-0.817380	0.313741
O104	O	-0.114801	-0.317380	0.813741
O105	O	-0.614813	-0.693726	0.190011
O106	O	-0.114813	-0.193726	0.690011
C107	C	-0.116168	-0.755506	0.251938
C108	C	0.383832	-0.255506	0.751938
C109	C	-0.058054	-0.755592	0.251801
C110	C	0.441946	-0.255592	0.751801
C111	C	-0.252046	-0.891882	0.251973
C112	C	0.247954	-0.391882	0.751973
C113	C	-0.252062	-0.949996	0.251982
C114	C	0.247938	-0.449996	0.751982
C115	C	-0.285410	-0.201181	0.285443
C116	C	0.214590	0.298819	0.785443
C117	C	-0.285418	-0.146577	0.285446
C118	C	0.214582	0.353423	0.785446
O119	O	-0.313818	-0.118333	0.313909
O120	O	0.186182	0.381667	0.813909
N121	N	-0.252045	-0.119270	0.251967
N122	N	0.247955	0.380730	0.751967
C123	C	-0.218664	-0.146571	0.218478
C124	C	0.281336	0.353429	0.718478
O125	O	-0.190278	-0.118330	0.190002
O126	O	0.309722	0.381670	0.690002
C127	C	-0.218659	-0.201174	0.218473
C128	C	0.281341	0.298826	0.718473
C129	C	-0.252031	-0.228478	0.251958
C130	C	0.247969	0.271522	0.751958
C131	C	-0.318780	-0.228485	0.318925
C132	C	0.181220	0.271515	0.818925
C133	C	-0.318771	-0.283086	0.318922
C134	C	0.181229	0.216914	0.818922
C135	C	-0.285392	-0.310382	0.285437
C136	C	0.214608	0.189618	0.785437
C137	C	-0.252022	-0.283078	0.251955
C138	C	0.247978	0.216922	0.751955
C139	C	-0.185282	-0.228473	0.184982
C140	C	0.314718	0.271527	0.684982
C141	C	-0.185279	-0.283080	0.184980
C142	C	0.314721	0.216920	0.684980
C143	C	-0.218652	-0.310384	0.218465
C144	C	0.281348	0.189616	0.718465
C145	C	-0.218634	-0.364975	0.218468
C146	C	0.281366	0.135025	0.718468
N147	N	-0.252008	-0.392282	0.251947
N148	N	0.247992	0.107718	0.751947
C149	C	-0.285387	-0.364986	0.285432
C150	C	0.214613	0.135014	0.785432
C151	C	-0.218678	-0.031900	0.218492
C152	C	0.281322	0.468100	0.718492
C153	C	-0.218680	0.022702	0.218499
C154	C	0.281320	0.522702	0.718499
C155	C	-0.285436	0.022692	0.285466
C156	C	0.214564	0.522692	0.785466
C157	C	-0.285430	-0.031911	0.285461
C158	C	0.214570	0.468089	0.785461
C159	C	-0.252052	-0.059207	0.251971
C160	C	0.247948	0.440793	0.751971
C161	C	-0.285365	-0.479651	0.285424
C162	C	0.214635	0.020349	0.785424
C163	C	-0.285351	-0.534256	0.285420
C164	C	0.214649	-0.034256	0.785420
C165	C	-0.218598	-0.534241	0.218451
C166	C	0.281402	-0.034241	0.718451
C167	C	-0.218610	-0.479641	0.218457
C168	C	0.281390	0.020359	0.718457
C169	C	-0.251997	-0.452347	0.251945
C170	C	0.248003	0.047653	0.751945
O171	O	-0.190250	-0.393254	0.190018
O172	O	0.309750	0.106746	0.690018
O173	O	-0.313773	-0.393233	0.313899
O174	O	0.186227	0.106767	0.813899
C175	C	-0.252047	-0.755613	0.115579
C176	C	0.247953	-0.255613	0.615579
C177	C	-0.252063	-0.755658	0.057465
C178	C	0.247937	-0.255658	0.557465
C179	C	-0.285431	-0.722071	0.697104
C180	C	0.214569	-0.222071	1.197104
C181	C	-0.285425	-0.722052	0.642499
C182	C	0.214575	-0.222052	1.142499
O183	O	-0.313839	-0.693603	0.614264
O184	O	0.186161	-0.193603	1.114264
N185	N	-0.252019	-0.755495	0.615183
N186	N	0.247981	-0.255495	1.115183
C187	C	-0.218621	-0.788964	0.642473
C188	C	0.281379	-0.288964	1.142473
O189	O	-0.190206	-0.817409	0.614224
O190	O	0.309794	-0.317409	1.114224
C191	C	-0.218630	-0.788986	0.697077
C192	C	0.281370	-0.288986	1.197077
C193	C	-0.252034	-0.755536	0.724390
C194	C	0.247966	-0.255536	1.224390
C195	C	-0.318834	-0.688624	0.724418
C196	C	0.181166	-0.188624	1.224418
C197	C	-0.318839	-0.688643	0.779018
C198	C	0.181161	-0.188643	1.279018
C199	C	-0.285442	-0.722109	0.806305
C200	C	0.214558	-0.222109	1.306305
C201	C	-0.252040	-0.755555	0.778991
C202	C	0.247960	-0.255555	1.278991
C203	C	-0.185235	-0.822457	0.724366
C204	C	0.314765	-0.322457	1.224366
C205	C	-0.185247	-0.822476	0.778973
C206	C	0.314753	-0.322476	1.278973
C207	C	-0.218651	-0.789027	0.806287
C208	C	0.281349	-0.289027	1.306287
C209	C	-0.218648	-0.789039	0.860878
C210	C	0.281352	-0.289039	1.360878
N211	N	-0.252054	-0.755596	0.888195
N212	N	0.247946	-0.255596	1.388195
C213	C	-0.285451	-0.722130	0.860908
C214	C	0.214549	-0.222130	1.360908
C215	C	-0.218605	-0.788917	0.527803
C216	C	0.281395	-0.288917	1.027803
C217	C	-0.218593	-0.788893	0.473200
C218	C	0.281407	-0.288893	0.973200
C219	C	-0.285398	-0.721981	0.473230
C220	C	0.214602	-0.221981	0.973230
C221	C	-0.285407	-0.722003	0.527834
C222	C	0.214593	-0.222003	1.027834
C223	C	-0.252011	-0.755473	0.555119
C224	C	0.247989	-0.255473	1.055119
C225	C	-0.285459	-0.722172	0.975573
C226	C	0.214541	-0.222172	1.475573
C227	C	-0.285460	-0.722192	1.030179
C228	C	0.214540	-0.222192	1.530179
C229	C	-0.218657	-0.789106	1.030144
C230	C	0.281343	-0.289106	1.530144
C231	C	-0.218654	-0.789084	0.975543
C232	C	0.281346	-0.289084	1.475543
C233	C	-0.252059	-0.755615	0.948259
C234	C	0.247941	-0.255615	1.448259
O235	O	-0.190250	-0.817475	0.889148
O236	O	0.309750	-0.317475	1.389148
O237	O	-0.313866	-0.693695	0.889164
O238	O	0.186134	-0.193695	1.389164
H239	H	-0.451561	-0.694940	0.191237
H240	H	0.048439	-0.194940	0.691237
F241	F	-0.183084	-0.450581	0.182827
F242	F	0.316916	0.049419	0.682827
H243	H	-0.550646	-0.816186	0.312571
H244	H	-0.050646	-0.316186	0.812571
H245	H	-0.158034	-0.849695	0.702135
H246	H	0.341966	-0.349695	1.202135
H247	H	-0.191494	-0.054121	0.191221
H248	H	0.308506	0.445879	0.691221
F249	F	-0.183155	0.051755	0.182866
F250	F	0.316845	0.551755	0.682866
H251	H	-0.550611	-0.694935	0.191222
H252	H	-0.050611	-0.194935	0.691222
F253	F	-0.695904	-0.653179	0.149391
F254	F	-0.195904	-0.153179	0.649391
F255	F	-0.695931	-0.857935	0.354368
F256	F	-0.195931	-0.357935	0.854368
F257	F	-0.808600	-0.653180	0.149376
F258	F	-0.308600	-0.153180	0.649376
F259	F	-0.183076	-0.563302	0.182817
F260	F	0.316924	-0.063302	0.682817
H261	H	-0.158105	-0.206252	0.157717
H262	H	0.341895	0.293748	0.657717
F263	F	-1.059798	-0.686620	0.182764
F264	F	-0.559798	-0.186620	0.682764
F265	F	-0.183117	-0.824722	1.059194
F266	F	0.316883	-0.324722	1.559194
F267	F	-0.183092	-0.824675	0.946473
F268	F	0.316908	-0.324675	1.446473
F269	F	-0.321015	-0.686589	1.059245
F270	F	0.178985	-0.186589	1.559245
F271	F	-0.444754	-0.824530	0.320951
F272	F	0.055246	-0.324530	0.820951
H273	H	-0.345964	-0.206266	0.346192
H274	H	0.154036	0.293734	0.846192
H275	H	-0.312527	-0.556485	0.312690
H276	H	0.187473	-0.056485	0.812690
H277	H	-0.345947	-0.305312	0.346188
H278	H	0.154053	0.194688	0.846188
F279	F	-0.947080	-0.686609	0.182781
F280	F	-0.447080	-0.186609	0.682781
F281	F	-0.320900	-0.450610	0.321066
F282	F	0.179100	0.049390	0.821066
H283	H	-1.052984	-0.816218	0.312472
H284	H	-0.552984	-0.316218	0.812472
F285	F	-0.354399	-0.653047	0.808081
F286	F	0.145601	-0.153047	1.308081
H287	H	-0.158101	-0.305301	0.157704
H288	H	0.341899	0.194699	0.657704
H289	H	-0.801806	-0.849595	0.345983
H290	H	-0.301806	-0.349595	0.845983
F291	F	-0.947111	-0.824558	0.320864
F292	F	-0.447111	-0.324558	0.820864
H293	H	-0.312606	-0.054139	0.312727
H294	H	0.187394	0.445861	0.812727
F295	F	-0.183054	-0.824540	0.556837
F296	F	0.316946	-0.324540	1.056837
F297	F	-0.320965	0.051753	0.321100
F298	F	0.179035	0.551753	0.821100
H299	H	-0.312662	-0.694919	0.953365
H300	H	0.187338	-0.194919	1.453365
H301	H	-0.346032	-0.661373	0.702206
H302	H	0.153968	-0.161373	1.202206
F303	F	-0.320961	-0.686402	0.556898
F304	F	0.179039	-0.186402	1.056898
H305	H	-0.312592	-0.694732	0.451004
H306	H	0.187408	-0.194732	0.951004
H307	H	-0.191386	-0.816125	0.450965
H308	H	0.308614	-0.316125	0.950965
H309	H	-0.158053	-0.849735	0.801186
H310	H	0.341947	-0.349735	1.301186
