data_functionalizedCrystal
_audit_creation_method	'MofGen! by Chris Wilmer'
_symmetry_space_group_name_H-M	'P1'
_symmetry_Int_Tables_number	1
_symmetry_cell_setting	triclinic
loop_
_symmetry_equiv_pos_as_xyz
  x,y,z
_cell_length_a	19.288865
_cell_length_b	19.288864
_cell_length_c	17.766277
_cell_angle_alpha	90.023209
_cell_angle_beta	89.988397
_cell_angle_gamma	96.863755
loop_
_atom_site_label
_atom_site_type_symbol
_atom_site_fract_x
_atom_site_fract_y
_atom_site_fract_z
O1	O	0.086649	-0.921353	-0.062844
O2	O	0.586649	-0.421353	0.437156
O3	O	0.098337	-0.719092	-0.062794
O4	O	0.598337	-0.219092	0.437206
O5	O	-0.008637	-0.826067	-0.062806
O6	O	0.491363	-0.326067	0.437194
O7	O	0.193623	-0.814378	-0.062832
O8	O	0.693623	-0.314378	0.437168
O9	O	-0.008643	-0.826048	0.062383
O10	O	0.491357	-0.326048	0.562383
O11	O	0.098332	-0.719074	0.062395
O12	O	0.598332	-0.219074	0.562395
O13	O	0.086643	-0.921334	0.062344
O14	O	0.586643	-0.421334	0.562344
Cu15	Cu	0.092487	-0.820202	0.073800
Cu16	Cu	0.592487	-0.320202	0.573800
Cu17	Cu	0.092494	-0.820224	-0.074250
Cu18	Cu	0.592494	-0.320224	0.425750
O19	O	0.193618	-0.814360	0.062356
O20	O	0.693618	-0.314360	0.562356
C21	C	0.097959	-0.693207	-0.000193
C22	C	0.597959	-0.193207	0.499807
C23	C	0.096830	-0.616103	-0.000173
C24	C	0.596830	-0.116103	0.499827
C25	C	-0.034516	-0.825682	-0.000209
C26	C	0.465484	-0.325682	0.499791
C27	C	-0.111620	-0.824553	-0.000202
C28	C	0.388380	-0.324553	0.499798
N29	N	0.092482	-0.820192	0.177931
N30	N	0.592482	-0.320192	0.677931
C31	C	-0.156316	-0.887321	-0.000214
C32	C	0.343684	-0.387321	0.499786
C33	C	-0.228763	-0.886260	-0.000226
C34	C	0.271237	-0.386260	0.499774
C35	C	-0.256511	-0.822428	-0.000210
C36	C	0.243489	-0.322428	0.499790
C37	C	-0.211805	-0.759652	-0.000203
C38	C	0.288195	-0.259652	0.499797
C39	C	-0.139359	-0.760714	-0.000198
C40	C	0.360641	-0.260714	0.499802
C41	C	-0.364800	-0.772242	0.043653
C42	C	0.135200	-0.272242	0.543653
C43	C	-0.437245	-0.771182	0.043654
C44	C	0.062755	-0.271182	0.543654
C45	C	-0.479956	-0.819148	-0.000226
C46	C	0.020044	-0.319148	0.499774
C47	C	-0.450216	-0.868186	-0.044097
C48	C	0.049784	-0.368186	0.455903
C49	C	-0.377771	-0.869249	-0.044093
C50	C	0.122229	-0.369249	0.455907
C51	C	-0.335065	-0.821269	-0.000215
C52	C	0.164935	-0.321269	0.499785
C53	C	-0.603209	-0.880770	-0.000252
C54	C	-0.103209	-0.380770	0.499748
C55	C	-0.675657	-0.879707	-0.000268
C56	C	-0.175657	-0.379707	0.499732
C57	C	-0.658697	-0.753097	-0.000238
C58	C	-0.158697	-0.253097	0.499762
C59	C	-0.586250	-0.754162	-0.000229
C60	C	-0.086250	-0.254162	0.499771
C61	C	-0.558511	-0.818001	-0.000232
C62	C	-0.058511	-0.318001	0.499768
C63	C	0.219497	-0.814745	-0.000242
C64	C	0.719497	-0.314745	0.499758
C65	C	0.296601	-0.815874	-0.000254
C66	C	0.796601	-0.315874	0.499746
C67	C	0.087022	-0.947220	-0.000258
C68	C	0.587022	-0.447220	0.499742
C69	C	0.088151	-1.024324	-0.000283
C70	C	0.588151	-0.524324	0.499717
C71	C	0.159598	-0.571407	-0.000193
C72	C	0.659598	-0.071407	0.499807
C73	C	0.158537	-0.498960	-0.000201
C74	C	0.658537	0.001040	0.499799
C75	C	0.094705	-0.471212	-0.000205
C76	C	0.594705	0.028788	0.499795
C77	C	0.031929	-0.515918	-0.000180
C78	C	0.531929	-0.015918	0.499820
C79	C	0.032991	-0.588364	-0.000164
C80	C	0.532991	-0.088364	0.499836
C81	C	0.044527	-0.362957	-0.044082
C82	C	0.544527	0.137043	0.455918
C83	C	0.043468	-0.290512	-0.044103
C84	C	0.543468	0.209488	0.455897
C85	C	0.091425	-0.247767	-0.000250
C86	C	0.591425	0.252233	0.499750
C87	C	0.140454	-0.277473	0.043614
C88	C	0.640454	0.222527	0.543614
C89	C	0.141517	-0.349918	0.043630
C90	C	0.641517	0.150082	0.543630
C91	C	0.093546	-0.392658	-0.000221
C92	C	0.593546	0.107342	0.499779
C93	C	0.153047	-0.124514	-0.000278
C94	C	0.653047	0.375486	0.499722
C95	C	0.151984	-0.052066	-0.000281
C96	C	0.651984	0.447934	0.499719
C97	C	0.025374	-0.069026	-0.000267
C98	C	0.525374	0.430974	0.499733
C99	C	0.026439	-0.141473	-0.000256
C100	C	0.526439	0.358527	0.499744
C101	C	0.090278	-0.169212	-0.000265
C102	C	0.590278	0.330788	0.499735
N103	N	0.092493	-0.820241	-0.178380
N104	N	0.592493	-0.320241	0.321620
C105	C	0.045137	-0.867575	0.217312
C106	C	0.545137	-0.367575	0.717312
C107	C	0.045134	-0.867579	0.296114
C108	C	0.545134	-0.367579	0.796114
C109	C	0.092488	-0.820206	0.335531
C110	C	0.592488	-0.320206	0.835531
C111	C	0.139837	-0.772814	0.296140
C112	C	0.639837	-0.272814	0.796140
C113	C	0.139834	-0.772807	0.217340
C114	C	0.639834	-0.272807	0.717340
C115	C	0.155775	-0.810908	0.460362
C116	C	0.655775	-0.310908	0.960362
C117	C	0.155779	-0.810920	0.539161
C118	C	0.655779	-0.310920	1.039161
C119	C	0.092496	-0.820225	0.578577
C120	C	0.592496	-0.320225	1.078577
C121	C	0.029207	-0.829533	0.539185
C122	C	0.529207	-0.329533	1.039185
C123	C	0.029204	-0.829525	0.460385
C124	C	0.529204	-0.329525	0.960385
C125	C	0.092496	-0.820209	0.420977
C126	C	0.592496	-0.320209	0.920977
C127	C	0.045143	-0.867616	0.703405
C128	C	0.545143	-0.367616	1.203405
C129	C	0.045139	-0.867615	0.782208
C130	C	0.545139	-0.367615	1.282208
C131	C	0.139848	-0.772853	0.782233
C132	C	0.639848	-0.272853	1.282233
C133	C	0.139846	-0.772850	0.703431
C134	C	0.639846	-0.272850	1.203431
C135	C	0.092495	-0.820235	0.664022
C136	C	0.592495	-0.320235	1.164022
H137	H	-0.265162	-0.937375	-0.000238
H138	H	0.234838	-0.437375	0.499762
H139	H	0.207313	-0.803345	0.571228
H140	H	0.707313	-0.303345	1.071228
C141	C	0.180925	-0.652451	0.320465
C142	C	0.680925	-0.152451	0.820465
C143	C	0.191887	-0.720739	0.339466
C144	C	0.691887	-0.220739	0.839466
H145	H	0.213055	-0.620301	0.347217
H146	H	0.713055	-0.120301	0.847217
H147	H	0.187703	-0.645668	0.267904
H148	H	0.687703	-0.145668	0.767904
H149	H	0.134583	-0.645070	0.333400
H150	H	0.634583	-0.145070	0.833400
H151	H	0.238227	-0.728122	0.326526
H152	H	0.738227	-0.228122	0.826526
H153	H	0.185114	-0.727525	0.392038
H154	H	0.685114	-0.227525	0.892038
H155	H	-0.549857	-0.703049	-0.000215
H156	H	-0.049857	-0.203049	0.499785
H157	H	-0.461453	-0.731249	0.079371
H158	H	0.038547	-0.231249	0.579371
H159	H	-0.024674	-0.177866	-0.000244
H160	H	0.475326	0.322134	0.499756
H161	H	-0.022324	-0.837110	0.571277
H162	H	0.477676	-0.337110	1.071277
C163	C	0.233465	-0.679192	0.711373
C164	C	0.733465	-0.179192	1.211373
C165	C	0.191898	-0.720771	0.660137
C166	C	0.691898	-0.220771	1.160137
H167	H	0.265602	-0.647041	0.684643
H168	H	0.765602	-0.147041	1.184643
H169	H	0.204617	-0.654302	0.742126
H170	H	0.704617	-0.154302	1.242126
H171	H	0.258375	-0.708034	0.742088
H172	H	0.758375	-0.208034	1.242088
H173	H	0.166984	-0.691929	0.629426
H174	H	0.666984	-0.191929	1.129426
H175	H	0.220750	-0.745662	0.629371
H176	H	0.720750	-0.245662	1.129371
H177	H	0.178389	-0.734220	0.185274
H178	H	0.678389	-0.234220	0.685274
H179	H	0.006585	-0.906198	0.671317
H180	H	0.506585	-0.406198	1.171317
C181	C	-0.148459	-0.995574	-0.064592
C182	C	0.351541	-0.495574	0.435408
C183	C	-0.125827	-0.957491	-0.000227
C184	C	0.374173	-0.457491	0.499773
H185	H	-0.129632	-1.038892	-0.064601
H186	H	0.370368	-0.538892	0.435399
H187	H	-0.197997	-1.003920	-0.064589
H188	H	0.302003	-0.503920	0.435411
H189	H	-0.133088	-0.969739	-0.108236
H190	H	0.366912	-0.469739	0.391764
H191	H	-0.141203	-0.983324	0.043418
H192	H	0.358797	-0.483324	0.543418
H193	H	-0.076279	-0.949148	-0.000223
H194	H	0.423721	-0.449148	0.499777
H195	H	-0.018124	-0.624756	-0.000148
H196	H	0.481876	-0.124756	0.499852
H197	H	0.005473	-0.397755	-0.079797
H198	H	0.505473	0.102245	0.420203
C199	C	0.280892	-0.792538	0.468253
C200	C	0.780892	-0.292538	0.968253
C201	C	0.225343	-0.800691	0.417040
C202	C	0.725343	-0.300691	0.917040
H203	H	0.323838	-0.786238	0.441507
H204	H	0.823838	-0.286238	0.941507
H205	H	0.277148	-0.752865	0.499004
H206	H	0.777148	-0.252865	0.999004
H207	H	0.279369	-0.832990	0.498973
H208	H	0.779369	-0.332990	0.998973
H209	H	0.226863	-0.760237	0.386324
H210	H	0.726863	-0.260237	0.886324
H211	H	0.229089	-0.840368	0.386276
H212	H	0.729089	-0.340368	0.886276
H213	H	0.006579	-0.906158	0.185228
H214	H	0.506579	-0.406158	0.685228
H215	H	-0.580622	-0.932751	-0.000258
H216	H	-0.080622	-0.432751	0.499742
C217	C	-0.129873	-0.635460	-0.000168
C218	C	0.370127	-0.135460	0.499832
C219	C	-0.090224	-0.691714	-0.000178
C220	C	0.409776	-0.191714	0.499822
H221	H	-0.099537	-0.592863	-0.000149
H222	H	0.400463	-0.092863	0.499851
H223	H	-0.158468	-0.637684	-0.043826
H224	H	0.341532	-0.137684	0.456174
H225	H	-0.158497	-0.637677	0.043486
H226	H	0.341503	-0.137677	0.543486
H227	H	-0.061604	-0.689501	-0.043836
H228	H	0.438396	-0.189501	0.456164
H229	H	-0.061617	-0.689489	0.043484
H230	H	0.438383	-0.189489	0.543484
H231	H	0.006581	-0.906198	0.814274
H232	H	0.506581	-0.406198	1.314274
H233	H	0.006578	-0.906166	0.328185
H234	H	0.506578	-0.406166	0.828185
H235	H	-0.353560	-0.909176	-0.079815
H236	H	0.146440	-0.409176	0.420185
C237	C	-0.095909	-0.847913	0.468315
C238	C	0.404091	-0.347913	0.968315
C239	C	-0.040359	-0.839745	0.417085
C240	C	0.459641	-0.339745	0.917085
H241	H	-0.138854	-0.854216	0.441581
H242	H	0.361146	-0.354216	0.941581
H243	H	-0.092159	-0.887589	0.499023
H244	H	0.407841	-0.387589	0.999023
H245	H	-0.094391	-0.807466	0.499076
H246	H	0.405609	-0.307466	0.999076
H247	H	-0.041874	-0.880194	0.386328
H248	H	0.458126	-0.380194	0.886328
H249	H	-0.044111	-0.800065	0.386364
H250	H	0.455889	-0.300065	0.886364
H251	H	-0.330029	-0.733180	0.079389
H252	H	0.169971	-0.233180	0.579389
C253	C	0.224244	0.039274	0.064044
C254	C	0.724244	0.539274	0.564044
C255	C	0.220984	-0.002931	-0.000304
C256	C	0.720984	0.497069	0.499696
H257	H	0.266844	0.069605	0.064029
H258	H	0.766844	0.569605	0.564029
H259	H	0.186080	0.066162	0.064042
H260	H	0.686080	0.566162	0.564042
H261	H	0.222031	0.010675	0.107700
H262	H	0.722031	0.510675	0.607700
H263	H	0.223192	0.025667	-0.043960
H264	H	0.723192	0.525667	0.456040
H265	H	0.259159	-0.029822	-0.000309
H266	H	0.759159	0.470178	0.499691
H267	H	-0.234401	-0.707679	-0.000192
H268	H	0.265599	-0.207679	0.499808
H269	H	-0.484991	-0.907245	-0.079829
H270	H	0.015009	-0.407245	0.420171
H271	H	-0.712049	-0.930822	-0.000282
H272	H	-0.212049	-0.430822	0.499718
C273	C	-0.634651	-0.628058	-0.000210
C274	C	-0.134651	-0.128058	0.499790
C275	C	-0.689187	-0.682929	-0.000224
C276	C	-0.189187	-0.182929	0.499776
H277	H	-0.653479	-0.584739	-0.000208
H278	H	-0.153479	-0.084739	0.499792
H279	H	-0.606761	-0.631098	0.043446
H280	H	-0.106761	-0.131098	0.543446
H281	H	-0.606736	-0.631119	-0.043866
H282	H	-0.106736	-0.131119	0.456134
H283	H	-0.717100	-0.679872	0.043436
H284	H	-0.217100	-0.179872	0.543436
H285	H	-0.717089	-0.679888	-0.043884
H286	H	-0.217089	-0.179888	0.456116
C287	C	0.267842	-0.579268	-0.064562
C288	C	0.767842	-0.079268	0.435438
C289	C	0.229774	-0.601887	-0.000198
C290	C	0.729774	-0.101887	0.499802
H291	H	0.311169	-0.598080	-0.064562
H292	H	0.811169	-0.098080	0.435438
H293	H	0.242009	-0.594658	-0.108202
H294	H	0.742009	-0.094658	0.391798
H295	H	0.276177	-0.529723	-0.064566
H296	H	0.776177	-0.029723	0.435434
H297	H	0.221435	-0.651431	-0.000197
H298	H	0.721435	-0.151431	0.499803
H299	H	0.255612	-0.586500	0.043453
H300	H	0.755612	-0.086500	0.543453
C301	C	0.230778	-0.407680	-0.064594
C302	C	0.730778	0.092320	0.435406
C303	C	0.227534	-0.449814	-0.000229
C304	C	0.727534	0.050186	0.499771
H305	H	0.273372	-0.377339	-0.064608
H306	H	0.773372	0.122661	0.435392
H307	H	0.228564	-0.436321	-0.108233
H308	H	0.728564	0.063679	0.391767
H309	H	0.192603	-0.380796	-0.064584
H310	H	0.692603	0.119204	0.435416
H311	H	0.265707	-0.476702	-0.000241
H312	H	0.765707	0.023298	0.499759
H313	H	0.229754	-0.421170	0.043422
H314	H	0.729754	0.078830	0.543422
C315	C	0.186125	-0.366230	0.167707
C316	C	0.686125	0.133770	0.667707
C317	C	0.195399	-0.382573	0.091850
C318	C	0.695399	0.117427	0.591850
H319	H	0.219386	-0.386394	0.197478
H320	H	0.719386	0.113606	0.697478
H321	H	0.192362	-0.316973	0.173969
H322	H	0.692362	0.183027	0.673969
H323	H	0.140338	-0.384250	0.183121
H324	H	0.640338	0.115750	0.683121
H325	H	0.241183	-0.364549	0.076435
H326	H	0.741183	0.135451	0.576435
H327	H	0.189167	-0.431840	0.085585
H328	H	0.689167	0.068160	0.585585
H329	H	0.179505	-0.242670	0.079324
H330	H	0.679505	0.257330	0.579324
C331	C	0.278088	-0.100476	-0.000284
C332	C	0.778088	0.399524	0.499716
C333	C	0.223216	-0.155011	-0.000276
C334	C	0.723216	0.344989	0.499724
H335	H	0.321407	-0.119304	-0.000278
H336	H	0.821407	0.380696	0.499722
H337	H	0.275045	-0.072596	-0.043942
H338	H	0.775045	0.427404	0.456058
H339	H	0.275031	-0.072550	0.043371
H340	H	0.775031	0.427450	0.543371
H341	H	0.226270	-0.182935	-0.043933
H342	H	0.726270	0.317065	0.456067
H343	H	0.226261	-0.182903	0.043387
H344	H	0.726261	0.317097	0.543387
H345	H	0.003548	-0.266331	-0.079822
H346	H	0.503548	0.233669	0.420178
C347	C	-0.049270	0.002561	-0.064637
C348	C	0.450730	0.502561	0.435363
C349	C	-0.044795	-0.038538	-0.000273
C350	C	0.455205	0.461462	0.499727
H351	H	-0.092593	0.021381	-0.064640
H352	H	0.407407	0.521381	0.435360
H353	H	-0.012045	0.039550	-0.064641
H354	H	0.487955	0.539550	0.435359
H355	H	-0.046218	-0.025379	-0.108282
H356	H	0.453782	0.474621	0.391718
H357	H	-0.047841	-0.010597	0.043372
H358	H	0.452159	0.489403	0.543372
H359	H	-0.082030	-0.075532	-0.000263
H360	H	0.417970	0.424468	0.499737
H361	H	0.178402	-0.734278	0.814325
H362	H	0.678402	-0.234278	1.314325
C363	C	-0.076310	-0.508108	-0.064530
C364	C	0.423690	-0.008108	0.435470
C365	C	-0.038238	-0.485423	-0.000186
C366	C	0.461762	0.014577	0.499814
H367	H	-0.119631	-0.489285	-0.064527
H368	H	0.380369	0.010715	0.435473
H369	H	-0.050473	-0.492774	-0.108184
H370	H	0.449527	0.007226	0.391816
H371	H	-0.084655	-0.557652	-0.064507
H372	H	0.415345	-0.057652	0.435493
H373	H	-0.029889	-0.435879	-0.000211
H374	H	0.470111	0.064121	0.499789
H375	H	-0.064081	-0.500753	0.043479
H376	H	0.435919	-0.000753	0.543479
