data_functionalizedCrystal
_audit_creation_method	'MofGen! by Chris Wilmer'
_symmetry_space_group_name_H-M	'P1'
_symmetry_Int_Tables_number	1
_symmetry_cell_setting	triclinic
loop_
_symmetry_equiv_pos_as_xyz
  x,y,z
_cell_length_a	13.033291
_cell_length_b	18.101397
_cell_length_c	18.101375
_cell_angle_alpha	89.899245
_cell_angle_beta	82.758447
_cell_angle_gamma	97.189668
loop_
_atom_site_label
_atom_site_type_symbol
_atom_site_fract_x
_atom_site_fract_y
_atom_site_fract_z
Zn1	Zn	1.598324	-0.150446	-0.562825
Zn2	Zn	1.848324	0.099554	-0.312825
Zn3	Zn	2.098324	0.349554	-0.062825
Zn4	Zn	2.348324	0.599554	0.187175
Zn5	Zn	1.598081	-0.274466	-0.438956
Zn6	Zn	1.848081	-0.024466	-0.188956
Zn7	Zn	2.098081	0.225534	0.061044
Zn8	Zn	2.348081	0.475534	0.311044
Zn9	Zn	1.423413	-0.166366	-0.423228
Zn10	Zn	1.673413	0.083634	-0.173228
Zn11	Zn	1.923413	0.333634	0.076772
Zn12	Zn	2.173413	0.583634	0.326772
Zn13	Zn	1.423505	-0.289987	-0.547017
Zn14	Zn	1.673505	-0.039987	-0.297017
Zn15	Zn	1.923505	0.210013	-0.047017
Zn16	Zn	2.173505	0.460013	0.202983
O17	O	1.510831	-0.220316	-0.493006
O18	O	1.760831	0.029684	-0.243006
O19	O	2.010831	0.279684	0.006994
O20	O	2.260831	0.529684	0.256994
O21	O	1.744553	-0.153739	-0.559592
O22	O	1.994553	0.096261	-0.309592
O23	O	2.244553	0.346261	-0.059592
O24	O	2.494553	0.596261	0.190408
O25	O	1.574770	-0.260293	-0.333224
O26	O	1.824770	-0.010293	-0.083224
O27	O	2.074770	0.239707	0.166776
O28	O	2.324770	0.489707	0.416776
O29	O	1.446679	-0.060615	-0.441780
O30	O	1.696679	0.189385	-0.191780
O31	O	1.946679	0.439385	0.058220
O32	O	2.196679	0.689385	0.308220
O33	O	1.744374	-0.244856	-0.468586
O34	O	1.994374	0.005144	-0.218586
O35	O	2.244374	0.255144	0.031414
O36	O	2.494374	0.505144	0.281414
O37	O	1.575185	-0.048919	-0.544341
O38	O	1.825185	0.201081	-0.294341
O39	O	2.075185	0.451081	-0.044341
O40	O	2.325185	0.701081	0.205659
O41	O	1.446442	-0.180872	-0.321668
O42	O	1.696442	0.069128	-0.071668
O43	O	1.946442	0.319128	0.178332
O44	O	2.196442	0.569128	0.428332
O45	O	1.277164	-0.195923	-0.426450
O46	O	1.527164	0.054077	-0.176450
O47	O	1.777164	0.304077	0.073550
O48	O	2.027164	0.554077	0.323550
O49	O	1.446836	-0.271310	-0.652760
O50	O	1.696836	-0.021310	-0.402760
O51	O	1.946836	0.228690	-0.152760
O52	O	2.196836	0.478690	0.097240
O53	O	1.277231	-0.286747	-0.517398
O54	O	1.527231	-0.036747	-0.267398
O55	O	1.777231	0.213253	-0.017398
O56	O	2.027231	0.463253	0.232602
O57	O	1.575275	-0.168789	-0.664374
O58	O	1.825275	0.081211	-0.414374
O59	O	2.075275	0.331211	-0.164374
O60	O	2.325275	0.581211	0.085626
O61	O	1.574859	-0.380163	-0.453257
O62	O	1.824859	-0.130163	-0.203257
O63	O	2.074859	0.119837	0.046743
O64	O	2.324859	0.369837	0.296743
O65	O	1.446599	-0.391567	-0.532648
O66	O	1.696599	-0.141567	-0.282648
O67	O	1.946599	0.108433	-0.032648
O68	O	2.196599	0.358433	0.217352
C69	C	1.239274	-0.244747	-0.468502
C70	C	1.489274	0.005253	-0.218502
C71	C	1.739274	0.255253	0.031498
C72	C	1.989274	0.505253	0.281498
C73	C	1.123100	-0.255217	-0.458037
C74	C	1.373100	-0.005217	-0.208037
C75	C	1.623100	0.244783	0.041963
C76	C	1.873100	0.494783	0.291963
C77	C	0.951327	-0.225684	-0.487658
C78	C	1.201327	0.024316	-0.237658
C79	C	1.451327	0.274316	0.012342
C80	C	1.701327	0.524316	0.262342
C81	C	1.071398	-0.214865	-0.498474
C82	C	1.321398	0.035135	-0.248474
C83	C	1.571398	0.285135	0.001526
C84	C	1.821398	0.535135	0.251526
C85	C	1.510741	-0.412735	-0.492963
C86	C	1.760741	-0.162735	-0.242963
C87	C	2.010741	0.087265	0.007037
C88	C	2.260741	0.337265	0.257037
C89	C	1.510799	-0.495044	-0.492977
C90	C	1.760799	-0.245044	-0.242977
C91	C	2.010799	0.004956	0.007023
C92	C	2.260799	0.254956	0.257023
C93	C	1.510932	-0.794122	-0.493057
C94	C	1.760932	-0.544122	-0.243057
C95	C	2.010932	-0.294122	0.006943
C96	C	2.260932	-0.044122	0.256943
C97	C	1.591404	-0.755612	-0.442932
C98	C	1.841404	-0.505612	-0.192932
C99	C	2.091404	-0.255612	0.057068
C100	C	2.341404	-0.005612	0.307068
C101	C	1.591683	-0.669968	-0.443106
C102	C	1.841683	-0.419968	-0.193106
C103	C	2.091683	-0.169968	0.056894
C104	C	2.341683	0.080032	0.306894
C105	C	1.510866	-0.645746	-0.493017
C106	C	1.760866	-0.395746	-0.243017
C107	C	2.010866	-0.145746	0.006983
C108	C	2.260866	0.104254	0.256983
C109	C	1.540806	-0.673962	-0.573777
C110	C	1.790806	-0.423962	-0.323777
C111	C	2.040806	-0.173962	-0.073777
C112	C	2.290806	0.076038	0.176223
C113	C	1.541429	-0.759552	-0.573520
C114	C	1.791429	-0.509552	-0.323520
C115	C	2.041429	-0.259552	-0.073520
C116	C	2.291429	-0.009552	0.176480
C117	C	1.400306	-0.772614	-0.463078
C118	C	1.650306	-0.522614	-0.213078
C119	C	1.900306	-0.272614	0.036922
C120	C	2.150306	-0.022614	0.286922
C121	C	1.400850	-0.686918	-0.461384
C122	C	1.650850	-0.436918	-0.211384
C123	C	1.900850	-0.186918	0.038616
C124	C	2.150850	0.063082	0.288616
C125	C	1.510827	-0.561890	-0.492999
C126	C	1.760827	-0.311890	-0.242999
C127	C	2.010827	-0.061890	0.007001
C128	C	2.260827	0.188110	0.257001
C129	C	1.510974	-0.877978	-0.493080
C130	C	1.760974	-0.627978	-0.243080
C131	C	2.010974	-0.377978	0.006920
C132	C	2.260974	-0.127978	0.256920
C133	C	1.783448	-0.195790	-0.517607
C134	C	2.033448	0.054210	-0.267607
C135	C	2.283448	0.304210	-0.017607
C136	C	2.533448	0.554210	0.232393
C137	C	1.899622	-0.185339	-0.528090
C138	C	2.149622	0.064661	-0.278090
C139	C	2.399622	0.314661	-0.028090
C140	C	2.649622	0.564661	0.221910
C141	C	1.511093	-0.220005	-0.686193
C142	C	1.761093	0.029995	-0.436193
C143	C	2.011093	0.279995	-0.186193
C144	C	2.261093	0.529995	0.063807
C145	C	1.511204	-0.219872	-0.768517
C146	C	1.761204	0.030128	-0.518517
C147	C	2.011204	0.280128	-0.268517
C148	C	2.261204	0.530128	-0.018517
C149	C	1.510949	-0.027143	-0.493069
C150	C	1.760949	0.222857	-0.243069
C151	C	2.010949	0.472857	0.006931
C152	C	2.260949	0.722857	0.256931
C153	C	1.510999	0.055175	-0.493096
C154	C	1.760999	0.305175	-0.243096
C155	C	2.010999	0.555175	0.006904
C156	C	2.260999	0.805175	0.256904
C157	C	1.510630	-0.220567	-0.300577
C158	C	1.760630	0.029433	-0.050577
C159	C	2.010630	0.279433	0.199423
C160	C	2.260630	0.529433	0.449423
C161	C	1.510721	-0.220473	-0.218272
C162	C	1.760721	0.029527	0.031728
C163	C	2.010721	0.279527	0.281728
C164	C	2.260721	0.529527	0.531728
C165	C	1.510883	-0.220271	-0.067578
C166	C	1.760883	0.029729	0.182422
C167	C	2.010883	0.279729	0.432422
C168	C	2.260883	0.529729	0.682422
C169	C	1.592236	-0.269730	-0.043507
C170	C	1.842236	-0.019730	0.206493
C171	C	2.092236	0.230270	0.456493
C172	C	2.342236	0.480270	0.706493
C173	C	1.592643	-0.269417	0.042074
C174	C	1.842643	-0.019417	0.292074
C175	C	2.092643	0.230583	0.542074
C176	C	2.342643	0.480583	0.792074
C177	C	1.511042	-0.220074	0.080790
C178	C	1.761042	0.029926	0.330790
C179	C	2.011042	0.279926	0.580790
C180	C	2.261042	0.529926	0.830790
C181	C	1.539794	-0.139271	0.046845
C182	C	1.789794	0.110729	0.296845
C183	C	2.039794	0.360729	0.546845
C184	C	2.289794	0.610729	0.796845
C185	C	1.540292	-0.139660	-0.038845
C186	C	1.790292	0.110340	0.211155
C187	C	2.040292	0.360340	0.461155
C188	C	2.290292	0.610340	0.711155
C189	C	1.400601	-0.250911	-0.025871
C190	C	1.650601	-0.000911	0.224129
C191	C	1.900601	0.249089	0.474129
C192	C	2.150601	0.499089	0.724129
C193	C	1.401301	-0.252461	0.059721
C194	C	1.651301	-0.002461	0.309721
C195	C	1.901301	0.247539	0.559721
C196	C	2.151301	0.497539	0.809721
C197	C	1.511131	-0.219958	0.164641
C198	C	1.761131	0.030042	0.414641
C199	C	2.011131	0.280042	0.664641
C200	C	2.261131	0.530042	0.914641
C201	C	1.510797	-0.220382	-0.151430
C202	C	1.760797	0.029618	0.098570
C203	C	2.010797	0.279618	0.348570
C204	C	2.260797	0.529618	0.598570
H205	H	1.572943	-0.650765	-0.383535
H206	H	1.822943	-0.400765	-0.133535
H207	H	2.072943	-0.150765	0.116465
H208	H	2.322943	0.099235	0.366465
H209	H	1.078480	-0.297771	-0.415411
H210	H	1.328480	-0.047771	-0.165411
H211	H	1.578480	0.202229	0.084589
H212	H	1.828480	0.452229	0.334589
H213	H	0.944247	-0.142784	-0.570709
H214	H	1.194247	0.107216	-0.320709
H215	H	1.444247	0.357216	-0.070709
H216	H	1.694247	0.607216	0.179291
H217	H	1.340347	-0.798226	-0.499464
H218	H	1.590347	-0.548226	-0.249464
H219	H	1.840347	-0.298226	0.000536
H220	H	2.090347	-0.048226	0.250536
H221	H	0.906701	-0.268232	-0.445032
H222	H	1.156701	-0.018232	-0.195032
H223	H	1.406701	0.231768	0.054968
H224	H	1.656701	0.481768	0.304968
H225	H	1.572889	-0.777993	-0.383208
H226	H	1.822889	-0.527993	-0.133208
H227	H	2.072889	-0.277993	0.116792
H228	H	2.322889	-0.027993	0.366792
H229	H	1.373084	-0.796794	-0.404688
H230	H	1.623084	-0.546794	-0.154688
H231	H	1.873084	-0.296794	0.095312
H232	H	2.123084	-0.046794	0.345312
H233	H	1.672900	-0.769728	-0.463364
H234	H	1.922900	-0.519728	-0.213364
H235	H	2.172900	-0.269728	0.036636
H236	H	2.422900	-0.019728	0.286636
H237	H	1.340005	-0.215013	-0.040720
H238	H	1.590005	0.034987	0.209280
H239	H	1.840005	0.284987	0.459280
H240	H	2.090005	0.534987	0.709280
H241	H	1.379596	-0.311982	0.082192
H242	H	1.629596	-0.061982	0.332192
H243	H	1.879596	0.188018	0.582192
H244	H	2.129596	0.438018	0.832192
H245	H	1.337661	-0.671173	-0.494419
H246	H	1.587661	-0.421173	-0.244419
H247	H	1.837661	-0.171173	0.005581
H248	H	2.087661	0.078827	0.255581
H249	H	1.620876	-0.114940	-0.066237
H250	H	1.870876	0.135060	0.183763
H251	H	2.120876	0.385060	0.433763
H252	H	2.370876	0.635060	0.683763
H253	H	1.619533	-0.114285	0.060954
H254	H	1.869533	0.135715	0.310954
H255	H	2.119533	0.385715	0.560954
H256	H	2.369533	0.635715	0.810954
H257	H	1.574837	-0.329003	0.064890
H258	H	1.824837	-0.079003	0.314890
H259	H	2.074837	0.170997	0.564890
H260	H	2.324837	0.420997	0.814890
H261	H	1.673504	-0.248809	-0.072500
H262	H	1.923504	0.001191	0.177500
H263	H	2.173504	0.251191	0.427500
H264	H	2.423504	0.501191	0.677500
H265	H	1.374164	-0.309439	-0.044891
H266	H	1.624164	-0.059439	0.205109
H267	H	1.874164	0.190561	0.455109
H268	H	2.124164	0.440561	0.705109
H269	H	1.673627	-0.642032	-0.463730
H270	H	1.923627	-0.392032	-0.213730
H271	H	2.173627	-0.142032	0.036270
H272	H	2.423627	0.107968	0.286270
H273	H	1.337580	-0.219873	0.086828
H274	H	1.587580	0.030127	0.336828
H275	H	1.837580	0.280127	0.586828
H276	H	2.087580	0.530127	0.836828
H277	H	1.116019	-0.172308	-0.541097
H278	H	1.366019	0.077692	-0.291097
H279	H	1.616019	0.327692	-0.041097
H280	H	1.866019	0.577692	0.208903
H281	H	1.485388	-0.785269	-0.612694
H282	H	1.735388	-0.535269	-0.362694
H283	H	1.985388	-0.285269	-0.112694
H284	H	2.235388	-0.035269	0.137306
H285	H	1.622294	-0.772171	-0.597757
H286	H	1.872294	-0.522171	-0.347757
H287	H	2.122294	-0.272171	-0.097757
H288	H	2.372294	-0.022171	0.152243
H289	H	1.483989	-0.658664	-0.612557
H290	H	1.733989	-0.408664	-0.362557
H291	H	1.983989	-0.158664	-0.112557
H292	H	2.233989	0.091336	0.137443
H293	H	1.620766	-0.645236	-0.598218
H294	H	1.870766	-0.395236	-0.348218
H295	H	2.120766	-0.145236	-0.098218
H296	H	2.370766	0.104764	0.151782
H297	H	1.378277	-0.668762	-0.401902
H298	H	1.628277	-0.418762	-0.151902
H299	H	1.878277	-0.168762	0.098098
H300	H	2.128277	0.081238	0.348098
H301	H	1.674422	-0.248233	0.055047
H302	H	1.924422	0.001767	0.305047
H303	H	2.174422	0.251767	0.555047
H304	H	2.424422	0.501767	0.805047
H305	H	1.574541	-0.329530	-0.062307
H306	H	1.824541	-0.079530	0.187693
H307	H	2.074541	0.170470	0.437693
H308	H	2.324541	0.420470	0.687693
H309	H	1.483561	-0.100967	-0.054521
H310	H	1.733561	0.149033	0.195479
H311	H	1.983561	0.399033	0.445479
H312	H	2.233561	0.649033	0.695479
H313	H	1.482371	-0.100898	0.072319
H314	H	1.732371	0.149102	0.322319
H315	H	1.982371	0.399102	0.572319
H316	H	2.232371	0.649102	0.822319
