data_functionalizedCrystal
_audit_creation_method	'MofGen! by Chris Wilmer'
_symmetry_space_group_name_H-M	'P1'
_symmetry_Int_Tables_number	1
_symmetry_cell_setting	triclinic
loop_
_symmetry_equiv_pos_as_xyz
  x,y,z
_cell_length_a	11.792254
_cell_length_b	10.868271
_cell_length_c	16.992695
_cell_angle_alpha	89.994841
_cell_angle_beta	92.566590
_cell_angle_gamma	90.006153
loop_
_atom_site_label
_atom_site_type_symbol
_atom_site_fract_x
_atom_site_fract_y
_atom_site_fract_z
O1	O	-1.515699	-0.102359	0.107560
O2	O	-1.182366	0.230975	0.440893
O3	O	-0.849032	0.564308	0.774226
O4	O	-1.186265	-0.102354	0.118630
O5	O	-0.852932	0.230980	0.451963
O6	O	-0.519599	0.564313	0.785296
O7	O	-1.349662	-0.102346	-0.001054
O8	O	-1.016328	0.230987	0.332280
O9	O	-0.682995	0.564320	0.665613
O10	O	-1.352303	-0.102366	0.227243
O11	O	-1.018970	0.230967	0.560576
O12	O	-0.685636	0.564301	0.893910
O13	O	-1.349645	0.102298	-0.001058
O14	O	-1.016311	0.435632	0.332276
O15	O	-0.682978	0.768965	0.665609
O16	O	-1.186248	0.102291	0.118625
O17	O	-0.852915	0.435624	0.451959
O18	O	-0.519582	0.768958	0.785292
O19	O	-1.515682	0.102286	0.107556
O20	O	-1.182349	0.435619	0.440889
O21	O	-0.849015	0.768953	0.774222
Zn22	Zn	-1.350963	0.134780	0.113090
Zn23	Zn	-1.017629	0.468114	0.446423
Zn24	Zn	-0.684296	0.801447	0.779757
Zn25	Zn	-1.350985	-0.134848	0.113095
Zn26	Zn	-1.017652	0.198485	0.446429
Zn27	Zn	-0.684318	0.531819	0.779762
O28	O	-1.352286	0.102279	0.227239
O29	O	-1.018953	0.435612	0.560572
O30	O	-0.685619	0.768945	0.893905
C31	C	-1.143909	-0.000031	0.117930
C32	C	-0.810576	0.333303	0.451264
C33	C	-0.477243	0.666636	0.784597
C34	C	-1.017725	-0.000028	0.115843
C35	C	-0.684392	0.333305	0.449176
C36	C	-0.351059	0.666638	0.782510
N37	N	-1.350956	0.318794	0.113086
N38	N	-1.017622	0.652128	0.446419
N39	N	-0.684289	0.985461	0.779752
C40	C	-0.915250	-0.000031	0.114147
C41	C	-0.581917	0.333302	0.447480
C42	C	-0.248583	0.666636	0.780814
C43	C	-0.786690	-0.000029	0.112027
C44	C	-0.453357	0.333305	0.445360
C45	C	-0.120023	0.666638	0.778693
C46	C	-1.350971	0.569800	0.113096
C47	C	-1.017638	0.903134	0.446429
C48	C	-0.684305	1.236467	0.779762
C49	C	-1.350959	0.430123	0.113092
C50	C	-1.017626	0.763456	0.446426
C51	C	-0.684293	1.096789	0.779759
C52	C	-0.558038	-0.000034	0.108255
C53	C	-0.224705	0.333300	0.441588
C54	C	0.108628	0.666633	0.774922
C55	C	-0.684222	-0.000026	0.110342
C56	C	-0.350889	0.333307	0.443676
C57	C	-0.017555	0.666640	0.777009
C58	C	-1.346255	-0.000024	-0.030283
C59	C	-1.012922	0.333309	0.303050
C60	C	-0.679589	0.666643	0.636384
C61	C	-1.336117	-0.000024	-0.117370
C62	C	-1.002784	0.333309	0.215963
C63	C	-0.669451	0.666642	0.549296
N64	N	-1.350990	0.681138	0.113096
N65	N	-1.017656	1.014471	0.446430
N66	N	-0.684323	1.347805	0.779763
C67	C	-1.433935	-0.000025	-0.167192
C68	C	-1.100602	0.333309	0.166141
C69	C	-0.767268	0.666642	0.499475
C70	C	-1.424402	-0.000036	-0.249019
C71	C	-1.091069	0.333297	0.084314
C72	C	-0.757736	0.666631	0.417647
C73	C	-1.317051	-0.000039	-0.281024
C74	C	-0.983718	0.333295	0.052310
C75	C	-0.650385	0.666628	0.385643
C76	C	-1.219227	-0.000042	-0.231196
C77	C	-0.885893	0.333291	0.102138
C78	C	-0.552560	0.666625	0.435471
C79	C	-1.228760	-0.000039	-0.149370
C80	C	-0.895427	0.333294	0.183963
C81	C	-0.562093	0.666627	0.517297
C82	C	-1.277539	-0.000055	-0.524791
C83	C	-0.944206	0.333278	-0.191457
C84	C	-0.610872	0.666612	0.141876
C85	C	-1.268013	-0.000054	-0.606623
C86	C	-0.934679	0.333279	-0.273290
C87	C	-0.601346	0.666613	0.060044
C88	C	-1.473190	-0.000050	-0.624441
C89	C	-1.139856	0.333283	-0.291108
C90	C	-0.806523	0.666616	0.042226
C91	C	-1.482714	-0.000040	-0.542613
C92	C	-1.149380	0.333293	-0.209279
C93	C	-0.816047	0.666627	0.124054
C94	C	-1.384889	-0.000050	-0.492792
C95	C	-1.051555	0.333283	-0.159459
C96	C	-0.718222	0.666617	0.173875
N97	N	-1.307305	-0.000046	-0.364664
N98	N	-0.973972	0.333287	-0.031331
N99	N	-0.640639	0.666620	0.302002
N100	N	-1.394636	-0.000051	-0.409153
N101	N	-1.061303	0.333282	-0.075820
N102	N	-0.727969	0.666616	0.257514
C103	C	-1.355692	-0.000046	0.256468
C104	C	-1.022359	0.333287	0.589801
C105	C	-0.689026	0.666620	0.923135
C106	C	-1.365830	-0.000054	0.343556
C107	C	-1.032497	0.333279	0.676889
C108	C	-0.699164	0.666613	1.010222
H109	H	-1.504056	-0.000034	-0.289581
H110	H	-1.170723	0.333300	0.043752
H111	H	-0.837390	0.666633	0.377085
H112	H	-1.197882	-0.000063	-0.484236
H113	H	-0.864549	0.333271	-0.150903
H114	H	-0.531216	0.666604	0.182431
H115	H	-1.180590	-0.000036	-0.632677
H116	H	-0.847257	0.333297	-0.299344
H117	H	-0.513924	0.666631	0.033990
N118	N	-1.578689	-0.000041	-0.678181
N119	N	-1.245356	0.333292	-0.344848
N120	N	-0.912022	0.666625	-0.011514
H121	H	-1.579315	-0.075904	-0.712523
H122	H	-1.245982	0.257429	-0.379189
H123	H	-0.912648	0.590762	-0.045856
H124	H	-1.648084	0.000008	-0.645438
H125	H	-1.314751	0.333341	-0.312104
H126	H	-0.981418	0.666674	0.021229
H127	H	-1.131819	-0.000052	-0.257260
H128	H	-0.798486	0.333281	0.076073
H129	H	-0.465152	0.666615	0.409407
H130	H	-1.149106	-0.000039	-0.108805
H131	H	-0.815773	0.333294	0.224528
H132	H	-0.482440	0.666627	0.557861
H133	H	-1.570130	-0.000038	-0.516561
H134	H	-1.236797	0.333295	-0.183228
H135	H	-0.903463	0.666629	0.150105
H136	H	-1.521351	-0.000015	-0.141141
H137	H	-1.188018	0.333318	0.192192
H138	H	-0.854685	0.666652	0.525526
