data_functionalizedCrystal
_audit_creation_method	'MofGen! by Chris Wilmer'
_symmetry_space_group_name_H-M	'P1'
_symmetry_Int_Tables_number	1
_symmetry_cell_setting	triclinic
loop_
_symmetry_equiv_pos_as_xyz
  x,y,z
_cell_length_a	17.699077
_cell_length_b	23.532357
_cell_length_c	16.776229
_cell_angle_alpha	89.987808
_cell_angle_beta	89.993415
_cell_angle_gamma	83.054434
loop_
_atom_site_label
_atom_site_type_symbol
_atom_site_fract_x
_atom_site_fract_y
_atom_site_fract_z
O1	O	1.003699	0.072005	-0.066287
O2	O	0.783270	0.081379	-0.066293
O3	O	0.900151	-0.006222	-0.066273
O4	O	0.886818	0.159607	-0.066306
O5	O	0.900136	-0.006228	0.066303
O6	O	0.783255	0.081374	0.066284
O7	O	1.003683	0.072000	0.066289
Zn8	Zn	0.893467	0.076686	0.087336
Zn9	Zn	0.893487	0.076693	-0.087339
O10	O	0.886802	0.159602	0.066270
C11	C	0.755067	0.081041	-0.000005
C12	C	0.671054	0.080035	-0.000006
C13	C	0.631581	0.079558	0.072262
C14	C	0.552643	0.078604	0.072264
C15	C	0.513180	0.078131	-0.000005
C16	C	0.552659	0.078606	-0.072279
C17	C	0.631596	0.079556	-0.072279
C18	C	0.234316	0.074773	-0.072279
C19	C	0.155373	0.073825	-0.072274
C20	C	0.155364	0.073821	0.072263
C21	C	0.234300	0.074771	0.072263
C22	C	0.273773	0.075244	-0.000011
C23	C	0.359366	0.076277	-0.000011
C24	C	0.427587	0.077101	-0.000005
C25	C	0.899810	-0.027443	0.000017
C26	C	0.898807	-0.090664	0.000025
C27	C	0.892521	-0.482690	-0.072286
C28	C	0.891567	-0.542093	-0.072290
O29	O	0.891056	-0.572808	-0.133751
N30	N	0.891086	-0.571808	-0.000024
C31	C	0.891551	-0.542117	0.072252
O32	O	0.891053	-0.572847	0.133720
C33	C	0.892499	-0.482716	0.072256
C34	C	0.892987	-0.453004	-0.000016
C35	C	0.893009	-0.452979	-0.144551
C36	C	0.893963	-0.393581	-0.144546
C37	C	0.894430	-0.363895	-0.072276
C38	C	0.893942	-0.393606	-0.000011
C39	C	0.892958	-0.453026	0.144530
C40	C	0.893905	-0.393620	0.144528
C41	C	0.894394	-0.363909	0.072257
C42	C	0.895363	-0.304522	0.072264
N43	N	0.895844	-0.274807	-0.000002
C44	C	0.895377	-0.304493	-0.072272
C45	C	0.889559	-0.666865	0.072238
C46	C	0.888617	-0.726266	0.072236
C47	C	0.888632	-0.726237	-0.072307
C48	C	0.889580	-0.666835	-0.072303
C49	C	0.890040	-0.637149	-0.000028
C50	C	0.897383	-0.179753	-0.072257
C51	C	0.898341	-0.120350	-0.072245
C52	C	0.898321	-0.120384	0.072297
C53	C	0.897368	-0.179782	0.072286
C54	C	0.896896	-0.209465	0.000003
O55	O	0.895872	-0.273769	0.133694
O56	O	0.895865	-0.273755	-0.133730
C57	C	1.031886	0.072338	-0.000000
C58	C	1.115899	0.073344	-0.000004
C59	C	0.887143	0.180822	-0.000022
C60	C	0.888146	0.244043	-0.000035
N61	N	0.893458	0.076681	0.206547
N62	N	0.893501	0.076694	-0.206551
C63	C	0.945229	0.037907	0.248273
C64	C	0.945233	0.037906	0.331725
C65	C	0.893470	0.076683	0.373450
C66	C	0.841694	0.115459	0.331719
C67	C	0.841686	0.115456	0.248268
C68	C	0.841721	0.115470	0.668266
C69	C	0.841734	0.115471	0.751722
C70	C	0.945268	0.037920	0.751723
C71	C	0.945260	0.037917	0.668272
C72	C	0.893482	0.076691	0.626548
C73	C	0.893477	0.076690	0.536060
C74	C	0.893478	0.076687	0.463937
H75	H	0.663734	0.079946	-0.131127
H76	H	0.898705	-0.096203	0.131137
H77	H	0.123216	0.073434	0.131112
O78	O	1.001115	-0.003906	0.796721
H79	H	0.969483	-0.031563	0.834752
H80	H	0.520522	0.078217	-0.131121
O81	O	0.785838	0.157276	0.203271
H82	H	0.749235	0.133330	0.165282
H83	H	0.987413	0.006344	0.634302
H84	H	0.894268	-0.369452	0.203385
O85	O	1.001070	-0.003912	0.376735
H86	H	1.037658	0.020033	0.414745
H87	H	0.896977	-0.203975	0.131135
O88	O	0.785913	0.157305	0.796731
H89	H	0.749906	0.184267	0.753699
O90	O	0.112801	0.073310	-0.150221
H91	H	0.083882	0.034077	-0.153651
O92	O	0.785882	0.157292	0.623269
H93	H	0.795187	0.201680	0.639264
O94	O	0.674143	0.080076	0.150209
H95	H	0.633430	0.079581	0.200462
H96	H	0.888250	-0.750418	-0.131153
O97	O	0.892428	-0.485059	0.222484
H98	H	0.891694	-0.531354	0.210355
H99	H	0.520509	0.078206	0.131112
H100	H	0.799543	0.147030	0.365696
H101	H	0.266445	0.075156	-0.131129
H102	H	0.266427	0.075160	0.131111
O103	O	0.888097	-0.758311	0.150184
H104	H	0.888576	-0.727682	0.200434
H105	H	0.898740	-0.096162	-0.131100
H106	H	0.894358	-0.369394	-0.203397
O107	O	0.896867	-0.211764	-0.150216
H108	H	0.897370	-0.181116	-0.200460
O109	O	0.892498	-0.484984	-0.222513
H110	H	0.943656	-0.517200	-0.225984
O111	O	0.890094	-0.634788	-0.150251
H112	H	0.889604	-0.665416	-0.200501
O113	O	1.001047	-0.003931	0.203276
H114	H	0.992345	0.002579	0.138237
O115	O	0.890076	-0.634849	0.150197
H116	H	0.889592	-0.665497	0.200441
