data_functionalizedCrystal
_audit_creation_method	'MofGen! by Chris Wilmer'
_symmetry_space_group_name_H-M	'P1'
_symmetry_Int_Tables_number	1
_symmetry_cell_setting	triclinic
loop_
_symmetry_equiv_pos_as_xyz
  x,y,z
_cell_length_a	16.959455
_cell_length_b	18.101397
_cell_length_c	16.959447
_cell_angle_alpha	89.966326
_cell_angle_beta	89.979626
_cell_angle_gamma	90.017485
loop_
_atom_site_label
_atom_site_type_symbol
_atom_site_fract_x
_atom_site_fract_y
_atom_site_fract_z
Zn1	Zn	1.208382	-0.294874	-0.447018
Zn2	Zn	1.541715	0.038460	-0.113685
Zn3	Zn	1.875048	0.371793	0.219649
Zn4	Zn	1.208303	-0.418727	-0.314832
Zn5	Zn	1.541637	-0.085393	0.018502
Zn6	Zn	1.874970	0.247940	0.351835
Zn7	Zn	1.076210	-0.294897	-0.314841
Zn8	Zn	1.409543	0.038436	0.018492
Zn9	Zn	1.742877	0.371769	0.351825
Zn10	Zn	1.076174	-0.418672	-0.446956
Zn11	Zn	1.409507	-0.085338	-0.113623
Zn12	Zn	1.742841	0.247995	0.219710
O13	O	1.142267	-0.356792	-0.380912
O14	O	1.475601	-0.023459	-0.047578
O15	O	1.808934	0.309874	0.285755
O16	O	1.318982	-0.311316	-0.429505
O17	O	1.652315	0.022017	-0.096171
O18	O	1.985649	0.355350	0.237162
O19	O	1.190763	-0.402333	-0.204222
O20	O	1.524097	-0.069000	0.129111
O21	O	1.857430	0.264333	0.462445
O22	O	1.093791	-0.191261	-0.332405
O23	O	1.427124	0.142072	0.000928
O24	O	1.760458	0.475405	0.334262
O25	O	1.318925	-0.402311	-0.332388
O26	O	1.652258	-0.068977	0.000945
O27	O	1.985591	0.264356	0.334279
O28	O	1.190897	-0.191244	-0.429514
O29	O	1.524230	0.142089	-0.096181
O30	O	1.857563	0.475423	0.237152
O31	O	1.093715	-0.311356	-0.204229
O32	O	1.427048	0.021977	0.129104
O33	O	1.760382	0.355310	0.462437
O34	O	0.965594	-0.311303	-0.332345
O35	O	1.298928	0.022031	0.000988
O36	O	1.632261	0.355364	0.334322
O37	O	1.093729	-0.402217	-0.557575
O38	O	1.427063	-0.068883	-0.224242
O39	O	1.760396	0.264450	0.109091
O40	O	0.965568	-0.402239	-0.429409
O41	O	1.298901	-0.068906	-0.096076
O42	O	1.632234	0.264427	0.237257
O43	O	1.190862	-0.311263	-0.557621
O44	O	1.524195	0.022070	-0.224287
O45	O	1.857528	0.355404	0.109046
O46	O	1.190728	-0.522352	-0.332328
O47	O	1.524061	-0.189019	0.001005
O48	O	1.857395	0.144314	0.334338
O49	O	1.093653	-0.522312	-0.429400
O50	O	1.426986	-0.188978	-0.096066
O51	O	1.760320	0.144355	0.237267
C52	C	0.936901	-0.356768	-0.380872
C53	C	1.270234	-0.023435	-0.047539
C54	C	1.603568	0.309898	0.285795
C55	C	0.849044	-0.356776	-0.380874
C56	C	1.182378	-0.023442	-0.047540
C57	C	1.515711	0.309891	0.285793
C58	C	0.477528	-0.404126	-0.330317
C59	C	0.810861	-0.070793	0.003016
C60	C	1.144195	0.262541	0.336349
C61	C	0.477609	-0.309520	-0.431602
C62	C	0.810943	0.023813	-0.098269
C63	C	1.144276	0.357147	0.235064
C64	C	0.560155	-0.309508	-0.431583
C65	C	0.893489	0.023825	-0.098250
C66	C	1.226822	0.357159	0.235083
C67	C	0.601391	-0.356806	-0.380931
C68	C	0.934725	-0.023473	-0.047598
C69	C	1.268058	0.309860	0.285736
C70	C	0.560082	-0.404117	-0.330298
C71	C	0.893415	-0.070784	0.003035
C72	C	1.226748	0.262550	0.336368
C73	C	0.601471	-0.262203	-0.482221
C74	C	0.934805	0.071130	-0.148888
C75	C	1.268138	0.404463	0.184446
C76	C	0.684022	-0.262190	-0.482204
C77	C	1.017356	0.071143	-0.148871
C78	C	1.350689	0.404477	0.184462
C79	C	0.725260	-0.309485	-0.431548
C80	C	1.058593	0.023848	-0.098214
C81	C	1.391926	0.357182	0.235119
C82	C	0.683945	-0.356797	-0.380912
C83	C	1.017278	-0.023464	-0.047579
C84	C	1.350612	0.309870	0.285755
C85	C	0.725181	-0.404096	-0.330260
C86	C	1.058514	-0.070762	0.003073
C87	C	1.391848	0.262571	0.336407
C88	C	0.683868	-0.451404	-0.279620
C89	C	1.017201	-0.118071	0.053714
C90	C	1.350534	0.215262	0.387047
C91	C	0.601319	-0.451412	-0.279642
C92	C	0.934653	-0.118079	0.053692
C93	C	1.267986	0.215254	0.387025
C94	C	0.807808	-0.309477	-0.431526
C95	C	1.141142	0.023856	-0.098192
C96	C	1.474475	0.357189	0.235141
C97	C	0.807735	-0.404086	-0.330241
C98	C	1.141068	-0.070753	0.003093
C99	C	1.474401	0.262580	0.336426
C100	C	1.142200	-0.549203	-0.380873
C101	C	1.475533	-0.215870	-0.047540
C102	C	1.808866	0.117464	0.285793
C103	C	1.142243	-0.631517	-0.380884
C104	C	1.475576	-0.298184	-0.047550
C105	C	1.808910	0.035150	0.285783
C106	C	1.142344	-0.930608	-0.380956
C107	C	1.475677	-0.597275	-0.047622
C108	C	1.809011	-0.263941	0.285711
C109	C	1.203250	-0.899277	-0.319717
C110	C	1.536584	-0.565944	0.013616
C111	C	1.869917	-0.232611	0.346949
C112	C	1.203461	-0.813659	-0.319876
C113	C	1.536795	-0.480325	0.013457
C114	C	1.870128	-0.146992	0.346791
C115	C	1.142294	-0.782225	-0.380919
C116	C	1.475627	-0.448892	-0.047586
C117	C	1.808961	-0.115559	0.285747
C118	C	1.164869	-0.813230	-0.464238
C119	C	1.498202	-0.479896	-0.130905
C120	C	1.831536	-0.146563	0.202429
C121	C	1.165340	-0.898875	-0.463904
C122	C	1.498674	-0.565541	-0.130571
C123	C	1.832007	-0.232208	0.202762
C124	C	1.058700	-0.899114	-0.359596
C125	C	1.392033	-0.565781	-0.026263
C126	C	1.725366	-0.232447	0.307070
C127	C	1.059113	-0.813465	-0.357737
C128	C	1.392446	-0.480131	-0.024403
C129	C	1.725779	-0.146798	0.308930
C130	C	1.142264	-0.698366	-0.380904
C131	C	1.475598	-0.365033	-0.047570
C132	C	1.808931	-0.031699	0.285763
C133	C	1.142375	-1.014467	-0.380977
C134	C	1.475709	-0.681134	-0.047643
C135	C	1.809042	-0.347801	0.285690
C136	C	1.348435	-0.356817	-0.380952
C137	C	1.681769	-0.023484	-0.047619
C138	C	2.015102	0.309850	0.285714
C139	C	1.436292	-0.356828	-0.380969
C140	C	1.769625	-0.023494	-0.047636
C141	C	2.102959	0.309839	0.285697
C142	C	1.142300	-0.356731	-0.587080
C143	C	1.475633	-0.023398	-0.253747
C144	C	1.808967	0.309936	0.079587
C145	C	1.142314	-0.356705	-0.674937
C146	C	1.475647	-0.023372	-0.341603
C147	C	1.808981	0.309962	-0.008270
C148	C	1.142357	-0.163630	-0.380968
C149	C	1.475690	0.169703	-0.047634
C150	C	1.809023	0.503036	0.285699
C151	C	1.142395	-0.081316	-0.380991
C152	C	1.475728	0.252017	-0.047658
C153	C	1.809061	0.585350	0.285675
C154	C	1.091836	-0.403982	-1.046391
C155	C	1.425169	-0.070649	-0.713058
C156	C	1.758503	0.262684	-0.379725
C157	C	1.192981	-0.309271	-1.046434
C158	C	1.526314	0.024062	-0.713100
C159	C	1.859648	0.357395	-0.379767
C160	C	1.192960	-0.309287	-0.963888
C161	C	1.526293	0.024046	-0.630554
C162	C	1.859627	0.357380	-0.297221
C163	C	1.142377	-0.356652	-0.922590
C164	C	1.475710	-0.023319	-0.589257
C165	C	1.809044	0.310015	-0.255923
C166	C	1.091815	-0.404001	-0.963838
C167	C	1.425149	-0.070668	-0.630505
C168	C	1.758482	0.262666	-0.297171
C169	C	1.243527	-0.261944	-0.922634
C170	C	1.576860	0.071389	-0.589300
C171	C	1.910193	0.404722	-0.255967
C172	C	1.243508	-0.261959	-0.840083
C173	C	1.576842	0.071375	-0.506749
C174	C	1.910175	0.404708	-0.173416
C175	C	1.192921	-0.309320	-0.798783
C176	C	1.526254	0.024013	-0.465450
C177	C	1.859587	0.357346	-0.132117
C178	C	1.142356	-0.356671	-0.840036
C179	C	1.475689	-0.023337	-0.506703
C180	C	1.809023	0.309996	-0.173370
C181	C	1.091773	-0.404035	-0.798738
C182	C	1.425107	-0.070702	-0.465405
C183	C	1.758440	0.262631	-0.132072
C184	C	1.041204	-0.451382	-0.839990
C185	C	1.374537	-0.118049	-0.506657
C186	C	1.707871	0.215284	-0.173323
C187	C	1.041228	-0.451362	-0.922538
C188	C	1.374561	-0.118029	-0.589205
C189	C	1.707894	0.215304	-0.255872
C190	C	1.192897	-0.309340	-0.716235
C191	C	1.526230	0.023993	-0.382901
C192	C	1.859564	0.357326	-0.049568
C193	C	1.091752	-0.404054	-0.716185
C194	C	1.425086	-0.070721	-0.382851
C195	C	1.758419	0.262613	-0.049518
C196	C	1.142280	-0.356800	-0.175546
C197	C	1.475613	-0.023467	0.157788
C198	C	1.808947	0.309867	0.491121
C199	C	1.142419	-0.356617	-0.087689
C200	C	1.475752	-0.023284	0.245644
C201	C	1.809086	0.310049	0.578977
H202	H	0.717453	-0.489919	-0.238383
H203	H	1.050786	-0.156585	0.094950
H204	H	1.384120	0.176748	0.428284
H205	H	0.567675	-0.489928	-0.238413
H206	H	0.901008	-0.156595	0.094921
H207	H	1.234341	0.176739	0.428254
H208	H	1.050662	-0.442529	-1.079982
H209	H	1.383995	-0.109196	-0.746649
H210	H	1.717328	0.224138	-0.413316
H211	H	1.284713	-0.223387	-0.956264
H212	H	1.618047	0.109946	-0.622931
H213	H	1.951380	0.443280	-0.289598
H214	H	1.189338	-0.792700	-0.258097
H215	H	1.522672	-0.459366	0.075237
H216	H	1.856005	-0.126033	0.408570
H217	H	0.443887	-0.442642	-0.289085
H218	H	0.777221	-0.109308	0.044248
H219	H	1.110554	0.224025	0.377581
H220	H	1.042090	-0.793208	-0.296421
H221	H	1.375424	-0.459875	0.036913
H222	H	1.708757	-0.126542	0.370246
H223	H	1.284684	-0.223405	-0.806503
H224	H	1.618018	0.109928	-0.473169
H225	H	1.951351	0.443261	-0.139836
H226	H	0.444030	-0.271016	-0.472845
H227	H	0.777363	0.062317	-0.139512
H228	H	1.110697	0.395651	0.193821
H229	H	1.189298	-0.919923	-0.257753
H230	H	1.522631	-0.586590	0.075580
H231	H	1.855965	-0.253256	0.408914
H232	H	0.567891	-0.223700	-0.523464
H233	H	0.901224	0.109633	-0.190131
H234	H	1.234557	0.442966	0.143203
H235	H	1.234168	-0.270713	-1.080063
H236	H	1.567501	0.062620	-0.746730
H237	H	1.900834	0.395953	-0.413397
H238	H	1.225325	-0.791724	-0.482636
H239	H	1.558658	-0.458391	-0.149302
H240	H	1.891991	-0.125057	0.184031
H241	H	1.121864	-0.792866	-0.511093
H242	H	1.455197	-0.459532	-0.177759
H243	H	1.788531	-0.126199	0.155574
H244	H	1.038161	-0.920776	-0.299894
H245	H	1.371494	-0.587443	0.033440
H246	H	1.704828	-0.254110	0.366773
H247	H	0.717653	-0.223668	-0.523438
H248	H	1.050986	0.109666	-0.190105
H249	H	1.384319	0.442999	0.143228
H250	H	1.011292	-0.792075	-0.399073
H251	H	1.344626	-0.458741	-0.065739
H252	H	1.677959	-0.125408	0.267594
H253	H	0.841442	-0.270961	-0.472758
H254	H	1.174775	0.062373	-0.139424
H255	H	1.508109	0.395706	0.193909
H256	H	1.264871	-0.920748	-0.333688
H257	H	1.598204	-0.587414	-0.000354
H258	H	1.931538	-0.254081	0.332979
H259	H	1.265421	-0.793118	-0.334009
H260	H	1.598754	-0.459784	-0.000675
H261	H	1.932087	-0.126451	0.332658
H262	H	1.226480	-0.918796	-0.481997
H263	H	1.559814	-0.585462	-0.148663
H264	H	1.893147	-0.252129	0.184670
H265	H	1.234072	-0.270793	-0.682651
H266	H	1.567405	0.062540	-0.349318
H267	H	1.900739	0.395874	-0.015985
H268	H	0.841303	-0.442600	-0.288990
H269	H	1.174637	-0.109267	0.044343
H270	H	1.507970	0.224066	0.377676
H271	H	1.013320	-0.919375	-0.404199
H272	H	1.346653	-0.586042	-0.070865
H273	H	1.679986	-0.252708	0.262468
H274	H	1.122922	-0.919597	-0.511104
H275	H	1.456255	-0.586263	-0.177771
H276	H	1.789588	-0.252930	0.155562
H277	H	1.050554	-0.442618	-0.682566
H278	H	1.383887	-0.109285	-0.349232
H279	H	1.717220	0.224049	-0.015899
H280	H	1.000023	-0.489950	-0.806354
H281	H	1.333356	-0.156617	-0.473021
H282	H	1.666690	0.176717	-0.139688
H283	H	1.000059	-0.489912	-0.956133
H284	H	1.333393	-0.156579	-0.622800
H285	H	1.666726	0.176754	-0.289466
