data_functionalizedCrystal
_audit_creation_method	'MofGen! by Chris Wilmer'
_symmetry_space_group_name_H-M	'P1'
_symmetry_Int_Tables_number	1
_symmetry_cell_setting	triclinic
loop_
_symmetry_equiv_pos_as_xyz
  x,y,z
_cell_length_a	10.967874
_cell_length_b	10.654549
_cell_length_c	10.065875
_cell_angle_alpha	98.875874
_cell_angle_beta	69.229500
_cell_angle_gamma	84.600549
loop_
_atom_site_label
_atom_site_type_symbol
_atom_site_fract_x
_atom_site_fract_y
_atom_site_fract_z
O1	O	1.740621	0.091832	-0.522856
O2	O	1.363316	0.123002	-0.434122
O3	O	1.560639	-0.075651	-0.480523
O4	O	1.543298	0.290485	-0.476455
O5	O	1.523014	-0.037623	-0.244687
O6	O	1.325691	0.161030	-0.198286
O7	O	1.702996	0.129860	-0.287020
Zn8	Zn	1.508369	0.151483	-0.205209
Zn9	Zn	1.557943	0.101379	-0.515933
O10	O	1.505672	0.328513	-0.240619
C11	C	1.296191	0.142621	-0.304842
C12	C	1.152235	0.144410	-0.270987
C13	C	1.107547	0.125507	-0.378064
C14	C	0.958761	0.127355	-0.343075
C15	C	1.540552	-0.103387	-0.362307
C16	C	1.536739	-0.242685	-0.361415
C17	C	1.765533	-0.541379	-0.415215
C18	C	1.885305	-0.494401	-0.443380
C19	C	1.888893	-0.363520	-0.444225
C20	C	1.772696	-0.279611	-0.416899
C21	C	1.652923	-0.326589	-0.388734
C22	C	1.649348	-0.457475	-0.387895
C23	C	1.416967	-0.289663	-0.333250
C24	C	1.413377	-0.420545	-0.332413
C25	C	1.300769	-0.205754	-0.305923
C26	C	1.180995	-0.252733	-0.277768
C27	C	1.177412	-0.383623	-0.276925
C28	C	1.293605	-0.467523	-0.304248
C29	C	1.770121	0.110241	-0.416303
C30	C	1.914078	0.108451	-0.450167
C31	C	1.525760	0.356249	-0.358838
C32	C	1.529575	0.495546	-0.359740
N33	N	1.474546	0.185676	0.006850
N34	N	1.591776	0.067176	-0.727995
C35	C	1.546166	0.113269	0.057788
C36	C	1.520145	0.139594	0.221074
H37	H	1.080344	0.161968	-0.153412
H38	H	1.626743	0.031783	-0.019484
H39	H	1.762626	-0.647954	-0.414547
C40	C	0.733119	0.148282	-0.180403
C41	C	0.861728	0.151042	-0.184340
H42	H	0.673219	0.162895	-0.082408
H43	H	0.710224	0.213495	-0.225875
H44	H	0.728691	0.066571	-0.230238
H45	H	0.866159	0.232757	-0.134514
H46	H	0.884629	0.085825	-0.138847
H47	H	1.393961	0.267152	0.084126
C48	C	1.439260	0.366653	0.284362
C49	C	1.411351	0.249597	0.325372
H50	H	1.372090	0.434559	0.348748
H51	H	1.522118	0.381415	0.288218
H52	H	1.442477	0.363377	0.188311
H53	H	1.408144	0.252871	0.421420
H54	H	1.328470	0.234833	0.321530
H55	H	1.179436	0.107963	-0.495638
H56	H	0.985963	0.090907	-0.567751
H57	H	1.979910	-0.562733	-0.465624
H58	H	1.672357	-0.014314	0.194736
C59	C	2.121782	-0.413156	-0.499005
C60	C	2.020549	-0.311876	-0.475195
H61	H	2.203060	-0.381272	-0.518135
H62	H	2.102365	-0.450171	-0.415283
H63	H	2.128590	-0.476704	-0.579763
H64	H	2.013734	-0.248332	-0.394430
H65	H	2.039971	-0.274841	-0.558926
C66	C	1.906301	-0.112227	-0.448302
C67	C	1.776638	-0.135742	-0.417818
H68	H	1.908730	-0.023409	-0.448877
H69	H	1.935924	-0.135394	-0.376116
H70	H	1.962179	-0.161918	-0.540603
H71	H	1.720760	-0.086058	-0.325513
H72	H	1.746998	-0.112561	-0.490009
H73	H	1.303698	-0.099184	-0.306605
C74	C	0.947395	-0.229372	-0.222842
C75	C	1.053282	-0.160503	-0.247732
H76	H	0.868549	-0.172426	-0.204293
H77	H	0.964028	-0.294439	-0.305909
H78	H	0.937784	-0.267939	-0.141425
H79	H	1.062899	-0.121944	-0.329156
H80	H	1.036645	-0.095413	-0.164656
H81	H	1.079876	-0.421860	-0.253974
H82	H	1.290700	-0.574097	-0.303573
