data_functionalizedCrystal
_audit_creation_method	'MofGen! by Chris Wilmer'
_symmetry_space_group_name_H-M	'P1'
_symmetry_Int_Tables_number	1
_symmetry_cell_setting	triclinic
loop_
_symmetry_equiv_pos_as_xyz
  x,y,z
_cell_length_a	12.837943
_cell_length_b	12.784905
_cell_length_c	11.892113
_cell_angle_alpha	94.701746
_cell_angle_beta	93.960051
_cell_angle_gamma	83.968130
loop_
_atom_site_label
_atom_site_type_symbol
_atom_site_fract_x
_atom_site_fract_y
_atom_site_fract_z
O1	O	1.356089	0.280414	0.093982
O2	O	1.055503	0.266889	0.093988
O3	O	1.227792	0.121152	0.093981
O4	O	1.183800	0.426151	0.093989
O5	O	1.217143	0.107944	-0.094026
O6	O	1.044855	0.253681	-0.094019
O7	O	1.345441	0.267207	-0.094025
Zn8	Zn	1.193457	0.258347	-0.123873
Zn9	Zn	1.207487	0.275749	0.123835
O10	O	1.173152	0.412944	-0.094019
C11	C	1.011970	0.255716	-0.000015
C12	C	0.898121	0.242088	-0.000013
C13	C	1.225329	0.075238	-0.000021
C14	C	1.233842	-0.041893	-0.000016
C15	C	1.388974	0.278380	-0.000020
C16	C	1.502823	0.292008	-0.000015
N17	N	1.183889	0.246471	-0.292927
C18	C	1.758548	0.128176	-0.000030
C19	C	1.865520	0.140976	-0.000025
C20	C	1.823741	0.330407	-0.000008
C21	C	1.716769	0.317607	-0.000013
C22	C	1.684177	0.216488	-0.000022
C23	C	1.577203	0.203690	-0.000019
C24	C	1.535426	0.393119	-0.000010
C25	C	1.642398	0.405919	-0.000005
C26	C	1.175615	0.458857	-0.000014
C27	C	1.167102	0.575989	-0.000011
C28	C	1.340544	0.789939	-0.000030
C29	C	1.332550	0.899994	-0.000028
C30	C	1.143121	0.906157	-0.000011
C31	C	1.151115	0.796102	-0.000014
C32	C	1.249830	0.737996	-0.000022
C33	C	1.257823	0.627939	-0.000016
C34	C	1.068395	0.634104	-0.000008
C35	C	1.060401	0.744159	-0.000005
C36	C	1.283622	0.370307	-0.529575
C37	C	1.276943	0.361998	-0.647917
C38	C	1.163860	0.221539	-0.647954
C39	C	1.170539	0.229848	-0.529613
C40	C	1.230420	0.304236	-0.470427
C41	C	1.237092	0.312550	-0.352083
C42	C	1.124016	0.172086	-0.352123
C43	C	1.117337	0.163776	-0.470465
N44	N	1.217063	0.287617	0.292889
H45	H	1.550669	0.121354	-0.000022
H46	H	1.926071	0.069062	-0.000032
H47	H	1.474860	0.465030	-0.000003
H48	H	1.338202	0.580632	-0.000016
F49	F	1.677098	0.513531	0.000005
H50	H	1.332369	0.430886	-0.481385
F51	F	1.429100	0.955271	-0.000039
F52	F	1.333570	0.432319	-0.710863
H53	H	1.420922	0.742629	-0.000022
F54	F	1.100138	0.142374	-0.710963
F55	F	1.038071	0.968013	-0.000011
F56	F	0.955348	0.806010	0.000001
H57	H	0.994529	0.591801	0.000003
F58	F	1.300823	0.391718	-0.289095
H59	H	1.850297	0.412732	-0.000011
F60	F	1.067386	0.101768	-0.289165
F61	F	1.723858	0.020560	-0.000034
F62	F	1.053611	0.084612	-0.533466
