data_functionalizedCrystal
_audit_creation_method	'MofGen! by Chris Wilmer'
_symmetry_space_group_name_H-M	'P1'
_symmetry_Int_Tables_number	1
_symmetry_cell_setting	triclinic
loop_
_symmetry_equiv_pos_as_xyz
  x,y,z
_cell_length_a	9.065218
_cell_length_b	22.610064
_cell_length_c	9.065218
_cell_angle_alpha	90.005986
_cell_angle_beta	85.015919
_cell_angle_gamma	89.989482
loop_
_atom_site_label
_atom_site_type_symbol
_atom_site_fract_x
_atom_site_fract_y
_atom_site_fract_z
O1	O	-1.960411	0.049212	-0.216338
O2	O	-1.531127	0.049207	-0.234084
O3	O	-1.754642	0.049208	-0.010569
O4	O	-1.736896	0.049210	-0.439854
O5	O	-1.754603	-0.049161	-0.010601
O6	O	-1.531087	-0.049163	-0.234117
O7	O	-1.960372	-0.049157	-0.216371
Zn8	Zn	-1.745723	-0.064778	-0.225249
Zn9	Zn	-1.745775	0.064828	-0.225206
O10	O	-1.736856	-0.049159	-0.439886
C11	C	-1.476120	0.000021	-0.232395
C12	C	-1.312277	0.000019	-0.227295
N13	N	-1.745698	-0.153230	-0.225277
C14	C	-1.844753	-0.561871	-0.126249
C15	C	-1.844760	-0.623791	-0.126238
O16	O	-1.928917	-0.655809	-0.042062
N17	N	-1.745774	-0.654768	-0.225175
C18	C	-1.646763	-0.623821	-0.324120
O19	O	-1.562567	-0.655855	-0.408271
C20	C	-1.646750	-0.561902	-0.324122
C21	C	-1.745753	-0.530929	-0.225188
C22	C	-1.943747	-0.530898	-0.027322
C23	C	-1.943741	-0.468982	-0.027335
C24	C	-1.844741	-0.438040	-0.126275
C25	C	-1.745747	-0.469013	-0.225201
C26	C	-1.547733	-0.530957	-0.423057
C27	C	-1.547728	-0.469034	-0.423050
C28	C	-1.646731	-0.438061	-0.324117
C29	C	-1.646741	-0.376156	-0.324153
N30	N	-1.745728	-0.345179	-0.225216
C31	C	-1.844728	-0.376121	-0.126277
C32	C	-1.646797	-0.753855	-0.324105
C33	C	-1.646816	-0.815772	-0.324111
C34	C	-1.844812	-0.815738	-0.126228
C35	C	-1.844799	-0.753819	-0.126230
C36	C	-1.745784	-0.722878	-0.225168
C37	C	-1.844709	-0.246094	-0.126312
C38	C	-1.844698	-0.184173	-0.126338
C39	C	-1.646698	-0.184212	-0.324215
C40	C	-1.646713	-0.246128	-0.324196
C41	C	-1.745724	-0.277067	-0.225232
O42	O	-1.562623	-0.344098	-0.408283
O43	O	-1.928896	-0.344080	-0.042126
C44	C	-1.015378	0.000026	-0.218060
C45	C	-1.179221	0.000021	-0.223159
C46	C	-1.752917	0.000025	0.044402
C47	C	-1.747817	0.000027	0.208244
N48	N	-1.745812	0.153280	-0.225166
C49	C	-1.738581	0.000026	-0.494856
C50	C	-1.743681	0.000027	-0.658699
H51	H	-1.925323	-0.158956	-0.045774
H52	H	-1.925330	-0.271277	-0.045725
Cl53	Cl	-2.068196	-0.430051	0.097053
H54	H	-2.024364	-0.556085	0.053253
H55	H	-1.925414	-0.728604	-0.045669
Cl56	Cl	-1.969265	-0.854650	-0.001843
Cl57	Cl	-1.522371	-0.854703	-0.448510
Cl58	Cl	-1.522321	-0.714963	-0.448509
H59	H	-1.467116	-0.556167	-0.503617
H60	H	-1.566110	-0.271347	-0.404771
H61	H	-1.566098	-0.159010	-0.404775
H62	H	-1.467093	-0.443845	-0.503616
