data_functionalizedCrystal
_audit_creation_method	'MofGen! by Chris Wilmer'
_symmetry_space_group_name_H-M	'P1'
_symmetry_Int_Tables_number	1
_symmetry_cell_setting	triclinic
loop_
_symmetry_equiv_pos_as_xyz
  x,y,z
_cell_length_a	18.050591
_cell_length_b	17.077402
_cell_length_c	17.077396
_cell_angle_alpha	90.029784
_cell_angle_beta	89.974392
_cell_angle_gamma	89.981111
loop_
_atom_site_label
_atom_site_type_symbol
_atom_site_fract_x
_atom_site_fract_y
_atom_site_fract_z
Zn1	Zn	1.135354	0.312592	-0.443963
Zn2	Zn	1.468688	0.645925	-0.110630
Zn3	Zn	1.802021	0.979258	0.222703
Zn4	Zn	1.135267	0.443867	-0.312694
Zn5	Zn	1.468600	0.777200	0.020639
Zn6	Zn	1.801933	1.110533	0.353972
Zn7	Zn	1.011163	0.312610	-0.312697
Zn8	Zn	1.344497	0.645943	0.020636
Zn9	Zn	1.677830	0.979276	0.353969
Zn10	Zn	1.011133	0.443810	-0.443904
Zn11	Zn	1.344467	0.777144	-0.110571
Zn12	Zn	1.677800	1.110477	0.222763
O13	O	1.073229	0.378220	-0.378315
O14	O	1.406563	0.711553	-0.044982
O15	O	1.739896	1.044886	0.288352
O16	O	1.239267	0.330022	-0.426574
O17	O	1.572601	0.663355	-0.093241
O18	O	1.905934	0.996688	0.240093
O19	O	1.118780	0.426486	-0.202848
O20	O	1.452113	0.759819	0.130485
O21	O	1.785447	1.093153	0.463819
O22	O	1.027687	0.202760	-0.330136
O23	O	1.361020	0.536094	0.003197
O24	O	1.694354	0.869427	0.336530
O25	O	1.239203	0.426469	-0.330131
O26	O	1.572536	0.759802	0.003202
O27	O	1.905869	1.093135	0.336535
O28	O	1.118930	0.202747	-0.426577
O29	O	1.452263	0.536081	-0.093244
O30	O	1.785596	0.869414	0.240090
O31	O	1.027602	0.330052	-0.202850
O32	O	1.360935	0.663386	0.130483
O33	O	1.694269	0.996719	0.463817
O34	O	0.907235	0.329998	-0.330079
O35	O	1.240568	0.663331	0.003255
O36	O	1.573902	0.996664	0.336588
O37	O	1.027636	0.426373	-0.553759
O38	O	1.360969	0.759706	-0.220426
O39	O	1.694302	1.093040	0.112908
O40	O	0.907213	0.426390	-0.426476
O41	O	1.240546	0.759724	-0.093142
O42	O	1.573879	1.093057	0.240191
O43	O	1.118900	0.329967	-0.553803
O44	O	1.452234	0.663300	-0.220469
O45	O	1.785567	0.996634	0.112864
O46	O	1.118751	0.553706	-0.330074
O47	O	1.452084	0.887039	0.003260
O48	O	1.785417	1.220373	0.336593
O49	O	1.027550	0.553665	-0.426473
O50	O	1.360884	0.886998	-0.093139
O51	O	1.694217	1.220331	0.240194
C52	C	0.880277	0.378190	-0.378271
C53	C	1.213611	0.711524	-0.044938
C54	C	1.546944	1.044857	0.288395
C55	C	0.797732	0.378197	-0.378272
C56	C	1.131065	0.711530	-0.044938
C57	C	1.464398	1.044863	0.288395
C58	C	1.073158	0.582167	-0.378284
C59	C	1.406491	0.915501	-0.044950
C60	C	1.739824	1.248834	0.288383
C61	C	1.073195	0.669417	-0.378296
C62	C	1.406528	1.002751	-0.044963
C63	C	1.739862	1.336084	0.288370
C64	C	1.073274	0.378162	-0.583059
C65	C	1.406608	0.711495	-0.249726
C66	C	1.739941	1.044828	0.083607
C67	C	1.073294	0.378137	-0.670309
C68	C	1.406627	0.711470	-0.336976
C69	C	1.739960	1.044804	-0.003642
C70	C	0.598271	0.325718	-0.325972
C71	C	0.931605	0.659051	0.007362
C72	C	1.264938	0.992384	0.340695
C73	C	0.548857	0.397316	-0.306653
C74	C	0.882190	0.730649	0.026680
C75	C	1.215523	1.063982	0.360014
C76	C	0.646601	0.378221	-0.378307
C77	C	0.979934	0.711554	-0.044974
C78	C	1.313268	1.044887	0.288360
C79	C	0.548934	0.306647	-0.397623
C80	C	0.882268	0.639981	-0.064290
C81	C	1.215601	0.973314	0.269043
C82	C	0.500616	0.378237	-0.378340
C83	C	0.833949	0.711571	-0.045006
C84	C	1.167283	1.044904	0.288327
C85	C	0.598273	0.449856	-0.358951
C86	C	0.931607	0.783190	-0.025618
C87	C	1.264940	1.116523	0.307716
C88	C	0.598356	0.359140	-0.449955
C89	C	0.931689	0.692473	-0.116622
C90	C	1.265022	1.025806	0.216712
C91	C	0.548963	0.430787	-0.430663
C92	C	0.882296	0.764120	-0.097330
C93	C	1.215630	1.097454	0.236003
C94	C	0.730699	0.378210	-0.378286
C95	C	1.064033	0.711543	-0.044953
C96	C	1.397366	1.044877	0.288381
C97	C	0.416520	0.378256	-0.378361
C98	C	0.749853	0.711589	-0.045027
C99	C	1.083186	1.044923	0.288306
C100	C	1.266935	0.378249	-0.378359
C101	C	1.600268	0.711583	-0.045026
C102	C	1.933602	1.044916	0.288308
C103	C	1.349481	0.378262	-0.378378
C104	C	1.682814	0.711596	-0.045044
C105	C	2.016147	1.044929	0.288289
C106	C	1.073322	0.173475	-0.378364
C107	C	1.406655	0.506809	-0.045030
C108	C	1.739988	0.840142	0.288303
C109	C	1.073361	0.086225	-0.378384
C110	C	1.406694	0.419559	-0.045051
C111	C	1.740028	0.752892	0.288282
C112	C	1.120731	0.710403	-0.328155
C113	C	1.454065	1.043736	0.005178
C114	C	1.787398	1.377070	0.338511
C115	C	1.120768	0.792383	-0.328175
C116	C	1.454101	1.125717	0.005158
C117	C	1.787434	1.459050	0.338491
C118	C	1.073263	0.833377	-0.378333
C119	C	1.406597	1.166710	-0.045000
C120	C	1.739930	1.500043	0.288334
C121	C	1.025725	0.792385	-0.428480
C122	C	1.359058	1.125719	-0.095146
C123	C	1.692391	1.459052	0.238187
C124	C	1.025693	0.710406	-0.428463
C125	C	1.359026	1.043740	-0.095130
C126	C	1.692359	1.377073	0.238204
C127	C	1.025794	0.963255	-0.428510
C128	C	1.359127	1.296589	-0.095176
C129	C	1.692460	1.629922	0.238157
C130	C	1.025824	1.045240	-0.428525
C131	C	1.359158	1.378573	-0.095192
C132	C	1.692491	1.711907	0.238141
C133	C	1.120869	1.045232	-0.328222
C134	C	1.454202	1.378566	0.005112
C135	C	1.787535	1.711899	0.338445
C136	C	1.120837	0.963253	-0.328205
C137	C	1.454170	1.296587	0.005128
C138	C	1.787503	1.629920	0.338462
C139	C	1.073297	0.922268	-0.378351
C140	C	1.406630	1.255601	-0.045018
C141	C	1.739964	1.588934	0.288316
C142	C	1.120817	0.327934	-0.711323
C143	C	1.454150	0.661268	-0.377990
C144	C	1.787483	0.994601	-0.044657
C145	C	1.120826	0.327908	-0.793304
C146	C	1.454159	0.661242	-0.459970
C147	C	1.787492	0.994575	-0.126637
C148	C	1.073315	0.378089	-0.834269
C149	C	1.406648	0.711423	-0.500935
C150	C	1.739981	1.044756	-0.167602
C151	C	1.025786	0.428294	-0.793249
C152	C	1.359119	0.761628	-0.459915
C153	C	1.692453	1.094961	-0.126582
C154	C	1.025774	0.428316	-0.711270
C155	C	1.359107	0.761649	-0.377936
C156	C	1.692441	1.094982	-0.044603
C157	C	1.025816	0.428247	-0.964119
C158	C	1.359149	0.761580	-0.630786
C159	C	1.692483	1.094914	-0.297452
C160	C	1.025829	0.428227	-1.046104
C161	C	1.359162	0.761560	-0.712770
C162	C	1.692496	1.094893	-0.379437
C163	C	1.120868	0.327840	-1.046153
C164	C	1.454201	0.661173	-0.712820
C165	C	1.787534	0.994506	-0.379486
C166	C	1.120856	0.327861	-0.964174
C167	C	1.454189	0.661194	-0.630841
C168	C	1.787522	0.994528	-0.297507
C169	C	1.073328	0.378067	-0.923160
C170	C	1.406661	0.711401	-0.589826
C171	C	1.739995	1.044734	-0.256493
C172	C	1.073227	0.378221	-0.174367
C173	C	1.406561	0.711554	0.158966
C174	C	1.739894	1.044887	0.492300
C175	C	1.073352	0.378024	-0.087118
C176	C	1.406685	0.711357	0.246216
C177	C	1.740019	1.044691	0.579549
H178	H	0.619922	0.281365	-0.281665
H179	H	0.953255	0.614699	0.051668
H180	H	1.286588	0.948032	0.385001
H181	H	0.527115	0.413467	-0.246076
H182	H	0.860449	0.746801	0.087257
H183	H	1.193782	1.080134	0.420591
Cl184	Cl	0.631949	0.334171	-0.543456
Cl185	Cl	0.965283	0.667505	-0.210123
Cl186	Cl	1.298616	1.000838	0.123211
H187	H	0.987156	1.078614	-0.469383
H188	H	1.320489	1.411948	-0.136050
H189	H	1.653823	1.745281	0.197284
H190	H	0.987068	0.469188	-0.677877
H191	H	1.320401	0.802521	-0.344544
H192	H	1.653735	1.135855	-0.011210
Cl193	Cl	0.966055	0.491377	-0.844748
Cl194	Cl	1.299388	0.824710	-0.511414
Cl195	Cl	1.632721	1.158043	-0.178081
Cl196	Cl	1.180533	0.843905	-0.265140
Cl197	Cl	1.513866	1.177238	0.068193
Cl198	Cl	1.847200	1.510571	0.401526
Cl199	Cl	0.966065	0.491363	-0.912559
Cl200	Cl	1.299398	0.824697	-0.579226
Cl201	Cl	1.632731	1.158030	-0.245893
Cl202	Cl	0.966009	0.843920	-0.491540
Cl203	Cl	1.299342	1.177253	-0.158207
Cl204	Cl	1.632675	1.510587	0.175126
H205	H	0.527449	0.475245	-0.474936
H206	H	0.860782	0.808579	-0.141602
H207	H	1.194116	1.141912	0.191731
H208	H	0.619856	0.510410	-0.342560
H209	H	0.953189	0.843743	-0.009226
H210	H	1.286523	1.177077	0.324107
Cl211	Cl	0.966030	0.911732	-0.491552
Cl212	Cl	1.299363	1.245065	-0.158219
Cl213	Cl	1.632696	1.578398	0.175114
Cl214	Cl	1.180553	0.264850	-0.659833
Cl215	Cl	1.513886	0.598183	-0.326499
Cl216	Cl	1.847219	0.931516	0.006834
H217	H	1.159565	0.286959	-1.079551
H218	H	1.492899	0.620292	-0.746217
H219	H	1.826232	0.953625	-0.412884
Cl220	Cl	0.515467	0.213187	-0.422826
Cl221	Cl	0.848800	0.546521	-0.089492
Cl222	Cl	1.182134	0.879854	0.243841
Cl223	Cl	0.965933	0.658881	-0.491503
Cl224	Cl	1.299266	0.992215	-0.158170
Cl225	Cl	1.632599	1.325548	0.175164
H226	H	1.159412	0.677031	-0.287308
H227	H	1.492745	1.010365	0.046026
H228	H	1.826078	1.343698	0.379359
Cl229	Cl	1.180589	0.264780	-0.912676
Cl230	Cl	1.513923	0.598113	-0.579343
Cl231	Cl	1.847256	0.931447	-0.246009
H232	H	1.159526	0.287030	-0.826694
H233	H	1.492859	0.620363	-0.493361
H234	H	1.826192	0.953697	-0.160027
Cl235	Cl	1.180557	0.911720	-0.265149
Cl236	Cl	1.513891	1.245053	0.068185
Cl237	Cl	1.847224	1.578386	0.401518
Cl238	Cl	0.966091	0.491304	-1.097601
Cl239	Cl	1.299425	0.824637	-0.764268
Cl240	Cl	1.632758	1.157970	-0.430935
H241	H	1.159580	1.078607	-0.287394
H242	H	1.492913	1.411940	0.045940
H243	H	1.826246	1.745273	0.379273
