data_functionalizedCrystal
_audit_creation_method	'MofGen! by Chris Wilmer'
_symmetry_space_group_name_H-M	'P1'
_symmetry_Int_Tables_number	1
_symmetry_cell_setting	triclinic
loop_
_symmetry_equiv_pos_as_xyz
  x,y,z
_cell_length_a	29.839134
_cell_length_b	29.839125
_cell_length_c	29.839131
_cell_angle_alpha	90.017709
_cell_angle_beta	89.963719
_cell_angle_gamma	89.978020
loop_
_atom_site_label
_atom_site_type_symbol
_atom_site_fract_x
_atom_site_fract_y
_atom_site_fract_z
Zn1	Zn	0.686720	-0.254125	0.178978
Zn2	Zn	1.186720	0.245875	0.678978
Zn3	Zn	0.686652	-0.178995	0.254090
Zn4	Zn	1.186652	0.321005	0.754090
Zn5	Zn	0.611602	-0.178995	0.178968
Zn6	Zn	1.111602	0.321005	0.678968
Zn7	Zn	0.611550	-0.254083	0.254075
Zn8	Zn	1.111550	0.245917	0.754075
O9	O	0.649131	-0.216549	0.216528
O10	O	1.149131	0.283451	0.716528
O11	O	0.749578	-0.244176	0.188952
O12	O	1.249578	0.255824	0.688952
O13	O	0.676690	-0.116128	0.244127
O14	O	1.176690	0.383872	0.744127
O15	O	0.621617	-0.188978	0.116102
O16	O	1.121617	0.311022	0.616102
O17	O	0.749528	-0.188979	0.244137
O18	O	1.249528	0.311021	0.744137
O19	O	0.676805	-0.244176	0.116109
O20	O	1.176805	0.255824	0.616109
O21	O	0.621551	-0.116127	0.188935
O22	O	1.121551	0.383873	0.688935
O23	O	0.548728	-0.188938	0.188921
O24	O	1.048728	0.311062	0.688921
O25	O	0.621528	-0.316956	0.244111
O26	O	1.121528	0.183044	0.744111
O27	O	0.548690	-0.244105	0.244101
O28	O	1.048690	0.255895	0.744101
O29	O	0.676755	-0.316987	0.188937
O30	O	1.176755	0.183013	0.688937
O31	O	0.676639	-0.188938	0.316955
O32	O	1.176639	0.311062	0.816955
O33	O	0.621462	-0.244105	0.316944
O34	O	1.121462	0.255895	0.816944
C35	C	0.532408	-0.216517	0.216509
C36	C	1.032408	0.283483	0.716509
C37	C	0.482474	-0.216514	0.216511
C38	C	0.982474	0.283486	0.716511
C39	C	0.649143	-0.333728	0.216524
C40	C	1.149143	0.166272	0.716524
C41	C	0.649148	-0.383662	0.216522
C42	C	1.149148	0.116338	0.716522
C43	C	0.172820	-0.245240	0.245303
C44	C	0.672820	0.254760	0.745303
C45	C	-0.014853	-0.245260	0.245315
C46	C	0.485147	0.254740	0.745315
O47	O	-0.039127	-0.269665	0.269774
O48	O	0.460873	0.230335	0.769774
N49	N	-0.038311	-0.216583	0.216544
N50	N	0.461689	0.283417	0.716544
C51	C	-0.014848	-0.187902	0.187766
C52	C	0.485152	0.312098	0.687766
O53	O	-0.039107	-0.163514	0.163291
O54	O	0.460893	0.336486	0.663291
C55	C	0.172824	-0.187884	0.187751
C56	C	0.672824	0.312116	0.687751
C57	C	0.196280	-0.216560	0.216527
C58	C	0.696280	0.283440	0.716527
C59	C	0.196276	-0.273913	0.274076
C60	C	0.696276	0.226087	0.774076
C61	C	0.243191	-0.273906	0.274075
C62	C	0.743191	0.226094	0.774075
C63	C	0.266651	-0.245226	0.245299
C64	C	0.766651	0.254774	0.745299
C65	C	0.243195	-0.216553	0.216526
C66	C	0.743195	0.283447	0.716526
C67	C	0.196286	-0.159205	0.158971
C68	C	0.696286	0.340795	0.658971
C69	C	0.243207	-0.159204	0.158969
C70	C	0.743207	0.340796	0.658969
C71	C	0.266663	-0.187880	0.187745
C72	C	0.766663	0.312120	0.687745
C73	C	0.313570	-0.187865	0.187749
C74	C	0.813570	0.312135	0.687749
N75	N	0.337029	-0.216542	0.216520
N76	N	0.837029	0.283458	0.716520
C77	C	0.313569	-0.245222	0.245295
C78	C	0.813569	0.254778	0.745295
C79	C	-0.113379	-0.187912	0.187776
C80	C	0.386621	0.312088	0.687776
C81	C	-0.160297	-0.187916	0.187780
C82	C	0.339703	0.312084	0.687780
C83	C	-0.160298	-0.245275	0.245329
C84	C	0.339702	0.254725	0.745329
C85	C	-0.113380	-0.245269	0.245327
C86	C	0.386620	0.254731	0.745327
C87	C	-0.089921	-0.216589	0.216547
C88	C	0.410079	0.283411	0.716547
C89	C	0.412095	-0.245205	0.245290
C90	C	0.912095	0.254795	0.745290
C91	C	0.459014	-0.245194	0.245287
C92	C	0.959014	0.254806	0.745287
C93	C	0.459012	-0.187837	0.187736
C94	C	0.959012	0.312163	0.687736
C95	C	0.412096	-0.187846	0.187740
C96	C	0.912096	0.312154	0.687740
C97	C	0.388639	-0.216534	0.216519
C98	C	0.888639	0.283466	0.716519
O99	O	0.337873	-0.163477	0.163299
O100	O	0.837873	0.336523	0.663299
O101	O	0.337836	-0.269613	0.269759
O102	O	0.837836	0.230387	0.769759
C103	C	0.125905	-0.245247	0.245304
C104	C	0.625905	0.254753	0.745304
C105	C	0.102449	-0.216574	0.216531
C106	C	0.602449	0.283426	0.716531
C107	C	0.125909	-0.187893	0.187755
C108	C	0.625909	0.312107	0.687755
C109	C	0.055531	-0.216577	0.216535
C110	C	0.555531	0.283423	0.716535
C111	C	0.032071	-0.245258	0.245310
C112	C	0.532071	0.254742	0.745310
C113	C	0.055529	-0.273934	0.274082
C114	C	0.555529	0.226066	0.774082
C115	C	0.102445	-0.273927	0.274080
C116	C	0.602445	0.226073	0.774080
C117	C	0.102451	-0.159217	0.158984
C118	C	0.602451	0.340783	0.658984
C119	C	0.055535	-0.159226	0.158989
C120	C	0.555535	0.340774	0.658989
C121	C	0.032075	-0.187906	0.187764
C122	C	0.532075	0.312094	0.687764
C123	C	0.677935	-0.693325	0.187718
C124	C	1.177935	-0.193325	0.687718
C125	C	0.677957	-0.880998	0.187680
C126	C	1.177957	-0.380998	0.687680
O127	O	0.702399	-0.905279	0.163232
O128	O	1.202399	-0.405279	0.663232
N129	N	0.649208	-0.904448	0.216402
N130	N	1.149208	-0.404448	0.716402
C131	C	0.620449	-0.880976	0.245133
C132	C	1.120449	-0.380976	0.745133
O133	O	0.595993	-0.905228	0.269559
O134	O	1.095993	-0.405228	0.769559
C135	C	0.620424	-0.693304	0.245169
C136	C	1.120424	-0.193304	0.745169
C137	C	0.649179	-0.669857	0.216448
C138	C	1.149179	-0.169857	0.716448
C139	C	0.706687	-0.669877	0.158999
C140	C	1.206687	-0.169877	0.658999
C141	C	0.706683	-0.622962	0.159011
C142	C	1.206683	-0.122962	0.659011
C143	C	0.677927	-0.599494	0.187741
C144	C	1.177927	-0.099494	0.687741
C145	C	0.649175	-0.622941	0.216460
C146	C	1.149175	-0.122941	0.716460
C147	C	0.591663	-0.669833	0.273898
C148	C	1.091663	-0.169833	0.773898
C149	C	0.591659	-0.622912	0.273903
C150	C	1.091659	-0.122912	0.773903
C151	C	0.620414	-0.599465	0.245183
C152	C	1.120414	-0.099465	0.745183
C153	C	0.620415	-0.552558	0.245202
C154	C	1.120415	-0.052558	0.745202
N155	N	0.649164	-0.529108	0.216480
N156	N	1.149164	-0.029108	0.716480
C157	C	0.677920	-0.552576	0.187749
C158	C	1.177920	-0.052576	0.687749
C159	C	0.620464	-0.979507	0.245113
C160	C	1.120464	-0.479507	0.745113
C161	C	0.620471	-1.026425	0.245105
C162	C	1.120471	-0.526425	0.745105
C163	C	0.677979	-1.026443	0.187650
C164	C	1.177979	-0.526443	0.687650
C165	C	0.677974	-0.979524	0.187661
C166	C	1.177974	-0.479524	0.687661
C167	C	0.649214	-0.956057	0.216391
C168	C	1.149214	-0.456057	0.716391
C169	C	0.677910	-0.454050	0.187776
C170	C	1.177910	0.045950	0.687776
C171	C	0.677904	-0.407130	0.187792
C172	C	1.177904	0.092870	0.687792
C173	C	0.620395	-0.407116	0.245244
C174	C	1.120395	0.092884	0.745244
C175	C	0.620401	-0.454032	0.245230
C176	C	1.120401	0.045968	0.745230
C177	C	0.649161	-0.477497	0.216493
C178	C	1.149161	0.022503	0.716493
O179	O	0.595982	-0.528248	0.269633
O180	O	1.095982	-0.028248	0.769633
O181	O	0.702366	-0.528316	0.163320
O182	O	1.202366	-0.028316	0.663320
C183	C	0.677939	-0.740240	0.187706
C184	C	1.177939	-0.240240	0.687706
C185	C	0.649187	-0.763688	0.216425
C186	C	1.149187	-0.263688	0.716425
C187	C	0.620431	-0.740219	0.245155
C188	C	1.120431	-0.240219	0.745155
C189	C	0.649194	-0.810605	0.216417
C190	C	1.149194	-0.310605	0.716417
C191	C	0.677950	-0.834074	0.187686
C192	C	1.177950	-0.334074	0.687686
C193	C	0.706699	-0.810624	0.158964
C194	C	1.206699	-0.310624	0.658964
C195	C	0.706695	-0.763708	0.158976
C196	C	1.206695	-0.263708	0.658976
C197	C	0.591682	-0.763669	0.273877
C198	C	1.091682	-0.263669	0.773877
C199	C	0.591689	-0.810585	0.273864
C200	C	1.091689	-0.310585	0.773864
C201	C	0.620445	-0.834053	0.245133
C202	C	1.120445	-0.334053	0.745133
C203	C	0.766309	-0.216582	0.216547
C204	C	1.266309	0.283418	0.716547
C205	C	0.816244	-0.216596	0.216555
C206	C	1.316244	0.283404	0.716555
C207	C	0.649050	-0.216527	0.333250
C208	C	1.149050	0.283473	0.833250
C209	C	0.649056	-0.216533	0.383185
C210	C	1.149056	0.283467	0.883185
C211	C	0.649145	-0.099827	0.216499
C212	C	1.149145	0.400173	0.716499
C213	C	0.649227	-0.049893	0.216374
C214	C	1.149227	0.450107	0.716374
C215	C	0.649225	-0.216582	0.099349
C216	C	1.149225	0.283418	0.599349
C217	C	0.649265	-0.216595	0.049415
C218	C	1.149265	0.283405	0.549415
C219	C	0.677914	-0.187866	0.692821
C220	C	1.177914	0.312134	1.192821
C221	C	0.677969	-0.187883	0.880494
C222	C	1.177969	0.312117	1.380494
O223	O	0.702441	-0.163493	0.904753
O224	O	1.202441	0.336507	1.404753
N225	N	0.649224	-0.216583	0.903970
N226	N	1.149224	0.283417	1.403970
C227	C	0.620465	-0.245283	0.880524
C228	C	1.120465	0.254717	1.380524
O229	O	0.596020	-0.269698	0.904798
O230	O	1.096020	0.230302	1.404798
C231	C	0.620412	-0.245268	0.692852
C232	C	1.120412	0.254732	1.192852
C233	C	0.649156	-0.216563	0.669379
C234	C	1.149156	0.283437	1.169379
C235	C	0.706656	-0.159164	0.669348
C236	C	1.206656	0.340836	1.169348
C237	C	0.706640	-0.159158	0.622433
C238	C	1.206640	0.340842	1.122433
C239	C	0.677882	-0.187854	0.598990
C240	C	1.177882	0.312146	1.098990
C241	C	0.649140	-0.216557	0.622463
C242	C	1.149140	0.283443	1.122463
C243	C	0.591656	-0.273969	0.669407
C244	C	1.091656	0.226031	1.169407
C245	C	0.591646	-0.273964	0.622486
C246	C	1.091646	0.226036	1.122486
C247	C	0.620390	-0.245259	0.599013
C248	C	1.120390	0.254741	1.099013
C249	C	0.620367	-0.245248	0.552106
C250	C	1.120367	0.254752	1.052106
N251	N	0.649112	-0.216548	0.528630
N252	N	1.149112	0.283452	1.028630
C253	C	0.677869	-0.187851	0.552072
C254	C	1.177869	0.312149	1.052072
C255	C	0.620494	-0.245289	0.979055
C256	C	1.120494	0.254711	1.479055
C257	C	0.620507	-0.245292	1.025973
C258	C	1.120507	0.254708	1.525973
C259	C	0.678012	-0.187893	1.025939
C260	C	1.178012	0.312107	1.525939
C261	C	0.677996	-0.187887	0.979021
C262	C	1.177996	0.312113	1.479021
C263	C	0.649239	-0.216589	0.955579
C264	C	1.149239	0.283411	1.455579
C265	C	0.677834	-0.187841	0.453547
C266	C	1.177834	0.312159	0.953547
C267	C	0.677814	-0.187836	0.406627
C268	C	1.177814	0.312164	0.906627
C269	C	0.620311	-0.245237	0.406664
C270	C	1.120311	0.254763	0.906664
C271	C	0.620329	-0.245240	0.453580
C272	C	1.120329	0.254760	0.953580
C273	C	0.649094	-0.216540	0.477020
C274	C	1.149094	0.283460	0.977020
O275	O	0.595912	-0.269629	0.527818
O276	O	1.095912	0.230371	1.027818
O277	O	0.702318	-0.163447	0.527791
O278	O	1.202318	0.336553	1.027791
C279	C	0.677930	-0.187872	0.739737
C280	C	1.177930	0.312128	1.239737
C281	C	0.649188	-0.216574	0.763210
C282	C	1.149188	0.283426	1.263210
C283	C	0.620430	-0.245271	0.739767
C284	C	1.120430	0.254729	1.239767
C285	C	0.649200	-0.216578	0.810128
C286	C	1.149200	0.283422	1.310128
C287	C	0.677958	-0.187881	0.833570
C288	C	1.177958	0.312119	1.333570
C289	C	0.706703	-0.159181	0.810094
C290	C	1.206703	0.340819	1.310094
C291	C	0.706687	-0.159175	0.763179
C292	C	1.206687	0.340825	1.263179
C293	C	0.591685	-0.273971	0.763243
C294	C	1.091685	0.226029	1.263243
C295	C	0.591703	-0.273974	0.810158
C296	C	1.091703	0.226026	1.310158
C297	C	0.620461	-0.245277	0.833601
C298	C	1.120461	0.254723	1.333601
H299	H	0.478110	-0.268545	0.268721
H300	H	0.978110	0.231455	0.768721
C301	C	0.737872	-0.127956	0.835535
C302	C	1.237872	0.372044	1.335535
C303	C	0.728121	-0.083488	0.824172
C304	C	1.228121	0.416512	1.324172
C305	C	0.756820	-0.054718	0.847609
C306	C	1.256820	0.445282	1.347609
H307	H	0.768067	-0.134506	0.827838
H308	H	1.268067	0.365494	1.327838
H309	H	0.733754	-0.132049	0.866842
H310	H	1.233754	0.367951	1.366842
H311	H	0.732243	-0.079397	0.792873
H312	H	1.232243	0.420603	1.292873
H313	H	0.697931	-0.076924	0.831871
H314	H	1.197931	0.423076	1.331871
H315	H	0.752702	-0.058811	0.878916
H316	H	1.252702	0.441189	1.378916
H317	H	0.787013	-0.061272	0.839910
H318	H	1.287013	0.438728	1.339910
H319	H	0.750205	-0.024543	0.839906
H320	H	1.250205	0.475457	1.339906
H321	H	0.596991	-0.473123	0.268621
H322	H	1.096991	0.026877	0.768621
H323	H	0.393001	-0.268566	0.268723
H324	H	0.893001	0.231434	0.768723
H325	H	0.262285	-0.297258	0.297506
H326	H	0.762285	0.202742	0.797506
C327	C	0.560566	-0.305169	0.835697
C328	C	1.060566	0.194831	1.335697
C329	C	0.585994	-0.333988	0.862601
C330	C	1.085994	0.166012	1.362601
C331	C	0.557331	-0.362730	0.886136
C332	C	1.057331	0.137270	1.386136
H333	H	0.543429	-0.322301	0.815063
H334	H	1.043429	0.177699	1.315063
H335	H	0.541014	-0.287982	0.854054
H336	H	1.041014	0.212018	1.354054
H337	H	0.605538	-0.351173	0.844246
H338	H	1.105538	0.148827	1.344246
H339	H	0.603130	-0.316869	0.883243
H340	H	1.103130	0.183131	1.383243
H341	H	0.537778	-0.345543	0.904492
H342	H	1.037778	0.154457	1.404492
H343	H	0.540195	-0.379858	0.865498
H344	H	1.040195	0.120142	1.365498
H345	H	0.574579	-0.382284	0.904396
H346	H	1.074579	0.117716	1.404396
C347	C	0.386708	-0.156694	0.156452
C348	C	0.886708	0.343306	0.656452
C349	C	0.417298	-0.131582	0.131246
C350	C	0.917298	0.368418	0.631246
C351	C	0.393931	-0.102886	0.102410
C352	C	0.893931	0.397114	0.602410
H353	H	0.368381	-0.137051	0.173556
H354	H	0.868381	0.362949	0.673556
H355	H	0.368439	-0.173909	0.136878
H356	H	0.868439	0.326091	0.636878
H357	H	0.435560	-0.114368	0.150817
H358	H	0.935560	0.385632	0.650817
H359	H	0.435626	-0.151212	0.114132
H360	H	0.935626	0.348788	0.614132
H361	H	0.375661	-0.120101	0.082837
H362	H	0.875661	0.379899	0.582837
H363	H	0.375604	-0.083247	0.119518
H364	H	0.875604	0.416753	0.619518
H365	H	0.414682	-0.085847	0.085302
H366	H	0.914682	0.414153	0.585302
C367	C	0.560408	-0.305143	0.737877
C368	C	1.060408	0.194857	1.237877
C369	C	0.535232	-0.330267	0.768482
C370	C	1.035232	0.169733	1.268482
C371	C	0.506406	-0.358982	0.745134
C372	C	1.006406	0.141018	1.245134
H373	H	0.577517	-0.324777	0.719546
H374	H	1.077517	0.175223	1.219546
H375	H	0.540815	-0.287942	0.719612
H376	H	1.040815	0.212058	1.219612
H377	H	0.554823	-0.347466	0.786739
H378	H	1.054823	0.152534	1.286739
H379	H	0.518114	-0.310644	0.786814
H380	H	1.018114	0.189356	1.286814
H381	H	0.486813	-0.341782	0.726869
H382	H	0.986813	0.158218	1.226869
H383	H	0.523520	-0.378614	0.726804
H384	H	1.023520	0.121386	1.226804
H385	H	0.489319	-0.376029	0.765896
H386	H	0.989319	0.123971	1.265896
C387	C	0.737844	-0.836132	0.127713
C388	C	1.237844	-0.336132	0.627713
C389	C	0.712426	-0.863053	0.098905
C390	C	1.212426	-0.363053	0.598905
C391	C	0.741097	-0.886555	0.070106
C392	C	1.241097	-0.386555	0.570106
H393	H	0.757415	-0.854477	0.144845
H394	H	1.257415	-0.354477	0.644845
H395	H	0.754961	-0.815465	0.110581
H396	H	1.254961	-0.315465	0.610581
H397	H	0.695317	-0.883718	0.116036
H398	H	1.195317	-0.383718	0.616036
H399	H	0.692856	-0.844719	0.081764
H400	H	1.192856	-0.344719	0.581764
H401	H	0.758213	-0.865888	0.052973
H402	H	1.258213	-0.365888	0.552973
H403	H	0.760666	-0.904898	0.087241
H404	H	1.260666	-0.404898	0.587241
H405	H	0.723855	-0.904820	0.050554
H406	H	1.223855	-0.404820	0.550554
H407	H	0.121538	-0.297278	0.297512
H408	H	0.621538	0.202722	0.797512
C409	C	0.170891	-0.305070	0.305372
C410	C	0.670891	0.194930	0.805372
C411	C	0.201484	-0.330168	0.330574
C412	C	0.701484	0.169832	0.830574
C413	C	0.178120	-0.358870	0.359417
C414	C	0.678120	0.141130	0.859417
H415	H	0.152604	-0.324721	0.288274
H416	H	0.652604	0.175279	0.788274
H417	H	0.152582	-0.287861	0.324948
H418	H	0.652582	0.212139	0.824948
H419	H	0.219786	-0.347377	0.311000
H420	H	0.719786	0.152623	0.811000
H421	H	0.219772	-0.310529	0.347681
H422	H	0.719772	0.189471	0.847681
H423	H	0.159811	-0.341660	0.378993
H424	H	0.659811	0.158340	0.878993
H425	H	0.159834	-0.378518	0.342316
H426	H	0.659834	0.121482	0.842316
H427	H	0.198874	-0.375899	0.376523
H428	H	0.698874	0.124101	0.876523
C429	C	0.589191	-0.381550	0.276385
C430	C	1.089191	0.118450	0.776385
C431	C	0.595335	-0.335444	0.270234
C432	C	1.095335	0.164556	0.770234
C433	C	0.566591	-0.311877	0.298907
C434	C	1.066591	0.188123	0.798907
H435	H	0.595709	-0.389180	0.306590
H436	H	1.095709	0.110820	0.806590
H437	H	0.559002	-0.389204	0.269796
H438	H	1.059002	0.110796	0.769796
H439	H	0.625516	-0.327792	0.276827
H440	H	1.125516	0.172208	0.776827
H441	H	0.588813	-0.327800	0.240036
H442	H	1.088813	0.172200	0.740036
H443	H	0.536402	-0.319531	0.292318
H444	H	1.036402	0.180469	0.792318
H445	H	0.573111	-0.319511	0.329110
H446	H	1.073111	0.180489	0.829110
H447	H	0.570752	-0.280592	0.294735
H448	H	1.070752	0.219408	0.794735
H449	H	-0.094285	-0.268619	0.268759
H450	H	0.405715	0.231381	0.768759
C451	C	0.589063	-0.276328	0.479090
C452	C	1.089063	0.223672	0.979090
C453	C	0.560287	-0.250865	0.506059
C454	C	1.060287	0.249135	1.006059
C455	C	0.531477	-0.279491	0.529556
C456	C	1.031477	0.220509	1.029556
H457	H	0.606188	-0.295934	0.497402
H458	H	1.106188	0.204066	0.997402
H459	H	0.571907	-0.293407	0.458420
H460	H	1.071907	0.206593	0.958420
H461	H	0.577441	-0.233793	0.526726
H462	H	1.077441	0.266207	1.026726
H463	H	0.543152	-0.231260	0.487758
H464	H	1.043152	0.268740	0.987758
H465	H	0.514322	-0.296571	0.508886
H466	H	1.014322	0.203429	1.008886
H467	H	0.548606	-0.299096	0.547865
H468	H	1.048606	0.200904	1.047865
H469	H	0.511947	-0.262219	0.547854
H470	H	1.011947	0.237781	1.047854
H471	H	-0.179407	-0.268628	0.268759
H472	H	0.320593	0.231372	0.768759
H473	H	-0.094283	-0.164556	0.164339
H474	H	0.405717	0.335444	0.664339
C475	C	-0.185679	-0.156762	0.156491
C476	C	0.314321	0.343238	0.656491
C477	C	-0.155086	-0.131655	0.131284
C478	C	0.344914	0.368345	0.631284
C479	C	-0.178449	-0.102957	0.102449
C480	C	0.321551	0.397043	0.602449
H481	H	-0.204002	-0.137116	0.173596
H482	H	0.295998	0.362884	0.673596
H483	H	-0.203952	-0.173974	0.136919
H484	H	0.296048	0.326026	0.636919
H485	H	-0.136820	-0.114444	0.150853
H486	H	0.363180	0.385556	0.650853
H487	H	-0.136761	-0.151289	0.114170
H488	H	0.363239	0.348711	0.614170
H489	H	-0.196722	-0.120169	0.082876
H490	H	0.303278	0.379831	0.582876
H491	H	-0.196772	-0.083314	0.119557
H492	H	0.303228	0.416686	0.619557
H493	H	-0.157695	-0.085921	0.085339
H494	H	0.342305	0.414079	0.585339
H495	H	0.262305	-0.135852	0.135529
H496	H	0.762305	0.364148	0.635529
C497	C	0.170909	-0.128057	0.127675
C498	C	0.670909	0.371943	0.627675
C499	C	0.201506	-0.102955	0.102467
C500	C	0.701506	0.397045	0.602467
C501	C	0.178146	-0.074260	0.073625
C502	C	0.678146	0.425740	0.573625
H503	H	0.152584	-0.108409	0.144774
H504	H	0.652584	0.391591	0.644774
H505	H	0.152638	-0.145272	0.108102
H506	H	0.652638	0.354728	0.608102
H507	H	0.219769	-0.085741	0.122036
H508	H	0.719769	0.414259	0.622036
H509	H	0.219832	-0.122591	0.085358
H510	H	0.719832	0.377409	0.585358
H511	H	0.159875	-0.091475	0.054053
H512	H	0.659875	0.408525	0.554053
H513	H	0.159822	-0.054614	0.090728
H514	H	0.659822	0.445386	0.590728
H515	H	0.198902	-0.057227	0.056515
H516	H	0.698902	0.442773	0.556515
C517	C	0.589331	-1.051901	0.276350
C518	C	1.089331	-0.551901	0.776350
C519	C	0.614748	-1.078828	0.305154
C520	C	1.114748	-0.578828	0.805154
C521	C	0.586076	-1.102296	0.333948
C522	C	1.086076	-0.602296	0.833948
H523	H	0.569761	-1.070238	0.259214
H524	H	1.069761	-0.570238	0.759214
H525	H	0.572214	-1.031213	0.293486
H526	H	1.072214	-0.531213	0.793486
H527	H	0.631857	-1.099514	0.288020
H528	H	1.131857	-0.599514	0.788020
H529	H	0.634317	-1.060502	0.322300
H530	H	1.134317	-0.560502	0.822300
H531	H	0.568960	-1.081608	0.351084
H532	H	1.068960	-0.581608	0.851084
H533	H	0.566508	-1.120631	0.316809
H534	H	1.066508	-0.620631	0.816809
H535	H	0.603318	-1.120566	0.353498
H536	H	1.103318	-0.620566	0.853498
C537	C	0.589046	-0.276415	0.381288
C538	C	1.089046	0.223585	0.881288
C539	C	0.563869	-0.301550	0.411883
C540	C	1.063869	0.198450	0.911883
C541	C	0.535064	-0.330276	0.388522
C542	C	1.035064	0.169724	0.888522
H543	H	0.606170	-0.296041	0.362962
H544	H	1.106170	0.203959	0.862962
H545	H	0.569453	-0.259221	0.363017
H546	H	1.069453	0.240779	0.863017
H547	H	0.583460	-0.318743	0.430146
H548	H	1.083460	0.181257	0.930146
H549	H	0.546736	-0.281936	0.430210
H550	H	1.046736	0.218064	0.930210
H551	H	0.515470	-0.313082	0.370251
H552	H	1.015470	0.186918	0.870251
H553	H	0.552191	-0.349899	0.370197
H554	H	1.052191	0.150101	0.870197
H555	H	0.517975	-0.347331	0.409277
H556	H	1.017975	0.152669	0.909277
C557	C	0.737930	-0.738336	0.127741
C558	C	1.237930	-0.238336	0.627741
C559	C	0.763102	-0.768939	0.102573
C560	C	1.263102	-0.268939	0.602573
C561	C	0.791876	-0.745586	0.073788
C562	C	1.291876	-0.245586	0.573788
H563	H	0.757531	-0.720035	0.144880
H564	H	1.257531	-0.220035	0.644880
H565	H	0.720769	-0.720042	0.108141
H566	H	1.220769	-0.220042	0.608141
H567	H	0.780261	-0.787226	0.122170
H568	H	1.280261	-0.287226	0.622170
H569	H	0.743513	-0.787241	0.085425
H570	H	1.243513	-0.287241	0.585425
H571	H	0.774716	-0.727291	0.054188
H572	H	1.274716	-0.227291	0.554188
H573	H	0.811474	-0.727286	0.090931
H574	H	1.311474	-0.227286	0.590931
H575	H	0.808956	-0.766346	0.056705
H576	H	1.308956	-0.266346	0.556705
C577	C	0.484569	-0.156750	0.156511
C578	C	0.984569	0.343250	0.656511
C579	C	0.530677	-0.162895	0.162662
C580	C	1.030677	0.337105	0.662662
C581	C	0.554235	-0.134273	0.133898
C582	C	1.054235	0.365727	0.633898
H583	H	0.476919	-0.126534	0.163007
H584	H	0.976919	0.373466	0.663007
H585	H	0.476928	-0.163389	0.126327
H586	H	0.976928	0.336611	0.626327
H587	H	0.538315	-0.156254	0.192839
H588	H	1.038315	0.343746	0.692839
H589	H	0.538341	-0.193106	0.156162
H590	H	1.038341	0.306894	0.656162
H591	H	0.546594	-0.140912	0.103714
H592	H	1.046594	0.359088	0.603714
H593	H	0.546581	-0.104059	0.140397
H594	H	1.046581	0.395941	0.640397
H595	H	0.585522	-0.138442	0.138064
H596	H	1.085522	0.361558	0.638064
C597	C	0.029972	-0.305057	0.305274
C598	C	0.529972	0.194943	0.805274
C599	C	-0.016136	-0.298929	0.299104
C600	C	0.483864	0.201071	0.799104
C601	C	-0.039695	-0.327596	0.327823
C602	C	0.460305	0.172404	0.827823
H603	H	0.037582	-0.298458	0.335469
H604	H	0.537582	0.201542	0.835469
H605	H	0.037653	-0.335263	0.298739
H606	H	0.537653	0.164737	0.798739
H607	H	-0.023813	-0.268730	0.305643
H608	H	0.476187	0.231270	0.805643
H609	H	-0.023759	-0.305532	0.268916
H610	H	0.476241	0.194468	0.768916
H611	H	-0.032014	-0.357802	0.321287
H612	H	0.467986	0.142198	0.821287
H613	H	-0.032081	-0.320994	0.358015
H614	H	0.467919	0.179006	0.858015
H615	H	-0.070981	-0.323445	0.323637
H616	H	0.429019	0.176555	0.823637
H617	H	0.036441	-0.135871	0.135556
H618	H	0.536441	0.364129	0.635556
C619	C	0.709141	-0.381755	0.156557
C620	C	1.209141	0.118245	0.656557
C621	C	0.734315	-0.412353	0.131385
C622	C	1.234315	0.087647	0.631385
C623	C	0.763088	-0.388996	0.102604
C624	C	1.263088	0.111004	0.602604
H625	H	0.728741	-0.363455	0.173698
H626	H	1.228741	0.136545	0.673698
H627	H	0.691980	-0.363459	0.136959
H628	H	1.191980	0.136541	0.636959
H629	H	0.751475	-0.430642	0.150981
H630	H	1.251475	0.069358	0.650981
H631	H	0.714726	-0.430654	0.114235
H632	H	1.214726	0.069346	0.614235
H633	H	0.745927	-0.370700	0.083006
H634	H	1.245927	0.129300	0.583006
H635	H	0.782686	-0.370697	0.119749
H636	H	1.282686	0.129303	0.619749
H637	H	0.780169	-0.409753	0.085519
H638	H	1.280169	0.090247	0.585519
C639	C	0.737924	-0.128084	0.737640
C640	C	1.237924	0.371916	1.237640
C641	C	0.766687	-0.153547	0.710659
C642	C	1.266687	0.346453	1.210659
C643	C	0.795466	-0.124920	0.687125
C644	C	1.295466	0.375080	1.187125
H645	H	0.755094	-0.110986	0.758275
H646	H	1.255094	0.389014	1.258275
H647	H	0.720761	-0.108494	0.719336
H648	H	1.220761	0.391506	1.219336
H649	H	0.783848	-0.173129	0.728962
H650	H	1.283848	0.326871	1.228962
H651	H	0.749530	-0.170643	0.690016
H652	H	1.249530	0.329357	1.190016
H653	H	0.778304	-0.105329	0.668821
H654	H	1.278304	0.394671	1.168821
H655	H	0.812633	-0.107823	0.707763
H656	H	1.312633	0.392177	1.207763
H657	H	0.814983	-0.142191	0.668813
H658	H	1.314983	0.357809	1.168813
C659	C	0.709060	-0.479546	0.156522
C660	C	1.209060	0.020454	0.656522
C661	C	0.683654	-0.506468	0.127704
C662	C	1.183654	-0.006468	0.627704
C663	C	0.712336	-0.529956	0.098905
C664	C	1.212336	-0.029956	0.598905
H665	H	0.728633	-0.497889	0.173653
H666	H	1.228633	0.002111	0.673653
H667	H	0.726174	-0.458871	0.139396
H668	H	1.226174	0.041129	0.639396
H669	H	0.666549	-0.527141	0.144827
H670	H	1.166549	-0.027141	0.644827
H671	H	0.664082	-0.488136	0.110563
H672	H	1.164082	0.011864	0.610563
H673	H	0.729449	-0.509281	0.081779
H674	H	1.229449	-0.009281	0.581779
H675	H	0.731908	-0.548297	0.116039
H676	H	1.231908	-0.048297	0.616039
H677	H	0.695102	-0.548222	0.079345
H678	H	1.195102	-0.048222	0.579345
H679	H	0.568274	-0.829671	0.297256
H680	H	1.068274	-0.329671	0.797256
C681	C	0.737916	-0.597590	0.127774
C682	C	1.237916	-0.097590	0.627774
C683	C	0.763087	-0.628192	0.102605
C684	C	1.263087	-0.128192	0.602605
C685	C	0.791859	-0.604840	0.073818
C686	C	1.291859	-0.104840	0.573818
H687	H	0.757517	-0.579288	0.144911
H688	H	1.257517	-0.079288	0.644911
H689	H	0.720753	-0.579296	0.108175
H690	H	1.220753	-0.079296	0.608175
H691	H	0.780248	-0.646478	0.122202
H692	H	1.280248	-0.146478	0.622202
H693	H	0.743497	-0.646495	0.085459
H694	H	1.243497	-0.146495	0.585459
H695	H	0.774696	-0.586546	0.054219
H696	H	1.274696	-0.086546	0.554219
H697	H	0.811457	-0.586538	0.090959
H698	H	1.311457	-0.086538	0.590959
H699	H	0.808938	-0.625600	0.056734
H700	H	1.308938	-0.125600	0.556734
C701	C	0.560509	-0.597374	0.305124
C702	C	1.060509	-0.097374	0.805124
C703	C	0.585921	-0.570436	0.333922
C704	C	1.085921	-0.070436	0.833922
C705	C	0.557243	-0.546899	0.362685
C706	C	1.057243	-0.046899	0.862685
H707	H	0.543375	-0.618006	0.322271
H708	H	1.043375	-0.118006	0.822271
H709	H	0.540954	-0.579040	0.287952
H710	H	1.040954	-0.079040	0.787952
H711	H	0.605468	-0.588768	0.351092
H712	H	1.105468	-0.088768	0.851092
H713	H	0.603053	-0.549795	0.316788
H714	H	1.103053	-0.049795	0.816788
H715	H	0.537688	-0.528565	0.345513
H716	H	1.037688	-0.028565	0.845513
H717	H	0.540111	-0.567535	0.379829
H718	H	1.040111	-0.067535	0.879829
H719	H	0.574481	-0.528616	0.382225
H720	H	1.074481	-0.028616	0.882225
H721	H	0.730104	-0.688980	0.135601
H722	H	1.230104	-0.188980	0.635601
H723	H	0.121547	-0.135861	0.135551
H724	H	0.621547	0.364139	0.635551
H725	H	0.701388	-0.960437	0.164274
H726	H	1.201388	-0.460437	0.664274
H727	H	0.701393	-1.045559	0.164257
H728	H	1.201393	-0.545559	0.664257
H729	H	0.597097	-0.268662	1.045080
H730	H	1.097097	0.231338	1.545080
H731	H	0.568265	-0.744566	0.297274
H732	H	1.068265	-0.244566	0.797274
C733	C	0.737802	-0.128012	0.596870
C734	C	1.237802	0.371988	1.096870
C735	C	0.731634	-0.134136	0.550763
C736	C	1.231634	0.365864	1.050763
C737	C	0.760332	-0.105447	0.527204
C738	C	1.260332	0.394553	1.027204
H739	H	0.768002	-0.134594	0.604478
H740	H	1.268002	0.365406	1.104478
H741	H	0.731247	-0.097811	0.604554
H742	H	1.231247	0.402189	1.104554
H743	H	0.738192	-0.164330	0.543082
H744	H	1.238192	0.335670	1.043082
H745	H	0.701440	-0.127550	0.543141
H746	H	1.201440	0.372450	1.043141
H747	H	0.753776	-0.075247	0.534888
H748	H	1.253776	0.424753	1.034888
H749	H	0.790529	-0.112032	0.534816
H750	H	1.290529	0.387968	1.034816
H751	H	0.756147	-0.109596	0.495918
H752	H	1.256147	0.390404	0.995918
H753	H	0.597044	-0.960404	0.268511
H754	H	1.097044	-0.460404	0.768511
H755	H	0.568248	-0.688916	0.297285
H756	H	1.068248	-0.188916	0.797285
C757	C	0.709073	-0.156653	0.381224
C758	C	1.209073	0.343347	0.881224
C759	C	0.734270	-0.131533	0.411799
C760	C	1.234270	0.368467	0.911799
C761	C	0.763074	-0.102809	0.388416
C762	C	1.263074	0.397191	0.888416
H763	H	0.691947	-0.137016	0.362944
H764	H	1.191947	0.362984	0.862944
H765	H	0.728654	-0.173847	0.362904
H766	H	1.228654	0.326153	0.862904
H767	H	0.714691	-0.114340	0.430111
H768	H	1.214691	0.385660	0.930111
H769	H	0.751405	-0.151158	0.430080
H770	H	1.251405	0.348842	0.930080
H771	H	0.782655	-0.120003	0.370097
H772	H	1.282655	0.379997	0.870097
H773	H	0.745944	-0.083175	0.370138
H774	H	1.245944	0.416825	0.870138
H775	H	0.780176	-0.085765	0.409158
H776	H	1.280176	0.414235	0.909158
C777	C	0.709255	-0.156707	0.953619
C778	C	1.209255	0.343293	1.453619
C779	C	0.734447	-0.131585	0.984197
C780	C	1.234447	0.368415	1.484197
C781	C	0.763252	-0.102860	0.960816
C782	C	1.263252	0.397140	1.460816
H783	H	0.692130	-0.137072	0.935337
H784	H	1.192130	0.362928	1.435337
H785	H	0.728839	-0.173901	0.935303
H786	H	1.228839	0.326099	1.435303
H787	H	0.714865	-0.114392	1.002505
H788	H	1.214865	0.385608	1.502505
H789	H	0.751581	-0.151208	1.002480
H790	H	1.251581	0.348792	1.502480
H791	H	0.782836	-0.120054	0.942499
H792	H	1.282836	0.379946	1.442499
H793	H	0.746124	-0.083228	0.942534
H794	H	1.246124	0.416772	1.442534
H795	H	0.780351	-0.085814	0.981559
H796	H	1.280351	0.414186	1.481559
C797	C	0.709250	-0.156817	1.051477
C798	C	1.209250	0.343183	1.551477
C799	C	0.703127	-0.162990	1.097589
C800	C	1.203127	0.337010	1.597589
C801	C	0.731915	-0.134394	1.121130
C802	C	1.231915	0.365606	1.621130
H803	H	0.702759	-0.126594	1.043880
H804	H	1.202759	0.373406	1.543880
H805	H	0.739427	-0.163463	1.043769
H806	H	1.239427	0.336537	1.543769
H807	H	0.672957	-0.156342	1.105294
H808	H	1.172957	0.343658	1.605294
H809	H	0.709623	-0.193208	1.105200
H810	H	1.209623	0.306792	1.605200
H811	H	0.762092	-0.141039	1.113422
H812	H	1.262092	0.358961	1.613422
H813	H	0.725421	-0.104172	1.113529
H814	H	1.225421	0.395828	1.613529
H815	H	0.727768	-0.138581	1.152419
H816	H	1.227768	0.361419	1.652419
H817	H	0.730076	-0.135795	0.688430
H818	H	1.230076	0.364205	1.188430
C819	C	0.589216	-0.276465	0.953689
C820	C	1.089216	0.223535	1.453689
C821	C	0.564039	-0.301587	0.984295
C822	C	1.064039	0.198413	1.484295
C823	C	0.535215	-0.330304	0.960947
C824	C	1.035215	0.169696	1.460947
H825	H	0.606327	-0.296101	0.935360
H826	H	1.106327	0.203899	1.435360
H827	H	0.569624	-0.259266	0.935422
H828	H	1.069624	0.240734	1.435422
H829	H	0.583629	-0.318784	1.002554
H830	H	1.083629	0.181216	1.502554
H831	H	0.546919	-0.281963	1.002624
H832	H	1.046919	0.218037	1.502624
H833	H	0.515623	-0.313105	0.942680
H834	H	1.015623	0.186895	1.442680
H835	H	0.552329	-0.349937	0.942619
H836	H	1.052329	0.150063	1.442619
H837	H	0.518126	-0.347350	0.981710
H838	H	1.018126	0.152650	1.481710
H839	H	0.701258	-0.164472	0.472626
H840	H	1.201258	0.335528	0.972626
H841	H	0.568248	-0.297342	0.688511
H842	H	1.068248	0.202658	1.188511
H843	H	0.568229	-0.297337	0.603402
H844	H	1.068229	0.202663	1.103402
