data_functionalizedCrystal
_audit_creation_method	'MofGen! by Chris Wilmer'
_symmetry_space_group_name_H-M	'P1'
_symmetry_Int_Tables_number	1
_symmetry_cell_setting	triclinic
loop_
_symmetry_equiv_pos_as_xyz
  x,y,z
_cell_length_a	16.959455
_cell_length_b	12.594516
_cell_length_c	12.594517
_cell_angle_alpha	90.011943
_cell_angle_beta	90.008011
_cell_angle_gamma	90.013000
loop_
_atom_site_label
_atom_site_type_symbol
_atom_site_fract_x
_atom_site_fract_y
_atom_site_fract_z
Zn1	Zn	1.208357	-0.423947	0.601834
Zn2	Zn	1.708357	0.076053	1.101834
Zn3	Zn	1.208303	-0.601912	0.423862
Zn4	Zn	1.708303	-0.101912	0.923862
Zn5	Zn	1.076200	-0.423939	0.423867
Zn6	Zn	1.576200	0.076061	0.923867
Zn7	Zn	1.076159	-0.601874	0.601796
Zn8	Zn	1.576159	-0.101874	1.101796
O9	O	1.142255	-0.512918	0.512840
O10	O	1.642255	-0.012918	1.012840
O11	O	1.318960	-0.447573	0.578239
O12	O	1.818960	0.052427	1.078239
O13	O	1.190774	-0.578317	0.274917
O14	O	1.690774	-0.078317	0.774917
O15	O	1.093770	-0.274994	0.447493
O16	O	1.593770	0.225006	0.947493
O17	O	1.318921	-0.578324	0.447484
O18	O	1.818921	-0.078324	0.947484
O19	O	1.190865	-0.275000	0.578244
O20	O	1.690865	0.225000	1.078244
O21	O	1.093718	-0.447560	0.274921
O22	O	1.593718	0.052440	0.774921
O23	O	0.965583	-0.447523	0.447456
O24	O	1.465583	0.052477	0.947456
O25	O	1.093701	-0.578259	0.750747
O26	O	1.593701	-0.078259	1.250747
O27	O	0.965554	-0.578251	0.578180
O28	O	1.465554	-0.078251	1.078180
O29	O	1.190826	-0.447536	0.750775
O30	O	1.690826	0.052464	1.250775
O31	O	1.190734	-0.750853	0.447447
O32	O	1.690734	-0.250853	0.947447
O33	O	1.093649	-0.750825	0.578175
O34	O	1.593649	-0.250825	1.078175
C35	C	0.936888	-0.512883	0.512815
C36	C	1.436888	-0.012883	1.012815
C37	C	0.849032	-0.512893	0.512830
C38	C	1.349032	-0.012893	1.012830
C39	C	0.477547	-0.444792	0.444914
C40	C	0.977547	0.055208	0.944914
C41	C	0.477565	-0.581131	0.580826
C42	C	0.977565	-0.081131	1.080826
C43	C	0.560111	-0.581116	0.580820
C44	C	1.060111	-0.081116	1.080820
C45	C	0.601379	-0.512939	0.512858
C46	C	1.101379	-0.012939	1.012858
C47	C	0.560101	-0.444777	0.444903
C48	C	1.060101	0.055223	0.944903
C49	C	0.601395	-0.649284	0.648766
C50	C	1.101395	-0.149284	1.148766
C51	C	0.683946	-0.649273	0.648761
C52	C	1.183946	-0.149273	1.148761
C53	C	0.725215	-0.581089	0.580804
C54	C	1.225215	-0.081089	1.080804
C55	C	0.683932	-0.512924	0.512847
C56	C	1.183932	-0.012924	1.012847
C57	C	0.725200	-0.444747	0.444886
C58	C	1.225200	0.055253	0.944886
C59	C	0.683919	-0.376575	0.376934
C60	C	1.183919	0.123425	0.876934
C61	C	0.601370	-0.376594	0.376946
C62	C	1.101370	0.123406	0.876946
C63	C	0.807764	-0.581071	0.580792
C64	C	1.307764	-0.081071	1.080792
C65	C	0.807754	-0.444731	0.444875
C66	C	1.307754	0.055269	0.944875
C67	C	1.142203	-0.789459	0.512829
C68	C	1.642203	-0.289459	1.012829
C69	C	1.142253	-0.907764	0.512860
C70	C	1.642253	-0.407764	1.012860
C71	C	1.089443	-0.977041	0.583913
C72	C	1.589443	-0.477041	1.083913
C73	C	1.070199	-1.047881	0.486791
C74	C	1.570199	-0.547881	0.986791
C75	C	1.161569	-1.047724	0.609999
C76	C	1.661569	-0.547724	1.109999
C77	C	1.122971	-0.977046	0.415686
C78	C	1.622971	-0.477046	0.915686
C79	C	1.214374	-0.976883	0.538961
C80	C	1.714374	-0.476883	1.038961
C81	C	1.195158	-1.047690	0.441771
C82	C	1.695158	-0.547690	0.941771
C83	C	1.348423	-0.512954	0.512865
C84	C	1.848423	-0.012954	1.012865
C85	C	1.436279	-0.512969	0.512875
C86	C	1.936279	-0.012969	1.012875
C87	C	1.142265	-0.512894	0.790460
C88	C	1.642265	-0.012894	1.290460
C89	C	1.142269	-0.512884	0.908766
C90	C	1.642269	-0.012884	1.408766
C91	C	1.142328	-0.235297	0.512873
C92	C	1.642328	0.264703	1.012873
C93	C	1.142359	-0.116992	0.512888
C94	C	1.642359	0.383008	1.012888
C95	C	1.195090	-0.441811	1.048798
C96	C	1.695090	0.058189	1.548798
C97	C	1.214401	-0.538909	0.977980
C98	C	1.714401	-0.038909	1.477980
C99	C	1.122993	-0.415797	0.978012
C100	C	1.622993	0.084203	1.478012
C101	C	1.161614	-0.610073	1.048733
C102	C	1.661614	-0.110073	1.548733
C103	C	1.070173	-0.486896	1.048772
C104	C	1.570173	0.013104	1.548772
C105	C	1.089457	-0.584060	0.977986
C106	C	1.589457	-0.084060	1.477986
C107	C	1.142246	-0.512953	1.236299
C108	C	1.642246	-0.012953	1.736299
C109	C	1.142266	-0.512924	1.117993
C110	C	1.642266	-0.012924	1.617993
H111	H	0.443960	-0.636644	0.636151
H112	H	0.943960	-0.136644	1.136151
H113	H	1.177863	-1.078769	0.692138
H114	H	1.677863	-0.578769	1.192138
H115	H	1.239794	-0.381765	1.079888
H116	H	1.739794	0.118235	1.579888
H117	H	0.567751	-0.321093	0.321622
H118	H	1.067751	0.178907	0.821622
H119	H	1.106692	-0.333675	0.946944
H120	H	1.606692	0.166325	1.446944
H121	H	1.239863	-1.078517	0.381627
H122	H	1.739863	-0.578517	0.881627
H123	H	1.275370	-0.560911	0.946881
H124	H	1.775370	-0.060911	1.446881
H125	H	1.106606	-0.946129	0.333526
H126	H	1.606606	-0.446129	0.833526
F127	F	0.990540	-1.088640	0.457940
F128	F	1.490540	-0.588640	0.957940
F129	F	1.031067	-0.662729	0.937604
F130	F	1.531067	-0.162729	1.437604
H131	H	1.275302	-0.945676	0.561061
H132	H	1.775302	-0.445676	1.061061
H133	H	1.044703	-0.946018	0.643913
H134	H	1.544703	-0.446018	1.143913
F135	F	0.557471	-0.721866	0.721062
F136	F	1.057471	-0.221866	1.221062
H137	H	0.717551	-0.704782	0.704093
H138	H	1.217551	-0.204782	1.204093
H139	H	0.841348	-0.389206	0.389538
H140	H	1.341348	0.110794	0.889538
F141	F	0.727848	-0.304024	0.304601
F142	F	1.227848	0.195976	0.804601
F143	F	0.851695	-0.653624	0.653100
F144	F	1.351695	-0.153624	1.153100
F145	F	1.183016	-0.717444	1.089164
F146	F	1.683016	-0.217444	1.589164
F147	F	0.433613	-0.372238	0.372603
F148	F	0.933613	0.127762	0.872603
H149	H	1.009222	-0.464862	1.079893
H150	H	1.509222	0.035138	1.579893
