data_functionalizedCrystal
_audit_creation_method	'MofGen! by Chris Wilmer'
_symmetry_space_group_name_H-M	'P1'
_symmetry_Int_Tables_number	1
_symmetry_cell_setting	triclinic
loop_
_symmetry_equiv_pos_as_xyz
  x,y,z
_cell_length_a	11.026607
_cell_length_b	15.995350
_cell_length_c	10.065875
_cell_angle_alpha	98.791555
_cell_angle_beta	79.302338
_cell_angle_gamma	96.039196
loop_
_atom_site_label
_atom_site_type_symbol
_atom_site_fract_x
_atom_site_fract_y
_atom_site_fract_z
O1	O	1.627917	0.340991	-0.113481
O2	O	1.274611	0.301065	-0.113484
O3	O	1.460922	0.200596	-0.113481
O4	O	1.441606	0.441460	-0.113484
O5	O	1.425395	0.219853	0.113507
O6	O	1.239084	0.320322	0.113504
O7	O	1.592390	0.360247	0.113508
Zn8	Zn	1.410096	0.343342	0.149545
Zn9	Zn	1.456905	0.317971	-0.149522
O10	O	1.406079	0.460716	0.113504
C11	C	1.211637	0.303328	0.000010
C12	C	1.076923	0.281371	0.000008
C13	C	1.003118	0.341997	0.000007
C14	C	0.863884	0.319305	0.000005
C15	C	1.442360	0.178909	0.000011
C16	C	1.439967	0.085597	0.000003
C17	C	1.431369	-0.253446	0.000007
C18	C	1.298762	-0.226055	-0.000503
C19	C	1.301076	-0.128960	0.000009
C20	C	1.435634	-0.085243	0.000004
C21	C	1.480793	-0.105459	0.129624
C22	C	1.477442	-0.202588	0.129732
C23	C	1.520584	-0.224432	-0.128396
C24	C	1.520821	-0.127636	-0.130109
C25	C	1.438051	0.009819	0.000007
C26	C	1.428955	-0.348507	0.000014
C27	C	1.655365	0.357984	0.000011
C28	C	1.790080	0.379940	0.000003
C29	C	1.424641	0.482403	0.000010
C30	C	1.427036	0.575714	0.000009
N31	N	1.378160	0.360658	0.353650
N32	N	1.488851	0.300649	-0.353627
C33	C	1.445785	0.323989	0.421430
C34	C	1.421215	0.337324	0.578597
H35	H	0.829963	0.448650	0.000012
H36	H	1.345120	0.378589	0.636917
N37	N	1.282709	0.412435	0.426785
N38	N	1.219120	0.446918	0.363141
H39	H	1.151705	0.483488	0.414788
N40	N	1.584306	0.248868	0.573250
N41	N	1.558013	0.184392	0.493503
H42	H	1.625432	0.147822	0.441868
H43	H	1.043008	0.410702	0.000014
N44	N	1.254777	-0.112928	-0.116555
N45	N	1.220522	-0.173539	-0.198852
H46	H	1.187814	-0.162222	-0.281176
N47	N	0.813856	0.233112	0.000036
N48	N	0.731439	0.213244	0.095725
H49	H	0.696105	0.152371	0.095751
N50	N	1.026870	0.195186	0.000027
N51	N	0.913835	0.176875	0.000034
H52	H	0.878485	0.116005	0.000050
N53	N	1.479688	-0.112630	-0.250397
N54	N	1.387993	-0.070875	-0.240442
H55	H	1.358938	-0.060273	-0.325393
H56	H	1.260276	-0.260465	-0.093456
N57	N	1.214405	-0.250769	0.115481
N58	N	1.233765	-0.222731	0.233213
H59	H	1.174197	-0.240185	0.315135
N60	N	1.217829	-0.093897	0.116774
N61	N	1.157845	-0.141144	0.198147
H62	H	1.099049	-0.116381	0.280621
H63	H	1.578894	-0.076025	0.134441
N64	N	1.398547	-0.224252	0.251290
N65	N	1.346336	-0.167671	0.335453
H66	H	1.290613	-0.182966	0.421306
H67	H	1.573939	-0.219655	0.135610
N68	N	1.645446	-0.090627	-0.139937
N69	N	1.673638	-0.032147	-0.050802
H70	H	1.761657	-0.006004	-0.057737
N71	N	1.404823	-0.068183	0.250626
N72	N	1.317385	-0.026709	0.241737
H73	H	1.263723	-0.000385	0.327192
H74	H	1.492579	-0.259845	-0.226640
N75	N	1.643481	-0.245860	-0.129468
N76	N	1.665426	-0.282340	-0.036177
H77	H	1.752218	-0.297473	-0.036919
N78	N	1.541223	0.272215	0.348253
N79	N	1.561043	0.261452	0.220685
H80	H	1.628448	0.224885	0.169004
