data_functionalizedCrystal
_audit_creation_method	'MofGen! by Chris Wilmer'
_symmetry_space_group_name_H-M	'P1'
_symmetry_Int_Tables_number	1
_symmetry_cell_setting	triclinic
loop_
_symmetry_equiv_pos_as_xyz
  x,y,z
_cell_length_a	16.625548
_cell_length_b	12.827893
_cell_length_c	12.827885
_cell_angle_alpha	89.974758
_cell_angle_beta	90.023203
_cell_angle_gamma	89.996631
loop_
_atom_site_label
_atom_site_type_symbol
_atom_site_fract_x
_atom_site_fract_y
_atom_site_fract_z
Zn1	Zn	-1.232794	-0.415984	-0.590987
Zn2	Zn	-1.232739	-0.590762	-0.416262
Zn3	Zn	-1.097953	-0.416035	-0.416250
Zn4	Zn	-1.097970	-0.590684	-0.590951
O5	O	-1.165364	-0.503366	-0.503612
O6	O	-1.345619	-0.439180	-0.567830
O7	O	-1.214830	-0.567639	-0.270024
O8	O	-1.115856	-0.269793	-0.439439
O9	O	-1.345579	-0.567589	-0.439460
O10	O	-1.214922	-0.269755	-0.567818
O11	O	-1.115803	-0.439268	-0.270015
O12	O	-0.985123	-0.439191	-0.439404
O13	O	-1.115885	-0.567455	-0.737192
O14	O	-0.985136	-0.567505	-0.567756
O15	O	-1.214939	-0.439104	-0.737219
O16	O	-1.214846	-0.736988	-0.439425
O17	O	-1.115832	-0.736930	-0.567768
C18	C	-0.955873	-0.503346	-0.503575
C19	C	-0.866252	-0.503362	-0.503584
C20	C	-1.165357	-0.774876	-0.503616
C21	C	-1.165428	-0.891029	-0.503653
C22	C	-1.165420	-0.503265	-0.776183
C23	C	-1.165443	-0.503222	-0.892336
C24	C	-0.538077	-0.503360	-0.503615
C25	C	-0.629385	-0.503358	-0.503603
C26	C	-0.702161	-0.503362	-0.503598
C27	C	-0.793476	-0.503358	-0.503588
C28	C	-0.375673	-0.503381	-0.503641
C29	C	-0.465294	-0.503370	-0.503627
C30	C	-1.165393	-0.230796	-0.503631
C31	C	-1.165405	-0.114643	-0.503639
C32	C	-1.116395	-0.062877	-0.440124
C33	C	-1.116406	0.057173	-0.440130
C34	C	-1.116444	-0.566708	-0.944107
C35	C	-1.116467	-0.566665	-1.064158
C36	C	-1.165355	-0.503392	-0.232103
C37	C	-1.165488	-0.503141	-0.115950
H38	H	-1.074424	-0.107435	-0.385744
H39	H	-1.207371	-0.070086	-0.558027
N40	N	-1.060825	0.116140	-0.368099
H41	H	-1.003202	0.097213	-0.384299
H42	H	-1.073386	0.097147	-0.293446
N43	N	-1.221018	0.050035	-0.575699
H44	H	-1.258343	0.004729	-0.533202
H45	H	-1.188169	0.004832	-0.624067
H46	H	-1.074480	-0.621097	-0.899554
N47	N	-1.060902	-0.638671	-1.123124
H48	H	-1.028186	-0.681071	-1.072061
H49	H	-1.023631	-0.596074	-1.168407
N50	N	-1.221066	-0.431145	-1.056990
H51	H	-1.253783	-0.388747	-1.108053
H52	H	-1.188211	-0.382836	-1.011701
N53	N	-1.221027	-0.431168	-0.951342
H54	H	-1.253722	-0.388803	-0.900299
H55	H	-1.258317	-0.473727	-0.996636
