data_functionalizedCrystal
_audit_creation_method	'MofGen! by Chris Wilmer'
_symmetry_space_group_name_H-M	'P1'
_symmetry_Int_Tables_number	1
_symmetry_cell_setting	triclinic
loop_
_symmetry_equiv_pos_as_xyz
  x,y,z
_cell_length_a	29.019771
_cell_length_b	29.019011
_cell_length_c	29.015668
_cell_angle_alpha	60.004890
_cell_angle_beta	60.009825
_cell_angle_gamma	59.993818
loop_
_atom_site_label
_atom_site_type_symbol
_atom_site_fract_x
_atom_site_fract_y
_atom_site_fract_z
O1	O	0.063866	-0.673289	0.563007
O2	O	0.024059	-0.524205	0.453633
O3	O	0.118464	-0.618532	0.453552
O4	O	-0.030540	-0.578962	0.563088
O5	O	0.149785	-0.587215	0.484789
O6	O	0.055379	-0.492888	0.484869
O7	O	0.095186	-0.641972	0.594244
Cu8	Cu	0.078143	-0.564571	0.542409
Cu9	Cu	0.041102	-0.601606	0.505468
O10	O	0.000781	-0.547645	0.594325
N11	N	0.104196	-0.538525	0.568394
N12	N	0.015054	-0.627656	0.479483
C13	C	0.143783	-0.499167	0.850823
C14	C	0.386758	-0.499111	0.607645
C15	C	0.143618	-0.499136	0.607763
C16	C	0.143598	-0.256029	0.607770
C17	C	0.182748	-0.373362	0.646852
C18	C	0.182758	-0.460025	0.646847
C19	C	0.204440	-0.438361	0.668500
C20	C	0.298958	-0.422064	0.618723
C21	C	0.358043	-0.441753	0.599006
C22	C	0.358069	-0.537354	0.635461
C23	C	0.298985	-0.517664	0.655180
C24	C	0.196983	-0.343808	0.588767
C25	C	0.177262	-0.284720	0.569090
C26	C	0.129075	-0.284743	0.665586
C27	C	0.148797	-0.343831	0.685263
C28	C	0.124666	-0.445760	0.661149
C29	C	0.104961	-0.465454	0.641458
C30	C	0.201435	-0.513678	0.593176
C31	C	0.221143	-0.493984	0.612860
C32	C	0.124738	-0.445777	0.763064
C33	C	0.105085	-0.465488	0.822151
C34	C	0.201594	-0.513722	0.822097
C35	C	0.221247	-0.494012	0.763009
C36	C	0.182817	-0.460038	0.733494
C37	C	0.269432	-0.460018	0.646809
C38	C	0.121399	-0.520450	0.915812
C39	C	0.451745	-0.520012	0.585655
C40	C	0.121177	-0.520429	0.586502
C41	C	0.121544	-0.191035	0.586883
C42	C	-0.110592	-0.666601	0.440035
C43	C	-0.023978	-0.666709	0.440231
C44	C	-0.045598	-0.688342	0.418486
C45	C	-0.061967	-0.782825	0.468184
C46	C	-0.042323	-0.841914	0.487907
C47	C	0.053280	-0.842025	0.451623
C48	C	0.033634	-0.782937	0.431899
C49	C	-0.140218	-0.680832	0.498102
C50	C	-0.199302	-0.661065	0.517690
C51	C	-0.199129	-0.612843	0.421140
C52	C	-0.140045	-0.632610	0.401552
C53	C	-0.038209	-0.608622	0.425941
C54	C	-0.018555	-0.588961	0.445716
C55	C	0.029562	-0.685470	0.494059
C56	C	0.009908	-0.705133	0.474291
C57	C	-0.038037	-0.608631	0.323917
C58	C	-0.018247	-0.588973	0.264830
C59	C	0.029955	-0.685489	0.264893
C60	C	0.010165	-0.705145	0.323981
C61	C	-0.023833	-0.666715	0.353492
C62	C	-0.023990	-0.753339	0.440182
N63	N	0.504925	-0.538487	0.568205
O64	O	0.685342	-0.543679	0.433426
O65	O	0.685533	-0.653395	0.582361
O66	O	0.685457	-0.653145	0.487904
O67	O	0.685418	-0.543929	0.527882
O68	O	0.591592	-0.621921	0.519268
O69	O	0.591667	-0.622171	0.613725
O70	O	0.591477	-0.512455	0.464790
Cu71	Cu	0.583001	-0.564462	0.542121
Cu72	Cu	0.694008	-0.601388	0.505029
O73	O	0.591553	-0.512705	0.559246
N74	N	0.772084	-0.627363	0.478939
N75	N	0.104168	-0.137853	0.568408
O76	O	-0.030538	0.042663	0.563097
O77	O	0.118403	0.042683	0.453379
O78	O	0.023918	0.042657	0.453664
O79	O	0.063947	0.042689	0.562813
O80	O	0.055242	-0.051215	0.484950
O81	O	0.149727	-0.051189	0.484666
O82	O	0.000787	-0.051210	0.594384
Cu83	Cu	0.078117	-0.059771	0.542381
Cu84	Cu	0.041072	0.051244	0.505382
O85	O	0.095272	-0.051184	0.594099
N86	N	0.015015	0.129326	0.479356
N87	N	0.104469	-0.538576	0.968995
O88	O	0.099171	-0.673268	1.149499
O89	O	-0.010519	-0.524279	1.149527
O90	O	-0.010265	-0.618748	1.149494
O91	O	0.098916	-0.578799	1.149533
O92	O	0.021008	-0.587443	1.055625
O93	O	0.020753	-0.492974	1.055659
O94	O	0.130444	-0.641963	1.055630
Cu95	Cu	0.078454	-0.564610	1.047074
Cu96	Cu	0.041470	-0.601632	1.158084
O97	O	0.130189	-0.547494	1.055664
N98	N	0.015455	-0.627672	1.236163
C99	C	0.035988	-0.489761	0.454182
C100	C	0.152897	-0.606574	0.454082
C101	C	0.083257	-0.676417	0.593694
C102	C	-0.033653	-0.559604	0.593794
C103	C	0.638623	-0.652892	0.616806
C104	C	0.638531	-0.652583	0.499833
C105	C	0.638384	-0.512957	0.430345
C106	C	0.638480	-0.513267	0.547317
C107	C	0.152789	-0.004135	0.453875
C108	C	0.035820	-0.004282	0.454266
C109	C	-0.033639	-0.004275	0.593849
C110	C	0.083370	-0.004245	0.593498
C111	C	-0.009989	-0.489856	1.102597
C112	C	-0.009667	-0.606839	1.102536
C113	C	0.129914	-0.676386	1.102561
C114	C	0.129599	-0.559396	1.102601
H115	H	0.093440	-0.418108	0.739036
O116	O	0.270390	-0.554607	0.682428
C117	C	0.309146	-0.609710	0.685596
H118	H	0.351249	-0.607457	0.650685
H119	H	0.315461	-0.632268	0.728407
C120	C	0.234367	-0.645239	0.721260
C121	C	0.286077	-0.642472	0.678379
H122	H	0.220136	-0.665450	0.716811
H123	H	0.208255	-0.608116	0.719128
H124	H	0.239636	-0.664036	0.756932
H125	H	0.280805	-0.623669	0.642709
H126	H	0.312187	-0.679593	0.680505
O127	O	0.203691	-0.003850	0.412626
C128	C	0.203612	-0.003741	0.364019
H129	H	0.170332	-0.021698	0.376540
H130	H	0.193510	0.041347	0.333489
C131	C	0.303004	-0.018218	0.319873
C132	C	0.262132	-0.040277	0.335252
H133	H	0.339102	-0.040753	0.302126
H134	H	0.303057	-0.018289	0.352619
H135	H	0.294578	0.019355	0.294434
H136	H	0.270554	-0.077847	0.360696
H137	H	0.262081	-0.040213	0.302509
O138	O	0.638572	-0.693587	0.489716
C139	C	0.638626	-0.742301	0.538173
H140	H	0.656420	-0.741811	0.565108
H141	H	0.593612	-0.743008	0.563675
C142	C	0.653602	-0.795824	0.487189
C143	C	0.675461	-0.795224	0.520269
H144	H	0.676321	-0.828470	0.476146
H145	H	0.653563	-0.763004	0.454543
H146	H	0.616090	-0.796411	0.508445
H147	H	0.712969	-0.794629	0.499011
H148	H	0.675507	-0.828045	0.552911
O149	O	0.093311	-0.727467	0.634748
C150	C	0.044814	-0.727608	0.683413
H151	H	0.017897	-0.682371	0.682862
H152	H	0.019317	-0.747827	0.684107
C153	C	0.095699	-0.817116	0.737059
C154	C	0.062642	-0.761555	0.736384
H155	H	0.106695	-0.838058	0.769733
H156	H	0.128372	-0.817022	0.704271
H157	H	0.074446	-0.833958	0.737634
H158	H	0.083896	-0.744711	0.735801
H159	H	0.029973	-0.761646	0.769172
H160	H	-0.076413	-0.004282	0.628294
O161	O	0.025520	-0.004333	0.413431
C162	C	-0.029961	-0.004338	0.434001
H163	H	-0.044794	-0.022092	0.482077
H164	H	-0.059176	0.040689	0.419718
C165	C	-0.012845	-0.019379	0.351775
C166	C	-0.031061	-0.041190	0.410823
H167	H	-0.013525	-0.042109	0.337476
H168	H	0.024533	-0.019374	0.337915
H169	H	-0.037193	0.018143	0.339880
H170	H	-0.006709	-0.078709	0.422716
H171	H	-0.068435	-0.041202	0.424684
O172	O	0.203953	-0.616539	0.413024
C173	C	0.228986	-0.577789	0.397837
H174	H	0.194786	-0.538738	0.409205
H175	H	0.259765	-0.598234	0.421556
C176	C	0.302957	-0.608559	0.319888
C177	C	0.260951	-0.560594	0.333847
H178	H	0.322677	-0.597953	0.280417
H179	H	0.286094	-0.634667	0.330121
H180	H	0.328600	-0.625591	0.339659
H181	H	0.235305	-0.543566	0.314082
H182	H	0.277811	-0.534482	0.323609
O183	O	0.093696	-0.004271	0.634358
C184	C	0.149171	-0.004249	0.613782
H185	H	0.175857	-0.022013	0.577546
H186	H	0.148331	0.040788	0.598042
C187	C	0.142079	-0.019248	0.706022
C188	C	0.174857	-0.041071	0.661520
H189	H	0.157923	-0.041959	0.735469
H190	H	0.104704	-0.019260	0.719884
H191	H	0.141382	0.018282	0.692898
H192	H	0.175548	-0.078598	0.674642
H193	H	0.212233	-0.041066	0.647660
H194	H	-0.044426	-0.447066	1.102605
O195	O	-0.084730	-0.549445	0.634779
C196	C	-0.119809	-0.493990	0.614373
H197	H	-0.092633	-0.467187	0.578123
H198	H	-0.148317	-0.494850	0.598704
C199	C	-0.189710	-0.501381	0.706740
C200	C	-0.156331	-0.468460	0.662220
H201	H	-0.212240	-0.485633	0.736254
H202	H	-0.166077	-0.538743	0.720488
H203	H	-0.213461	-0.502095	0.693675
H204	H	-0.132576	-0.467752	0.675284
H205	H	-0.179960	-0.431097	0.648475
H206	H	0.638671	-0.687334	0.659583
O207	O	-0.050501	-0.617098	1.102450
C208	C	-0.029942	-0.672580	1.102433
H209	H	0.018133	-0.687446	1.084693
H210	H	-0.044234	-0.701786	1.147453
C211	C	-0.112165	-0.655397	1.087352
C212	C	-0.053119	-0.673652	1.065559
H213	H	-0.126463	-0.656059	1.064608
H214	H	-0.126017	-0.618018	1.087365
H215	H	-0.124067	-0.679737	1.124868
H216	H	-0.041217	-0.649308	1.028046
H217	H	-0.039265	-0.711028	1.065538
H218	H	0.638322	-0.478510	0.387573
O219	O	0.170537	-0.549143	1.102506
C220	C	0.183476	-0.503426	1.053906
H221	H	0.171072	-0.498977	1.019923
H222	H	0.159123	-0.462957	1.064908
C223	C	0.262498	-0.519629	1.073598
C224	C	0.247267	-0.514168	1.031859
H225	H	0.301847	-0.526252	1.060000
H226	H	0.253780	-0.550427	1.106343
H227	H	0.242199	-0.485903	1.082763
H228	H	0.267561	-0.547895	1.022700
H229	H	0.255990	-0.483375	0.999112
O230	O	0.170931	-0.727471	1.102574
C231	C	0.150622	-0.762585	1.102539
H232	H	0.102547	-0.747297	1.120311
H233	H	0.164962	-0.761050	1.057500
C234	C	0.233054	-0.842444	1.117509
C235	C	0.174008	-0.823670	1.139341
H236	H	0.247481	-0.880125	1.140208
H237	H	0.246738	-0.818787	1.117530
H238	H	0.244996	-0.841161	1.079976
H239	H	0.162066	-0.824947	1.176870
H240	H	0.160323	-0.847329	1.139327
O241	O	0.638540	-0.472404	0.557561
C242	C	0.687188	-0.491816	0.570790
H243	H	0.703439	-0.539929	0.586977
H244	H	0.721189	-0.475703	0.531339
C245	C	0.652488	-0.410699	0.596788
C246	C	0.672445	-0.469793	0.616674
H247	H	0.643395	-0.397113	0.625089
H248	H	0.619713	-0.397620	0.587873
H249	H	0.680825	-0.397279	0.563912
H250	H	0.644105	-0.483211	0.649545
H251	H	0.705214	-0.482874	0.625595
O252	O	0.048644	-0.451551	0.850782
C253	C	0.018945	-0.417349	0.812058
H254	H	0.047104	-0.395865	0.769932
H255	H	0.006195	-0.444604	0.805781
C256	C	-0.068898	-0.398580	0.886880
C257	C	-0.034314	-0.372189	0.835142
H258	H	-0.101752	-0.370725	0.901119
H259	H	-0.048889	-0.421624	0.912970
H260	H	-0.079516	-0.421292	0.881642
H261	H	-0.023690	-0.349484	0.840381
H262	H	-0.054322	-0.349140	0.809053
H263	H	0.268542	-0.505632	0.738936
O264	O	0.238948	-0.546794	0.850738
C265	C	0.273125	-0.596337	0.836269
H266	H	0.250298	-0.604559	0.820044
H267	H	0.314616	-0.590953	0.801952
C268	C	0.313282	-0.636520	0.908663
C269	C	0.285243	-0.646622	0.888740
H270	H	0.320760	-0.667539	0.941029
H271	H	0.290258	-0.603142	0.918410
H272	H	0.347855	-0.632033	0.880061
H273	H	0.250668	-0.651102	0.917340
H274	H	0.308261	-0.680003	0.878999
O275	O	0.048526	-0.451672	0.655447
C276	C	0.024028	-0.471887	0.714630
H277	H	0.057695	-0.508326	0.733652
H278	H	0.005375	-0.436445	0.732143
C279	C	-0.064365	-0.447865	0.706565
C280	C	-0.023015	-0.492624	0.729927
H281	H	-0.093385	-0.460655	0.716002
H282	H	-0.047861	-0.434244	0.666692
H283	H	-0.079903	-0.418335	0.721161
H284	H	-0.007473	-0.522150	0.715326
H285	H	-0.039517	-0.506251	0.769799
O286	O	0.238800	-0.546642	0.560152
C287	C	0.294297	-0.555021	0.551769
H288	H	0.294191	-0.519399	0.558374
H289	H	0.311251	-0.597116	0.583204
C290	C	0.332291	-0.599178	0.483117
C291	C	0.332161	-0.555424	0.491224
H292	H	0.355648	-0.599430	0.445771
H293	H	0.294902	-0.593536	0.488765
H294	H	0.346418	-0.634254	0.509316
H295	H	0.318028	-0.520350	0.465030
H296	H	0.369549	-0.561061	0.485569
H297	H	0.268446	-0.505593	0.601208
O298	O	0.386808	-0.593334	0.643487
C299	C	0.420968	-0.601356	0.590741
H300	H	0.403133	-0.563948	0.556684
H301	H	0.465748	-0.604840	0.580492
C302	C	0.443791	-0.701892	0.634801
C303	C	0.421883	-0.655948	0.592973
H304	H	0.444358	-0.735568	0.636178
H305	H	0.420778	-0.696487	0.670338
H306	H	0.481106	-0.704787	0.626255
H307	H	0.384567	-0.653050	0.601523
H308	H	0.444889	-0.661354	0.557438
H309	H	0.093408	-0.418110	0.688821
H310	H	0.027485	-0.446933	0.419832
H311	H	0.382082	-0.410845	0.576135
H312	H	0.224626	-0.367851	0.557490
O313	O	0.270315	-0.366045	0.610493
C314	C	0.284706	-0.335557	0.552155
H315	H	0.327599	-0.361372	0.528876
H316	H	0.251435	-0.326743	0.536068
C317	C	0.234749	-0.247581	0.570197
C318	C	0.287433	-0.279285	0.541606
H319	H	0.236428	-0.212869	0.563689
H320	H	0.225051	-0.268121	0.609500
H321	H	0.207028	-0.240242	0.556788
H322	H	0.315151	-0.286630	0.555019
H323	H	0.297135	-0.258745	0.502304
O324	O	0.191062	-0.256069	0.512650
C325	C	0.170824	-0.270493	0.488126
H326	H	0.165057	-0.313400	0.516136
H327	H	0.128586	-0.237242	0.483754
C328	C	0.220650	-0.220502	0.395002
C329	C	0.213571	-0.273205	0.429402
H330	H	0.247016	-0.222173	0.358777
H331	H	0.234283	-0.210783	0.411524
H332	H	0.185448	-0.192799	0.391365
H333	H	0.248771	-0.300906	0.433044
H334	H	0.199945	-0.282929	0.412879
O335	O	0.096163	-0.256111	0.702947
C336	C	0.126033	-0.270530	0.737072
H337	H	0.160437	-0.313427	0.737639
H338	H	0.146073	-0.237265	0.719286
C339	C	0.042858	-0.220581	0.796914
C340	C	0.085112	-0.273270	0.797614
H341	H	0.017616	-0.222269	0.834258
H342	H	0.022734	-0.210865	0.773922
H343	H	0.059565	-0.192866	0.782089
H344	H	0.068405	-0.300983	0.812432
H345	H	0.105232	-0.282991	0.820610
O346	O	-0.032154	-0.532541	0.236133
C347	C	-0.091325	-0.507947	0.250479
H348	H	-0.110385	-0.541559	0.266676
H349	H	-0.108872	-0.489281	0.284778
C350	C	-0.083102	-0.419610	0.178042
C351	C	-0.106511	-0.460892	0.197931
H352	H	-0.092470	-0.390582	0.145629
H353	H	-0.043237	-0.436178	0.168378
H354	H	-0.097726	-0.404061	0.206630
H355	H	-0.091881	-0.476444	0.169346
H356	H	-0.146374	-0.444325	0.207589
O357	O	0.023996	-0.761590	0.352621
C358	C	0.058254	-0.791290	0.313902
H359	H	0.050793	-0.763111	0.271742
H360	H	0.104519	-0.804085	0.307712
C361	C	0.052420	-0.879126	0.388704
C362	C	0.043253	-0.844517	0.336923
H363	H	0.043169	-0.911960	0.402905
H364	H	0.029342	-0.859117	0.414790
H365	H	0.090974	-0.889782	0.383539
H366	H	0.004698	-0.833856	0.342090
H367	H	0.066324	-0.864526	0.310838
O368	O	-0.071209	-0.571271	0.392945
C369	C	-0.120775	-0.537054	0.422713
H370	H	-0.129068	-0.559853	0.469997
H371	H	-0.115383	-0.495565	0.410160
C372	C	-0.160814	-0.496922	0.350238
C373	C	-0.171002	-0.524927	0.408313
H374	H	-0.191796	-0.489439	0.341354
H375	H	-0.127420	-0.519973	0.330181
H376	H	-0.156319	-0.462351	0.339784
H377	H	-0.175489	-0.559500	0.418764
H378	H	-0.204398	-0.501881	0.428371
O379	O	-0.032443	-0.532539	0.431926
C380	C	-0.062245	-0.518216	0.481551
H381	H	-0.082296	-0.551484	0.517021
H382	H	-0.031902	-0.516285	0.494066
C383	C	-0.084075	-0.419377	0.427373
C384	C	-0.108706	-0.460236	0.470937
H385	H	-0.112733	-0.383611	0.420826
H386	H	-0.063995	-0.429026	0.393940
H387	H	-0.058790	-0.417775	0.437808
H388	H	-0.133985	-0.461842	0.460498
H389	H	-0.128791	-0.450585	0.504368
O390	O	0.062455	-0.722873	0.527154
C391	C	0.070812	-0.778357	0.535508
H392	H	0.035221	-0.778207	0.528818
H393	H	0.112931	-0.795331	0.504116
C394	C	0.114838	-0.816424	0.604293
C395	C	0.071121	-0.816239	0.596081
H396	H	0.115031	-0.839792	0.641657
H397	H	0.109209	-0.779044	0.598664
H398	H	0.149932	-0.830567	0.578129
H399	H	0.036027	-0.802090	0.622240
H400	H	0.076744	-0.853618	0.601717
H401	H	-0.065723	-0.577332	0.347941
O402	O	0.070600	-0.754381	0.404731
C403	C	0.125674	-0.793178	0.401642
H404	H	0.123367	-0.835278	0.436543
H405	H	0.148283	-0.799490	0.358829
C406	C	0.161243	-0.718455	0.366089
C407	C	0.158410	-0.770161	0.408959
H408	H	0.181437	-0.704256	0.370600
H409	H	0.124139	-0.692316	0.368168
H410	H	0.180083	-0.723722	0.330416
H411	H	0.139564	-0.764892	0.444630
H412	H	0.195511	-0.796299	0.406886
H413	H	0.057627	-0.716785	0.240872
O414	O	0.109239	-0.870805	0.443682
C415	C	0.117178	-0.904990	0.496466
H416	H	0.079740	-0.887145	0.530496
H417	H	0.120645	-0.949758	0.506688
C418	C	0.217722	-0.927879	0.452553
C419	C	0.171741	-0.905959	0.494348
H420	H	0.251380	-0.928479	0.451246
H421	H	0.212374	-0.904850	0.416991
H422	H	0.220603	-0.965184	0.461076
H423	H	0.168856	-0.868652	0.485821
H424	H	0.177090	-0.928982	0.529909
H425	H	0.137197	-0.367895	0.732563
H426	H	0.021495	-0.752433	0.485928
H427	H	-0.073247	-0.865920	0.510699
H428	H	-0.108889	-0.758731	0.474933
H429	H	-0.116238	-0.708516	0.529438
H430	H	-0.223425	-0.672650	0.564976
H431	H	-0.115923	-0.621016	0.354266
O432	O	-0.227657	-0.579815	0.383683
C433	C	-0.188838	-0.571516	0.328229
H434	H	-0.146741	-0.578167	0.328420
H435	H	-0.182539	-0.602968	0.311292
C436	C	-0.263512	-0.502815	0.290039
C437	C	-0.211810	-0.510978	0.290273
H438	H	-0.277682	-0.465473	0.266625
H439	H	-0.289666	-0.508407	0.327400
H440	H	-0.258256	-0.529028	0.275926
H441	H	-0.217068	-0.484770	0.304392
H442	H	-0.185657	-0.505379	0.252913
