data_functionalizedCrystal
_audit_creation_method	'MofGen! by Chris Wilmer'
_symmetry_space_group_name_H-M	'P1'
_symmetry_Int_Tables_number	1
_symmetry_cell_setting	triclinic
loop_
_symmetry_equiv_pos_as_xyz
  x,y,z
_cell_length_a	16.625539
_cell_length_b	16.625548
_cell_length_c	18.101165
_cell_angle_alpha	90.184977
_cell_angle_beta	89.799111
_cell_angle_gamma	90.020568
loop_
_atom_site_label
_atom_site_type_symbol
_atom_site_fract_x
_atom_site_fract_y
_atom_site_fract_z
Zn1	Zn	-0.454943	-1.233848	-0.294814
Zn2	Zn	-0.121610	-0.900515	0.038519
Zn3	Zn	0.211724	-0.567182	0.371852
Zn4	Zn	-0.319704	-1.234242	-0.418666
Zn5	Zn	0.013629	-0.900909	-0.085333
Zn6	Zn	0.346963	-0.567575	0.248000
Zn7	Zn	-0.320123	-1.099010	-0.294842
Zn8	Zn	0.013210	-0.765677	0.038491
Zn9	Zn	0.346543	-0.432343	0.371824
Zn10	Zn	-0.454494	-1.099471	-0.418624
Zn11	Zn	-0.121161	-0.766138	-0.085290
Zn12	Zn	0.212173	-0.432804	0.248043
O13	O	-0.387316	-1.166643	-0.356737
O14	O	-0.053983	-0.833309	-0.023403
O15	O	0.279351	-0.499976	0.309930
O16	O	-0.437016	-1.346733	-0.311249
O17	O	-0.103682	-1.013400	0.022084
O18	O	0.229651	-0.680066	0.355417
O19	O	-0.206927	-1.216275	-0.402270
O20	O	0.126406	-0.882942	-0.068937
O21	O	0.459739	-0.549609	0.264396
O22	O	-0.338371	-1.116539	-0.191203
O23	O	-0.005037	-0.783206	0.142130
O24	O	0.328296	-0.449872	0.475463
O25	O	-0.337656	-1.347022	-0.402243
O26	O	-0.004323	-1.013689	-0.068910
O27	O	0.329010	-0.680356	0.264424
O28	O	-0.437422	-1.215604	-0.191183
O29	O	-0.104089	-0.882271	0.142151
O30	O	0.229245	-0.548937	0.475484
O31	O	-0.207235	-1.116921	-0.311297
O32	O	0.126098	-0.783588	0.022036
O33	O	0.459431	-0.450254	0.355369
O34	O	-0.337936	-0.986239	-0.311256
O35	O	-0.004602	-0.652906	0.022077
O36	O	0.328731	-0.319572	0.355410
O37	O	-0.567386	-1.117324	-0.402170
O38	O	-0.234053	-0.783991	-0.068837
O39	O	0.099280	-0.450658	0.264496
O40	O	-0.436657	-0.986577	-0.402198
O41	O	-0.103324	-0.653244	-0.068865
O42	O	0.230009	-0.319911	0.264469
O43	O	-0.567716	-1.216051	-0.311208
O44	O	-0.234383	-0.882717	0.022125
O45	O	0.098951	-0.549384	0.355458
O46	O	-0.337221	-1.216722	-0.522296
O47	O	-0.003888	-0.883389	-0.188963
O48	O	0.329446	-0.550055	0.144371
O49	O	-0.436251	-1.117706	-0.522265
O50	O	-0.102917	-0.784373	-0.188931
O51	O	0.230416	-0.451040	0.144402
C52	C	-0.387294	-0.957152	-0.356726
C53	C	-0.053960	-0.623819	-0.023393
C54	C	0.279373	-0.290485	0.309941
C55	C	-0.387303	-0.867531	-0.356739
C56	C	-0.053970	-0.534198	-0.023406
C57	C	0.279364	-0.200864	0.309927
C58	C	-0.386659	-1.167329	-0.549152
C59	C	-0.053326	-0.833995	-0.215818
C60	C	0.280007	-0.500662	0.117515
C61	C	-0.386405	-1.167696	-0.631468
C62	C	-0.053072	-0.834363	-0.298135
C63	C	0.280261	-0.501029	0.035199
C64	C	-0.597625	-1.166695	-0.356681
C65	C	-0.264292	-0.833362	-0.023348
C66	C	0.069041	-0.500028	0.309985
C67	C	-0.687247	-1.166717	-0.356658
C68	C	-0.353913	-0.833384	-0.023325
C69	C	-0.020580	-0.500051	0.310009
C70	C	-1.015423	-1.166754	-0.356575
C71	C	-0.682089	-0.833421	-0.023242
C72	C	-0.348756	-0.500087	0.310092
C73	C	-0.924114	-1.166742	-0.356600
C74	C	-0.590781	-0.833408	-0.023267
C75	C	-0.257447	-0.500075	0.310066
C76	C	-0.851338	-1.166736	-0.356617
C77	C	-0.518004	-0.833403	-0.023284
C78	C	-0.184671	-0.500069	0.310050
C79	C	-0.760023	-1.166723	-0.356641
C80	C	-0.426690	-0.833389	-0.023308
C81	C	-0.093356	-0.500056	0.310025
C82	C	-0.177825	-1.166637	-0.356738
C83	C	0.155508	-0.833304	-0.023405
C84	C	0.488841	-0.499970	0.309929
C85	C	-0.088205	-1.166770	-0.356553
C86	C	0.245128	-0.833437	-0.023220
C87	C	0.578461	-0.500104	0.310114
C88	C	-0.387339	-1.376952	-0.356748
C89	C	-0.054006	-1.043618	-0.023414
C90	C	0.279327	-0.710285	0.309919
C91	C	-0.387349	-1.466573	-0.356753
C92	C	-0.054016	-1.133240	-0.023419
C93	C	0.279318	-0.799906	0.309914
C94	C	-0.387338	-0.539355	-0.356744
C95	C	-0.054004	-0.206022	-0.023411
C96	C	0.279329	0.127311	0.309922
C97	C	-0.387325	-0.630664	-0.356741
C98	C	-0.053992	-0.297330	-0.023407
C99	C	0.279341	0.036003	0.309926
C100	C	-0.387320	-0.703440	-0.356742
C101	C	-0.053986	-0.370107	-0.023409
C102	C	0.279347	-0.036774	0.309924
C103	C	-0.387309	-0.794754	-0.356738
C104	C	-0.053975	-0.461421	-0.023405
C105	C	0.279358	-0.128088	0.309929
C106	C	-0.387993	-1.165976	-0.163570
C107	C	-0.054660	-0.832643	0.169763
C108	C	0.278673	-0.499310	0.503097
C109	C	-0.388282	-1.165692	-0.081254
C110	C	-0.054948	-0.832359	0.252079
C111	C	0.278385	-0.499026	0.585413
C112	C	-0.387653	-1.166364	0.069450
C113	C	-0.054320	-0.833031	0.402783
C114	C	0.279014	-0.499697	0.736117
C115	C	-0.325206	-1.104174	0.100790
C116	C	0.008128	-0.770841	0.434123
C117	C	0.341461	-0.437508	0.767456
C118	C	-0.324604	-1.104739	0.186403
C119	C	0.008729	-0.771406	0.519736
C120	C	0.342063	-0.438072	0.853069
C121	C	-0.387034	-1.167024	0.217828
C122	C	-0.053701	-0.833691	0.551162
C123	C	0.279633	-0.500357	0.884495
C124	C	-0.364386	-1.251918	0.186023
C125	C	-0.031052	-0.918585	0.519356
C126	C	0.302281	-0.585251	0.852690
C127	C	-0.364291	-1.251176	0.100380
C128	C	-0.030957	-0.917843	0.433713
C129	C	0.302376	-0.584510	0.767047
C130	C	-0.472773	-1.144545	0.101730
C131	C	-0.139440	-0.811211	0.435064
C132	C	0.193894	-0.477878	0.768397
C133	C	-0.471959	-1.143051	0.187388
C134	C	-0.138626	-0.809718	0.520721
C135	C	0.194707	-0.476384	0.854055
C136	C	-0.386685	-1.167402	0.301685
C137	C	-0.053352	-0.834069	0.635018
C138	C	0.279981	-0.500736	0.968352
C139	C	-0.388000	-1.165991	-0.014407
C140	C	-0.054666	-0.832658	0.318926
C141	C	0.278667	-0.499325	0.652260
H142	H	-0.338740	-1.041788	0.207936
H143	H	-0.005406	-0.708455	0.541270
H144	H	0.327927	-0.375121	0.874603
C145	C	-0.344328	-1.018605	0.073693
C146	C	-0.010995	-0.685272	0.407026
C147	C	0.322339	-0.351939	0.740359
N148	N	-0.358740	-0.954151	0.053288
N149	N	-0.025407	-0.620817	0.386621
N150	N	0.307927	-0.287484	0.719954
C151	C	-0.535609	-1.205744	0.074353
C152	C	-0.202276	-0.872411	0.407686
C153	C	0.131058	-0.539077	0.741020
N154	N	-0.582932	-1.251841	0.053727
N155	N	-0.249598	-0.918508	0.387061
N156	N	0.083735	-0.585174	0.720394
C157	C	-0.239145	-1.124510	0.213385
C158	C	0.094188	-0.791177	0.546718
C159	C	0.427522	-0.457843	0.880051
N160	N	-0.174773	-1.139398	0.233707
N161	N	0.158561	-0.806064	0.567040
N162	N	0.491894	-0.472731	0.900373
C163	C	-0.423702	-1.316496	0.213492
C164	C	-0.090369	-0.983163	0.546825
C165	C	0.242965	-0.649829	0.880158
N166	N	-0.468378	-1.365135	0.234184
N167	N	-0.135045	-1.031802	0.567518
N168	N	0.198288	-0.698469	0.900851
H169	H	-0.262484	-1.118460	0.078758
H170	H	0.070849	-0.785127	0.412092
H171	H	0.404183	-0.451794	0.745425
H172	H	-0.302065	-1.269668	0.079865
H173	H	0.031268	-0.936335	0.413199
H174	H	0.364602	-0.603001	0.746532
H175	H	-0.302672	-1.270915	0.206936
H176	H	0.030661	-0.937582	0.540269
H177	H	0.363995	-0.604249	0.873602
C178	C	-0.495062	-1.058637	0.215562
C179	C	-0.161729	-0.725303	0.548895
C180	C	0.171604	-0.391970	0.882229
N181	N	-0.512463	-0.995057	0.236790
N182	N	-0.179130	-0.661723	0.570123
N183	N	0.154204	-0.328390	0.903456
H184	H	-0.407823	-1.299106	0.079617
H185	H	-0.074490	-0.965773	0.412950
H186	H	0.258843	-0.632439	0.746284
C187	C	-0.537895	-1.200012	0.216338
C188	C	-0.204562	-0.866679	0.549671
C189	C	0.128772	-0.533345	0.883004
N190	N	-0.587557	-1.242922	0.238140
N191	N	-0.254223	-0.909589	0.571474
N192	N	0.079110	-0.576255	0.904807
H193	H	-0.493649	-1.083496	0.080677
H194	H	-0.160315	-0.750163	0.414011
H195	H	0.173018	-0.416830	0.747344
