data_functionalizedCrystal
_audit_creation_method	'MofGen! by Chris Wilmer'
_symmetry_space_group_name_H-M	'P1'
_symmetry_Int_Tables_number	1
_symmetry_cell_setting	triclinic
loop_
_symmetry_equiv_pos_as_xyz
  x,y,z
_cell_length_a	6.817900
_cell_length_b	10.943574
_cell_length_c	10.943624
_cell_angle_alpha	91.772393
_cell_angle_beta	108.838799
_cell_angle_gamma	108.837846
loop_
_atom_site_label
_atom_site_type_symbol
_atom_site_fract_x
_atom_site_fract_y
_atom_site_fract_z
V1	V	-4.115492	-0.178596	-0.402524
O2	O	-4.073204	0.008617	-0.394890
O3	O	-4.093439	-0.354160	-0.399743
O4	O	-4.093454	-0.175834	-0.578091
O5	O	-4.073188	-0.170944	-0.215308
V6	V	-4.592290	-0.156205	-0.380134
O7	O	-4.391502	-0.227713	-0.451636
O8	O	-4.766477	-0.107089	-0.331022
O9	O	-4.391136	0.019358	-0.382915
O10	O	-4.751974	-0.343419	-0.387769
O11	O	-4.751990	-0.163858	-0.567350
O12	O	-4.391120	-0.158968	-0.204568
C13	C	-3.943996	-0.396959	-0.393386
C14	C	-4.007427	-0.540485	-0.392284
C15	C	-3.944014	-0.169485	-0.620884
C16	C	-4.007454	-0.168388	-0.764411
C17	C	-3.890258	-0.703489	-0.384276
C18	C	-4.003635	-0.637681	-0.495234
C19	C	-3.893183	-0.604393	-0.281389
C20	C	-4.233990	-0.730421	-0.501411
C21	C	-4.123465	-0.697124	-0.287470
C22	C	-4.237013	-0.631364	-0.398458
C23	C	-3.852284	-0.161001	-0.841560
C24	C	-4.041640	-0.270645	-0.947533
C25	C	-3.931163	-0.056802	-0.914179
C26	C	-4.196021	-0.278135	-0.868507
C27	C	-4.085464	-0.064194	-0.835130
C28	C	-4.274957	-0.173870	-0.941074
C29	C	-4.203921	0.062151	-0.389268
C30	C	-4.119730	0.205675	-0.390379
C31	C	-4.203902	-0.165321	-0.161767
C32	C	-4.119700	-0.166411	-0.018239
H33	H	-3.952392	-0.611143	-0.583092
N34	N	-4.107774	0.045282	-0.773664
N35	N	-4.238019	0.027505	-0.712137
H36	H	-4.253758	0.104832	-0.668720
H37	H	-4.383203	-0.599718	-0.404497
N38	N	-3.711681	-0.535783	-0.164743
N39	N	-3.733088	-0.457772	-0.088443
H40	H	-3.604896	-0.409320	-0.006064
N41	N	-3.627485	-0.154368	-0.787062
N42	N	-3.570458	-0.242040	-0.824807
H43	H	-3.411699	-0.237361	-0.786319
H44	H	-4.307402	-0.371779	-0.847949
H45	H	-4.454271	-0.179337	-0.984317
H46	H	-4.378572	-0.784968	-0.594490
N47	N	-3.791444	0.060554	-0.940160
N48	N	-3.784861	0.169108	-0.896046
H49	H	-3.686160	0.251983	-0.914390
N50	N	-3.707294	-0.743555	-0.376890
N51	N	-3.628819	-0.795942	-0.282362
H52	H	-3.499607	-0.824242	-0.277148
H53	H	-4.023777	-0.357925	-0.996468
N54	N	-4.187666	-0.730446	-0.177240
N55	N	-4.052602	-0.683371	-0.064191
H56	H	-4.097924	-0.706902	0.013671
