data_functionalizedCrystal
_audit_creation_method	'MofGen! by Chris Wilmer'
_symmetry_space_group_name_H-M	'P1'
_symmetry_Int_Tables_number	1
_symmetry_cell_setting	triclinic
loop_
_symmetry_equiv_pos_as_xyz
  x,y,z
_cell_length_a	21.295418
_cell_length_b	21.295417
_cell_length_c	16.625539
_cell_angle_alpha	89.968491
_cell_angle_beta	89.963731
_cell_angle_gamma	90.046319
loop_
_atom_site_label
_atom_site_type_symbol
_atom_site_fract_x
_atom_site_fract_y
_atom_site_fract_z
Zn1	Zn	0.962309	-0.250354	-0.456294
Zn2	Zn	1.295643	0.082979	-0.122961
Zn3	Zn	1.628976	0.416313	0.210372
Zn4	Zn	0.962226	-0.355624	-0.321450
Zn5	Zn	1.295559	-0.022291	0.011884
Zn6	Zn	1.628892	0.311043	0.345217
Zn7	Zn	0.857046	-0.250402	-0.321430
Zn8	Zn	1.190380	0.082932	0.011904
Zn9	Zn	1.523713	0.416265	0.345237
Zn10	Zn	0.857002	-0.355618	-0.456194
Zn11	Zn	1.190335	-0.022285	-0.122861
Zn12	Zn	1.523669	0.311048	0.210472
O13	O	0.909646	-0.302999	-0.388842
O14	O	1.242979	0.030334	-0.055509
O15	O	1.576312	0.363667	0.277825
O16	O	1.050388	-0.264301	-0.438457
O17	O	1.383721	0.069033	-0.105124
O18	O	1.717054	0.402366	0.228209
O19	O	0.948257	-0.341688	-0.208615
O20	O	1.281590	-0.008355	0.124719
O21	O	1.614923	0.324978	0.458052
O22	O	0.871063	-0.162306	-0.339353
O23	O	1.204397	0.171027	-0.006020
O24	O	1.537730	0.504361	0.327313
O25	O	1.050326	-0.341642	-0.339387
O26	O	1.383659	-0.008309	-0.006054
O27	O	1.716993	0.325025	0.327279
O28	O	0.948400	-0.162271	-0.438438
O29	O	1.281733	0.171063	-0.105105
O30	O	1.615066	0.504396	0.228229
O31	O	0.870982	-0.264382	-0.208600
O32	O	1.204315	0.068951	0.124733
O33	O	1.537649	0.402285	0.458067
O34	O	0.768951	-0.264376	-0.339256
O35	O	1.102284	0.068957	-0.005923
O36	O	1.435618	0.402290	0.327410
O37	O	0.870988	-0.341632	-0.569040
O38	O	1.204321	-0.008299	-0.235707
O39	O	1.537654	0.325034	0.097627
O40	O	0.768918	-0.341679	-0.438267
O41	O	1.102252	-0.008345	-0.104934
O42	O	1.435585	0.324988	0.228399
O43	O	0.948357	-0.264295	-0.569114
O44	O	1.281690	0.069038	-0.235780
O45	O	1.615023	0.402372	0.097553
O46	O	0.948214	-0.443713	-0.339290
O47	O	1.281547	-0.110379	-0.005957
O48	O	1.614880	0.222954	0.327376
O49	O	0.870906	-0.443708	-0.438287
O50	O	1.204240	-0.110375	-0.104953
O51	O	1.537573	0.222958	0.228380
C52	C	0.746094	-0.303033	-0.388749
C53	C	1.079427	0.030301	-0.055416
C54	C	1.412761	0.363634	0.277917
C55	C	0.676126	-0.303062	-0.388729
C56	C	1.009459	0.030271	-0.055395
C57	C	1.342793	0.363605	0.277938
C58	C	0.643259	-0.343366	-0.440207
C59	C	0.976592	-0.010033	-0.106873
C60	C	1.309926	0.323300	0.226460
C61	C	0.577516	-0.343351	-0.440243
C62	C	0.910850	-0.010018	-0.106909
C63	C	1.244183	0.323316	0.226424
C64	C	0.544644	-0.303037	-0.388787
C65	C	0.877977	0.030296	-0.055453
C66	C	1.211310	0.363629	0.277880
C67	C	0.577519	-0.262725	-0.337305
C68	C	0.910852	0.070608	-0.003972
C69	C	1.244185	0.403942	0.329362
C70	C	0.643260	-0.262737	-0.337276
C71	C	0.976593	0.070596	-0.003943
C72	C	1.309926	0.403929	0.329391
N73	N	0.441375	-0.298120	-0.318264
N74	N	0.774708	0.035213	0.015069
N75	N	1.108041	0.368547	0.348402
N76	N	0.378923	-0.298112	-0.318294
N77	N	0.712257	0.035221	0.015039
N78	N	1.045590	0.368555	0.348373
C79	C	0.346569	-0.302997	-0.388872
C80	C	0.679902	0.030336	-0.055539
C81	C	1.013236	0.363669	0.277794
N82	N	0.379025	-0.307903	-0.459421
N83	N	0.712358	0.025430	-0.126088
N84	N	1.045692	0.358763	0.207246
N85	N	0.441482	-0.307914	-0.459390
N86	N	0.774816	0.025419	-0.126057
N87	N	1.108149	0.358752	0.207276
C88	C	0.473358	-0.303019	-0.388813
C89	C	0.806692	0.030314	-0.055479
C90	C	1.140025	0.363647	0.277854
C91	C	0.242416	-0.343287	-0.440394
C92	C	0.575750	-0.009954	-0.107060
C93	C	0.909083	0.323379	0.226273
C94	C	0.176673	-0.343267	-0.440431
C95	C	0.510006	-0.009934	-0.107098
C96	C	0.843339	0.323399	0.226235
C97	C	0.176676	-0.262645	-0.337486
C98	C	0.510009	0.070689	-0.004153
C99	C	0.843343	0.404022	0.329180
C100	C	0.242418	-0.262661	-0.337456
C101	C	0.575752	0.070672	-0.004123
C102	C	0.909085	0.404005	0.329211
C103	C	0.275285	-0.302986	-0.388909
C104	C	0.608618	0.030347	-0.055575
C105	C	0.941951	0.363681	0.277758
C106	C	0.909563	-0.466551	-0.388797
C107	C	1.242897	-0.133218	-0.055464
C108	C	1.576230	0.200116	0.277869
C109	C	0.909586	-0.536519	-0.388805
C110	C	1.242919	-0.203186	-0.055472
C111	C	1.576252	0.130147	0.277861
C112	C	0.949875	-0.569367	-0.337311
C113	C	1.283209	-0.236034	-0.003977
C114	C	1.616542	0.097300	0.329356
C115	C	0.949905	-0.635110	-0.337329
C116	C	1.283238	-0.301776	-0.003996
C117	C	1.616571	0.031557	0.329338
C118	C	0.909633	-0.668002	-0.388833
C119	C	1.242967	-0.334668	-0.055500
C120	C	1.576300	-0.001335	0.277834
C121	C	0.869341	-0.635146	-0.440338
C122	C	1.202674	-0.301812	-0.107004
C123	C	1.536008	0.031521	0.226329
C124	C	0.869317	-0.569405	-0.440324
C125	C	1.202650	-0.236071	-0.106990
C126	C	1.535984	0.097262	0.226343
N127	N	0.854566	-0.771283	-0.394949
N128	N	1.187899	-0.437949	-0.061615
N129	N	1.521232	-0.104616	0.271718
N130	N	0.854590	-0.833734	-0.394957
N131	N	1.187923	-0.500401	-0.061624
N132	N	1.521257	-0.167067	0.271709
C133	C	0.909704	-0.866076	-0.388879
C134	C	1.243037	-0.532743	-0.055546
C135	C	1.576371	-0.199410	0.277787
N136	N	0.964793	-0.833608	-0.382777
N137	N	1.298127	-0.500275	-0.049444
N138	N	1.631460	-0.166941	0.283890
N139	N	0.964768	-0.771151	-0.382764
N140	N	1.298101	-0.437817	-0.049431
N141	N	1.631435	-0.104484	0.283902
C142	C	0.909655	-0.739287	-0.388854
C143	C	1.242988	-0.405954	-0.055521
C144	C	1.576322	-0.072620	0.277812
C145	C	0.950029	-0.970210	-0.337402
C146	C	1.283362	-0.636876	-0.004068
C147	C	1.616696	-0.303543	0.329265
C148	C	0.950059	-1.035953	-0.337426
C149	C	1.283393	-0.702620	-0.004092
C150	C	1.616726	-0.369287	0.329241
C151	C	0.869490	-1.035988	-0.440430
C152	C	1.202823	-0.702655	-0.107097
C153	C	1.536157	-0.369322	0.226237
C154	C	0.869465	-0.970246	-0.440410
C155	C	1.202798	-0.636913	-0.107077
C156	C	1.536132	-0.303579	0.226256
C157	C	0.909734	-0.937361	-0.388892
C158	C	1.243067	-0.604027	-0.055559
C159	C	1.576400	-0.270694	0.277775
C160	C	1.073836	-0.302967	-0.388936
C161	C	1.407169	0.030367	-0.055602
C162	C	1.740503	0.363700	0.277731
C163	C	1.143804	-0.302953	-0.388976
C164	C	1.477138	0.030381	-0.055642
C165	C	1.810471	0.363714	0.277691
C166	C	0.909677	-0.302958	-0.599151
C167	C	1.243010	0.030375	-0.265818
C168	C	1.576343	0.363709	0.067516
C169	C	0.909690	-0.302940	-0.688772
C170	C	1.243023	0.030393	-0.355439
C171	C	1.576356	0.363727	-0.022106
C172	C	0.909746	-0.138809	-0.388905
C173	C	1.243079	0.194524	-0.055571
C174	C	1.576412	0.527858	0.277762
C175	C	0.909788	-0.068841	-0.388931
C176	C	1.243122	0.264492	-0.055598
C177	C	1.576455	0.597826	0.277735
C178	C	0.909700	-0.302926	-0.761555
C179	C	1.243033	0.030407	-0.428221
C180	C	1.576367	0.363740	-0.094888
C181	C	0.909715	-0.302903	-0.852863
C182	C	1.243048	0.030431	-0.519530
C183	C	1.576381	0.363764	-0.186197
C184	C	0.909730	-0.302881	-0.925640
C185	C	1.243063	0.030453	-0.592306
C186	C	1.576396	0.363786	-0.258973
C187	C	0.909745	-0.302858	-1.016954
C188	C	1.243079	0.030475	-0.683621
C189	C	1.576412	0.363809	-0.350287
C190	C	0.909651	-0.302995	-0.179351
C191	C	1.242985	0.030338	0.153982
C192	C	1.576318	0.363671	0.487315
C193	C	0.909760	-0.302836	-0.089731
C194	C	1.243093	0.030498	0.243603
C195	C	1.576427	0.363831	0.576936
H196	H	0.149913	-0.376087	-0.482356
H197	H	0.483247	-0.042754	-0.149023
H198	H	0.816580	0.290580	0.184311
Cl199	Cl	0.283739	-0.211991	-0.272735
Cl200	Cl	0.617073	0.121342	0.060599
Cl201	Cl	0.950406	0.454675	0.393932
H202	H	0.836703	-1.062769	-0.482369
H203	H	1.170036	-0.729435	-0.149036
H204	H	1.503370	-0.396102	0.184297
Cl205	Cl	1.000651	-0.928865	-0.272637
Cl206	Cl	1.333984	-0.595532	0.060697
Cl207	Cl	1.667317	-0.262198	0.394030
Cl208	Cl	0.536194	-0.212042	-0.272621
Cl209	Cl	0.869527	0.121291	0.060712
Cl210	Cl	1.202860	0.454625	0.394045
Cl211	Cl	0.684581	-0.212064	-0.272555
Cl212	Cl	1.017914	0.121269	0.060778
Cl213	Cl	1.351247	0.454602	0.394111
Cl214	Cl	0.283737	-0.393976	-0.505080
Cl215	Cl	0.617070	-0.060643	-0.171747
Cl216	Cl	0.950403	0.272691	0.161586
H217	H	0.836508	-0.542659	-0.482258
H218	H	1.169841	-0.209326	-0.148924
H219	H	1.503174	0.124007	0.184409
Cl220	Cl	1.000719	-1.077249	-0.272689
Cl221	Cl	1.334052	-0.743915	0.060644
Cl222	Cl	1.667386	-0.410582	0.393978
Cl223	Cl	0.818809	-0.928949	-0.505147
Cl224	Cl	1.152142	-0.595616	-0.171813
Cl225	Cl	1.485476	-0.262282	0.161520
H226	H	0.149912	-0.229818	-0.295594
H227	H	0.483245	0.103516	0.037740
H228	H	0.816578	0.436849	0.371073
Cl229	Cl	1.000508	-0.528029	-0.272557
Cl230	Cl	1.333841	-0.194695	0.060777
Cl231	Cl	1.667174	0.138638	0.394110
H232	H	0.982716	-0.661860	-0.295396
H233	H	1.316049	-0.328526	0.037937
H234	H	1.649382	0.004807	0.371271
H235	H	0.670014	-0.376201	-0.482104
H236	H	1.003348	-0.042868	-0.148771
H237	H	1.336681	0.290466	0.184562
Cl238	Cl	0.818717	-0.676495	-0.505090
Cl239	Cl	1.152050	-0.343162	-0.171756
Cl240	Cl	1.485383	-0.009828	0.161577
H241	H	0.550751	-0.376172	-0.482165
H242	H	0.884084	-0.042838	-0.148832
H243	H	1.217417	0.290495	0.184501
