data_functionalizedCrystal
_audit_creation_method	'MofGen! by Chris Wilmer'
_symmetry_space_group_name_H-M	'P1'
_symmetry_Int_Tables_number	1
_symmetry_cell_setting	triclinic
loop_
_symmetry_equiv_pos_as_xyz
  x,y,z
_cell_length_a	12.759401
_cell_length_b	29.839131
_cell_length_c	12.759393
_cell_angle_alpha	89.963820
_cell_angle_beta	89.979541
_cell_angle_gamma	90.042945
loop_
_atom_site_label
_atom_site_type_symbol
_atom_site_fract_x
_atom_site_fract_y
_atom_site_fract_z
Zn1	Zn	1.606066	-0.178816	-0.593974
Zn2	Zn	2.106066	0.321184	-0.093974
Zn3	Zn	1.605877	-0.253952	-0.418275
Zn4	Zn	2.105877	0.246048	0.081725
Zn5	Zn	1.430367	-0.178839	-0.418309
Zn6	Zn	1.930367	0.321161	0.081691
Zn7	Zn	1.430275	-0.253922	-0.593912
Zn8	Zn	1.930275	0.246078	-0.093912
O9	O	1.518146	-0.216382	-0.506117
O10	O	2.018146	0.283618	-0.006117
O11	O	1.753062	-0.188786	-0.570679
O12	O	2.253062	0.311214	-0.070679
O13	O	1.582554	-0.244011	-0.271258
O14	O	2.082554	0.255989	0.228742
O15	O	1.453791	-0.115969	-0.441652
O16	O	1.953791	0.384031	0.058348
O17	O	1.752923	-0.243989	-0.441593
O18	O	2.252923	0.256011	0.058407
O19	O	1.582877	-0.115952	-0.570712
O20	O	2.082877	0.384048	-0.070712
O21	O	1.453607	-0.188826	-0.271283
O22	O	1.953607	0.311174	0.228717
O23	O	1.283333	-0.188796	-0.441592
O24	O	1.783333	0.311204	0.058408
O25	O	1.453635	-0.243936	-0.740941
O26	O	1.953635	0.256064	-0.240941
O27	O	1.283266	-0.243959	-0.570606
O28	O	1.783266	0.256041	-0.070606
O29	O	1.582788	-0.188757	-0.740987
O30	O	2.082788	0.311243	-0.240987
O31	O	1.582465	-0.316816	-0.441533
O32	O	2.082465	0.183184	0.058467
O33	O	1.453451	-0.316793	-0.570573
O34	O	1.953451	0.183207	-0.070573
C35	C	1.245179	-0.216377	-0.506097
C36	C	1.745179	0.283623	-0.006097
C37	C	1.128402	-0.216385	-0.506113
C38	C	1.628402	0.283615	-0.006113
C39	C	1.517957	-0.333105	-0.506065
C40	C	2.017957	0.166895	-0.006065
C41	C	1.517971	-0.383039	-0.506078
C42	C	2.017971	0.116961	-0.006078
C43	C	1.073533	-0.245152	-0.573185
C44	C	1.573533	0.254848	-0.073185
C45	C	0.963809	-0.245154	-0.573206
C46	C	1.463809	0.254846	-0.073206
C47	C	0.963833	-0.187621	-0.439073
C48	C	1.463833	0.312379	0.060927
C49	C	1.073555	-0.187617	-0.439058
C50	C	1.573555	0.312383	0.060942
C51	C	1.585446	-0.692682	-0.439024
C52	C	2.085446	-0.192682	0.060976
C53	C	1.585576	-0.880355	-0.439065
C54	C	2.085576	-0.380355	0.060935
O55	O	1.642794	-0.904619	-0.382014
O56	O	2.142794	-0.404619	0.117986
N57	N	1.518364	-0.903824	-0.506197
N58	N	2.018364	-0.403824	-0.006197
C59	C	1.451120	-0.880373	-0.573327
C60	C	1.951120	-0.380373	-0.073327
O61	O	1.393963	-0.904641	-0.630435
O62	O	1.893963	-0.404641	-0.130435
C63	C	1.450997	-0.692701	-0.573291
C64	C	1.950997	-0.192701	-0.073291
C65	C	1.518205	-0.669234	-0.506148
C66	C	2.018205	-0.169234	-0.006148
C67	C	1.652650	-0.669215	-0.371888
C68	C	2.152650	-0.169215	0.128112
C69	C	1.652613	-0.622299	-0.371874
C70	C	2.152613	-0.122299	0.128126
C71	C	1.585372	-0.598851	-0.438997
C72	C	2.085372	-0.098851	0.061003
C73	C	1.518168	-0.622318	-0.506134
C74	C	2.018168	-0.122318	-0.006134
C75	C	1.383759	-0.669250	-0.640427
C76	C	1.883759	-0.169250	-0.140427
C77	C	1.383736	-0.622329	-0.640413
C78	C	1.883736	-0.122329	-0.140413
C79	C	1.450944	-0.598862	-0.573270
C80	C	1.950944	-0.098862	-0.073270
C81	C	1.450890	-0.551954	-0.573244
C82	C	1.950890	-0.051954	-0.073244
N83	N	1.518101	-0.528485	-0.506113
N84	N	2.018101	-0.028485	-0.006113
C85	C	1.585342	-0.551933	-0.438989
C86	C	2.085342	-0.051933	0.061011
C87	C	1.451188	-0.978903	-0.573340
C88	C	1.951188	-0.478903	-0.073340
C89	C	1.451218	-1.025821	-0.573348
C90	C	1.951218	-0.525821	-0.073348
C91	C	1.585675	-1.025800	-0.439087
C92	C	2.085675	-0.525800	0.060913
C93	C	1.585639	-0.978881	-0.439075
C94	C	2.085639	-0.478881	0.060925
C95	C	1.518400	-0.955434	-0.506209
C96	C	2.018400	-0.455434	-0.006209
C97	C	1.585259	-0.453407	-0.438965
C98	C	2.085259	0.046593	0.061035
C99	C	1.585212	-0.406488	-0.438955
C100	C	2.085212	0.093512	0.061045
C101	C	1.450760	-0.406513	-0.573219
C102	C	1.950760	0.093487	-0.073219
C103	C	1.450801	-0.453429	-0.573226
C104	C	1.950801	0.046571	-0.073226
C105	C	1.518059	-0.476875	-0.506096
C106	C	2.018059	0.023125	-0.006096
O107	O	1.393709	-0.527661	-0.630274
O108	O	1.893709	-0.027661	-0.130274
O109	O	1.642507	-0.527656	-0.381907
O110	O	2.142507	-0.027656	0.118093
C111	C	1.585483	-0.739597	-0.439038
C112	C	2.085483	-0.239597	0.060962
C113	C	1.518279	-0.763064	-0.506175
C114	C	2.018279	-0.263064	-0.006175
C115	C	1.451038	-0.739616	-0.573298
C116	C	1.951038	-0.239616	-0.073298
C117	C	1.518309	-0.809982	-0.506183
C118	C	2.018309	-0.309982	-0.006183
C119	C	1.585550	-0.833431	-0.439060
C120	C	2.085550	-0.333431	0.060940
C121	C	1.652761	-0.809961	-0.371928
C122	C	2.152761	-0.309961	0.128072
C123	C	1.652724	-0.763046	-0.371915
C124	C	2.152724	-0.263046	0.128085
C125	C	1.383827	-0.763086	-0.640430
C126	C	1.883827	-0.263086	-0.140430
C127	C	1.383869	-0.810001	-0.640437
C128	C	1.883869	-0.310001	-0.140437
C129	C	1.451110	-0.833450	-0.573314
C130	C	1.951110	-0.333450	-0.073314
C131	C	1.792179	-0.216388	-0.506139
C132	C	2.292179	0.283612	-0.006139
C133	C	1.908956	-0.216391	-0.506148
C134	C	2.408956	0.283609	-0.006148
C135	C	1.518223	-0.216341	-0.780151
C136	C	2.018223	0.283659	-0.280151
C137	C	1.518255	-0.216323	-0.896928
C138	C	2.018255	0.283677	-0.396928
C139	C	1.518365	-0.099204	-0.506193
C140	C	2.018365	0.400796	-0.006193
C141	C	1.518459	-0.049270	-0.506225
C142	C	2.018459	0.450730	-0.006225
C143	C	1.585425	-0.245024	-1.061512
C144	C	2.085425	0.254976	-0.561512
C145	C	1.585400	-0.245046	-0.951788
C146	C	2.085400	0.254954	-0.451788
C147	C	1.451124	-0.187580	-0.951797
C148	C	1.951124	0.312420	-0.451797
C149	C	1.451145	-0.187561	-1.061519
C150	C	1.951145	0.312439	-0.561519
C151	C	1.518131	-0.216392	-0.233150
C152	C	2.018131	0.283608	0.266850
C153	C	1.518302	-0.216283	-0.116374
C154	C	2.018302	0.283717	0.383626
H155	H	1.118186	-0.268576	-0.627787
H156	H	1.618186	0.231424	-0.127787
Cl157	Cl	1.669847	-0.281133	-1.130468
Cl158	Cl	2.169847	0.218867	-0.630468
H159	H	0.919139	-0.268578	-0.627824
H160	H	1.419139	0.231422	-0.127824
H161	H	0.919164	-0.164199	-0.384478
H162	H	1.419164	0.335801	0.115522
H163	H	1.640059	-0.268450	-0.907124
H164	H	2.140059	0.231550	-0.407124
H165	H	1.329025	-0.688349	-0.695097
H166	H	1.829025	-0.188349	-0.195097
Cl167	Cl	1.366727	-0.151465	-0.882830
Cl168	Cl	1.866727	0.348535	-0.382830
Cl169	Cl	1.737193	-0.698684	-0.287492
Cl170	Cl	2.237193	-0.198684	0.212508
H171	H	1.118231	-0.164189	-0.384440
H172	H	1.618231	0.335811	0.115560
H173	H	1.640425	-1.044900	-0.384433
H174	H	2.140425	-0.544900	0.115567
Cl175	Cl	1.669710	-0.376989	-0.354540
Cl176	Cl	2.169710	0.123011	0.145460
H177	H	1.640029	-0.472491	-0.384304
H178	H	2.140029	0.027509	0.115696
Cl179	Cl	1.737124	-0.592805	-0.287477
Cl180	Cl	2.237124	-0.092805	0.212523
Cl181	Cl	1.670134	-0.949385	-0.354665
Cl182	Cl	2.170134	-0.449385	0.145335
H183	H	1.396480	-1.044924	-0.628013
H184	H	1.896480	-0.544924	-0.128013
Cl185	Cl	1.366647	-0.949433	-0.657744
Cl186	Cl	1.866647	-0.449433	-0.157744
H187	H	1.328982	-0.603240	-0.695086
H188	H	1.828982	-0.103240	-0.195086
Cl189	Cl	1.366738	-0.151433	-1.130494
Cl190	Cl	1.866738	0.348567	-0.630494
H191	H	1.396078	-0.472536	-0.627903
H192	H	1.896078	0.027464	-0.127903
H193	H	1.396010	-0.387414	-0.627867
H194	H	1.896010	0.112586	-0.127867
Cl195	Cl	1.737224	-0.733551	-0.287506
Cl196	Cl	2.237224	-0.233551	0.212494
Cl197	Cl	1.299368	-0.839497	-0.724854
Cl198	Cl	1.799368	-0.339497	-0.224854
Cl199	Cl	1.299286	-0.733615	-0.724822
Cl200	Cl	1.799286	-0.233615	-0.224822
Cl201	Cl	1.737290	-0.839448	-0.287543
Cl202	Cl	2.237290	-0.339448	0.212457
