data_functionalizedCrystal
_audit_creation_method	'MofGen! by Chris Wilmer'
_symmetry_space_group_name_H-M	'P1'
_symmetry_Int_Tables_number	1
_symmetry_cell_setting	triclinic
loop_
_symmetry_equiv_pos_as_xyz
  x,y,z
_cell_length_a	17.699083
_cell_length_b	17.699083
_cell_length_c	16.776229
_cell_angle_alpha	90.007545
_cell_angle_beta	90.000683
_cell_angle_gamma	83.283015
loop_
_atom_site_label
_atom_site_type_symbol
_atom_site_fract_x
_atom_site_fract_y
_atom_site_fract_z
O1	O	-1.004078	-0.095713	-0.066170
O2	O	-0.670745	0.237620	0.267163
O3	O	-0.337412	0.570954	0.600497
O4	O	-0.783700	-0.108165	-0.066198
O5	O	-0.450367	0.225168	0.267135
O6	O	-0.117033	0.558501	0.600469
O7	O	-0.900116	0.008250	-0.066176
O8	O	-0.566782	0.341583	0.267157
O9	O	-0.233449	0.674917	0.600490
O10	O	-0.887663	-0.212128	-0.066192
O11	O	-0.554330	0.121205	0.267141
O12	O	-0.220996	0.454538	0.600475
O13	O	-0.900100	0.008257	0.066400
O14	O	-0.566767	0.341590	0.399734
O15	O	-0.233433	0.674924	0.733067
O16	O	-0.783685	-0.108158	0.066378
O17	O	-0.450351	0.225175	0.399712
O18	O	-0.117018	0.558508	0.733045
O19	O	-1.004063	-0.095706	0.066406
O20	O	-0.670730	0.237627	0.399740
O21	O	-0.337396	0.570961	0.733073
Zn22	Zn	-0.893871	-0.101931	0.087442
Zn23	Zn	-0.560538	0.231402	0.420775
Zn24	Zn	-0.227205	0.564736	0.754108
Zn25	Zn	-0.893892	-0.101940	-0.087233
Zn26	Zn	-0.560558	0.231393	0.246100
Zn27	Zn	-0.227225	0.564726	0.579433
O28	O	-0.887648	-0.212121	0.066385
O29	O	-0.554314	0.121212	0.399718
O30	O	-0.220981	0.454545	0.733051
C31	C	-0.755495	-0.107716	0.000087
C32	C	-0.422162	0.225618	0.333420
C33	C	-0.088829	0.558951	0.666753
C34	C	-0.671477	-0.106377	0.000076
C35	C	-0.338144	0.226956	0.333409
C36	C	-0.004811	0.560290	0.666743
C37	C	-0.622856	-0.174710	0.000071
C38	C	-0.289523	0.158623	0.333404
C39	C	0.043810	0.491956	0.666738
C40	C	-0.543913	-0.173448	0.000081
C41	C	-0.210580	0.159885	0.333414
C42	C	0.122754	0.493218	0.666748
C43	C	-0.513592	-0.103852	0.000090
C44	C	-0.180259	0.229482	0.333423
C45	C	0.153074	0.562815	0.666757
C46	C	-0.562219	-0.035513	0.000097
C47	C	-0.228886	0.297820	0.333431
C48	C	0.104447	0.631154	0.666764
C49	C	-0.641161	-0.036776	0.000093
C50	C	-0.307828	0.296557	0.333427
C51	C	0.025505	0.629891	0.666760
C52	C	-0.243856	-0.030418	0.000115
C53	C	0.089477	0.302915	0.333448
C54	C	0.422810	0.636249	0.666782
C55	C	-0.164908	-0.029160	0.000117
C56	C	0.168425	0.304173	0.333450
C57	C	0.501758	0.637507	0.666783
C58	C	-0.146608	-0.167090	0.000103
C59	C	0.186725	0.166243	0.333436
C60	C	0.520058	0.499577	0.666769
C61	C	-0.225550	-0.168353	0.000098
C62	C	0.107783	0.164980	0.333432
C63	C	0.441117	0.498314	0.666765
C64	C	-0.274170	-0.100015	0.000110
C65	C	0.059163	0.233319	0.333443
C66	C	0.392496	0.566652	0.666777
C67	C	-0.359769	-0.101384	0.000101
C68	C	-0.026436	0.231949	0.333434
C69	C	0.306897	0.565282	0.666768
C70	C	-0.427995	-0.102481	0.000093
C71	C	-0.094661	0.230852	0.333427
C72	C	0.238672	0.564185	0.666760
N73	N	-0.893863	-0.101924	0.206653
N74	N	-0.560530	0.231409	0.539986
N75	N	-0.227196	0.564743	0.873320
C76	C	-0.899662	0.036451	0.000112
C77	C	-0.566328	0.369784	0.333445
C78	C	-0.232995	0.703117	0.666779
C79	C	-0.898323	0.120469	0.000112
C80	C	-0.564990	0.453802	0.333445
C81	C	-0.231656	0.787135	0.666779
C82	C	-0.032268	-0.096156	0.000118
C83	C	0.301066	0.237178	0.333451
C84	C	0.634399	0.570511	0.666785
C85	C	-0.116286	-0.097494	0.000117
C86	C	0.217047	0.235839	0.333451
C87	C	0.550381	0.569172	0.666784
C88	C	-0.888102	-0.240322	0.000095
C89	C	-0.554768	0.093011	0.333428
C90	C	-0.221435	0.426345	0.666761
C91	C	-0.889440	-0.324340	0.000089
C92	C	-0.556107	0.008993	0.333422
C93	C	-0.222773	0.342327	0.666756
C94	C	-0.966656	0.169090	0.000122
C95	C	-0.633323	0.502423	0.333455
C96	C	-0.299990	0.835756	0.666789
C97	C	-0.965394	0.248033	0.000115
C98	C	-0.632061	0.581366	0.333448
C99	C	-0.298727	0.914700	0.666781
C100	C	-0.895798	0.278354	0.000103
C101	C	-0.562464	0.611687	0.333437
C102	C	-0.229131	0.945020	0.666770
C103	C	-0.827459	0.229727	0.000091
C104	C	-0.494126	0.563060	0.333425
C105	C	-0.160792	0.896393	0.666758
C106	C	-0.828722	0.150785	0.000093
C107	C	-0.495389	0.484118	0.333426
C108	C	-0.162055	0.817451	0.666759
C109	C	-0.822364	0.548090	0.000084
C110	C	-0.489030	0.881423	0.333417
C111	C	-0.155697	1.214756	0.666751
C112	C	-0.821106	0.627038	0.000085
C113	C	-0.487773	0.960371	0.333418
C114	C	-0.154439	1.293704	0.666752
C115	C	-0.959036	0.645338	0.000106
C116	C	-0.625703	0.978671	0.333439
C117	C	-0.292369	1.312004	0.666773
C118	C	-0.960299	0.566396	0.000108
C119	C	-0.626966	0.899729	0.333441
C120	C	-0.293632	1.233063	0.666774
C121	C	-0.891961	0.517776	0.000091
C122	C	-0.558627	0.851109	0.333425
C123	C	-0.225294	1.184442	0.666758
C124	C	-0.893330	0.432177	0.000098
C125	C	-0.559997	0.765510	0.333431
C126	C	-0.226664	1.098843	0.666764
C127	C	-0.894427	0.363951	0.000103
C128	C	-0.561094	0.697285	0.333436
C129	C	-0.227761	1.030618	0.666770
N130	N	-0.893906	-0.101941	-0.206445
N131	N	-0.560573	0.231392	0.126889
N132	N	-0.227239	0.564725	0.460222
C133	C	-0.945428	-0.050396	0.248380
C134	C	-0.612094	0.282937	0.581713
C135	C	-0.278761	0.616270	0.915046
C136	C	-0.945432	-0.050396	0.331832
C137	C	-0.612098	0.282938	0.665165
C138	C	-0.278765	0.616271	0.998499
C139	C	-0.893875	-0.101927	0.373556
C140	C	-0.560541	0.231406	0.706889
C141	C	-0.227208	0.564740	1.040223
C142	C	-0.842305	-0.153457	0.331823
C143	C	-0.508971	0.179876	0.665157
C144	C	-0.175638	0.513210	0.998490
C145	C	-0.842297	-0.153454	0.248373
C146	C	-0.508964	0.179880	0.581706
C147	C	-0.175631	0.513213	0.915039
C148	C	-0.842332	-0.153472	0.668370
C149	C	-0.508999	0.179861	1.001704
C150	C	-0.175665	0.513195	1.335037
C151	C	-0.842345	-0.153473	0.751827
C152	C	-0.509011	0.179860	1.085160
C153	C	-0.175678	0.513194	1.418494
C154	C	-0.945466	-0.050414	0.751830
C155	C	-0.612133	0.282919	1.085163
C156	C	-0.278800	0.616252	1.418497
C157	C	-0.945459	-0.050411	0.668379
C158	C	-0.612126	0.282923	1.001712
C159	C	-0.278792	0.616256	1.335046
C160	C	-0.893887	-0.101938	0.626654
C161	C	-0.560554	0.231396	0.959987
C162	C	-0.227220	0.564729	1.293321
C163	C	-0.893882	-0.101937	0.536165
C164	C	-0.560549	0.231397	0.869499
C165	C	-0.227215	0.564730	1.202832
C166	C	-0.893882	-0.101932	0.464043
C167	C	-0.560549	0.231401	0.797376
C168	C	-0.227216	0.564735	1.130709
H169	H	-0.140225	0.027517	0.000125
H170	H	0.193108	0.360850	0.333458
H171	H	0.526442	0.694184	0.666792
Cl172	Cl	-0.777503	-0.218250	0.615921
Cl173	Cl	-0.444170	0.115084	0.949255
Cl174	Cl	-0.110837	0.448417	1.282588
H175	H	-0.770792	0.254420	0.000077
H176	H	-0.437459	0.587753	0.333410
H177	H	-0.104126	0.921087	0.666744
Cl178	Cl	-0.482792	-0.259357	0.000070
Cl179	Cl	-0.149459	0.073976	0.333403
Cl180	Cl	0.183874	0.407309	0.666736
Cl181	Cl	-1.010250	0.014386	0.195936
Cl182	Cl	-0.676917	0.347720	0.529269
Cl183	Cl	-0.343583	0.681053	0.862602
H184	H	-0.283434	0.025228	0.000125
H185	H	0.049899	0.358561	0.333458
H186	H	0.383233	0.691894	0.666792
Cl187	Cl	-0.742813	0.089661	0.000077
Cl188	Cl	-0.409480	0.422994	0.333411
Cl189	Cl	-0.076147	0.756327	0.666744
H190	H	-0.680748	0.018868	0.000097
H191	H	-0.347415	0.352201	0.333430
H192	H	-0.014082	0.685535	0.666763
H193	H	-1.016971	0.541714	0.000121
H194	H	-0.683638	0.875047	0.333454
H195	H	-0.350305	1.208380	0.666787
Cl196	Cl	-1.044948	0.706465	0.000124
Cl197	Cl	-0.711615	1.039799	0.333457
Cl198	Cl	-0.378282	1.373132	0.666790
H199	H	-0.987444	-0.008452	0.634410
H200	H	-0.654111	0.324882	0.967743
H201	H	-0.320777	0.658215	1.301077
H202	H	-0.766718	0.508512	0.000071
H203	H	-0.433385	0.841845	0.333404
H204	H	-0.100052	1.175179	0.666738
H205	H	-0.647537	-0.231384	0.000063
H206	H	-0.314204	0.101949	0.333397
H207	H	0.019130	0.435283	0.666730
Cl208	Cl	-0.263663	-0.255849	0.000083
Cl209	Cl	0.069670	0.077484	0.333416
Cl210	Cl	0.403004	0.410818	0.666749
H211	H	-0.764429	0.651721	0.000077
H212	H	-0.431096	0.985054	0.333411
H213	H	-0.097762	1.318388	0.666744
Cl214	Cl	-1.010256	0.014384	0.384290
Cl215	Cl	-0.676923	0.347717	0.717623
Cl216	Cl	-0.343589	0.681050	1.050957
Cl217	Cl	-1.010299	0.014367	0.804289
Cl218	Cl	-0.676965	0.347700	1.137622
Cl219	Cl	-0.343632	0.681034	1.470956
H220	H	-0.107012	-0.222734	0.000097
H221	H	0.226322	0.110599	0.333431
H222	H	0.559655	0.443933	0.666764
Cl223	Cl	-0.777524	-0.218259	0.804279
Cl224	Cl	-0.444191	0.115074	1.137613
Cl225	Cl	-0.110857	0.448407	1.470946
H226	H	-0.800322	-0.195412	0.365800
H227	H	-0.466989	0.137921	0.699133
H228	H	-0.133655	0.471254	1.032466
H229	H	-0.800308	-0.195412	0.214399
H230	H	-0.466974	0.137922	0.547733
H231	H	-0.133641	0.471255	0.881066
Cl232	Cl	-0.524102	0.051980	0.000114
Cl233	Cl	-0.190768	0.385314	0.333447
Cl234	Cl	0.142565	0.718647	0.666780
H235	H	-1.021038	0.287618	0.000125
H236	H	-0.687705	0.620951	0.333458
H237	H	-0.354372	0.954284	0.666791
Cl238	Cl	-1.054154	0.130980	0.000144
Cl239	Cl	-0.720821	0.464314	0.333478
Cl240	Cl	-0.387488	0.797647	0.666811
