data_functionalizedCrystal
_audit_creation_method	'MofGen! by Chris Wilmer'
_symmetry_space_group_name_H-M	'P1'
_symmetry_Int_Tables_number	1
_symmetry_cell_setting	triclinic
loop_
_symmetry_equiv_pos_as_xyz
  x,y,z
_cell_length_a	6.817900
_cell_length_b	11.102288
_cell_length_c	9.582906
_cell_angle_alpha	90.973434
_cell_angle_beta	111.207526
_cell_angle_gamma	108.605689
loop_
_atom_site_label
_atom_site_type_symbol
_atom_site_fract_x
_atom_site_fract_y
_atom_site_fract_z
V1	V	-4.142625	-0.175309	-0.466603
V2	V	-3.642625	0.324691	0.033397
O3	O	-4.101066	0.008969	-0.457721
O4	O	-3.601066	0.508969	0.042279
O5	O	-4.119190	-0.348133	-0.463412
O6	O	-3.619190	0.151867	0.036588
O7	O	-4.132968	-0.172373	-0.670105
O8	O	-3.632968	0.327627	-0.170105
O9	O	-4.087192	-0.168007	-0.249597
O10	O	-3.587192	0.331993	0.250403
V11	V	-4.617998	-0.153296	-0.440647
V12	V	-4.117998	0.346704	0.059353
O13	O	-4.421761	-0.223598	-0.523539
O14	O	-3.921761	0.276402	-0.023539
O15	O	-4.789059	-0.105007	-0.383711
O16	O	-4.289059	0.394993	0.116289
O17	O	-4.418227	0.019528	-0.443838
O18	O	-3.918227	0.519528	0.056162
O19	O	-4.776955	-0.337575	-0.449530
O20	O	-4.276955	0.162425	0.050470
O21	O	-4.790828	-0.160598	-0.657653
O22	O	-4.290828	0.339402	-0.157653
O23	O	-4.404449	-0.156232	-0.237146
O24	O	-3.904449	0.343768	0.262854
C25	C	-3.969010	-0.390271	-0.456051
C26	C	-3.469010	0.109729	0.043949
C27	C	-4.031394	-0.531556	-0.454798
C28	C	-3.531394	-0.031556	0.045202
C29	C	-4.245207	-0.604396	-0.461676
C30	C	-3.745207	-0.104396	0.038324
C31	C	-4.303817	-0.737149	-0.460511
C32	C	-3.803817	-0.237149	0.039489
C33	C	-3.934776	-0.724208	-0.445584
C34	C	-3.434776	-0.224208	0.054416
C35	C	-3.876175	-0.591459	-0.446760
C36	C	-3.376175	-0.091459	0.053240
C37	C	-3.986584	-0.166071	-0.719706
C38	C	-3.486584	0.333929	-0.219706
C39	C	-4.060137	-0.164814	-0.886070
C40	C	-3.560137	0.335186	-0.386070
C41	C	-4.231749	0.061660	-0.451195
C42	C	-3.731749	0.561660	0.048805
C43	C	-4.148606	0.202943	-0.452457
C44	C	-3.648606	0.702943	0.047543
C45	C	-4.214174	-0.162538	-0.187536
C46	C	-3.714174	0.337462	0.312464
C47	C	-4.119859	-0.163789	-0.021171
C48	C	-3.619859	0.336211	0.478829
H49	H	-3.702059	-0.532150	-0.441164
H50	H	-3.202059	-0.032150	0.058836
H51	H	-4.477921	-0.796451	-0.466114
H52	H	-3.977921	-0.296451	0.033886
H53	H	-3.808409	-0.772997	-0.439036
H54	H	-3.308409	-0.272997	0.060964
F55	F	-4.410412	-0.540649	-0.470241
F56	F	-3.910412	-0.040649	0.029759
