data_functionalizedCrystal
_audit_creation_method	'MofGen! by Chris Wilmer'
_symmetry_space_group_name_H-M	'P1'
_symmetry_Int_Tables_number	1
_symmetry_cell_setting	triclinic
loop_
_symmetry_equiv_pos_as_xyz
  x,y,z
_cell_length_a	18.215407
_cell_length_b	11.169416
_cell_length_c	11.169409
_cell_angle_alpha	89.969126
_cell_angle_beta	90.023316
_cell_angle_gamma	89.989212
loop_
_atom_site_label
_atom_site_type_symbol
_atom_site_fract_x
_atom_site_fract_y
_atom_site_fract_z
Zn1	Zn	1.125172	0.477696	0.678667
Zn2	Zn	1.625172	0.977696	1.178667
Zn3	Zn	1.125104	0.678436	0.477989
Zn4	Zn	1.625104	1.178436	0.977989
Zn5	Zn	1.002097	0.477767	0.477989
Zn6	Zn	1.502097	0.977767	0.977989
Zn7	Zn	1.002101	0.678337	0.678621
Zn8	Zn	1.502101	1.178337	1.178621
O9	O	1.063618	0.578059	0.578316
O10	O	1.563618	1.078059	1.078316
O11	O	1.228147	0.504336	0.652065
O12	O	1.728147	1.004336	1.152065
O13	O	1.108756	0.651888	0.310039
O14	O	1.608756	1.151888	0.810039
O15	O	1.018449	0.309808	0.504628
O16	O	1.518449	0.809808	1.004628
O17	O	1.228097	0.651819	0.504628
O18	O	1.728097	1.151819	1.004628
O19	O	1.108872	0.309755	0.652065
O20	O	1.608872	0.809755	1.152065
O21	O	1.018384	0.504458	0.310039
O22	O	1.518384	1.004458	0.810039
O23	O	0.899113	0.504362	0.504584
O24	O	1.399113	1.004362	1.004584
O25	O	1.018457	0.651650	0.846577
O26	O	1.518457	1.151650	1.346577
O27	O	0.899116	0.651719	0.651988
O28	O	1.399116	1.151719	1.151988
O29	O	1.108876	0.504240	0.846611
O30	O	1.608876	1.004240	1.346611
O31	O	1.108761	0.846373	0.504584
O32	O	1.608761	1.346373	1.004584
O33	O	1.018391	0.846300	0.651988
O34	O	1.518391	1.346300	1.151988
C35	C	1.063589	0.889884	0.578307
C36	C	1.563589	1.389884	1.078307
C37	C	1.063644	1.023284	0.578344
C38	C	1.563644	1.523284	1.078344
C39	C	0.872412	0.578038	0.578282
C40	C	1.372412	1.078038	1.078282
C41	C	0.790613	0.578059	0.578296
C42	C	1.290613	1.078059	1.078296
C43	C	1.063675	0.577926	0.891359
C44	C	1.563675	1.077926	1.391359
C45	C	1.063699	0.577869	1.024759
C46	C	1.563699	1.077869	1.524759
C47	C	0.602440	0.654908	0.654953
C48	C	1.102440	1.154908	1.154953
C49	C	0.525582	0.654912	0.654968
C50	C	1.025582	1.154912	1.154968
C51	C	0.525548	0.501231	0.501707
C52	C	1.025548	1.001231	1.001707
C53	C	0.602406	0.501222	0.501698
C54	C	1.102406	1.001222	1.001698
C55	C	0.640850	0.578068	0.578320
C56	C	1.140850	1.078068	1.078320
C57	C	0.487134	0.578080	0.578343
C58	C	0.987134	1.078080	1.078343
C59	C	0.403800	0.578084	0.578358
C60	C	0.903800	1.078084	1.078358
C61	C	0.724189	0.578063	0.578306
C62	C	1.224189	1.078063	1.078306
C63	C	1.255571	0.578080	0.578352
C64	C	1.755571	1.078080	1.078352
C65	C	1.337370	0.578090	0.578367
C66	C	1.837370	1.078090	1.078367
C67	C	1.063668	0.265017	0.578352
C68	C	1.563668	0.765017	1.078352
C69	C	1.063689	0.131617	0.578367
C70	C	1.563689	0.631617	1.078367
C71	C	1.063604	0.578105	0.266492
C72	C	1.563604	1.078105	0.766492
C73	C	1.063723	0.577824	0.133092
C74	C	1.563723	1.077824	0.633092
H75	H	0.494312	0.717482	0.717372
H76	H	0.994312	1.217482	1.217372
Cl77	Cl	0.650767	0.751509	0.751281
Cl78	Cl	1.150767	1.251509	1.251281
Cl79	Cl	0.477214	0.404634	0.405385
Cl80	Cl	0.977214	0.904634	0.905385
Cl81	Cl	0.650696	0.404607	0.405360
Cl82	Cl	1.150696	0.904607	0.905360
