data_functionalizedCrystal
_audit_creation_method	'MofGen! by Chris Wilmer'
_symmetry_space_group_name_H-M	'P1'
_symmetry_Int_Tables_number	1
_symmetry_cell_setting	triclinic
loop_
_symmetry_equiv_pos_as_xyz
  x,y,z
_cell_length_a	10.489741
_cell_length_b	10.489716
_cell_length_c	13.101039
_cell_angle_alpha	93.400284
_cell_angle_beta	86.610661
_cell_angle_gamma	84.534155
loop_
_atom_site_label
_atom_site_type_symbol
_atom_site_fract_x
_atom_site_fract_y
_atom_site_fract_z
O1	O	1.700985	0.173000	-0.085141
O2	O	1.329789	0.189892	-0.085156
O3	O	1.523850	-0.004154	-0.085152
O4	O	1.506924	0.367046	-0.085145
O5	O	1.509927	0.009791	0.085277
O6	O	1.315866	0.203837	0.085273
O7	O	1.687062	0.186946	0.085288
Zn8	Zn	1.499253	0.197606	0.112340
Zn9	Zn	1.517598	0.179232	-0.112208
O10	O	1.493001	0.380992	0.085284
C11	C	1.275296	0.195588	0.000056
C12	C	1.133667	0.191771	0.000050
C13	C	1.065538	0.068305	0.000058
C14	C	0.980270	0.119754	-0.083970
C15	C	0.966577	0.133533	0.084060
C16	C	1.050271	0.243264	-0.084047
C17	C	1.036581	0.257032	0.084059
C18	C	0.951343	0.308568	0.000011
C19	C	1.515617	-0.044714	0.000060
C20	C	1.511813	-0.186346	0.000050
C21	C	1.630816	-0.284018	0.000064
C22	C	1.574797	-0.368255	-0.083966
C23	C	1.561042	-0.354470	0.084064
C24	C	1.455849	-0.268723	-0.084050
C25	C	1.442105	-0.254925	0.084056
C26	C	1.386000	-0.339115	0.000005
C27	C	1.741555	0.181249	0.000073
C28	C	1.883184	0.185066	0.000073
C29	C	1.501234	0.421551	0.000070
C30	C	1.505038	0.563182	0.000073
N31	N	1.486743	0.210145	0.265588
N32	N	1.530118	0.166682	-0.265456
C33	C	1.469722	0.227217	0.474631
C34	C	1.547135	0.149615	0.525508
C35	C	1.537664	0.159114	0.641826
C36	C	1.479191	0.217719	0.358302
H37	H	1.086905	0.289645	-0.155165
C38	C	1.247005	0.303021	0.507930
C39	C	1.370658	0.326532	0.533755
H40	H	1.185852	0.364331	0.544447
H41	H	1.240454	0.309599	0.436396
H42	H	1.230844	0.219193	0.525451
H43	H	1.386824	0.410357	0.516227
H44	H	1.377214	0.319966	0.605305
H45	H	1.620524	0.076045	0.481707
C46	C	1.400157	-0.085062	-0.179244
C47	C	1.395943	-0.218137	-0.180077
H48	H	1.363189	-0.053837	-0.238532
H49	H	1.353312	-0.045236	-0.119662
H50	H	1.486835	-0.065867	-0.178989
H51	H	1.309265	-0.237332	-0.180324
H52	H	1.442787	-0.257976	-0.239674
H53	H	1.115245	-0.033200	-0.000049
H54	H	0.955064	0.061699	-0.155012
H55	H	0.901914	0.410169	-0.000033
H56	H	1.605500	-0.392129	0.155103
H57	H	0.929800	0.087082	0.155099
C58	C	1.028559	0.277701	0.267880
C59	C	1.070674	0.335341	0.179965
H60	H	1.049618	0.326036	0.327092
H61	H	0.938219	0.275199	0.268915
H62	H	1.069297	0.192781	0.267261
H63	H	1.029928	0.420258	0.180580
H64	H	1.161031	0.337857	0.178930
C65	C	1.839771	-0.308342	-0.088186
C66	C	1.770541	-0.250642	-0.000069
H67	H	1.926021	-0.287711	-0.088280
H68	H	1.838383	-0.398787	-0.088776
H69	H	1.801869	-0.277639	-0.147264
H70	H	1.808438	-0.281352	0.059009
H71	H	1.771936	-0.160179	0.000531
H72	H	1.630837	-0.417563	-0.155006
H73	H	1.386109	-0.205594	0.155097
C74	C	1.191352	-0.328615	-0.088117
C75	C	1.246165	-0.372116	-0.000058
H76	H	1.105029	-0.348999	-0.088160
H77	H	1.193098	-0.238294	-0.088678
H78	H	1.238746	-0.369071	-0.147235
H79	H	1.198777	-0.331653	0.059060
H80	H	1.244411	-0.462454	0.000513
