data_functionalizedCrystal
_audit_creation_method	'MofGen! by Chris Wilmer'
_symmetry_space_group_name_H-M	'P1'
_symmetry_Int_Tables_number	1
_symmetry_cell_setting	triclinic
loop_
_symmetry_equiv_pos_as_xyz
  x,y,z
_cell_length_a	13.262390
_cell_length_b	15.995350
_cell_length_c	12.376457
_cell_angle_alpha	101.278656
_cell_angle_beta	63.168449
_cell_angle_gamma	83.981602
loop_
_atom_site_label
_atom_site_type_symbol
_atom_site_fract_x
_atom_site_fract_y
_atom_site_fract_z
O1	O	1.512401	0.017764	-0.559006
O2	O	1.185275	0.047122	-0.458429
O3	O	1.357780	-0.089883	-0.511466
O4	O	1.339896	0.154769	-0.505969
O5	O	1.314669	-0.055676	-0.310199
O6	O	1.142164	0.081329	-0.257162
O7	O	1.469290	0.051971	-0.357739
Zn8	Zn	1.298882	0.072081	-0.275495
Zn9	Zn	1.355683	0.027012	-0.540673
O10	O	1.296785	0.188975	-0.304702
C11	C	1.121858	0.065726	-0.344925
C12	C	0.997126	0.070186	-0.306575
C13	C	0.739540	0.008161	-0.637335
C14	C	0.856733	0.003965	-0.673368
C15	C	0.891837	0.020520	-0.581673
C16	C	0.809737	0.041271	-0.453939
C17	C	0.692533	0.045460	-0.417902
C18	C	0.844831	0.057820	-0.362240
C19	C	0.762730	0.078570	-0.234505
C20	C	0.645539	0.082759	-0.198475
C21	C	0.610434	0.066204	-0.290170
C22	C	0.962034	0.053631	-0.398277
C23	C	0.915028	0.090930	-0.178844
C24	C	0.797835	0.095125	-0.142810
C25	C	1.335486	-0.103938	-0.410607
C26	C	1.333270	-0.196781	-0.409933
C27	C	1.325309	-0.534138	-0.407481
C28	C	1.202550	-0.480760	-0.370160
C29	C	1.204670	-0.384102	-0.370388
C30	C	1.329258	-0.366771	-0.408698
C31	C	1.365237	-0.391285	-0.312398
C32	C	1.362130	-0.487753	-0.311352
C33	C	1.413693	-0.527135	-0.541011
C34	C	1.413989	-0.430446	-0.542521
C35	C	1.331496	-0.272183	-0.409383
C36	C	1.323073	-0.628725	-0.406788
C37	C	1.532707	0.033367	-0.471246
C38	C	1.657441	0.028905	-0.509603
C39	C	1.319080	0.203030	-0.405563
C40	C	1.321297	0.295872	-0.406246
N41	N	1.260125	0.102838	-0.094521
N42	N	1.394448	-0.003752	-0.721650
C43	C	1.484415	-0.075166	0.191506
C44	C	1.511535	-0.096693	0.064828
C45	C	1.448684	-0.046812	0.024984
C46	C	1.358710	0.024599	0.111831
C47	C	1.331594	0.046132	0.238520
C48	C	1.295863	0.074486	0.071998
C49	C	1.205890	0.145898	0.158845
C50	C	1.178777	0.167427	0.285521
C51	C	1.241627	0.117546	0.325364
C52	C	1.322980	0.052953	-0.054690
C53	C	1.170159	0.174252	-0.007677
C54	C	1.143039	0.195779	0.119001
H55	H	0.515008	0.069622	-0.260838
H56	H	1.028869	0.036737	-0.502279
F57	F	1.380334	-0.410516	-0.636001
H58	H	0.578697	0.099640	-0.094466
F59	F	0.710445	0.117209	-0.006868
F60	F	1.418733	-0.023046	-0.147105
F61	F	1.607287	-0.172690	-0.027596
F62	F	1.534687	-0.417726	-0.588115
H63	H	1.504440	-0.563466	-0.569636
H64	H	1.219544	0.135071	0.428516
H65	H	0.943608	0.104409	-0.104177
H66	H	0.923572	-0.012934	-0.777370
H67	H	1.455853	-0.380919	-0.336269
F68	F	1.083031	0.243437	0.377947
F69	F	1.047284	0.271779	0.211442
H70	H	1.174685	-0.367348	-0.438129
H71	H	1.171100	-0.510893	-0.437481
H72	H	1.535586	-0.115769	0.223955
H73	H	1.118982	0.214871	-0.040115
H74	H	1.451212	-0.523536	-0.333873
H75	H	0.987262	0.017104	-0.611020
H76	H	1.470769	-0.064343	-0.078163
F77	F	1.286280	-0.332495	-0.183687
H78	H	1.136109	-0.484029	-0.273169
F79	F	1.280316	-0.489761	-0.181298
F80	F	0.702176	-0.009491	-0.734910
H81	H	1.392185	-0.560511	-0.615772
F82	F	1.118884	-0.326272	-0.243248
