data_functionalizedCrystal
_audit_creation_method	'MofGen! by Chris Wilmer'
_symmetry_space_group_name_H-M	'P1'
_symmetry_Int_Tables_number	1
_symmetry_cell_setting	triclinic
loop_
_symmetry_equiv_pos_as_xyz
  x,y,z
_cell_length_a	19.188931
_cell_length_b	14.519731
_cell_length_c	18.266242
_cell_angle_alpha	89.994522
_cell_angle_beta	90.004165
_cell_angle_gamma	96.583002
loop_
_atom_site_label
_atom_site_type_symbol
_atom_site_fract_x
_atom_site_fract_y
_atom_site_fract_z
O1	O	-0.926562	0.115138	-0.060857
O2	O	-0.593229	0.448471	0.272476
O3	O	-0.259896	0.781804	0.605809
O4	O	-0.723307	0.130636	-0.060865
O5	O	-0.389974	0.463969	0.272469
O6	O	-0.056640	0.797302	0.605802
O7	O	-0.830316	-0.011384	-0.060854
O8	O	-0.496983	0.321949	0.272479
O9	O	-0.163649	0.655283	0.605813
O10	O	-0.819553	0.257157	-0.060868
O11	O	-0.486220	0.590491	0.272465
O12	O	-0.152887	0.923824	0.605799
O13	O	-0.830304	-0.011387	0.060908
O14	O	-0.496971	0.321946	0.394241
O15	O	-0.163638	0.655280	0.727574
O16	O	-0.723295	0.130632	0.060897
O17	O	-0.389962	0.463966	0.394231
O18	O	-0.056629	0.797299	0.727564
O19	O	-0.926551	0.115134	0.060905
O20	O	-0.593217	0.448468	0.394238
O21	O	-0.259884	0.781801	0.727571
Zn22	Zn	-0.824921	0.122883	0.080233
Zn23	Zn	-0.491588	0.456216	0.413567
Zn24	Zn	-0.158254	0.789550	0.746900
Zn25	Zn	-0.824936	0.122887	-0.080193
Zn26	Zn	-0.491603	0.456221	0.253140
Zn27	Zn	-0.158270	0.789554	0.586473
O28	O	-0.819542	0.257154	0.060894
O29	O	-0.486208	0.590487	0.394227
O30	O	-0.152875	0.923821	0.727561
C31	C	-0.697288	0.130132	0.000016
C32	C	-0.363955	0.463465	0.333349
C33	C	-0.030622	0.796799	0.666682
C34	C	-0.619778	0.128625	0.000013
C35	C	-0.286445	0.461958	0.333346
C36	C	0.046888	0.795292	0.666680
C37	C	-0.829806	-0.045742	0.000027
C38	C	-0.496472	0.287592	0.333360
C39	C	-0.163139	0.620925	0.666694
C40	C	-0.828295	-0.148113	0.000027
C41	C	-0.494961	0.185221	0.333361
C42	C	-0.161628	0.518554	0.666694
C43	C	-0.066490	0.117871	-0.066351
C44	C	0.266843	0.451204	0.266982
C45	C	0.600176	0.784538	0.600315
C46	C	-0.139320	0.119282	-0.066354
C47	C	0.194014	0.452615	0.266979
C48	C	0.527347	0.785948	0.600312
C49	C	-0.175733	0.119989	0.000018
C50	C	0.157600	0.453323	0.333351
C51	C	0.490934	0.786656	0.666685
C52	C	-0.139313	0.119263	0.066398
C53	C	0.194020	0.452596	0.399731
C54	C	0.527354	0.785929	0.733065
C55	C	-0.066486	0.117843	0.066399
C56	C	0.266847	0.451176	0.399732
C57	C	0.600181	0.784510	0.733065
N58	N	-0.284946	0.174695	0.049419
N59	N	0.048387	0.508028	0.382752
N60	N	0.381721	0.841361	0.716086
N61	N	-0.354129	0.176045	0.049414
N62	N	-0.020795	0.509379	0.382747
N63	N	0.312538	0.842712	0.716080
C64	C	-0.395157	0.124265	0.000019
C65	C	-0.061824	0.457598	0.333352
C66	C	0.271510	0.790932	0.666686
N67	N	-0.364388	0.071095	-0.049381
N68	N	-0.031055	0.404428	0.283952
N69	N	0.302278	0.737761	0.617286
N70	N	-0.295199	0.069748	-0.049378
N71	N	0.038134	0.403081	0.283956
N72	N	0.371468	0.736415	0.617289
C73	C	-0.254702	0.121528	0.000024
C74	C	0.078632	0.454862	0.333358
C75	C	0.411965	0.788195	0.666691
C76	C	-0.510539	0.126514	-0.066360
C77	C	-0.177205	0.459848	0.266974
C78	C	0.156128	0.793181	0.600307
C79	C	-0.583370	0.127919	-0.066360
C80	C	-0.250037	0.461252	0.266973
C81	C	0.083297	0.794586	0.600307
C82	C	-0.583361	0.127909	0.066394
C83	C	-0.250028	0.461243	0.399728
C84	C	0.083305	0.794576	0.733061
C85	C	-0.510532	0.126495	0.066392
C86	C	-0.177199	0.459829	0.399726
C87	C	0.156135	0.793162	0.733059
C88	C	-0.474125	0.125802	0.000013
C89	C	-0.140792	0.459136	0.333347
C90	C	0.192542	0.792469	0.666680
C91	C	-0.827067	-0.231249	0.000026
C92	C	-0.493733	0.102084	0.333359
C93	C	-0.160400	0.435417	0.666692
C94	C	-0.825532	-0.335548	0.000020
C95	C	-0.492199	-0.002215	0.333353
C96	C	-0.158866	0.331118	0.666687
C97	C	-0.824315	-0.418680	0.000015
C98	C	-0.490981	-0.085347	0.333349
C99	C	-0.157648	0.247987	0.666682
C100	C	-0.822781	-0.522986	0.000011
C101	C	-0.489447	-0.189652	0.333344
C102	C	-0.156114	0.143681	0.666678
C103	C	0.047431	0.115639	0.000023
C104	C	0.380764	0.448973	0.333356
C105	C	0.714098	0.782306	0.666689
C106	C	-0.030079	0.117150	0.000020
C107	C	0.303255	0.450483	0.333353
C108	C	0.636588	0.783817	0.666686
C109	C	-0.820052	0.291512	0.000011
C110	C	-0.486719	0.624845	0.333345
C111	C	-0.153385	0.958179	0.666678
C112	C	-0.821563	0.393883	0.000006
C113	C	-0.488230	0.727216	0.333340
C114	C	-0.154896	1.060549	0.666673
N115	N	-0.824916	0.122879	0.189720
N116	N	-0.491582	0.456213	0.523054
N117	N	-0.158249	0.789546	0.856387
N118	N	-0.824947	0.122883	-0.189680
N119	N	-0.491614	0.456217	0.143653
N120	N	-0.158281	0.789550	0.476986
C121	C	-0.872332	0.060014	0.772002
C122	C	-0.538999	0.393348	1.105335
C123	C	-0.205665	0.726681	1.438669
C124	C	-0.872333	0.060016	0.695357
C125	C	-0.539000	0.393350	1.028691
C126	C	-0.205666	0.726683	1.362024
C127	C	-0.824937	0.122879	0.657033
C128	C	-0.491604	0.456212	0.990366
C129	C	-0.158270	0.789545	1.323699
C130	C	-0.777549	0.185760	0.695360
C131	C	-0.444216	0.519093	1.028693
C132	C	-0.110882	0.852426	1.362026
C133	C	-0.777554	0.185762	0.772003
C134	C	-0.444221	0.519095	1.105336
C135	C	-0.110887	0.852429	1.438670
N136	N	-0.763168	0.134830	0.536704
N137	N	-0.429835	0.468163	0.870037
N138	N	-0.096501	0.801496	1.203370
N139	N	-0.763165	0.134822	0.463896
N140	N	-0.429832	0.468155	0.797229
N141	N	-0.096499	0.801489	1.130562
C142	C	-0.824920	0.122877	0.426110
C143	C	-0.491587	0.456210	0.759444
C144	C	-0.158253	0.789544	1.092777
N145	N	-0.886679	0.110922	0.463884
N146	N	-0.553346	0.444255	0.797217
N147	N	-0.220012	0.777589	1.130550
N148	N	-0.886681	0.110925	0.536699
N149	N	-0.553348	0.444258	0.870032
N150	N	-0.220014	0.777592	1.203365
C151	C	-0.824927	0.122884	0.573926
C152	C	-0.491593	0.456217	0.907259
C153	C	-0.158260	0.789550	1.240593
C154	C	-0.872309	0.060007	0.304686
C155	C	-0.538976	0.393340	0.638019
C156	C	-0.205643	0.726673	0.971352
C157	C	-0.872311	0.060015	0.228039
C158	C	-0.538978	0.393348	0.561373
C159	C	-0.205645	0.726682	0.894706
C160	C	-0.777521	0.185754	0.228043
C161	C	-0.444188	0.519088	0.561377
C162	C	-0.110854	0.852421	0.894710
C163	C	-0.777525	0.185750	0.304688
C164	C	-0.444192	0.519083	0.638021
C165	C	-0.110859	0.852417	0.971355
C166	C	-0.824919	0.122871	0.343005
C167	C	-0.491585	0.456205	0.676338
C168	C	-0.158252	0.789538	1.009671
H169	H	-0.036852	0.117303	-0.120403
H170	H	0.296481	0.450636	0.212931
H171	H	0.629814	0.783970	0.546264
H172	H	-0.910901	0.008822	0.196841
H173	H	-0.577568	0.342156	0.530174
H174	H	-0.244235	0.675489	0.863507
F175	F	-0.178079	0.120051	-0.136999
F176	F	0.155254	0.453384	0.196335
F177	F	0.488587	0.786717	0.529668
F178	F	-0.622123	0.128678	-0.137005
F179	F	-0.288789	0.462011	0.196328
F180	F	0.044544	0.795344	0.529661
H181	H	-0.168965	0.119837	0.120439
H182	H	0.164368	0.453171	0.453772
H183	H	0.497701	0.786504	0.787105
F184	F	-0.922774	-0.006902	0.812780
F185	F	-0.589441	0.326431	1.146113
F186	F	-0.256107	0.659764	1.479446
H187	H	-0.738967	0.236959	0.803202
H188	H	-0.405634	0.570292	1.136535
H189	H	-0.072300	0.903625	1.469869
H190	H	-0.910921	0.008819	0.664153
H191	H	-0.577587	0.342152	0.997487
H192	H	-0.244254	0.675486	1.330820
F193	F	-0.922752	-0.006910	0.345466
F194	F	-0.589419	0.326423	0.678799
F195	F	-0.256086	0.659756	1.012132
F196	F	-0.471777	0.125740	0.137035
F197	F	-0.138444	0.459073	0.470368
F198	F	0.194889	0.792407	0.803701
F199	F	-0.727109	0.252666	0.654572
F200	F	-0.393776	0.585999	0.987905
F201	F	-0.060442	0.919332	1.321238
H202	H	-0.738933	0.236941	0.196840
H203	H	-0.405600	0.570275	0.530173
H204	H	-0.072267	0.903608	0.863507
F205	F	-0.471790	0.125771	-0.137005
F206	F	-0.138456	0.459104	0.196328
F207	F	0.194877	0.792438	0.529662
F208	F	-0.027733	0.117078	0.137043
F209	F	0.305601	0.450411	0.470377
F210	F	0.638934	0.783745	0.803710
F211	F	-0.622111	0.128651	0.137033
F212	F	-0.288778	0.461984	0.470367
F213	F	0.044556	0.795317	0.803700
H214	H	-0.738938	0.236940	0.335888
H215	H	-0.405604	0.570274	0.669222
H216	H	-0.072271	0.903607	1.002555
