data_functionalizedCrystal
_audit_creation_method	'MofGen! by Chris Wilmer'
_symmetry_space_group_name_H-M	'P1'
_symmetry_Int_Tables_number	1
_symmetry_cell_setting	triclinic
loop_
_symmetry_equiv_pos_as_xyz
  x,y,z
_cell_length_a	14.519731
_cell_length_b	27.731996
_cell_length_c	13.596369
_cell_angle_alpha	89.988048
_cell_angle_beta	89.994584
_cell_angle_gamma	83.155120
loop_
_atom_site_label
_atom_site_type_symbol
_atom_site_fract_x
_atom_site_fract_y
_atom_site_fract_z
O1	O	1.222730	0.063413	-0.081807
O2	O	1.556064	0.396746	0.251526
O3	O	1.889397	0.730079	0.584860
O4	O	0.954124	0.070864	-0.081810
O5	O	1.287457	0.404197	0.251523
O6	O	1.620791	0.737530	0.584857
O7	O	1.096795	-0.003220	-0.081787
O8	O	1.430128	0.330113	0.251546
O9	O	1.763461	0.663447	0.584880
O10	O	1.080060	0.137496	-0.081830
O11	O	1.413393	0.470830	0.251504
O12	O	1.746727	0.804163	0.584837
O13	O	1.096781	-0.003224	0.081796
O14	O	1.430114	0.330109	0.415129
O15	O	1.763447	0.663443	0.748462
O16	O	0.954110	0.070860	0.081773
O17	O	1.287443	0.404193	0.415106
O18	O	1.620777	0.737526	0.748440
O19	O	1.222716	0.063409	0.081776
O20	O	1.556050	0.396742	0.415109
O21	O	1.889383	0.730075	0.748443
Zn22	Zn	1.088411	0.067134	0.107747
Zn23	Zn	1.421744	0.400467	0.441080
Zn24	Zn	1.755078	0.733800	0.774413
Zn25	Zn	1.088429	0.067139	-0.107781
Zn26	Zn	1.421763	0.400472	0.225553
Zn27	Zn	1.755096	0.733805	0.558886
O28	O	1.080046	0.137492	0.081753
O29	O	1.413379	0.470826	0.415086
O30	O	1.746712	0.804159	0.748420
C31	C	0.919764	0.070513	-0.000019
C32	C	1.253097	0.403846	0.333315
C33	C	1.586430	0.737179	0.666648
C34	C	0.817402	0.069466	-0.000019
C35	C	1.150735	0.402800	0.333315
C36	C	1.484069	0.736133	0.666648
C37	C	0.734273	0.068616	-0.000023
C38	C	1.067606	0.401950	0.333311
C39	C	1.400940	0.735283	0.666644
C40	C	0.629983	0.067554	-0.000023
C41	C	0.963316	0.400887	0.333311
C42	C	1.296650	0.734221	0.666644
C43	C	0.546859	0.066711	-0.000022
C44	C	0.880192	0.400044	0.333311
C45	C	1.213526	0.733378	0.666644
C46	C	0.442562	0.065649	-0.000024
C47	C	0.775896	0.398982	0.333309
C48	C	1.109229	0.732316	0.666643
C49	C	1.096444	-0.021231	0.000008
C50	C	1.429777	0.312102	0.333341
C51	C	1.763110	0.645436	0.666674
C52	C	1.095408	-0.074892	0.000018
C53	C	1.428742	0.258441	0.333351
C54	C	1.762075	0.591774	0.666684
C55	C	1.088901	-0.407638	-0.089199
C56	C	1.422235	-0.074304	0.244134
C57	C	1.755568	0.259029	0.577467
C58	C	1.084969	-0.609315	-0.089217
C59	C	1.418303	-0.275982	0.244117
C60	C	1.751636	0.057352	0.577450
O61	O	1.084428	-0.635386	-0.165052
O62	O	1.417761	-0.302053	0.168281
O63	O	1.751095	0.031280	0.501614
N64	N	1.084473	-0.634537	-0.000049
N65	N	1.417807	-0.301203	0.333285
N66	N	1.751140	0.032130	0.666618
C67	C	1.084954	-0.609335	0.089130
C68	C	1.418288	-0.276002	0.422464
C69	C	1.751621	0.057331	0.755797
O70	O	1.084433	-0.635415	0.164973
O71	O	1.417766	-0.302082	0.498306
O72	O	1.751099	0.031252	0.831640
C73	C	1.088880	-0.407659	0.089147
C74	C	1.422213	-0.074325	0.422480
C75	C	1.755546	0.259008	0.755813
C76	C	1.089385	-0.382440	-0.000027
C77	C	1.422718	-0.049107	0.333306
C78	C	1.756052	0.284226	0.666639
C79	C	1.089406	-0.382419	-0.178366
C80	C	1.422739	-0.049086	0.154967
C81	C	1.756072	0.284247	0.488300
C82	C	1.090394	-0.332003	-0.178361
C83	C	1.423727	0.001330	0.154972
C84	C	1.757060	0.334663	0.488306
C85	C	1.090877	-0.306806	-0.089189
C86	C	1.424211	0.026527	0.244144
C87	C	1.757544	0.359861	0.577478
C88	C	1.090373	-0.332024	-0.000022
C89	C	1.423706	0.001309	0.333311
C90	C	1.757040	0.334642	0.666644
C91	C	1.089354	-0.382458	0.178324
C92	C	1.422687	-0.049125	0.511658
C93	C	1.756021	0.284209	0.844991
C94	C	1.090333	-0.332036	0.178321
C95	C	1.423666	0.001298	0.511654
C96	C	1.757000	0.334631	0.844987
C97	C	1.090838	-0.306817	0.089147
C98	C	1.424172	0.026516	0.422480
C99	C	1.757505	0.359850	0.755813
C100	C	1.091845	-0.256411	0.089155
C101	C	1.425178	0.076922	0.422488
C102	C	1.758511	0.410256	0.755822
N103	N	1.092341	-0.231189	-0.000013
N104	N	1.425674	0.102144	0.333320
N105	N	1.759007	0.435477	0.666654
C106	C	1.091857	-0.256387	-0.089185
C107	C	1.425190	0.076946	0.244148
C108	C	1.758524	0.410280	0.577482
C109	C	1.082895	-0.715219	0.089115
C110	C	1.416229	-0.381885	0.422449
C111	C	1.749562	-0.048552	0.755782
C112	C	1.081916	-0.765638	0.089112
C113	C	1.415249	-0.432304	0.422445
C114	C	1.748582	-0.098971	0.755778
C115	C	1.081929	-0.765614	-0.089236
C116	C	1.415262	-0.432280	0.244098
C117	C	1.748596	-0.098947	0.577431
C118	C	1.082915	-0.715194	-0.089231
C119	C	1.416249	-0.381861	0.244102
C120	C	1.749582	-0.048528	0.577436
C121	C	1.083391	-0.689997	-0.000053
C122	C	1.416725	-0.356664	0.333281
C123	C	1.750058	-0.023330	0.666614
C124	C	1.093933	-0.150510	-0.089167
C125	C	1.427266	0.182823	0.244166
C126	C	1.760599	0.516157	0.577499
C127	C	1.094925	-0.100090	-0.089154
C128	C	1.428258	0.233244	0.244179
C129	C	1.761591	0.566577	0.577512
C130	C	1.094906	-0.100118	0.089193
C131	C	1.428240	0.233215	0.422526
C132	C	1.761573	0.566549	0.755859
C133	C	1.093919	-0.150534	0.089180
C134	C	1.427253	0.182799	0.422513
C135	C	1.760586	0.516133	0.755847
C136	C	1.093429	-0.175728	-0.000008
C137	C	1.426763	0.157605	0.333325
C138	C	1.760096	0.490938	0.666659
O139	O	1.092376	-0.230308	0.164951
O140	O	1.425710	0.103026	0.498284
O141	O	1.759043	0.436359	0.831617
O142	O	1.092358	-0.230297	-0.165016
O143	O	1.425692	0.103036	0.168317
O144	O	1.759025	0.436369	0.501650
C145	C	1.087913	-0.458054	-0.089205
C146	C	1.421247	-0.124720	0.244129
C147	C	1.754580	0.208613	0.577462
C148	C	1.087409	-0.483272	-0.000038
C149	C	1.420742	-0.149939	0.333295
C150	C	1.754076	0.183394	0.666629
C151	C	1.087893	-0.458075	0.089134
C152	C	1.421226	-0.124741	0.422467
C153	C	1.754559	0.208592	0.755801
C154	C	1.086429	-0.533691	-0.000042
C155	C	1.419763	-0.200358	0.333292
C156	C	1.753096	0.132975	0.666625
C157	C	1.085946	-0.558889	-0.089214
C158	C	1.419279	-0.225555	0.244120
C159	C	1.752612	0.107778	0.577453
C160	C	1.086442	-0.533667	-0.178382
C161	C	1.419775	-0.200334	0.154951
C162	C	1.753108	0.133000	0.488285
C163	C	1.087430	-0.483251	-0.178377
C164	C	1.420763	-0.149918	0.154957
C165	C	1.754096	0.183415	0.488290
C166	C	1.087397	-0.483296	0.178302
C167	C	1.420730	-0.149963	0.511636
C168	C	1.754063	0.183370	0.844969
C169	C	1.086410	-0.533712	0.178290
C170	C	1.419743	-0.200379	0.511623
C171	C	1.753077	0.132954	0.844956
C172	C	1.085926	-0.558910	0.089118
C173	C	1.419260	-0.225577	0.422451
C174	C	1.752593	0.107757	0.755784
C175	C	1.257077	0.063760	-0.000018
C176	C	1.590410	0.397093	0.333316
C177	C	1.923743	0.730427	0.666649
C178	C	1.359438	0.064806	-0.000024
C179	C	1.692772	0.398139	0.333310
C180	C	2.026105	0.731473	0.666643
C181	C	1.080397	0.155503	-0.000044
C182	C	1.413730	0.488837	0.333289
C183	C	1.747063	0.822170	0.666623
C184	C	1.081432	0.209165	-0.000060
C185	C	1.414765	0.542498	0.333273
C186	C	1.748099	0.875831	0.666606
N187	N	1.088405	0.067130	0.254839
N188	N	1.421738	0.400463	0.588172
N189	N	1.755072	0.733796	0.921505
N190	N	1.088443	0.067139	-0.254873
N191	N	1.421776	0.400472	0.078461
N192	N	1.755109	0.733805	0.411794
C193	C	1.088428	0.067139	0.656130
C194	C	1.421762	0.400473	0.989463
C195	C	1.755095	0.733806	1.322796
C196	C	1.088419	0.067138	0.544478
C197	C	1.421752	0.400472	0.877812
C198	C	1.755086	0.733805	1.211145
C199	C	1.088417	0.067135	0.455488
C200	C	1.421750	0.400468	0.788821
C201	C	1.755084	0.733802	1.122154
C202	C	1.088407	0.067133	0.343829
C203	C	1.421740	0.400467	0.677163
C204	C	1.755074	0.733800	1.010496
H205	H	1.093529	-0.171017	-0.161793
H206	H	1.426863	0.162316	0.171541
H207	H	1.760196	0.495650	0.504874
N208	N	1.095409	-0.074367	0.180267
N209	N	1.428742	0.258966	0.513600
N210	N	1.762076	0.592300	0.846933
N211	N	1.096288	-0.029351	0.180247
N212	N	1.429622	0.303982	0.513580
N213	N	1.762955	0.637316	0.846914
H214	H	1.096639	-0.011162	0.244569
H215	H	1.429972	0.322171	0.577902
H216	H	1.763306	0.655505	0.911235
N217	N	1.083405	-0.689435	-0.180320
N218	N	1.416739	-0.356102	0.153014
N219	N	1.750072	-0.022769	0.486347
N220	N	1.018919	-0.656903	-0.200223
N221	N	1.352252	-0.323570	0.133111
N222	N	1.685585	0.009763	0.466444
H223	H	1.019261	-0.638713	-0.264558
H224	H	1.352595	-0.305380	0.068775
H225	H	1.685928	0.027954	0.402108
H226	H	1.088944	-0.402982	0.250940
H227	H	1.422277	-0.069649	0.584273
H228	H	1.755611	0.263684	0.917606
N229	N	1.090810	-0.306305	0.269426
N230	N	1.424143	0.027028	0.602759
N231	N	1.757476	0.360362	0.936093
N232	N	1.090354	-0.328831	0.349031
N233	N	1.423688	0.004502	0.682364
N234	N	1.757021	0.337835	1.015697
H235	H	1.090691	-0.310661	0.413375
H236	H	1.424024	0.022673	0.746708
H237	H	1.757358	0.356006	1.080041
N238	N	1.081420	-0.791388	0.180210
N239	N	1.414753	-0.458055	0.513543
N240	N	1.748087	-0.124722	0.846876
N241	N	1.081852	-0.768879	0.259816
N242	N	1.415185	-0.435545	0.593150
N243	N	1.748519	-0.102212	0.926483
H244	H	1.081499	-0.787063	0.324159
H245	H	1.414832	-0.453729	0.657492
H246	H	1.748165	-0.120396	0.990825
H247	H	1.093516	-0.171068	0.161793
H248	H	1.426850	0.162265	0.495126
H249	H	1.760183	0.495598	0.828459
H250	H	1.087841	-0.462723	-0.250991
H251	H	1.421174	-0.129389	0.082342
H252	H	1.754507	0.203944	0.415675
N253	N	1.085960	-0.559419	-0.269461
N254	N	1.419293	-0.226086	0.063872
N255	N	1.752627	0.107247	0.397205
N256	N	1.085083	-0.604436	-0.269439
N257	N	1.418416	-0.271102	0.063894
N258	N	1.751750	0.062231	0.397228
H259	H	1.084741	-0.622626	-0.333759
H260	H	1.418074	-0.289293	-0.000426
H261	H	1.751408	0.044041	0.332907
H262	H	1.081536	-0.786138	-0.161843
H263	H	1.414869	-0.452805	0.171490
H264	H	1.748203	-0.119471	0.504823
H265	H	1.090802	-0.311475	-0.250976
H266	H	1.424135	0.021859	0.082358
H267	H	1.757468	0.355192	0.415691
H268	H	1.086006	-0.554241	0.250912
H269	H	1.419339	-0.220908	0.584245
H270	H	1.752672	0.112425	0.917578
N271	N	1.083381	-0.689492	0.180224
N272	N	1.416714	-0.356158	0.513558
N273	N	1.750047	-0.022825	0.846891
N274	N	1.082939	-0.712023	0.259824
N275	N	1.416272	-0.378689	0.593158
N276	N	1.749605	-0.045356	0.926491
H277	H	1.083285	-0.693856	0.324172
H278	H	1.416618	-0.360522	0.657505
H279	H	1.749951	-0.027189	0.990839
H280	H	1.087792	-0.462786	0.250919
H281	H	1.421125	-0.129453	0.584252
H282	H	1.754459	0.203881	0.917585
H283	H	1.089008	-0.402929	-0.250985
H284	H	1.422342	-0.069596	0.082349
H285	H	1.755675	0.263737	0.415682
N286	N	1.095448	-0.074338	-0.180257
N287	N	1.428781	0.258995	0.153077
N288	N	1.762115	0.592328	0.486410
N289	N	1.095016	-0.096846	-0.259866
N290	N	1.428349	0.236487	0.073468
N291	N	1.761682	0.569821	0.406801
H292	H	1.095385	-0.078661	-0.324206
H293	H	1.428718	0.254672	0.009127
H294	H	1.762052	0.588005	0.342461
