data_functionalizedCrystal
_audit_creation_method	'MofGen! by Chris Wilmer'
_symmetry_space_group_name_H-M	'P1'
_symmetry_Int_Tables_number	1
_symmetry_cell_setting	triclinic
loop_
_symmetry_equiv_pos_as_xyz
  x,y,z
_cell_length_a	21.295418
_cell_length_b	21.295418
_cell_length_c	16.959447
_cell_angle_alpha	89.972529
_cell_angle_beta	89.962187
_cell_angle_gamma	90.044200
loop_
_atom_site_label
_atom_site_type_symbol
_atom_site_fract_x
_atom_site_fract_y
_atom_site_fract_z
Zn1	Zn	0.962328	-0.250353	-0.447333
Zn2	Zn	1.212328	-0.000353	-0.197333
Zn3	Zn	1.462328	0.249647	0.052667
Zn4	Zn	1.712328	0.499647	0.302667
Zn5	Zn	0.962245	-0.355623	-0.315153
Zn6	Zn	1.212245	-0.105623	-0.065153
Zn7	Zn	1.462245	0.144377	0.184847
Zn8	Zn	1.712245	0.394377	0.434847
Zn9	Zn	0.857062	-0.250401	-0.315124
Zn10	Zn	1.107062	-0.000401	-0.065124
Zn11	Zn	1.357062	0.249599	0.184876
Zn12	Zn	1.607062	0.499599	0.434876
Zn13	Zn	0.857025	-0.355618	-0.447245
Zn14	Zn	1.107025	-0.105618	-0.197245
Zn15	Zn	1.357025	0.144382	0.052755
Zn16	Zn	1.607025	0.394382	0.302755
O17	O	0.909665	-0.302999	-0.381214
O18	O	1.159665	-0.052999	-0.131214
O19	O	1.409665	0.197001	0.118786
O20	O	1.659665	0.447001	0.368786
O21	O	1.050407	-0.264300	-0.429849
O22	O	1.300407	-0.014300	-0.179849
O23	O	1.550407	0.235700	0.070151
O24	O	1.800407	0.485700	0.320151
O25	O	0.948274	-0.341688	-0.204538
O26	O	1.198274	-0.091688	0.045462
O27	O	1.448274	0.158312	0.295462
O28	O	1.698274	0.408312	0.545462
O29	O	0.871076	-0.162305	-0.332687
O30	O	1.121076	0.087695	-0.082687
O31	O	1.371076	0.337695	0.167313
O32	O	1.621076	0.587695	0.417313
O33	O	1.050346	-0.341641	-0.332736
O34	O	1.300346	-0.091641	-0.082736
O35	O	1.550346	0.158359	0.167264
O36	O	1.800346	0.408359	0.417264
O37	O	0.948415	-0.162270	-0.429820
O38	O	1.198415	0.087730	-0.179820
O39	O	1.448415	0.337730	0.070180
O40	O	1.698415	0.587730	0.320180
O41	O	0.870996	-0.264381	-0.204517
O42	O	1.120996	-0.014381	0.045483
O43	O	1.370996	0.235619	0.295483
O44	O	1.620996	0.485619	0.545483
O45	O	0.768968	-0.264376	-0.332601
O46	O	1.018968	-0.014376	-0.082601
O47	O	1.268968	0.235624	0.167399
O48	O	1.518968	0.485624	0.417399
O49	O	0.871012	-0.341631	-0.557868
O50	O	1.121012	-0.091631	-0.307868
O51	O	1.371012	0.158369	-0.057868
O52	O	1.621012	0.408369	0.192132
O53	O	0.768940	-0.341678	-0.429670
O54	O	1.018940	-0.091678	-0.179670
O55	O	1.268940	0.158322	0.070330
O56	O	1.518940	0.408322	0.320330
O57	O	0.948378	-0.264294	-0.557933
O58	O	1.198378	-0.014294	-0.307933
O59	O	1.448378	0.235706	-0.057933
O60	O	1.698378	0.485706	0.192067
O61	O	0.948237	-0.443712	-0.332651
O62	O	1.198237	-0.193712	-0.082651
O63	O	1.448237	0.056288	0.167349
O64	O	1.698237	0.306288	0.417349
O65	O	0.870932	-0.443708	-0.429698
O66	O	1.120932	-0.193708	-0.179698
O67	O	1.370932	0.056292	0.070302
O68	O	1.620932	0.306292	0.320302
C69	C	0.746114	-0.303032	-0.381123
C70	C	0.996114	-0.053032	-0.131123
C71	C	1.246114	0.196968	0.118877
C72	C	1.496114	0.446968	0.368877
C73	C	0.676145	-0.303061	-0.381103
C74	C	0.926145	-0.053061	-0.131103
C75	C	1.176145	0.196939	0.118897
C76	C	1.426145	0.446939	0.368897
C77	C	0.909589	-0.466550	-0.381185
C78	C	1.159589	-0.216550	-0.131185
C79	C	1.409589	0.033450	0.118815
C80	C	1.659589	0.283450	0.368815
C81	C	0.909614	-0.536518	-0.381199
C82	C	1.159614	-0.286518	-0.131199
C83	C	1.409614	-0.036518	0.118801
C84	C	1.659614	0.213482	0.368801
C85	C	0.950014	-1.035905	-0.431893
C86	C	1.200014	-0.785905	-0.181893
C87	C	1.450014	-0.535905	0.068107
C88	C	1.700014	-0.285905	0.318107
C89	C	0.949995	-0.970162	-0.431880
C90	C	1.199995	-0.720162	-0.181880
C91	C	1.449995	-0.470162	0.068120
C92	C	1.699995	-0.220162	0.318120
C93	C	0.909751	-0.937358	-0.381263
C94	C	1.159751	-0.687358	-0.131263
C95	C	1.409751	-0.437358	0.118737
C96	C	1.659751	-0.187358	0.368737
C97	C	0.869534	-0.970301	-0.330641
C98	C	1.119534	-0.720301	-0.080641
C99	C	1.369534	-0.470301	0.169359
C100	C	1.619534	-0.220301	0.419359
C101	C	0.869558	-1.036043	-0.330649
C102	C	1.119558	-0.786043	-0.080649
C103	C	1.369558	-0.536043	0.169351
C104	C	1.619558	-0.286043	0.419351
N105	N	0.854614	-0.834204	-0.375099
N106	N	1.104614	-0.584204	-0.125099
N107	N	1.354614	-0.334204	0.124901
N108	N	1.604614	-0.084204	0.374901
N109	N	0.854593	-0.771752	-0.375096
N110	N	1.104593	-0.521752	-0.125096
N111	N	1.354593	-0.271752	0.124904
N112	N	1.604593	-0.021752	0.374904
C113	C	0.909677	-0.739283	-0.381234
C114	C	1.159677	-0.489283	-0.131234
C115	C	1.409677	-0.239283	0.118766
C116	C	1.659677	0.010717	0.368766
N117	N	0.964784	-0.771625	-0.387391
N118	N	1.214784	-0.521625	-0.137391
N119	N	1.464784	-0.271625	0.112609
N120	N	1.714784	-0.021625	0.362609
N121	N	0.964804	-0.834082	-0.387398
N122	N	1.214804	-0.584082	-0.137398
N123	N	1.464804	-0.334082	0.112602
N124	N	1.714804	-0.084082	0.362602
C125	C	0.909721	-0.866072	-0.381248
C126	C	1.159721	-0.616072	-0.131248
C127	C	1.409721	-0.366072	0.118752
C128	C	1.659721	-0.116072	0.368752
C129	C	0.949875	-0.635062	-0.431836
C130	C	1.199875	-0.385062	-0.181836
C131	C	1.449875	-0.135062	0.068164
C132	C	1.699875	0.114938	0.318164
C133	C	0.949858	-0.569318	-0.431818
C134	C	1.199858	-0.319318	-0.181818
C135	C	1.449858	-0.069318	0.068182
C136	C	1.699858	0.180682	0.318182
C137	C	0.869390	-0.569459	-0.330582
C138	C	1.119390	-0.319459	-0.080582
C139	C	1.369390	-0.069459	0.169418
C140	C	1.619390	0.180541	0.419418
C141	C	0.869413	-0.635201	-0.330596
C142	C	1.119413	-0.385201	-0.080596
C143	C	1.369413	-0.135201	0.169404
C144	C	1.619413	0.114799	0.419404
C145	C	0.909655	-0.667999	-0.381227
C146	C	1.159655	-0.417999	-0.131227
C147	C	1.409655	-0.167999	0.118773
C148	C	1.659655	0.082001	0.368773
C149	C	0.643281	-0.343366	-0.431571
C150	C	0.893281	-0.093366	-0.181571
C151	C	1.143281	0.156634	0.068429
C152	C	1.393281	0.406634	0.318429
C153	C	0.577538	-0.343350	-0.431606
C154	C	0.827538	-0.093350	-0.181606
C155	C	1.077538	0.156650	0.068394
C156	C	1.327538	0.406650	0.318394
C157	C	0.544663	-0.303037	-0.381160
C158	C	0.794663	-0.053037	-0.131160
C159	C	1.044663	0.196963	0.118840
C160	C	1.294663	0.446963	0.368840
C161	C	0.577535	-0.262724	-0.330688
C162	C	0.827535	-0.012724	-0.080688
C163	C	1.077535	0.237276	0.169312
C164	C	1.327535	0.487276	0.419312
C165	C	0.643277	-0.262737	-0.330660
C166	C	0.893277	-0.012737	-0.080660
C167	C	1.143277	0.237263	0.169340
C168	C	1.393277	0.487263	0.419340
N169	N	0.441392	-0.298119	-0.312025
N170	N	0.691392	-0.048119	-0.062025
N171	N	0.941392	0.201881	0.187975
N172	N	1.191392	0.451881	0.437975
N173	N	0.378941	-0.298111	-0.312054
N174	N	0.628941	-0.048111	-0.062054
N175	N	0.878941	0.201889	0.187946
N176	N	1.128941	0.451889	0.437946
C177	C	0.346588	-0.302997	-0.381243
C178	C	0.596588	-0.052997	-0.131243
C179	C	0.846588	0.197003	0.118757
C180	C	1.096588	0.447003	0.368757
N181	N	0.379046	-0.307902	-0.450404
N182	N	0.629046	-0.057902	-0.200404
N183	N	0.879046	0.192098	0.049596
N184	N	1.129046	0.442098	0.299596
N185	N	0.441503	-0.307914	-0.450373
N186	N	0.691503	-0.057914	-0.200373
N187	N	0.941503	0.192086	0.049627
N188	N	1.191503	0.442086	0.299627
C189	C	0.473378	-0.303019	-0.381185
C190	C	0.723378	-0.053019	-0.131185
C191	C	0.973378	0.196981	0.118815
C192	C	1.223378	0.446981	0.368815
C193	C	0.242438	-0.343286	-0.431754
C194	C	0.492438	-0.093286	-0.181754
C195	C	0.742438	0.156714	0.068246
C196	C	0.992438	0.406714	0.318246
C197	C	0.176695	-0.343267	-0.431791
C198	C	0.426695	-0.093267	-0.181791
C199	C	0.676695	0.156733	0.068209
C200	C	0.926695	0.406733	0.318209
C201	C	0.176693	-0.262644	-0.330866
C202	C	0.426693	-0.012644	-0.080866
C203	C	0.676693	0.237356	0.169134
C204	C	0.926693	0.487356	0.419134
C205	C	0.242435	-0.262661	-0.330836
C206	C	0.492435	-0.012661	-0.080836
C207	C	0.742435	0.237339	0.169164
C208	C	0.992435	0.487339	0.419164
C209	C	0.275304	-0.302985	-0.381279
C210	C	0.525304	-0.052985	-0.131279
C211	C	0.775304	0.197015	0.118721
C212	C	1.025304	0.447015	0.368721
C213	C	1.073855	-0.302966	-0.381306
C214	C	1.323855	-0.052966	-0.131306
C215	C	1.573855	0.197034	0.118694
C216	C	1.823855	0.447034	0.368694
C217	C	1.143824	-0.302952	-0.381345
C218	C	1.393824	-0.052952	-0.131345
C219	C	1.643824	0.197048	0.118655
C220	C	1.893824	0.447048	0.368655
C221	C	0.909700	-0.302957	-0.587382
C222	C	1.159700	-0.052957	-0.337382
C223	C	1.409700	0.197043	-0.087382
C224	C	1.659700	0.447043	0.162618
C225	C	0.909716	-0.302939	-0.675239
C226	C	1.159716	-0.052939	-0.425239
C227	C	1.409716	0.197061	-0.175239
C228	C	1.659716	0.447061	0.074761
C229	C	0.909759	-0.138808	-0.381260
C230	C	1.159759	0.111192	-0.131260
C231	C	1.409759	0.361192	0.118740
C232	C	1.659759	0.611192	0.368740
C233	C	0.909799	-0.068840	-0.381280
C234	C	1.159799	0.181160	-0.131280
C235	C	1.409799	0.431160	0.118720
C236	C	1.659799	0.681160	0.368720
C237	C	0.869442	-0.343197	-0.716481
C238	C	1.119442	-0.093197	-0.466481
C239	C	1.369442	0.156803	-0.216481
C240	C	1.619442	0.406803	0.033519
C241	C	0.949999	-0.262660	-0.716551
C242	C	1.199999	-0.012660	-0.466551
C243	C	1.449999	0.237340	-0.216551
C244	C	1.699999	0.487340	0.033449
C245	C	0.950012	-0.262639	-0.799097
C246	C	1.200012	-0.012639	-0.549097
C247	C	1.450012	0.237361	-0.299097
C248	C	1.700012	0.487361	-0.049097
C249	C	0.909739	-0.302898	-0.840338
C250	C	1.159739	-0.052898	-0.590338
C251	C	1.409739	0.197102	-0.340338
C252	C	1.659739	0.447102	-0.090338
C253	C	0.869453	-0.343176	-0.799034
C254	C	1.119453	-0.093176	-0.549034
C255	C	1.369453	0.156824	-0.299034
C256	C	1.619453	0.406824	-0.049034
C257	C	0.990293	-0.222357	-0.840407
C258	C	1.240293	0.027643	-0.590407
C259	C	1.490293	0.277643	-0.340407
C260	C	1.740293	0.527643	-0.090407
C261	C	0.990307	-0.222334	-0.922958
C262	C	1.240307	0.027666	-0.672958
C263	C	1.490307	0.277666	-0.422958
C264	C	1.740307	0.527666	-0.172958
C265	C	0.950037	-0.262596	-0.964201
C266	C	1.200037	-0.012596	-0.714201
C267	C	1.450037	0.237404	-0.464201
C268	C	1.700037	0.487404	-0.214201
C269	C	0.909750	-0.302877	-0.922892
C270	C	1.159750	-0.052877	-0.672892
C271	C	1.409750	0.197123	-0.422892
C272	C	1.659750	0.447123	-0.172892
C273	C	0.869477	-0.343135	-0.964134
C274	C	1.119477	-0.093135	-0.714134
C275	C	1.369477	0.156865	-0.464134
C276	C	1.619477	0.406865	-0.214134
C277	C	0.829192	-0.383420	-0.922826
C278	C	1.079192	-0.133420	-0.672826
C279	C	1.329192	0.116580	-0.422826
C280	C	1.579192	0.366580	-0.172826
C281	C	0.829183	-0.383438	-0.840277
C282	C	1.079183	-0.133438	-0.590277
C283	C	1.329183	0.116562	-0.340277
C284	C	1.579183	0.366562	-0.090277
C285	C	0.950046	-0.262577	-1.046750
C286	C	1.200046	-0.012577	-0.796750
C287	C	1.450046	0.237423	-0.546750
C288	C	1.700046	0.487423	-0.296750
C289	C	0.869487	-0.343114	-1.046687
C290	C	1.119487	-0.093114	-0.796687
C291	C	1.369487	0.156886	-0.546687
C292	C	1.619487	0.406886	-0.296687
C293	C	0.909666	-0.302995	-0.175848
C294	C	1.159666	-0.052995	0.074152
C295	C	1.409666	0.197005	0.324152
C296	C	1.659666	0.447005	0.574152
C297	C	0.909773	-0.302836	-0.087992
C298	C	1.159773	-0.052836	0.162008
C299	C	1.409773	0.197164	0.412008
C300	C	1.659773	0.447164	0.662008
H301	H	0.982787	-1.062605	-0.473114
H302	H	1.232787	-0.812605	-0.223114
H303	H	1.482787	-0.562605	0.026886
H304	H	1.732787	-0.312605	0.276886
H305	H	0.982841	-0.229773	-1.080379
H306	H	1.232841	0.020227	-0.830379
H307	H	1.482841	0.270227	-0.580379
H308	H	1.732841	0.520227	-0.330379
H309	H	0.149926	-0.229817	-0.289795
H310	H	0.399926	0.020183	-0.039795
H311	H	0.649926	0.270183	0.210205
H312	H	0.899926	0.520183	0.460205
F313	F	0.786328	-0.426260	-0.966728
F314	F	1.036328	-0.176260	-0.716728
F315	F	1.286328	0.073740	-0.466728
F316	F	1.536328	0.323740	-0.216728
H317	H	0.550764	-0.229900	-0.289615
H318	H	0.800764	0.020100	-0.039615
H319	H	1.050764	0.270100	0.210385
H320	H	1.300764	0.520100	0.460385
H321	H	0.836645	-0.375998	-0.682844
H322	H	1.086645	-0.125998	-0.432844
H323	H	1.336645	0.124002	-0.182844
H324	H	1.586645	0.374002	0.067156
H325	H	0.982744	-0.943341	-0.473097
H326	H	1.232744	-0.693341	-0.223097
H327	H	1.482744	-0.443341	0.026903
H328	H	1.732744	-0.193341	0.276903
F329	F	0.826705	-0.935388	-0.276768
F330	F	1.076705	-0.685388	-0.026768
F331	F	1.326705	-0.435388	0.223232
F332	F	1.576705	-0.185388	0.473232
F333	F	0.992665	-0.534266	-0.485686
F334	F	1.242665	-0.284266	-0.235686
F335	F	1.492665	-0.034266	0.014314
F336	F	1.742665	0.215734	0.264314
H337	H	0.982785	-0.229881	-0.682967
H338	H	1.232785	0.020119	-0.432967
H339	H	1.482785	0.270119	-0.182967
H340	H	1.732785	0.520119	0.067033
F341	F	0.678258	-0.386281	-0.485260
F342	F	0.928258	-0.136281	-0.235260
F343	F	1.178258	0.113719	0.014740
F344	F	1.428258	0.363719	0.264740
F345	F	0.826563	-0.534550	-0.276705
F346	F	1.076563	-0.284550	-0.026705
F347	F	1.326563	-0.034550	0.223295
F348	F	1.576563	0.215450	0.473295
F349	F	0.678255	-0.219837	-0.276942
F350	F	0.928255	0.030163	-0.026942
F351	F	1.178255	0.280163	0.223058
F352	F	1.428255	0.530163	0.473058
F353	F	0.786309	-0.426305	-0.796310
F354	F	1.036309	-0.176305	-0.546310
F355	F	1.286309	0.073695	-0.296310
F356	F	1.536309	0.323695	-0.046310
F357	F	0.542554	-0.386249	-0.485324
F358	F	0.792554	-0.136249	-0.235324
F359	F	1.042554	0.113751	0.014676
F360	F	1.292554	0.363751	0.264676
F361	F	0.826753	-1.071096	-0.276778
F362	F	1.076753	-0.821096	-0.026778
F363	F	1.326753	-0.571096	0.223222
F364	F	1.576753	-0.321096	0.473222
H365	H	0.836664	-0.662018	-0.289385
H366	H	1.086664	-0.412018	-0.039385
H367	H	1.336664	-0.162018	0.210615
H368	H	1.586664	0.087982	0.460615
F369	F	0.992708	-0.669970	-0.485714
F370	F	1.242708	-0.419970	-0.235714
F371	F	1.492708	-0.169970	0.014286
F372	F	1.742708	0.080030	0.264286
H373	H	0.269201	-0.376118	-0.472832
H374	H	0.519201	-0.126118	-0.222832
H375	H	0.769201	0.123882	0.027168
H376	H	1.019201	0.373882	0.277168
H377	H	0.149937	-0.376086	-0.472893
H378	H	0.399937	-0.126086	-0.222893
H379	H	0.649937	0.123914	0.027107
H380	H	0.899937	0.373914	0.277107
H381	H	0.269194	-0.229844	-0.289735
H382	H	0.519194	0.020156	-0.039735
H383	H	0.769194	0.270156	0.210265
H384	H	1.019194	0.520156	0.460265
H385	H	1.023079	-0.189579	-0.806822
H386	H	1.273079	0.060421	-0.556822
H387	H	1.523079	0.310421	-0.306822
H388	H	1.773079	0.560421	-0.056822
H389	H	0.836694	-0.375900	-1.080260
H390	H	1.086694	-0.125900	-0.830260
H391	H	1.336694	0.124100	-0.580260
H392	H	1.586694	0.374100	-0.330260
F393	F	1.033192	-0.179471	-0.966914
F394	F	1.283192	0.070529	-0.716914
F395	F	1.533192	0.320529	-0.466914
F396	F	1.783192	0.570529	-0.216914
