data_functionalizedCrystal
_audit_creation_method	'MofGen! by Chris Wilmer'
_symmetry_space_group_name_H-M	'P1'
_symmetry_Int_Tables_number	1
_symmetry_cell_setting	triclinic
loop_
_symmetry_equiv_pos_as_xyz
  x,y,z
_cell_length_a	19.851628
_cell_length_b	14.395555
_cell_length_c	19.851628
_cell_angle_alpha	60.003055
_cell_angle_beta	90.005779
_cell_angle_gamma	59.999934
loop_
_atom_site_label
_atom_site_type_symbol
_atom_site_fract_x
_atom_site_fract_y
_atom_site_fract_z
Zr1	Zr	0.649000	1.016676	-0.088329
O2	O	0.541438	1.210475	-0.195900
O3	O	0.681970	0.822879	-0.055351
O4	O	0.681976	1.016657	-0.195880
O5	O	0.541432	1.016711	0.055480
O6	O	0.792838	1.016639	-0.195867
O7	O	0.541433	1.016697	-0.055370
O8	O	0.792828	0.670005	0.055514
O9	O	0.541442	1.363345	-0.195901
O10	O	0.778770	0.902576	-0.041278
O11	O	0.696035	0.902600	0.041438
O12	O	0.696041	1.130748	-0.124017
O13	O	0.613306	1.130772	-0.041301
Zr14	Zr	0.825810	1.016669	0.088486
Zr15	Zr	0.825812	1.016647	-0.088307
Zr16	Zr	0.648999	1.016698	0.088464
Zr17	Zr	0.649005	1.260485	-0.088332
Zr18	Zr	0.825805	0.772860	0.088489
O19	O	0.792840	1.210466	0.055508
O20	O	0.792842	1.210434	-0.195869
O21	O	0.541436	1.210507	0.055478
O22	O	0.933372	0.822870	0.196057
O23	O	0.933374	0.822838	-0.055321
O24	O	0.681968	0.822911	0.196026
O25	O	0.933378	1.016634	-0.055323
O26	O	0.792834	1.016688	0.196037
O27	O	0.681973	1.016706	0.196024
O28	O	0.933377	1.016648	0.055527
O29	O	0.681983	1.363322	-0.195884
O30	O	0.792827	0.670023	0.196041
O31	O	0.933369	0.670000	0.196058
O32	O	0.933370	0.669982	0.055531
O33	O	0.541440	1.363363	-0.055374
O34	O	0.681982	1.363340	-0.055357
O35	O	0.778769	0.902597	0.124174
O36	O	0.861505	0.902573	0.041458
O37	O	0.778775	1.130745	-0.041281
O38	O	0.696040	1.130769	0.041435
C39	C	0.737398	0.711704	0.000082
C40	C	0.737396	0.608201	0.000083
C41	C	0.516241	1.016708	0.000052
C42	C	0.441179	1.016720	0.000042
C43	C	0.692288	0.547622	0.045186
C44	C	0.659595	0.561873	-0.032607
C45	C	0.770069	0.409553	0.077853
C46	C	0.704658	0.623879	-0.077756
C47	C	0.815175	0.471496	0.032760
C48	C	0.782502	0.485794	-0.045080
C49	C	0.214727	1.141101	-0.045043
C50	C	0.192364	1.078905	-0.077729
C51	C	0.303773	1.016686	0.000066
C52	C	0.192394	1.078890	0.032737
C53	C	0.171041	1.016663	0.000089
C54	C	0.282399	0.954490	-0.032666
C55	C	0.282426	0.954493	0.077844
C56	C	0.260117	0.892207	0.045177
C57	C	0.380235	1.016704	0.000051
C58	C	0.094583	1.016636	0.000102
C59	C	0.958570	1.016637	0.000105
C60	C	1.033631	1.016625	0.000114
C61	C	0.737407	1.016644	-0.221063
C62	C	0.737407	1.016635	-0.296116
C63	C	0.737412	1.321641	0.000075
C64	C	0.737414	1.425144	0.000074
C65	C	0.782515	0.892254	-0.477265
C66	C	0.815220	0.954412	-0.454882
C67	C	0.737405	1.016686	-0.566299
C68	C	0.704741	0.954464	-0.454921
C69	C	0.737408	1.016654	-0.433547
C70	C	0.770155	1.078846	-0.544905
C71	C	0.659632	1.078879	-0.544942
C72	C	0.692318	1.141129	-0.522612
C73	C	0.737405	1.016701	-0.642773
C74	C	0.737408	1.016649	-0.357078
C75	C	0.737403	1.016701	0.221220
C76	C	0.737403	1.016710	0.296273
C77	C	0.958563	0.711669	0.000109
C78	C	1.033622	0.608153	0.000119
C79	C	0.737397	0.711732	0.221223
C80	C	0.737394	0.608239	0.296278
C81	C	0.958561	0.711697	0.221250
C82	C	1.033620	0.608191	0.296314
C83	C	0.516249	1.321648	-0.221093
C84	C	0.441191	1.425154	-0.296157
C85	C	0.516247	1.321676	0.000048
C86	C	0.441188	1.425192	0.000038
C87	C	0.737414	1.321613	-0.221066
C88	C	0.737416	1.425106	-0.296121
C89	C	1.025684	0.559542	-0.043071
C90	C	1.096203	0.462292	-0.043078
C91	C	1.174659	0.413647	0.000111
C92	C	1.182596	0.462267	0.043302
C93	C	1.112077	0.559523	0.043303
C94	C	0.780579	0.559635	0.374719
C95	C	0.780573	0.462405	0.445247
C96	C	0.737387	0.413774	0.437333
C97	C	0.694196	0.462387	0.358883
C98	C	0.694198	0.559622	0.288357
C99	C	1.112062	0.559571	0.288387
C100	C	1.182594	0.462329	0.358911
C101	C	1.174682	0.413703	0.437360
C102	C	1.096231	0.462333	0.445285
C103	C	1.025701	0.559579	0.374762
C104	C	0.362748	1.473786	-0.288230
C105	C	0.292216	1.571058	-0.358754
C106	C	0.300128	1.619689	-0.437203
C107	C	0.378579	1.571053	-0.445128
C108	C	0.449110	1.473790	-0.374605
C109	C	0.449126	1.473813	0.043221
C110	C	0.378607	1.571090	0.043208
C111	C	0.300151	1.619738	0.000017
C112	C	0.292214	1.571113	-0.043171
C113	C	0.362733	1.473845	-0.043163
C114	C	0.780611	1.473707	-0.288180
C115	C	0.780630	1.570938	-0.358695
C116	C	0.737449	1.619572	-0.437150
C117	C	0.694252	1.570962	-0.445089
C118	C	0.694239	1.473727	-0.374575
H119	H	0.654089	0.574858	0.083271
Br120	Br	0.550028	1.166477	-0.609625
Br121	Br	0.919217	0.625542	-0.101694
H122	H	0.880930	0.434322	0.060425
H123	H	1.246484	0.422647	0.078464
H124	H	0.815804	1.610506	-0.352214
Br125	Br	0.389397	1.637057	0.101827
H126	H	1.118552	0.599089	0.078479
H127	H	0.196278	1.246299	-0.083244
Br128	Br	1.085413	0.396326	-0.101697
Br129	Br	0.204455	1.751748	0.000015
Br130	Br	0.351987	1.407804	-0.181773
H131	H	0.153556	1.131482	-0.143495
H132	H	0.659035	0.422777	0.352451
H133	H	0.659034	0.599182	0.224489
Br134	Br	0.635645	1.636992	-0.551571
H135	H	1.232073	0.334455	0.000103
H136	H	0.228326	1.610738	-0.078336
Br137	Br	0.185758	1.637040	-0.347979
Br138	Br	0.291037	0.716776	0.108705
H139	H	0.654179	1.246404	-0.541197
Br140	Br	0.816328	1.166422	-0.609378
Br141	Br	0.839201	0.625607	0.385483
H142	H	0.676957	0.715441	-0.143560
Br143	Br	0.839194	0.396450	0.551704
Br144	Br	1.122824	0.625549	0.181930
Br145	Br	1.270411	0.281724	0.533063
H146	H	1.089801	0.422727	0.509167
Br147	Br	0.919245	0.625546	0.385534
H148	H	0.737392	0.334599	0.494767
H149	H	0.820708	0.787065	-0.458835
H150	H	0.242691	1.698887	-0.494620
Br151	Br	0.346873	0.866936	-0.078854
Br152	Br	0.351945	1.407865	-0.101769
H153	H	0.385012	1.610662	-0.509009
H154	H	1.246466	0.422745	0.352444
H155	H	0.321233	0.901962	0.143596
H156	H	0.677113	0.901859	-0.416131
H157	H	0.512979	1.434195	-0.381069
H158	H	0.513003	1.434211	0.078397
H159	H	0.815775	1.434124	-0.224304
H160	H	0.659061	1.434167	-0.381052
H161	H	0.737466	1.698748	-0.494560
H162	H	0.593826	0.599066	-0.060253
Br163	Br	0.816113	0.256872	0.187476
H164	H	0.820647	0.458840	-0.083279
H165	H	0.880993	0.901813	-0.416075
Br166	Br	0.127722	1.166578	0.078775
