data_functionalizedCrystal
_audit_creation_method	'MofGen! by Chris Wilmer'
_symmetry_space_group_name_H-M	'P1'
_symmetry_Int_Tables_number	1
_symmetry_cell_setting	triclinic
loop_
_symmetry_equiv_pos_as_xyz
  x,y,z
_cell_length_a	14.044220
_cell_length_b	10.723022
_cell_length_c	13.101018
_cell_angle_alpha	93.394040
_cell_angle_beta	93.666550
_cell_angle_gamma	91.171948
loop_
_atom_site_label
_atom_site_type_symbol
_atom_site_fract_x
_atom_site_fract_y
_atom_site_fract_z
O1	O	-0.127849	1.676794	0.085206
O2	O	0.372151	2.176794	0.585206
O3	O	-0.140585	1.314916	0.085209
O4	O	0.359415	1.814916	0.585209
O5	O	0.003803	1.490423	0.085203
O6	O	0.503803	1.990423	0.585203
O7	O	-0.272236	1.501287	0.085212
O8	O	0.227764	2.001287	0.585212
O9	O	-0.006566	1.477815	-0.085227
O10	O	0.493434	1.977815	0.414773
O11	O	-0.150953	1.302308	-0.085221
O12	O	0.349047	1.802308	0.414779
O13	O	-0.138217	1.664187	-0.085224
O14	O	0.361783	2.164187	0.414776
Zn15	Zn	-0.146232	1.481246	-0.112282
Zn16	Zn	0.353768	1.981246	0.387718
Zn17	Zn	-0.132570	1.497856	0.112267
Zn18	Zn	0.367430	1.997856	0.612267
O19	O	-0.282605	1.488680	-0.085218
O20	O	0.217395	1.988680	0.414782
C21	C	-0.144842	1.262020	-0.000005
C22	C	0.355158	1.762020	0.499995
C23	C	-0.142070	1.123188	-0.000004
C24	C	0.357930	1.623188	0.499996
C25	C	-0.058807	1.066297	-0.000006
C26	C	0.441193	1.566297	0.499994
C27	C	-0.055940	0.922807	-0.000005
C28	C	0.444060	1.422807	0.499995
C29	C	-0.312766	1.499739	-0.000002
C30	C	0.187234	1.999739	0.499998
C31	C	-0.418084	1.513923	0.000002
C32	C	0.081916	2.013923	0.500002
C33	C	-0.610914	1.539855	-0.000003
C34	C	-0.110914	2.039855	0.499997
C35	C	-0.667893	1.439253	-0.000003
C36	C	-0.167893	1.939253	0.499997
C37	C	-0.775191	1.453682	-0.000005
C38	C	-0.275191	1.953682	0.499995
C39	C	-0.503606	1.525428	-0.000000
C40	C	-0.003606	2.025428	0.500000
C41	C	0.033964	1.479364	-0.000011
C42	C	0.533964	1.979364	0.499989
C43	C	0.139282	1.465180	-0.000008
C44	C	0.639282	1.965180	0.499992
C45	C	-0.133959	1.717083	-0.000007
C46	C	0.366041	2.217083	0.499993
C47	C	-0.136731	1.855915	-0.000002
C48	C	0.363269	2.355915	0.499998
N49	N	-0.155554	1.469919	-0.265530
N50	N	0.344446	1.969919	0.234470
C51	C	-0.110552	1.524597	-0.525442
C52	C	0.389448	2.024597	-0.025442
C53	C	-0.168239	1.454518	-0.474566
C54	C	0.331761	1.954518	0.025434
C55	C	-0.161180	1.463089	-0.358248
C56	C	0.338820	1.963089	0.141752
C57	C	-0.117611	1.516027	-0.641771
C58	C	0.382389	2.016027	-0.141771
N59	N	-0.123240	1.509193	0.265516
N60	N	0.376760	2.009193	0.765516
H61	H	0.010356	1.123820	-0.000004
H62	H	0.510356	1.623820	0.499996
H63	H	-0.055867	1.591027	-0.481644
H64	H	0.444133	2.091027	0.018356
Cl65	Cl	-0.246807	0.931465	-0.000007
Cl66	Cl	0.253193	1.431465	0.499993
H67	H	0.015351	0.873864	0.000019
H68	H	0.515351	1.373864	0.500019
Cl69	Cl	-0.252679	1.351954	-0.542192
Cl70	Cl	0.247321	1.851954	-0.042192
H71	H	-0.636092	1.342289	-0.000003
H72	H	-0.136092	1.842289	0.499997
Cl73	Cl	-0.248857	1.034388	0.000008
Cl74	Cl	0.251143	1.534388	0.500008
H75	H	-0.642713	1.636811	-0.000008
H76	H	-0.142713	2.136811	0.499992
