data_functionalizedCrystal
_audit_creation_method	'MofGen! by Chris Wilmer'
_symmetry_space_group_name_H-M	'P1'
_symmetry_Int_Tables_number	1
_symmetry_cell_setting	triclinic
loop_
_symmetry_equiv_pos_as_xyz
  x,y,z
_cell_length_a	16.959455
_cell_length_b	12.645330
_cell_length_c	16.959447
_cell_angle_alpha	90.028204
_cell_angle_beta	90.014322
_cell_angle_gamma	90.009593
loop_
_atom_site_label
_atom_site_type_symbol
_atom_site_fract_x
_atom_site_fract_y
_atom_site_fract_z
Zn1	Zn	1.208425	-0.422105	0.446920
Zn2	Zn	1.208364	-0.599396	0.314747
Zn3	Zn	1.076253	-0.422138	0.314758
Zn4	Zn	1.076235	-0.599317	0.446885
O5	O	1.142319	-0.510739	0.380828
O6	O	1.319027	-0.445642	0.429397
O7	O	1.190822	-0.575930	0.204137
O8	O	1.093819	-0.273786	0.332309
O9	O	1.318983	-0.575898	0.332290
O10	O	1.190925	-0.273762	0.429408
O11	O	1.093760	-0.445699	0.204145
O12	O	0.965640	-0.445622	0.332275
O13	O	1.093788	-0.575763	0.557501
O14	O	0.965626	-0.575795	0.429348
O15	O	1.190907	-0.445565	0.557527
O16	O	1.190804	-0.747733	0.332256
O17	O	1.093729	-0.747675	0.429337
C18	C	0.936953	-0.510704	0.380809
C19	C	0.849096	-0.510715	0.380820
C20	C	0.477603	-0.442903	0.330387
C21	C	0.477638	-0.578663	0.431313
C22	C	0.560184	-0.578648	0.431308
C23	C	0.601443	-0.510760	0.380841
C24	C	0.560157	-0.442888	0.330379
C25	C	0.601477	-0.646526	0.481764
C26	C	0.684028	-0.646515	0.481761
C27	C	0.725289	-0.578621	0.431297
C28	C	0.683997	-0.510745	0.380833
C29	C	0.725256	-0.442857	0.330366
C30	C	0.683966	-0.374975	0.279906
C31	C	0.601418	-0.374994	0.279915
C32	C	0.807837	-0.578602	0.431288
C33	C	0.807810	-0.442842	0.330358
C34	C	1.142280	-0.786169	0.380809
C35	C	1.142335	-0.903999	0.380827
C36	C	1.203307	-1.071555	0.319629
C37	C	1.203505	-0.948995	0.319779
C38	C	1.164917	-0.948380	0.464146
C39	C	1.165401	-1.070978	0.463821
C40	C	1.058757	-1.071321	0.359528
C41	C	1.059158	-0.948717	0.357659
C42	C	1.348487	-0.510775	0.380846
C43	C	1.436344	-0.510790	0.380854
C44	C	1.142352	-0.510651	0.586996
C45	C	1.142366	-0.510614	0.674852
C46	C	1.142380	-0.234234	0.380864
C47	C	1.142407	-0.116404	0.380879
C48	C	1.142332	-0.510750	0.175461
C49	C	1.142471	-0.510489	0.087605
C50	C	1.091895	-0.578290	1.046317
C51	C	1.193026	-0.442715	1.046339
C52	C	1.193005	-0.442737	0.963793
C53	C	1.142429	-0.510538	0.922506
C54	C	1.091874	-0.578317	0.963764
C55	C	1.243565	-0.374967	0.922529
C56	C	1.243546	-0.374988	0.839978
C57	C	1.192966	-0.442784	0.798689
C58	C	1.142408	-0.510565	0.839952
C59	C	1.091832	-0.578366	0.798664
C60	C	1.041270	-0.646142	0.839926
C61	C	1.041293	-0.646113	0.922475
C62	C	1.192942	-0.442813	0.716140
C63	C	1.091811	-0.578393	0.716111
H64	H	0.443981	-0.387632	0.289305
H65	H	1.038220	-1.102330	0.299830
H66	H	0.841452	-0.633874	0.472369
H67	H	1.042130	-0.919720	0.296343
C68	C	1.184430	-0.908458	0.236320
H69	H	1.176493	-0.966919	0.202018
H70	H	1.137943	-0.866619	0.237927
H71	H	1.227104	-0.866845	0.217519
H72	H	1.011335	-0.918098	0.398999
H73	H	1.050726	-0.633468	1.079916
C74	C	1.184545	-1.111621	0.235944
H75	H	1.139398	-1.156050	0.237605
H76	H	1.174439	-1.053086	0.202345
H77	H	1.228243	-1.150508	0.216265
C78	C	1.036177	-0.652972	0.670697
H79	H	1.043401	-0.643280	0.615624
H80	H	1.047727	-0.724197	0.684214
H81	H	0.983072	-0.637431	0.684227
H82	H	1.284717	-0.319800	0.806390
H83	H	0.717570	-0.319706	0.238812
H84	H	1.000094	-0.701350	0.806299
C85	C	1.247999	-1.109513	0.488242
H86	H	1.249022	-1.184630	0.488262
H87	H	1.285994	-1.083566	0.451934
H88	H	1.259935	-1.084125	0.539607
C89	C	0.997482	-1.110348	0.419869
H90	H	1.022708	-1.153924	0.457881
H91	H	0.974164	-1.051300	0.445474
H92	H	0.957789	-1.149875	0.393500
C93	C	1.286558	-1.113058	0.338495
H94	H	1.284364	-1.157596	0.383539
H95	H	1.306009	-1.152096	0.294764
H96	H	1.320661	-1.055079	0.348840
C97	C	0.729443	-0.721192	0.537252
H98	H	0.784516	-0.711471	0.530014
H99	H	0.715938	-0.705789	0.590386
H100	H	0.715904	-0.792401	0.525574
C101	C	0.432255	-0.653332	0.486823
H102	H	0.377179	-0.643616	0.479603
H103	H	0.445779	-0.724539	0.475167
H104	H	0.445800	-0.637891	0.539953
C105	C	0.555998	-0.300347	0.224404
H106	H	0.500926	-0.310092	0.231630
H107	H	0.569524	-0.229132	0.236054
H108	H	0.569512	-0.315787	0.171274
H109	H	0.567877	-0.701804	0.522846
H110	H	1.000131	-0.701296	0.956077
H111	H	0.841397	-0.387553	0.289266
C112	C	1.248549	-0.368264	0.670756
H113	H	1.278670	-0.327878	0.707168
H114	H	1.282969	-0.408827	0.638540
H115	H	1.218306	-0.322073	0.638568
C116	C	1.287200	-0.909265	0.338862
H117	H	1.321209	-0.968053	0.346561
H118	H	1.306155	-0.867580	0.296312
H119	H	1.285871	-0.867663	0.385501
C120	C	1.108092	-1.111057	0.527580
H121	H	1.084623	-1.052409	0.553569
H122	H	1.068151	-1.152866	0.503667
H123	H	1.136161	-1.152607	0.564853
H124	H	1.121910	-0.919230	0.511004
C125	C	1.246587	-0.906810	0.488986
H126	H	1.267031	-0.862419	0.448699
H127	H	1.241826	-0.867603	0.536539
H128	H	1.281296	-0.964771	0.497027
C129	C	1.299198	-0.300396	0.967941
H130	H	1.329312	-0.260045	0.931546
H131	H	1.268981	-0.254189	1.000152
H132	H	1.333636	-0.340956	1.000136
H133	H	1.234207	-0.387520	1.079961
