data_functionalizedCrystal
_audit_creation_method	'MofGen! by Chris Wilmer'
_symmetry_space_group_name_H-M	'P1'
_symmetry_Int_Tables_number	1
_symmetry_cell_setting	triclinic
loop_
_symmetry_equiv_pos_as_xyz
  x,y,z
_cell_length_a	17.699097
_cell_length_b	10.723023
_cell_length_c	16.776229
_cell_angle_alpha	89.994384
_cell_angle_beta	89.989262
_cell_angle_gamma	83.877989
loop_
_atom_site_label
_atom_site_type_symbol
_atom_site_fract_x
_atom_site_fract_y
_atom_site_fract_z
O1	O	1.005068	0.157876	-0.066353
O2	O	1.505068	0.657876	0.433647
O3	O	0.784820	0.178388	-0.066340
O4	O	1.284820	0.678388	0.433660
O5	O	0.900025	-0.013531	-0.066343
O6	O	1.400025	0.486469	0.433657
O7	O	0.889863	0.349795	-0.066349
O8	O	1.389863	0.849795	0.433651
O9	O	0.900009	-0.013542	0.066233
O10	O	1.400009	0.486458	0.566233
O11	O	0.784805	0.178377	0.066237
O12	O	1.284805	0.678377	0.566237
O13	O	1.005052	0.157864	0.066224
O14	O	1.505052	0.657864	0.566224
Zn15	Zn	0.894926	0.168119	0.087280
Zn16	Zn	1.394926	0.668119	0.587280
Zn17	Zn	0.894946	0.168134	-0.087396
Zn18	Zn	1.394946	0.668134	0.412604
O19	O	0.889848	0.349783	0.066227
O20	O	1.389848	0.849783	0.566227
C21	C	0.756611	0.177645	-0.000050
C22	C	1.256611	0.677645	0.499950
C23	C	0.672579	0.175431	-0.000045
C24	C	1.172579	0.675431	0.499955
C25	C	0.156784	0.161870	-0.072344
C26	C	0.656784	0.661870	0.427656
C27	C	0.235741	0.163942	-0.072340
C28	C	0.735741	0.663942	0.427660
C29	C	0.275205	0.164973	-0.000069
C30	C	0.775205	0.664973	0.499931
C31	C	0.235709	0.163920	0.072202
C32	C	0.735709	0.663920	0.572202
C33	C	0.156754	0.161840	0.072197
C34	C	0.656754	0.661840	0.572197
C35	C	0.554126	0.172307	0.072223
C36	C	1.054126	0.672307	0.572223
C37	C	0.633086	0.174391	0.072222
C38	C	1.133086	0.674391	0.572222
C39	C	0.633113	0.174409	-0.072315
C40	C	1.133113	0.674409	0.427685
C41	C	0.554158	0.172329	-0.072319
C42	C	1.054158	0.672329	0.427681
C43	C	0.514669	0.171270	-0.000048
C44	C	1.014669	0.671270	0.499952
C45	C	0.429055	0.169021	-0.000053
C46	C	0.929055	0.669021	0.499947
C47	C	0.360817	0.167230	-0.000063
C48	C	0.860817	0.667230	0.499937
C49	C	0.899277	-0.060024	-0.000056
C50	C	1.399277	0.439976	0.499944
C51	C	0.897065	-0.198540	-0.000058
C52	C	1.397065	0.301460	0.499942
C53	C	0.896087	-0.260283	-0.068738
C54	C	1.396087	0.239717	0.431262
C55	C	0.893801	-0.403447	-0.068742
C56	C	1.393801	0.096553	0.431258
C57	C	1.033261	0.158608	-0.000068
C58	C	1.533261	0.658608	0.499932
C59	C	1.117293	0.160821	-0.000078
C60	C	1.617293	0.660821	0.499922
C61	C	0.890595	0.396276	-0.000062
C62	C	1.390595	0.896276	0.499938
C63	C	0.892807	0.534793	-0.000065
C64	C	1.392807	1.034793	0.499935
N65	N	0.894918	0.168107	0.206491
N66	N	1.394918	0.668107	0.706491
N67	N	0.894961	0.168136	-0.206607
N68	N	1.394961	0.668136	0.293393
C69	C	0.945946	0.083160	0.248206
C70	C	1.445946	0.583160	0.748206
C71	C	0.945950	0.083159	0.331659
C72	C	1.445950	0.583159	0.831659
C73	C	0.894929	0.168112	0.373394
C74	C	1.394929	0.668112	0.873394
C75	C	0.843895	0.253063	0.331672
C76	C	1.343895	0.753063	0.831672
C77	C	0.843888	0.253057	0.248222
C78	C	1.343888	0.753057	0.748222
C79	C	0.843923	0.253088	0.668220
C80	C	1.343923	0.753088	1.168220
C81	C	0.843935	0.253090	0.751676
C82	C	1.343935	0.753090	1.251676
C83	C	0.945985	0.083190	0.751656
C84	C	1.445985	0.583190	1.251656
C85	C	0.945978	0.083184	0.668206
C86	C	1.445978	0.583184	1.168206
C87	C	0.894941	0.168130	0.626492
C88	C	1.394941	0.668130	1.126492
C89	C	0.894937	0.168128	0.536003
C90	C	1.394937	0.668128	1.036003
C91	C	0.894937	0.168121	0.463881
C92	C	1.394937	0.668121	0.963881
H93	H	0.665275	0.175266	-0.131161
H94	H	1.165275	0.675266	0.368839
H95	H	0.665216	0.175231	0.131077
H96	H	1.165216	0.675231	0.631077
O97	O	0.794293	0.335657	0.792096
O98	O	1.294293	0.835657	1.292096
C99	C	0.693088	0.504213	0.783314
C100	C	1.193088	1.004213	1.283314
C101	C	0.749251	0.410762	0.737440
C102	C	1.249251	0.910762	1.237440
H103	H	0.656668	0.564978	0.739145
H104	H	1.156668	1.064978	1.239145
H105	H	0.654962	0.450469	0.822380
H106	H	1.154962	0.950469	1.322380
H107	H	0.726099	0.566437	0.822388
H108	H	1.226099	1.066437	1.322388
H109	H	0.716302	0.348515	0.698322
H110	H	1.216302	0.848515	1.198322
H111	H	0.787377	0.464584	0.698424
H112	H	1.287377	0.964584	1.198424
O113	O	0.794300	0.335414	0.372301
O114	O	1.294300	0.835414	0.872301
C115	C	0.691061	0.362184	0.466516
C116	C	1.191061	0.862184	0.966516
C117	C	0.747194	0.268781	0.420569
C118	C	1.247194	0.768781	0.920569
H119	H	0.652951	0.308347	0.505539
H120	H	1.152951	0.808347	1.005539
H121	H	0.724021	0.424442	0.505622
H122	H	1.224021	0.924442	1.005622
H123	H	0.654620	0.422922	0.422351
H124	H	1.154620	0.922922	0.922351
H125	H	0.783649	0.207959	0.464677
H126	H	1.283649	0.707959	0.964677
H127	H	0.714188	0.206609	0.381451
H128	H	1.214188	0.706609	0.881451
O129	O	0.897020	-0.196748	-0.138831
O130	O	1.397020	0.303252	0.361169
C131	C	0.833929	-0.035322	-0.222612
C132	C	1.333929	0.464678	0.277388
C133	C	0.832780	-0.107157	-0.143195
C134	C	1.332780	0.392843	0.356805
H135	H	0.781989	0.037110	-0.226173
H136	H	1.281989	0.537110	0.273827
H137	H	0.887746	0.014126	-0.226170
H138	H	1.387746	0.514126	0.273830
H139	H	0.832879	-0.104097	-0.274316
H140	H	1.332879	0.395903	0.225684
H141	H	0.833802	-0.038466	-0.091446
H142	H	1.333802	0.461534	0.408554
H143	H	0.778968	-0.156625	-0.139706
H144	H	1.278968	0.343375	0.360294
O145	O	0.794293	0.335699	0.207820
O146	O	1.294293	0.835699	0.707820
C147	C	0.693040	0.504173	0.216642
C148	C	1.193040	1.004173	0.716642
C149	C	0.749181	0.410671	0.262494
C150	C	1.249181	0.910671	0.762494
H151	H	0.656542	0.564795	0.260825
H152	H	1.156542	1.064795	0.760825
H153	H	0.725992	0.566529	0.177577
H154	H	1.225992	1.066529	0.677577
H155	H	0.654986	0.450344	0.177568
H156	H	1.154986	0.950344	0.677568
H157	H	0.787249	0.464398	0.301611
H158	H	1.287249	0.964398	0.801611
H159	H	0.716182	0.348316	0.301508
H160	H	1.216182	0.848316	0.801508
H161	H	0.521985	0.171426	0.131070
H162	H	1.021985	0.671426	0.631070
H163	H	0.987539	0.014018	0.785629
H164	H	1.487539	0.514018	1.285629
H165	H	0.124600	0.160999	0.131044
H166	H	0.624600	0.660999	0.631044
O167	O	0.995398	0.000596	0.627542
O168	O	1.495398	0.500596	1.127542
C169	C	1.040316	-0.075194	0.498974
C170	C	1.540316	0.424806	0.998974
C171	C	0.984395	0.018548	0.544925
C172	C	1.484395	0.518548	1.044925
H173	H	1.031428	-0.060731	0.432170
H174	H	1.531428	0.439269	0.932170
H175	H	1.101102	-0.059332	0.515206
H176	H	1.601102	0.440668	1.015206
H177	H	1.029781	-0.174992	0.515538
H178	H	1.529781	0.325008	1.015538
H179	H	0.994860	0.118382	0.528385
H180	H	1.494860	0.618382	1.028385
H181	H	0.923628	0.002576	0.528689
H182	H	1.423628	0.502576	1.028689
H183	H	0.522030	0.171496	-0.131170
H184	H	1.022030	0.671496	0.368830
H185	H	0.124657	0.161040	-0.131195
H186	H	0.624657	0.661040	0.368805
H187	H	0.893652	-0.412119	0.058738
H188	H	1.393652	0.087881	0.558738
H189	H	0.267847	0.164752	0.131046
H190	H	0.767847	0.664752	0.631046
H191	H	0.267892	0.164788	-0.131186
H192	H	0.767892	0.664788	0.368814
H193	H	0.896205	-0.251667	0.058738
H194	H	1.396205	0.248333	0.558738
H195	H	0.892964	-0.456545	-0.127541
H196	H	1.392964	0.043455	0.372459
O197	O	0.995537	0.000515	0.207792
O198	O	1.495537	0.500515	0.707792
C199	C	1.096788	-0.167963	0.216590
C200	C	1.596788	0.332037	0.716590
C201	C	1.040656	-0.074449	0.262455
C202	C	1.540656	0.425551	0.762455
H203	H	1.133292	-0.228578	0.260765
H204	H	1.633292	0.271422	0.760765
H205	H	1.063828	-0.230324	0.177558
H206	H	1.563828	0.269676	0.677558
H207	H	1.134837	-0.114144	0.177482
H208	H	1.634837	0.385856	0.677482
H209	H	1.002593	-0.128166	0.301606
H210	H	1.502593	0.371834	0.801606
H211	H	1.073663	-0.012088	0.301437
H212	H	1.573663	0.487912	0.801437
H213	H	0.987501	0.013988	0.365623
H214	H	1.487501	0.513988	0.865623
H215	H	0.802369	0.322256	0.634263
H216	H	1.302369	0.822256	1.134263
