data_functionalizedCrystal
_audit_creation_method	'MofGen! by Chris Wilmer'
_symmetry_space_group_name_H-M	'P1'
_symmetry_Int_Tables_number	1
_symmetry_cell_setting	triclinic
loop_
_symmetry_equiv_pos_as_xyz
  x,y,z
_cell_length_a	14.044220
_cell_length_b	9.065218
_cell_length_c	7.540329
_cell_angle_alpha	90.001757
_cell_angle_beta	89.997420
_cell_angle_gamma	90.897619
loop_
_atom_site_label
_atom_site_type_symbol
_atom_site_fract_x
_atom_site_fract_y
_atom_site_fract_z
O1	O	1.260762	-0.356074	-0.147465
O2	O	1.760762	0.143926	0.352535
O3	O	0.984682	-0.343225	-0.147470
O4	O	1.484682	0.156775	0.352530
O5	O	1.128428	-0.135640	-0.147464
O6	O	1.628428	0.364360	0.352536
O7	O	1.117015	-0.563660	-0.147471
O8	O	1.617015	-0.063660	0.352529
O9	O	1.128420	-0.135636	0.147501
O10	O	1.628420	0.364364	0.647501
O11	O	0.984673	-0.343221	0.147495
O12	O	1.484673	0.156779	0.647495
O13	O	1.260753	-0.356071	0.147500
O14	O	1.760753	0.143929	0.647500
Cu15	Cu	1.122712	-0.349646	0.174430
Cu16	Cu	1.622712	0.150354	0.674430
Cu17	Cu	1.122723	-0.349650	-0.174400
Cu18	Cu	1.622723	0.150350	0.325600
O19	O	1.117007	-0.563656	0.147494
O20	O	1.617007	-0.063656	0.647494
C21	C	1.127327	-0.080530	0.000016
C22	C	1.627327	0.419470	0.500016
C23	C	1.124048	0.083677	0.000007
C24	C	1.624048	0.583677	0.500007
C25	C	0.949315	-0.337599	0.000012
C26	C	1.449315	0.162401	0.500012
C27	C	0.843945	-0.320822	0.000010
C28	C	1.343945	0.179178	0.500010
C29	C	1.296120	-0.361697	0.000014
C30	C	1.796120	0.138303	0.500014
C31	C	1.401490	-0.378474	0.000005
C32	C	1.901490	0.121526	0.500005
C33	C	1.594415	-0.409146	0.000006
C34	C	2.094415	0.090854	0.500006
C35	C	1.651026	-0.290157	0.000009
C36	C	2.151026	0.209843	0.500009
C37	C	1.758376	-0.307223	0.000009
C38	C	2.258376	0.192777	0.500009
C39	C	1.487055	-0.392082	0.000005
C40	C	1.987055	0.107918	0.500005
C41	C	1.118108	-0.618766	0.000010
C42	C	1.618108	-0.118766	0.500010
C43	C	1.121388	-0.782972	0.000007
C44	C	1.621388	-0.282972	0.500007
N45	N	1.122712	-0.349642	0.419779
N46	N	1.622712	0.150358	0.919779
N47	N	1.122730	-0.349643	-0.419749
N48	N	1.622730	0.150357	0.080251
H49	H	1.618871	-0.175470	-0.000118
H50	H	2.118871	0.324530	0.499882
Br51	Br	1.648007	-0.600289	-0.000009
Br52	Br	2.148007	-0.100289	0.499991
