data_functionalizedCrystal
_audit_creation_method	'MofGen! by Chris Wilmer'
_symmetry_space_group_name_H-M	'P1'
_symmetry_Int_Tables_number	1
_symmetry_cell_setting	triclinic
loop_
_symmetry_equiv_pos_as_xyz
  x,y,z
_cell_length_a	12.759401
_cell_length_b	12.759394
_cell_length_c	12.759393
_cell_angle_alpha	89.968618
_cell_angle_beta	89.982824
_cell_angle_gamma	90.014998
loop_
_atom_site_label
_atom_site_type_symbol
_atom_site_fract_x
_atom_site_fract_y
_atom_site_fract_z
Zn1	Zn	1.606241	-0.418209	-0.593976
Zn2	Zn	2.106241	0.081791	-0.093976
Zn3	Zn	1.606139	-0.593926	-0.418294
Zn4	Zn	2.106139	-0.093926	0.081706
Zn5	Zn	1.430547	-0.418262	-0.418315
Zn6	Zn	1.930547	0.081738	0.081685
Zn7	Zn	1.430531	-0.593848	-0.593935
Zn8	Zn	1.930531	-0.093848	-0.093935
O9	O	1.518364	-0.506061	-0.506130
O10	O	2.018364	-0.006061	-0.006130
O11	O	1.753248	-0.441529	-0.570679
O12	O	2.253248	0.058471	-0.070679
O13	O	1.582810	-0.570678	-0.271276
O14	O	2.082810	-0.070678	0.228724
O15	O	1.453902	-0.271234	-0.441643
O16	O	1.953902	0.228766	0.058357
O17	O	1.753173	-0.570627	-0.441607
O18	O	2.253173	-0.070627	0.058393
O19	O	1.582984	-0.271195	-0.570700
O20	O	2.082984	0.228805	-0.070700
O21	O	1.453803	-0.441618	-0.271291
O22	O	1.953803	0.058382	0.228709
O23	O	1.283524	-0.441543	-0.441604
O24	O	1.783524	0.058457	0.058396
O25	O	1.453875	-0.570494	-0.740962
O26	O	1.953875	-0.070494	-0.240962
O27	O	1.283512	-0.570545	-0.570631
O28	O	1.783512	-0.070545	-0.070631
O29	O	1.582968	-0.441454	-0.740992
O30	O	2.082968	0.058546	-0.240992
O31	O	1.582795	-0.740936	-0.441567
O32	O	2.082795	-0.240936	0.058433
O33	O	1.453776	-0.740879	-0.570610
O34	O	1.953776	-0.240879	-0.070610
C35	C	1.245397	-0.506042	-0.506116
C36	C	1.745397	-0.006042	-0.006116
C37	C	1.128620	-0.506059	-0.506135
C38	C	1.628620	-0.006059	-0.006135
C39	C	1.518301	-0.779029	-0.506105
C40	C	2.018301	-0.279029	-0.006105
C41	C	1.518370	-0.895805	-0.506129
C42	C	2.018370	-0.395805	-0.006129
C43	C	1.073780	-0.573338	-0.573208
C44	C	1.573780	-0.073338	-0.073208
C45	C	0.964056	-0.573351	-0.573219
C46	C	1.464056	-0.073351	-0.073219
C47	C	0.964022	-0.438803	-0.439075
C48	C	1.464022	0.061197	0.060925
C49	C	1.073744	-0.438786	-0.439070
C50	C	1.573744	0.061214	0.060930
C51	C	1.128655	-0.640611	-0.640273
C52	C	1.628655	-0.140611	-0.140273
C53	C	1.073815	-0.707896	-0.707351
C54	C	1.573815	-0.207896	-0.207351
C55	C	0.964091	-0.707909	-0.707362
C56	C	1.464091	-0.207909	-0.207362
C57	C	0.909207	-0.640637	-0.640296
C58	C	1.409207	-0.140637	-0.140296
C59	C	1.652818	-0.895812	-0.371857
C60	C	2.152818	-0.395812	0.128143
C61	C	1.720069	-0.950676	-0.304734
C62	C	2.220069	-0.450676	0.195266
C63	C	1.720131	-1.060397	-0.304762
C64	C	2.220131	-0.560397	0.195238
C65	C	1.652936	-1.115257	-0.371924
C66	C	2.152936	-0.615257	0.128076
C67	C	1.585685	-1.060393	-0.439047
C68	C	2.085685	-0.560393	0.060953
C69	C	1.585628	-0.950669	-0.439009
C70	C	2.085628	-0.450669	0.060991
C71	C	1.451244	-1.060387	-0.573323
C72	C	1.951244	-0.560387	-0.073323
C73	C	1.451176	-0.950665	-0.573291
C74	C	1.951176	-0.450665	-0.073291
C75	C	1.384050	-1.115247	-0.640484
C76	C	1.884050	-0.615247	-0.140484
C77	C	1.316792	-1.060383	-0.707604
C78	C	1.816792	-0.560383	-0.207604
C79	C	1.316732	-0.950655	-0.707572
C80	C	1.816732	-0.450655	-0.207572
C81	C	1.383925	-0.895801	-0.640414
C82	C	1.883925	-0.395801	-0.140414
C83	C	1.792397	-0.506081	-0.506145
C84	C	2.292397	-0.006081	-0.006145
C85	C	1.909174	-0.506090	-0.506151
C86	C	2.409174	-0.006090	-0.006151
C87	C	1.518431	-0.505959	-0.780164
C88	C	2.018431	-0.005959	-0.280164
C89	C	1.518460	-0.505916	-0.896940
C90	C	2.018460	-0.005916	-0.396940
C91	C	1.518456	-0.232028	-0.506179
C92	C	2.018456	0.267972	-0.006179
C93	C	1.518495	-0.115251	-0.506199
C94	C	2.018495	0.384749	-0.006199
C95	C	1.451264	-0.573076	-0.951789
C96	C	1.951264	-0.073076	-0.451789
C97	C	1.451302	-0.573038	-1.061513
C98	C	1.951302	-0.073038	-0.561513
C99	C	1.585736	-0.438671	-1.061531
C100	C	2.085736	0.061329	-0.561531
C101	C	1.585702	-0.438715	-0.951809
C102	C	2.085702	0.061285	-0.451809
C103	C	1.384021	-0.640277	-0.896920
C104	C	1.884021	-0.140277	-0.396920
C105	C	1.316819	-0.707441	-0.951769
C106	C	1.816819	-0.207441	-0.451769
C107	C	1.316857	-0.707403	-1.061493
C108	C	1.816857	-0.207403	-0.561493
C109	C	1.384098	-0.640201	-1.116369
C110	C	1.884098	-0.140201	-0.616369
C111	C	1.518358	-0.506087	-0.233163
C112	C	2.018358	-0.006087	0.266837
C113	C	1.518533	-0.505834	-0.116387
C114	C	2.018533	-0.005834	0.383613
H115	H	1.217998	-0.640609	-0.640269
H116	H	1.717998	-0.140609	-0.140269
H117	H	1.774781	-0.905999	-0.250053
H118	H	2.274781	-0.405999	0.249947
Cl119	Cl	1.670258	-0.354191	-1.130518
Cl120	Cl	2.170258	0.145809	-0.630518
Cl121	Cl	1.232386	-0.791847	-1.130442
Cl122	Cl	1.732386	-0.291847	-0.630442
H123	H	1.653001	-1.204598	-0.371950
H124	H	2.153001	-0.704598	0.128050
Cl125	Cl	1.653041	-0.757875	-0.372111
Cl126	Cl	2.153041	-0.257875	0.127889
Cl127	Cl	1.804680	-1.129372	-0.220383
Cl128	Cl	2.304680	-0.629372	0.279617
H129	H	1.383876	-0.806460	-0.640375
H130	H	1.883876	-0.306460	-0.140375
H131	H	1.640418	-0.384026	-0.907150
H132	H	2.140418	0.115974	-0.407150
Cl133	Cl	1.383683	-1.253182	-0.640076
Cl134	Cl	1.883683	-0.753182	-0.140076
H135	H	1.262092	-1.105059	-0.762287
H136	H	1.762092	-0.605059	-0.262287
Cl137	Cl	1.232188	-0.881692	-0.791967
Cl138	Cl	1.732188	-0.381692	-0.291967
Cl139	Cl	1.142809	-0.792455	-0.791664
Cl140	Cl	1.642809	-0.292455	-0.291664
H141	H	0.919442	-0.762689	-0.761988
H142	H	1.419442	-0.262689	-0.261988
H143	H	0.819863	-0.640645	-0.640319
H144	H	1.319863	-0.140645	-0.140319
H145	H	1.383981	-0.640314	-0.807577
H146	H	1.883981	-0.140314	-0.307577
H147	H	1.384131	-0.640182	-1.205713
H148	H	1.884131	-0.140182	-0.705713
Cl149	Cl	1.232301	-0.791928	-0.882784
Cl150	Cl	1.732301	-0.291928	-0.382784
H151	H	1.118397	-0.383993	-0.384461
H152	H	1.618397	0.116007	0.115539
Cl153	Cl	0.895025	-0.354242	-0.354766
Cl154	Cl	1.395025	0.145758	0.145234
