data_functionalizedCrystal
_audit_creation_method	'MofGen! by Chris Wilmer'
_symmetry_space_group_name_H-M	'P1'
_symmetry_Int_Tables_number	1
_symmetry_cell_setting	triclinic
loop_
_symmetry_equiv_pos_as_xyz
  x,y,z
_cell_length_a	19.077105
_cell_length_b	18.101395
_cell_length_c	19.076919
_cell_angle_alpha	92.272317
_cell_angle_beta	90.076224
_cell_angle_gamma	87.727498
loop_
_atom_site_label
_atom_site_type_symbol
_atom_site_fract_x
_atom_site_fract_y
_atom_site_fract_z
Zn1	Zn	1.058231	-0.358271	-0.440421
Zn2	Zn	1.062857	-0.477344	-0.322915
Zn3	Zn	0.945450	-0.348351	-0.318214
Zn4	Zn	0.940679	-0.476897	-0.435668
O5	O	1.001804	-0.415216	-0.379305
O6	O	1.157176	-0.378405	-0.428790
O7	O	1.051216	-0.456268	-0.223960
O8	O	0.960470	-0.246037	-0.334447
O9	O	1.160575	-0.465887	-0.342459
O10	O	1.043330	-0.253326	-0.424232
O11	O	0.964957	-0.361497	-0.220507
O12	O	0.846486	-0.361064	-0.329838
O13	O	0.952340	-0.465126	-0.534630
O14	O	0.842981	-0.455506	-0.416131
O15	O	1.038704	-0.377972	-0.538122
O16	O	1.046590	-0.580914	-0.337850
O17	O	0.956826	-0.580586	-0.420689
C18	C	0.819237	-0.407161	-0.371959
C19	C	0.741133	-0.403733	-0.368833
C20	C	0.702636	-0.451363	-0.412222
C21	C	0.629249	-0.448133	-0.409288
C22	C	0.594361	-0.397276	-0.362962
C23	C	0.632863	-0.349642	-0.319571
C24	C	0.706248	-0.352869	-0.322509
C25	C	0.375075	-0.382341	-0.349369
C26	C	0.301684	-0.379119	-0.346433
C27	C	0.298076	-0.477610	-0.436152
C28	C	0.371463	-0.480836	-0.439082
C29	C	0.409959	-0.433198	-0.395694
N30	N	0.519348	-0.393975	-0.359960
N31	N	0.484970	-0.436497	-0.398700
C32	C	1.001711	-0.607621	-0.379280
C33	C	1.001735	-0.689937	-0.379296
C34	C	1.001887	-0.989036	-0.379340
C35	C	0.945531	-0.957547	-0.431600
C36	C	0.945280	-0.871910	-0.431419
C37	C	1.001811	-0.840650	-0.379319
C38	C	0.984741	-0.867911	-0.304458
C39	C	0.984379	-0.953554	-0.304770
C40	C	1.075459	-0.961424	-0.401293
C41	C	1.074956	-0.875820	-0.402900
C42	C	1.001770	-0.756788	-0.379302
C43	C	1.001927	-1.072898	-0.379351
C44	C	1.185084	-0.423303	-0.386679
C45	C	1.263188	-0.426749	-0.389822
C46	C	0.994474	-0.422606	-0.562585
C47	C	0.991350	-0.425755	-0.640688
C48	C	1.001916	-0.222060	-0.379345
C49	C	1.001964	-0.139749	-0.379363
C50	C	1.034846	-0.381860	-0.679200
C51	C	1.031902	-0.384816	-0.752586
C52	C	0.985466	-0.431671	-0.787458
C53	C	0.941966	-0.475568	-0.748941
C54	C	0.944906	-0.472608	-0.675556
C55	C	0.971847	-0.445387	-1.006740
C56	C	0.968911	-0.448346	-1.080130
C57	C	1.058847	-0.357593	-1.083770
C58	C	1.061786	-0.354640	-1.010384
C59	C	1.018283	-0.398533	-0.971872
N60	N	0.982458	-0.434696	-0.862471
N61	N	1.021289	-0.395505	-0.896861
C62	C	1.009146	-0.407803	-0.196739
C63	C	1.012406	-0.404451	-0.118642
H64	H	0.731037	-0.492778	-0.449944
C65	C	0.923987	-0.493674	-0.964398
C66	C	0.843707	-0.484504	-0.971298
C67	C	0.795839	-0.532795	-0.928961
C68	C	0.828251	-0.590256	-0.879723
C69	C	0.908534	-0.599429	-0.872821
C70	C	0.956402	-0.551138	-0.915159
H71	H	0.819711	-0.441966	-1.007749
H72	H	0.736408	-0.526005	-0.934070
H73	H	0.792816	-0.626004	-0.848382
H74	H	0.932530	-0.641967	-0.836370
H75	H	1.015833	-0.557929	-0.910049
H76	H	0.955615	-0.853628	-0.486834
H77	H	1.099601	-0.316487	-0.981996
C78	C	0.263305	-0.323172	-0.295473
C79	C	0.182584	-0.319630	-0.292239
C80	C	0.144204	-0.263687	-0.241280
C81	C	0.186546	-0.211287	-0.193555
C82	C	0.267271	-0.214827	-0.196787
C83	C	0.305651	-0.270769	-0.247746
H84	H	0.151236	-0.358421	-0.327569
H85	H	0.084446	-0.261067	-0.238887
H86	H	0.158135	-0.169875	-0.155832
H87	H	0.298619	-0.176035	-0.161457
H88	H	0.365410	-0.273390	-0.250138
C89	C	0.897064	-0.520894	-0.633187
C90	C	0.816782	-0.511735	-0.640056
C91	C	0.768937	-0.560020	-0.597687
C92	C	0.801375	-0.617465	-0.548448
C93	C	0.881661	-0.626627	-0.541576
C94	C	0.929506	-0.578341	-0.583946
H95	H	0.792766	-0.469209	-0.676508
H96	H	0.709503	-0.553238	-0.602774
H97	H	0.765957	-0.653208	-0.517083
H98	H	0.905677	-0.669153	-0.505125
H99	H	0.988940	-0.585124	-0.578859
C100	C	0.409838	-0.536773	-0.490048
C101	C	0.367493	-0.589162	-0.537781
C102	C	0.405868	-0.645101	-0.588747
C103	C	0.486589	-0.648650	-0.591980
C104	C	0.528939	-0.596260	-0.544245
C105	C	0.490564	-0.540321	-0.493280
H106	H	0.307734	-0.586536	-0.535389
H107	H	0.374517	-0.683884	-0.624083
H108	H	0.514997	-0.690059	-0.629708
H109	H	0.588698	-0.598886	-0.546637
H110	H	0.521915	-0.501538	-0.457943
C111	C	1.134362	-0.847411	-0.355548
C112	C	1.210710	-0.874883	-0.369373
C113	C	1.270114	-0.846475	-0.322013
C114	C	1.253171	-0.790596	-0.260830
C115	C	1.176820	-0.763122	-0.247002
C116	C	1.117415	-0.791529	-0.294361
H117	H	1.223255	-0.916250	-0.414667
H118	H	1.326634	-0.866814	-0.332250
H119	H	1.297145	-0.769568	-0.225772
H120	H	1.164274	-0.721754	-0.201708
H121	H	1.060895	-0.771190	-0.284125
H122	H	1.117410	-0.981841	-0.363267
H123	H	1.091602	-0.985932	-0.455108
C124	C	1.085927	-0.330318	-0.640844
C125	C	1.079835	-0.246286	-0.650721
C126	C	1.130915	-0.194741	-0.612366
C127	C	1.188088	-0.227227	-0.564135
C128	C	1.194182	-0.311263	-0.554255
C129	C	1.143102	-0.362809	-0.592609
H130	H	1.037510	-0.222234	-0.686427
H131	H	1.126403	-0.132532	-0.619680
H132	H	1.225901	-0.189070	-0.535742
H133	H	1.236507	-0.335316	-0.518549
H134	H	1.147614	-0.425018	-0.585296
H135	H	1.094263	-0.321856	-1.115133
H136	H	0.930687	-0.970551	-0.286519
C137	C	0.872221	-0.982764	-0.411868
C138	C	0.813359	-0.924903	-0.392516
C139	C	0.740052	-0.950122	-0.372781
C140	C	0.725605	-1.033203	-0.372398
C141	C	0.784469	-1.091069	-0.391752
C142	C	0.857777	-1.065850	-0.411487
H143	H	0.824052	-0.863397	-0.392798
H144	H	0.696477	-0.907285	-0.358454
H145	H	0.671339	-1.051871	-0.357789
H146	H	0.773776	-1.152575	-0.391470
H147	H	0.901351	-1.108687	-0.425814
C148	C	0.748599	-0.300476	-0.274782
C149	C	0.738312	-0.216092	-0.280257
C150	C	0.780662	-0.163694	-0.232533
C151	C	0.833301	-0.195679	-0.179333
C152	C	0.843591	-0.280067	-0.173855
C153	C	0.801240	-0.332465	-0.221580
H154	H	0.699344	-0.192410	-0.319641
H155	H	0.773045	-0.101224	-0.236588
H156	H	0.864651	-0.156891	-0.144004
H157	H	0.882559	-0.303749	-0.134471
H158	H	0.808857	-0.394935	-0.217524
H159	H	1.024629	-0.847532	-0.264328
H160	H	0.955734	-0.980878	-0.487188
H161	H	0.266725	-0.516393	-0.471476
H162	H	1.067323	-0.349074	-0.783940
C163	C	0.417407	-0.329954	-0.301623
C164	C	0.407115	-0.245568	-0.307073
C165	C	0.449447	-0.193183	-0.259316
C166	C	0.502070	-0.225184	-0.206110
C167	C	0.512363	-0.309575	-0.200658
C168	C	0.470032	-0.361960	-0.248414
H169	H	0.368159	-0.221875	-0.346462
H170	H	0.441827	-0.130711	-0.263353
H171	H	0.533406	-0.186405	-0.170758
H172	H	0.551320	-0.333268	-0.161269
H173	H	0.477652	-0.424431	-0.244378
C174	C	0.917849	-0.499913	-1.118492
C175	C	0.870014	-0.548214	-1.076134
C176	C	0.818969	-0.599793	-1.114497
C177	C	0.815760	-0.603071	-1.195218
C178	C	0.863596	-0.554769	-1.237581
C179	C	0.914641	-0.503190	-1.199218
H180	H	0.872389	-0.545788	-1.016375
H181	H	0.783557	-0.635549	-1.083137
H182	H	0.777973	-0.641253	-1.223617
H183	H	0.861222	-0.557194	-1.297340
H184	H	0.950053	-0.467434	-1.230578
H185	H	0.604451	-0.308230	-0.281854
C186	C	0.871530	-0.840347	-0.411451
C187	C	0.839465	-0.857123	-0.340052
C188	C	0.765712	-0.825561	-0.320082
C189	C	0.724024	-0.777225	-0.371510
C190	C	0.756089	-0.760447	-0.442914
C191	C	0.829842	-0.792008	-0.462884
H192	H	0.870325	-0.892907	-0.301978
H193	H	0.741975	-0.837982	-0.267224
H194	H	0.669427	-0.753861	-0.356727
H195	H	0.725229	-0.724663	-0.480988
H196	H	0.853578	-0.779588	-0.515742
C197	C	1.037626	-0.981492	-0.250144
C198	C	1.080340	-0.925871	-0.206376
C199	C	1.133577	-0.953805	-0.151744
C200	C	1.144102	-1.037358	-0.140880
C201	C	1.101387	-1.092984	-0.184650
C202	C	1.048149	-1.065051	-0.239282
H203	H	1.072550	-0.864015	-0.214417
H204	H	1.165197	-0.912627	-0.119343
H205	H	1.183511	-1.058036	-0.100438
H206	H	1.109176	-1.154840	-0.176609
H207	H	1.016529	-1.106229	-0.271683
H208	H	0.597908	-0.486918	-0.444619
H209	H	0.931637	-0.843494	-0.285943
H210	H	1.087883	-0.858335	-0.458008
H211	H	0.904154	-0.513715	-0.777340
