data_functionalizedCrystal
_audit_creation_method	'MofGen! by Chris Wilmer'
_symmetry_space_group_name_H-M	'P1'
_symmetry_Int_Tables_number	1
_symmetry_cell_setting	triclinic
loop_
_symmetry_equiv_pos_as_xyz
  x,y,z
_cell_length_a	17.038272
_cell_length_b	14.044220
_cell_length_c	12.503572
_cell_angle_alpha	86.156832
_cell_angle_beta	93.767800
_cell_angle_gamma	92.150217
loop_
_atom_site_label
_atom_site_type_symbol
_atom_site_fract_x
_atom_site_fract_y
_atom_site_fract_z
O1	O	-1.055991	-0.201858	-0.089189
O2	O	-0.828132	-0.198570	-0.089221
O3	O	-0.938641	-0.061954	-0.089195
O4	O	-0.945483	-0.338474	-0.089215
O5	O	-0.930332	-0.072247	0.089445
O6	O	-0.819823	-0.208862	0.089419
O7	O	-1.047682	-0.212151	0.089451
Cu8	Cu	-0.932993	-0.211446	0.105746
Cu9	Cu	-0.942821	-0.199274	-0.105516
O10	O	-0.937173	-0.348766	0.089425
C11	C	-0.794640	-0.200726	0.000095
C12	C	-0.707224	-0.191806	0.000084
C13	C	-0.931492	-0.031545	0.000125
C14	C	-0.922561	0.074401	0.000125
C15	C	-1.081174	-0.209994	0.000132
C16	C	-1.168591	-0.218914	0.000137
C17	C	-0.662839	-0.273694	0.000078
C18	C	-0.580701	-0.265309	0.000094
C19	C	-0.542950	-0.175035	0.000107
C20	C	-0.587341	-0.093141	0.000115
C21	C	-0.669477	-0.101527	0.000107
C22	C	-0.295118	-0.145406	0.000138
C23	C	-0.212976	-0.137026	0.000142
C24	C	-0.206341	-0.309195	0.000123
C25	C	-0.288479	-0.317574	0.000109
C26	C	-0.332863	-0.235680	0.000123
C27	C	-0.458992	-0.166461	0.000119
C28	C	-0.416819	-0.244255	0.000118
C29	C	-0.944322	-0.379176	0.000102
C30	C	-0.953254	-0.485122	0.000095
N31	N	-0.926087	-0.220008	0.254337
C32	C	-0.906233	0.268380	0.000108
C33	C	-0.969578	0.320905	0.000113
C34	C	-0.960493	0.428842	0.000103
C35	C	-0.915317	0.160434	0.000117
N36	N	-0.949733	-0.190706	-0.254107
C37	C	-0.915929	-0.232609	0.473450
C38	C	-0.959889	-0.178107	0.526787
C39	C	-0.954236	-0.185119	0.648709
C40	C	-0.921580	-0.225599	0.351517
H41	H	-0.693569	-0.347206	0.000067
F42	F	-0.826436	0.315556	0.000091
H43	H	-0.874051	-0.284533	0.519347
F44	F	-0.533466	-0.352466	0.000084
F45	F	-0.328651	-0.413656	0.000089
F46	F	-0.159099	-0.396346	0.000110
F47	F	-0.172800	-0.040940	0.000175
F48	F	-0.716715	-0.014371	0.000117
F49	F	-1.049381	0.273729	0.000132
H50	H	-1.001770	-0.126182	0.480884
H51	H	-0.556597	-0.019638	0.000141
F52	F	-0.342344	-0.058247	0.000152
F53	F	-0.456998	-0.340329	0.000109
H54	H	-0.428245	-0.092961	0.000160
