data_functionalizedCrystal
_audit_creation_method	'MofGen! by Chris Wilmer'
_symmetry_space_group_name_H-M	'P1'
_symmetry_Int_Tables_number	1
_symmetry_cell_setting	triclinic
loop_
_symmetry_equiv_pos_as_xyz
  x,y,z
_cell_length_a	10.723023
_cell_length_b	10.723022
_cell_length_c	7.540329
_cell_angle_alpha	89.997572
_cell_angle_beta	89.997180
_cell_angle_gamma	84.467387
loop_
_atom_site_label
_atom_site_type_symbol
_atom_site_fract_x
_atom_site_fract_y
_atom_site_fract_z
O1	O	1.657185	0.175021	-0.147473
O2	O	1.294033	0.191775	-0.147477
O3	O	1.483987	0.001822	-0.147468
O4	O	1.467232	0.364974	-0.147481
O5	O	1.483975	0.001819	0.147497
O6	O	1.294022	0.191773	0.147488
O7	O	1.657174	0.175018	0.147492
Cu8	Cu	1.475597	0.183395	0.174423
Cu9	Cu	1.475610	0.183398	-0.174407
O10	O	1.467220	0.364972	0.147484
C11	C	1.247528	0.190555	0.000005
C12	C	1.108973	0.186908	0.000004
C13	C	1.482762	-0.044679	0.000012
C14	C	1.479115	-0.183233	0.000006
C15	C	0.903999	0.181511	0.152798
C16	C	1.047202	0.185281	0.152803
C17	C	1.369575	-0.231794	0.000002
C18	C	1.365804	-0.374997	-0.000005
C19	C	1.703679	0.176239	0.000006
C20	C	1.842234	0.179886	-0.000004
C21	C	1.468445	0.411473	-0.000001
C22	C	1.472092	0.550027	-0.000006
N23	N	1.475596	0.183393	0.419771
N24	N	1.475620	0.183391	-0.419756
H25	H	1.100320	0.186672	0.283622
C26	C	1.602042	-0.270273	0.000007
H27	H	1.671256	-0.221236	0.000022
H28	H	1.605365	-0.321632	-0.102853
H29	H	1.605354	-0.321634	0.102882
C30	C	1.239100	-0.431471	-0.000008
H31	H	1.253187	-0.520310	-0.000000
H32	H	1.192975	-0.404472	-0.102865
H33	H	1.192975	-0.404485	0.102869
H34	H	1.565884	-0.408170	-0.000068
H35	H	1.055865	0.185507	-0.130822
C36	C	0.832233	0.179623	0.329529
H37	H	0.889553	0.181141	0.425396
H38	H	0.790331	0.105645	0.336125
H39	H	0.772552	0.250943	0.336112
C40	C	0.913999	0.181781	-0.176735
H41	H	0.856677	0.180282	-0.272602
H42	H	0.973688	0.110477	-0.183326
H43	H	0.955890	0.255775	-0.183323
H44	H	1.278587	-0.167352	0.000012
