data_functionalizedCrystal
_audit_creation_method	'MofGen! by Chris Wilmer'
_symmetry_space_group_name_H-M	'P1'
_symmetry_Int_Tables_number	1
_symmetry_cell_setting	triclinic
loop_
_symmetry_equiv_pos_as_xyz
  x,y,z
_cell_length_a	13.330367
_cell_length_b	11.026607
_cell_length_c	11.026607
_cell_angle_alpha	71.413983
_cell_angle_beta	90.000887
_cell_angle_gamma	89.990177
loop_
_atom_site_label
_atom_site_type_symbol
_atom_site_fract_x
_atom_site_fract_y
_atom_site_fract_z
O1	O	-0.083421	-1.726705	0.533608
O2	O	-0.083423	-1.360125	0.472845
O3	O	-0.083418	-1.513033	0.319937
O4	O	-0.083425	-1.573796	0.686517
O5	O	0.083429	-1.513072	0.319957
O6	O	0.083424	-1.360164	0.472865
O7	O	0.083426	-1.726744	0.533629
Cu8	Cu	0.098660	-1.543457	0.503249
Cu9	Cu	-0.098656	-1.543411	0.503225
O10	O	0.083422	-1.573836	0.686537
C11	C	0.000001	-1.312485	0.461645
C12	C	0.000000	-1.170471	0.428228
N13	N	-0.237438	-1.543377	0.503198
C14	C	0.000004	-1.501843	0.272287
C15	C	0.000000	-1.468426	0.130273
C16	C	-0.710063	-1.475574	0.570758
C17	C	-0.710027	-1.611398	0.435763
C18	C	-0.605008	-1.611376	0.435750
C19	C	-0.552512	-1.543451	0.503240
C20	C	-0.605034	-1.475548	0.570743
C21	C	-0.552478	-1.679268	0.368237
C22	C	-0.447454	-1.679248	0.368220
C23	C	-0.394956	-1.611330	0.435719
C24	C	-0.447484	-1.543425	0.503226
C25	C	-0.394988	-1.475500	0.570716
C26	C	-0.447515	-1.407602	0.638231
C27	C	-0.552536	-1.407630	0.638242
C28	C	-0.289934	-1.611302	0.435708
C29	C	-0.289960	-1.475474	0.570702
N30	N	0.237441	-1.543499	0.503268
C31	C	0.000001	-1.774384	0.544828
C32	C	-0.000005	-1.916398	0.578245
C33	C	-0.000002	-1.116821	0.520498
C34	C	-0.000003	-0.970043	0.485962
C35	C	-0.000001	-1.560695	0.076624
C36	C	-0.000005	-1.526160	-0.070155
C37	C	-0.000003	-1.585026	0.734187
C38	C	-0.000006	-1.618443	0.876200
H39	H	-0.247224	-1.420166	0.625666
O40	O	-0.000004	-1.199900	0.659010
H41	H	-0.000010	-1.302149	0.664400
O42	O	-0.766699	-1.402338	0.643578
H43	H	-0.746559	-1.299454	0.605399
O44	O	-0.000009	-1.387642	-0.153233
H45	H	0.067993	-1.339559	-0.132562
O46	O	-0.766640	-1.684604	0.362918
H47	H	-0.848492	-1.673199	0.374253
H48	H	-0.000027	-0.907314	0.381393
H49	H	-0.000001	-0.979125	0.682816
O50	O	-0.609093	-1.752454	0.295374
H51	H	-0.690946	-1.741051	0.306715
H52	H	-0.000024	-1.107738	0.323666
H53	H	0.000006	-1.665258	0.139357
H54	H	-0.000081	-1.723013	-0.061072
H55	H	-0.000007	-1.363863	0.067540
H56	H	-0.404693	-1.734536	0.313248
H57	H	-0.595310	-1.352348	0.693209
O58	O	-0.390892	-1.334344	0.711029
H59	H	-0.309041	-1.345742	0.699675
H60	H	-0.247172	-1.666577	0.380731
