data_functionalizedCrystal
_audit_creation_method	'MofGen! by Chris Wilmer'
_symmetry_space_group_name_H-M	'P1'
_symmetry_Int_Tables_number	1
_symmetry_cell_setting	triclinic
loop_
_symmetry_equiv_pos_as_xyz
  x,y,z
_cell_length_a	16.974800
_cell_length_b	12.837942
_cell_length_c	16.053802
_cell_angle_alpha	92.838962
_cell_angle_beta	91.074188
_cell_angle_gamma	89.097746
loop_
_atom_site_label
_atom_site_type_symbol
_atom_site_fract_x
_atom_site_fract_y
_atom_site_fract_z
O1	O	1.059003	0.132168	0.002153
O2	O	1.392337	0.465501	0.335486
O3	O	1.725670	0.798835	0.668819
O4	O	0.830734	0.148040	-0.013279
O5	O	1.164067	0.481373	0.320055
O6	O	1.497400	0.814706	0.653388
O7	O	0.939807	-0.010813	-0.005900
O8	O	1.273140	0.322521	0.327433
O9	O	1.606473	0.655854	0.660767
O10	O	0.949930	0.291020	-0.005226
O11	O	1.283264	0.624354	0.328107
O12	O	1.616597	0.957687	0.661441
O13	O	0.933800	-0.002105	0.132553
O14	O	1.267134	0.331228	0.465886
O15	O	1.600467	0.664562	0.799219
O16	O	0.824727	0.156747	0.125174
O17	O	1.158061	0.490081	0.458507
O18	O	1.491394	0.823414	0.791841
O19	O	1.052997	0.140875	0.140605
O20	O	1.386330	0.474209	0.473939
O21	O	1.719664	0.807542	0.807272
Zn22	Zn	0.937909	0.150194	0.154872
Zn23	Zn	1.271242	0.483527	0.488205
Zn24	Zn	1.604575	0.816861	0.821539
Zn25	Zn	0.945822	0.138721	-0.027545
Zn26	Zn	1.279156	0.472055	0.305788
Zn27	Zn	1.612489	0.805388	0.639121
O28	O	0.943924	0.299728	0.133227
O29	O	1.277257	0.633061	0.466560
O30	O	1.610591	0.966394	0.799893
C31	C	0.798310	0.151630	0.053959
C32	C	1.131644	0.484964	0.387292
C33	C	1.464977	0.818297	0.720626
C34	C	0.710646	0.149344	0.048033
C35	C	1.043979	0.482678	0.381366
C36	C	1.377312	0.816011	0.714700
C37	C	0.666191	0.153014	0.120721
C38	C	0.999525	0.486347	0.454055
C39	C	1.332858	0.819681	0.787388
C40	C	0.583822	0.150849	0.115155
C41	C	0.917155	0.484183	0.448489
C42	C	1.250488	0.817516	0.781822
C43	C	0.545908	0.145022	0.036901
C44	C	0.879241	0.478356	0.370234
C45	C	1.212574	0.811689	0.703567
C46	C	0.590368	0.141349	-0.035793
C47	C	0.923702	0.474682	0.297540
C48	C	1.257035	0.808016	0.630873
C49	C	0.672737	0.143506	-0.030227
C50	C	1.006070	0.476840	0.303107
C51	C	1.339403	0.810173	0.636440
C52	C	0.299914	0.138055	0.012159
C53	C	0.633247	0.471388	0.345493
C54	C	0.966581	0.804721	0.678826
C55	C	0.217540	0.135901	0.006598
C56	C	0.550873	0.469234	0.339931
C57	C	0.884206	0.802567	0.673265
C58	C	0.210999	0.145399	0.157548
C59	C	0.544332	0.478733	0.490881
C60	C	0.877665	0.812066	0.824214
C61	C	0.293369	0.147562	0.163107
C62	C	0.626702	0.480896	0.496441
C63	C	0.960035	0.814229	0.829774
C64	C	0.337822	0.143884	0.090413
C65	C	0.671156	0.477217	0.423747
C66	C	1.004489	0.810550	0.757080
N67	N	0.461713	0.142813	0.031210
N68	N	0.795046	0.476146	0.364543
N69	N	1.128379	0.809480	0.697876
N70	N	0.422016	0.146086	0.096105
N71	N	0.755349	0.479419	0.429439
N72	N	1.088683	0.812752	0.762772
C73	C	0.933384	-0.045089	0.063095
C74	C	1.266717	0.288245	0.396428
C75	C	1.600050	0.621578	0.729761
C76	C	0.923184	-0.160194	0.062404
C77	C	1.256518	0.173139	0.395737
C78	C	1.589851	0.506473	0.729070
C79	C	1.045801	-0.400816	0.070675
C80	C	1.379134	-0.067483	0.404009
C81	C	1.712468	0.265851	0.737342
C82	C	1.036221	-0.508968	0.070026
C83	C	1.369555	-0.175635	0.403360
C84	C	1.702888	0.157698	0.736693
C85	C	0.894447	-0.484653	0.060451
C86	C	1.227780	-0.151320	0.393784
C87	C	1.561113	0.182013	0.727118
C88	C	0.904026	-0.376501	0.061100
C89	C	1.237360	-0.043168	0.394433
C90	C	1.570693	0.290166	0.727767
C91	C	0.979706	-0.334587	0.066214
C92	C	1.313039	-0.001253	0.399547
C93	C	1.646372	0.332080	0.732880
C94	C	0.989284	-0.226432	0.066868
C95	C	1.322618	0.106902	0.400202
C96	C	1.655951	0.440235	0.733535
C97	C	0.847510	-0.202119	0.057287
C98	C	1.180844	0.131214	0.390620
C99	C	1.514177	0.464547	0.723954
C100	C	0.837931	-0.310272	0.056638
C101	C	1.171264	0.023062	0.389971
C102	C	1.504598	0.356395	0.723305
C103	C	1.085421	0.137285	0.073366
C104	C	1.418754	0.470618	0.406699
C105	C	1.752087	0.803951	0.740033
C106	C	1.173085	0.139571	0.079286
C107	C	1.506419	0.472904	0.412620
C108	C	1.839752	0.806237	0.745953
C109	C	0.950347	0.334004	0.064230
C110	C	1.283680	0.667337	0.397564
C111	C	1.617014	1.000671	0.730897
C112	C	0.960547	0.449109	0.064916
C113	C	1.293880	0.782442	0.398249
C114	C	1.627213	1.115776	0.731582
N115	N	0.932513	0.158023	0.279367
N116	N	1.265847	0.491356	0.612701
N117	N	1.599180	0.824690	0.946034
N118	N	0.951223	0.130884	-0.152040
N119	N	1.284556	0.464217	0.181293
N120	N	1.617890	0.797551	0.514626
C121	C	0.978945	0.090455	0.326202
C122	C	1.312278	0.423789	0.659536
C123	C	1.645611	0.757122	0.992869
C124	C	0.975179	0.095942	0.413354
C125	C	1.308512	0.429275	0.746688
C126	C	1.641845	0.762608	1.080021
C127	C	0.924985	0.169002	0.453670
C128	C	1.258318	0.502335	0.787003
C129	C	1.591652	0.835668	1.120337
C130	C	0.878549	0.236572	0.406829
C131	C	1.211882	0.569906	0.740162
C132	C	1.545215	0.903239	1.073495
C133	C	0.882311	0.231080	0.319678
C134	C	1.215644	0.564414	0.653011
C135	C	1.548978	0.897747	0.986345
C136	C	0.908549	0.192963	0.713968
C137	C	1.241882	0.526296	1.047301
C138	C	1.575215	0.859629	1.380634
C139	C	0.904792	0.198452	0.801125
C140	C	1.238125	0.531785	1.134458
C141	C	1.571458	0.865118	1.467792
C142	C	1.001421	0.057819	0.807644
C143	C	1.334754	0.391152	1.140978
C144	C	1.668088	0.724486	1.474311
C145	C	1.005182	0.052338	0.720492
C146	C	1.338516	0.385671	1.053825
C147	C	1.671849	0.719004	1.387159
C148	C	0.958743	0.119905	0.673658
C149	C	1.292076	0.453238	1.006991
C150	C	1.625410	0.786571	1.340325
N151	N	0.921136	0.174614	0.542753
N152	N	1.254470	0.507947	0.876087
N153	N	1.587803	0.841280	1.209420
N154	N	0.962588	0.114287	0.584576
N155	N	1.295921	0.447620	0.917909
N156	N	1.629255	0.780954	1.251243
H157	H	0.186673	0.131158	-0.057130
H158	H	0.520006	0.464492	0.276204
H159	H	0.853340	0.797825	0.609537
H160	H	1.012986	0.040922	0.451487
H161	H	1.346319	0.374255	0.784820
H162	H	1.679653	0.707589	1.118154
H163	H	0.776315	-0.344414	0.052472
H164	H	1.109648	-0.011081	0.385805
H165	H	1.442981	0.322253	0.719138
H166	H	1.046054	-0.007153	0.687669
H167	H	1.379387	0.326180	1.021002
H168	H	1.712721	0.659513	1.354336
H169	H	0.870737	0.247980	0.675842
H170	H	1.204071	0.581314	1.009176
H171	H	1.537404	0.914647	1.342509
H172	H	0.863916	0.257950	0.833945
H173	H	1.197249	0.591284	1.167279
H174	H	1.530583	0.924617	1.500612
H175	H	1.039229	0.002808	0.845784
H176	H	1.372562	0.336141	1.179118
H177	H	1.705896	0.669475	1.512451
H178	H	0.844501	0.286100	0.281545
H179	H	1.177834	0.619433	0.614879
H180	H	1.511167	0.952766	0.948212
H181	H	1.090043	-0.562890	0.073657
H182	H	1.423377	-0.229556	0.406990
H183	H	1.756710	0.103777	0.740324
H184	H	0.837676	0.296056	0.439658
H185	H	1.171009	0.629389	0.772992
H186	H	1.504342	0.962723	1.106325
H187	H	0.324232	0.152303	0.226831
H188	H	0.657566	0.485636	0.560164
H189	H	0.990899	0.818969	0.893497
H190	H	0.547631	0.153821	0.174346
H191	H	0.880964	0.487154	0.507680
H192	H	1.214297	0.820487	0.841013
H193	H	0.697054	0.157768	0.184445
H194	H	1.030388	0.491101	0.517778
H195	H	1.363721	0.824434	0.851112
H196	H	0.832832	-0.518800	0.056279
H197	H	1.166165	-0.185467	0.389612
H198	H	1.499499	0.147866	0.722945
H199	H	0.174796	0.148393	0.216731
H200	H	0.508129	0.481726	0.550064
H201	H	0.841463	0.815059	0.883397
H202	H	0.793691	-0.148183	0.053661
H203	H	1.127024	0.185151	0.386994
H204	H	1.460357	0.518484	0.720327
H205	H	0.559493	0.136597	-0.099510
H206	H	0.892826	0.469930	0.233823
H207	H	1.226159	0.803264	0.567156
H208	H	0.336098	0.135056	-0.047033
H209	H	0.669432	0.468389	0.286300
H210	H	1.002765	0.801722	0.619633
H211	H	1.019821	0.030967	0.293383
H212	H	1.353154	0.364300	0.626717
H213	H	1.686488	0.697633	0.960050
H214	H	0.708931	0.140520	-0.089417
H215	H	1.042264	0.473853	0.243916
H216	H	1.375597	0.807186	0.577249
H217	H	1.107422	-0.366688	0.074847
H218	H	1.440755	-0.033355	0.408180
H219	H	1.774088	0.299978	0.741514
H220	H	1.050906	-0.192307	0.071035
H221	H	1.384240	0.141026	0.404369
H222	H	1.717573	0.474360	0.737702
