data_functionalizedCrystal
_audit_creation_method	'MofGen! by Chris Wilmer'
_symmetry_space_group_name_H-M	'P1'
_symmetry_Int_Tables_number	1
_symmetry_cell_setting	triclinic
loop_
_symmetry_equiv_pos_as_xyz
  x,y,z
_cell_length_a	10.540539
_cell_length_b	9.016244
_cell_length_c	10.540514
_cell_angle_alpha	89.999048
_cell_angle_beta	84.520326
_cell_angle_gamma	90.005301
loop_
_atom_site_label
_atom_site_type_symbol
_atom_site_fract_x
_atom_site_fract_y
_atom_site_fract_z
O1	O	1.685877	0.123259	0.178897
O2	O	1.316462	0.123276	0.195753
O3	O	1.509614	0.123269	0.002617
O4	O	1.492725	0.123266	0.372034
O5	O	1.509586	-0.123412	0.002621
O6	O	1.316434	-0.123404	0.195758
O7	O	1.685848	-0.123422	0.178901
Cu8	Cu	1.501139	-0.145937	0.187330
Cu9	Cu	1.501172	0.145792	0.187325
O10	O	1.492696	-0.123415	0.372038
C11	C	1.269145	-0.000062	0.194491
C12	C	1.128197	-0.000055	0.190709
N13	N	1.501124	-0.351123	0.187333
C14	C	0.944784	-0.000629	0.045791
C15	C	1.091402	-0.000058	0.049624
C16	C	1.066535	0.140806	0.258603
C17	C	0.919991	0.140909	0.253788
C18	C	0.919470	-0.139613	0.256663
C19	C	1.066452	-0.141460	0.257962
C20	C	1.397484	-0.586152	0.290301
C21	C	1.397713	-0.414261	0.290687
C22	C	1.633844	-0.413468	0.217467
C23	C	1.633279	-0.585413	0.218196
C24	C	1.473362	-0.585664	0.053893
C25	C	1.470317	-0.413710	0.054758
C26	C	1.733166	-0.000080	0.180163
C27	C	1.874113	-0.000078	0.183945
C28	C	1.508340	-0.000067	-0.044685
C29	C	1.504571	-0.000056	-0.185634
N30	N	1.501197	0.350978	0.187312
C31	C	1.642711	-0.000066	-0.256340
C32	C	1.638837	-0.000636	-0.402953
C33	C	1.429428	-0.140657	-0.377967
C34	C	1.434282	-0.140766	-0.231428
C35	C	1.432270	0.139767	-0.231034
C36	C	1.430937	0.141604	-0.378013
C37	C	1.493970	-0.000075	0.419339
C38	C	1.497740	-0.000076	0.560289
H39	H	1.134009	-0.101033	-0.003797
H40	H	1.415141	-0.629347	0.388726
H41	H	0.891797	0.246204	0.203605
H42	H	1.378628	-0.629107	0.025213
H43	H	1.328096	0.150523	-0.402208
H44	H	1.372681	-0.372963	0.031917
Br45	Br	1.137540	0.315540	0.179994
H46	H	1.712927	-0.626998	0.146205
Br47	Br	1.673857	-0.652243	0.380432
Br48	Br	1.232590	-0.655091	0.260527
Br49	Br	1.134533	-0.315149	0.175151
Br50	Br	0.897124	-0.169005	-0.047108
Br51	Br	1.587891	-0.342108	-0.079123
H52	H	0.872013	0.147301	0.355254
H53	H	1.712906	-0.372567	0.144502
Br54	Br	1.728380	0.167290	-0.474085
Br55	Br	1.736138	0.167946	-0.208791
H56	H	0.887915	-0.246385	0.211006
Br57	Br	1.106801	-0.155639	0.429411
Br58	Br	1.160970	0.168826	-0.039649
H59	H	1.088879	0.146046	0.362212
H60	H	1.697956	-0.100662	-0.226020
Br61	Br	0.840745	-0.141202	0.426511
H62	H	1.332807	-0.146756	-0.183422
H63	H	1.658734	-0.370392	0.313705
H64	H	1.692312	-0.102010	-0.444681
H65	H	1.330371	0.141116	-0.183794
Br66	Br	1.233324	-0.344001	0.260555
H67	H	1.484149	-0.246260	-0.203200
Br68	Br	1.256697	-0.148709	-0.415149
H69	H	1.415603	-0.373116	0.389672
H70	H	0.914593	0.099828	-0.009712
Br71	Br	1.599397	-0.653421	-0.073872
H72	H	1.476273	-0.245683	-0.420522
Br73	Br	1.508921	0.317427	-0.178536
H74	H	1.480859	0.245608	-0.419012
