data_functionalizedCrystal
_audit_creation_method	'MofGen! by Chris Wilmer'
_symmetry_space_group_name_H-M	'P1'
_symmetry_Int_Tables_number	1
_symmetry_cell_setting	triclinic
loop_
_symmetry_equiv_pos_as_xyz
  x,y,z
_cell_length_a	12.837939
_cell_length_b	18.266242
_cell_length_c	12.811415
_cell_angle_alpha	95.437182
_cell_angle_beta	90.588266
_cell_angle_gamma	89.991934
loop_
_atom_site_label
_atom_site_type_symbol
_atom_site_fract_x
_atom_site_fract_y
_atom_site_fract_z
O1	O	-1.376641	0.078995	0.272977
O2	O	-1.074777	0.078103	0.259493
O3	O	-1.233302	0.068452	0.114202
O4	O	-1.218117	0.088646	0.418269
O5	O	-1.233275	-0.053311	0.114191
O6	O	-1.074750	-0.043660	0.259482
O7	O	-1.376614	-0.042768	0.272966
Zn8	Zn	-1.225678	-0.062547	0.266223
Zn9	Zn	-1.225714	0.097881	0.266237
O10	O	-1.218089	-0.033117	0.418258
C11	C	-1.036123	0.016919	0.254933
C12	C	-0.920988	0.016018	0.241347
C13	C	-0.680735	0.026854	0.404678
C14	C	-0.572554	0.026008	0.391918
C15	C	-0.596442	0.013473	0.203067
C16	C	-0.704623	0.014320	0.215827
C17	C	-0.746766	0.021012	0.316636
C18	C	-0.854949	0.021864	0.329395
C19	C	-0.878835	0.009324	0.140545
C20	C	-0.770654	0.008477	0.127785
N21	N	-1.225661	-0.172034	0.266213
C22	C	-1.295879	-0.214614	0.201915
C23	C	-1.295886	-0.291259	0.201911
C24	C	-1.225684	-0.325320	0.266223
C25	C	-1.155453	-0.282731	0.330525
C26	C	-1.155441	-0.206088	0.330520
N27	N	-1.212886	-0.439570	0.357817
N28	N	-1.212903	-0.512377	0.357820
C29	C	-1.225713	-0.556241	0.266242
N30	N	-1.238526	-0.524547	0.174660
N31	N	-1.238514	-0.451733	0.174659
C32	C	-1.225689	-0.408426	0.266236
C33	C	-1.295943	-0.681929	0.201934
C34	C	-1.295942	-0.758576	0.201927
C35	C	-1.155514	-0.750046	0.330551
C36	C	-1.155510	-0.673401	0.330548
C37	C	-1.225729	-0.639347	0.266241
C38	C	-0.415268	0.018416	0.277528
C39	C	-0.530404	0.019318	0.291115
C40	C	-1.232437	0.004969	0.075007
C41	C	-1.229887	-0.002781	-0.041767
N42	N	-1.225738	0.207368	0.266239
C43	C	-1.225106	0.115415	-0.261175
C44	C	-1.222710	0.108136	-0.370894
C45	C	-1.222692	-0.024617	-0.370926
C46	C	-1.225088	-0.017338	-0.261207
C47	C	-1.226296	0.052680	-0.206335
C48	C	-1.228700	0.059958	-0.096614
C49	C	-1.228674	-0.072795	-0.096648
C50	C	-1.226278	-0.080074	-0.206367
C51	C	-1.218955	0.030367	0.457453
C52	C	-1.221505	0.038122	0.574226
H53	H	-1.353054	-0.186890	0.149550
O54	O	-1.229970	-0.140463	-0.037494
H55	H	-1.228740	-0.190371	-0.094088
H56	H	-1.098260	-0.171418	0.382880
H57	H	-1.229687	0.116971	-0.051940
O58	O	-0.725191	0.001261	0.019062
H59	H	-0.751668	-0.051212	-0.023773
O60	O	-1.079776	-0.627476	0.399911
H61	H	-1.029174	-0.595849	0.350632
O62	O	-1.079742	-0.319457	0.399908
H63	H	-1.029158	-0.357670	0.350649
O64	O	-1.224973	-0.155589	-0.265559
H65	H	-1.226198	-0.197989	-0.208989
H66	H	-0.562111	0.007965	0.120993
O67	O	-0.950057	0.003014	0.045578
H68	H	-0.935035	0.049477	-0.002138
H69	H	-1.098351	-0.777778	0.382912
H70	H	-1.221737	0.159222	-0.415541
H71	H	-1.221699	-0.081623	-0.415621
O72	O	-1.226406	0.190931	-0.201984
H73	H	-1.296547	0.221214	-0.225332
O74	O	-0.900411	0.029071	0.438118
H75	H	-0.836316	0.032981	0.497195
H76	H	-0.715048	0.032304	0.486761
H77	H	-1.353068	-0.325934	0.149550
H78	H	-1.353119	-0.793246	0.149562
O79	O	-0.501331	0.032312	0.486875
H80	H	-0.548814	0.037112	0.559113
H81	H	-1.353117	-0.654202	0.149567
