data_functionalizedCrystal
_audit_creation_method	'MofGen! by Chris Wilmer'
_symmetry_space_group_name_H-M	'P1'
_symmetry_Int_Tables_number	1
_symmetry_cell_setting	triclinic
loop_
_symmetry_equiv_pos_as_xyz
  x,y,z
_cell_length_a	17.699083
_cell_length_b	23.532407
_cell_length_c	16.776229
_cell_angle_alpha	89.988688
_cell_angle_beta	89.998886
_cell_angle_gamma	83.065847
loop_
_atom_site_label
_atom_site_type_symbol
_atom_site_fract_x
_atom_site_fract_y
_atom_site_fract_z
O1	O	1.003713	0.072020	-0.066185
O2	O	1.503713	0.572020	0.433815
O3	O	0.783287	0.081390	-0.066212
O4	O	1.283287	0.581390	0.433788
O5	O	0.900147	-0.006208	-0.066183
O6	O	1.400147	0.493792	0.433817
O7	O	0.886853	0.159617	-0.066214
O8	O	1.386853	0.659617	0.433786
O9	O	0.900132	-0.006213	0.066394
O10	O	1.400132	0.493787	0.566394
O11	O	0.783272	0.081384	0.066365
O12	O	1.283272	0.581384	0.566365
O13	O	1.003698	0.072015	0.066392
O14	O	1.503698	0.572015	0.566392
Zn15	Zn	0.893482	0.076699	0.087428
Zn16	Zn	1.393482	0.576699	0.587428
Zn17	Zn	0.893503	0.076706	-0.087248
Zn18	Zn	1.393503	0.576706	0.412752
O19	O	0.886838	0.159612	0.066363
O20	O	1.386838	0.659612	0.566363
C21	C	0.755084	0.081051	0.000073
C22	C	1.255084	0.581051	0.500073
C23	C	0.671071	0.080044	0.000063
C24	C	1.171071	0.580044	0.500063
C25	C	0.622189	0.131462	0.000054
C26	C	1.122189	0.631462	0.500054
C27	C	0.543251	0.130512	0.000065
C28	C	1.043251	0.630512	0.500065
C29	C	0.513196	0.078144	0.000079
C30	C	1.013196	0.578144	0.500079
C31	C	0.562084	0.026722	0.000090
C32	C	1.062084	0.526722	0.500090
C33	C	0.641021	0.027672	0.000086
C34	C	1.141021	0.527672	0.500086
C35	C	0.243740	0.022888	0.000111
C36	C	0.743740	0.522888	0.500111
C37	C	0.164797	0.021942	0.000113
C38	C	0.664797	0.521942	0.500113
C39	C	0.145970	0.125728	0.000090
C40	C	0.645970	0.625728	0.500090
C41	C	0.224907	0.126678	0.000085
C42	C	0.724907	0.626678	0.500085
C43	C	0.273788	0.075257	0.000101
C44	C	0.773788	0.575257	0.500101
C45	C	0.359382	0.076287	0.000091
C46	C	0.859382	0.576287	0.500091
C47	C	0.427603	0.077113	0.000083
C48	C	0.927603	0.577113	0.500083
C49	C	0.899801	-0.027427	0.000107
C50	C	1.399801	0.472573	0.500107
C51	C	0.898783	-0.090647	0.000113
C52	C	1.398783	0.409353	0.500113
C53	C	0.961554	-0.489570	0.000077
C54	C	1.461554	0.010430	0.500077
C55	C	0.960609	-0.548973	0.000071
C56	C	1.460609	-0.048973	0.500071
O57	O	1.018799	-0.585550	0.000049
O58	O	1.518799	-0.085550	0.500049
N59	N	0.891136	-0.571799	0.000063
N60	N	1.391136	-0.071799	0.500063
C61	C	0.822604	-0.535218	0.000053
C62	C	1.322604	-0.035218	0.500053
O63	O	0.763424	-0.560088	0.000045
O64	O	1.263424	-0.060088	0.500045
C65	C	0.823550	-0.475816	0.000054
C66	C	1.323550	0.024184	0.500054
C67	C	0.893028	-0.452994	0.000070
C68	C	1.393028	0.047006	0.500070
C69	C	1.031026	-0.466747	0.000093
C70	C	1.531026	0.033253	0.500093
C71	C	1.031972	-0.407348	0.000100
C72	C	1.531972	0.092652	0.500100
C73	C	0.963445	-0.370772	0.000093
C74	C	1.463445	0.129228	0.500093
C75	C	0.893973	-0.393595	0.000078
C76	C	1.393973	0.106405	0.500078
C77	C	0.755019	-0.439237	0.000038
C78	C	1.255019	0.060763	0.500038
C79	C	0.755971	-0.379832	0.000038
C80	C	1.255971	0.120168	0.500038
C81	C	0.825448	-0.357009	0.000054
C82	C	1.325448	0.142991	0.500054
C83	C	0.826391	-0.297620	0.000078
C84	C	1.326391	0.202380	0.500078
N85	N	0.895864	-0.274795	0.000086
N86	N	1.395864	0.225205	0.500086
C87	C	0.964391	-0.311371	0.000093
C88	C	1.464391	0.188629	0.500093
C89	C	0.820622	-0.659966	0.000051
C90	C	1.320622	-0.159966	0.500051
C91	C	0.819674	-0.719367	0.000056
C92	C	1.319674	-0.219367	0.500056
C93	C	0.957680	-0.733118	0.000073
C94	C	1.457680	-0.233118	0.500073
C95	C	0.958626	-0.673716	0.000073
C96	C	1.458626	-0.173716	0.500073
C97	C	0.890095	-0.637141	0.000059
C98	C	1.390095	-0.137141	0.500059
C99	C	0.966371	-0.186628	0.000110
C100	C	1.466371	0.313372	0.500110
C101	C	0.967310	-0.127223	0.000121
C102	C	1.467310	0.372777	0.500121
C103	C	0.829305	-0.113478	0.000100
C104	C	1.329305	0.386522	0.500100
C105	C	0.828365	-0.172877	0.000094
C106	C	1.328365	0.327123	0.500094
C107	C	0.896904	-0.209452	0.000096
C108	C	1.396904	0.290548	0.500096
O109	O	0.768232	-0.261008	0.000097
O110	O	1.268232	0.238992	0.500097
O111	O	1.023560	-0.286493	0.000091
O112	O	1.523560	0.213507	0.500091
C113	C	1.031901	0.072353	0.000105
C114	C	1.531901	0.572353	0.500105
C115	C	1.115914	0.073360	0.000110
C116	C	1.615914	0.573360	0.500110
C117	C	0.887184	0.180832	0.000071
C118	C	1.387184	0.680832	0.500071
C119	C	0.888202	0.244052	0.000060
C120	C	1.388202	0.744052	0.500060
N121	N	0.893474	0.076693	0.206639
N122	N	1.393474	0.576693	0.706639
N123	N	0.893517	0.076706	-0.206459
N124	N	1.393517	0.576706	0.293541
C125	C	0.945235	0.037921	0.248369
C126	C	1.445235	0.537921	0.748369
C127	C	0.945239	0.037921	0.331821
C128	C	1.445239	0.537921	0.831821
C129	C	0.893485	0.076696	0.373542
C130	C	1.393485	0.576696	0.873542
C131	C	0.841719	0.115470	0.331806
C132	C	1.341719	0.615470	0.831806
C133	C	0.841712	0.115467	0.248355
C134	C	1.341712	0.615467	0.748355
C135	C	0.841746	0.115481	0.668353
C136	C	1.341746	0.615481	1.168353
C137	C	0.841759	0.115482	0.751810
C138	C	1.341759	0.615482	1.251810
C139	C	0.945274	0.037935	0.751819
C140	C	1.445274	0.537935	1.251819
C141	C	0.945267	0.037932	0.668368
C142	C	1.445267	0.537932	1.168368
C143	C	0.893498	0.076704	0.626640
C144	C	1.393498	0.576704	1.126640
C145	C	0.893493	0.076703	0.536151
C146	C	1.393493	0.576703	1.036151
C147	C	0.893493	0.076699	0.464029
C148	C	1.393493	0.576699	0.964029
H149	H	0.646653	0.174106	0.000042
H150	H	1.146653	0.674106	0.500042
H151	H	0.140330	-0.020705	0.000126
H152	H	0.640330	0.479295	0.500126
H153	H	0.283530	-0.018983	0.000124
H154	H	0.783530	0.481017	0.500124
N155	N	1.001044	-0.003912	0.203376
N156	N	1.501044	0.496088	0.703376
H157	H	0.993184	0.001966	0.144177
H158	H	1.493184	0.501966	0.644177
H159	H	1.054689	0.002607	0.217948
H160	H	1.554689	0.502607	0.717948
N161	N	0.785882	0.157289	0.203350
N162	N	1.285882	0.657289	0.703350
H163	H	0.814606	0.182477	0.168711
H164	H	1.314606	0.682477	0.668711
H165	H	0.752548	0.135514	0.168786
H166	H	1.252548	0.635514	0.668786
N167	N	0.529672	-0.029762	0.000118
N168	N	1.029672	0.470238	0.500118
H169	H	0.472248	-0.022563	0.000120
H170	H	0.972248	0.477437	0.500120
H171	H	0.547579	-0.052260	-0.049022
H172	H	1.047579	0.447740	0.450978
H173	H	0.987387	0.006349	0.365797
H174	H	1.487387	0.506349	0.865797
H175	H	0.987412	0.006360	0.634402
H176	H	1.487412	0.506360	1.134402
N177	N	1.001112	-0.003886	0.796826
N178	N	1.501112	0.496114	1.296826
H179	H	0.993265	0.001995	0.856022
H180	H	1.493265	0.501995	1.356022
H181	H	0.992678	-0.044281	0.782251
H182	H	1.492678	0.455719	1.282251
N183	N	1.031591	-0.772577	0.000080
N184	N	1.531591	-0.272577	0.500080
H185	H	1.034275	-0.797520	-0.049069
H186	H	1.534275	-0.297520	0.450931
H187	H	1.075709	-0.749070	0.000117
H188	H	1.575709	-0.249070	0.500117
N189	N	0.257321	0.183162	0.000078
N190	N	0.757321	0.683162	0.500078
H191	H	0.314745	0.175961	0.000077
H192	H	0.814745	0.675961	0.500077
H193	H	0.239411	0.205662	-0.049071
H194	H	0.739411	0.705662	0.450929
H195	H	0.763099	-0.737943	0.000057
H196	H	1.263099	-0.237943	0.500057
N197	N	0.785932	0.157302	0.796812
N198	N	1.285932	0.657302	1.296812
H199	H	0.753132	0.181862	0.757715
H200	H	1.253132	0.681862	1.257715
H201	H	0.752650	0.135524	0.831448
H202	H	1.252650	0.635524	1.331448
H203	H	0.799595	0.147051	0.634384
H204	H	1.299595	0.647051	1.134384
H205	H	1.022182	-0.216401	0.000109
H206	H	1.522182	0.283599	0.500109
N207	N	0.785892	0.157289	0.376800
N208	N	1.285892	0.657289	0.876800
H209	H	0.793751	0.151409	0.435998
H210	H	1.293751	0.651409	0.935998
H211	H	0.794324	0.197682	0.362197
H212	H	1.294324	0.697682	0.862197
N213	N	1.106908	-0.382737	0.000115
N214	N	1.606908	0.117263	0.500115
H215	H	1.150170	-0.414928	0.000117
H216	H	1.650170	0.085072	0.500117
H217	H	1.110316	-0.358384	-0.049032
H218	H	1.610316	0.141616	0.450968
H219	H	0.680820	-0.014197	0.000093
H220	H	1.180820	0.485803	0.500093
N221	N	1.104944	-0.506192	0.000102
N222	N	1.604944	-0.006192	0.500102
H223	H	1.149090	-0.482711	0.000112
H224	H	1.649090	0.017289	0.500112
H225	H	1.107553	-0.531142	0.049252
H226	H	1.607553	-0.031142	0.549252
N227	N	0.682057	-0.340377	0.000040
N228	N	1.182057	0.159623	0.500040
H229	H	0.679375	-0.315413	-0.049101
H230	H	1.179375	0.184587	0.450899
H231	H	0.637943	-0.363888	0.000064
H232	H	1.137943	0.136112	0.500064
H233	H	0.764811	-0.630189	0.000046
H234	H	1.264811	-0.130189	0.500046
N235	N	0.753428	-0.197493	0.000082
N236	N	1.253428	0.302507	0.500082
H237	H	0.749966	-0.221820	-0.049070
H238	H	1.249966	0.278180	0.450930
H239	H	0.749997	-0.221816	0.049255
H240	H	1.249997	0.278184	0.549255
N241	N	0.490527	0.185970	0.000145
N242	N	0.990527	0.685970	0.500145
H243	H	0.521545	0.219289	0.000159
H244	H	1.021545	0.719289	0.500159
H245	H	0.457320	0.187880	-0.048971
H246	H	0.957320	0.687880	0.451029
H247	H	1.023889	-0.108645	0.000136
H248	H	1.523889	0.391355	0.500136
H249	H	1.015201	-0.655139	0.000086
H250	H	1.515201	-0.155139	0.500086
H251	H	0.773512	-0.083687	0.000097
H252	H	1.273512	0.416313	0.500097
H253	H	0.106161	0.167598	0.000081
H254	H	0.606161	0.667598	0.500081
N255	N	0.680081	-0.463843	0.000031
N256	N	1.180081	0.036157	0.500031
H257	H	0.636821	-0.431650	0.000025
H258	H	1.136821	0.068350	0.500025
H259	H	0.676681	-0.488182	-0.049117
H260	H	1.176681	0.011818	0.450883
