data_functionalizedCrystal
_audit_creation_method	'MofGen! by Chris Wilmer'
_symmetry_space_group_name_H-M	'P1'
_symmetry_Int_Tables_number	1
_symmetry_cell_setting	triclinic
loop_
_symmetry_equiv_pos_as_xyz
  x,y,z
_cell_length_a	6.817900
_cell_length_b	9.582889
_cell_length_c	16.306216
_cell_angle_alpha	93.087006
_cell_angle_beta	103.467292
_cell_angle_gamma	111.207298
loop_
_atom_site_label
_atom_site_type_symbol
_atom_site_fract_x
_atom_site_fract_y
_atom_site_fract_z
V1	V	-4.066588	-0.208226	-0.262871
O2	O	-4.012241	0.008801	-0.258025
O3	O	-4.057363	-0.411718	-0.260920
O4	O	-4.017522	-0.205551	-0.377587
O5	O	-4.052358	-0.198792	-0.140550
V6	V	-4.545226	-0.182204	-0.248259
O7	O	-4.338562	-0.265306	-0.294923
O8	O	-4.723449	-0.125124	-0.216206
O9	O	-4.331244	0.021288	-0.250209
O10	O	-4.716970	-0.399231	-0.253104
O11	O	-4.676853	-0.191638	-0.370579
O12	O	-4.371086	-0.184879	-0.133542
C13	C	-3.911916	-0.461309	-0.256733
C14	C	-3.985656	-0.627670	-0.255903
C15	C	-3.861093	-0.198321	-0.405553
C16	C	-3.902519	-0.197480	-0.499334
C17	C	-4.052894	-0.194465	-0.840088
C18	C	-4.259228	-0.204393	-0.809633
C19	C	-4.216016	-0.204692	-0.712041
C20	C	-3.978293	-0.195962	-0.671036
C21	C	-3.813963	-0.047531	-0.691353
C22	C	-3.858412	-0.046608	-0.788952
C23	C	-3.992914	-0.332441	-0.813868
C24	C	-3.954913	-0.335370	-0.716549
C25	C	-3.936117	-0.196802	-0.575494
C26	C	-4.095059	-0.193614	-0.935629
C27	C	-4.140035	0.070871	-0.254393
C28	C	-4.045533	0.237230	-0.255229
C29	C	-4.190858	-0.192114	-0.105571
C30	C	-4.128669	-0.192947	-0.011790
H31	H	-4.406721	-0.310730	-0.844114
N32	N	-3.790599	-0.324661	-0.839492
H33	H	-3.664776	-0.227227	-0.809848
H34	H	-3.818811	-0.328013	-0.903321
N35	N	-4.322410	-0.073125	-0.832975
H36	H	-4.217957	-0.007255	-0.863192
H37	H	-4.315644	-0.011411	-0.779434
H38	H	-3.637962	-0.035743	-0.663873
N39	N	-4.251153	-0.073053	-0.671902
H40	H	-4.406634	-0.083151	-0.697015
H41	H	-4.147042	0.024835	-0.683544
H42	H	-3.702919	-0.033233	-0.808188
N43	N	-4.382790	-0.346002	-0.694881
H44	H	-4.485104	-0.408661	-0.750791
H45	H	-4.469150	-0.316712	-0.659440
N46	N	-3.906287	0.091646	-0.809145
H47	H	-3.898380	0.151416	-0.754687
H48	H	-4.057480	0.059025	-0.849341
H49	H	-4.076661	-0.445103	-0.704545
N50	N	-3.832210	0.089639	-0.649038
H51	H	-3.797114	0.090976	-0.585238
H52	H	-3.985939	0.085169	-0.671100
N53	N	-4.171462	-0.480179	-0.861223
H54	H	-4.230912	-0.545054	-0.818944
H55	H	-4.109950	-0.535189	-0.896295
N56	N	-3.731790	-0.338414	-0.680249
H57	H	-3.642298	-0.249065	-0.633581
H58	H	-3.655755	-0.332789	-0.726964
