data_functionalizedCrystal
_audit_creation_method	'MofGen! by Chris Wilmer'
_symmetry_space_group_name_H-M	'P1'
_symmetry_Int_Tables_number	1
_symmetry_cell_setting	triclinic
loop_
_symmetry_equiv_pos_as_xyz
  x,y,z
_cell_length_a	15.995350
_cell_length_b	16.992695
_cell_length_c	16.053802
_cell_angle_alpha	87.258926
_cell_angle_beta	92.577622
_cell_angle_gamma	87.080299
loop_
_atom_site_label
_atom_site_type_symbol
_atom_site_fract_x
_atom_site_fract_y
_atom_site_fract_z
O1	O	-1.121056	-0.097771	-0.069359
O2	O	-0.878117	-0.110251	-0.069376
O3	O	-0.998613	0.010132	-0.069361
O4	O	-1.000561	-0.218153	-0.069374
O5	O	-0.991978	0.003533	0.069497
O6	O	-0.871483	-0.116849	0.069482
O7	O	-1.114422	-0.104370	0.069499
Zn8	Zn	-0.991899	-0.111657	0.091537
Zn9	Zn	-1.000640	-0.102963	-0.091414
O10	O	-0.993927	-0.224752	0.069484
C11	C	-0.843571	-0.113034	0.000051
C12	C	-0.750517	-0.111487	0.000044
C13	C	-1.148969	-0.101586	0.000071
C14	C	-1.242022	-0.103133	0.000072
C15	C	-0.992790	0.036045	0.000068
C16	C	-0.985314	0.123089	0.000067
C17	C	-0.412397	-0.105932	0.000062
C18	C	-0.454079	-0.020213	0.000377
C19	C	-0.550888	-0.021745	0.000058
C20	C	-0.580143	-0.108688	0.000054
C21	C	-0.545673	-0.147206	-0.079240
C22	C	-0.448896	-0.145050	-0.079301
C23	C	-0.441132	-0.154325	0.078607
C24	C	-0.538026	-0.154355	0.079649
C25	C	-0.674945	-0.110249	0.000046
C26	C	-0.317595	-0.104373	0.000064
C27	C	-0.999750	-0.250665	0.000054
C28	C	-1.007226	-0.337709	0.000049
N29	N	-0.985940	-0.117590	0.216397
C30	C	-1.057449	0.173329	0.000073
C31	C	-1.050419	0.255116	0.000065
C32	C	-0.971254	0.286661	0.000056
C33	C	-0.899114	0.236415	0.000048
C34	C	-0.906144	0.154630	0.000050
C35	C	-0.942116	0.530260	0.000043
C36	C	-0.935091	0.612051	0.000043
C37	C	-1.086398	0.630747	0.000058
C38	C	-1.093421	0.548959	0.000066
C39	C	-1.021281	0.498720	0.000053
N40	N	-0.964067	0.370260	0.000050
N41	N	-1.028469	0.415123	0.000053
N42	N	-1.006606	-0.097024	-0.216274
C43	C	-1.037232	-0.066386	0.260097
C44	C	-1.033072	-0.070544	0.347504
C45	C	-0.977623	-0.125910	0.391208
C46	C	-0.926325	-0.177117	0.347501
C47	C	-0.930482	-0.172955	0.260097
C48	C	-0.959465	-0.144068	0.652615
C49	C	-0.955314	-0.148228	0.740026
C50	C	-1.062060	-0.041653	0.740022
C51	C	-1.066215	-0.037499	0.652616
C52	C	-1.014914	-0.088703	0.608917
N53	N	-0.973371	-0.130163	0.480551
N54	N	-1.019162	-0.084446	0.519575
H55	H	-0.430547	0.011355	0.057242
N56	N	-0.854219	0.644270	0.000014
N57	N	-0.836217	0.690600	-0.058522
H58	H	-0.779104	0.713354	-0.058542
N59	N	-0.580358	0.016563	0.071365
N60	N	-0.556566	-0.009324	0.143179
H61	H	-0.577375	0.017736	0.193540
H62	H	-0.883374	0.489364	0.000032
H63	H	-0.917695	-0.185762	0.617042
N64	N	-1.114440	0.010652	0.784673
N65	N	-1.082297	0.057014	0.833458
H66	H	-1.119290	0.093960	0.864994
N67	N	-0.818254	0.268648	0.000029
N68	N	-0.811986	0.341670	0.000027
H69	H	-0.754878	0.364435	0.000015
H70	H	-1.082388	-0.021304	0.224519
H71	H	-0.564213	-0.210941	-0.082191
H72	H	-0.415849	-0.129153	0.138710
N73	N	-0.832452	0.103319	0.000033
N74	N	-0.761773	0.131492	0.000021
H75	H	-0.709725	0.095256	0.000004
N76	N	-0.869672	-0.233660	0.392143
N77	N	-0.813718	-0.211072	0.440928
H78	H	-0.773705	-0.251006	0.472457
H79	H	-0.910158	-0.193318	0.775606
H80	H	-1.074837	-0.028848	0.383084
N81	N	-0.878079	-0.225262	0.215468
N82	N	-0.828573	-0.274693	0.254497
H83	H	-0.791558	-0.311635	0.222979
H84	H	-0.557405	-0.217983	0.084436
N85	N	-1.174281	0.516727	0.000067
N86	N	-1.180546	0.443704	0.000072
H87	H	-1.237654	0.420937	0.000077
H88	H	-0.434905	0.016587	-0.056171
N89	N	-1.122990	0.019000	0.608068
N90	N	-1.116692	0.091030	0.617845
H91	H	-1.156845	0.130906	0.586413
N92	N	-0.586445	0.023637	-0.071362
N93	N	-0.572844	0.095239	-0.080638
H94	H	-0.597954	0.127292	-0.131082
N95	N	-0.426900	-0.102832	-0.153659
N96	N	-0.482991	-0.075161	-0.205147
H97	H	-0.467461	-0.045343	-0.257664
N98	N	-0.413947	-0.223800	-0.083817
N99	N	-0.461046	-0.280175	-0.086921
H100	H	-0.436367	-0.335792	-0.090114
H101	H	-0.574902	-0.115031	-0.138249
H102	H	-0.560474	-0.126273	0.138311
N103	N	-0.406560	-0.233653	0.079268
N104	N	-0.360949	-0.254553	0.022204
H105	H	-0.336529	-0.310575	0.022664
H106	H	-1.121913	0.147652	0.000085
N107	N	-1.124113	0.306424	0.000063
N108	N	-1.194791	0.278249	0.000071
H109	H	-1.246841	0.314485	0.000067
H110	H	-1.145130	0.671660	0.000067
