data_functionalizedCrystal
_audit_creation_method	'MofGen! by Chris Wilmer'
_symmetry_space_group_name_H-M	'P1'
_symmetry_Int_Tables_number	1
_symmetry_cell_setting	triclinic
loop_
_symmetry_equiv_pos_as_xyz
  x,y,z
_cell_length_a	23.532407
_cell_length_b	10.654550
_cell_length_c	22.010155
_cell_angle_alpha	89.988922
_cell_angle_beta	90.003588
_cell_angle_gamma	96.333196
loop_
_atom_site_label
_atom_site_type_symbol
_atom_site_fract_x
_atom_site_fract_y
_atom_site_fract_z
O1	O	0.756252	-0.152410	-0.050449
O2	O	0.590532	-0.174467	-0.050467
O3	O	0.677202	0.019421	-0.050454
O4	O	0.669582	-0.346298	-0.050462
O5	O	0.677196	0.019371	0.050596
O6	O	0.590526	-0.174518	0.050583
O7	O	0.756246	-0.152461	0.050601
Cu8	Cu	0.673386	-0.163494	0.059819
Cu9	Cu	0.673393	-0.163434	-0.059685
O10	O	0.669576	-0.346349	0.050588
C11	C	0.569310	-0.173931	0.000056
C12	C	0.506082	-0.172242	0.000049
C13	C	0.107657	-0.276389	0.000074
C14	C	0.048247	-0.274820	0.000078
O15	O	0.012131	-0.371366	0.000098
N16	N	0.024869	-0.159554	0.000080
C17	C	0.060906	-0.045849	0.000084
O18	O	0.035567	0.052339	0.000086
C19	C	0.120315	-0.047419	0.000084
C20	C	0.143689	-0.162693	0.000077
C21	C	0.131031	-0.391654	0.000067
C22	C	0.190438	-0.393222	0.000062
C23	C	0.226470	-0.279525	0.000065
C24	C	0.203095	-0.164261	0.000072
C25	C	0.156351	0.066285	0.000093
C26	C	0.215764	0.064705	0.000094
C27	C	0.239138	-0.050569	0.000086
C28	C	0.298534	-0.052133	0.000069
N29	N	0.321911	-0.167399	0.000067
C30	C	0.285879	-0.281096	0.000065
C31	C	-0.063858	-0.042560	0.000084
C32	C	-0.123266	-0.040989	0.000079
C33	C	-0.135922	-0.269961	0.000074
C34	C	-0.076512	-0.271531	0.000075
C35	C	-0.040481	-0.157827	0.000082
C36	C	0.410637	-0.284380	0.000054
C37	C	0.470049	-0.285938	0.000047
C38	C	0.482700	-0.056967	0.000055
C39	C	0.423293	-0.055408	0.000059
C40	C	0.387262	-0.169125	0.000061
O41	O	0.334684	0.044362	0.000052
O42	O	0.311227	-0.379267	0.000071
C43	C	0.676640	0.066176	0.000071
C44	C	0.674966	0.205566	0.000070
C45	C	0.777469	-0.152997	0.000077
C46	C	0.840697	-0.154686	0.000080
N47	N	0.673385	-0.163535	0.143871
C48	C	0.670138	-0.393104	0.000062
C49	C	0.671812	-0.532494	0.000059
C50	C	0.725996	0.286669	0.000075
C51	C	0.724419	0.417640	0.000067
C52	C	0.620779	0.386393	0.000052
C53	C	0.622356	0.255425	0.000055
N54	N	0.673398	-0.163382	-0.143737
C55	C	0.634994	-0.249289	0.436478
C56	C	0.634992	-0.249301	0.372870
O57	O	0.602334	-0.322263	0.339974
N58	N	0.673380	-0.163488	0.341056
C59	C	0.711768	-0.077649	0.372852
O60	O	0.744420	-0.004659	0.339951
C61	C	0.711766	-0.077633	0.436459
C62	C	0.673380	-0.163460	0.468270
C63	C	0.596610	-0.335108	0.468289
C64	C	0.596612	-0.335098	0.531892
C65	C	0.634998	-0.249269	0.563684
C66	C	0.673382	-0.163450	0.531873
C67	C	0.750151	0.008210	0.468254
C68	C	0.750146	0.008220	0.531865
C69	C	0.711759	-0.077607	0.563676
C70	C	0.711770	-0.077611	0.627268
N71	N	0.673382	-0.163424	0.659083
C72	C	0.634996	-0.249253	0.627290
C73	C	0.711768	-0.077689	0.239274
C74	C	0.711773	-0.077710	0.175669
C75	C	0.634997	-0.249360	0.175691
C76	C	0.634995	-0.249344	0.239298
C77	C	0.673380	-0.163502	0.271089
C78	C	0.635004	-0.249226	0.760862
C79	C	0.635012	-0.249212	0.824471
C80	C	0.711786	-0.077558	0.824443
C81	C	0.711781	-0.077576	0.760840
C82	C	0.673386	-0.163415	0.729051
O83	O	0.744410	-0.004682	0.660205
O84	O	0.602345	-0.322220	0.660199
H85	H	-0.034524	0.050038	0.000084
H86	H	0.489077	-0.379812	0.000040
H87	H	0.245099	0.157299	0.000100
Br88	Br	0.391570	0.101036	0.000071
Br89	Br	0.582915	-0.365703	0.867640
Br90	Br	0.553095	0.145347	0.000040
H91	H	0.603738	-0.319122	0.734986
H92	H	0.565353	-0.404982	0.557789
H93	H	0.765973	0.483669	0.000070
H94	H	0.381308	-0.376980	0.000058
H95	H	0.603740	-0.319245	0.149795
H96	H	-0.057486	-0.365397	0.000072
Br97	Br	-0.154980	0.115460	0.000071
Br98	Br	0.797395	0.219008	0.000095
H99	H	0.565349	-0.405001	0.442409
H100	H	0.603737	-0.319231	0.265195
H101	H	0.743037	-0.007835	0.149773
H102	H	0.781408	0.078099	0.442362
Br103	Br	0.763872	0.038814	0.282413
Br104	Br	0.802242	0.124732	0.575005
Br105	Br	0.222149	-0.549673	0.000054
Br106	Br	0.763886	0.038890	0.717669
H107	H	0.101699	-0.484244	0.000068
Br108	Br	0.124645	0.222738	0.000090
Br109	Br	0.549382	0.454066	0.000030
Br110	Br	0.763881	0.038918	0.867599
Br111	Br	-0.184834	-0.424265	0.000072
H112	H	0.512048	0.035602	0.000054
