data_functionalizedCrystal
_audit_creation_method	'MofGen! by Chris Wilmer'
_symmetry_space_group_name_H-M	'P1'
_symmetry_Int_Tables_number	1
_symmetry_cell_setting	triclinic
loop_
_symmetry_equiv_pos_as_xyz
  x,y,z
_cell_length_a	11.026660
_cell_length_b	14.044220
_cell_length_c	10.065918
_cell_angle_alpha	80.968371
_cell_angle_beta	82.291396
_cell_angle_gamma	100.886856
loop_
_atom_site_label
_atom_site_type_symbol
_atom_site_fract_x
_atom_site_fract_y
_atom_site_fract_z
O1	O	1.671519	0.419755	-0.113522
O2	O	1.313230	0.373709	-0.113520
O3	O	1.486994	0.257828	-0.113507
O4	O	1.497754	0.535636	-0.113534
O5	O	1.451802	0.227081	0.113484
O6	O	1.278038	0.342962	0.113471
O7	O	1.636326	0.389008	0.113469
Zn8	Zn	1.451594	0.361103	0.149510
Zn9	Zn	1.497962	0.401614	-0.149561
O10	O	1.462562	0.504889	0.113457
C11	C	1.249504	0.349841	-0.000024
C12	C	1.112049	0.324517	-0.000023
C13	C	0.903747	0.368277	-0.000032
C14	C	1.045813	0.394451	-0.000031
C15	C	1.464690	0.206336	-0.000011
C16	C	1.450646	0.098714	-0.000010
C17	C	1.424974	-0.098325	-0.000029
C18	C	1.524578	-0.138963	-0.000034
C19	C	1.510294	-0.248603	-0.000045
C20	C	1.439256	0.011324	-0.000018
C21	C	1.700053	0.412876	-0.000030
C22	C	1.837509	0.438201	-0.000040
C23	C	1.484867	0.556381	-0.000043
C24	C	1.498912	0.664004	-0.000053
N25	N	1.419959	0.333456	0.353618
N26	N	1.529607	0.429254	-0.353668
C27	C	1.486947	0.391993	0.421392
C28	C	1.462609	0.370709	0.578561
H29	H	1.094274	0.473698	-0.000030
H30	H	1.344593	0.267581	0.411950
H31	H	1.328980	-0.145873	-0.000032
H32	H	1.063603	0.245282	-0.000106
C33	C	1.654270	-0.074738	-0.000018
H34	H	1.714887	-0.114655	-0.000028
H35	H	1.651691	-0.045702	0.079144
H36	H	1.676250	-0.024240	-0.079180
H37	H	1.562320	0.457864	0.363059
H38	H	0.885974	0.517442	-0.000039
H39	H	1.387238	0.304829	0.636888
C40	C	1.631433	0.518250	0.567557
H41	H	1.670309	0.552210	0.630462
H42	H	1.594320	0.561657	0.511816
H43	H	1.692507	0.495780	0.511810
C44	C	0.838286	0.261226	-0.000024
H45	H	0.751390	0.257679	-0.000035
H46	H	0.849264	0.219255	0.079133
H47	H	0.873810	0.240707	-0.079191
