data_functionalizedCrystal
_audit_creation_method	'MofGen! by Chris Wilmer'
_symmetry_space_group_name_H-M	'P1'
_symmetry_Int_Tables_number	1
_symmetry_cell_setting	triclinic
loop_
_symmetry_equiv_pos_as_xyz
  x,y,z
_cell_length_a	18.050589
_cell_length_b	12.759401
_cell_length_c	12.759393
_cell_angle_alpha	90.020566
_cell_angle_beta	89.970454
_cell_angle_gamma	89.973571
loop_
_atom_site_label
_atom_site_type_symbol
_atom_site_fract_x
_atom_site_fract_y
_atom_site_fract_z
Zn1	Zn	-0.295659	-1.606168	-0.594017
Zn2	Zn	-0.419867	-1.606017	-0.418340
Zn3	Zn	-0.295691	-1.430466	-0.418353
Zn4	Zn	-0.419808	-1.430417	-0.593978
O5	O	-0.357756	-1.518267	-0.506172
O6	O	-0.312147	-1.753169	-0.570723
O7	O	-0.403433	-1.582688	-0.271320
O8	O	-0.191762	-1.453857	-0.441677
O9	O	-0.403402	-1.753058	-0.441654
O10	O	-0.191739	-1.582944	-0.570736
O11	O	-0.312202	-1.453711	-0.271330
O12	O	-0.312144	-1.283439	-0.441639
O13	O	-0.403301	-1.453773	-0.741004
O14	O	-0.403332	-1.283402	-0.570670
O15	O	-0.312089	-1.582896	-0.741033
O16	O	-0.523784	-1.582640	-0.441617
O17	O	-0.523740	-1.453627	-0.570657
C18	C	-0.357736	-1.245300	-0.506153
C19	C	-0.357745	-1.128523	-0.506169
C20	C	-0.310313	-1.073719	-0.573478
C21	C	-0.310318	-0.963995	-0.573484
C22	C	-0.405193	-0.963888	-0.438868
C23	C	-0.405184	-1.073610	-0.438858
C24	C	-0.550708	-1.518140	-0.506154
C25	C	-0.633254	-1.518182	-0.506182
C26	C	-0.832708	-1.448094	-0.576330
C27	C	-0.882155	-1.422478	-0.480461
C28	C	-0.784385	-1.518285	-0.506196
C29	C	-0.882019	-1.543953	-0.602075
C30	C	-0.930370	-1.518383	-0.506217
C31	C	-0.832744	-1.492619	-0.410276
C32	C	-0.832604	-1.614138	-0.531955
C33	C	-0.882029	-1.588559	-0.436020
C34	C	-0.700286	-1.518226	-0.506185
C35	C	-1.014466	-1.518442	-0.506218
C36	C	-0.164051	-1.518423	-0.506212
C37	C	-0.081505	-1.518489	-0.506229
C38	C	-0.357685	-1.518346	-0.780205
C39	C	-0.357655	-1.518379	-0.896982
C40	C	-0.357770	-0.792300	-0.506188
C41	C	-0.357759	-0.909077	-0.506184
C42	C	-0.310153	-1.585619	-0.951860
C43	C	-0.310121	-1.585636	-1.061584
C44	C	-0.405098	-1.451172	-1.061542
C45	C	-0.405126	-1.451150	-0.951820
C46	C	-0.357774	-1.518249	-0.233204
C47	C	-0.357595	-1.518419	-0.116428
H48	H	-0.443817	-0.919165	-0.384067
Br49	Br	-0.469551	-1.147994	-0.347489
Br50	Br	-0.918428	-1.287442	-0.444146
H51	H	-0.810825	-1.695134	-0.553769
H52	H	-0.443750	-1.396439	-1.106205
Br53	Br	-0.796823	-1.456348	-0.275104
Br54	Br	-0.796611	-1.349021	-0.675048
Br55	Br	-0.918102	-1.580070	-0.737203
H56	H	-0.271497	-1.640358	-0.907214
Br57	Br	-0.245930	-1.148241	-0.664826
H58	H	-0.903548	-1.647959	-0.376651
Br59	Br	-0.245657	-1.676902	-1.136059
H60	H	-0.271693	-0.919379	-0.628292
Br61	Br	-0.469591	-1.359880	-0.877335
