data_functionalizedCrystal
_audit_creation_method	'MofGen! by Chris Wilmer'
_symmetry_space_group_name_H-M	'P1'
_symmetry_Int_Tables_number	1
_symmetry_cell_setting	triclinic
loop_
_symmetry_equiv_pos_as_xyz
  x,y,z
_cell_length_a	14.395555
_cell_length_b	12.970454
_cell_length_c	12.970454
_cell_angle_alpha	59.999776
_cell_angle_beta	90.001151
_cell_angle_gamma	59.998775
loop_
_atom_site_label
_atom_site_type_symbol
_atom_site_fract_x
_atom_site_fract_y
_atom_site_fract_z
Zr1	Zr	0.894924	1.128456	-0.135249
O2	O	0.746593	1.343557	-0.299883
O3	O	0.940395	0.913363	-0.084779
O4	O	0.940397	1.128452	-0.299870
O5	O	0.746591	1.128468	0.084874
O6	O	1.093272	1.128441	-0.299860
O7	O	0.746592	1.128467	-0.084792
O8	O	1.093270	0.743685	0.084898
O9	O	0.746593	1.513224	-0.299884
O10	O	1.073877	1.001823	-0.063248
O11	O	0.959787	1.001832	0.063365
O12	O	0.959789	1.255072	-0.189877
O13	O	0.845699	1.255081	-0.063263
Zr14	Zr	1.138741	1.128440	0.135365
Zr15	Zr	1.138743	1.128439	-0.135234
Zr16	Zr	0.894922	1.128458	0.135350
Zr17	Zr	0.894924	1.399056	-0.135250
Zr18	Zr	1.138741	0.857840	0.135366
O19	O	1.093270	1.343534	0.084895
O20	O	1.093272	1.343532	-0.299861
O21	O	0.746591	1.343559	0.084873
O22	O	1.287072	0.913340	0.299999
O23	O	1.287074	0.913338	-0.084757
O24	O	0.940393	0.913365	0.299977
O25	O	1.287074	1.128429	-0.084758
O26	O	1.093268	1.128445	0.299986
O27	O	0.940393	1.128455	0.299976
O28	O	1.287073	1.128430	0.084908
O29	O	0.940397	1.513210	-0.299872
O30	O	1.093268	0.743686	0.299988
O31	O	1.287072	0.743672	0.300000
O32	O	1.287073	0.743671	0.084910
O33	O	0.746592	1.513225	-0.084794
O34	O	0.940395	1.513212	-0.084782
O35	O	1.073876	1.001824	0.189993
O36	O	1.187966	1.001816	0.063380
O37	O	1.073877	1.255065	-0.063249
O38	O	0.959787	1.255074	0.063364
C39	C	1.016832	0.789969	0.000060
C40	C	1.016832	0.675092	0.000060
C41	C	0.711852	1.128470	0.000039
C42	C	0.608345	1.128478	0.000032
C43	C	0.423651	1.266535	-0.068986
C44	C	0.516680	1.197542	0.050057
C45	C	0.516674	1.197506	-0.118988
C46	C	0.516987	1.059425	0.119197
C47	C	0.516966	1.059409	-0.049934
C48	C	0.610013	0.990316	0.069180
C49	C	1.321813	1.128427	0.000077
C50	C	1.425320	1.128419	0.000084
C51	C	1.016835	1.128447	-0.338419
C52	C	1.016835	1.128446	-0.453296
C53	C	1.016832	1.466928	0.000056
C54	C	1.016832	1.581804	0.000056
C55	C	1.016830	1.128450	0.338536
C56	C	1.016830	1.128451	0.453412
C57	C	1.321813	0.789947	0.000079
C58	C	1.425320	0.675063	0.000086
C59	C	1.016830	0.789971	0.338537
C60	C	1.016829	0.675095	0.453414
C61	C	1.321810	0.789949	0.338556
C62	C	1.425317	0.675066	0.453440
C63	C	0.711854	1.466948	-0.338440
C64	C	0.608348	1.581831	-0.453324
C65	C	0.711852	1.466949	0.000037
C66	C	0.608345	1.581834	0.000030
C67	C	1.016835	1.466926	-0.338421
C68	C	1.016835	1.581802	-0.453298
C69	C	1.473929	0.527627	0.093566
C70	C	1.571175	0.419666	0.093576
C71	C	1.619816	0.459144	0.000112
C72	C	1.571199	0.606595	-0.093377
C73	C	1.473949	0.714553	-0.093392
C74	C	1.473933	0.527630	0.507390
C75	C	1.571199	0.419668	0.615323
C76	C	1.619844	0.459145	0.669309
C77	C	1.571223	0.606595	0.615349
C78	C	1.473963	0.714554	0.507413
C79	C	0.559740	1.729267	-0.507283
C80	C	0.462495	1.837228	-0.615240
C81	C	0.413855	1.797751	-0.669230
C82	C	0.462471	1.650301	-0.615265
C83	C	0.559719	1.542342	-0.507315
C84	C	0.559735	1.542310	0.093511
C85	C	0.462488	1.650241	0.093530
C86	C	0.413849	1.797694	0.000062
C87	C	0.462467	1.837218	-0.093424
C88	C	0.559717	1.729288	-0.093437
H89	H	0.343867	1.383281	-0.127277
N90	N	1.424265	0.487259	0.452280
N91	N	1.467702	0.355604	0.500479
H92	H	1.432632	0.327079	0.461563
H93	H	0.599328	1.761438	-0.463335
N94	N	1.620787	0.269068	0.670466
N95	N	1.577295	0.233854	0.622289
H96	H	1.612293	0.127495	0.661251
H97	H	0.334669	1.885673	-0.757130
N98	N	1.620875	0.646932	-0.188854
N99	N	1.563982	0.721574	-0.302565
H100	H	1.599071	0.750061	-0.369994
N101	N	0.609362	1.391734	-0.452169
N102	N	0.696183	1.295340	-0.355779
H103	H	0.731241	1.188971	-0.316834
H104	H	0.422851	1.957288	-0.169522
N105	N	0.517851	1.270736	0.103135
N106	N	0.517532	1.224969	0.213768
H107	H	0.518356	1.276666	0.251251
H108	H	0.516206	1.001061	0.219924
H109	H	0.599285	1.761490	-0.169566
H110	H	0.517551	1.255903	-0.219667
N111	N	0.709935	0.843736	0.142536
N112	N	0.727681	0.759901	0.257115
H113	H	0.798251	0.656379	0.308928
N114	N	0.412857	1.987835	-0.670357
N115	N	0.469791	2.038341	-0.709380
H116	H	0.434738	2.144705	-0.748304
N117	N	1.424242	0.487309	0.189037
N118	N	1.416028	0.526673	0.261011
H119	H	1.380937	0.498191	0.328439
N120	N	0.412767	1.610014	-0.670441
N121	N	0.325937	1.706433	-0.766821
H122	H	0.290827	1.677986	-0.805791
H123	H	1.434383	0.834601	-0.169513
N124	N	0.515773	0.986249	-0.103031
N125	N	0.514346	1.033344	-0.214305
H126	H	0.513499	0.981684	-0.251819
N127	N	1.620836	0.269053	0.189067
N128	N	1.629039	0.187956	0.158833
H129	H	1.664110	0.081586	0.226272
H130	H	1.699000	0.371224	0.000136
H131	H	1.699038	0.371223	0.757198
H132	H	1.434384	0.834601	0.463499
H133	H	1.610845	0.638718	0.659320
N134	N	0.609387	1.391703	0.188998
N135	N	0.565960	1.356459	0.272452
H136	H	0.601023	1.250094	0.339898
N137	N	0.314498	1.907911	0.000092
N138	N	0.225053	1.914320	-0.009273
H139	H	0.154883	1.992153	-0.009246
H140	H	0.422914	1.618032	0.169658
