data_functionalizedCrystal
_audit_creation_method	'MofGen! by Chris Wilmer'
_symmetry_space_group_name_H-M	'P1'
_symmetry_Int_Tables_number	1
_symmetry_cell_setting	triclinic
loop_
_symmetry_equiv_pos_as_xyz
  x,y,z
_cell_length_a	12.759401
_cell_length_b	12.759400
_cell_length_c	11.169409
_cell_angle_alpha	90.033399
_cell_angle_beta	90.019981
_cell_angle_gamma	90.014577
loop_
_atom_site_label
_atom_site_type_symbol
_atom_site_fract_x
_atom_site_fract_y
_atom_site_fract_z
Zn1	Zn	1.606273	-0.418177	0.678539
Zn2	Zn	1.606164	-0.593902	0.477852
Zn3	Zn	1.430570	-0.418239	0.477873
Zn4	Zn	1.430564	-0.593815	0.678496
O5	O	1.518393	-0.506033	0.578190
O6	O	1.753279	-0.441498	0.651927
O7	O	1.582827	-0.570663	0.309905
O8	O	1.453926	-0.271209	0.504518
O9	O	1.753199	-0.570603	0.504483
O10	O	1.583014	-0.271164	0.651947
O11	O	1.453820	-0.441603	0.309920
O12	O	1.283548	-0.441518	0.504477
O13	O	1.453916	-0.570453	0.846452
O14	O	1.283544	-0.570513	0.651874
O15	O	1.583008	-0.441413	0.846483
O16	O	1.582822	-0.740912	0.504442
O17	O	1.453810	-0.740847	0.651854
C18	C	1.245425	-0.506014	0.578174
C19	C	1.128649	-0.506031	0.578195
C20	C	1.073812	-0.573306	0.654818
C21	C	0.964088	-0.573319	0.654831
C22	C	0.964047	-0.438779	0.501588
C23	C	1.073769	-0.438761	0.501582
C24	C	1.128692	-0.640575	0.731431
C25	C	1.073855	-0.707857	0.808059
C26	C	0.964131	-0.707870	0.808072
C27	C	0.909243	-0.640602	0.731457
C28	C	1.518332	-0.779000	0.578167
C29	C	1.518402	-0.895777	0.578197
C30	C	1.585642	-1.060256	0.655067
C31	C	1.585586	-0.950532	0.655033
C32	C	1.451277	-0.950752	0.501382
C33	C	1.451340	-1.060474	0.501411
C34	C	1.652824	-1.115005	0.731916
C35	C	1.719950	-1.060037	0.808730
C36	C	1.719893	-0.950313	0.808696
C37	C	1.652710	-0.895557	0.731848
C38	C	1.792426	-0.506053	0.578207
C39	C	1.909203	-0.506062	0.578214
C40	C	1.518473	-0.505916	0.891233
C41	C	1.518508	-0.505867	1.024633
C42	C	1.518483	-0.232000	0.578239
C43	C	1.518521	-0.115223	0.578260
C44	C	1.518373	-0.506073	0.266365
C45	C	1.518542	-0.505827	0.132966
H46	H	0.919349	-0.384013	0.439211
C47	C	1.377372	-0.890522	0.416865
C48	C	1.422893	-0.815113	0.322669
C49	C	1.348982	-0.754884	0.238155
C50	C	1.229551	-0.770064	0.247837
C51	C	1.184024	-0.845476	0.342037
C52	C	1.257934	-0.905705	0.426551
H53	H	1.511309	-0.803873	0.315498
H54	H	1.382685	-0.699059	0.168422
H55	H	1.174838	-0.725478	0.185275
H56	H	1.095608	-0.856715	0.349208
H57	H	1.224231	-0.961530	0.496284
C58	C	0.903807	-0.781873	0.892361
C59	C	0.828418	-0.736460	0.986690
C60	C	0.768096	-0.810470	1.070976
C61	C	0.783163	-0.929894	1.060934
C62	C	0.858556	-0.975313	0.966601
C63	C	0.918877	-0.901303	0.882315
H64	H	0.817261	-0.648050	0.994127
H65	H	0.712286	-0.776847	1.140807
H66	H	0.738509	-0.984680	1.123327
H67	H	0.869712	-1.063723	0.959164
H68	H	0.974688	-0.934926	0.812484
C69	C	1.377506	-1.120950	0.416928
C70	C	1.423127	-1.196410	0.322772
C71	C	1.349296	-1.256889	0.238284
C72	C	1.229845	-1.241907	0.247951
C73	C	1.184219	-1.166443	0.342111
C74	C	1.258049	-1.105965	0.426599
H75	H	1.511557	-1.207504	0.315613
H76	H	1.383073	-1.312752	0.168581
H77	H	1.175192	-1.286677	0.185408
H78	H	1.095788	-1.155350	0.349270
H79	H	1.224272	-1.050102	0.496302
C80	C	1.134225	-0.781845	0.892337
C81	C	1.254915	-0.781837	0.892328
C82	C	1.315282	-0.855825	0.976609
C83	C	1.254960	-0.929822	1.060900
C84	C	1.134263	-0.929833	1.060912
C85	C	1.073896	-0.855845	0.976631
H86	H	1.299575	-0.727057	0.829928
H87	H	1.404630	-0.855816	0.976599
H88	H	1.299647	-0.984592	1.123290
H89	H	1.089603	-0.984612	1.123312
H90	H	0.984548	-0.855853	0.976641
H91	H	0.819899	-0.640609	0.731484
H92	H	1.118418	-0.383972	0.439198
H93	H	1.774557	-0.905560	0.871232
C94	C	1.793849	-1.120265	0.893256
C95	C	1.876396	-1.195674	0.841359
C96	C	1.950297	-1.255899	0.925887
C97	C	1.941653	-1.240715	1.062311
C98	C	1.859103	-1.165303	1.114215
C99	C	1.785201	-1.105078	1.029688
H100	H	1.882798	-1.206917	0.740363
H101	H	2.011406	-1.311724	0.887463
H102	H	1.996360	-1.285298	1.124884
H103	H	1.852701	-1.154060	1.215211
H104	H	1.724093	-1.049253	1.068111
H105	H	1.218034	-0.640574	0.731427
H106	H	1.652874	-1.204348	0.731956
H107	H	1.652678	-0.806212	0.731817
