data_functionalizedCrystal
_audit_creation_method	'MofGen! by Chris Wilmer'
_symmetry_space_group_name_H-M	'P1'
_symmetry_Int_Tables_number	1
_symmetry_cell_setting	triclinic
loop_
_symmetry_equiv_pos_as_xyz
  x,y,z
_cell_length_a	10.654550
_cell_length_b	13.930277
_cell_length_c	10.654550
_cell_angle_alpha	89.996642
_cell_angle_beta	95.515097
_cell_angle_gamma	90.010740
loop_
_atom_site_label
_atom_site_type_symbol
_atom_site_fract_x
_atom_site_fract_y
_atom_site_fract_z
O1	O	1.667846	0.079907	-0.176398
O2	O	1.302368	0.079892	-0.193204
O3	O	1.493510	0.079896	-0.002062
O4	O	1.476704	0.079903	-0.367540
O5	O	1.493483	-0.079766	-0.002057
O6	O	1.302341	-0.079770	-0.193200
O7	O	1.667819	-0.079755	-0.176393
Zn8	Zn	1.485076	-0.105112	-0.184796
Zn9	Zn	1.485111	0.105249	-0.184802
O10	O	1.476677	-0.079759	-0.367536
C11	C	1.255556	0.000059	-0.191968
C12	C	1.116113	0.000053	-0.188276
N13	N	1.485061	-0.248678	-0.184791
C14	C	1.036627	0.000069	-0.300817
C15	C	0.905607	0.000085	-0.297341
C16	C	0.933570	0.000074	-0.068771
C17	C	1.064588	0.000050	-0.072249
C18	C	1.020482	0.000079	-0.432780
C19	C	0.889461	0.000096	-0.429304
C20	C	1.400470	-0.700950	-0.269406
C21	C	1.569787	-0.700915	-0.100188
C22	C	1.569772	-0.600419	-0.100184
C23	C	1.485106	-0.550184	-0.184793
C24	C	1.400455	-0.600445	-0.269407
C25	C	1.654430	-0.550151	-0.015580
C26	C	1.654420	-0.449649	-0.015574
C27	C	1.569747	-0.399412	-0.100178
C28	C	1.485091	-0.449679	-0.184794
C29	C	1.400425	-0.399444	-0.269404
C30	C	1.315762	-0.449709	-0.354015
C31	C	1.315782	-0.550208	-0.354011
C32	C	1.569727	-0.298913	-0.100182
C33	C	1.400410	-0.298939	-0.269405
C34	C	1.714631	0.000080	-0.177630
C35	C	1.854074	0.000093	-0.181321
C36	C	1.492263	0.000066	0.044739
C37	C	1.488571	0.000070	0.184182
N38	N	1.485136	0.248815	-0.184796
C39	C	1.477925	0.000073	-0.414336
C40	C	1.481616	0.000076	-0.553779
C41	C	1.601112	0.000072	0.263668
C42	C	1.597636	0.000078	0.394688
C43	C	1.369066	0.000077	0.366725
C44	C	1.372544	0.000077	0.235707
C45	C	1.733075	0.000068	0.279813
C46	C	1.729599	0.000075	0.410834
H47	H	1.129302	0.000024	0.019393
H48	H	1.246832	-0.408796	-0.422910
H49	H	1.280902	0.000089	0.170993
F50	F	1.800553	0.087399	0.241431
F51	F	1.310288	-0.245483	-0.359454
F52	F	1.225687	-0.603706	-0.444056
F53	F	1.659899	-0.754378	-0.010152
F54	F	1.744520	-0.396161	0.074477
F55	F	1.787968	-0.090042	0.233240
H56	H	1.331535	-0.741878	-0.338292
H57	H	1.723369	-0.591056	0.053301
H58	H	1.638664	-0.257992	-0.031298
F59	F	0.878722	0.000071	0.054706
H60	H	1.274601	0.000084	0.408693
H61	H	1.049802	-0.066742	-0.484389
H62	H	0.843778	-0.068834	-0.469183
H63	H	1.769491	0.069014	0.456475
H64	H	1.779309	-0.066740	0.452596
H65	H	1.056149	0.069013	-0.474801
H66	H	0.847740	0.066920	-0.479027
