data_functionalizedCrystal
_audit_creation_method	'MofGen! by Chris Wilmer'
_symmetry_space_group_name_H-M	'P1'
_symmetry_Int_Tables_number	1
_symmetry_cell_setting	triclinic
loop_
_symmetry_equiv_pos_as_xyz
  x,y,z
_cell_length_a	12.827893
_cell_length_b	12.759400
_cell_length_c	12.827885
_cell_angle_alpha	90.029377
_cell_angle_beta	90.019082
_cell_angle_gamma	90.013326
loop_
_atom_site_label
_atom_site_type_symbol
_atom_site_fract_x
_atom_site_fract_y
_atom_site_fract_z
Zn1	Zn	1.597686	-0.418211	0.590846
Zn2	Zn	1.597587	-0.593926	0.416108
Zn3	Zn	1.422927	-0.418263	0.416121
Zn4	Zn	1.422919	-0.593849	0.590808
O5	O	1.510280	-0.506062	0.503471
O6	O	1.743909	-0.441531	0.567677
O7	O	1.574380	-0.570678	0.269873
O8	O	1.446154	-0.271235	0.439319
O9	O	1.743836	-0.570628	0.439298
O10	O	1.574548	-0.271197	0.567690
O11	O	1.446058	-0.441619	0.269883
O12	O	1.276690	-0.441544	0.439283
O13	O	1.446141	-0.570496	0.737050
O14	O	1.276684	-0.570546	0.567625
O15	O	1.574541	-0.441456	0.737077
O16	O	1.574372	-0.740937	0.439261
O17	O	1.446044	-0.740880	0.567613
C18	C	1.238770	-0.506043	0.503452
C19	C	1.122617	-0.506060	0.503468
C20	C	0.950812	-0.570010	0.566894
C21	C	1.070863	-0.569994	0.566878
C22	C	1.510225	-0.779030	0.503454
C23	C	1.510297	-0.895806	0.503482
C24	C	1.577119	-0.950569	0.570379
C25	C	1.577167	-1.060293	0.570405
C26	C	1.443570	-1.060482	0.436627
C27	C	1.443517	-0.950760	0.436608
C28	C	1.643899	-0.895615	0.637254
C29	C	1.710727	-0.950377	0.704156
C30	C	1.710775	-1.060102	0.704181
C31	C	1.643996	-1.115063	0.637305
C32	C	1.782850	-0.506082	0.503490
C33	C	1.899003	-0.506091	0.503499
C34	C	1.510351	-0.505961	0.776041
C35	C	1.510381	-0.505918	0.892194
C36	C	1.510363	-0.232029	0.503510
C37	C	1.510399	-0.115252	0.503527
C38	C	1.510269	-0.506087	0.231961
C39	C	1.510441	-0.505834	0.115808
C40	C	1.573925	-0.442053	0.943993
C41	C	1.573957	-0.442007	1.064043
H42	H	1.078069	-0.451329	0.449195
C43	C	1.021819	-0.491427	0.363056
C44	C	0.959097	-0.432197	0.430210
H45	H	1.058920	-0.445805	0.317814
H46	H	0.979213	-0.537109	0.322975
H47	H	1.069873	-0.531525	0.402840
H48	H	0.911037	-0.392105	0.390426
H49	H	1.001706	-0.386497	0.470295
H50	H	1.456040	-0.560519	1.071270
C51	C	1.378204	-0.638750	0.881447
C52	C	1.436966	-0.579689	0.952296
H53	H	1.332875	-0.684289	0.918552
H54	H	1.423672	-0.678995	0.838877
H55	H	1.338198	-0.593017	0.838875
H56	H	1.476978	-0.625423	0.994864
H57	H	1.391492	-0.539441	0.994884
H58	H	0.906292	-0.624750	0.621177
H59	H	1.643869	-0.806272	0.637239
C60	C	1.706129	-0.309183	1.053341
C61	C	1.647405	-0.368189	1.124168
H62	H	1.751477	-0.263615	1.090463
H63	H	1.660637	-0.268971	1.010776
H64	H	1.746111	-0.354949	1.010761
H65	H	1.607416	-0.322423	1.166742
H66	H	1.692903	-0.408405	1.166751
H67	H	1.389202	-1.105240	0.382179
H68	H	1.115417	-0.624713	0.621158
H69	H	1.765090	-0.905622	0.758610
H70	H	1.765181	-1.104686	0.758664
C71	C	1.716786	-1.272139	0.710191
C72	C	1.644039	-1.235674	0.637343
H73	H	1.716815	-1.346598	0.710208
H74	H	1.698665	-1.247275	0.777593
H75	H	1.784220	-1.247287	0.692162
H76	H	1.576603	-1.260520	0.655375
H77	H	1.662154	-1.260549	0.569926
C78	C	1.266576	-0.917136	0.385553
C79	C	1.370065	-0.890554	0.363077
H80	H	1.221228	-0.879970	0.340156
H81	H	1.251251	-0.899119	0.455744
H82	H	1.257063	-0.990348	0.375983
H83	H	1.379580	-0.817343	0.372655
H84	H	1.385395	-0.908565	0.292869
H85	H	1.628298	-0.387405	0.899463
