data_functionalizedCrystal
_audit_creation_method	'MofGen! by Chris Wilmer'
_symmetry_space_group_name_H-M	'P1'
_symmetry_Int_Tables_number	1
_symmetry_cell_setting	triclinic
loop_
_symmetry_equiv_pos_as_xyz
  x,y,z
_cell_length_a	12.759401
_cell_length_b	25.639240
_cell_length_c	12.759393
_cell_angle_alpha	90.044235
_cell_angle_beta	90.019613
_cell_angle_gamma	90.032989
loop_
_atom_site_label
_atom_site_type_symbol
_atom_site_fract_x
_atom_site_fract_y
_atom_site_fract_z
Zn1	Zn	1.606124	-0.208117	0.593920
Zn2	Zn	1.605963	-0.295563	0.418201
Zn3	Zn	1.430426	-0.208144	0.418256
Zn4	Zn	1.430359	-0.295523	0.593839
O5	O	1.518218	-0.251837	0.506054
O6	O	1.753123	-0.219722	0.570622
O7	O	1.582638	-0.283995	0.271188
O8	O	1.453828	-0.134975	0.441615
O9	O	1.753005	-0.283969	0.441522
O10	O	1.582912	-0.134955	0.570675
O11	O	1.453671	-0.219769	0.271228
O12	O	1.283396	-0.219730	0.441537
O13	O	1.453714	-0.283900	0.740871
O14	O	1.283347	-0.283927	0.570537
O15	O	1.582847	-0.219683	0.740931
O16	O	1.582573	-0.368723	0.441443
O17	O	1.453558	-0.368694	0.570484
C18	C	1.245250	-0.251827	0.506035
C19	C	1.128474	-0.251836	0.506051
C20	C	1.073554	-0.285236	0.438737
C21	C	0.963830	-0.285245	0.438755
C22	C	0.963955	-0.218450	0.573405
C23	C	1.073677	-0.218444	0.573391
C24	C	1.128350	-0.318628	0.371398
C25	C	1.073430	-0.352030	0.304077
C26	C	0.963706	-0.352039	0.304096
C27	C	0.908902	-0.318646	0.371434
C28	C	1.518069	-0.387680	0.505972
C29	C	1.518102	-0.445794	0.505972
C30	C	1.585465	-0.806108	0.573377
C31	C	1.585496	-0.860712	0.573398
O32	O	1.642595	-0.888907	0.630624
N33	N	1.518363	-0.888076	0.506156
C34	C	1.451188	-0.860833	0.438895
O35	O	1.394088	-0.889122	0.381703
C36	C	1.451152	-0.806230	0.438880
C37	C	1.518297	-0.778868	0.506119
C38	C	1.652604	-0.778746	0.640611
C39	C	1.652574	-0.724146	0.640588
C40	C	1.585406	-0.696907	0.573331
C41	C	1.518267	-0.724268	0.506096
C42	C	1.383972	-0.778988	0.371625
C43	C	1.383941	-0.724381	0.371617
C44	C	1.451086	-0.697019	0.438856
C45	C	1.451069	-0.642428	0.438816
N46	N	1.518202	-0.615064	0.506058
C47	C	1.585370	-0.642303	0.573316
C48	C	1.451266	-0.975504	0.438934
C49	C	1.451306	-1.030106	0.438943
C50	C	1.585614	-1.029981	0.573448
C51	C	1.585578	-0.975378	0.573432
C52	C	1.518399	-0.948139	0.506176
C53	C	1.585303	-0.527638	0.573262
C54	C	1.585270	-0.473033	0.573229
C55	C	1.450959	-0.473162	0.438729
C56	C	1.450995	-0.527763	0.438757
C57	C	1.518171	-0.555000	0.506032
O58	O	1.393997	-0.614198	0.381622
O59	O	1.642450	-0.614007	0.630508
C60	C	1.792251	-0.251847	0.506075
C61	C	1.909027	-0.251851	0.506083
C62	C	1.518291	-0.251784	0.780088
C63	C	1.518323	-0.251762	0.896865
C64	C	1.518395	-0.115464	0.506160
C65	C	1.518471	-0.057350	0.506205
C66	C	1.518205	-0.251852	0.233087
C67	C	1.518377	-0.251727	0.116311
C68	C	1.585572	-0.218321	0.951759
C69	C	1.585597	-0.218302	1.061483
C70	C	1.451120	-0.285170	1.061409
C71	C	1.451091	-0.285185	0.951686
C72	C	1.652803	-0.184897	0.896937
C73	C	1.720059	-0.151453	0.951832
C74	C	1.720084	-0.151435	1.061556
C75	C	1.652853	-0.184859	1.116386
H76	H	1.118394	-0.191246	0.628201
C77	C	1.378047	-0.557541	0.365918
C78	C	1.310706	-0.588896	0.425358
C79	C	1.243495	-0.616337	0.358300
H80	H	1.337942	-0.533558	0.325829
H81	H	1.418245	-0.578879	0.320206
H82	H	1.270511	-0.567560	0.471051
H83	H	1.350782	-0.612889	0.465444
H84	H	1.283694	-0.637675	0.312588
H85	H	1.203398	-0.592350	0.318214
H86	H	1.197803	-0.637618	0.398619
H87	H	1.396274	-0.450976	0.383966
H88	H	0.918993	-0.379240	0.249288
C89	C	1.793001	-0.115219	0.892119
C90	C	1.778606	-0.122401	0.784279
C91	C	1.845791	-0.089034	0.729242
H92	H	1.777740	-0.080065	0.910005
H93	H	1.863610	-0.122875	0.910040
H94	H	1.708014	-0.114741	0.766365
H95	H	1.793875	-0.157548	0.766361
H96	H	1.916400	-0.096689	0.747163
H97	H	1.830525	-0.053882	0.747136
H98	H	1.836040	-0.093905	0.656067
H99	H	1.217693	-0.318623	0.371373
C100	C	1.658210	-0.443421	0.646355
C101	C	1.717014	-0.478968	0.705282
C102	C	1.784203	-0.451711	0.772665
H103	H	1.704093	-0.422118	0.606319
H104	H	1.618006	-0.422127	0.692145
H105	H	1.757215	-0.500253	0.659497
H106	H	1.671159	-0.500272	0.745339
H107	H	1.743999	-0.430417	0.818455
H108	H	1.830079	-0.430409	0.732620
H109	H	1.824102	-0.475825	0.812661
H110	H	0.819557	-0.318659	0.371451
H111	H	1.639996	-0.549808	0.628050
H112	H	1.652793	-0.184910	0.807594
H113	H	1.707300	-0.800919	0.695387
H114	H	0.919325	-0.191262	0.628227
H115	H	1.396641	-1.052379	0.384179
H116	H	1.707246	-0.701871	0.695343
C117	C	1.793211	-0.115105	1.120969
C118	C	1.852097	-0.085849	1.049469
C119	C	1.919489	-0.052382	1.104158
H120	H	1.753184	-0.092268	1.163792
H121	H	1.839027	-0.135090	1.163735
H122	H	1.806288	-0.065865	1.006721
H123	H	1.892146	-0.108672	1.006643
H124	H	1.965304	-0.072368	1.146925
H125	H	1.879453	-0.029548	1.146980
H126	H	1.959458	-0.032531	1.055654
H127	H	1.640253	-0.953103	0.628185
H128	H	1.640304	-1.052169	0.628214
H129	H	1.396384	-0.312382	1.106059
C130	C	1.378294	-0.946027	0.365781
C131	C	1.319536	-0.981684	0.306883
C132	C	1.252314	-0.954553	0.239477
H133	H	1.332383	-0.924726	0.405798
H134	H	1.418471	-0.924742	0.319973
H135	H	1.279363	-1.002960	0.352685
H136	H	1.365420	-1.002986	0.266844
H137	H	1.292490	-0.933267	0.193670
H138	H	1.206409	-0.933253	0.279503
H139	H	1.212446	-0.978741	0.199500
H140	H	1.329295	-0.801256	0.316872
C141	C	1.378234	-0.321587	0.892121
C142	C	1.401085	-0.373314	0.918740
C143	C	1.334005	-0.406864	0.863873
H144	H	1.307611	-0.314009	0.910041
H145	H	1.387868	-0.316841	0.818916
H146	H	1.391442	-0.378058	0.991929
H147	H	1.471695	-0.380909	0.900817
H148	H	1.343640	-0.402117	0.790668
H149	H	1.263387	-0.399280	0.881798
H150	H	1.349507	-0.441964	0.881919
C151	C	1.310960	-0.694903	0.298479
C152	C	1.252189	-0.730556	0.239588
C153	C	1.184959	-0.703422	0.172194
H154	H	1.265057	-0.673601	0.338505
H155	H	1.351132	-0.673618	0.252667
H156	H	1.212020	-0.751833	0.285394
H157	H	1.298063	-0.751859	0.199540
H158	H	1.225131	-0.682137	0.126382
H159	H	1.139063	-0.682121	0.212229
H160	H	1.145081	-0.727609	0.132222
H161	H	1.652867	-0.184835	1.205730
H162	H	1.118058	-0.379221	0.249260
