data_functionalizedCrystal
_audit_creation_method	'MofGen! by Chris Wilmer'
_symmetry_space_group_name_H-M	'P1'
_symmetry_Int_Tables_number	1
_symmetry_cell_setting	triclinic
loop_
_symmetry_equiv_pos_as_xyz
  x,y,z
_cell_length_a	18.215407
_cell_length_b	18.215405
_cell_length_c	17.077396
_cell_angle_alpha	89.971420
_cell_angle_beta	89.983192
_cell_angle_gamma	90.020191
loop_
_atom_site_label
_atom_site_type_symbol
_atom_site_fract_x
_atom_site_fract_y
_atom_site_fract_z
Zn1	Zn	1.125082	-0.293034	-0.443786
Zn2	Zn	1.458416	0.040299	-0.110452
Zn3	Zn	1.791749	0.373632	0.222881
Zn4	Zn	1.124995	-0.416108	-0.312520
Zn5	Zn	1.458329	-0.082774	0.020814
Zn6	Zn	1.791662	0.250559	0.354147
Zn7	Zn	1.002015	-0.293054	-0.312540
Zn8	Zn	1.335348	0.040279	0.020793
Zn9	Zn	1.668682	0.373613	0.354127
Zn10	Zn	1.001985	-0.416058	-0.443749
Zn11	Zn	1.335319	-0.082725	-0.110416
Zn12	Zn	1.668652	0.250609	0.222917
O13	O	1.063520	-0.354563	-0.378149
O14	O	1.396853	-0.021230	-0.044815
O15	O	1.730186	0.312103	0.288518
O16	O	1.228055	-0.309373	-0.426380
O17	O	1.561388	0.023961	-0.093046
O18	O	1.894722	0.357294	0.240287
O19	O	1.108658	-0.399813	-0.202675
O20	O	1.441991	-0.066480	0.130658
O21	O	1.775325	0.266853	0.463991
O22	O	1.018389	-0.190067	-0.329974
O23	O	1.351722	0.143266	0.003360
O24	O	1.685056	0.476600	0.336693
O25	O	1.227991	-0.399794	-0.329939
O26	O	1.561325	-0.066461	0.003394
O27	O	1.894658	0.266873	0.336728
O28	O	1.108806	-0.190053	-0.426399
O29	O	1.442139	0.143281	-0.093066
O30	O	1.775473	0.476614	0.240267
O31	O	1.018305	-0.309406	-0.202690
O32	O	1.351638	0.023927	0.130643
O33	O	1.684971	0.357260	0.463976
O34	O	0.899027	-0.309358	-0.329938
O35	O	1.232360	0.023975	0.003395
O36	O	1.565694	0.357308	0.336728
O37	O	1.018338	-0.399710	-0.553601
O38	O	1.351672	-0.066376	-0.220268
O39	O	1.685005	0.266957	0.113066
O40	O	0.899005	-0.399729	-0.426337
O41	O	1.232338	-0.066396	-0.093004
O42	O	1.565672	0.266938	0.240329
O43	O	1.108777	-0.309324	-0.553628
O44	O	1.442110	0.024009	-0.220295
O45	O	1.775444	0.357342	0.113039
O46	O	1.108629	-0.519085	-0.329904
O47	O	1.441963	-0.185752	0.003430
O48	O	1.775296	0.147581	0.336763
O49	O	1.018254	-0.519049	-0.426318
O50	O	1.351587	-0.185716	-0.092984
O51	O	1.684921	0.147618	0.240349
C52	C	0.872313	-0.354541	-0.378137
C53	C	1.205647	-0.021208	-0.044803
C54	C	1.538980	0.312126	0.288530
C55	C	0.790514	-0.354549	-0.378150
C56	C	1.123848	-0.021216	-0.044817
C57	C	1.457181	0.312118	0.288517
C58	C	0.525465	-0.401697	-0.428275
C59	C	0.858798	-0.068363	-0.094941
C60	C	1.192131	0.264970	0.238392
C61	C	0.602323	-0.401690	-0.428271
C62	C	0.935657	-0.068357	-0.094938
C63	C	1.268990	0.264976	0.238396
C64	C	0.602316	-0.307447	-0.328036
C65	C	0.935649	0.025887	0.005297
C66	C	1.268982	0.359220	0.338630
C67	C	0.525458	-0.307457	-0.328037
C68	C	0.858792	0.025876	0.005297
C69	C	1.192125	0.359209	0.338630
C70	C	0.487035	-0.354581	-0.378160
C71	C	0.820368	-0.021248	-0.044827
C72	C	1.153701	0.312085	0.288506
C73	C	0.640751	-0.354564	-0.378156
C74	C	0.974084	-0.021231	-0.044823
C75	C	1.307418	0.312102	0.288511
C76	C	0.724085	-0.354557	-0.378152
C77	C	1.057418	-0.021224	-0.044818
C78	C	1.390751	0.312109	0.288515
C79	C	0.403696	-0.354590	-0.378164
C80	C	0.737029	-0.021256	-0.044831
C81	C	1.070362	0.312077	0.288503
C82	C	1.063449	-0.545770	-0.378122
C83	C	1.396782	-0.212436	-0.044788
C84	C	1.730116	0.120897	0.288545
C85	C	1.063486	-0.627569	-0.378136
C86	C	1.396819	-0.294235	-0.044803
C87	C	1.730153	0.039098	0.288530
C88	C	1.110589	-0.815694	-0.428413
C89	C	1.443922	-0.482361	-0.095080
C90	C	1.777255	-0.149027	0.238254
C91	C	1.110615	-0.892553	-0.428428
C92	C	1.443949	-0.559219	-0.095094
C93	C	1.777282	-0.225886	0.238239
C94	C	1.016541	-0.892681	-0.327933
C95	C	1.349875	-0.559348	0.005401
C96	C	1.683208	-0.226014	0.338734
C97	C	1.016512	-0.815824	-0.327923
C98	C	1.349845	-0.482490	0.005411
C99	C	1.683178	-0.149157	0.338744
C100	C	1.063539	-0.777332	-0.378162
C101	C	1.396873	-0.443999	-0.044828
C102	C	1.730206	-0.110665	0.288505
C103	C	1.063596	-0.931048	-0.378186
C104	C	1.396929	-0.597715	-0.044853
C105	C	1.730263	-0.264382	0.288480
C106	C	1.063625	-1.014382	-0.378202
C107	C	1.396958	-0.681048	-0.044869
C108	C	1.730291	-0.347715	0.288465
C109	C	1.063510	-0.693993	-0.378147
C110	C	1.396843	-0.360660	-0.044814
C111	C	1.730177	-0.027327	0.288519
C112	C	1.255472	-0.354587	-0.378161
C113	C	1.588806	-0.021253	-0.044828
C114	C	1.922139	0.312080	0.288505
C115	C	1.337271	-0.354597	-0.378167
C116	C	1.670605	-0.021263	-0.044833
C117	C	2.003938	0.312070	0.288500
C118	C	1.063564	-0.354509	-0.582893
C119	C	1.396897	-0.021176	-0.249560
C120	C	1.730231	0.312157	0.083774
C121	C	1.063583	-0.354486	-0.670143
C122	C	1.396916	-0.021153	-0.336809
C123	C	1.730250	0.312180	-0.003476
C124	C	1.063610	-0.162611	-0.378193
C125	C	1.396944	0.170723	-0.044860
C126	C	1.730277	0.504056	0.288474
C127	C	1.063649	-0.080812	-0.378212
C128	C	1.396982	0.252522	-0.044878
C129	C	1.730316	0.585855	0.288455
C130	C	1.110676	-0.307419	-0.711148
C131	C	1.444010	0.025915	-0.377815
C132	C	1.777343	0.359248	-0.044482
C133	C	1.110685	-0.307394	-0.793129
C134	C	1.444018	0.025939	-0.459795
C135	C	1.777352	0.359272	-0.126462
C136	C	1.063604	-0.354441	-0.834102
C137	C	1.396937	-0.021108	-0.500769
C138	C	1.730271	0.312225	-0.167436
C139	C	1.016506	-0.401511	-0.793091
C140	C	1.349839	-0.068178	-0.459758
C141	C	1.683172	0.265156	-0.126425
C142	C	1.016494	-0.401531	-0.711112
C143	C	1.349827	-0.068198	-0.377779
C144	C	1.683160	0.265135	-0.044446
C145	C	1.016535	-0.401467	-0.963961
C146	C	1.349869	-0.068133	-0.630628
C147	C	1.683202	0.265200	-0.297295
C148	C	1.016548	-0.401448	-1.045946
C149	C	1.349881	-0.068114	-0.712613
C150	C	1.683215	0.265219	-0.379279
C151	C	1.110727	-0.307330	-1.045978
C152	C	1.444060	0.026004	-0.712645
C153	C	1.777393	0.359337	-0.379311
C154	C	1.110715	-0.307350	-0.963999
C155	C	1.444048	0.025983	-0.630665
C156	C	1.777381	0.359317	-0.297332
C157	C	1.063617	-0.354421	-0.922993
C158	C	1.396950	-0.021087	-0.589660
C159	C	1.730284	0.312246	-0.256327
C160	C	1.063518	-0.354564	-0.174201
C161	C	1.396851	-0.021231	0.159133
C162	C	1.730184	0.312102	0.492466
C163	C	1.063641	-0.354380	-0.086951
C164	C	1.396974	-0.021047	0.246382
C165	C	1.730308	0.312286	0.579715
H166	H	0.633610	-0.440057	-0.469078
H167	H	0.966943	-0.106724	-0.135745
H168	H	1.300276	0.226609	0.197589
Br169	Br	1.174465	-0.944613	-0.496636
Br170	Br	1.507798	-0.611279	-0.163303
Br171	Br	1.841131	-0.277946	0.170031
Br172	Br	0.952604	-0.465357	-0.848697
Br173	Br	1.285937	-0.132024	-0.515364
Br174	Br	1.619271	0.201309	-0.182031
Br175	Br	0.952719	-0.944924	-0.259757
Br176	Br	1.286052	-0.611591	0.073576
Br177	Br	1.619385	-0.278257	0.406909
Br178	Br	0.952644	-0.465291	-1.101553
Br179	Br	1.285978	-0.131957	-0.768220
Br180	Br	1.619311	0.201376	-0.434887
H181	H	0.978195	-0.784587	-0.287002
H182	H	1.311528	-0.451254	0.046332
H183	H	1.644861	-0.117921	0.379665
Br184	Br	0.952574	-0.465406	-0.655461
Br185	Br	1.285908	-0.132073	-0.322127
Br186	Br	1.619241	0.201260	0.011206
Br187	Br	0.473321	-0.465651	-0.496297
Br188	Br	0.806654	-0.132318	-0.162964
Br189	Br	1.139987	0.201015	0.170369
Br190	Br	1.174410	-0.763457	-0.496595
Br191	Br	1.507744	-0.430124	-0.163262
Br192	Br	1.841077	-0.096791	0.170071
Br193	Br	1.174581	-0.243571	-0.655549
Br194	Br	1.507915	0.089762	-0.322216
Br195	Br	1.841248	0.423096	0.011118
H196	H	0.633609	-0.269079	-0.287229
H197	H	0.966943	0.064254	0.046105
H198	H	1.300276	0.397587	0.379438
Br199	Br	1.174634	-0.243548	-0.848776
Br200	Br	1.507968	0.089785	-0.515443
Br201	Br	1.841301	0.423118	-0.182110
Br202	Br	1.174618	-0.243506	-0.908392
Br203	Br	1.507951	0.089827	-0.575058
Br204	Br	1.841284	0.423161	-0.241725
H205	H	0.978172	-0.439785	-0.930577
H206	H	1.311505	-0.106452	-0.597244
H207	H	1.644838	0.226882	-0.263911
Br208	Br	1.174648	-0.243451	-1.101627
Br209	Br	1.507981	0.089882	-0.768293
Br210	Br	1.841315	0.423216	-0.434960
Br211	Br	0.473298	-0.243515	-0.260014
Br212	Br	0.806632	0.089818	0.073319
Br213	Br	1.139965	0.423152	0.406652
