data_functionalizedCrystal
_audit_creation_method	'MofGen! by Chris Wilmer'
_symmetry_space_group_name_H-M	'P1'
_symmetry_Int_Tables_number	1
_symmetry_cell_setting	triclinic
loop_
_symmetry_equiv_pos_as_xyz
  x,y,z
_cell_length_a	19.805407
_cell_length_b	19.077068
_cell_length_c	19.805399
_cell_angle_alpha	92.269429
_cell_angle_beta	89.980427
_cell_angle_gamma	92.327086
loop_
_atom_site_label
_atom_site_type_symbol
_atom_site_fract_x
_atom_site_fract_y
_atom_site_fract_z
Zn1	Zn	1.023904	-0.280218	-0.393534
Zn2	Zn	1.357237	0.053115	-0.060201
Zn3	Zn	1.690571	0.386449	0.273133
Zn4	Zn	1.019269	-0.397917	-0.284888
Zn5	Zn	1.352603	-0.064584	0.048445
Zn6	Zn	1.685936	0.268750	0.381779
Zn7	Zn	0.910718	-0.280237	-0.280359
Zn8	Zn	1.244051	0.053096	0.052974
Zn9	Zn	1.577385	0.386429	0.386307
Zn10	Zn	0.906134	-0.397880	-0.398033
Zn11	Zn	1.239467	-0.064546	-0.064700
Zn12	Zn	1.572801	0.268787	0.268633
O13	O	0.965006	-0.339063	-0.339204
O14	O	1.298340	-0.005730	-0.005870
O15	O	1.631673	0.327604	0.327463
O16	O	1.118005	-0.295839	-0.379134
O17	O	1.451339	0.037495	-0.045801
O18	O	1.784672	0.370828	0.287533
O19	O	1.004848	-0.382330	-0.189571
O20	O	1.338182	-0.048997	0.143762
O21	O	1.671515	0.284336	0.477095
O22	O	0.929590	-0.181744	-0.291594
O23	O	1.262924	0.151590	0.041740
O24	O	1.596257	0.484923	0.375073
O25	O	1.114600	-0.382312	-0.299312
O26	O	1.447934	-0.048978	0.034021
O27	O	1.781267	0.284355	0.367354
O28	O	1.012748	-0.181729	-0.374743
O29	O	1.346081	0.151604	-0.041409
O30	O	1.679414	0.484937	0.291924
O31	O	0.925096	-0.295872	-0.186244
O32	O	1.258429	0.037462	0.147089
O33	O	1.591763	0.370795	0.480422
O34	O	0.815394	-0.295835	-0.295957
O35	O	1.148727	0.037498	0.037377
O36	O	1.482060	0.370831	0.370710
O37	O	0.921778	-0.382248	-0.492152
O38	O	1.255111	-0.048915	-0.158819
O39	O	1.588444	0.284419	0.174515
O40	O	0.812026	-0.382267	-0.382411
O41	O	1.145359	-0.048933	-0.049078
O42	O	1.478692	0.284400	0.284255
O43	O	1.008303	-0.295802	-0.488846
O44	O	1.341636	0.037531	-0.155513
O45	O	1.674970	0.370864	0.177820
O46	O	1.000404	-0.496403	-0.303675
O47	O	1.333737	-0.163070	0.029658
O48	O	1.667070	0.170263	0.362992
O49	O	0.917284	-0.496376	-0.386802
O50	O	1.250617	-0.163043	-0.053469
O51	O	1.583950	0.170291	0.279864
C52	C	0.789151	-0.339050	-0.339181
C53	C	1.122484	-0.005716	-0.005848
C54	C	1.455817	0.327617	0.327486
C55	C	0.713918	-0.339061	-0.339188
C56	C	1.047252	-0.005727	-0.005855
C57	C	1.380585	0.327606	0.327478
C58	C	0.957862	-0.521927	-0.346233
C59	C	1.291195	-0.188594	-0.012900
C60	C	1.624528	0.144739	0.320433
C61	C	0.954867	-0.600157	-0.349263
C62	C	1.288200	-0.266824	-0.015930
C63	C	1.621534	0.066509	0.317404
C64	C	0.676836	-0.384133	-0.384138
C65	C	1.010169	-0.050800	-0.050804
C66	C	1.343502	0.282533	0.282529
C67	C	0.606147	-0.384135	-0.384147
C68	C	0.939481	-0.050801	-0.050814
C69	C	1.272814	0.282532	0.282519
C70	C	0.572543	-0.339066	-0.339204
C71	C	0.905876	-0.005733	-0.005870
C72	C	1.239209	0.327600	0.327463
C73	C	0.609630	-0.293989	-0.294252
C74	C	0.942964	0.039345	0.039081
C75	C	1.276297	0.372678	0.372415
C76	C	0.680318	-0.293985	-0.294246
C77	C	1.013651	0.039349	0.039087
C78	C	1.346984	0.372682	0.372420
C79	C	0.324556	-0.294004	-0.294275
C80	C	0.657890	0.039329	0.039058
C81	C	0.991223	0.372662	0.372392
C82	C	0.253864	-0.294014	-0.294283
C83	C	0.587197	0.039320	0.039050
C84	C	0.920531	0.372653	0.372384
C85	C	0.250386	-0.384154	-0.384176
C86	C	0.583719	-0.050821	-0.050843
C87	C	0.917053	0.282512	0.282491
C88	C	0.321073	-0.384150	-0.384170
C89	C	0.654407	-0.050817	-0.050837
C90	C	0.987740	0.282517	0.282496
C91	C	0.358155	-0.339070	-0.339221
C92	C	0.691488	-0.005737	-0.005888
C93	C	1.024822	0.327596	0.327445
C94	C	0.434804	-0.339069	-0.339212
C95	C	0.768137	-0.005735	-0.005879
C96	C	1.101470	0.327598	0.327454
C97	C	0.495895	-0.339071	-0.339209
C98	C	0.829229	-0.005738	-0.005875
C99	C	1.162562	0.327596	0.327458
C100	C	0.996770	-0.636901	-0.307443
C101	C	1.330103	-0.303568	0.025891
C102	C	1.663437	0.029766	0.359224
C103	C	0.993957	-0.710406	-0.310296
C104	C	1.327291	-0.377073	0.023037
C105	C	1.660624	-0.043740	0.356370
C106	C	0.949238	-0.747167	-0.354968
C107	C	1.282571	-0.413834	-0.021634
C108	C	1.615905	-0.080500	0.311699
C109	C	0.907333	-0.710418	-0.396793
C110	C	1.240667	-0.377085	-0.063460
C111	C	1.574000	-0.043752	0.269874
C112	C	0.910150	-0.636914	-0.393942
C113	C	1.243483	-0.303581	-0.060609
C114	C	1.576817	0.029753	0.272725
C115	C	0.936174	-0.967002	-0.368135
C116	C	1.269507	-0.633668	-0.034801
C117	C	1.602840	-0.300335	0.298532
C118	C	0.933359	-1.040511	-0.370981
C119	C	1.266692	-0.707178	-0.037647
C120	C	1.600025	-0.373844	0.295686
C121	C	1.019984	-1.040494	-0.284485
C122	C	1.353317	-0.707161	0.048849
C123	C	1.686651	-0.373828	0.382182
C124	C	1.022794	-0.966989	-0.281635
C125	C	1.356127	-0.633655	0.051698
C126	C	1.689460	-0.300322	0.385032
C127	C	0.980892	-0.930246	-0.323463
C128	C	1.314225	-0.596913	0.009871
C129	C	1.647558	-0.263580	0.343204
N130	N	0.946361	-0.822301	-0.357884
N131	N	1.279694	-0.488968	-0.024551
N132	N	1.613027	-0.155635	0.308782
N133	N	0.983773	-0.855113	-0.320549
N134	N	1.317106	-0.521780	0.012784
N135	N	1.650440	-0.188447	0.346118
C136	C	1.141548	-0.339077	-0.339226
C137	C	1.474882	-0.005744	-0.005893
C138	C	1.808215	0.327590	0.327440
C139	C	1.216780	-0.339083	-0.339236
C140	C	1.550114	-0.005750	-0.005903
C141	C	1.883447	0.327584	0.327430
C142	C	0.965046	-0.339019	-0.515745
C143	C	1.298379	-0.005685	-0.182411
C144	C	1.631713	0.327648	0.150922
C145	C	0.965063	-0.339000	-0.590976
C146	C	1.298396	-0.005667	-0.257643
C147	C	1.631730	0.327667	0.075691
C148	C	0.972197	-0.155485	-0.332161
C149	C	1.305531	0.177849	0.001172
C150	C	1.638864	0.511182	0.334505
C151	C	0.975262	-0.077255	-0.329160
C152	C	1.308595	0.256079	0.004173
C153	C	1.641928	0.589412	0.337506
C154	C	1.010118	-0.293985	-0.624600
C155	C	1.343451	0.039348	-0.291267
C156	C	1.676784	0.372681	0.042067
C157	C	1.010125	-0.293965	-0.695288
C158	C	1.343459	0.039368	-0.361954
C159	C	1.676792	0.372702	-0.028621
C160	C	0.965081	-0.338963	-0.732350
C161	C	1.298414	-0.005630	-0.399017
C162	C	1.631748	0.327704	-0.065683
C163	C	0.920022	-0.383980	-0.698721
C164	C	1.253355	-0.050646	-0.365388
C165	C	1.586688	0.282687	-0.032055
C166	C	0.920011	-0.383996	-0.628035
C167	C	1.253344	-0.050663	-0.294701
C168	C	1.586678	0.282671	0.038632
C169	C	0.920062	-0.383914	-0.983792
C170	C	1.253396	-0.050581	-0.650459
C171	C	1.586729	0.282753	-0.317126
C172	C	0.920078	-0.383896	-1.054484
C173	C	1.253411	-0.050562	-0.721150
C174	C	1.586744	0.282771	-0.387817
C175	C	1.010177	-0.293883	-1.051045
C176	C	1.343510	0.039450	-0.717712
C177	C	1.676843	0.372784	-0.384378
C178	C	1.010166	-0.293899	-0.980358
C179	C	1.343499	0.039434	-0.647025
C180	C	1.676833	0.372767	-0.313692
C181	C	0.965104	-0.338913	-0.946736
C182	C	1.298438	-0.005580	-0.613402
C183	C	1.631771	0.327754	-0.280069
C184	C	0.965096	-0.338934	-0.870088
C185	C	1.298429	-0.005600	-0.536755
C186	C	1.631762	0.327733	-0.203421
C187	C	0.965093	-0.338947	-0.808997
C188	C	1.298426	-0.005613	-0.475663
C189	C	1.631759	0.327720	-0.142330
C190	C	0.965008	-0.339056	-0.163347
C191	C	1.298341	-0.005723	0.169986
C192	C	1.631674	0.327610	0.503319
C193	C	0.965130	-0.338877	-0.088109
C194	C	1.298463	-0.005544	0.245225
C195	C	1.631796	0.327790	0.578558
H196	H	0.704191	-0.420836	-0.420734
H197	H	1.037525	-0.087502	-0.087401
H198	H	1.370858	0.245831	0.245933
H199	H	0.876029	-0.606998	-0.427998
H200	H	1.209362	-0.273665	-0.094664
H201	H	1.542696	0.059669	0.238669
H202	H	0.226505	-0.257309	-0.257684
H203	H	0.559839	0.076024	0.075649
H204	H	0.893172	0.409357	0.408982
H205	H	0.883316	-0.420644	-0.600659
H206	H	1.216650	-0.087311	-0.267326
H207	H	1.549983	0.246022	0.066008
C208	C	1.040050	-0.750821	-0.264286
C209	C	1.373383	-0.417488	0.069048
C210	C	1.706716	-0.084154	0.402381
N211	N	1.074768	-0.781261	-0.229627
N212	N	1.408101	-0.447928	0.103706
N213	N	1.741434	-0.114594	0.437039
C214	C	0.890114	-0.926595	-0.414181
C215	C	1.223447	-0.593261	-0.080848
C216	C	1.556781	-0.259928	0.252486
N217	N	0.855433	-0.896158	-0.448879
N218	N	1.188766	-0.562824	-0.115545
N219	N	1.522099	-0.229491	0.217788
C220	C	0.572663	-0.244411	-0.244815
C221	C	0.905996	0.088922	0.088518
C222	C	1.239329	0.422255	0.421852
N223	N	0.544819	-0.207070	-0.207577
N224	N	0.878153	0.126263	0.125757
N225	N	1.211486	0.459596	0.459090
C226	C	0.365337	-0.244420	-0.244826
C227	C	0.698670	0.088914	0.088507
C228	C	1.032004	0.422247	0.421841
N229	N	0.396055	-0.207071	-0.207577
N230	N	0.729389	0.126262	0.125756
N231	N	1.062722	0.459596	0.459089
C232	C	0.870466	-0.433471	-0.739493
C233	C	1.203799	-0.100138	-0.406159
C234	C	1.537133	0.233196	-0.072826
N235	N	0.833140	-0.470749	-0.770201
N236	N	1.166473	-0.137416	-0.436868
N237	N	1.499806	0.195918	-0.103534
H238	H	0.883394	-0.420540	-1.084658
H239	H	1.216728	-0.087207	-0.751325
H240	H	1.550061	0.246127	-0.417992
H241	H	0.575957	-0.420838	-0.420749
H242	H	0.909291	-0.087504	-0.087416
H243	H	1.242624	0.245829	0.245918
C244	C	0.358034	-0.433730	-0.433611
C245	C	0.691368	-0.100396	-0.100277
C246	C	1.024701	0.232937	0.233056
N247	N	0.385872	-0.471072	-0.470852
N248	N	0.719206	-0.137739	-0.137519
N249	N	1.052539	0.195594	0.195814
C250	C	0.721108	-0.244403	-0.244797
C251	C	1.054442	0.088931	0.088536
C252	C	1.387775	0.422264	0.421870
N253	N	0.751831	-0.207055	-0.207551
N254	N	1.085164	0.126278	0.125782
N255	N	1.418498	0.459612	0.459115
C256	C	1.066075	-1.080917	-0.238480
C257	C	1.399408	-0.747583	0.094854
C258	C	1.732742	-0.414250	0.428187
N259	N	1.100794	-1.111363	-0.203828
N260	N	1.434128	-0.778030	0.129505
N261	N	1.767461	-0.444697	0.462839
H262	H	0.896951	-1.070439	-0.407369
H263	H	1.230284	-0.737106	-0.074036
H264	H	1.563618	-0.403773	0.259297
C265	C	0.209590	-0.433738	-0.433627
C266	C	0.542923	-0.100405	-0.100293
C267	C	0.876257	0.232929	0.233040
N268	N	0.178864	-0.471084	-0.470871
N269	N	0.512197	-0.137750	-0.137538
N270	N	0.845530	0.195583	0.195796
C271	C	1.045963	-0.596471	-0.258298
C272	C	1.379297	-0.263138	0.075035
C273	C	1.712630	0.070195	0.408368
N274	N	1.083019	-0.566021	-0.221283
N275	N	1.416353	-0.232688	0.112050
N276	N	1.749686	0.100645	0.445384
C277	C	1.059690	-0.244447	-0.732271
C278	C	1.393024	0.088887	-0.398937
C279	C	1.726357	0.422220	-0.065604
N280	N	1.097025	-0.207147	-0.760126
N281	N	1.430358	0.126186	-0.426792
N282	N	1.763691	0.459519	-0.093459
H283	H	1.059207	-0.937060	-0.245260
H284	H	1.392541	-0.603726	0.088073
H285	H	1.725874	-0.270393	0.421407
H286	H	0.870925	-0.740354	-0.433168
H287	H	1.204258	-0.407021	-0.099835
H288	H	1.537592	-0.073688	0.233498
H289	H	1.046800	-0.257345	-0.594428
H290	H	1.380133	0.075988	-0.261095
H291	H	1.713467	0.409322	0.072238
H292	H	1.046848	-0.257260	-0.950185
H293	H	1.380181	0.076074	-0.616852
H294	H	1.713515	0.409407	-0.283519
H295	H	1.046866	-0.257228	-1.078429
H296	H	1.380199	0.076105	-0.745096
H297	H	1.713532	0.409438	-0.411762
H298	H	0.883380	-0.420577	-0.956426
H299	H	1.216713	-0.087244	-0.623092
H300	H	1.550047	0.246090	-0.289759
