data_functionalizedCrystal
_audit_creation_method	'MofGen! by Chris Wilmer'
_symmetry_space_group_name_H-M	'P1'
_symmetry_Int_Tables_number	1
_symmetry_cell_setting	triclinic
loop_
_symmetry_equiv_pos_as_xyz
  x,y,z
_cell_length_a	12.827893
_cell_length_b	12.759394
_cell_length_c	12.827885
_cell_angle_alpha	90.029530
_cell_angle_beta	90.019081
_cell_angle_gamma	90.013827
loop_
_atom_site_label
_atom_site_type_symbol
_atom_site_fract_x
_atom_site_fract_y
_atom_site_fract_z
Zn1	Zn	1.597681	-0.418216	0.590845
Zn2	Zn	1.597580	-0.593932	0.416106
Zn3	Zn	1.422922	-0.418268	0.416119
Zn4	Zn	1.422912	-0.593854	0.590807
O5	O	1.510274	-0.506067	0.503469
O6	O	1.743903	-0.441537	0.567676
O7	O	1.574373	-0.570684	0.269872
O8	O	1.446151	-0.271240	0.439319
O9	O	1.743829	-0.570634	0.439296
O10	O	1.574545	-0.271202	0.567689
O11	O	1.446053	-0.441624	0.269882
O12	O	1.276685	-0.441548	0.439282
O13	O	1.446134	-0.570501	0.737048
O14	O	1.276677	-0.570551	0.567624
O15	O	1.574535	-0.441461	0.737076
O16	O	1.574363	-0.740943	0.439259
O17	O	1.446036	-0.740885	0.567611
C18	C	1.238764	-0.506047	0.503450
C19	C	1.122611	-0.506064	0.503467
C20	C	0.950818	-0.442314	0.567108
C21	C	1.070868	-0.442296	0.567093
C22	C	1.510216	-0.779035	0.503452
C23	C	1.510286	-0.895812	0.503480
C24	C	1.643883	-0.895614	0.637252
C25	C	1.710715	-0.950376	0.704146
C26	C	1.710777	-1.060098	0.704169
C27	C	1.643998	-1.115060	0.637292
C28	C	1.577167	-1.060298	0.570398
C29	C	1.577114	-0.950574	0.570381
C30	C	1.443566	-1.060495	0.436633
C31	C	1.443508	-0.950774	0.436603
C32	C	1.376787	-1.115457	0.369756
C33	C	1.309959	-1.060695	0.302856
C34	C	1.309901	-0.950967	0.302835
C35	C	1.376676	-0.896012	0.369709
C36	C	1.782844	-0.506089	0.503489
C37	C	1.898997	-0.506098	0.503498
C38	C	1.510345	-0.505967	0.776040
C39	C	1.510375	-0.505924	0.892193
C40	C	1.510360	-0.232034	0.503510
C41	C	1.510397	-0.115257	0.503527
C42	C	1.510263	-0.506092	0.231960
C43	C	1.510435	-0.505839	0.115807
C44	C	1.573919	-0.442058	0.943992
C45	C	1.573952	-0.442012	1.064042
H46	H	0.943507	-0.560697	0.449032
H47	H	1.765084	-0.905617	0.758598
H48	H	1.376839	-1.204798	0.369783
H49	H	1.376639	-0.806670	0.369695
H50	H	1.456034	-0.560524	1.071268
H51	H	1.255475	-0.906385	0.248366
H52	H	1.078052	-0.560672	0.449003
H53	H	1.115433	-0.387684	0.621547
H54	H	1.643849	-0.806273	0.637231
H55	H	0.906308	-0.387725	0.621584
H56	H	1.628358	-0.387338	1.108588
H57	H	1.455990	-0.560560	0.936723
H58	H	1.765186	-1.104685	0.758650
H59	H	1.644046	-1.204401	0.637325
H60	H	1.628294	-0.387411	0.899462
H61	H	1.255589	-1.105454	0.248415
