data_functionalizedCrystal
_audit_creation_method	'MofGen! by Chris Wilmer'
_symmetry_space_group_name_H-M	'P1'
_symmetry_Int_Tables_number	1
_symmetry_cell_setting	triclinic
loop_
_symmetry_equiv_pos_as_xyz
  x,y,z
_cell_length_a	17.038272
_cell_length_b	16.098524
_cell_length_c	9.065218
_cell_angle_alpha	86.973909
_cell_angle_beta	91.936279
_cell_angle_gamma	92.870584
loop_
_atom_site_label
_atom_site_type_symbol
_atom_site_fract_x
_atom_site_fract_y
_atom_site_fract_z
O1	O	1.042842	0.069147	-0.326926
O2	O	0.815176	0.069171	-0.321837
O3	O	0.933715	0.069157	-0.110211
O4	O	0.924303	0.069161	-0.538552
O5	O	0.927374	-0.069356	-0.097631
O6	O	0.808835	-0.069342	-0.309257
O7	O	1.036501	-0.069366	-0.314347
Zn8	Zn	0.921661	-0.091346	-0.309805
Zn9	Zn	0.930016	0.091151	-0.326378
O10	O	0.917962	-0.069352	-0.525972
C11	C	0.782844	-0.000082	-0.310916
C12	C	0.695952	-0.000073	-0.297101
C13	C	0.646753	-0.000072	-0.423949
C14	C	0.565108	-0.000084	-0.410958
C15	C	0.532664	-0.000090	-0.271117
C16	C	0.581868	-0.000093	-0.144260
C17	C	0.663511	-0.000087	-0.157252
C18	C	0.286573	-0.000113	-0.225217
C19	C	0.204924	-0.000116	-0.212235
C20	C	0.188170	-0.000108	-0.478934
C21	C	0.269815	-0.000097	-0.491915
C22	C	0.319013	-0.000105	-0.365056
C23	C	0.449210	-0.000099	-0.257835
C24	C	0.402465	-0.000101	-0.378340
N25	N	0.915965	-0.215895	-0.298493
C26	C	0.962065	-0.259481	-0.390105
C27	C	0.958091	-0.346670	-0.382184
C28	C	0.908011	-0.390271	-0.282657
C29	C	0.861909	-0.346679	-0.191036
C30	C	0.865888	-0.259492	-0.198950
C31	C	0.893595	-0.653521	-0.253972
C32	C	0.889618	-0.740714	-0.246067
C33	C	0.985801	-0.740699	-0.437214
C34	C	0.989772	-0.653510	-0.445127
C35	C	0.943673	-0.609925	-0.353499
C36	C	0.903946	-0.479392	-0.274561
C37	C	0.947743	-0.520806	-0.361589
C38	C	1.068833	-0.000111	-0.325267
C39	C	1.155726	-0.000115	-0.339083
C40	C	0.929640	-0.000098	-0.048844
C41	C	0.926935	-0.000094	0.115270
N42	N	0.935719	0.215700	-0.337679
C43	C	0.922037	-0.000095	-0.587339
C44	C	0.924742	-0.000094	-0.751454
H45	H	0.703568	-0.000087	-0.053958
H46	H	0.821137	-0.382186	-0.109992
N47	N	0.416080	-0.000091	-0.114984
N48	N	0.460012	-0.000084	-0.001729
H49	H	0.436613	-0.000079	0.099161
N50	N	1.005159	-0.391182	-0.475817
N51	N	0.973056	-0.439822	-0.565163
H52	H	1.006297	-0.471256	-0.631307
N53	N	0.838476	-0.785250	-0.144364
N54	N	0.866132	-0.833901	-0.046197
H55	H	0.830016	-0.865354	0.025630
H56	H	0.856058	-0.618045	-0.179362
N57	N	1.032881	-0.785232	-0.530795
N58	N	1.029323	-0.863077	-0.523723
H59	H	1.062576	-0.894531	-0.589816
H60	H	0.673163	-0.000066	-0.537822
N61	N	1.013227	-0.214960	-0.491775
N62	N	1.054390	-0.253891	-0.573552
H63	H	1.090529	-0.222450	-0.645353
H64	H	1.030555	-0.618015	-0.526168
N65	N	0.435589	-0.000104	-0.521189
N66	N	0.418198	-0.058486	-0.603731
H67	H	0.441597	-0.058487	-0.704622
H68	H	0.988521	-0.485302	-0.442618
H69	H	0.555445	-0.000110	-0.030397
N70	N	0.336823	-0.000097	-0.095645
N71	N	0.386914	0.058294	-0.078442
H72	H	0.422408	0.058307	0.013073
N73	N	0.818809	-0.214980	-0.105331
N74	N	0.774107	-0.253917	-0.016457
H75	H	0.740862	-0.222482	0.049679
H76	H	0.863171	-0.514902	-0.193527
H77	H	0.148105	-0.000103	-0.582214
N78	N	0.302948	-0.000116	-0.634761
N79	N	0.343968	-0.058503	-0.666461
H80	H	0.367366	-0.058516	-0.767351
N81	N	0.514865	-0.000087	-0.540545
N82	N	0.543843	-0.000078	-0.665394
H83	H	0.508359	-0.000082	-0.756922
H84	H	0.178511	-0.000120	-0.098354
