data_functionalizedCrystal
_audit_creation_method	'MofGen! by Chris Wilmer'
_symmetry_space_group_name_H-M	'P1'
_symmetry_Int_Tables_number	1
_symmetry_cell_setting	triclinic
loop_
_symmetry_equiv_pos_as_xyz
  x,y,z
_cell_length_a	19.121241
_cell_length_b	19.120786
_cell_length_c	19.805399
_cell_angle_alpha	87.531070
_cell_angle_beta	87.537729
_cell_angle_gamma	94.790376
loop_
_atom_site_label
_atom_site_type_symbol
_atom_site_fract_x
_atom_site_fract_y
_atom_site_fract_z
Zn1	Zn	1.063748	-0.234359	-0.416871
Zn2	Zn	1.058642	-0.352035	-0.298631
Zn3	Zn	0.946082	-0.239388	-0.298644
Zn4	Zn	0.941028	-0.357005	-0.406732
O5	O	1.002375	-0.295697	-0.355220
O6	O	1.161536	-0.245784	-0.405424
O7	O	1.043688	-0.337117	-0.203914
O8	O	0.965942	-0.140249	-0.318576
O9	O	1.157785	-0.332241	-0.318554
O10	O	1.052392	-0.136555	-0.405437
O11	O	0.960991	-0.254355	-0.203924
O12	O	0.846946	-0.259174	-0.308745
O13	O	0.957330	-0.340711	-0.502795
O14	O	0.843233	-0.345587	-0.388156
O15	O	1.047491	-0.250604	-0.510244
O16	O	1.038788	-0.451166	-0.308722
O17	O	0.952378	-0.454817	-0.388143
C18	C	0.819559	-0.303466	-0.347352
C19	C	0.741348	-0.306807	-0.344001
C20	C	0.994500	-0.478523	-0.347347
C21	C	0.991195	-0.556734	-0.344004
C22	C	1.034619	-0.591495	-0.387691
C23	C	1.031511	-0.664983	-0.384551
C24	C	0.984982	-0.703708	-0.337721
C25	C	0.941554	-0.668942	-0.294032
C26	C	0.944659	-0.595456	-0.297175
C27	C	0.973354	-0.925689	-0.325968
C28	C	0.970254	-0.999180	-0.322827
C29	C	1.060210	-0.995216	-0.413347
C30	C	1.063314	-0.921728	-0.416484
C31	C	1.019883	-0.886969	-0.372797
C32	C	0.981806	-0.778825	-0.334509
C33	C	1.023056	-0.811854	-0.376013
C34	C	0.706556	-0.263435	-0.387719
C35	C	0.633069	-0.266571	-0.384565
C36	C	0.594375	-0.313083	-0.337696
C37	C	0.629173	-0.356457	-0.293974
C38	C	0.702659	-0.353317	-0.297125
C39	C	0.372399	-0.324808	-0.325913
C40	C	0.298908	-0.327946	-0.322767
C41	C	0.302809	-0.238059	-0.413357
C42	C	0.376295	-0.234926	-0.416507
C43	C	0.411087	-0.278297	-0.372782
C44	C	0.519260	-0.316291	-0.334473
C45	C	0.486201	-0.275085	-0.376003
C46	C	1.185906	-0.287897	-0.363118
C47	C	1.264115	-0.284574	-0.366484
C48	C	1.002416	-0.295651	-0.531766
C49	C	1.002434	-0.295631	-0.606999
C50	C	1.010300	-0.112156	-0.363139
C51	C	1.013678	-0.033941	-0.366514
C52	C	1.049382	-0.248710	-0.646224
C53	C	1.049391	-0.248689	-0.716913
C54	C	1.002453	-0.295594	-0.748377
C55	C	0.955500	-0.342517	-0.709148
C56	C	0.955489	-0.342534	-0.638460
C57	C	0.955542	-0.342450	-0.994226
C58	C	0.955558	-0.342431	-1.064920
C59	C	1.049444	-0.248605	-1.072680
C60	C	1.049433	-0.248622	-1.001991
C61	C	1.002478	-0.295542	-0.962768
C62	C	1.002468	-0.295563	-0.886118
C63	C	1.002465	-0.295577	-0.825026
C64	C	1.002377	-0.295690	-0.179364
C65	C	1.002504	-0.295506	-0.104145
H66	H	1.072510	-0.559970	-0.425822
H67	H	0.487748	-0.354161	-0.296312
F68	F	1.072570	-0.770639	-0.425855
H69	H	0.917252	-0.380735	-0.606524
F70	F	1.077720	-0.701976	-0.431056
H71	H	0.943925	-0.810363	-0.296378
H72	H	0.917280	-0.380705	-0.734772
H73	H	0.267405	-0.365825	-0.284600
H74	H	1.101201	-0.890200	-0.454617
F75	F	0.587991	-0.405955	-0.244089
H76	H	1.095568	-1.023525	-0.448915
H77	H	0.932362	-1.030709	-0.284691
F78	F	0.905568	-0.392387	-0.952491
F79	F	0.927126	-0.888705	-0.279478
F80	F	0.892029	-0.710159	-0.244197
F81	F	1.099344	-0.198790	-0.612744
H82	H	0.517708	-0.237213	-0.414160
H83	H	1.087622	-0.210483	-0.748847
H84	H	0.730986	-0.388635	-0.261525
H85	H	1.087657	-0.210430	-0.976377
F86	F	0.265776	-0.191902	-0.459888
H87	H	0.738054	-0.225562	-0.425886
F88	F	1.099417	-0.198665	-1.114429
F89	F	0.417470	-0.185425	-0.466394
F90	F	0.898441	-0.558461	-0.250678
F91	F	0.596043	-0.220409	-0.431097
F92	F	0.905598	-0.392355	-1.098404
H93	H	0.400717	-0.360125	-0.290310
