data_functionalizedCrystal
_audit_creation_method	'MofGen! by Chris Wilmer'
_symmetry_space_group_name_H-M	'P1'
_symmetry_Int_Tables_number	1
_symmetry_cell_setting	triclinic
loop_
_symmetry_equiv_pos_as_xyz
  x,y,z
_cell_length_a	18.215407
_cell_length_b	12.645330
_cell_length_c	18.215399
_cell_angle_alpha	89.976970
_cell_angle_beta	89.980167
_cell_angle_gamma	90.018140
loop_
_atom_site_label
_atom_site_type_symbol
_atom_site_fract_x
_atom_site_fract_y
_atom_site_fract_z
Zn1	Zn	1.125109	-0.422038	-0.416141
Zn2	Zn	1.125033	-0.599320	-0.293085
Zn3	Zn	1.002041	-0.422072	-0.293088
Zn4	Zn	1.002023	-0.599261	-0.416110
O5	O	1.063551	-0.510673	-0.354606
O6	O	1.228083	-0.445565	-0.399829
O7	O	1.108693	-0.575847	-0.190101
O8	O	1.018406	-0.273720	-0.309426
O9	O	1.228027	-0.575813	-0.309421
O10	O	1.108823	-0.273695	-0.399832
O11	O	1.018332	-0.445624	-0.190104
O12	O	0.899055	-0.445566	-0.309396
O13	O	1.018374	-0.575713	-0.519099
O14	O	0.899041	-0.575746	-0.399780
O15	O	1.108805	-0.445507	-0.519121
O16	O	1.108675	-0.747659	-0.309391
O17	O	1.018300	-0.747616	-0.399777
C18	C	0.872345	-0.510654	-0.354585
C19	C	0.790546	-0.510672	-0.354594
C20	C	0.602364	-0.578563	-0.401597
C21	C	0.525506	-0.578567	-0.401606
C22	C	0.525490	-0.442801	-0.307631
C23	C	0.602348	-0.442793	-0.307626
C24	C	0.640783	-0.510680	-0.354608
C25	C	0.487067	-0.510692	-0.354622
C26	C	0.403733	-0.510695	-0.354632
C27	C	0.724122	-0.510676	-0.354600
C28	C	1.063498	-0.786102	-0.354596
C29	C	1.063542	-0.903932	-0.354616
C30	C	1.006922	-1.071513	-0.411653
C31	C	1.006632	-0.948954	-0.411470
C32	C	1.042549	-0.948523	-0.277058
C33	C	1.042203	-1.071122	-0.277404
C34	C	1.141502	-1.071022	-0.374509
C35	C	1.141024	-0.948415	-0.376205
C36	C	1.255504	-0.510692	-0.354628
C37	C	1.337303	-0.510700	-0.354637
C38	C	1.063596	-0.510600	-0.546559
C39	C	1.063615	-0.510568	-0.628358
C40	C	1.063625	-0.234167	-0.354633
C41	C	1.063657	-0.116337	-0.354644
C42	C	1.110720	-0.442707	-0.816565
C43	C	1.110728	-0.442676	-0.893424
C44	C	1.016563	-0.578266	-0.893389
C45	C	1.016551	-0.578290	-0.816532
C46	C	1.063634	-0.510513	-0.778122
C47	C	1.063654	-0.510457	-0.931838
C48	C	1.063663	-0.510424	-1.015172
C49	C	1.063624	-0.510544	-0.694783
C50	C	1.063549	-0.510669	-0.163400
C51	C	1.063672	-0.510401	-0.081602
H52	H	0.633629	-0.387508	-0.269362
C53	C	0.964780	-0.652826	-0.935642
C54	C	0.964794	-0.652808	-1.020182
C55	C	0.913011	-0.727374	-1.062433
C56	C	0.861216	-0.801957	-1.020144
C57	C	0.861200	-0.801978	-0.935599
C58	C	0.912983	-0.727413	-0.893348
H59	H	1.003137	-0.597595	-1.051491
H60	H	0.913023	-0.727358	-1.125019
H61	H	0.822883	-0.857155	-1.051421
H62	H	0.822856	-0.857192	-0.904290
H63	H	0.912971	-0.727429	-0.830762
H64	H	0.978203	-0.633505	-0.785230
C65	C	1.024327	-0.908212	-0.489170
C66	C	1.038825	-0.987231	-0.551820
C67	C	1.056497	-0.946495	-0.629529
C68	C	1.059671	-0.826741	-0.644588
C69	C	1.045173	-0.747715	-0.581936
C70	C	1.027501	-0.788450	-0.504227
H71	H	1.036476	-1.075887	-0.540674
H72	H	1.067229	-1.004997	-0.675908
H73	H	1.072752	-0.796586	-0.702113
H74	H	1.047522	-0.659059	-0.593082
H75	H	1.016768	-0.729949	-0.457848
H76	H	0.494187	-0.387531	-0.269379
C77	C	1.201130	-0.907092	-0.324154
C78	C	1.180819	-0.831892	-0.260856
C79	C	1.240918	-0.790609	-0.208778
C80	C	1.321329	-0.824526	-0.219999
C81	C	1.341645	-0.899730	-0.283300
C82	C	1.281545	-0.941013	-0.335378
H83	H	1.121290	-0.806782	-0.252547
H84	H	1.225879	-0.734938	-0.161918
H85	H	1.365818	-0.793966	-0.181448
H86	H	1.401173	-0.924841	-0.291609
H87	H	1.296584	-0.996684	-0.382238
C88	C	0.928671	-0.909452	-0.393683
C89	C	0.915348	-0.839973	-0.325560
C90	C	0.837384	-0.800474	-0.307768
C91	C	0.772742	-0.830455	-0.358098
C92	C	0.786064	-0.899937	-0.426225
C93	C	0.864028	-0.939436	-0.444017
H94	H	0.963201	-0.817777	-0.288299
H95	H	0.827523	-0.749039	-0.257336
H96	H	0.715029	-0.801215	-0.344928
H97	H	0.738211	-0.922134	-0.463487
H98	H	0.873889	-0.990872	-0.494450
C99	C	1.024500	-1.111239	-0.489604
C100	C	1.090584	-1.184870	-0.502450
C101	C	1.108166	-1.224599	-0.580404
C102	C	1.059664	-1.190696	-0.645512
C103	C	0.993575	-1.117061	-0.632667
C104	C	0.975993	-1.077333	-0.554713
H105	H	1.126492	-1.209970	-0.454252
H106	H	1.157089	-1.279108	-0.589912
H107	H	1.072679	-1.220106	-0.703218
H108	H	0.957667	-1.091961	-0.680865
H109	H	0.927070	-1.022823	-0.545205
H110	H	0.949572	-1.102414	-0.398661
C111	C	0.483245	-0.653242	-0.453294
C112	C	0.525526	-0.727910	-0.504970
C113	C	0.483266	-0.802587	-0.556661
C114	C	0.398726	-0.802596	-0.556675
C115	C	0.356441	-0.727925	-0.504996
C116	C	0.398701	-0.653248	-0.453306
H117	H	0.588111	-0.727906	-0.504962
H118	H	0.514568	-0.857863	-0.594917
H119	H	0.367442	-0.857876	-0.594940
H120	H	0.293855	-0.727929	-0.505005
H121	H	0.367398	-0.597972	-0.415050
H122	H	0.633656	-0.633839	-0.439855
C123	C	0.965329	-1.109890	-0.254676
C124	C	0.956054	-1.179751	-0.186029
C125	C	0.879177	-1.218512	-0.163302
C126	C	0.811575	-1.187413	-0.209222
C127	C	0.820848	-1.117549	-0.277873
C128	C	0.897725	-1.078787	-0.300600
H129	H	1.006099	-1.202775	-0.152033
H130	H	0.872313	-1.270231	-0.112482
H131	H	0.754666	-1.216107	-0.192398
H132	H	0.770803	-1.094524	-0.311869
H133	H	0.904589	-1.027069	-0.351420
C134	C	1.095587	-1.111193	-0.218051
C135	C	1.138394	-1.031635	-0.170489
C136	C	1.191768	-1.071700	-0.111130
C137	C	1.202334	-1.191324	-0.099333
C138	C	1.159526	-1.270890	-0.146897
C139	C	1.106152	-1.230824	-0.206256
H140	H	1.130573	-0.943075	-0.179220
H141	H	1.223457	-1.012800	-0.075920
H142	H	1.241844	-1.220983	-0.055392
H143	H	1.167347	-1.359450	-0.138166
H144	H	1.074463	-1.289725	-0.241466
C145	C	1.096598	-0.909127	-0.218101
C146	C	1.068365	-0.843324	-0.152823
C147	C	1.122414	-0.803925	-0.093868
C148	C	1.204696	-0.830329	-0.100191
C149	C	1.232933	-0.896136	-0.165472
C150	C	1.178884	-0.935535	-0.224427
H151	H	1.007451	-0.823775	-0.148140
H152	H	1.101511	-0.755210	-0.045543
H153	H	1.244707	-0.801164	-0.056549
H154	H	1.293847	-0.915685	-0.170155
H155	H	1.199787	-0.984250	-0.272752
H156	H	0.986237	-0.917912	-0.259925
H157	H	1.160652	-1.101868	-0.430103
C158	C	1.162414	-0.909035	-0.453313
C159	C	1.177254	-0.989090	-0.515246
C160	C	1.198638	-0.949704	-0.592356
C161	C	1.205182	-0.830263	-0.607534
C162	C	1.190342	-0.750201	-0.545600
C163	C	1.168958	-0.789586	-0.468490
H164	H	1.172409	-1.077513	-0.504011
H165	H	1.209623	-1.008972	-0.638203
H166	H	1.221012	-0.801107	-0.664616
H167	H	1.195186	-0.661777	-0.556834
H168	H	1.157972	-0.730318	-0.422643
H169	H	1.183771	-1.100007	-0.332986
C170	C	1.162502	-0.368145	-0.774313
C171	C	1.214292	-0.293555	-0.816604
C172	C	1.266075	-0.218988	-0.774355
C173	C	1.266067	-0.219011	-0.689815
C174	C	1.214275	-0.293603	-0.647519
C175	C	1.162493	-0.368171	-0.689768
H176	H	1.214300	-0.293536	-0.879190
H177	H	1.304415	-0.163770	-0.805665
H178	H	1.304400	-0.163811	-0.658539
H179	H	1.214268	-0.293623	-0.584933
H180	H	1.124153	-0.423389	-0.658458
H181	H	1.149069	-0.387460	-0.924721
