data_functionalizedCrystal
_audit_creation_method	'MofGen! by Chris Wilmer'
_symmetry_space_group_name_H-M	'P1'
_symmetry_Int_Tables_number	1
_symmetry_cell_setting	triclinic
loop_
_symmetry_equiv_pos_as_xyz
  x,y,z
_cell_length_a	16.625548
_cell_length_b	29.839131
_cell_length_c	16.625539
_cell_angle_alpha	89.967906
_cell_angle_beta	89.979432
_cell_angle_gamma	90.042488
loop_
_atom_site_label
_atom_site_type_symbol
_atom_site_fract_x
_atom_site_fract_y
_atom_site_fract_z
Zn1	Zn	1.232574	-0.178840	-0.455888
Zn2	Zn	1.232433	-0.253971	-0.321046
Zn3	Zn	1.097736	-0.178857	-0.321069
Zn4	Zn	1.097662	-0.253945	-0.455836
O5	O	1.165101	-0.216403	-0.388460
O6	O	1.345388	-0.188810	-0.438013
O7	O	1.214537	-0.244025	-0.208217
O8	O	1.115713	-0.115987	-0.338984
O9	O	1.345284	-0.244008	-0.338946
O10	O	1.214778	-0.115975	-0.438035
O11	O	1.115576	-0.188839	-0.208233
O12	O	0.984894	-0.188814	-0.338933
O13	O	1.115586	-0.243964	-0.568676
O14	O	0.984839	-0.243981	-0.437947
O15	O	1.214706	-0.188785	-0.568714
O16	O	1.214465	-0.316834	-0.338896
O17	O	1.115449	-0.316815	-0.437925
C18	C	0.955610	-0.216397	-0.388437
C19	C	0.865989	-0.216405	-0.388447
C20	C	0.537814	-0.216408	-0.388481
C21	C	0.629122	-0.216406	-0.388469
C22	C	0.701899	-0.216406	-0.388463
C23	C	0.793213	-0.216404	-0.388452
C24	C	1.164956	-0.333126	-0.388420
C25	C	1.164967	-0.383060	-0.388430
C26	C	1.216752	-0.692701	-0.336971
C27	C	1.216852	-0.880374	-0.337002
O28	O	1.260766	-0.904636	-0.293219
N29	N	1.165268	-0.903845	-0.388521
C30	C	1.113660	-0.880395	-0.440039
O31	O	1.069793	-0.904665	-0.483866
C32	C	1.113565	-0.692723	-0.440011
C33	C	1.165146	-0.669254	-0.388483
C34	C	1.268330	-0.669232	-0.285447
C35	C	1.268302	-0.622316	-0.285437
C36	C	1.216695	-0.598870	-0.336950
C37	C	1.165118	-0.622339	-0.388473
C38	C	1.061962	-0.669274	-0.491533
C39	C	1.061944	-0.622353	-0.491523
C40	C	1.113525	-0.598884	-0.439995
C41	C	1.113483	-0.551977	-0.439975
N42	N	1.165067	-0.528505	-0.388456
C43	C	1.216673	-0.551952	-0.336944
C44	C	1.113712	-0.978926	-0.440049
C45	C	1.113735	-1.025844	-0.440055
C46	C	1.216928	-1.025819	-0.337019
C47	C	1.216901	-0.978900	-0.337009
C48	C	1.165296	-0.955455	-0.388530
C49	C	1.216609	-0.453426	-0.336925
C50	C	1.216573	-0.406506	-0.336917
C51	C	1.113383	-0.406535	-0.439956
C52	C	1.113416	-0.453451	-0.439962
C53	C	1.165035	-0.476895	-0.388443
O54	O	1.069599	-0.527685	-0.483742
O55	O	1.260546	-0.527674	-0.293136
C56	C	1.216781	-0.739616	-0.336981
C57	C	1.165203	-0.763085	-0.388504
C58	C	1.113597	-0.739639	-0.440017
C59	C	1.165226	-0.810003	-0.388510
C60	C	1.216832	-0.833449	-0.336997
C61	C	1.268416	-0.809978	-0.285479
C62	C	1.268387	-0.763062	-0.285468
C63	C	1.062014	-0.763110	-0.491536
C64	C	1.062046	-0.810026	-0.491541
C65	C	1.113652	-0.833472	-0.440028
C66	C	1.375410	-0.216410	-0.388483
C67	C	1.465031	-0.216413	-0.388493
C68	C	1.165154	-0.216370	-0.598769
C69	C	1.165176	-0.216355	-0.688390
C70	C	1.165269	-0.099225	-0.388518
C71	C	1.165341	-0.049290	-0.388542
C72	C	1.165213	-0.216305	-1.016566
C73	C	1.165201	-0.216320	-0.925257
C74	C	1.165195	-0.216330	-0.852481
C75	C	1.165182	-0.216345	-0.761167
C76	C	1.165095	-0.216404	-0.178969
C77	C	1.165229	-0.216292	-0.089348
H78	H	1.258644	-0.472509	-0.294976
O79	O	1.063650	-1.048708	-0.490029
C80	C	1.074744	-1.095148	-0.479012
H81	H	1.101185	-1.101568	-0.416812
H82	H	1.117664	-1.108419	-0.526880
C83	C	0.960692	-1.111392	-0.562735
C84	C	0.993161	-1.119277	-0.486336
H85	H	0.910370	-1.126277	-0.567256
H86	H	0.953220	-1.080105	-0.570160
H87	H	0.996466	-1.122451	-0.602616
H88	H	0.957393	-1.108213	-0.446457
H89	H	1.000626	-1.150563	-0.478905
H90	H	1.019991	-0.744024	-0.533485
O91	O	1.266759	-0.383779	-0.286836
C92	C	1.312299	-0.414538	-0.241361
H93	H	1.315090	-0.447967	-0.274400
H94	H	1.282810	-0.419570	-0.180098
C95	C	1.394685	-0.355124	-0.189234
C96	C	1.398117	-0.396181	-0.229817
H97	H	1.447620	-0.343800	-0.182109
H98	H	1.364002	-0.334400	-0.219868
H99	H	1.370106	-0.359323	-0.138185
H100	H	1.422686	-0.391981	-0.280868
H101	H	1.428807	-0.416904	-0.199190
H102	H	1.071688	-0.959840	-0.482005
H103	H	1.310389	-0.743957	-0.243509
O104	O	1.318492	-0.599591	-0.235365
C105	C	1.364029	-0.630354	-0.189896
H106	H	1.366805	-0.663784	-0.222935
H107	H	1.334546	-0.635383	-0.128629
C108	C	1.446440	-0.570948	-0.137781
C109	C	1.449855	-0.612006	-0.178363
H110	H	1.499380	-0.559629	-0.130663
H111	H	1.415759	-0.550221	-0.168412
H112	H	1.421867	-0.575144	-0.086729
H113	H	1.474418	-0.607808	-0.229418
H114	H	1.480542	-0.632731	-0.147741
H115	H	1.020035	-0.829130	-0.533501
O116	O	1.318652	-0.832773	-0.235565
C117	C	1.370697	-0.859864	-0.281550
H118	H	1.375603	-0.845694	-0.345055
H119	H	1.345797	-0.895438	-0.284308
C120	C	1.448531	-0.877947	-0.164271
C121	C	1.454562	-0.860541	-0.242268
H122	H	1.500262	-0.878367	-0.140039
H123	H	1.413466	-0.859697	-0.133289
H124	H	1.427778	-0.907591	-0.166580
H125	H	1.475305	-0.830896	-0.239956
H126	H	1.489632	-0.878786	-0.273248
O127	O	1.318377	-0.692067	-0.235409
C128	C	1.272556	-0.719260	-0.183272
H129	H	1.211418	-0.726307	-0.211613
H130	H	1.263767	-0.701224	-0.123483
C131	C	1.392058	-0.755156	-0.133990
C132	C	1.316969	-0.763814	-0.168802
H133	H	1.419454	-0.782638	-0.125061
H134	H	1.422929	-0.736834	-0.169113
H135	H	1.384722	-0.740125	-0.084169
H136	H	1.324305	-0.778840	-0.218626
H137	H	1.286100	-0.782139	-0.133687
O138	O	1.011832	-0.691995	-0.541667
C139	C	0.966276	-0.661231	-0.587114
H140	H	0.999290	-0.627768	-0.589916
H141	H	0.905050	-0.656286	-0.557536
C142	C	0.914074	-0.720607	-0.669488
C143	C	0.954626	-0.679509	-0.672935
H144	H	0.906884	-0.731882	-0.722426
H145	H	0.944763	-0.741334	-0.638868
H146	H	0.863056	-0.716481	-0.644836
H147	H	1.005646	-0.683636	-0.697577
H148	H	0.923944	-0.658783	-0.703561
O149	O	1.011928	-0.599558	-0.541657
C150	C	1.057790	-0.572363	-0.593756
H151	H	1.121301	-0.586462	-0.598794
H152	H	1.060557	-0.536813	-0.568823
C153	C	0.940350	-0.554320	-0.671356
C154	C	1.018353	-0.571638	-0.677548
H155	H	0.916022	-0.553871	-0.723042
H156	H	0.909451	-0.572640	-0.636254
H157	H	0.942667	-0.524696	-0.650575
H158	H	1.016034	-0.601264	-0.698319
H159	H	1.049251	-0.553323	-0.712656
O160	O	1.267082	-1.048668	-0.287103
C161	C	1.256045	-1.095111	-0.298175
H162	H	1.229533	-1.101497	-0.360350
H163	H	1.213208	-1.108490	-0.250271
C164	C	1.370231	-1.111297	-0.214626
C165	C	1.337674	-1.119141	-0.290994
H166	H	1.420582	-1.126121	-0.210193
H167	H	1.377665	-1.080008	-0.207163
H168	H	1.334526	-1.122447	-0.174715
H169	H	1.373374	-1.107987	-0.330903
H170	H	1.330247	-1.150429	-0.298463
O171	O	1.063375	-0.383733	-0.490081
C172	C	1.109253	-0.356541	-0.542170
H173	H	1.172758	-0.370647	-0.547205
H174	H	1.112033	-0.320992	-0.517228
C175	C	0.991827	-0.338477	-0.619776
C176	C	1.069824	-0.355805	-0.625966
H177	H	0.967505	-0.338021	-0.671464
H178	H	0.960918	-0.356795	-0.584681
H179	H	0.994155	-0.308854	-0.598988
H180	H	1.067495	-0.385428	-0.646744
H181	H	1.100733	-0.337491	-0.661066
H182	H	1.258903	-0.959794	-0.295051
H183	H	1.071417	-0.472560	-0.481922
