data_functionalizedCrystal
_audit_creation_method	'MofGen! by Chris Wilmer'
_symmetry_space_group_name_H-M	'P1'
_symmetry_Int_Tables_number	1
_symmetry_cell_setting	triclinic
loop_
_symmetry_equiv_pos_as_xyz
  x,y,z
_cell_length_a	27.440280
_cell_length_b	17.917606
_cell_length_c	27.440280
_cell_angle_alpha	122.989081
_cell_angle_beta	90.007570
_cell_angle_gamma	116.966710
loop_
_atom_site_label
_atom_site_type_symbol
_atom_site_fract_x
_atom_site_fract_y
_atom_site_fract_z
Zr1	Zr	0.493820	-0.818544	-0.088219
O2	O	0.420631	-0.974592	-0.170682
O3	O	0.513041	-0.662512	-0.059724
O4	O	0.517668	-0.818548	-0.166033
O5	O	0.416012	-0.818547	0.015828
O6	O	0.597871	-0.818534	-0.166023
O7	O	0.416004	-0.818556	-0.064374
O8	O	0.589594	-0.539413	0.024144
O9	O	0.424288	-1.097668	-0.174339
O10	O	0.584978	-0.726674	-0.051448
O11	O	0.525130	-0.726678	0.008397
O12	O	0.530577	-0.910391	-0.116767
O13	O	0.470729	-0.910395	-0.056922
Zr14	Zr	0.621746	-0.818508	0.039710
Zr15	Zr	0.621734	-0.818521	-0.088202
Zr16	Zr	0.493833	-0.818531	0.039693
Zr17	Zr	0.499654	-1.014836	-0.094051
Zr18	Zr	0.615913	-0.622216	0.045542
O19	O	0.602525	-0.974540	0.011215
O20	O	0.602507	-0.974560	-0.170659
O21	O	0.420649	-0.974573	0.011191
O22	O	0.694936	-0.662460	0.122173
O23	O	0.694918	-0.662479	-0.059700
O24	O	0.513059	-0.662492	0.122150
O25	O	0.699555	-0.818505	-0.064337
O26	O	0.597898	-0.818504	0.117524
O27	O	0.517696	-0.818518	0.117513
O28	O	0.699562	-0.818496	0.015865
O29	O	0.525963	-1.097650	-0.174326
O30	O	0.589604	-0.539402	0.125817
O31	O	0.691278	-0.539384	0.125830
O32	O	0.691268	-0.539395	0.024158
O33	O	0.424298	-1.097657	-0.072667
O34	O	0.525972	-1.097639	-0.072653
O35	O	0.584989	-0.726661	0.068258
O36	O	0.644838	-0.726657	0.008413
O37	O	0.590437	-0.910374	-0.056906
O38	O	0.530589	-0.910378	0.002939
C39	C	0.550487	-0.572995	-0.016959
C40	C	0.548010	-0.489664	-0.014483
C41	C	0.543486	-0.337096	-0.009961
C42	C	0.572074	-0.299957	-0.038549
C43	C	0.569557	-0.215063	-0.036033
C44	C	0.546002	-0.421998	-0.012476
C45	C	0.397783	-0.818555	-0.024275
C46	C	0.343480	-0.818565	-0.024283
C47	C	0.035178	-0.722610	0.009859
C48	C	-0.015841	-0.722604	0.009864
O49	O	-0.018079	-0.641046	0.038880
N50	N	-0.069754	-0.818502	-0.024233
C51	C	-0.072648	-0.914411	-0.058332
O52	O	-0.123191	-0.995979	-0.087333
C53	C	-0.021630	-0.914416	-0.058334
C54	C	0.032282	-0.818512	-0.024240
C55	C	0.089088	-0.626714	0.043950
C56	C	0.140103	-0.626720	0.043944
C57	C	0.137208	-0.722623	0.009845
C58	C	0.083297	-0.818518	-0.024246
C59	C	-0.024525	-1.010324	-0.092429
C60	C	0.026499	-1.010321	-0.092427
C61	C	0.080412	-0.914417	-0.058333
C62	C	0.131417	-0.914427	-0.058351
N63	N	0.185330	-0.818529	-0.024254
C64	C	0.188226	-0.722627	0.009844
C65	C	-0.179787	-0.914394	-0.058325
C66	C	-0.230805	-0.914390	-0.058328
C67	C	-0.173994	-0.722583	0.009869
C68	C	-0.122976	-0.722588	0.009868
C69	C	-0.125874	-0.818496	-0.024229
C70	C	0.295359	-0.722648	0.009827
C71	C	0.346376	-0.722662	0.009816
C72	C	0.289560	-0.914469	-0.058379
C73	C	0.238548	-0.914455	-0.058370
C74	C	0.241451	-0.818536	-0.024262
O75	O	0.133699	-0.995943	-0.087350
O76	O	0.238770	-0.641073	0.038846
C77	C	0.717784	-0.818497	-0.024234
C78	C	0.772086	-0.818487	-0.024227
C79	C	0.565079	-0.064058	-0.031551
C80	C	0.567551	-0.147394	-0.034029
C81	C	0.557768	-0.818543	-0.184252
C82	C	0.557762	-0.818549	-0.238554
C83	C	0.513596	-0.818519	-0.473246
C84	C	0.513593	-0.818522	-0.422227
O85	O	0.476026	-0.818493	-0.395830
N86	N	0.557775	-0.818521	-0.396708
C87	C	0.601966	-0.818508	-0.422208
O88	O	0.639546	-0.818507	-0.395817
C89	C	0.601970	-0.818498	-0.473224
C90	C	0.557782	-0.818509	-0.498744
C91	C	0.469411	-0.818529	-0.498766
C92	C	0.469414	-0.818529	-0.549782
C93	C	0.513600	-0.818519	-0.575280
C94	C	0.557784	-0.818509	-0.549760
C95	C	0.646163	-0.818478	-0.498720
C96	C	0.646164	-0.818467	-0.549739
C97	C	0.601976	-0.818478	-0.575259
C98	C	0.601973	-0.818499	-0.626274
N99	N	0.557791	-0.818499	-0.651793
C100	C	0.513605	-0.818509	-0.626296
C101	C	0.601954	-0.818527	-0.315070
C102	C	0.601948	-0.818545	-0.264058
C103	C	0.513575	-0.818556	-0.264080
C104	C	0.513579	-0.818546	-0.315096
C105	C	0.557772	-0.818527	-0.340589
C106	C	0.513613	-0.818509	-0.733435
C107	C	0.513618	-0.818513	-0.784458
C108	C	0.601992	-0.818496	-0.784429
C109	C	0.601985	-0.818498	-0.733413
C110	C	0.557793	-0.818500	-0.707916
O111	O	0.639522	-0.818523	-0.652702
O112	O	0.476035	-0.818496	-0.652688
C113	C	0.557799	-0.818509	0.135743
C114	C	0.557804	-0.818503	0.190045
C115	C	0.710487	-0.572967	-0.016938
C116	C	0.762313	-0.489626	-0.014455
C117	C	0.550502	-0.572978	0.143039
C118	C	0.548031	-0.489641	0.199817
C119	C	0.710502	-0.572949	0.143060
C120	C	0.762334	-0.489603	0.199845
C121	C	0.405064	-1.064103	-0.191569
C122	C	0.353233	-1.147449	-0.248354
C123	C	0.405080	-1.064085	-0.031571
C124	C	0.353253	-1.147426	-0.034054
C125	C	0.565064	-1.064074	-0.191548
C126	C	0.567535	-1.147411	-0.248326
C127	C	0.755405	-0.450497	-0.044541
C128	C	0.804097	-0.372201	-0.042220
C129	C	0.859696	-0.333029	-0.009809
C130	C	0.866603	-0.372165	0.020278
C131	C	0.817912	-0.450466	0.017953
C132	C	0.578117	-0.450497	0.257733
C133	C	0.575793	-0.372204	0.311086
C134	C	0.543386	-0.333052	0.306522
C135	C	0.513297	-0.372204	0.248601
C136	C	0.515618	-0.450501	0.195248
C137	C	0.817920	-0.450460	0.195273
C138	C	0.866627	-0.372158	0.248623
C139	C	0.859745	-0.332995	0.306545
C140	C	0.804153	-0.372145	0.311115
C141	C	0.755448	-0.450451	0.257766
C142	C	0.297647	-1.186601	-0.243782
C143	C	0.248941	-1.264928	-0.297133
C144	C	0.255822	-1.304095	-0.355055
C145	C	0.311414	-1.264940	-0.359625
C146	C	0.360119	-1.186620	-0.306275
C147	C	0.360162	-1.186563	-0.003974
C148	C	0.311471	-1.264881	-0.006309
C149	C	0.255872	-1.304056	-0.038722
C150	C	0.248964	-1.264916	-0.068806
C151	C	0.297655	-1.186604	-0.066474
C152	C	0.599947	-1.186538	-0.243743
C153	C	0.602281	-1.264831	-0.297086
C154	C	0.572198	-1.304001	-0.355013
C155	C	0.539785	-1.264866	-0.359595
C156	C	0.537456	-1.186569	-0.306251
H157	H	0.297731	-0.644541	0.037601
H158	H	0.216229	-1.367822	-0.040616
H159	H	0.624445	-1.154657	-0.196581
O160	O	0.194976	-1.302963	-0.292610
C161	C	0.189790	-1.348247	-0.262480
H162	H	0.234675	-1.312863	-0.233269
H163	H	0.162455	-1.331057	-0.231636
H164	H	0.168046	-1.437436	-0.298170
O165	O	0.797414	-0.334281	-0.071521
C166	C	0.825620	-0.353396	-0.115937
H167	H	0.830015	-0.422019	-0.129594
H168	H	0.799166	-0.374143	-0.158276
H169	H	0.870487	-0.279483	-0.095860
O170	O	0.291008	-1.148398	-0.095596
C171	C	0.315373	-1.038685	-0.052216
H172	H	0.349171	-1.005460	-0.010107
H173	H	0.336807	-0.998106	-0.073672
H174	H	0.279845	-1.023772	-0.037792
O175	O	0.644940	-0.818264	-0.239154
C176	C	0.674559	-0.727060	-0.177268
H177	H	0.645137	-0.696820	-0.158843
H178	H	0.687300	-0.747397	-0.148634
H179	H	0.715191	-0.663214	-0.174284
O180	O	0.603571	-0.338066	-0.069918
C181	C	0.646836	-0.318906	-0.029202
H182	H	0.633412	-0.309061	0.012222
H183	H	0.652643	-0.388502	-0.053897
H184	H	0.689438	-0.243665	-0.013008
H185	H	0.823545	-0.482314	0.042456
O186	O	0.505993	-1.148454	-0.310599
C187	C	0.510358	-1.070984	-0.251102
H188	H	0.551553	-1.036671	-0.216248
H189	H	0.511940	-1.005150	-0.249720
H190	H	0.471112	-1.108484	-0.239226
H191	H	0.823534	-0.482335	0.148115
H192	H	0.433429	-0.818533	-0.478009
O193	O	0.208445	-1.380137	-0.406814
C194	C	0.157911	-1.406303	-0.390351
H195	H	0.167596	-1.337616	-0.341213
H196	H	0.122352	-1.422579	-0.423067
H197	H	0.142919	-1.479870	-0.393462
O198	O	0.512035	-0.298896	0.021436
C199	C	0.516500	-0.221402	0.016992
H200	H	0.528401	-0.234351	-0.025594
H201	H	0.473220	-0.227704	0.013191
H202	H	0.551490	-0.139489	0.059784
H203	H	0.541502	-0.269298	0.349970
H204	H	0.798559	-0.340247	0.358282
H205	H	0.390273	-0.644563	0.037581
H206	H	0.628674	-1.296686	-0.293344
O207	O	0.920654	-0.333955	0.051759
C208	C	0.962142	-0.256470	0.047344
H209	H	0.941226	-0.222258	0.036844
H210	H	0.999535	-0.190569	0.092791
H211	H	0.979213	-0.293926	0.008828
O212	O	0.318022	-1.302901	-0.415919
C213	C	0.289756	-1.283775	-0.446688
H214	H	0.285406	-1.215118	-0.411503
H215	H	0.316139	-1.263070	-0.474322
H216	H	0.244868	-1.357667	-0.479120
H217	H	0.574100	-1.367756	-0.398443
O218	O	0.192423	-0.533464	0.077123
C219	C	0.184026	-0.448829	0.107204
H220	H	0.139332	-0.476955	0.112549
H221	H	0.218631	-0.381752	0.154587
H222	H	0.187325	-0.419342	0.078803
H223	H	0.491120	-0.482363	0.148093
O224	O	0.609598	-0.488448	0.262283
C225	C	0.635657	-0.437085	0.324847
H226	H	0.610196	-0.404815	0.353009
H227	H	0.635709	-0.495831	0.330210
H228	H	0.682136	-0.369080	0.341913
H229	H	-0.079081	-0.644494	0.037636
H230	H	0.477598	-0.818554	-0.335871
H231	H	-0.182155	-0.992499	-0.086094
O232	O	0.091878	-0.533573	0.077152
C233	C	0.064067	-0.527815	0.121170
H234	H	0.063321	-0.582238	0.131164
H235	H	0.088622	-0.442991	0.165416
H236	H	0.017773	-0.553558	0.102526
O237	O	0.644956	-0.818293	-0.809158
C238	C	0.674561	-0.727184	-0.806280
H239	H	0.668339	-0.663515	-0.768262
H240	H	0.722699	-0.696580	-0.795978
H241	H	0.656585	-0.747781	-0.852270
H242	H	0.899409	-0.269233	0.349981
H243	H	0.515293	-1.296771	-0.406766
O244	O	0.604935	-0.334275	0.367356
C245	C	0.565405	-0.353398	0.398175
H246	H	0.520367	-0.422030	0.363028
H247	H	0.579573	-0.374139	0.425762
H248	H	0.564310	-0.279492	0.430656
H249	H	0.477632	-0.818525	-0.805235
H250	H	-0.171644	-0.644494	0.037632
O251	O	0.906969	-0.256829	-0.007477
C252	C	0.904167	-0.166270	0.020037
H253	H	0.875325	-0.166370	0.049928
H254	H	0.949563	-0.092241	0.049790
H255	H	0.885346	-0.166968	-0.017356
O256	O	0.644911	-0.818569	-0.339778
C257	C	0.683910	-0.818544	-0.306301
H258	H	0.661085	-0.851858	-0.281783
H259	H	0.699691	-0.869615	-0.339193
H260	H	0.722488	-0.734142	-0.270857
H261	H	0.486912	-0.340315	0.244894
O262	O	-0.283220	-1.007456	-0.091440
C263	C	-0.327635	-0.986903	-0.084116
H264	H	-0.310202	-0.904486	-0.070157
H265	H	-0.365168	-1.048156	-0.129425
H266	H	-0.343451	-0.991447	-0.046845
H267	H	0.682145	-0.818468	-0.477948
O268	O	0.470664	-0.818417	-0.239306
C269	C	0.470775	-0.727289	-0.219361
H270	H	0.492329	-0.696909	-0.245602
H271	H	0.424285	-0.747784	-0.228393
H272	H	0.495798	-0.663489	-0.167960
O273	O	-0.076840	-1.103581	-0.125553
C274	C	-0.068441	-1.188214	-0.155651
H275	H	-0.023738	-1.160075	-0.130310
H276	H	-0.103031	-1.255276	-0.155952
H277	H	-0.071764	-1.217726	-0.205026
O278	O	0.920595	-0.334322	0.244089
C279	C	0.929604	-0.417892	0.210130
H280	H	0.885993	-0.496220	0.179648
H281	H	0.956072	-0.406098	0.180141
H282	H	0.954032	-0.418937	0.243137
O283	O	0.023712	-1.103462	-0.125455
C284	C	0.051545	-1.109189	-0.085521
H285	H	0.052299	-1.054757	-0.036828
H286	H	0.027004	-1.194006	-0.101585
H287	H	0.097838	-1.083436	-0.085859
O288	O	0.689125	-0.818490	-0.574441
C289	C	0.728131	-0.818450	-0.540961
H290	H	0.705309	-0.851769	-0.516444
H291	H	0.743918	-0.869509	-0.573851
H292	H	0.766704	-0.734042	-0.505516
O293	O	0.186207	-1.007676	-0.091585
C294	C	0.181379	-1.066002	-0.154312
H295	H	0.226494	-1.038741	-0.158616
H296	H	0.157138	-1.153738	-0.176071
H297	H	0.156601	-1.052692	-0.178972
O298	O	0.470626	-0.818565	-0.708766
C299	C	0.431640	-0.818549	-0.742230
H300	H	0.434742	-0.851847	-0.790435
H301	H	0.385609	-0.869639	-0.745667
H302	H	0.443044	-0.734152	-0.717650
H303	H	0.292032	-1.154715	-0.196624
O304	O	0.426462	-0.818484	-0.574474
C305	C	0.387459	-0.818518	-0.541029
H306	H	0.410279	-0.785216	-0.492819
H307	H	0.371681	-0.767441	-0.537607
H308	H	0.348879	-0.902922	-0.565617
H309	H	0.637963	-0.818504	-0.712640
O310	O	0.701442	-0.488457	-0.076078
C311	C	0.705797	-0.437103	-0.102119
H312	H	0.750369	-0.404836	-0.107340
H313	H	0.670946	-0.495852	-0.149255
H314	H	0.699600	-0.369095	-0.070822
O315	O	0.414071	-1.148666	-0.310829
C316	C	0.409694	-1.200054	-0.373395
H317	H	0.365112	-1.232339	-0.401561
H318	H	0.444530	-1.141322	-0.378769
H319	H	0.415898	-1.268052	-0.390447
O320	O	0.701445	-0.488627	0.262177
C321	C	0.673300	-0.598353	0.231261
H322	H	0.707033	-0.619804	0.228261
H323	H	0.645767	-0.620846	0.257655
H324	H	0.644342	-0.643136	0.182870
H325	H	0.405429	-1.154673	0.022424
O326	O	0.318290	-1.302736	0.022978
C327	C	0.377805	-1.251368	0.052079
H328	H	0.402645	-1.172006	0.060619
H329	H	0.384524	-1.237857	0.097869
H330	H	0.394371	-1.302703	0.021281
H331	H	0.203689	-1.296823	-0.095196
H332	H	0.287213	-0.992550	-0.086143
