data_functionalizedCrystal
_audit_creation_method	'MofGen! by Chris Wilmer'
_symmetry_space_group_name_H-M	'P1'
_symmetry_Int_Tables_number	1
_symmetry_cell_setting	triclinic
loop_
_symmetry_equiv_pos_as_xyz
  x,y,z
_cell_length_a	12.594516
_cell_length_b	13.032951
_cell_length_c	13.033431
_cell_angle_alpha	76.684552
_cell_angle_beta	82.821450
_cell_angle_gamma	97.181291
loop_
_atom_site_label
_atom_site_type_symbol
_atom_site_fract_x
_atom_site_fract_y
_atom_site_fract_z
Zn1	Zn	-0.748631	-1.699899	0.806463
Zn2	Zn	-0.900669	-1.677291	0.628865
Zn3	Zn	-0.696782	-1.499782	0.606358
Zn4	Zn	-0.900620	-1.522258	0.783897
O5	O	-0.811675	-1.599807	0.706396
O6	O	-0.790519	-1.845531	0.801768
O7	O	-0.851944	-1.634877	0.477254
O8	O	-0.554724	-1.526383	0.632927
O9	O	-0.902220	-1.828922	0.671288
O10	O	-0.592818	-1.673408	0.779944
O11	O	-0.702149	-1.504461	0.460718
O12	O	-0.702102	-1.354132	0.611045
O13	O	-0.902137	-1.564690	0.935516
O14	O	-0.851861	-1.370644	0.741482
O15	O	-0.790471	-1.695202	0.952095
O16	O	-1.049598	-1.656670	0.649406
O17	O	-1.049562	-1.542768	0.763307
C18	C	-0.771350	-1.323850	0.671373
C19	C	-0.754128	-1.205797	0.656416
C20	C	-1.088205	-1.599736	0.706377
C21	C	-1.206524	-1.599808	0.706416
C22	C	-0.820638	-1.161351	0.714188
C23	C	-0.802840	-1.039337	0.698730
C24	C	-1.275788	-1.537843	0.768316
C25	C	-1.328709	-1.499687	0.668123
C26	C	-1.364419	-1.638063	0.806638
C27	C	-1.257872	-1.561594	0.606166
C28	C	-1.293592	-1.700023	0.744751
C29	C	-1.346476	-1.661895	0.644496
C30	C	-0.534074	-1.599910	0.706442
C31	C	-0.415777	-1.599954	0.706462
C32	C	-0.852082	-1.634975	0.983420
C33	C	-0.869301	-1.649961	1.101471
C34	C	-0.852146	-0.876842	0.741549
C35	C	-0.869358	-0.994895	0.756510
C36	C	-0.820657	-1.607610	1.267938
C37	C	-0.802857	-1.592112	1.145925
C38	C	-0.771446	-1.564766	1.430448
C39	C	-0.754222	-1.549770	1.312395
H40	H	-0.890752	-1.213629	0.775097
C41	C	-0.964089	-1.065498	0.838797
H42	H	-1.003502	-1.021790	0.873043
H43	H	-1.010731	-1.103590	0.803538
H44	H	-0.936467	-1.114664	0.890592
C45	C	-0.708107	-0.968732	0.616447
H46	H	-0.668683	-1.012440	0.582211
H47	H	-0.735717	-0.919560	0.564658
H48	H	-0.661463	-0.930650	0.651721
C49	C	-1.233821	-1.466905	0.838900
H50	H	-1.205012	-1.508876	0.895318
H51	H	-1.178708	-1.411295	0.797016
H52	H	-1.291863	-1.436795	0.867927
H53	H	-0.732799	-1.531113	1.093659
C54	C	-0.659400	-1.135189	0.574137
H55	H	-0.619976	-1.178897	0.539901
H56	H	-0.687011	-1.086016	0.522348
H57	H	-0.612757	-1.097106	0.609411
C58	C	-1.350352	-1.385286	0.624341
H59	H	-1.326173	-1.341295	0.668384
H60	H	-1.312380	-1.357734	0.553587
H61	H	-1.425863	-1.386250	0.624068
C62	C	-1.195614	-1.517822	0.491647
H63	H	-1.120296	-1.517999	0.492334
H64	H	-1.220331	-1.561565	0.447609
H65	H	-1.207789	-1.446880	0.464355
C66	C	-1.388150	-1.732759	0.573724
H67	H	-1.442366	-1.789186	0.615755
H68	H	-1.418052	-1.691050	0.518007
H69	H	-1.329738	-1.761775	0.543760
H70	H	-1.277556	-1.784692	0.777187
C71	C	-1.426834	-1.681697	0.921108
H72	H	-1.402590	-1.637537	0.964972
H73	H	-1.502184	-1.682055	0.920233
H74	H	-1.414212	-1.752415	0.948748
H75	H	-0.890718	-1.668597	1.320206
C76	C	-0.963946	-1.732366	1.172066
H77	H	-0.963491	-1.731980	1.244812
H78	H	-1.030560	-1.714515	1.151955
H79	H	-0.956160	-1.801451	1.162994
C80	C	-0.659579	-1.467374	1.241795
H81	H	-0.660027	-1.467773	1.169051
H82	H	-0.667349	-1.398291	1.250866
H83	H	-0.592965	-1.485241	1.261907
