data_functionalizedCrystal
_audit_creation_method	'MofGen! by Chris Wilmer'
_symmetry_space_group_name_H-M	'P1'
_symmetry_Int_Tables_number	1
_symmetry_cell_setting	triclinic
loop_
_symmetry_equiv_pos_as_xyz
  x,y,z
_cell_length_a	19.288867
_cell_length_b	22.610064
_cell_length_c	19.288865
_cell_angle_alpha	89.996452
_cell_angle_beta	96.863342
_cell_angle_gamma	90.012521
loop_
_atom_site_label
_atom_site_type_symbol
_atom_site_fract_x
_atom_site_fract_y
_atom_site_fract_z
O1	O	0.921358	0.049171	-0.086647
O2	O	1.421358	0.549171	0.413353
O3	O	0.719097	0.049177	-0.098334
O4	O	1.219097	0.549177	0.401666
O5	O	0.826072	0.049162	0.008640
O6	O	1.326072	0.549162	0.508640
O7	O	0.814383	0.049186	-0.193621
O8	O	1.314383	0.549186	0.306379
O9	O	0.826042	-0.049207	0.008628
O10	O	1.326042	0.450793	0.508628
O11	O	0.719067	-0.049192	-0.098346
O12	O	1.219067	0.450808	0.401654
O13	O	0.921328	-0.049199	-0.086659
O14	O	1.421328	0.450801	0.413341
Zn15	Zn	0.820193	-0.064814	-0.092504
Zn16	Zn	1.320193	0.435186	0.407496
Zn17	Zn	0.820232	0.064792	-0.092488
Zn18	Zn	1.320232	0.564792	0.407512
O19	O	0.814353	-0.049183	-0.193633
O20	O	1.314353	0.450817	0.306367
C21	C	0.693206	-0.000007	-0.097964
C22	C	1.193206	0.499993	0.402036
C23	C	0.616102	-0.000005	-0.096834
C24	C	1.116102	0.499995	0.403166
N25	N	0.820171	-0.153266	-0.092515
N26	N	1.320171	0.346734	0.407485
C27	C	0.060553	0.053609	-0.088691
C28	C	0.560553	0.553609	0.411309
C29	C	0.133001	0.053611	-0.089748
C30	C	0.633001	0.553611	0.410252
C31	C	0.169213	-0.000010	-0.090287
C32	C	0.669213	0.499990	0.409713
C33	C	0.132974	-0.053637	-0.089750
C34	C	0.632974	0.446363	0.410250
C35	C	0.060529	-0.053638	-0.088686
C36	C	0.560529	0.446362	0.411314
C37	C	0.278528	-0.041086	-0.132660
C38	C	0.778528	0.458914	0.367340
C39	C	0.350971	-0.041082	-0.133728
C40	C	0.850971	0.458918	0.366272
C41	C	0.392659	-0.000010	-0.093566
C42	C	0.892659	0.499990	0.406434
C43	C	0.361893	0.041070	-0.052344
C44	C	0.861893	0.541070	0.447656
C45	C	0.289448	0.041069	-0.051280
C46	C	0.789448	0.541069	0.448720
C47	C	0.247768	-0.000015	-0.091440
C48	C	0.747768	0.499985	0.408560
C49	C	0.507446	0.053617	-0.095244
C50	C	1.007446	0.553617	0.404756
C51	C	0.579895	0.053617	-0.096297
C52	C	1.079895	0.553617	0.403703
C53	C	0.579866	-0.053633	-0.096306
C54	C	1.079866	0.446367	0.403694
C55	C	0.507419	-0.053631	-0.095246
C56	C	1.007419	0.446369	0.404754
C57	C	0.471213	-0.000005	-0.094718
C58	C	0.971213	0.499995	0.405282
C59	C	0.778222	-0.438111	-0.050463
C60	C	1.278222	0.061889	0.449537
C61	C	0.778216	-0.376191	-0.050466
C62	C	1.278216	0.123809	0.449534
O63	O	0.742521	-0.344170	-0.014714
O64	O	1.242521	0.155830	0.485286
N65	N	0.820200	-0.345218	-0.092493
N66	N	1.320200	0.154782	0.407507
C67	C	0.862198	-0.376169	-0.134513
C68	C	1.362198	0.123831	0.365487
O69	O	0.897909	-0.344138	-0.170259
O70	O	1.397909	0.155862	0.329741
C71	C	0.862208	-0.438087	-0.134505
C72	C	1.362208	0.061913	0.365495
C73	C	0.820216	-0.469057	-0.092482
C74	C	1.320216	0.030943	0.407518
C75	C	0.736234	-0.469081	-0.008442
C76	C	1.236234	0.030919	0.491558
C77	C	0.736240	-0.530996	-0.008440
C78	C	1.236240	-0.030996	0.491560
C79	C	0.778234	-0.561942	-0.050458
C80	C	1.278234	-0.061942	0.449542
C81	C	0.820222	-0.530973	-0.092479
C82	C	1.320222	-0.030973	0.407521
C83	C	0.904210	-0.469036	-0.176522
C84	C	1.404210	0.030964	0.323478
C85	C	0.904217	-0.530959	-0.176510
C86	C	1.404217	-0.030959	0.323490
C87	C	0.862225	-0.561929	-0.134486
C88	C	1.362225	-0.061929	0.365514
C89	C	0.862222	-0.623834	-0.134496
C90	C	1.362222	-0.123834	0.365504
N91	N	0.820238	-0.654807	-0.092470
N92	N	1.320238	-0.154807	0.407530
C93	C	0.778244	-0.623861	-0.050451
C94	C	1.278244	-0.123861	0.449549
C95	C	0.862175	-0.246135	-0.134525
C96	C	1.362175	0.253865	0.365475
C97	C	0.862162	-0.184217	-0.134537
C98	C	1.362162	0.315783	0.365463
C99	C	0.778180	-0.184244	-0.050489
C100	C	1.278180	0.315756	0.449511
C101	C	0.778190	-0.246163	-0.050481
C102	C	1.278190	0.253837	0.449519
C103	C	0.820191	-0.277108	-0.092498
C104	C	1.320191	0.222892	0.407502
C105	C	0.778259	-0.753888	-0.050450
C106	C	1.278259	-0.253888	0.449550
C107	C	0.778266	-0.815809	-0.050454
C108	C	1.278266	-0.315809	0.449546
C109	C	0.862250	-0.815777	-0.134498
C110	C	1.362250	-0.315777	0.365502
C111	C	0.862241	-0.753862	-0.134498
C112	C	1.362241	-0.253862	0.365502
C113	C	0.820243	-0.722919	-0.092468
C114	C	1.320243	-0.222919	0.407532
O115	O	0.897900	-0.655895	-0.170227
O116	O	1.397900	-0.155895	0.329773
O117	O	0.742546	-0.655899	-0.014704
O118	O	1.242546	-0.155899	0.485296
C119	C	0.947219	-0.000013	-0.087029
C120	C	1.447219	0.499987	0.412971
C121	C	1.024323	-0.000012	-0.088159
C122	C	1.524323	0.499988	0.411841
C123	C	0.825681	-0.000024	0.034510
C124	C	1.325681	0.499976	0.534510
C125	C	0.824552	-0.000030	0.111614
C126	C	1.324552	0.499970	0.611614
N127	N	0.820260	0.153245	-0.092472
N128	N	1.320260	0.653245	0.407528
C129	C	0.814744	0.000004	-0.219503
C130	C	1.314744	0.500004	0.280497
C131	C	0.815873	0.000013	-0.296607
C132	C	1.315873	0.500013	0.203393
C133	C	0.887320	-0.000034	0.156310
C134	C	1.387320	0.499966	0.656310
C135	C	0.886259	-0.000025	0.228757
C136	C	1.386259	0.499975	0.728757
C137	C	0.822427	-0.000023	0.256505
C138	C	1.322427	0.499977	0.756505
C139	C	0.759651	-0.000014	0.211799
C140	C	1.259651	0.499986	0.711799
C141	C	0.760713	-0.000018	0.139354
C142	C	1.260713	0.499982	0.639354
C143	C	0.772237	-0.034478	0.364788
C144	C	1.272237	0.465522	0.864788
C145	C	0.771177	-0.034478	0.437233
C146	C	1.271177	0.465522	0.937233
C147	C	0.819147	-0.000009	0.479951
C148	C	1.319147	0.499991	0.979951
C149	C	0.868189	0.034452	0.450216
C150	C	1.368189	0.534452	0.950216
C151	C	0.869252	0.034448	0.377771
C152	C	1.369252	0.534448	0.877771
C153	C	0.821268	-0.000018	0.335059
C154	C	1.321268	0.499982	0.835059
C155	C	0.880769	-0.000003	0.603202
C156	C	1.380769	0.499997	1.103202
C157	C	0.879706	0.000010	0.675650
C158	C	1.379706	0.500010	1.175650
C159	C	0.753096	0.000015	0.658691
C160	C	1.253096	0.500015	1.158691
C161	C	0.754161	0.000008	0.586245
C162	C	1.254161	0.500008	1.086245
C163	C	0.818000	-0.000004	0.558505
C164	C	1.318000	0.499996	1.058505
H165	H	0.031079	0.097275	-0.088259
H166	H	0.531079	0.597275	0.411741
C167	C	0.923188	0.072354	0.345061
C168	C	1.423188	0.572354	0.845061
H169	H	0.916952	0.067410	0.295799
H170	H	1.416952	0.567410	0.795799
H171	H	0.916925	0.112796	0.356110
H172	H	1.416925	0.612796	0.856110
H173	H	0.968968	0.060231	0.363088
H174	H	1.468968	0.560231	0.863088
H175	H	0.477965	0.097282	-0.094812
H176	H	0.977965	0.597282	0.405188
H177	H	0.376013	-0.074520	-0.167310
H178	H	0.876013	0.425480	0.332690
C179	C	0.232677	-0.086266	-0.176844
C180	C	0.732677	0.413734	0.323156
H181	H	0.261373	-0.110724	-0.201555
H182	H	0.761373	0.389276	0.298445
H183	H	0.208336	-0.110028	-0.147105
H184	H	0.708336	0.389972	0.352895
H185	H	0.200042	-0.065914	-0.209144
H186	H	0.700042	0.434086	0.290856
H187	H	0.162463	-0.097296	-0.090187
H188	H	0.662463	0.402704	0.409813
C189	C	0.467527	-0.112612	-0.094908
C190	C	0.967527	0.387388	0.405092
H191	H	0.419186	-0.104933	-0.094265
H192	H	0.919186	0.395067	0.405735
H193	H	0.474048	-0.134511	-0.135653
H194	H	0.974048	0.365489	0.364347
H195	H	0.484721	-0.134778	-0.054654
H196	H	0.984721	0.365222	0.445346
H197	H	0.733172	-0.062549	0.330013
H198	H	1.233172	0.437451	0.830013
C199	C	0.407739	0.086253	-0.008164
C200	C	0.907739	0.586253	0.491836
H201	H	0.455292	0.080368	-0.014694
H202	H	0.955292	0.580368	0.485306
H203	H	0.393962	0.125182	-0.022292
H204	H	0.893962	0.625182	0.477708
H205	H	0.402258	0.081075	0.039753
H206	H	0.902258	0.581075	0.539753
C207	C	0.689437	-0.000014	0.242319
C208	C	1.189437	0.499986	0.742319
H209	H	0.697794	-0.000019	0.291867
H210	H	1.197794	0.499981	0.791867
H211	H	0.663611	0.034290	0.226961
H212	H	1.163611	0.534290	0.726961
H213	H	0.663593	-0.034321	0.226964
H214	H	1.163593	0.465679	0.726964
C215	C	0.920956	0.072373	0.497195
C216	C	1.420956	0.572373	0.997195
H217	H	0.913295	0.067447	0.544599
H218	H	1.413295	0.567447	1.044599
H219	H	0.967083	0.060256	0.491483
H220	H	1.467083	0.560256	0.991483
H221	H	0.915031	0.112815	0.484495
H222	H	1.415031	0.612815	0.984495
H223	H	0.609349	-0.097292	-0.096741
H224	H	1.109349	0.402708	0.403259
C225	C	0.619752	0.112600	-0.096887
C226	C	1.119752	0.612600	0.403113
H227	H	0.668085	0.104922	-0.097589
H228	H	1.168085	0.604922	0.402411
H229	H	0.602460	0.134631	-0.137211
H230	H	1.102460	0.634631	0.362789
H231	H	0.613309	0.134634	-0.056214
H232	H	1.113309	0.634634	0.443786
C233	C	0.255604	0.086248	-0.005938
C234	C	0.755604	0.586248	0.494062
H235	H	0.206489	0.080366	-0.011062
H236	H	0.706489	0.580366	0.488938
H237	H	0.273869	0.081075	0.041629
H238	H	0.773869	0.581075	0.541629
H239	H	0.265568	0.125180	-0.020417
H240	H	0.765568	0.625180	0.479583
C241	C	0.950987	-0.000009	0.572685
C242	C	1.450987	0.499991	1.072685
H243	H	0.988219	-0.000002	0.609684
H244	H	1.488219	0.499998	1.109684
H245	H	0.954024	-0.034315	0.544782
H246	H	1.454024	0.465685	1.044782
H247	H	0.954042	0.034296	0.544772
H248	H	1.454042	0.534296	1.044772
H249	H	0.743996	-0.271374	-0.016262
H250	H	1.243996	0.228626	0.483738
C251	C	0.908345	-0.150155	-0.180768
C252	C	1.408345	0.349845	0.319232
H253	H	0.902328	-0.108845	-0.174760
H254	H	1.402328	0.391155	0.325240
H255	H	0.955909	-0.160293	-0.167742
H256	H	1.455909	0.339707	0.332258
H257	H	0.895283	-0.160307	-0.228327
H258	H	1.395283	0.339693	0.271673
C259	C	0.691666	-0.000018	0.090186
C260	C	1.191666	0.499982	0.590186
H261	H	0.653496	-0.000018	0.117085
H262	H	1.153496	0.499982	0.617085
H263	H	0.689459	0.034282	0.061565
H264	H	1.189459	0.534282	0.561565
H265	H	0.689440	-0.034329	0.061581
H266	H	1.189440	0.465671	0.561581
H267	H	0.744068	-0.841022	-0.016233
H268	H	1.244068	-0.341022	0.483767
C269	C	0.020672	-0.112622	-0.088107
C270	C	0.520672	0.387378	0.411893
H271	H	0.052612	-0.144558	-0.088583
H272	H	0.552612	0.355442	0.411417
H273	H	-0.002169	-0.114856	-0.047199
H274	H	0.497831	0.385144	0.452801
H275	H	-0.013010	-0.114846	-0.128196
H276	H	0.486990	0.385154	0.371804
C277	C	0.732057	-0.719860	-0.004224
C278	C	1.232057	-0.219860	0.495776
H279	H	0.707050	-0.747179	0.020794
H280	H	1.207050	-0.247179	0.520794
H281	H	0.760610	-0.695697	0.027819
H282	H	1.260610	-0.195697	0.527819
H283	H	0.699994	-0.695716	-0.032776
H284	H	1.199994	-0.195716	0.467224
C285	C	0.690063	-0.565055	0.037801
C286	C	1.190063	-0.065055	0.537801
H287	H	0.665064	-0.537750	0.062830
H288	H	1.165064	-0.037750	0.562830
H289	H	0.658004	-0.589224	0.009273
H290	H	1.158004	-0.089224	0.509273
H291	H	0.718642	-0.589195	0.069846
H292	H	1.218642	-0.089195	0.569846
C293	C	0.690033	-0.435050	0.037778
C294	C	1.190033	0.064950	0.537778
H295	H	0.665028	-0.462370	0.062797
H296	H	1.165028	0.037630	0.562797
H297	H	0.718582	-0.410883	0.069820
H298	H	1.218582	0.089117	0.569820
H299	H	0.657967	-0.410909	0.009225
H300	H	1.157967	0.089091	0.509225
C301	C	0.731990	-0.150198	-0.004263
C302	C	1.231990	0.349802	0.495737
H303	H	0.706979	-0.177508	0.020765
H304	H	1.206979	0.322492	0.520765
H305	H	0.760554	-0.126036	0.027770
H306	H	1.260554	0.373964	0.527770
H307	H	0.699929	-0.126053	-0.032816
H308	H	1.199929	0.373947	0.467184
C309	C	0.172862	0.112595	-0.090343
C310	C	0.672862	0.612595	0.409657
H311	H	0.140922	0.144532	-0.089882
H312	H	0.640922	0.644532	0.410118
H313	H	0.206552	0.114827	-0.050266
H314	H	0.706552	0.614827	0.449734
H315	H	0.195693	0.114819	-0.131262
H316	H	0.695693	0.614819	0.368738
C317	C	0.948754	0.000003	0.724817
C318	C	1.448754	0.500003	1.224817
H319	H	0.986923	-0.000010	0.697917
H320	H	1.486923	0.499990	1.197917
H321	H	0.950988	0.034308	0.753427
H322	H	1.450988	0.534308	1.253427
H323	H	0.950954	-0.034303	0.753433
H324	H	1.450954	0.465697	1.253433
H325	H	0.896375	-0.271326	-0.168747
H326	H	1.396375	0.228674	0.331253
H327	H	0.896439	-0.840985	-0.168711
H328	H	1.396439	-0.340985	0.331289
H329	H	0.938406	-0.443832	-0.210741
H330	H	1.438406	0.056168	0.289259
H331	H	0.939302	-0.000042	0.133729
H332	H	1.439302	0.499958	0.633729
H333	H	0.938421	-0.556152	-0.210725
H334	H	1.438421	-0.056152	0.289275
C335	C	0.908432	-0.719794	-0.180720
C336	C	1.408432	-0.219794	0.319280
H337	H	0.933446	-0.747095	-0.205740
H338	H	1.433446	-0.247095	0.294260
H339	H	0.879876	-0.695639	-0.212761
H340	H	1.379876	-0.195639	0.287239
H341	H	0.940490	-0.695639	-0.152164
H342	H	1.440490	-0.195639	0.347836
H343	H	0.701123	0.000020	0.681283
H344	H	1.201123	0.500020	1.181283
C345	C	0.955306	-0.000035	0.277931
C346	C	1.455306	0.499965	0.777931
H347	H	0.993477	-0.000046	0.251034
H348	H	1.493477	0.499954	0.751034
H349	H	0.957538	0.034268	0.306545
H350	H	1.457538	0.534268	0.806545
H351	H	0.957504	-0.034343	0.306544
H352	H	1.457504	0.465657	0.806544
H353	H	0.703049	0.000008	0.549852
H354	H	1.203049	0.500008	1.049852
C355	C	0.717235	-0.072383	0.469934
C356	C	1.217235	0.427617	0.969934
H357	H	0.688809	-0.092903	0.434118
H358	H	1.188809	0.407097	0.934118
H359	H	0.740821	-0.100097	0.501413
H360	H	1.240821	0.399903	1.001413
H361	H	0.688783	-0.047529	0.494437
H362	H	1.188783	0.452471	0.994437
