data_functionalizedCrystal
_audit_creation_method	'MofGen! by Chris Wilmer'
_symmetry_space_group_name_H-M	'P1'
_symmetry_Int_Tables_number	1
_symmetry_cell_setting	triclinic
loop_
_symmetry_equiv_pos_as_xyz
  x,y,z
_cell_length_a	6.817900
_cell_length_b	17.982865
_cell_length_c	16.015572
_cell_angle_alpha	78.164851
_cell_angle_beta	104.485554
_cell_angle_gamma	102.450232
loop_
_atom_site_label
_atom_site_type_symbol
_atom_site_fract_x
_atom_site_fract_y
_atom_site_fract_z
V1	V	-3.990109	-0.030701	-0.269501
V2	V	-3.490109	0.469299	0.230499
O3	O	-3.983615	0.078251	-0.263990
O4	O	-3.483615	0.578251	0.236010
O5	O	-3.936785	-0.134714	-0.268024
O6	O	-3.436785	0.365286	0.231976
O7	O	-3.928046	0.003460	-0.386872
O8	O	-3.428046	0.503460	0.113128
O9	O	-3.992414	-0.060879	-0.144319
O10	O	-3.492414	0.439121	0.355681
V11	V	-4.476145	-0.021649	-0.254484
V12	V	-3.976145	0.478351	0.245516
O13	O	-4.245854	-0.050556	-0.302443
O14	O	-3.745854	0.449444	0.197557
O15	O	-4.670598	-0.001794	-0.221542
O16	O	-4.170598	0.498206	0.278458
O17	O	-4.306263	0.082364	-0.255960
O18	O	-3.806263	0.582364	0.244040
O19	O	-4.600037	-0.130601	-0.259995
O20	O	-4.100037	0.369399	0.240005
O21	O	-4.591238	0.008529	-0.379666
O22	O	-4.091238	0.508529	0.120334
O23	O	-4.315002	-0.055809	-0.137112
O24	O	-3.815002	0.444191	0.362888
C25	C	-3.781029	-0.161123	-0.263867
C26	C	-3.281029	0.338877	0.236133
C27	C	-3.818626	-0.245938	-0.263442
C28	C	-3.318626	0.254062	0.236558
C29	C	-3.769882	0.015132	-0.415469
C30	C	-3.269882	0.515132	0.084531
C31	C	-3.800389	0.042373	-0.511423
C32	C	-3.300389	0.542373	-0.011423
C33	C	-4.018885	-0.777607	-0.181665
C34	C	-3.518885	-0.277607	0.318335
C35	C	-3.983558	-0.697912	-0.182076
C36	C	-3.483558	-0.197912	0.317924
C37	C	-3.996363	-0.647027	-0.261368
C38	C	-3.496363	-0.147027	0.238632
C39	C	-4.044478	-0.675840	-0.340254
C40	C	-3.544478	-0.175840	0.159746
C41	C	-4.079790	-0.755534	-0.339842
C42	C	-3.579790	-0.255534	0.160158
C43	C	-3.902068	-0.354446	-0.341918
C44	C	-3.402068	0.145554	0.158082
C45	C	-3.866758	-0.274748	-0.342324
C46	C	-3.366758	0.225252	0.157676
C47	C	-3.805837	-0.296825	-0.184151
C48	C	-3.305837	0.203175	0.315849
C49	C	-3.841148	-0.376518	-0.183739
C50	C	-3.341148	0.123482	0.316261
C51	C	-3.889250	-0.405324	-0.262625
C52	C	-3.389250	0.094676	0.237375
C53	C	-3.927551	-0.491738	-0.262178
C54	C	-3.427551	0.008262	0.237822
C55	C	-3.958077	-0.560615	-0.261816
C56	C	-3.458077	-0.060615	0.238184
C57	C	-4.077576	-0.199421	-0.889906
C58	C	-3.577576	0.300579	-0.389906
C59	C	-4.106248	-0.173799	-0.980065
C60	C	-3.606248	0.326201	-0.480065
C61	C	-4.035536	-0.041238	-0.954892
C62	C	-3.535536	0.458762	-0.454892
C63	C	-4.006847	-0.066849	-0.864729
C64	C	-3.506847	0.433151	-0.364729
C65	C	-4.027873	-0.145941	-0.832244
C66	C	-3.527873	0.354059	-0.332244
C67	C	-3.957145	-0.013370	-0.807066
C68	C	-3.457145	0.486630	-0.307066
C69	C	-3.928469	-0.038979	-0.716911
C70	C	-3.428469	0.461021	-0.216911
C71	C	-3.949496	-0.118068	-0.684418
C72	C	-3.449496	0.381932	-0.184418
C73	C	-3.999198	-0.171551	-0.742088
C74	C	-3.499198	0.328449	-0.242088
C75	C	-3.936134	0.065722	-0.839554
C76	C	-3.436134	0.565722	-0.339554
C77	C	-3.886431	0.119201	-0.781891
C78	C	-3.386431	0.619201	-0.281891
C79	C	-3.857741	0.093592	-0.691734
C80	C	-3.357741	0.593592	-0.191734
C81	C	-3.878768	0.014503	-0.659241
C82	C	-3.378768	0.514503	-0.159241
C83	C	-3.808039	0.147075	-0.634064
C84	C	-3.308039	0.647075	-0.134064
C85	C	-3.779364	0.121465	-0.543908
C86	C	-3.279364	0.621465	-0.043908
C87	C	-3.850092	-0.011106	-0.569086
C88	C	-3.350092	0.488894	-0.069086
C89	C	-4.125360	0.108768	-0.260115
C90	C	-3.625360	0.608768	0.239885
C91	C	-4.067001	0.193585	-0.260545
C92	C	-3.567001	0.693585	0.239455
C93	C	-4.136509	-0.067485	-0.108511
C94	C	-3.636509	0.432515	0.391489
C95	C	-4.085240	-0.094723	-0.012556
C96	C	-3.585240	0.405277	0.487444
H97	H	-4.008463	-0.819033	-0.117096
H98	H	-3.508463	-0.319033	0.382904
Br99	Br	-3.712012	0.194043	-0.465648
Br100	Br	-3.212012	0.694043	0.034352
H101	H	-3.959454	0.086571	-0.912964
H102	H	-3.459454	0.586571	-0.412964
H103	H	-3.926151	-0.138918	-0.611008
H104	H	-3.426151	0.361082	-0.111008
H105	H	-3.830727	-0.417946	-0.119172
H106	H	-3.330727	0.082054	0.380828
H107	H	-3.941238	-0.377890	-0.406152
H108	H	-3.441238	0.122110	0.093848
H109	H	-3.869325	0.183598	-0.808354
H110	H	-3.369325	0.683598	-0.308354
H111	H	-4.146713	-0.217354	-1.027013
H112	H	-3.646713	0.282646	-0.527013
Br113	Br	-3.878568	-0.118446	-0.524988
Br114	Br	-3.378568	0.381554	-0.024988
Br115	Br	-4.007011	0.066097	-0.998988
Br116	Br	-3.507011	0.566097	-0.498988
H117	H	-3.766657	-0.273362	-0.119919
H118	H	-3.266657	0.226638	0.380081
H119	H	-4.054889	-0.634403	-0.404815
H120	H	-3.554889	-0.134403	0.095185
Br121	Br	-3.918247	-0.658818	-0.075019
Br122	Br	-3.418247	-0.158818	0.424981
H123	H	-3.877196	-0.233318	-0.406897
H124	H	-3.377196	0.266682	0.093103
Br125	Br	-4.145111	-0.794632	-0.446899
Br126	Br	-3.645111	-0.294632	0.053101
H127	H	-4.016292	-0.235955	-0.715637
H128	H	-3.516292	0.264045	-0.215637
H129	H	-4.094670	-0.263825	-0.863455
H130	H	-3.594670	0.236175	-0.363455
H131	H	-3.790946	0.211471	-0.660528
H132	H	-3.290946	0.711471	-0.160528
