data_functionalizedCrystal
_audit_creation_method	'MofGen! by Chris Wilmer'
_symmetry_space_group_name_H-M	'P1'
_symmetry_Int_Tables_number	1
_symmetry_cell_setting	triclinic
loop_
_symmetry_equiv_pos_as_xyz
  x,y,z
_cell_length_a	6.817900
_cell_length_b	16.306099
_cell_length_c	16.305550
_cell_angle_alpha	95.377095
_cell_angle_beta	103.455250
_cell_angle_gamma	103.465342
loop_
_atom_site_label
_atom_site_type_symbol
_atom_site_fract_x
_atom_site_fract_y
_atom_site_fract_z
V1	V	-4.026242	-0.117433	-0.263339
O2	O	-4.013841	0.004911	-0.258011
O3	O	-3.977690	-0.232145	-0.261841
O4	O	-3.977649	-0.115948	-0.378053
O5	O	-4.013883	-0.112091	-0.140996
V6	V	-4.509915	-0.102761	-0.248669
O7	O	-4.287172	-0.149616	-0.295519
O8	O	-4.699183	-0.070578	-0.216489
O9	O	-4.335261	0.011951	-0.250167
O10	O	-4.639713	-0.225104	-0.253997
O11	O	-4.639671	-0.108103	-0.371013
O12	O	-4.335303	-0.104246	-0.133956
C13	C	-3.822660	-0.260099	-0.257765
C14	C	-3.864249	-0.353879	-0.257305
C15	C	-3.940317	-0.525576	-0.256434
C16	C	-4.176204	-0.566502	-0.261357
C17	C	-4.219361	-0.663995	-0.260545
C18	C	-4.015214	-0.694623	-0.255578
C19	C	-3.847661	-0.643781	-0.172400
C20	C	-3.805831	-0.546231	-0.172859
C21	C	-3.886227	-0.571637	-0.334028
C22	C	-3.934127	-0.669482	-0.334692
C23	C	-4.057530	-0.790160	-0.255091
C24	C	-3.897992	-0.430037	-0.256915
C25	C	-3.822606	-0.111877	-0.406003
C26	C	-3.864158	-0.111422	-0.499784
C27	C	-4.015245	-0.109659	-0.840524
C28	C	-3.779197	-0.104424	-0.799582
C29	C	-3.736003	-0.105247	-0.702089
C30	C	-3.940287	-0.110533	-0.671479
C31	C	-4.107318	-0.193849	-0.722324
C32	C	-4.149182	-0.193378	-0.819872
C33	C	-4.070002	-0.032243	-0.794478
C34	C	-4.022073	-0.031584	-0.696634
C35	C	-3.897938	-0.111030	-0.575942
C36	C	-4.057604	-0.109168	-0.936062
C37	C	-4.153633	0.039901	-0.254241
C38	C	-4.091283	0.133680	-0.254707
C39	C	-4.153687	-0.108319	-0.106001
C40	C	-4.091374	-0.108770	-0.012220
H41	H	-3.902580	-0.660432	-0.113662
C42	C	-4.236477	-0.523741	-0.186030
H43	H	-4.379228	-0.548843	-0.189490
H44	H	-4.151507	-0.531566	-0.133801
H45	H	-4.215904	-0.464430	-0.188337
H46	H	-4.051883	-0.252471	-0.705665
H47	H	-4.282728	-0.554292	-0.321427
H48	H	-4.055571	-0.704012	-0.396217
H49	H	-3.978047	-0.558432	-0.397064
C50	C	-3.946521	0.053039	-0.812304
H51	H	-3.860406	0.042226	-0.847999
H52	H	-4.041279	0.082548	-0.839979
H53	H	-3.861645	0.086947	-0.759925
H54	H	-3.714287	-0.544822	-0.331167
H55	H	-3.669576	-0.161508	-0.685944
C56	C	-3.735231	-0.698269	-0.336370
H57	H	-3.698884	-0.726127	-0.288632
H58	H	-3.760145	-0.736580	-0.387548
H59	H	-3.623895	-0.649829	-0.333930
H60	H	-4.113035	-0.251984	-0.850407
H61	H	-4.323018	-0.200685	-0.847883
C62	C	-4.390772	-0.711525	-0.341309
H63	H	-4.417437	-0.771309	-0.340919
H64	H	-4.515102	-0.694338	-0.342319
H65	H	-4.345511	-0.698259	-0.390518
H66	H	-4.285290	-0.680131	-0.204153
C67	C	-4.314215	-0.203156	-0.696798
H68	H	-4.300530	-0.156202	-0.654801
H69	H	-4.423220	-0.204217	-0.745616
H70	H	-4.346514	-0.254788	-0.674210
C71	C	-3.565097	-0.024331	-0.654560
H72	H	-3.521494	0.009339	-0.694798
H73	H	-3.619220	0.007746	-0.617834
H74	H	-3.449102	-0.040162	-0.621737
H75	H	-3.841473	-0.515686	-0.114128
C76	C	-3.571122	-0.508401	-0.163289
H77	H	-3.501733	-0.552663	-0.159132
H78	H	-3.553167	-0.482250	-0.211653
H79	H	-3.513656	-0.466961	-0.113154
C80	C	-3.640871	-0.669324	-0.163410
H81	H	-3.654922	-0.711326	-0.210414
H82	H	-3.531949	-0.620512	-0.162471
H83	H	-3.608191	-0.691910	-0.111800
C84	C	-3.858557	0.051669	-0.649980
H85	H	-3.740935	0.038379	-0.615311
H86	H	-3.815689	0.084795	-0.690713
H87	H	-3.918164	0.083189	-0.615116
C88	C	-3.635794	-0.023117	-0.816062
H89	H	-3.494029	-0.021160	-0.790835
H90	H	-3.656941	-0.023738	-0.875818
H91	H	-3.667923	0.025716	-0.791682
H92	H	-3.734105	-0.160044	-0.831240
C93	C	-4.221023	-0.030170	-0.667780
H94	H	-4.256984	-0.077927	-0.639896
H95	H	-4.196315	0.020988	-0.629470
H96	H	-4.332536	-0.032718	-0.716180
C97	C	-4.302433	-0.036410	-0.830715
H98	H	-4.334586	0.010526	-0.802638
H99	H	-4.329571	-0.034061	-0.890172
H100	H	-4.386541	-0.088271	-0.821678
