data_functionalizedCrystal
_audit_creation_method	'MofGen! by Chris Wilmer'
_symmetry_space_group_name_H-M	'P1'
_symmetry_Int_Tables_number	1
_symmetry_cell_setting	triclinic
loop_
_symmetry_equiv_pos_as_xyz
  x,y,z
_cell_length_a	10.654550
_cell_length_b	14.048226
_cell_length_c	14.971494
_cell_angle_alpha	89.995286
_cell_angle_beta	84.051230
_cell_angle_gamma	89.990034
loop_
_atom_site_label
_atom_site_type_symbol
_atom_site_fract_x
_atom_site_fract_y
_atom_site_fract_z
O1	O	1.666502	-0.079235	0.125632
O2	O	2.166502	0.420765	0.625632
O3	O	1.300896	-0.079219	0.137602
O4	O	1.800896	0.420781	0.637602
O5	O	1.493493	-0.079225	0.001471
O6	O	1.993493	0.420775	0.501471
O7	O	1.473905	-0.079229	0.261763
O8	O	1.973905	0.420771	0.761763
O9	O	1.493469	0.079096	0.001463
O10	O	1.993469	0.579096	0.501463
O11	O	1.300873	0.079102	0.137594
O12	O	1.800873	0.579102	0.637594
O13	O	1.666479	0.079086	0.125624
O14	O	2.166479	0.579086	0.625624
Zn15	Zn	1.483672	0.104231	0.131608
Zn16	Zn	1.983672	0.604231	0.631608
Zn17	Zn	1.483703	-0.104364	0.131618
Zn18	Zn	1.983703	0.395636	0.631618
O19	O	1.473882	0.079093	0.261755
O20	O	1.973882	0.579093	0.761755
C21	C	1.254096	-0.000057	0.136719
C22	C	1.754096	0.499943	0.636719
C23	C	1.114680	-0.000051	0.134089
C24	C	1.614680	0.499949	0.634089
N25	N	1.483660	0.246592	0.131600
N26	N	1.983660	0.746592	0.631600
N27	N	1.483724	-0.246725	0.131619
N28	N	1.983724	0.253275	0.631619
C29	C	1.034338	-0.000066	0.214241
C30	C	1.534338	0.499934	0.714241
C31	C	0.903344	-0.000082	0.211765
C32	C	1.403344	0.499918	0.711765
C33	C	0.933047	-0.000073	0.048979
C34	C	1.433047	0.499927	0.548979
C35	C	1.064039	-0.000049	0.051456
C36	C	1.564039	0.499951	0.551456
C37	C	1.084980	-0.000067	0.296875
C38	C	1.584980	0.499933	0.796875
C39	C	1.004637	-0.000083	0.377033
C40	C	1.504637	0.499917	0.877033
C41	C	0.873642	-0.000099	0.374557
C42	C	1.373642	0.499901	0.874557
C43	C	0.822991	-0.000100	0.291923
C44	C	1.322991	0.499900	0.791923
C45	C	1.713279	-0.000078	0.126507
C46	C	2.213279	0.499922	0.626507
C47	C	1.852694	-0.000090	0.129137
C48	C	2.352694	0.499910	0.629137
C49	C	1.492603	-0.000066	-0.031863
C50	C	1.992603	0.499934	0.468137
C51	C	1.489972	-0.000070	-0.131174
C52	C	1.989972	0.499930	0.368826
C53	C	1.568969	0.296407	0.071346
C54	C	2.068969	0.796407	0.571346
C55	C	1.568978	0.396065	0.071346
C56	C	2.068978	0.896065	0.571346
C57	C	1.483682	0.445905	0.131604
C58	C	1.983682	0.945905	0.631604
C59	C	1.398365	0.396083	0.191860
C60	C	1.898365	0.896083	0.691860
C61	C	1.398351	0.296427	0.191856
C62	C	1.898351	0.796427	0.691856
C63	C	1.398401	0.603797	0.191867
C64	C	1.898401	1.103797	0.691867
C65	C	1.398416	0.703460	0.191873
C66	C	1.898416	1.203460	0.691873
C67	C	1.569027	0.703435	0.071357
C68	C	2.069027	1.203435	0.571357
C69	C	1.569014	0.603779	0.071352
C70	C	2.069014	1.103779	0.571352
C71	C	1.483697	0.553964	0.131610
C72	C	1.983697	1.053964	0.631610
C73	C	1.488752	-0.086372	-0.177821
C74	C	1.988752	0.413628	0.322179
C75	C	1.486272	-0.086374	-0.271133
C76	C	1.986272	0.413626	0.228867
C77	C	1.485022	-0.000072	-0.317798
C78	C	1.985022	0.499928	0.182202
C79	C	1.486238	0.086237	-0.271144
C80	C	1.986238	0.586237	0.228856
C81	C	1.488709	0.086237	-0.177832
C82	C	1.988709	0.586237	0.322168
C83	C	1.481091	0.086231	-0.465635
C84	C	1.981091	0.586231	0.034365
C85	C	1.478623	0.086231	-0.558953
C86	C	1.978623	0.586231	-0.058953
C87	C	1.478654	-0.086380	-0.558936
C88	C	1.978654	0.413620	-0.058936
C89	C	1.481125	-0.086380	-0.465624
C90	C	1.981125	0.413620	0.034376
C91	C	1.482344	-0.000071	-0.418977
C92	C	1.982344	0.499929	0.081023
C93	C	1.474771	-0.000069	0.295089
C94	C	1.974771	0.499931	0.795089
C95	C	1.477402	-0.000071	0.394400
C96	C	1.977402	0.499929	0.894400
H97	H	1.191641	-0.000058	0.298900
H98	H	1.691641	0.499942	0.798900
H99	H	0.716326	-0.000098	0.289913
H100	H	1.216326	0.499902	0.789913
H101	H	1.482153	-0.156654	-0.427633
H102	H	1.982153	0.343346	0.072367
H103	H	0.808229	-0.000103	0.439826
H104	H	1.308229	0.499897	0.939826
H105	H	1.045886	-0.000075	0.444311
H106	H	1.545886	0.499925	0.944311
Br107	Br	1.282561	0.228820	0.273626
Br108	Br	1.782561	0.728820	0.773626
Br109	Br	1.684743	0.228777	-0.010431
Br110	Br	2.184743	0.728777	0.489569
H111	H	1.638441	0.436624	0.022282
H112	H	2.138441	0.936624	0.522282
Br113	Br	0.864306	-0.000076	-0.063160
Br114	Br	1.364306	0.499924	0.436840
Br115	Br	1.173083	-0.000023	-0.057323
Br116	Br	1.673083	0.499977	0.442677
H117	H	1.638473	0.563199	0.022290
H118	H	2.138473	1.063199	0.522290
Br119	Br	1.684817	0.771044	-0.010416
Br120	Br	2.184817	1.271044	0.489584
Br121	Br	1.282652	0.771094	0.273655
Br122	Br	1.782652	1.271094	0.773655
H123	H	1.328923	0.563241	0.240932
H124	H	1.828923	1.063241	0.740932
Br125	Br	1.476994	-0.203514	-0.622241
Br126	Br	1.976994	0.296486	-0.122241
H127	H	1.328909	0.436669	0.240920
H128	H	1.828909	0.936669	0.740920
Br129	Br	1.490462	-0.203503	-0.114500
Br130	Br	1.990462	0.296497	0.385500
H131	H	1.485284	-0.156649	-0.309109
H132	H	1.985284	0.343351	0.190891
H133	H	1.477594	0.156506	-0.596944
H134	H	1.977594	0.656506	-0.096944
H135	H	1.482056	0.156513	-0.427656
H136	H	1.982056	0.656513	0.072344
H137	H	1.485212	0.156506	-0.309145
H138	H	1.985212	0.656506	0.190855
Br139	Br	1.490359	0.203366	-0.114524
Br140	Br	1.990359	0.703366	0.385476
