data_functionalizedCrystal
_audit_creation_method	'MofGen! by Chris Wilmer'
_symmetry_space_group_name_H-M	'P1'
_symmetry_Int_Tables_number	1
_symmetry_cell_setting	triclinic
loop_
_symmetry_equiv_pos_as_xyz
  x,y,z
_cell_length_a	19.805407
_cell_length_b	12.759400
_cell_length_c	19.805399
_cell_angle_alpha	89.976763
_cell_angle_beta	89.980427
_cell_angle_gamma	90.014685
loop_
_atom_site_label
_atom_site_type_symbol
_atom_site_fract_x
_atom_site_fract_y
_atom_site_fract_z
Zn1	Zn	1.034791	-0.418291	-0.382740
Zn2	Zn	1.534791	0.081709	0.117260
Zn3	Zn	1.034729	-0.593984	-0.269560
Zn4	Zn	1.534729	-0.093984	0.230440
Zn5	Zn	0.921605	-0.418320	-0.269565
Zn6	Zn	1.421605	0.081680	0.230435
Zn7	Zn	0.921592	-0.593928	-0.382707
Zn8	Zn	1.421592	-0.093928	0.117293
O9	O	0.978179	-0.506131	-0.326143
O10	O	1.478179	-0.006131	0.173857
O11	O	1.129499	-0.441608	-0.367739
O12	O	1.629499	0.058392	0.132261
O13	O	1.019702	-0.570717	-0.174844
O14	O	1.519702	-0.070717	0.325156
O15	O	0.936651	-0.271295	-0.284593
O16	O	1.436651	0.228705	0.215407
O17	O	1.129454	-0.570689	-0.284586
O18	O	1.629454	-0.070689	0.215414
O19	O	1.019808	-0.271273	-0.367743
O20	O	1.519808	0.228727	0.132257
O21	O	0.936591	-0.441657	-0.174848
O22	O	1.436591	0.058343	0.325152
O23	O	0.826887	-0.441603	-0.284561
O24	O	1.326887	0.058397	0.215439
O25	O	0.936629	-0.570594	-0.477428
O26	O	1.436629	-0.070594	0.022572
O27	O	0.826877	-0.570622	-0.367687
O28	O	1.326877	-0.070622	0.132313
O29	O	1.019795	-0.441554	-0.477452
O30	O	1.519795	0.058446	0.022548
O31	O	1.019689	-0.740998	-0.284554
O32	O	1.519689	-0.240998	0.215446
O33	O	0.936568	-0.740957	-0.367682
O34	O	1.436568	-0.240957	0.132318
C35	C	0.802323	-0.506110	-0.326121
C36	C	1.302323	-0.006110	0.173879
C37	C	0.727091	-0.506127	-0.326128
C38	C	1.227091	-0.006127	0.173872
C39	C	0.691760	-0.573408	-0.369341
C40	C	1.191760	-0.073408	0.130659
C41	C	0.621071	-0.573410	-0.369351
C42	C	1.121071	-0.073410	0.130649
C43	C	0.585716	-0.506135	-0.326143
C44	C	1.085716	-0.006135	0.173857
C45	C	0.621052	-0.438847	-0.282928
C46	C	1.121052	0.061153	0.217072
C47	C	0.691739	-0.438840	-0.282922
C48	C	1.191739	0.061160	0.217078
C49	C	0.335979	-0.438870	-0.282950
C50	C	0.835979	0.061130	0.217050
C51	C	0.265287	-0.438884	-0.282958
C52	C	0.765287	0.061116	0.217042
C53	C	0.265311	-0.573440	-0.369379
C54	C	0.765311	-0.073440	0.130621
C55	C	0.335998	-0.573433	-0.369373
C56	C	0.835998	-0.073433	0.130627
C57	C	0.371328	-0.506141	-0.326161
C58	C	0.871328	-0.006141	0.173839
C59	C	0.447977	-0.506139	-0.326152
C60	C	0.947977	-0.006139	0.173848
C61	C	0.509069	-0.506142	-0.326148
C62	C	1.009069	-0.006142	0.173852
C63	C	0.978139	-0.779098	-0.326129
C64	C	1.478139	-0.279098	0.173871
C65	C	0.978184	-0.895875	-0.326146
C66	C	1.478184	-0.395875	0.173854
C67	C	1.021513	-0.950723	-0.282908
C68	C	1.521513	-0.450723	0.217092
C69	C	1.021555	-1.060447	-0.282929
C70	C	1.521555	-0.560447	0.217071
C71	C	0.934932	-1.060464	-0.369426
C72	C	1.434932	-0.560464	0.130574
C73	C	0.934894	-0.950742	-0.369408
C74	C	1.434894	-0.450742	0.130592
C75	C	1.064802	-0.895855	-0.239646
C76	C	1.564802	-0.395855	0.260354
C77	C	1.108135	-0.950704	-0.196404
C78	C	1.608135	-0.450704	0.303596
C79	C	1.108176	-1.060428	-0.196425
C80	C	1.608176	-0.560428	0.303575
C81	C	1.064886	-1.115303	-0.239687
C82	C	1.564886	-0.615303	0.260313
C83	C	1.154722	-0.506152	-0.326165
C84	C	1.654722	-0.006152	0.173835
C85	C	1.229954	-0.506160	-0.326175
C86	C	1.729954	-0.006160	0.173825
C87	C	0.978217	-0.506064	-0.502686
C88	C	1.478217	-0.006064	-0.002686
C89	C	0.978233	-0.506036	-0.577918
C90	C	1.478233	-0.006036	-0.077918
C91	C	0.978238	-0.232097	-0.326172
C92	C	1.478238	0.267903	0.173828
C93	C	0.978263	-0.115321	-0.326184
C94	C	1.478263	0.384679	0.173816
C95	C	1.021539	-0.438842	-0.613276
C96	C	1.521539	0.061158	-0.113276
C97	C	1.021546	-0.438811	-0.683964
C98	C	1.521546	0.061189	-0.183964
C99	C	0.978250	-0.505981	-0.719294
C100	C	1.478250	-0.005981	-0.219294
C101	C	0.934940	-0.573179	-0.683931
C102	C	1.434940	-0.073179	-0.183931
C103	C	0.934930	-0.573203	-0.613244
C104	C	1.434930	-0.073203	-0.113244
C105	C	0.934978	-0.573081	-0.969004
C106	C	1.434978	-0.073081	-0.469004
C107	C	0.934992	-0.573054	-1.039696
C108	C	1.434992	-0.073054	-0.539696
C109	C	1.021594	-0.438689	-1.039725
C110	C	1.521594	0.061311	-0.539725
C111	C	1.021584	-0.438713	-0.969038
C112	C	1.521584	0.061287	-0.469038
C113	C	0.978272	-0.505906	-0.933681
C114	C	1.478272	-0.005906	-0.433681
C115	C	0.978264	-0.505937	-0.857033
C116	C	1.478264	-0.005937	-0.357033
C117	C	0.978261	-0.505957	-0.795941
C118	C	1.478261	-0.005957	-0.295941
C119	C	0.978180	-0.506121	-0.150287
C120	C	1.478180	-0.006121	0.349713
C121	C	0.978295	-0.505853	-0.075055
C122	C	1.478295	-0.005853	0.424945
H123	H	0.364781	-0.628219	-0.404555
H124	H	0.864781	-0.128219	0.095445
Br125	Br	0.383918	-0.347539	-0.224309
Br126	Br	0.883918	0.152461	0.275691
H127	H	1.064772	-0.806512	-0.239622
H128	H	1.564772	-0.306512	0.260378
Br129	Br	0.876231	-0.664221	-1.087643
Br130	Br	1.376231	-0.164221	-0.587643
H131	H	1.064928	-1.204648	-0.239706
H132	H	1.564928	-0.704648	0.260294
H133	H	0.592260	-0.384066	-0.247750
H134	H	1.092260	0.115934	0.252250
H135	H	1.143384	-0.906019	-0.161186
H136	H	1.643384	-0.406019	0.338814
Br137	Br	0.876184	-1.134938	-0.428134
Br138	Br	1.376184	-0.634938	0.071866
Br139	Br	1.080349	-0.347556	-0.921094
Br140	Br	1.580349	0.152444	-0.421094
Br141	Br	0.573124	-0.664722	-0.428002
Br142	Br	1.073124	-0.164722	0.071998
H143	H	0.720541	-0.628195	-0.404524
H144	H	1.220541	-0.128195	0.095476
H145	H	1.056859	-0.383973	-1.068521
H146	H	1.556859	0.116027	-0.568521
H147	H	1.143464	-1.105083	-0.161221
H148	H	1.643464	-0.605083	0.338779
H149	H	1.056798	-0.384147	-0.584516
H150	H	1.556798	0.115853	-0.084516
H151	H	0.236536	-0.628228	-0.404567
H152	H	0.736536	-0.128228	0.095433
H153	H	0.899613	-0.906084	-0.404617
H154	H	1.399613	-0.406084	0.095383
Br155	Br	0.739690	-0.347521	-0.224277
Br156	Br	1.239690	0.152479	0.275723
Br157	Br	1.080353	-0.347664	-0.731948
Br158	Br	1.580353	0.152336	-0.231948
H159	H	0.899720	-0.627809	-0.940225
H160	H	1.399720	-0.127809	-0.440225
H161	H	0.899685	-0.627866	-0.712702
H162	H	1.399685	-0.127866	-0.212702
H163	H	0.236502	-0.384094	-0.247773
H164	H	0.736502	0.115906	0.252227
Br165	Br	0.876151	-0.664393	-0.565257
Br166	Br	1.376151	-0.164393	-0.065257
