data_functionalizedCrystal
_audit_creation_method	'MofGen! by Chris Wilmer'
_symmetry_space_group_name_H-M	'P1'
_symmetry_Int_Tables_number	1
_symmetry_cell_setting	triclinic
loop_
_symmetry_equiv_pos_as_xyz
  x,y,z
_cell_length_a	25.639242
_cell_length_b	25.639240
_cell_length_c	25.639234
_cell_angle_alpha	89.980434
_cell_angle_beta	89.973005
_cell_angle_gamma	90.027587
loop_
_atom_site_label
_atom_site_type_symbol
_atom_site_fract_x
_atom_site_fract_y
_atom_site_fract_z
Zn1	Zn	0.799274	-0.208247	-0.295760
Zn2	Zn	0.799200	-0.295674	-0.208332
Zn3	Zn	0.711843	-0.208248	-0.208325
Zn4	Zn	0.711806	-0.295646	-0.295722
O5	O	0.755531	-0.251954	-0.252035
O6	O	0.872429	-0.219855	-0.284182
O7	O	0.787597	-0.284089	-0.135166
O8	O	0.723487	-0.135083	-0.219936
O9	O	0.872375	-0.284088	-0.219949
O10	O	0.787723	-0.135082	-0.284175
O11	O	0.723416	-0.219858	-0.135160
O12	O	0.638673	-0.219830	-0.219899
O13	O	0.723424	-0.284040	-0.368893
O14	O	0.638645	-0.284041	-0.284110
O15	O	0.787686	-0.219828	-0.368921
O16	O	0.787561	-0.368836	-0.219912
O17	O	0.723352	-0.368815	-0.284117
C18	C	0.619688	-0.251933	-0.252000
C19	C	0.561574	-0.251937	-0.251997
C20	C	0.755459	-0.387796	-0.252023
C21	C	0.755475	-0.445910	-0.252035
C22	C	0.201206	-0.285444	-0.285438
C23	C	0.146601	-0.285447	-0.285446
O24	O	0.118360	-0.313911	-0.313849
N25	N	0.119292	-0.251968	-0.252069
C26	C	0.146589	-0.218480	-0.218685
O27	O	0.118346	-0.190003	-0.190297
C28	C	0.201192	-0.218474	-0.218680
C29	C	0.228499	-0.251959	-0.252056
C30	C	0.228513	-0.318926	-0.318811
C31	C	0.283113	-0.318924	-0.318802
C32	C	0.310407	-0.285439	-0.285420
C33	C	0.283100	-0.251957	-0.252047
C34	C	0.228489	-0.184983	-0.185300
C35	C	0.283096	-0.184981	-0.185297
C36	C	0.310403	-0.218466	-0.218673
C37	C	0.364994	-0.218469	-0.218655
N38	N	0.392304	-0.251949	-0.252032
C39	C	0.365010	-0.285434	-0.285414
C40	C	0.031919	-0.218493	-0.218700
C41	C	-0.022684	-0.218501	-0.218702
C42	C	-0.022668	-0.285468	-0.285463
C43	C	0.031935	-0.285462	-0.285458
C44	C	0.059228	-0.251972	-0.252077
C45	C	0.479675	-0.285426	-0.285393
C46	C	0.534281	-0.285422	-0.285379
C47	C	0.534260	-0.218453	-0.218620
C48	C	0.479659	-0.218458	-0.218631
C49	C	0.452368	-0.251947	-0.252022
O50	O	0.393270	-0.190019	-0.190268
O51	O	0.393260	-0.313901	-0.313803
C52	C	0.788975	-0.697052	-0.285518
C53	C	0.788959	-0.642448	-0.285514
O54	O	0.817382	-0.614167	-0.313965
N55	N	0.755533	-0.615184	-0.252042
C56	C	0.722123	-0.642528	-0.218567
O57	O	0.693690	-0.614324	-0.190096
C58	C	0.722142	-0.697131	-0.218569
C59	C	0.755567	-0.724392	-0.252047
C60	C	0.822398	-0.724313	-0.318994
C61	C	0.822413	-0.778913	-0.318998
C62	C	0.789005	-0.806253	-0.285527
C63	C	0.755582	-0.778992	-0.252052
C64	C	0.688736	-0.724474	-0.185092
C65	C	0.688758	-0.779081	-0.185097
C66	C	0.722183	-0.806341	-0.218575
C67	C	0.722189	-0.860933	-0.218586
N68	N	0.755616	-0.888196	-0.252058
C69	C	0.789024	-0.860856	-0.285529
C70	C	0.722087	-0.527857	-0.218566
C71	C	0.722065	-0.473255	-0.218566
C72	C	0.788902	-0.473179	-0.285513
C73	C	0.788921	-0.527782	-0.285514
C74	C	0.755514	-0.555121	-0.252038
C75	C	0.789052	-0.975521	-0.285536
C76	C	0.789062	-1.030127	-0.285539
C77	C	0.722228	-1.030198	-0.218591
C78	C	0.722215	-0.975598	-0.218590
C79	C	0.755632	-0.948261	-0.252064
O80	O	0.693783	-0.889248	-0.190148
O81	O	0.817457	-0.889067	-0.313991
C82	C	0.891904	-0.251975	-0.252071
C83	C	0.950018	-0.251984	-0.252086
C84	C	0.755559	-0.251931	-0.388408
C85	C	0.755571	-0.251921	-0.446522
C86	C	0.755617	-0.115581	-0.252059
C87	C	0.755654	-0.057467	-0.252069
C88	C	0.789004	-0.285323	-0.697711
C89	C	0.788998	-0.285334	-0.643107
O90	O	0.817400	-0.313792	-0.614866
N91	N	0.755583	-0.251895	-0.615796
C92	C	0.722166	-0.218447	-0.643093
O93	O	0.693742	-0.190006	-0.614849
C94	C	0.722169	-0.218439	-0.697696
C95	C	0.755591	-0.251877	-0.725004
C96	C	0.822423	-0.318758	-0.725019
C97	C	0.822429	-0.318747	-0.779620
C98	C	0.789016	-0.285300	-0.806912
C99	C	0.755597	-0.251865	-0.779604
C100	C	0.688751	-0.184994	-0.724991
C101	C	0.688757	-0.184989	-0.779598
C102	C	0.722179	-0.218427	-0.806906
C103	C	0.722191	-0.218406	-0.861498
N104	N	0.755607	-0.251845	-0.888808
C105	C	0.789019	-0.285292	-0.861516
C106	C	0.722161	-0.218467	-0.528422
C107	C	0.722160	-0.218472	-0.473819
C108	C	0.788992	-0.285360	-0.473838
C109	C	0.788995	-0.285352	-0.528441
C110	C	0.755577	-0.251906	-0.555733
C111	C	0.789030	-0.285264	-0.976181
C112	C	0.789035	-0.285248	-1.030786
C113	C	0.722201	-0.218363	-1.030763
C114	C	0.722198	-0.218377	-0.976163
C115	C	0.755614	-0.251832	-0.948873
O116	O	0.693802	-0.189965	-0.889773
O117	O	0.817433	-0.313733	-0.889766
C118	C	0.755533	-0.251939	-0.116192
C119	C	0.755622	-0.251801	-0.058079
H120	H	0.556511	-0.312691	-0.312558
N121	N	0.199082	-0.355051	-0.354816
H122	H	0.176409	-0.379253	-0.333527
H123	H	0.176478	-0.333810	-0.379083
N124	N	0.824941	-0.443683	-0.321608
H125	H	0.846122	-0.469235	-0.342817
H126	H	0.803637	-0.421034	-0.345779
H127	H	0.457461	-0.312694	-0.312584
N128	N	0.563702	-0.182334	-0.182619
H129	H	0.554178	-0.190398	-0.145247
H130	H	0.602426	-0.187430	-0.187727
N131	N	0.858429	-0.694832	-0.355104
H132	H	0.853351	-0.656103	-0.350031
H133	H	0.895778	-0.704351	-0.347010
H134	H	0.305315	-0.157705	-0.158117
H135	H	0.694999	-0.191130	-1.052995
H136	H	-0.044912	-0.191239	-0.191519
H137	H	0.694990	-0.191142	-0.953927
N138	N	0.825086	-0.946039	-0.321645
H139	H	0.849326	-0.923373	-0.300428
H140	H	0.846223	-0.971631	-0.342845
H141	H	0.305342	-0.346190	-0.345981
H142	H	0.816136	-0.549974	-0.312778
H143	H	0.816210	-0.312580	-0.550671
H144	H	0.054137	-0.191222	-0.191513
H145	H	0.661534	-0.157767	-0.702767
N146	N	0.686013	-0.443857	-0.182457
H147	H	0.691069	-0.405116	-0.187529
H148	H	0.648670	-0.453429	-0.190555
H149	H	0.457425	-0.191193	-0.191453
N150	N	0.652689	-0.695082	-0.148976
H151	H	0.657742	-0.656341	-0.154046
H152	H	0.615346	-0.704655	-0.157069
H153	H	0.849635	-0.801104	-0.346256
N154	N	0.686050	-0.557342	-0.182460
H155	H	0.664874	-0.531782	-0.161257
H156	H	0.661847	-0.580009	-0.203715
H157	H	0.054165	-0.312728	-0.312636
H158	H	-0.044900	-0.312731	-0.312647
H159	H	0.816244	-0.312503	-0.953968
H160	H	0.661553	-0.801337	-0.157835
N161	N	0.199045	-0.148867	-0.149301
H162	H	0.224629	-0.127655	-0.128158
H163	H	0.176414	-0.124701	-0.170628
N164	N	0.686163	-0.946187	-0.182489
H165	H	0.648803	-0.955711	-0.190570
H166	H	0.694352	-0.955712	-0.145156
N167	N	0.825103	-1.059529	-0.321661
H168	H	0.846261	-1.033921	-0.342866
H169	H	0.849323	-1.082182	-0.300419
H170	H	0.695027	-1.052468	-0.191341
N171	N	0.825085	-0.321313	-1.060240
H172	H	0.846248	-0.342503	-1.034661
H173	H	0.803790	-0.345501	-1.082884
H174	H	0.849643	-0.345976	-0.801849
N175	N	0.825031	-0.321435	-0.444393
H176	H	0.819897	-0.316418	-0.405660
H177	H	0.816920	-0.358770	-0.453982
N178	N	0.858463	-0.354837	-0.695588
H179	H	0.879630	-0.376014	-0.721181
H180	H	0.882674	-0.333563	-0.672948
H181	H	0.694951	-0.191238	-0.451590
N182	N	0.686118	-0.182388	-0.557856
H183	H	0.664952	-0.161208	-0.532266
H184	H	0.707416	-0.158190	-0.580524
H185	H	0.661543	-0.157753	-0.801816
