data_functionalizedCrystal
_audit_creation_method	'MofGen! by Chris Wilmer'
_symmetry_space_group_name_H-M	'P1'
_symmetry_Int_Tables_number	1
_symmetry_cell_setting	triclinic
loop_
_symmetry_equiv_pos_as_xyz
  x,y,z
_cell_length_a	19.288864
_cell_length_b	15.944551
_cell_length_c	17.766277
_cell_angle_alpha	89.992686
_cell_angle_beta	89.976791
_cell_angle_gamma	83.317492
loop_
_atom_site_label
_atom_site_type_symbol
_atom_site_fract_x
_atom_site_fract_y
_atom_site_fract_z
O1	O	0.921629	0.104784	-0.062837
O2	O	1.421629	0.604784	0.437163
O3	O	0.719406	0.118919	-0.062786
O4	O	1.219406	0.618919	0.437214
O5	O	0.826040	-0.010445	-0.062806
O6	O	1.326040	0.489555	0.437194
O7	O	0.814995	0.234147	-0.062817
O8	O	1.314995	0.734147	0.437183
O9	O	0.826021	-0.010451	0.062382
O10	O	1.326021	0.489549	0.562382
O11	O	0.719387	0.118912	0.062403
O12	O	1.219387	0.618912	0.562403
O13	O	0.921610	0.104777	0.062351
O14	O	1.421610	0.604777	0.562351
Cu15	Cu	0.820497	0.111844	0.073808
Cu16	Cu	1.320497	0.611844	0.573808
Cu17	Cu	0.820519	0.111852	-0.074242
Cu18	Cu	1.320519	0.611852	0.425758
O19	O	0.814976	0.234141	0.062372
O20	O	1.314976	0.734141	0.562372
C21	C	0.693519	0.118461	-0.000185
C22	C	1.193519	0.618461	0.499815
C23	C	0.616411	0.117095	-0.000165
C24	C	1.116411	0.617095	0.499835
C25	C	0.825572	-0.041740	-0.000212
C26	C	1.325572	0.458260	0.499788
C27	C	0.824197	-0.134981	-0.000211
C28	C	1.324197	0.365019	0.499789
C29	C	0.571915	0.193000	-0.000181
C30	C	1.071915	0.693000	0.499819
C31	C	0.499465	0.191717	-0.000189
C32	C	0.999465	0.691717	0.499811
C33	C	0.471514	0.114526	-0.000197
C34	C	0.971514	0.614526	0.499803
C35	C	0.516020	0.038611	-0.000178
C36	C	1.016020	0.538611	0.499822
C37	C	0.588469	0.039896	-0.000162
C38	C	1.088469	0.539896	0.499838
C39	C	0.363099	0.053847	-0.044079
C40	C	0.863099	0.553847	0.455921
C41	C	0.290651	0.052565	-0.044099
C42	C	0.790651	0.552565	0.455901
C43	C	0.248058	0.110560	-0.000242
C44	C	0.748058	0.610560	0.499758
C45	C	0.277920	0.169850	0.043625
C46	C	0.777920	0.669850	0.543625
C47	C	0.350369	0.171135	0.043641
C48	C	0.850369	0.671135	0.543641
C49	C	0.392956	0.113124	-0.000214
C50	C	0.892956	0.613124	0.499786
C51	C	0.125002	0.185079	-0.000265
C52	C	0.625002	0.685079	0.499735
C53	C	0.052550	0.183793	-0.000269
C54	C	0.552550	0.683793	0.499731
C55	C	0.069107	0.030684	-0.000265
C56	C	0.569107	0.530684	0.499735
C57	C	0.141557	0.031972	-0.000254
C58	C	0.641557	0.531972	0.499746
C59	C	0.169500	0.109172	-0.000258
C60	C	0.669500	0.609172	0.499742
C61	C	0.754815	-0.349571	-0.000204
C62	C	1.254815	0.150429	0.499796
C63	C	0.787024	-0.410715	0.061514
C64	C	1.287024	0.089285	0.561514
C65	C	0.821710	-0.305697	-0.000216
C66	C	1.321710	0.194303	0.499784
C67	C	0.787059	-0.410692	-0.061912
C68	C	1.287059	0.089308	0.438088
C69	C	0.819303	-0.470601	-0.000224
C70	C	1.319303	0.029399	0.499776
C71	C	0.853938	-0.365614	0.061552
C72	C	1.353938	0.134386	0.561552
C73	C	0.853963	-0.365585	-0.061929
C74	C	1.353963	0.134415	0.438071
C75	C	0.886222	-0.426712	-0.000197
C76	C	1.386222	0.073288	0.499803
C77	C	0.823095	-0.210700	-0.000211
C78	C	1.323095	0.289300	0.499789
C79	C	0.817924	-0.565597	-0.000224
C80	C	1.317924	-0.065597	0.499776
C81	C	0.947497	0.105235	-0.000251
C82	C	1.447497	0.605235	0.499749
C83	C	1.024605	0.106600	-0.000276
C84	C	1.524605	0.606600	0.499724
C85	C	0.815444	0.265436	-0.000225
C86	C	1.315444	0.765436	0.499775
C87	C	0.816819	0.358677	-0.000230
C88	C	1.316819	0.858677	0.499770
N89	N	0.820486	0.111838	0.177938
N90	N	1.320486	0.611838	0.677938
N91	N	0.820535	0.111851	-0.178373
N92	N	1.320535	0.611851	0.321627
C93	C	0.867719	0.054584	0.217316
C94	C	1.367719	0.554584	0.717316
C95	C	0.867723	0.054580	0.296118
C96	C	1.367723	0.554580	0.796118
C97	C	0.820501	0.111845	0.335539
C98	C	1.320501	0.611845	0.835539
C99	C	0.773259	0.169103	0.296151
C100	C	1.273259	0.669103	0.796151
C101	C	0.773252	0.169100	0.217351
C102	C	1.273252	0.669100	0.717351
C103	C	0.811404	0.188378	0.460375
C104	C	1.311404	0.688378	0.960375
C105	C	0.811416	0.188382	0.539173
C106	C	1.311416	0.688382	1.039173
C107	C	0.820520	0.111855	0.578585
C108	C	1.320520	0.611855	1.078585
C109	C	0.829626	0.035319	0.539188
C110	C	1.329626	0.535319	1.039188
C111	C	0.829618	0.035316	0.460387
C112	C	1.329618	0.535316	0.960387
C113	C	0.820503	0.111854	0.420984
C114	C	1.320503	0.611854	0.920984
C115	C	0.867759	0.054592	0.703409
C116	C	1.367759	0.554592	1.203409
C117	C	0.867759	0.054587	0.782212
C118	C	1.367759	0.554587	1.282212
C119	C	0.773298	0.169117	0.782244
C120	C	1.273298	0.669117	1.282244
C121	C	0.773295	0.169115	0.703442
C122	C	1.273295	0.669115	1.203442
C123	C	0.820530	0.111853	0.664029
C124	C	1.320530	0.611853	1.164029
H125	H	0.594661	0.255862	-0.000185
H126	H	1.094661	0.755862	0.499815
H127	H	0.243242	0.217075	0.079338
H128	H	0.743242	0.717075	0.579338
N129	N	0.725065	0.227610	0.663202
N130	N	1.225065	0.727610	1.163202
N131	N	0.725068	0.227604	0.592846
N132	N	1.225068	0.727604	1.092846
H133	H	0.691004	0.268918	0.564425
H134	H	1.191004	0.768918	1.064425
N135	N	0.187023	-0.045556	-0.000240
N136	N	0.687023	0.454444	0.499760
N137	N	0.229268	-0.061921	0.052540
N138	N	0.729268	0.438079	0.552540
H139	H	0.261380	-0.116678	0.052553
H140	H	0.761380	0.383322	0.552553
H141	H	0.734846	0.215740	0.814340
H142	H	1.234846	0.715740	1.314340
N143	N	0.751521	-0.435831	0.126978
N144	N	1.251521	0.064169	0.626978
N145	N	0.745242	-0.512056	0.137722
N146	N	1.245242	-0.012056	0.637722
H147	H	0.720164	-0.529794	0.183954
H148	H	1.220164	-0.029794	0.683954
H149	H	0.837039	-0.026997	0.571275
H150	H	1.337039	0.473003	1.071275
N151	N	0.725014	0.227586	0.336415
N152	N	1.225014	0.727586	0.836415
N153	N	0.681907	0.201065	0.380414
N154	N	1.181907	0.701065	0.880414
H155	H	0.647829	0.242367	0.408851
H156	H	1.147829	0.742367	0.908851
H157	H	0.804006	0.250702	0.571244
H158	H	1.304006	0.750702	1.071244
N159	N	0.889434	-0.340470	-0.127411
N160	N	1.389434	0.159530	0.372589
N161	N	0.866644	-0.354655	-0.191449
N162	N	1.366644	0.145345	0.308551
H163	H	0.891691	-0.336917	-0.237702
H164	H	1.391691	0.163083	0.262298
N165	N	0.802124	0.266552	0.420116
N166	N	1.302124	0.766552	0.920116
N167	N	0.848524	0.285253	0.376118
N168	N	1.348524	0.785253	0.876118
H169	H	0.841973	0.340460	0.347684
H170	H	1.341973	0.840460	0.847684
H171	H	0.758764	-0.430657	-0.114093
H172	H	1.258764	0.069343	0.385907
N173	N	0.724996	0.227590	0.177135
N174	N	1.224996	0.727590	0.677135
N175	N	0.682831	0.278712	0.212336
N176	N	1.182831	0.778712	0.712336
H177	H	0.648749	0.320023	0.183933
H178	H	1.148749	0.820023	0.683933
N179	N	0.915982	-0.003883	0.336364
N180	N	1.415982	0.496117	0.836364
N181	N	0.915987	-0.003860	0.406721
N182	N	1.415987	0.496140	0.906721
H183	H	0.950074	-0.045145	0.435145
H184	H	1.450074	0.454855	0.935145
H185	H	0.463229	0.253530	-0.000199
H186	H	0.963229	0.753530	0.499801
N187	N	0.380862	0.231699	0.088451
N188	N	0.880862	0.731699	0.588451
N189	N	0.342832	0.283481	0.127605
N190	N	0.842832	0.783481	0.627605
H191	H	0.364367	0.326254	0.159254
H192	H	0.864367	0.826254	0.659254
N193	N	0.153539	0.263939	-0.000264
N194	N	0.653539	0.763939	0.499736
N195	N	0.113797	0.331708	-0.000269
N196	N	0.613797	0.831708	0.499731
H197	H	0.133949	0.387405	-0.000267
H198	H	0.633949	0.887405	0.499733
H199	H	0.906219	0.007963	0.671318
H200	H	1.406219	0.507963	1.171318
N201	N	0.889395	-0.340670	0.127075
N202	N	1.389395	0.159330	0.627075
N203	N	0.896149	-0.264547	0.137666
N204	N	1.396149	0.235453	0.637666
H205	H	0.921188	-0.246928	0.183942
H206	H	1.421188	0.253072	0.683942
H207	H	0.016321	0.245606	-0.000277
H208	H	0.516321	0.745606	0.499723
H209	H	0.699288	-0.316049	-0.000128
H210	H	1.199288	0.183951	0.499872
H211	H	0.906179	0.007956	0.185228
H212	H	1.406179	0.507956	0.685228
H213	H	0.837031	-0.027001	0.428314
H214	H	1.337031	0.472999	0.928314
N215	N	0.040554	-0.048159	-0.000260
N216	N	0.540554	0.451841	0.499740
N217	N	-0.024133	-0.049298	-0.000267
N218	N	0.475867	0.450702	0.499733
H219	H	-0.044302	-0.104983	-0.000258
H220	H	0.455698	0.395017	0.499742
N221	N	0.916008	-0.003913	0.822427
N222	N	1.416008	0.496087	1.322427
N223	N	0.958173	-0.055033	0.787223
N224	N	1.458173	0.444967	1.287223
H225	H	0.992250	-0.096351	0.815625
H226	H	1.492250	0.403649	1.315625
H227	H	0.266342	0.004291	-0.079822
H228	H	0.766342	0.504291	0.420178
H229	H	0.397773	0.006619	-0.079797
H230	H	0.897773	0.506619	0.420203
H231	H	0.493258	-0.024239	-0.000195
H232	H	0.993258	0.475761	0.499805
H233	H	0.941797	-0.460084	-0.000176
H234	H	1.441797	0.039916	0.499824
N235	N	0.633915	-0.037651	-0.000143
N236	N	1.133915	0.462349	0.499857
N237	N	0.608955	-0.106569	-0.000142
N238	N	1.108955	0.393431	0.499858
H239	H	0.641052	-0.161338	-0.000129
H240	H	1.141052	0.338662	0.499871
