data_functionalizedCrystal
_audit_creation_method	'MofGen! by Chris Wilmer'
_symmetry_space_group_name_H-M	'P1'
_symmetry_Int_Tables_number	1
_symmetry_cell_setting	triclinic
loop_
_symmetry_equiv_pos_as_xyz
  x,y,z
_cell_length_a	19.805407
_cell_length_b	19.077068
_cell_length_c	19.805399
_cell_angle_alpha	92.269429
_cell_angle_beta	89.980427
_cell_angle_gamma	92.327086
loop_
_atom_site_label
_atom_site_type_symbol
_atom_site_fract_x
_atom_site_fract_y
_atom_site_fract_z
Zn1	Zn	1.023904	-0.280218	-0.393534
Zn2	Zn	1.523904	0.219782	0.106466
Zn3	Zn	1.019269	-0.397917	-0.284888
Zn4	Zn	1.519269	0.102083	0.215112
Zn5	Zn	0.910718	-0.280237	-0.280359
Zn6	Zn	1.410718	0.219763	0.219641
Zn7	Zn	0.906134	-0.397880	-0.398033
Zn8	Zn	1.406134	0.102120	0.101967
O9	O	0.965006	-0.339063	-0.339204
O10	O	1.465006	0.160937	0.160796
O11	O	1.118005	-0.295839	-0.379134
O12	O	1.618005	0.204161	0.120866
O13	O	1.004848	-0.382330	-0.189571
O14	O	1.504848	0.117670	0.310429
O15	O	0.929590	-0.181744	-0.291594
O16	O	1.429590	0.318256	0.208406
O17	O	1.114600	-0.382312	-0.299312
O18	O	1.614600	0.117688	0.200688
O19	O	1.012748	-0.181729	-0.374743
O20	O	1.512748	0.318271	0.125257
O21	O	0.925096	-0.295872	-0.186244
O22	O	1.425096	0.204128	0.313756
O23	O	0.815394	-0.295835	-0.295957
O24	O	1.315394	0.204165	0.204043
O25	O	0.921778	-0.382248	-0.492152
O26	O	1.421778	0.117752	0.007848
O27	O	0.812026	-0.382267	-0.382411
O28	O	1.312026	0.117733	0.117589
O29	O	1.008303	-0.295802	-0.488846
O30	O	1.508303	0.204198	0.011154
O31	O	1.000404	-0.496403	-0.303675
O32	O	1.500404	0.003597	0.196325
O33	O	0.917284	-0.496376	-0.386802
O34	O	1.417284	0.003624	0.113198
C35	C	0.789151	-0.339050	-0.339181
C36	C	1.289151	0.160950	0.160819
C37	C	0.713918	-0.339061	-0.339188
C38	C	1.213918	0.160939	0.160812
C39	C	0.676836	-0.384133	-0.384138
C40	C	1.176836	0.115867	0.115862
C41	C	0.606147	-0.384135	-0.384147
C42	C	1.106147	0.115865	0.115853
C43	C	0.572543	-0.339066	-0.339204
C44	C	1.072543	0.160934	0.160796
C45	C	0.609630	-0.293989	-0.294252
C46	C	1.109630	0.206011	0.205748
C47	C	0.680318	-0.293985	-0.294246
C48	C	1.180318	0.206015	0.205754
C49	C	0.324556	-0.294004	-0.294275
C50	C	0.824556	0.205996	0.205725
C51	C	0.253864	-0.294014	-0.294283
C52	C	0.753864	0.205986	0.205717
C53	C	0.250386	-0.384154	-0.384176
C54	C	0.750386	0.115846	0.115824
C55	C	0.321073	-0.384150	-0.384170
C56	C	0.821073	0.115850	0.115830
C57	C	0.358155	-0.339070	-0.339221
C58	C	0.858155	0.160930	0.160779
C59	C	0.434804	-0.339069	-0.339212
C60	C	0.934804	0.160931	0.160788
C61	C	0.495895	-0.339071	-0.339209
C62	C	0.995895	0.160929	0.160791
C63	C	0.957862	-0.521927	-0.346233
C64	C	1.457862	-0.021927	0.153767
C65	C	0.954867	-0.600157	-0.349263
C66	C	1.454867	-0.100157	0.150737
C67	C	0.996770	-0.636901	-0.307443
C68	C	1.496770	-0.136901	0.192557
C69	C	0.993957	-0.710406	-0.310296
C70	C	1.493957	-0.210406	0.189704
C71	C	0.949238	-0.747167	-0.354968
C72	C	1.449238	-0.247167	0.145032
C73	C	0.907333	-0.710418	-0.396793
C74	C	1.407333	-0.210418	0.103207
C75	C	0.910150	-0.636914	-0.393942
C76	C	1.410150	-0.136914	0.106058
C77	C	0.936174	-0.967002	-0.368135
C78	C	1.436174	-0.467002	0.131865
C79	C	0.933359	-1.040511	-0.370981
C80	C	1.433359	-0.540511	0.129019
C81	C	1.019984	-1.040494	-0.284485
C82	C	1.519984	-0.540494	0.215515
C83	C	1.022794	-0.966989	-0.281635
C84	C	1.522794	-0.466989	0.218365
C85	C	0.980892	-0.930246	-0.323463
C86	C	1.480892	-0.430246	0.176537
N87	N	0.946361	-0.822301	-0.357884
N88	N	1.446361	-0.322301	0.142116
N89	N	0.983773	-0.855113	-0.320549
N90	N	1.483773	-0.355113	0.179451
C91	C	1.141548	-0.339077	-0.339226
C92	C	1.641548	0.160923	0.160774
C93	C	1.216780	-0.339083	-0.339236
C94	C	1.716780	0.160917	0.160764
C95	C	0.965046	-0.339019	-0.515745
C96	C	1.465046	0.160981	-0.015745
C97	C	0.965063	-0.339000	-0.590976
C98	C	1.465063	0.161000	-0.090976
C99	C	0.972197	-0.155485	-0.332161
C100	C	1.472197	0.344515	0.167839
C101	C	0.975262	-0.077255	-0.329160
C102	C	1.475262	0.422745	0.170840
C103	C	1.010118	-0.293985	-0.624600
C104	C	1.510118	0.206015	-0.124600
C105	C	1.010125	-0.293965	-0.695288
C106	C	1.510125	0.206035	-0.195288
C107	C	0.965081	-0.338963	-0.732350
C108	C	1.465081	0.161037	-0.232350
C109	C	0.920022	-0.383980	-0.698721
C110	C	1.420022	0.116020	-0.198721
C111	C	0.920011	-0.383996	-0.628035
C112	C	1.420011	0.116004	-0.128035
C113	C	0.920062	-0.383914	-0.983792
C114	C	1.420062	0.116086	-0.483792
C115	C	0.920078	-0.383896	-1.054484
C116	C	1.420078	0.116104	-0.554484
C117	C	1.010177	-0.293883	-1.051045
C118	C	1.510177	0.206117	-0.551045
C119	C	1.010166	-0.293899	-0.980358
C120	C	1.510166	0.206101	-0.480358
C121	C	0.965104	-0.338913	-0.946736
C122	C	1.465104	0.161087	-0.446736
C123	C	0.965096	-0.338934	-0.870088
C124	C	1.465096	0.161066	-0.370088
C125	C	0.965093	-0.338947	-0.808997
C126	C	1.465093	0.161053	-0.308997
C127	C	0.965008	-0.339056	-0.163347
C128	C	1.465008	0.160944	0.336653
C129	C	0.965130	-0.338877	-0.088109
C130	C	1.465130	0.161123	0.411891
H131	H	0.220186	-0.420858	-0.420778
H132	H	0.720186	0.079142	0.079222
C133	C	0.147048	-0.254013	-0.254363
C134	C	0.647048	0.245987	0.245637
C135	C	0.216923	-0.244479	-0.244871
C136	C	0.716923	0.255521	0.255129
H137	H	0.124243	-0.223440	-0.223853
H138	H	0.624243	0.276560	0.276147
H139	H	0.135881	-0.243770	-0.299455
H140	H	0.635881	0.256230	0.200545
H141	H	0.133629	-0.301296	-0.246205
H142	H	0.633629	0.198704	0.253795
H143	H	0.230342	-0.197197	-0.253033
H144	H	0.730342	0.302803	0.246967
H145	H	0.228094	-0.254717	-0.199767
H146	H	0.728094	0.245283	0.300233
H147	H	0.704191	-0.420836	-0.420734
H148	H	1.204191	0.079164	0.079266
C149	C	0.906896	-0.478680	-0.552161
C150	C	1.406896	0.021320	-0.052161
C151	C	0.870492	-0.433478	-0.591066
C152	C	1.370492	0.066522	-0.091066
H153	H	0.876322	-0.509224	-0.529334
H154	H	1.376322	-0.009224	-0.029334
H155	H	0.935327	-0.505599	-0.580776
H156	H	1.435327	-0.005599	-0.080776
H157	H	0.933721	-0.451871	-0.519980
H158	H	1.433721	0.048129	-0.019980
H159	H	0.843671	-0.460287	-0.623251
H160	H	1.343671	0.039713	-0.123251
H161	H	0.842050	-0.406557	-0.562449
H162	H	1.342050	0.093443	-0.062449
H163	H	1.046848	-0.257260	-0.950185
H164	H	1.546848	0.242740	-0.450185
H165	H	0.575957	-0.420838	-0.420749
H166	H	1.075957	0.079162	0.079251
C167	C	0.880095	-0.423844	-1.164370
C168	C	1.380095	0.076156	-0.664370
C169	C	0.870562	-0.433362	-1.095226
C170	C	1.370562	0.066638	-0.595226
H171	H	0.849532	-0.454386	-1.189521
H172	H	1.349532	0.045614	-0.689521
H173	H	0.872044	-0.376557	-1.174137
H174	H	1.372044	0.123443	-0.674137
H175	H	0.925174	-0.434148	-1.176345
H176	H	1.425174	0.065852	-0.676345
H177	H	0.825485	-0.423053	-1.083249
H178	H	1.325485	0.076947	-0.583249
H179	H	0.878608	-0.480660	-1.085455
H180	H	1.378608	0.019340	-0.585455
C181	C	1.056710	-0.944418	-0.166181
C182	C	1.556710	-0.444418	0.333819
C183	C	1.071958	-0.926589	-0.232534
C184	C	1.571958	-0.426589	0.267466
H185	H	1.087065	-0.919480	-0.135869
H186	H	1.587065	-0.419480	0.364131
H187	H	1.011706	-0.932410	-0.155769
H188	H	1.511706	-0.432410	0.344231
H189	H	1.061028	-0.993455	-0.161904
H190	H	1.561028	-0.493455	0.338096
H191	H	1.067635	-0.877552	-0.236812
H192	H	1.567635	-0.377552	0.263188
H193	H	1.116973	-0.938592	-0.242950
H194	H	1.616973	-0.438592	0.257050
C195	C	1.039549	-0.524219	-0.264661
C196	C	1.539549	-0.024219	0.235339
C197	C	1.045926	-0.596496	-0.258336
C198	C	1.545926	-0.096496	0.241664
H199	H	1.069895	-0.499278	-0.234341
H200	H	1.569895	0.000722	0.265659
H201	H	1.049892	-0.512135	-0.309673
H202	H	1.549892	-0.012135	0.190327
H203	H	0.994535	-0.512226	-0.254246
H204	H	1.494535	-0.012226	0.245754
H205	H	1.090938	-0.608491	-0.268757
H206	H	1.590938	-0.108491	0.231243
H207	H	1.035587	-0.608585	-0.213314
H208	H	1.535587	-0.108585	0.286686
C209	C	0.434453	-0.253965	-0.254346
C210	C	0.934453	0.246035	0.245654
C211	C	0.365311	-0.244460	-0.244863
C212	C	0.865311	0.255540	0.255137
H213	H	0.459614	-0.223374	-0.223841
H214	H	0.959614	0.276626	0.276159
H215	H	0.444186	-0.301235	-0.246183
H216	H	0.944186	0.198765	0.253817
H217	H	0.446451	-0.243721	-0.299446
H218	H	0.946451	0.256279	0.200554
H219	H	0.353312	-0.254709	-0.199765
H220	H	0.853312	0.245291	0.300235
H221	H	0.355574	-0.197180	-0.253021
H222	H	0.855574	0.302820	0.246979
C223	C	0.899467	-1.063108	-0.486445
C224	C	1.399467	-0.563108	0.013555
C225	C	0.884207	-1.080925	-0.420091
C226	C	1.384207	-0.580925	0.079909
H227	H	0.869127	-1.088063	-0.516760
H228	H	1.369127	-0.588063	-0.016760
H229	H	0.895141	-1.014080	-0.490735
H230	H	1.395141	-0.514080	0.009265
H231	H	0.944483	-1.075110	-0.496843
H232	H	1.444483	-0.575110	0.003157
H233	H	0.839193	-1.068918	-0.409691
H234	H	1.339193	-0.568918	0.090309
H235	H	0.888527	-1.129963	-0.415799
H236	H	1.388527	-0.629963	0.084201
H237	H	0.348430	-0.420852	-0.420766
H238	H	0.848430	0.079148	0.079234
C239	C	0.530485	-0.284086	-0.202848
C240	C	1.030485	0.215914	0.297152
C241	C	0.572693	-0.244447	-0.244851
C242	C	1.072693	0.255553	0.255149
H243	H	0.507686	-0.253499	-0.172347
H244	H	1.007686	0.246501	0.327653
H245	H	0.498287	-0.310925	-0.229619
H246	H	0.998287	0.189075	0.270381
H247	H	0.556862	-0.314710	-0.178085
H248	H	1.056862	0.185290	0.321915
H249	H	0.546315	-0.213827	-0.269618
H250	H	1.046315	0.286173	0.230382
H251	H	0.604896	-0.217596	-0.218076
H252	H	1.104896	0.282404	0.281924
C253	C	0.676660	-0.204892	-0.205379
C254	C	1.176660	0.295108	0.294621
C255	C	0.721081	-0.244446	-0.244831
C256	C	1.221081	0.255554	0.255169
H257	H	0.701827	-0.174311	-0.174869
H258	H	1.201827	0.325689	0.325131
H259	H	0.650154	-0.178010	-0.233878
H260	H	1.150154	0.321990	0.266122
H261	H	0.647879	-0.235533	-0.180624
H262	H	1.147879	0.264467	0.319376
H263	H	0.749859	-0.213805	-0.269589
H264	H	1.249859	0.286195	0.230411
H265	H	0.747599	-0.271330	-0.216327
H266	H	1.247599	0.228670	0.283673
C267	C	0.929874	-0.884303	-0.455975
C268	C	1.429874	-0.384303	0.044025
C269	C	0.890108	-0.926626	-0.414108
C270	C	1.390108	-0.426626	0.085892
H271	H	0.901430	-0.859380	-0.484361
H272	H	1.401430	-0.359380	0.015639
H273	H	0.956901	-0.851888	-0.428968
H274	H	1.456901	-0.351888	0.071032
H275	H	0.958250	-0.912943	-0.482999
H276	H	1.458250	-0.412943	0.017001
H277	H	0.861735	-0.897986	-0.387080
H278	H	1.361735	-0.397986	0.112920
H279	H	0.863069	-0.959045	-0.441118
H280	H	1.363069	-0.459045	0.058882
C281	C	1.047748	-0.174814	-0.598275
C282	C	1.547748	0.325186	-0.098275
C283	C	1.059631	-0.244519	-0.583864
C284	C	1.559631	0.255481	-0.083864
H285	H	1.078313	-0.144274	-0.573124
H286	H	1.578313	0.355726	-0.073124
H287	H	1.054203	-0.168368	-0.645180
H288	H	1.554203	0.331632	-0.145180
H289	H	1.002671	-0.164523	-0.586282
H290	H	1.502671	0.335477	-0.086282
H291	H	1.104707	-0.254811	-0.595861
H292	H	1.604707	0.245189	-0.095861
H293	H	1.053181	-0.250968	-0.536948
H294	H	1.553181	0.249032	-0.036948
H295	H	1.046866	-0.257228	-1.078429
H296	H	1.546866	0.242772	-0.578429
C297	C	0.882398	-0.503091	-0.966606
C298	C	1.382398	-0.003091	-0.466606
C299	C	0.870524	-0.433390	-0.946847
C300	C	1.370524	0.066610	-0.446847
H301	H	0.851812	-0.533634	-0.943794
H302	H	1.351812	-0.033634	-0.443794
H303	H	0.875968	-0.509512	-1.014004
H304	H	1.375968	-0.009512	-0.514004
H305	H	0.927466	-0.513400	-0.955409
H306	H	1.427466	-0.013400	-0.455409
H307	H	0.825458	-0.423080	-0.958048
H308	H	1.325458	0.076920	-0.458048
H309	H	0.876948	-0.426966	-0.899438
H310	H	1.376948	0.073034	-0.399438
C311	C	0.873436	-0.733004	-0.512252
C312	C	1.373436	-0.233004	-0.012252
C313	C	0.858179	-0.750826	-0.445899
C314	C	1.358179	-0.250826	0.054101
H315	H	0.843091	-0.757953	-0.542566
H316	H	1.343091	-0.257953	-0.042566
H317	H	0.869113	-0.683975	-0.516537
H318	H	1.369113	-0.183975	-0.016537
H319	H	0.918449	-0.745008	-0.522655
H320	H	1.418449	-0.245008	-0.022655
H321	H	0.813168	-0.738816	-0.435494
H322	H	1.313168	-0.238816	0.064506
H323	H	0.862496	-0.799866	-0.441611
H324	H	1.362496	-0.299866	0.058389
H325	H	0.883343	-0.420615	-0.728903
H326	H	1.383343	0.079385	-0.228903
H327	H	1.028079	-0.740320	-0.276241
H328	H	1.528079	-0.240320	0.223759
H329	H	1.054099	-1.070418	-0.250432
H330	H	1.554099	-0.570418	0.249568
C331	C	0.876008	-0.524242	-0.427980
C332	C	1.376008	-0.024242	0.072020
C333	C	0.864089	-0.596522	-0.439912
C334	C	1.364089	-0.096522	0.060088
H335	H	0.847575	-0.499308	-0.456367
H336	H	1.347575	0.000692	0.043633
H337	H	0.866586	-0.512240	-0.382035
H338	H	1.366586	-0.012240	0.117965
H339	H	0.921945	-0.512160	-0.437460
H340	H	1.421945	-0.012160	0.062540
H341	H	0.818153	-0.608605	-0.430428
H342	H	1.318153	-0.108605	0.069572
H343	H	0.873507	-0.608529	-0.485869
H344	H	1.373507	-0.108529	0.014131
C345	C	1.023244	-0.199259	-0.771131
C346	C	1.523244	0.300741	-0.271131
C347	C	1.059648	-0.244475	-0.732240
C348	C	1.559648	0.255525	-0.232240
H349	H	1.053819	-0.168699	-0.793938
H350	H	1.553819	0.331301	-0.293938
H351	H	0.996430	-0.226053	-0.803323
H352	H	1.496430	0.273947	-0.303323
H353	H	0.994804	-0.172353	-0.742505
H354	H	1.494804	0.327647	-0.242505
H355	H	1.088085	-0.271385	-0.760867
H356	H	1.588085	0.228615	-0.260867
H357	H	1.086474	-0.217678	-0.700045
H358	H	1.586474	0.282322	-0.200045
