data_functionalizedCrystal
_audit_creation_method	'MofGen! by Chris Wilmer'
_symmetry_space_group_name_H-M	'P1'
_symmetry_Int_Tables_number	1
_symmetry_cell_setting	triclinic
loop_
_symmetry_equiv_pos_as_xyz
  x,y,z
_cell_length_a	19.805407
_cell_length_b	18.050590
_cell_length_c	19.805399
_cell_angle_alpha	89.972574
_cell_angle_beta	89.979591
_cell_angle_gamma	90.020493
loop_
_atom_site_label
_atom_site_type_symbol
_atom_site_fract_x
_atom_site_fract_y
_atom_site_fract_z
Zn1	Zn	1.034773	-0.295638	-0.382736
Zn2	Zn	1.534773	0.204362	0.117264
Zn3	Zn	1.034703	-0.419830	-0.269548
Zn4	Zn	1.534703	0.080170	0.230452
Zn5	Zn	0.921587	-0.295663	-0.269558
Zn6	Zn	1.421587	0.204337	0.230442
Zn7	Zn	0.921566	-0.419795	-0.382693
Zn8	Zn	1.421566	0.080205	0.117307
O9	O	0.978157	-0.357732	-0.326134
O10	O	1.478157	0.142268	0.173866
O11	O	1.129480	-0.312117	-0.367734
O12	O	1.629480	0.187883	0.132266
O13	O	1.019678	-0.403384	-0.174832
O14	O	1.519678	0.096616	0.325168
O15	O	0.936639	-0.191735	-0.284594
O16	O	1.436639	0.308265	0.215406
O17	O	1.129429	-0.403360	-0.284576
O18	O	1.629429	0.096640	0.215424
O19	O	1.019796	-0.191717	-0.367745
O20	O	1.519796	0.308283	0.132255
O21	O	0.936572	-0.312159	-0.174840
O22	O	1.436572	0.187841	0.325160
O23	O	0.826868	-0.312125	-0.284553
O24	O	1.326868	0.187875	0.215447
O25	O	0.936604	-0.403300	-0.477415
O26	O	1.436604	0.096700	0.022585
O27	O	0.826853	-0.403324	-0.367672
O28	O	1.326853	0.096676	0.132328
O29	O	1.019776	-0.312083	-0.477446
O30	O	1.519776	0.187917	0.022554
O31	O	1.019657	-0.523750	-0.284534
O32	O	1.519657	-0.023750	0.215466
O33	O	0.936536	-0.523724	-0.367661
O34	O	1.436536	-0.023724	0.132339
C35	C	0.802301	-0.357724	-0.326109
C36	C	1.302301	0.142276	0.173891
C37	C	0.727069	-0.357739	-0.326115
C38	C	1.227069	0.142261	0.173885
C39	C	0.265308	-0.310310	-0.369527
C40	C	0.765308	0.189690	0.130473
C41	C	0.335997	-0.310311	-0.369522
C42	C	0.835997	0.189689	0.130478
C43	C	0.371308	-0.357743	-0.326155
C44	C	0.871308	0.142257	0.173845
C45	C	0.335926	-0.405181	-0.282796
C46	C	0.835926	0.094819	0.217204
C47	C	0.265239	-0.405183	-0.282805
C48	C	0.765239	0.094817	0.217195
C49	C	0.621000	-0.405176	-0.282760
C50	C	1.121000	0.094824	0.217240
C51	C	0.691692	-0.405169	-0.282753
C52	C	1.191692	0.094831	0.217247
C53	C	0.691757	-0.310304	-0.369477
C54	C	1.191757	0.189696	0.130523
C55	C	0.621070	-0.310306	-0.369486
C56	C	1.121070	0.189694	0.130514
C57	C	0.585695	-0.357747	-0.326129
C58	C	1.085695	0.142253	0.173871
C59	C	0.509047	-0.357746	-0.326136
C60	C	1.009047	0.142254	0.173864
C61	C	0.447955	-0.357741	-0.326145
C62	C	0.947955	0.142259	0.173855
C63	C	0.978105	-0.550684	-0.326107
C64	C	1.478105	-0.050684	0.173893
C65	C	0.978145	-0.633230	-0.326118
C66	C	1.478145	-0.133230	0.173882
C67	C	1.023440	-0.832667	-0.280976
C68	C	1.523440	-0.332667	0.219024
C69	C	1.039973	-0.882000	-0.342751
C70	C	1.539973	-0.382000	0.157249
C71	C	0.978183	-0.784360	-0.326145
C72	C	1.478183	-0.284360	0.173855
C73	C	0.961720	-0.882108	-0.264397
C74	C	1.461720	-0.382108	0.235603
C75	C	0.978222	-0.930345	-0.326165
C76	C	1.478222	-0.430345	0.173835
C77	C	0.994748	-0.832606	-0.387952
C78	C	1.494748	-0.332606	0.112048
C79	C	0.916466	-0.832709	-0.309557
C80	C	1.416466	-0.332709	0.190443
C81	C	0.932975	-0.882020	-0.371374
C82	C	1.432975	-0.382020	0.128626
C83	C	0.978163	-0.700262	-0.326132
C84	C	1.478163	-0.200262	0.173868
C85	C	0.978242	-1.014441	-0.326185
C86	C	1.478242	-0.514441	0.173815
C87	C	1.154700	-0.357740	-0.326158
C88	C	1.654700	0.142260	0.173842
C89	C	1.229932	-0.357743	-0.326169
C90	C	1.729932	0.142257	0.173831
C91	C	0.978195	-0.357685	-0.502676
C92	C	1.478195	0.142315	-0.002676
C93	C	0.978211	-0.357665	-0.577908
C94	C	1.478211	0.142335	-0.077908
C95	C	0.978228	-0.164026	-0.326175
C96	C	1.478228	0.335974	0.173825
C97	C	0.978258	-0.081480	-0.326193
C98	C	1.478258	0.418520	0.173807
C99	C	1.021520	-0.310166	-0.613270
C100	C	1.521520	0.189834	-0.113270
C101	C	1.021527	-0.310144	-0.683958
C102	C	1.521527	0.189856	-0.183958
C103	C	0.978228	-0.357626	-0.719284
C104	C	1.478228	0.142374	-0.219284
C105	C	0.934915	-0.405128	-0.683917
C106	C	1.434915	0.094872	-0.183917
C107	C	0.934905	-0.405145	-0.613230
C108	C	1.434905	0.094855	-0.113230
C109	C	0.934953	-0.405058	-0.968991
C110	C	1.434953	0.094942	-0.468991
C111	C	0.934968	-0.405039	-1.039683
C112	C	1.434968	0.094961	-0.539683
C113	C	1.021575	-0.310058	-1.039719
C114	C	1.521575	0.189942	-0.539719
C115	C	1.021565	-0.310075	-0.969032
C116	C	1.521565	0.189925	-0.469032
C117	C	0.978250	-0.357573	-0.933672
C118	C	1.478250	0.142427	-0.433672
C119	C	0.978242	-0.357595	-0.857023
C120	C	1.478242	0.142405	-0.357023
C121	C	0.978239	-0.357609	-0.795931
C122	C	1.478239	0.142391	-0.295931
C123	C	0.978158	-0.357725	-0.150278
C124	C	1.478158	0.142275	0.349722
C125	C	0.978273	-0.357535	-0.075046
C126	C	1.478273	0.142465	0.424954
H127	H	0.364797	-0.271689	-0.404830
H128	H	0.864797	0.228311	0.095170
N129	N	0.850994	-0.805518	-0.291903
N130	N	1.350994	-0.305518	0.208097
N131	N	0.843840	-0.765042	-0.241213
N132	N	1.343840	-0.265042	0.258787
H133	H	0.797600	-0.745837	-0.228736
H134	H	1.297600	-0.245837	0.271264
H135	H	1.056781	-0.271502	-0.584513
H136	H	1.556781	0.228498	-0.084513
H137	H	0.947779	-0.903852	-0.212170
H138	H	1.447779	-0.403852	0.287830
N139	N	0.229232	-0.261870	-0.413827
N140	N	0.729232	0.238130	0.086173
N141	N	0.166119	-0.261877	-0.413832
N142	N	0.666119	0.238123	0.086168
H143	H	0.140641	-0.227667	-0.445122
H144	H	0.640641	0.272333	0.054878
H145	H	0.592324	-0.271679	-0.404797
H146	H	1.092324	0.228321	0.095203
N147	N	0.884985	-0.909049	-0.419352
N148	N	1.384985	-0.409049	0.080648
N149	N	0.876893	-0.977232	-0.426833
N150	N	1.376893	-0.477232	0.073167
H151	H	0.843000	-0.996322	-0.460717
H152	H	1.343000	-0.496322	0.039283
H153	H	0.899693	-0.443745	-0.940209
H154	H	1.399693	0.056255	-0.440209
N155	N	1.065770	-0.261620	-0.720069
N156	N	1.565770	0.238380	-0.220069
N157	N	1.104430	-0.219233	-0.688520
N158	N	1.604430	0.280767	-0.188520
H159	H	1.135679	-0.184960	-0.714022
H160	H	1.635679	0.315040	-0.214022
N161	N	1.012332	-0.805453	-0.453487
N162	N	1.512332	-0.305453	0.046513
N163	N	1.068153	-0.821755	-0.478914
N164	N	1.568153	-0.321755	0.021086
H165	H	1.080576	-0.802578	-0.525196
H166	H	1.580576	-0.302578	-0.025196
N167	N	1.105470	-0.909179	-0.360345
N168	N	1.605470	-0.409179	0.139655
N169	N	1.152365	-0.864735	-0.372409
N170	N	1.652365	-0.364735	0.127591
H171	H	1.198625	-0.883934	-0.384820
H172	H	1.698625	-0.383934	0.115180
N173	N	1.065803	-0.261574	-0.932959
N174	N	1.565803	0.238426	-0.432959
N175	N	1.104469	-0.219166	-0.964541
N176	N	1.604469	0.280834	-0.464541
H177	H	1.135713	-0.184909	-0.939066
H178	H	1.635713	0.315091	-0.439066
N179	N	0.890684	-0.453619	-0.720010
N180	N	1.390684	0.046381	-0.220010
N181	N	0.890698	-0.453598	-0.783123
N182	N	1.390698	0.046402	-0.283123
H183	H	0.859460	-0.487847	-0.808613
H184	H	1.359460	0.012153	-0.308613
H185	H	1.056843	-0.271379	-1.068518
H186	H	1.556843	0.228621	-0.568518
N187	N	0.890729	-0.453545	-1.075758
N188	N	1.390729	0.046455	-0.575758
N189	N	0.852056	-0.495948	-1.044179
N190	N	1.352056	0.004052	-0.544179
H191	H	0.820813	-0.530204	-1.069657
H192	H	1.320813	-0.030204	-0.569657
N193	N	0.890657	-0.453664	-0.577117
N194	N	1.390657	0.046336	-0.077117
N195	N	0.851999	-0.496054	-0.608664
N196	N	1.351999	0.003946	-0.108664
H197	H	0.820744	-0.530320	-0.583160
H198	H	1.320744	-0.030320	-0.083160
N199	N	0.727894	-0.261837	-0.413761
N200	N	1.227894	0.238163	0.086239
N201	N	0.767339	-0.214478	-0.390016
N202	N	1.267339	0.285522	0.109984
H203	H	0.792859	-0.180246	-0.421289
H204	H	1.292859	0.319754	0.078711
N205	N	0.727752	-0.453624	-0.238446
N206	N	1.227752	0.046376	0.261554
N207	N	0.696160	-0.495977	-0.199738
N208	N	1.196160	0.004023	0.300262
H209	H	0.721626	-0.530196	-0.168446
H210	H	1.221626	-0.030196	0.331554
H211	H	0.592206	-0.443803	-0.247454
H212	H	1.092206	0.056197	0.252546
H213	H	0.364682	-0.443804	-0.247489
H214	H	0.864682	0.056196	0.252511
H215	H	0.236436	-0.443810	-0.247500
H216	H	0.736436	0.056190	0.252500
H217	H	1.061725	-0.810997	-0.242818
H218	H	1.561725	-0.310997	0.257182
