data_functionalizedCrystal
_audit_creation_method	'MofGen! by Chris Wilmer'
_symmetry_space_group_name_H-M	'P1'
_symmetry_Int_Tables_number	1
_symmetry_cell_setting	triclinic
loop_
_symmetry_equiv_pos_as_xyz
  x,y,z
_cell_length_a	10.540539
_cell_length_b	19.188930
_cell_length_c	9.016244
_cell_angle_alpha	89.992636
_cell_angle_beta	89.994699
_cell_angle_gamma	83.835137
loop_
_atom_site_label
_atom_site_type_symbol
_atom_site_fract_x
_atom_site_fract_y
_atom_site_fract_z
O1	O	1.683725	0.098388	-0.123289
O2	O	1.314108	0.107659	-0.123309
O3	O	1.509583	0.001439	-0.123270
O4	O	1.488250	0.204608	-0.123329
O5	O	1.509554	0.001441	0.123411
O6	O	1.314079	0.107661	0.123372
O7	O	1.683697	0.098391	0.123392
Cu8	Cu	1.498885	0.103026	0.145905
Cu9	Cu	1.498919	0.103023	-0.145823
O10	O	1.488222	0.204611	0.123352
C11	C	1.266806	0.106965	0.000029
C12	C	1.125904	0.104885	0.000023
C13	C	0.944233	0.025184	0.000622
C14	C	1.090805	0.027292	0.000050
C15	C	1.063424	0.142224	-0.140849
C16	C	0.916938	0.139576	-0.140951
C17	C	0.916383	0.141157	0.139570
C18	C	1.063349	0.141872	0.141417
C19	C	1.508878	-0.024575	0.000075
C20	C	1.506804	-0.102094	0.000088
C21	C	1.621502	-0.146253	0.000101
C22	C	1.619554	-0.219090	0.000077
C23	C	1.502901	-0.247764	0.000070
C24	C	1.388187	-0.203595	0.000048
C25	C	1.390139	-0.130760	0.000057
N26	N	1.413724	-0.356363	0.084015
N27	N	1.411878	-0.425553	0.084010
C28	C	1.497014	-0.467212	0.000039
N29	N	1.584085	-0.437067	-0.083907
N30	N	1.585935	-0.367870	-0.083895
C31	C	1.500772	-0.326741	0.000059
C32	C	1.609608	-0.590350	0.000025
C33	C	1.607655	-0.663188	-0.000008
C34	C	1.376285	-0.647691	-0.000023
C35	C	1.378241	-0.574855	-0.000004
C36	C	1.494906	-0.546189	0.000026
C37	C	1.730998	0.099085	0.000050
C38	C	1.871901	0.101165	0.000047
C39	C	1.488927	0.230625	0.000004
C40	C	1.491000	0.308143	-0.000018
N41	N	1.498871	0.103028	0.351092
N42	N	1.498944	0.103016	-0.351009
C43	C	1.393992	0.159658	0.586103
C44	C	1.394216	0.159870	0.414212
C45	C	1.631229	0.119601	0.413432
C46	C	1.630654	0.120002	0.585376
C47	C	1.472714	0.029640	0.585655
C48	C	1.469658	0.030115	0.413700
H49	H	1.084522	0.199206	-0.146107
H50	H	1.716500	-0.122918	0.000121
O51	O	1.266417	-0.083130	0.000063
H52	H	1.261774	-0.049568	-0.100477
H53	H	1.410916	0.214309	0.373051
H54	H	1.549255	-0.012519	0.626323
H55	H	1.711168	0.079472	0.372542
H56	H	1.378325	0.013867	0.629103
O57	O	0.875322	0.107895	0.281014
H58	H	0.907819	0.137039	0.377739
H59	H	1.701060	-0.699142	-0.000006
O60	O	1.250460	-0.678606	-0.000024
H61	H	1.268370	-0.736672	-0.000018
O62	O	1.735436	-0.559428	0.000028
H63	H	1.741861	-0.526630	0.100584
O64	O	1.743272	-0.266729	0.000118
H65	H	1.747950	-0.300277	-0.100426
H66	H	1.293208	-0.226946	0.000039
O67	O	1.564359	-0.028409	0.356812
H68	H	1.615480	-0.055299	0.451906
H69	H	1.134054	-0.002088	0.101034
O70	O	1.662671	0.189714	0.356382
H71	H	1.584242	0.212865	0.283646
O72	O	1.661350	0.190910	0.638480
H73	H	1.676457	0.224593	0.541350
H74	H	1.106597	0.116284	-0.245674
H75	H	1.133214	-0.002297	-0.101092
O76	O	0.907251	-0.015425	0.134442
H77	H	0.836913	0.018108	0.201971
H78	H	1.284841	-0.538899	-0.000007
H79	H	1.295820	0.149898	0.372066
H80	H	1.711169	0.080409	0.626974
H81	H	0.889348	0.111977	-0.246239
O82	O	1.263234	0.146669	0.640946
H83	H	1.271645	0.099707	0.713620
O84	O	1.340685	0.013472	0.359761
H85	H	1.297561	0.056941	0.288646
H86	H	1.410466	0.213789	0.629282
O87	O	0.905124	-0.015262	-0.132415
H88	H	0.834397	0.018518	-0.198948
H89	H	1.104900	0.114594	0.245633
O90	O	0.851754	0.213489	-0.149473
H91	H	0.924902	0.250964	-0.153514
H92	H	1.086328	0.198442	0.149905
H93	H	0.867921	0.197202	0.140506
