data_functionalizedCrystal
_audit_creation_method	'MofGen! by Chris Wilmer'
_symmetry_space_group_name_H-M	'P1'
_symmetry_Int_Tables_number	1
_symmetry_cell_setting	triclinic
loop_
_symmetry_equiv_pos_as_xyz
  x,y,z
_cell_length_a	14.044191
_cell_length_b	10.540510
_cell_length_c	12.503572
_cell_angle_alpha	86.439199
_cell_angle_beta	93.837835
_cell_angle_gamma	88.852544
loop_
_atom_site_label
_atom_site_type_symbol
_atom_site_fract_x
_atom_site_fract_y
_atom_site_fract_z
O1	O	1.265175	0.299581	0.089257
O2	O	1.598508	0.632914	0.422591
O3	O	1.931841	0.966247	0.755924
O4	O	0.989132	0.288519	0.089271
O5	O	1.322465	0.621852	0.422605
O6	O	1.655799	0.955185	0.755938
O7	O	1.133466	0.109979	0.089264
O8	O	1.466799	0.443313	0.422597
O9	O	1.800132	0.776646	0.755930
O10	O	1.120841	0.478120	0.089265
O11	O	1.454174	0.811453	0.422598
O12	O	1.787507	1.144787	0.755932
O13	O	1.122611	0.123431	-0.089378
O14	O	1.455944	0.456764	0.243956
O15	O	1.789278	0.790097	0.577289
O16	O	0.978277	0.301970	-0.089370
O17	O	1.311611	0.635304	0.243963
O18	O	1.644944	0.968637	0.577297
O19	O	1.254320	0.313032	-0.089384
O20	O	1.587653	0.646365	0.243949
O21	O	1.920987	0.979699	0.577283
Cu22	Cu	1.115308	0.308729	-0.105688
Cu23	Cu	1.448641	0.642063	0.227645
Cu24	Cu	1.781974	0.975396	0.560978
Cu25	Cu	1.128144	0.292821	0.105576
Cu26	Cu	1.461478	0.626155	0.438909
Cu27	Cu	1.794811	0.959488	0.772242
O28	O	1.109986	0.491572	-0.089376
O29	O	1.443320	0.824905	0.243957
O30	O	1.776653	1.158238	0.577290
C31	C	0.948358	0.290405	-0.000047
C32	C	1.281691	0.623739	0.333286
C33	C	1.615025	0.957072	0.666619
C34	C	0.843036	0.275972	-0.000042
C35	C	1.176369	0.609305	0.333291
C36	C	1.509702	0.942638	0.666625
C37	C	0.593257	0.351951	-0.000052
C38	C	0.926590	0.685284	0.333281
C39	C	1.259924	1.018617	0.666614
C40	C	0.650201	0.249605	-0.000051
C41	C	0.983535	0.582939	0.333282
C42	C	1.316868	0.916272	0.666616
C43	C	0.757504	0.264279	-0.000046
C44	C	1.090837	0.597612	0.333287
C45	C	1.424171	0.930946	0.666621
C46	C	0.485944	0.337279	-0.000057
C47	C	0.819277	0.670612	0.333276
C48	C	1.152611	1.003945	0.666609
C49	C	1.127098	0.069306	-0.000055
C50	C	1.460431	0.402639	0.333279
C51	C	1.793764	0.735973	0.666612
C52	C	1.124283	-0.071929	-0.000048
C53	C	1.457617	0.261404	0.333285
C54	C	1.790950	0.594738	0.666618
C55	C	1.224527	-0.279213	-0.000462
C56	C	1.557860	0.054120	0.332871
C57	C	1.891193	0.387454	0.666204
C58	C	1.227554	-0.132344	-0.000054
C59	C	1.560887	0.200989	0.333279
C60	C	1.894221	0.534322	0.666612
C61	C	1.077617	-0.129716	0.101965
C62	C	1.410951	0.203618	0.435299
C63	C	1.744284	0.536951	0.768632
C64	C	1.075351	-0.276712	0.102045
C65	C	1.408684	0.056621	0.435379
C66	C	1.742018	0.389954	0.768712
C67	C	1.060857	-0.261441	-0.101103
C68	C	1.394190	0.071892	0.232230
C69	C	1.727523	0.405225	0.565563
C70	C	1.065673	-0.114504	-0.102446
C71	C	1.399007	0.218830	0.230887
C72	C	1.732340	0.552163	0.564220
C73	C	1.295094	0.311145	-0.000063
C74	C	1.628428	0.644479	0.333271
C75	C	1.961761	0.977812	0.666604
C76	C	1.400417	0.325579	-0.000061
C77	C	1.733750	0.658912	0.333272
C78	C	2.067083	0.992245	0.666605
C79	C	1.116354	0.532245	-0.000055
C80	C	1.449688	0.865578	0.333278
C81	C	1.783021	1.198911	0.666611
C82	C	1.119169	0.673479	-0.000055
C83	C	1.452502	1.006812	0.333278
C84	C	1.785836	1.340146	0.666612
N85	N	1.106286	0.319918	-0.254280
N86	N	1.439619	0.653252	0.079053
N87	N	1.772952	0.986585	0.412387
C88	C	1.093014	0.336388	-0.473395
C89	C	1.426348	0.669721	-0.140061
C90	C	1.759681	1.003055	0.193272
C91	C	1.150442	0.265157	-0.526725
C92	C	1.483775	0.598491	-0.193392
C93	C	1.817109	0.931824	0.139942
C94	C	1.143058	0.274321	-0.648648
C95	C	1.476391	0.607655	-0.315314
C96	C	1.809724	0.940988	0.018019
C97	C	1.100398	0.327226	-0.351461
C98	C	1.433731	0.660559	-0.018128
C99	C	1.767064	0.993892	0.315206
N100	N	1.137174	0.281623	0.254168
N101	N	1.470507	0.614957	0.587501
N102	N	1.803840	0.948290	0.920834
H103	H	1.264474	-0.093311	-0.073180
H104	H	1.597807	0.240022	0.260153
H105	H	1.931141	0.573356	0.593486
H106	H	0.998391	-0.307867	0.106671
H107	H	1.331725	0.025466	0.440004
H108	H	1.665058	0.358800	0.773338
H109	H	0.618371	0.150958	0.000024
H110	H	0.951704	0.484292	0.333358
H111	H	1.285037	0.817625	0.666691
H112	H	1.205154	0.197293	-0.480815
H113	H	1.538487	0.530627	-0.147482
H114	H	1.871820	0.863960	0.185852
H115	H	1.038307	0.404250	-0.519299
H116	H	1.371641	0.737583	-0.185966
H117	H	1.704974	1.070916	0.147367
H118	H	0.989904	-0.072598	-0.108602
H119	H	1.323237	0.260735	0.224731
H120	H	1.656570	0.594068	0.558064
H121	H	0.625090	0.450584	-0.000049
H122	H	0.958424	0.783917	0.333285
H123	H	1.291757	1.117250	0.666618
H124	H	1.260315	-0.311590	-0.073622
H125	H	1.593648	0.021743	0.259712
H126	H	1.926981	0.355076	0.593045
H127	H	1.268948	-0.324150	0.072279
H128	H	1.602281	0.009183	0.405612
H129	H	1.935615	0.342516	0.738946
H130	H	1.001822	-0.090301	0.105762
H131	H	1.335155	0.243032	0.439096
H132	H	1.668488	0.576365	0.772429
H133	H	1.273608	-0.105247	0.073195
H134	H	1.606941	0.228086	0.406528
H135	H	1.940275	0.561420	0.739862
H136	H	1.116112	-0.319016	0.178298
H137	H	1.449446	0.014318	0.511631
H138	H	1.782779	0.347651	0.844965
H139	H	0.983279	-0.291381	-0.101787
H140	H	1.316612	0.041952	0.231547
H141	H	1.649945	0.375285	0.564880
H142	H	1.118943	-0.100862	0.177880
H143	H	1.452276	0.232471	0.511213
H144	H	1.785609	0.565804	0.844546
H145	H	1.088976	-0.294482	-0.178429
H146	H	1.422310	0.038852	0.154904
H147	H	1.755643	0.372185	0.488237
H148	H	1.099554	-0.076319	-0.177915
H149	H	1.432888	0.257015	0.155418
H150	H	1.766221	0.590348	0.488752
