data_functionalizedCrystal
_audit_creation_method	'MofGen! by Chris Wilmer'
_symmetry_space_group_name_H-M	'P1'
_symmetry_Int_Tables_number	1
_symmetry_cell_setting	triclinic
loop_
_symmetry_equiv_pos_as_xyz
  x,y,z
_cell_length_a	12.759401
_cell_length_b	15.299816
_cell_length_c	12.759393
_cell_angle_alpha	99.650532
_cell_angle_beta	89.980789
_cell_angle_gamma	80.350755
loop_
_atom_site_label
_atom_site_type_symbol
_atom_site_fract_x
_atom_site_fract_y
_atom_site_fract_z
Zn1	Zn	1.678550	-0.358996	-0.666399
Zn2	Zn	1.708817	-0.509838	-0.521146
Zn3	Zn	1.502860	-0.359042	-0.490748
Zn4	Zn	1.533202	-0.509771	-0.696774
O5	O	1.605857	-0.434412	-0.593767
O6	O	1.829588	-0.379014	-0.647141
O7	O	1.681465	-0.489882	-0.370102
O8	O	1.500801	-0.232828	-0.488614
O9	O	1.851825	-0.489837	-0.540425
O10	O	1.629880	-0.232794	-0.617665
O11	O	1.530149	-0.379093	-0.347769
O12	O	1.359862	-0.379028	-0.518067
O13	O	1.552514	-0.489722	-0.839756
O14	O	1.382154	-0.489767	-0.669434
O15	O	1.659301	-0.378949	-0.817440
O16	O	1.710886	-0.636037	-0.569878
O17	O	1.581862	-0.635988	-0.698910
C18	C	1.332887	-0.434396	-0.593749
C19	C	1.216113	-0.434411	-0.593770
C20	C	1.149694	-0.376810	-0.649463
C21	C	1.039972	-0.376819	-0.649471
C22	C	1.063099	-0.492039	-0.538095
C23	C	1.172818	-0.492024	-0.538080
C24	C	1.652979	-0.668737	-0.641012
C25	C	1.673235	-0.768982	-0.661258
C26	C	1.461779	-1.051926	-0.449418
C27	C	1.442743	-0.957741	-0.430398
C28	C	1.500364	-0.910547	-0.488111
C29	C	1.577025	-0.957547	-0.564848
C30	C	1.596057	-1.051741	-0.583876
C31	C	1.634642	-0.910362	-0.622569
C32	C	1.711303	-0.957362	-0.699306
C33	C	1.730332	-1.051547	-0.718330
C34	C	1.672711	-1.098741	-0.660617
C35	C	1.615610	-0.816167	-0.603541
C36	C	1.749888	-0.815982	-0.737999
C37	C	1.768924	-0.910167	-0.757019
C38	C	1.879894	-0.434428	-0.593786
C39	C	1.996672	-0.434435	-0.593794
C40	C	1.605916	-0.434323	-0.867782
C41	C	1.605941	-0.434285	-0.984551
C42	C	1.558580	-0.199172	-0.546361
C43	C	1.538433	-0.098926	-0.526159
C44	C	1.661563	-0.376562	-1.137518
C45	C	1.661550	-0.376597	-1.027801
C46	C	1.550350	-0.491948	-1.051027
C47	C	1.550370	-0.491917	-1.160743
C48	C	1.605846	-0.434435	-0.320804
C49	C	1.605974	-0.434219	-0.203984
H50	H	1.027835	-0.538946	-0.492755
H51	H	1.184940	-0.329895	-0.694805
H52	H	0.985897	-0.329913	-0.694819
H53	H	1.505103	-0.538873	-1.214864
C54	C	1.245884	-0.555392	-0.476820
H55	H	1.204389	-0.589715	-0.443668
H56	H	1.281715	-0.520839	-0.424141
H57	H	1.296618	-0.594725	-0.524870
H58	H	1.553192	-0.777908	-0.541061
H59	H	1.484862	-0.833857	-0.472619
C60	C	1.814651	-1.103249	-0.802740
H61	H	1.817727	-1.166103	-0.805811
H62	H	1.882122	-1.087772	-0.784296
H63	H	1.796110	-1.087778	-0.870197
H64	H	1.380326	-0.919477	-0.367920
C65	C	1.398407	-1.103840	-0.385943
H66	H	1.420727	-1.166666	-0.408264
H67	H	1.324698	-1.088447	-0.398146
H68	H	1.410716	-1.088444	-0.312251
C69	C	1.693585	-1.202346	-0.681609
H70	H	1.747473	-1.223581	-0.735594
H71	H	1.630059	-1.223635	-0.704034
H72	H	1.716101	-1.223741	-0.618162
C73	C	1.722691	-0.313170	-0.954690
H74	H	1.755800	-0.278800	-0.996160
H75	H	1.775397	-0.347680	-0.918845
H76	H	1.674586	-0.273881	-0.903970
C77	C	1.853238	-0.961874	-0.841432
H78	H	1.856311	-1.024727	-0.844500
H79	H	1.920711	-0.946399	-0.822995
H80	H	1.834693	-0.946404	-0.908890
H81	H	1.796806	-0.777557	-0.784996
H82	H	1.706838	-0.329580	-1.172721
C83	C	1.489179	-0.555402	-1.003456
H84	H	1.497118	-0.547157	-0.928592
H85	H	1.516732	-0.615997	-1.033644
H86	H	1.415934	-0.542184	-1.018771
