data_functionalizedCrystal
_audit_creation_method	'MofGen! by Chris Wilmer'
_symmetry_space_group_name_H-M	'P1'
_symmetry_Int_Tables_number	1
_symmetry_cell_setting	triclinic
loop_
_symmetry_equiv_pos_as_xyz
  x,y,z
_cell_length_a	10.686220
_cell_length_b	10.686285
_cell_length_c	10.686551
_cell_angle_alpha	80.915481
_cell_angle_beta	89.691918
_cell_angle_gamma	89.654570
loop_
_atom_site_label
_atom_site_type_symbol
_atom_site_fract_x
_atom_site_fract_y
_atom_site_fract_z
Zn1	Zn	1.994012	0.307898	0.537149
Zn2	Zn	2.494012	0.807898	1.037149
Zn3	Zn	1.993911	0.536485	0.308653
Zn4	Zn	2.493911	1.036485	0.808653
Zn5	Zn	1.770410	0.340205	0.340818
Zn6	Zn	2.270410	0.840205	0.840818
Zn7	Zn	1.800161	0.533926	0.534641
Zn8	Zn	2.300161	1.033926	1.034641
O9	O	1.889623	0.429629	0.430315
O10	O	2.389623	0.929629	0.930315
O11	O	2.168662	0.325771	0.494427
O12	O	2.668662	0.825771	0.994427
O13	O	1.951770	0.525040	0.136178
O14	O	2.451770	1.025040	0.636178
O15	O	1.787663	0.159182	0.381372
O16	O	2.287663	0.659182	0.881372
O17	O	2.168588	0.493713	0.326552
O18	O	2.668588	0.993713	0.826552
O19	O	1.951942	0.135446	0.525615
O20	O	2.451942	0.635446	1.025615
O21	O	1.787565	0.380834	0.159810
O22	O	2.287565	0.880834	0.659810
O23	O	1.599693	0.378352	0.378940
O24	O	2.099693	0.878352	0.878940
O25	O	1.838368	0.489351	0.711715
O26	O	2.338368	0.989351	1.211715
O27	O	1.621551	0.520678	0.521341
O28	O	2.121551	1.020678	1.021341
O29	O	1.980790	0.323289	0.713557
O30	O	2.480790	0.823289	1.213557
O31	O	1.980618	0.712883	0.324121
O32	O	2.480618	1.212883	0.824121
O33	O	1.838270	0.711003	0.490153
O34	O	2.338270	1.211003	0.990153
C35	C	1.565334	0.452744	0.453360
C36	C	2.065334	0.952744	0.953360
C37	C	1.426605	0.462661	0.463246
C38	C	1.926605	0.962661	0.963246
C39	C	1.912909	0.402431	0.759745
C40	C	2.412909	0.902431	1.259745
C41	C	1.922832	0.390841	0.900128
C42	C	2.422832	0.890841	1.400128
C43	C	1.912698	0.757764	0.403399
C44	C	2.412698	1.257764	0.903399
C45	C	1.922686	0.898130	0.391919
C46	C	2.422686	1.398130	0.891919
C47	C	2.215179	0.406424	0.407181
C48	C	2.715179	0.906424	0.907181
C49	C	2.353912	0.396535	0.397323
C50	C	2.853912	0.896535	0.897323
C51	C	1.866495	0.100207	0.457361
C52	C	2.366495	0.600207	0.957361
C53	C	1.856639	-0.040173	0.468887
C54	C	2.356639	0.459827	0.968887
C55	C	1.866493	0.456624	0.102170
C56	C	2.366493	0.956624	0.602170
C57	C	1.856787	0.467841	-0.038201
C58	C	2.356787	0.967841	0.461799
H59	H	1.397808	0.332337	0.333320
H60	H	1.897808	0.832337	0.833320
H61	H	1.382704	0.526872	0.527245
H62	H	1.882704	1.026872	1.027245
Cl63	Cl	2.021870	0.275370	0.984423
Cl64	Cl	2.521870	0.775370	1.484423
H65	H	1.792449	0.905259	0.543572
H66	H	2.292449	1.405259	1.043572
Cl67	Cl	1.757769	0.583320	0.877507
Cl68	Cl	2.257769	1.083320	1.377507
H69	H	1.986863	0.952695	0.317231
H70	H	2.486863	1.452695	0.817231
