data_functionalizedCrystal
_audit_creation_method	'MofGen! by Chris Wilmer'
_symmetry_space_group_name_H-M	'P1'
_symmetry_Int_Tables_number	1
_symmetry_cell_setting	triclinic
loop_
_symmetry_equiv_pos_as_xyz
  x,y,z
_cell_length_a	10.654550
_cell_length_b	16.053802
_cell_length_c	10.654550
_cell_angle_alpha	87.409340
_cell_angle_beta	84.484931
_cell_angle_gamma	92.602894
loop_
_atom_site_label
_atom_site_type_symbol
_atom_site_fract_x
_atom_site_fract_y
_atom_site_fract_z
O1	O	1.673089	0.069366	0.171162
O2	O	1.307611	0.069382	0.187967
O3	O	1.498753	0.069369	-0.003174
O4	O	1.481948	0.069380	0.362303
O5	O	1.488231	-0.069490	0.007303
O6	O	1.297090	-0.069476	0.198444
O7	O	1.662567	-0.069492	0.181639
Zn8	Zn	1.478158	-0.091531	0.191705
Zn9	Zn	1.492021	0.091421	0.177901
O10	O	1.471426	-0.069478	0.372781
C11	C	1.255553	-0.000045	0.191971
C12	C	1.116110	-0.000040	0.188279
N13	N	1.468707	-0.216390	0.201126
C14	C	1.036625	-0.000039	0.300821
C15	C	0.905603	-0.000053	0.297345
C16	C	0.933565	-0.000066	0.068777
C17	C	1.064584	-0.000058	0.072254
C18	C	1.550068	-0.260090	0.119824
C19	C	1.543468	-0.347496	0.126426
C20	C	1.455513	-0.391201	0.214336
C21	C	1.374143	-0.347496	0.295641
C22	C	1.380737	-0.260091	0.289032
C23	C	1.426707	-0.652609	0.243167
C24	C	1.420121	-0.740020	0.249772
C25	C	1.589445	-0.740014	0.080555
C26	C	1.596037	-0.652608	0.073959
C27	C	1.514663	-0.608910	0.155260
N28	N	1.448767	-0.480545	0.221089
N29	N	1.521403	-0.519568	0.148500
C30	C	1.714626	-0.000063	0.177635
C31	C	1.854069	-0.000063	0.181327
C32	C	1.492258	-0.000060	-0.044734
C33	C	1.488566	-0.000059	-0.184177
N34	N	1.501482	0.216281	0.168471
C35	C	1.601107	-0.000063	-0.263662
C36	C	1.597632	-0.000053	-0.394684
C37	C	1.369064	-0.000037	-0.366722
C38	C	1.372541	-0.000041	-0.235703
C39	C	1.477921	-0.000048	0.414340
C40	C	1.481613	-0.000044	0.553783
H41	H	1.078572	-0.000030	0.395296
C42	C	1.678939	-0.788080	-0.008881
H43	H	1.732270	-0.749532	-0.062179
H44	H	1.630735	-0.822187	-0.059003
H45	H	1.729045	-0.822165	0.039363
H46	H	0.840890	-0.000054	0.388988
C47	C	0.876882	-0.000076	-0.058841
H48	H	0.787468	-0.000072	-0.044796
H49	H	0.900438	-0.048498	-0.101577
H50	H	0.907759	0.048354	-0.108878
H51	H	1.129305	-0.000061	-0.019397
H52	H	1.280891	-0.000035	-0.170983
H53	H	1.621696	-0.224511	0.048244
C54	C	1.692842	-0.604534	-0.022683
H55	H	1.685142	-0.546221	-0.014948
H56	H	1.677463	-0.618846	-0.105575
H57	H	1.775674	-0.618870	-0.007109
H58	H	1.609718	-0.383076	0.060223
H59	H	1.695583	-0.000075	-0.221714
C60	C	1.241445	-0.000030	-0.423405
H61	H	1.255490	-0.000037	-0.512819
H62	H	1.198724	0.048394	-0.399839
H63	H	1.191395	-0.048458	-0.392538
H64	H	1.302521	-0.383086	0.367215
H65	H	1.348493	-0.775601	0.321365
H66	H	1.360451	-0.617037	0.309368
C67	C	1.291246	-0.212021	0.378469
H68	H	1.237926	-0.250567	0.431780
H69	H	1.241149	-0.177935	0.330227
H70	H	1.339456	-0.177915	0.428596
H71	H	1.689275	-0.000054	-0.459397
