data_functionalizedCrystal
_audit_creation_method	'MofGen! by Chris Wilmer'
_symmetry_space_group_name_H-M	'P1'
_symmetry_Int_Tables_number	1
_symmetry_cell_setting	triclinic
loop_
_symmetry_equiv_pos_as_xyz
  x,y,z
_cell_length_a	14.044220
_cell_length_b	16.974800
_cell_length_c	16.053802
_cell_angle_alpha	91.074188
_cell_angle_beta	92.799619
_cell_angle_gamma	88.279480
loop_
_atom_site_label
_atom_site_type_symbol
_atom_site_fract_x
_atom_site_fract_y
_atom_site_fract_z
O1	O	0.120850	1.057574	0.002053
O2	O	0.135362	0.829132	-0.013390
O3	O	-0.009887	0.939924	-0.005892
O4	O	0.266099	0.946782	-0.005445
O5	O	-0.001925	0.933823	0.132554
O6	O	0.143324	0.823032	0.125056
O7	O	0.128812	1.051473	0.140499
Zn8	Zn	0.137332	0.936284	0.154759
Zn9	Zn	0.126842	0.944322	-0.027650
O10	O	0.274061	0.940682	0.133001
C11	C	0.138646	0.796670	0.053845
C12	C	0.136555	0.709030	0.047921
C13	C	0.139911	0.664536	0.120606
C14	C	0.137932	0.582190	0.115042
C15	C	0.132603	0.544339	0.036791
C16	C	0.129245	0.588839	-0.035900
C17	C	0.131217	0.671184	-0.030335
C18	C	0.126232	0.298421	0.012055
C19	C	0.124263	0.216069	0.006496
C20	C	0.132948	0.209426	0.157438
C21	C	0.134926	0.291772	0.162996
C22	C	0.131562	0.336266	0.090305
N23	N	0.130583	0.460168	0.031102
N24	N	0.133576	0.420436	0.095995
C25	C	-0.041228	0.933871	0.063129
C26	C	-0.146476	0.924917	0.062524
C27	C	-0.339179	0.908548	0.061406
C28	C	-0.396653	0.972054	0.065696
C29	C	-0.503879	0.962946	0.065074
C30	C	-0.231942	0.917655	0.062028
C31	C	0.305402	0.946734	0.063979
C32	C	0.410650	0.955688	0.064578
C33	C	0.125528	1.083935	0.073263
C34	C	0.127619	1.171575	0.079181
N35	N	0.144491	0.930804	0.279248
N36	N	0.119676	0.949807	-0.152139
C37	C	0.082709	0.977966	0.326134
C38	C	0.087726	0.974141	0.413282
C39	C	0.154529	0.923157	0.453543
C40	C	0.216314	0.875989	0.406651
C41	C	0.211292	0.879811	0.319504
C42	C	0.176438	0.906461	0.713823
C43	C	0.181457	0.902645	0.800976
C44	C	0.052868	1.000796	0.807601
C45	C	0.047856	1.004616	0.720453
C46	C	0.109637	0.957446	0.673568
N47	N	0.159661	0.919248	0.542622
N48	N	0.104500	0.961352	0.584490
H49	H	0.140648	0.545967	0.174231
H50	H	0.261600	0.841406	0.281330
H51	H	-0.365331	1.033267	0.069778
C52	C	-0.015095	1.052675	0.859174
C53	C	-0.123749	1.044291	0.846602
C54	C	-0.191719	1.096170	0.898174
C55	C	-0.151035	1.156433	0.962317
C56	C	-0.042377	1.164820	0.974891
C57	C	0.025593	1.112941	0.923319
H58	H	-0.153870	0.999678	0.799117
H59	H	-0.272155	1.089961	0.888865
H60	H	-0.201351	1.194837	1.000493
H61	H	-0.012255	1.209433	1.022376
H62	H	0.106030	1.119149	0.932628
H63	H	-0.370503	0.847342	0.057266
C64	C	0.009223	1.034050	0.281852
C65	C	-0.058739	1.085923	0.333430
C66	C	-0.132230	1.142007	0.289151
C67	C	-0.137759	1.146217	0.193293
C68	C	-0.069795	1.094342	0.141710
C69	C	0.003696	1.038259	0.185989
H70	H	-0.054649	1.082808	0.404394
H71	H	-0.182542	1.180408	0.327337
H72	H	-0.192161	1.187734	0.160515
H73	H	-0.073885	1.097457	0.070746
H74	H	0.054008	0.999857	0.147803
H75	H	0.144257	0.695348	0.184326
C76	C	0.140710	0.333409	0.249074
C77	C	0.144343	0.284469	0.329029
C78	C	0.150096	0.326107	0.415108
C79	C	0.152215	0.416685	0.421231
C80	C	0.148581	0.465630	0.341272
C81	C	0.142828	0.423992	0.255194
H82	H	0.142775	0.217413	0.324499
H83	H	0.152786	0.289874	0.474298
H84	H	0.156474	0.447508	0.484951
H85	H	0.150150	0.532686	0.345803
H86	H	0.140138	0.460225	0.196004
H87	H	0.037418	1.012543	0.451456
H88	H	0.270703	0.834473	0.439436
H89	H	0.235861	0.861126	0.833751
C90	C	0.136640	0.160484	0.237395
C91	C	0.058243	0.172240	0.300641
C92	C	0.061931	0.123299	0.380602
C93	C	0.144016	0.062602	0.397318
C94	C	0.222419	0.050843	0.334070
C95	C	0.218731	0.099784	0.254109
H96	H	-0.002527	0.217174	0.288268
H97	H	0.003891	0.132004	0.427422
H98	H	0.146746	0.026373	0.456510
H99	H	0.283188	0.005909	0.346443
H100	H	0.276770	0.091079	0.207289
C101	C	0.122540	0.347350	-0.067907
C102	C	0.036442	0.341928	-0.130715
C103	C	0.032750	0.390859	-0.210683
C104	C	0.115157	0.445212	-0.227843
C105	C	0.201262	0.450637	-0.165034
C106	C	0.204954	0.401706	-0.085066
H107	H	-0.024567	0.301691	-0.118013
H108	H	-0.030991	0.386843	-0.257179
H109	H	0.112425	0.481434	-0.287041
H110	H	0.262271	0.490874	-0.177735
H111	H	0.268695	0.405721	-0.038570
H112	H	0.119927	0.185254	-0.057228
H113	H	0.226745	0.868055	0.675656
H114	H	0.128486	0.707411	-0.089523
C115	C	-0.025631	1.060695	0.676162
C116	C	-0.093598	1.112575	0.727728
C117	C	-0.167082	1.168656	0.683435
C118	C	-0.172598	1.172855	0.587577
C119	C	-0.104629	1.120973	0.536006
C120	C	-0.031145	1.064892	0.580299
H121	H	-0.089517	1.109468	0.798692
H122	H	-0.217397	1.207063	0.721611
H123	H	-0.226995	1.214369	0.554788
H124	H	-0.108710	1.124080	0.465041
H125	H	0.019171	1.026486	0.542122
H126	H	0.124900	0.558015	-0.099613
