data_functionalizedCrystal
_audit_creation_method	'MofGen! by Chris Wilmer'
_symmetry_space_group_name_H-M	'P1'
_symmetry_Int_Tables_number	1
_symmetry_cell_setting	triclinic
loop_
_symmetry_equiv_pos_as_xyz
  x,y,z
_cell_length_a	18.101398
_cell_length_b	19.120785
_cell_length_c	18.101389
_cell_angle_alpha	92.462206
_cell_angle_beta	90.024802
_cell_angle_gamma	92.461139
loop_
_atom_site_label
_atom_site_type_symbol
_atom_site_fract_x
_atom_site_fract_y
_atom_site_fract_z
Zn1	Zn	1.119575	-0.279744	0.406243
Zn2	Zn	1.114204	-0.397185	0.277109
Zn3	Zn	0.995734	-0.279742	0.282403
Zn4	Zn	0.990418	-0.397160	0.400898
O5	O	1.054983	-0.338458	0.341663
O6	O	1.222495	-0.295334	0.389134
O7	O	1.098465	-0.381615	0.174178
O8	O	1.016634	-0.181453	0.303283
O9	O	1.218548	-0.381618	0.294261
O10	O	1.107619	-0.181454	0.394267
O11	O	1.011426	-0.295330	0.178067
O12	O	0.891396	-0.295306	0.298100
O13	O	1.007575	-0.381575	0.505240
O14	O	0.887491	-0.381573	0.385158
O15	O	1.102465	-0.295310	0.509167
O16	O	1.093311	-0.495471	0.289078
O17	O	1.002366	-0.495453	0.380025
C18	C	0.862573	-0.338437	0.341624
C19	C	0.780259	-0.338445	0.341624
C20	C	0.629550	-0.338460	0.341657
C21	C	0.600631	-0.284105	0.286981
C22	C	0.515023	-0.283901	0.287178
C23	C	0.481166	-0.338474	0.341687
C24	C	0.513192	-0.318728	0.420713
C25	C	0.598855	-0.318325	0.420382
C26	C	0.594616	-0.412700	0.317990
C27	C	0.508982	-0.412309	0.316305
C28	C	0.397306	-0.338483	0.341710
C29	C	0.713409	-0.338449	0.341640
C30	C	1.046699	-0.520947	0.333413
C31	C	1.043223	-0.599017	0.329909
C32	C	1.021170	-1.040568	0.307733
C33	C	1.024438	-0.967213	0.311026
C34	C	1.073411	-0.930477	0.360081
C35	C	1.119113	-0.967100	0.405851
C36	C	1.115842	-1.040453	0.402561
C37	C	1.085654	-0.708994	0.372389
C38	C	1.088924	-0.635635	0.375673
C39	C	0.994247	-0.635753	0.280850
C40	C	0.990983	-0.709108	0.277561
C41	C	1.036683	-0.745724	0.323334
C42	C	1.076753	-0.855497	0.363446
C43	C	1.033336	-0.820704	0.319971
C44	C	1.248144	-0.338479	0.341703
C45	C	1.330457	-0.338488	0.341720
C46	C	1.055026	-0.338440	0.534826
C47	C	1.055045	-0.338432	0.617141
C48	C	1.063319	-0.155255	0.349962
C49	C	1.066871	-0.077186	0.353498
C50	C	1.054984	-0.338425	0.149254
C51	C	1.055118	-0.338234	0.066949
C52	C	1.055094	-0.338301	0.916238
C53	C	0.995202	-0.392404	0.882450
C54	C	0.995346	-0.392655	0.796820
C55	C	1.055069	-0.338366	0.767852
C56	C	1.132193	-0.358461	0.798053
C57	C	1.131857	-0.358816	0.883682
C58	C	1.038546	-0.263983	0.888011
C59	C	1.036790	-0.264412	0.802340
C60	C	1.055060	-0.338402	0.683991
C61	C	1.055108	-0.338267	1.000099
H62	H	0.491130	-0.357112	0.462724
H63	H	0.957039	-0.605933	0.243585
N64	N	0.961636	-0.244328	0.776311
H65	H	0.922866	-0.280145	0.792199
H66	H	0.961571	-0.242656	0.720621
N67	N	1.096371	-0.210584	0.917285
H68	H	1.085456	-0.162942	0.898972
H69	H	1.146781	-0.224292	0.899367
H70	H	1.128807	-0.605728	0.415621
H71	H	1.122875	-0.738798	0.409652
H72	H	1.116629	-0.825580	0.403386
N73	N	0.919464	-0.375968	0.769703
H74	H	0.885618	-0.368386	0.813396
H75	H	0.898886	-0.416278	0.736960
N76	N	1.151714	-0.429658	0.766444
H77	H	1.112853	-0.465878	0.781207
H78	H	1.201445	-0.442059	0.786217
H79	H	0.983459	-0.245675	0.910421
H80	H	0.987224	-0.937399	0.273762
N81	N	1.171927	-0.927475	0.458763
H82	H	1.207621	-0.897032	0.430066
H83	H	1.200331	-0.961846	0.487248
N84	N	0.632410	-0.211647	0.307900
H85	H	0.662204	-0.193076	0.265263
H86	H	0.665420	-0.213942	0.352650
H87	H	0.497027	-0.228892	0.303148
H88	H	1.153051	-1.070267	0.439833
H89	H	0.620626	-0.296282	0.228313
H90	H	0.993459	-0.850617	0.280035
H91	H	1.077495	-0.221962	0.782869
N92	N	1.009491	-0.465622	0.766414
H93	H	1.056002	-0.464469	0.735610
H94	H	0.966251	-0.483514	0.734647
N95	N	0.486390	-0.300214	0.209715
H96	H	0.529396	-0.307602	0.175132
H97	H	0.457288	-0.259818	0.193043
H98	H	0.494178	-0.265070	0.440610
H99	H	0.617902	-0.356210	0.462711
N100	N	0.919063	-0.375911	0.910438
H101	H	0.922651	-0.333211	0.945295
H102	H	0.897458	-0.417138	0.937438
H103	H	0.621293	-0.264067	0.440003
N104	N	0.622099	-0.436593	0.242702
H105	H	0.657478	-0.399529	0.223173
H106	H	0.578762	-0.444479	0.207732
N107	N	0.478123	-0.468793	0.364823
H108	H	0.494429	-0.458102	0.417621
H109	H	0.496937	-0.515568	0.347142
N110	N	0.481139	-0.432045	0.239245
H111	H	0.450632	-0.393326	0.220847
H112	H	0.449615	-0.476877	0.240207
N113	N	1.009173	-0.464934	0.907666
H114	H	1.054128	-0.462898	0.940885
H115	H	1.017951	-0.497162	0.863155
H116	H	0.613074	-0.453193	0.357772
N117	N	1.150954	-0.430776	0.906918
H118	H	1.159510	-0.461968	0.861549
H119	H	1.108827	-0.451505	0.936602
H120	H	0.981294	-1.070473	0.267785
N121	N	0.938166	-0.748729	0.224649
H122	H	0.909710	-0.714400	0.196155
H123	H	0.902520	-0.779175	0.253393
H124	H	1.177815	-0.321120	0.906121
N125	N	1.192703	-0.307901	0.773397
H126	H	1.170650	-0.271397	0.742335
H127	H	1.230166	-0.334313	0.743184
