data_functionalizedCrystal
_audit_creation_method	'MofGen! by Chris Wilmer'
_symmetry_space_group_name_H-M	'P1'
_symmetry_Int_Tables_number	1
_symmetry_cell_setting	triclinic
loop_
_symmetry_equiv_pos_as_xyz
  x,y,z
_cell_length_a	10.654541
_cell_length_b	16.992695
_cell_length_c	16.053802
_cell_angle_alpha	92.741074
_cell_angle_beta	92.605833
_cell_angle_gamma	92.423924
loop_
_atom_site_label
_atom_site_type_symbol
_atom_site_fract_x
_atom_site_fract_y
_atom_site_fract_z
O1	O	1.682335	-0.106907	0.069425
O2	O	2.182335	0.393093	0.569425
O3	O	1.317763	-0.117407	0.069428
O4	O	1.817763	0.382593	0.569428
O5	O	1.498587	0.001994	0.069420
O6	O	1.998587	0.501994	0.569420
O7	O	1.501511	-0.226307	0.069433
O8	O	2.001511	0.273693	0.569433
O9	O	1.488631	-0.004551	-0.069438
O10	O	1.988631	0.495449	0.430562
O11	O	1.307807	-0.123952	-0.069430
O12	O	1.807807	0.376048	0.430570
O13	O	1.672379	-0.113452	-0.069433
O14	O	2.172379	0.386548	0.430567
Zn15	Zn	1.488512	-0.119741	-0.091478
Zn16	Zn	1.988512	0.380259	0.408522
Zn17	Zn	1.501629	-0.111118	0.091474
Zn18	Zn	2.001629	0.388882	0.591474
O19	O	1.491555	-0.232852	-0.069425
O20	O	1.991555	0.267148	0.430575
C21	C	1.265921	-0.119909	-0.000001
C22	C	1.765921	0.380091	0.499999
C23	C	1.126278	-0.117603	0.000000
C24	C	1.626278	0.382397	0.500000
C25	C	1.724221	-0.110950	-0.000002
C26	C	2.224221	0.389050	0.499998
C27	C	1.863864	-0.113255	0.000002
C28	C	2.363864	0.386745	0.500002
C29	C	1.489849	0.027954	-0.000009
C30	C	1.989849	0.527954	0.499991
C31	C	1.478629	0.115059	-0.000009
C32	C	1.978629	0.615059	0.499991
C33	C	1.879497	0.029521	0.000004
C34	C	2.379497	0.529521	0.500004
C35	C	1.952917	0.099823	0.000009
C36	C	2.452917	0.599823	0.500009
C37	C	2.084122	0.097652	0.000013
C38	C	2.584122	0.597652	0.500013
C39	C	2.141911	0.025171	0.000008
C40	C	2.641911	0.525171	0.500008
C41	C	2.068491	-0.045130	0.000002
C42	C	2.568491	0.454870	0.500002
C43	C	1.937284	-0.042952	0.000002
C44	C	2.437284	0.457048	0.500002
C45	C	2.052859	-0.187905	-0.000005
C46	C	2.552859	0.312095	0.499995
C47	C	1.921653	-0.185736	-0.000003
C48	C	2.421653	0.314264	0.499997
C49	C	2.110647	-0.260386	-0.000010
C50	C	2.610647	0.239614	0.499990
C51	C	2.037228	-0.330689	-0.000010
C52	C	2.537228	0.169311	0.499990
C53	C	1.906014	-0.328515	-0.000012
C54	C	2.406014	0.171485	0.499988
C55	C	1.848233	-0.256037	-0.000008
C56	C	2.348233	0.243963	0.499992
C57	C	1.500293	-0.258812	0.000006
C58	C	2.000293	0.241188	0.500006
C59	C	1.511513	-0.345917	0.000011
C60	C	2.011513	0.154083	0.500011
N61	N	1.479569	-0.125625	-0.216338
N62	N	1.979569	0.374375	0.283662
C63	C	1.586880	0.164712	-0.000010
C64	C	2.086880	0.664712	0.499990
C65	C	1.576332	0.246556	-0.000002
C66	C	2.076332	0.746556	0.499998
C67	C	1.457531	0.278746	0.000001
C68	C	1.957531	0.778746	0.500001
C69	C	1.349272	0.229087	0.000006
C70	C	1.849272	0.729087	0.500006
C71	C	1.359822	0.147245	0.000004
C72	C	1.859822	0.647245	0.500004
C73	C	1.413804	0.522582	0.000013
C74	C	1.913804	1.022582	0.500013
C75	C	1.403262	0.604430	0.000013
C76	C	1.903262	1.104430	0.500013
C77	C	1.630323	0.621893	0.000006
C78	C	2.130323	1.121893	0.500006
C79	C	1.640862	0.540048	-0.000001
C80	C	2.140862	1.040048	0.499999
C81	C	1.532604	0.490397	0.000008
C82	C	2.032604	0.990397	0.500008
N83	N	1.446745	0.362404	0.000007
N84	N	1.946745	0.862404	0.500007
N85	N	1.543391	0.406741	0.000008
N86	N	2.043391	0.906741	0.500008
C87	C	1.556542	-0.074839	-0.260036
C88	C	2.056542	0.425161	0.239964
C89	C	1.550299	-0.078963	-0.347442
C90	C	2.050299	0.421037	0.152558
C91	C	1.467088	-0.133877	-0.391150
C92	C	1.967088	0.366123	0.108850
C93	C	1.390107	-0.184666	-0.347446
C94	C	1.890107	0.315334	0.152554
C95	C	1.396345	-0.180538	-0.260041
C96	C	1.896345	0.319462	0.239959
C97	C	1.439839	-0.151888	-0.652558
C98	C	1.939839	0.348112	-0.152558
C99	C	1.433609	-0.156014	-0.739969
C100	C	1.933609	0.343986	-0.239969
C101	C	1.593800	-0.050308	-0.739959
C102	C	2.093800	0.449692	-0.239959
C103	C	1.600035	-0.046188	-0.652552
C104	C	2.100035	0.453812	-0.152552
C105	C	1.523050	-0.096974	-0.608857
C106	C	2.023050	0.403026	-0.108857
N107	N	1.460707	-0.138096	-0.480493
N108	N	1.960707	0.361904	0.019507
N109	N	1.529425	-0.092752	-0.519515
N110	N	2.029425	0.407248	-0.019515
N111	N	1.510582	-0.105227	0.216333
N112	N	2.010582	0.394773	0.716333
H113	H	1.772664	0.031296	0.000011
H114	H	2.272664	0.531296	0.500011
H115	H	1.664481	0.286980	-0.000006
H116	H	2.164481	0.786980	0.499994
Cl117	Cl	1.253901	0.644896	0.000012
Cl118	Cl	1.753901	1.144896	0.500012
Cl119	Cl	2.109882	-0.421797	-0.000020
Cl120	Cl	2.609882	0.078203	0.499980
H121	H	2.143901	0.154898	0.000015
H122	H	2.643901	0.654898	0.500015
H123	H	1.365846	-0.200735	-0.775552
H124	H	1.865846	0.299265	-0.275552
H125	H	1.377156	-0.193241	-0.616988
H126	H	1.877156	0.306759	-0.116988
H127	H	2.248746	0.023410	0.000000
H128	H	2.748746	0.523410	0.500000
H129	H	1.846243	-0.385764	-0.000022
H130	H	2.346243	0.114236	0.499978
Cl131	Cl	1.299570	-0.244385	-0.205108
Cl132	Cl	1.799570	0.255615	0.294892
H133	H	1.612975	-0.037608	-0.383020
H134	H	2.112975	0.462392	0.116980
H135	H	1.322349	-0.229376	-0.383038
H136	H	1.822349	0.270624	0.116962
Cl137	Cl	1.736237	0.124252	-0.000024
Cl138	Cl	2.236237	0.624252	0.499976
Cl139	Cl	1.704645	0.022847	-0.597606
Cl140	Cl	2.204645	0.522847	-0.097606
H141	H	1.656476	-0.008960	-0.775544
H142	H	2.156476	0.491040	-0.275544
Cl143	Cl	1.277706	0.460174	0.000026
Cl144	Cl	1.777706	0.960174	0.500026
H145	H	1.741400	-0.254260	-0.000006
H146	H	2.241400	0.245740	0.499994
H147	H	1.905850	0.158835	0.000001
H148	H	2.405850	0.658835	0.500001
Cl149	Cl	1.766410	0.684316	-0.000002
Cl150	Cl	2.266410	1.184316	0.499998
Cl151	Cl	2.275596	-0.263113	0.000035
Cl152	Cl	2.775596	0.236887	0.500035
H153	H	1.252542	0.255303	0.000014
H154	H	1.752542	0.755303	0.500014
Cl155	Cl	1.790220	0.499589	0.000022
Cl156	Cl	2.290220	0.999589	0.500022
Cl157	Cl	1.223729	0.084824	0.000009
Cl158	Cl	1.723729	0.584824	0.500009
H159	H	1.624306	-0.030125	-0.224455
H160	H	2.124306	0.469875	0.275545
