data_functionalizedCrystal
_audit_creation_method	'MofGen! by Chris Wilmer'
_symmetry_space_group_name_H-M	'P1'
_symmetry_Int_Tables_number	1
_symmetry_cell_setting	triclinic
loop_
_symmetry_equiv_pos_as_xyz
  x,y,z
_cell_length_a	13.339070
_cell_length_b	13.339070
_cell_length_c	9.198806
_cell_angle_alpha	90.000879
_cell_angle_beta	90.004272
_cell_angle_gamma	115.629294
loop_
_atom_site_label
_atom_site_type_symbol
_atom_site_fract_x
_atom_site_fract_y
_atom_site_fract_z
O1	O	1.496805	0.550524	0.120931
O2	O	1.996805	1.050524	0.620931
O3	O	1.181996	0.478264	0.120924
O4	O	1.681996	0.978264	0.620924
O5	O	1.303271	0.356990	0.120922
O6	O	1.803271	0.856990	0.620922
O7	O	1.375531	0.671799	0.120932
O8	O	1.875531	1.171799	0.620932
O9	O	1.303258	0.356985	-0.120863
O10	O	1.803258	0.856985	0.379137
O11	O	1.181983	0.478260	-0.120861
O12	O	1.681983	0.978260	0.379139
O13	O	1.496793	0.550519	-0.120855
O14	O	1.996793	1.050519	0.379145
Cu15	Cu	1.339387	0.514389	-0.142935
Cu16	Cu	1.839387	1.014389	0.357065
Cu17	Cu	1.339402	0.514395	0.143004
Cu18	Cu	1.839402	1.014395	0.643004
O19	O	1.375518	0.671794	-0.120853
O20	O	1.875518	1.171794	0.379147
C21	C	1.140874	0.466056	0.000030
C22	C	1.640874	0.966056	0.500030
C23	C	1.018360	0.429672	0.000028
C24	C	1.518360	0.929672	0.500028
C25	C	0.732973	0.712571	0.000060
C26	C	1.232973	1.212571	0.500060
C27	C	0.848081	0.746759	0.000067
C28	C	1.348081	1.246759	0.500067
C29	C	0.890657	0.667490	0.000057
C30	C	1.390657	1.167490	0.500057
C31	C	0.818112	0.554028	0.000040
C32	C	1.318112	1.054028	0.500040
C33	C	0.702992	0.519837	0.000045
C34	C	1.202992	1.019837	0.500045
C35	C	0.860676	0.474756	0.000042
C36	C	1.360676	0.974756	0.500042
C37	C	0.788132	0.361294	0.000025
C38	C	1.288132	0.861294	0.500025
C39	C	0.673023	0.327109	0.000029
C40	C	1.173023	0.827109	0.500029
C41	C	0.630448	0.406377	0.000039
C42	C	1.130448	0.906377	0.500039
C43	C	0.975796	0.508947	0.000037
C44	C	1.475796	1.008947	0.500037
C45	C	0.945816	0.316213	0.000022
C46	C	1.445816	0.816213	0.500022
C47	C	0.830707	0.282025	0.000015
C48	C	1.330707	0.782025	0.500015
C49	C	1.291058	0.315872	0.000031
C50	C	1.791058	0.815872	0.500031
C51	C	1.254675	0.193358	0.000036
C52	C	1.754675	0.693358	0.500036
C53	C	1.537574	-0.092030	0.000042
C54	C	2.037574	0.407970	0.500042
C55	C	1.571761	0.023079	0.000029
C56	C	2.071761	0.523079	0.500029
C57	C	1.492492	0.065654	0.000031
C58	C	1.992492	0.565654	0.500031
C59	C	1.379030	-0.006890	0.000046
C60	C	1.879030	0.493110	0.500046
C61	C	1.344839	-0.122010	0.000047
C62	C	1.844839	0.377990	0.500047
C63	C	1.299758	0.035674	0.000037
C64	C	1.799758	0.535674	0.500037
C65	C	1.186296	-0.036871	0.000051
C66	C	1.686296	0.463129	0.500051
C67	C	1.152111	-0.151979	0.000053
C68	C	1.652111	0.348021	0.500053
C69	C	1.231380	-0.194555	0.000051
C70	C	1.731380	0.305445	0.500051
C71	C	1.333949	0.150794	0.000035
C72	C	1.833949	0.650794	0.500035
C73	C	1.141215	0.120813	0.000040
C74	C	1.641215	0.620813	0.500040
C75	C	1.107028	0.005705	0.000053
C76	C	1.607028	0.505705	0.500053
C77	C	1.537914	0.562728	0.000042
C78	C	2.037914	1.062728	0.500042
C79	C	1.660428	0.599111	0.000054
C80	C	2.160428	1.099111	0.500054
C81	C	1.387730	0.712912	0.000041
C82	C	1.887730	1.212912	0.500041
C83	C	1.424114	0.835426	0.000046
C84	C	1.924114	1.335426	0.500046
N85	N	1.339384	0.514387	-0.344049
N86	N	1.839384	1.014387	0.155951
C87	C	1.288561	0.565617	-0.416280
C88	C	1.788561	1.065617	0.083720
C89	C	1.288575	0.565619	-0.583693
C90	C	1.788575	1.065619	-0.083693
N91	N	1.339411	0.514391	0.344118
N92	N	1.839411	1.014391	0.844118
H93	H	0.613959	0.234721	0.000032
H94	H	1.113959	0.734721	0.500032
F95	F	1.194999	-0.317067	0.000202
F96	F	1.694999	0.182933	0.500202
H97	H	1.034852	0.601328	0.000045
H98	H	1.534852	1.101328	0.500045
H99	H	1.382911	0.470534	-0.406147
H100	H	1.882911	0.970534	0.093853
F101	F	1.013167	0.703879	0.000062
F102	F	1.513167	1.203879	0.500062
F103	F	0.925280	0.867508	0.000090
F104	F	1.425280	1.367508	0.500090
F105	F	1.454700	0.227988	0.000019
F106	F	1.954700	0.727988	0.500019
F107	F	1.231694	0.622943	-0.664879
F108	F	1.731694	1.122943	-0.164879
F109	F	1.056845	0.166119	0.000034
F110	F	1.556845	0.666119	0.500034
H111	H	0.698296	0.777099	0.000081
H112	H	1.198296	1.277099	0.500081
H113	H	0.536718	0.378547	0.000033
H114	H	1.036718	0.878547	0.500033
F115	F	0.753487	0.161273	-0.000001
F116	F	1.253487	0.661273	0.499999
H117	H	1.059723	-0.211043	0.000054
H118	H	1.559723	0.288957	0.500054
F119	F	1.528881	0.188164	0.000022
F120	F	2.028881	0.688164	0.500022
H121	H	0.980479	0.251665	0.000020
H122	H	1.480479	0.751665	0.500020
H123	H	1.382920	0.470523	-0.593775
H124	H	1.882920	0.970523	-0.093775
F125	F	1.231680	0.622952	-0.335122
F126	F	1.731680	1.122952	0.164878
H127	H	1.602102	-0.126707	0.000028
H128	H	2.102102	0.373293	0.500028
H129	H	1.014645	-0.053377	0.000064
H130	H	1.514645	0.446623	0.500064
H131	H	1.664142	0.082137	0.000015
H132	H	2.164142	0.582137	0.500015
