data_functionalizedCrystal
_audit_creation_method	'MofGen! by Chris Wilmer'
_symmetry_space_group_name_H-M	'P1'
_symmetry_Int_Tables_number	1
_symmetry_cell_setting	triclinic
loop_
_symmetry_equiv_pos_as_xyz
  x,y,z
_cell_length_a	23.532407
_cell_length_b	22.610064
_cell_length_c	23.532407
_cell_angle_alpha	90.000603
_cell_angle_beta	82.848678
_cell_angle_gamma	90.002839
loop_
_atom_site_label
_atom_site_type_symbol
_atom_site_fract_x
_atom_site_fract_y
_atom_site_fract_z
O1	O	0.755263	0.049117	0.069127
O2	O	1.255263	0.549117	0.569127
O3	O	0.589400	0.049135	0.079130
O4	O	1.089400	0.549135	0.579130
O5	O	0.677333	0.049114	-0.008803
O6	O	1.177333	0.549114	0.491197
O7	O	0.667330	0.049137	0.157060
O8	O	1.167330	0.549137	0.657060
O9	O	0.677318	-0.049255	-0.008790
O10	O	1.177318	0.450745	0.491210
O11	O	0.589385	-0.049234	0.079143
O12	O	1.089385	0.450766	0.579143
O13	O	0.755248	-0.049252	0.069140
O14	O	1.255248	0.450748	0.569140
Zn15	Zn	0.672314	-0.064862	0.074144
Zn16	Zn	1.172314	0.435138	0.574144
Zn17	Zn	0.672334	0.064744	0.074127
Zn18	Zn	1.172334	0.564744	0.574127
O19	O	0.667315	-0.049232	0.157073
O20	O	1.167315	0.450768	0.657073
C21	C	0.568176	-0.000048	0.078882
C22	C	1.068176	0.499952	0.578882
C23	C	0.504959	-0.000041	0.078116
C24	C	1.004959	0.499959	0.578116
N25	N	0.672304	-0.153314	0.074155
N26	N	1.172304	0.346686	0.574155
C27	C	0.105856	-0.000061	0.125350
C28	C	0.605856	0.499939	0.625350
C29	C	0.046456	-0.000065	0.124638
C30	C	0.546456	0.499935	0.624638
O31	O	0.009711	-0.000081	0.168424
O32	O	0.509711	0.499919	0.668424
N33	N	0.023830	-0.000071	0.072362
N34	N	0.523830	0.499929	0.572362
C35	C	0.060607	-0.000080	0.020794
C36	C	0.560607	0.499920	0.520794
O37	O	0.035908	-0.000086	-0.023737
O38	O	0.535908	0.499914	0.476263
C39	C	0.120006	-0.000080	0.021506
C40	C	0.620006	0.499920	0.521506
C41	C	0.142629	-0.000068	0.073785
C42	C	0.642629	0.499932	0.573785
C43	C	0.128479	-0.000050	0.177625
C44	C	0.628479	0.499950	0.677625
C45	C	0.187876	-0.000045	0.178336
C46	C	0.687876	0.499955	0.678336
C47	C	0.224649	-0.000052	0.126772
C48	C	0.724649	0.499948	0.626772
C49	C	0.202025	-0.000063	0.074497
C50	C	0.702025	0.499937	0.574497
C51	C	0.156783	-0.000093	-0.030062
C52	C	0.656783	0.499907	0.469938
C53	C	0.216185	-0.000094	-0.029345
C54	C	0.716185	0.499906	0.470655
C55	C	0.238808	-0.000082	0.022934
C56	C	0.738808	0.499918	0.522934
C57	C	0.298194	-0.000065	0.023643
C58	C	0.798194	0.499935	0.523643
N59	N	0.320820	-0.000059	0.075920
N60	N	0.820820	0.499941	0.575920
C61	C	0.284048	-0.000052	0.127484
C62	C	0.784048	0.499948	0.627484
C63	C	-0.064135	-0.000080	0.019302
C64	C	0.435865	0.499920	0.519302
C65	C	-0.123533	-0.000075	0.018589
C66	C	0.376467	0.499925	0.518589
C67	C	-0.137680	-0.000061	0.122434
C68	C	0.362320	0.499939	0.622434
C69	C	-0.078281	-0.000062	0.123146
C70	C	0.421719	0.499938	0.623146
C71	C	-0.041509	-0.000074	0.071578
C72	C	0.458491	0.499926	0.571578
C73	C	0.408784	-0.000042	0.128974
C74	C	0.908784	0.499958	0.628974
C75	C	0.468186	-0.000034	0.129680
C76	C	0.968186	0.499966	0.629680
C77	C	0.482329	-0.000051	0.025836
C78	C	0.982329	0.499949	0.525836
C79	C	0.422932	-0.000055	0.025129
C80	C	0.922932	0.499945	0.525129
C81	C	0.386160	-0.000052	0.076702
C82	C	0.886160	0.499948	0.576702
O83	O	0.334974	-0.000052	-0.020119
O84	O	0.834974	0.499948	0.479881
O85	O	0.308755	-0.000054	0.172007
O86	O	0.808755	0.499946	0.672007
C87	C	0.711273	-0.561965	0.035196
C88	C	1.211273	-0.061965	0.535196
C89	C	0.711276	-0.623884	0.035192
C90	C	1.211276	-0.123884	0.535192
O91	O	0.744384	-0.655911	0.002076
O92	O	1.244384	-0.155911	0.502076
N93	N	0.672334	-0.654851	0.074115
N94	N	1.172334	-0.154851	0.574115
C95	C	0.633383	-0.623895	0.113041
C96	C	1.133383	-0.123895	0.613041
O97	O	0.600259	-0.655920	0.146147
O98	O	1.100259	-0.155920	0.646147
C99	C	0.633377	-0.561976	0.113042
C100	C	1.133377	-0.061976	0.613042
C101	C	0.672326	-0.531013	0.074120
C102	C	1.172326	-0.031013	0.574120
C103	C	0.750218	-0.531001	-0.003724
C104	C	1.250218	-0.031001	0.496276
C105	C	0.750215	-0.469085	-0.003719
C106	C	1.250215	0.030915	0.496281
C107	C	0.711268	-0.438133	0.035206
C108	C	1.211268	0.061867	0.535206
C109	C	0.672323	-0.469097	0.074125
C110	C	1.172323	0.030903	0.574125
C111	C	0.594424	-0.531021	0.151965
C112	C	1.094424	-0.031021	0.651965
C113	C	0.594422	-0.469098	0.151962
C114	C	1.094422	0.030902	0.651962
C115	C	0.633370	-0.438134	0.113040
C116	C	1.133370	0.061866	0.613040
C117	C	0.633374	-0.376229	0.113054
C118	C	1.133374	0.123771	0.613054
N119	N	0.672316	-0.345262	0.074131
N120	N	1.172316	0.154738	0.574131
C121	C	0.711263	-0.376214	0.035207
C122	C	1.211263	0.123786	0.535207
C123	C	0.633396	-0.753928	0.113035
C124	C	1.133396	-0.253928	0.613035
C125	C	0.633403	-0.815846	0.113037
C126	C	1.133403	-0.315846	0.613037
C127	C	0.711296	-0.815831	0.035187
C128	C	1.211296	-0.315831	0.535187
C129	C	0.711291	-0.753913	0.035188
C130	C	1.211291	-0.253913	0.535188
C131	C	0.672338	-0.722962	0.074112
C132	C	1.172338	-0.222962	0.574112
C133	C	0.711255	-0.246187	0.035220
C134	C	1.211255	0.253813	0.535220
C135	C	0.711251	-0.184266	0.035230
C136	C	1.211251	0.315734	0.535230
C137	C	0.633357	-0.184286	0.113078
C138	C	1.133357	0.315714	0.613078
C139	C	0.633363	-0.246202	0.113071
C140	C	1.133363	0.253798	0.613071
C141	C	0.672314	-0.277151	0.074137
C142	C	1.172314	0.222849	0.574137
O143	O	0.600281	-0.344163	0.146152
O144	O	1.100281	0.155837	0.646152
O145	O	0.744376	-0.344182	0.002101
O146	O	1.244376	0.155818	0.502101
C147	C	0.776472	-0.000069	0.069388
C148	C	1.276472	0.499931	0.569388
C149	C	0.839689	-0.000071	0.070154
C150	C	1.339689	0.499929	0.570154
C151	C	0.677071	-0.000072	-0.030013
C152	C	1.177071	0.499928	0.469987
C153	C	0.676305	-0.000076	-0.093230
C154	C	1.176305	0.499924	0.406770
N155	N	0.672349	0.153196	0.074111
N156	N	1.172349	0.653196	0.574111
C157	C	0.723539	-0.000049	-0.492333
C158	C	1.223539	0.499951	0.007667
C159	C	0.722827	-0.000044	-0.551733
C160	C	1.222827	0.499956	-0.051733
O161	O	0.766613	-0.000027	-0.588478
O162	O	1.266613	0.499973	-0.088478
N163	N	0.670551	-0.000039	-0.574359
N164	N	1.170551	0.499961	-0.074359
C165	C	0.618983	-0.000032	-0.537582
C166	C	1.118983	0.499968	-0.037582
O167	O	0.574452	-0.000027	-0.562281
O168	O	1.074452	0.499973	-0.062281
C169	C	0.619695	-0.000033	-0.478182
C170	C	1.119695	0.499967	0.021818
C171	C	0.671974	-0.000044	-0.455560
C172	C	1.171974	0.499956	0.044440
C173	C	0.775814	-0.000060	-0.469710
C174	C	1.275814	0.499940	0.030290
C175	C	0.776525	-0.000065	-0.410313
C176	C	1.276525	0.499935	0.089687
C177	C	0.724961	-0.000060	-0.373540
C178	C	1.224961	0.499940	0.126460
C179	C	0.672685	-0.000050	-0.396164
C180	C	1.172685	0.499950	0.103836
C181	C	0.568127	-0.000022	-0.441406
C182	C	1.068127	0.499978	0.058594
C183	C	0.568844	-0.000021	-0.382004
C184	C	1.068844	0.499979	0.117996
C185	C	0.621123	-0.000033	-0.359381
C186	C	1.121123	0.499967	0.140619
C187	C	0.621832	-0.000050	-0.299995
C188	C	1.121832	0.499950	0.200005
N189	N	0.674109	-0.000056	-0.277368
N190	N	1.174109	0.499944	0.222632
C191	C	0.725673	-0.000061	-0.314141
C192	C	1.225673	0.499939	0.185859
C193	C	0.617491	-0.000031	-0.662324
C194	C	1.117491	0.499969	-0.162324
C195	C	0.616778	-0.000034	-0.721722
C196	C	1.116778	0.499966	-0.221722
C197	C	0.720623	-0.000045	-0.735869
C198	C	1.220623	0.499955	-0.235869
C199	C	0.721335	-0.000046	-0.676470
C200	C	1.221335	0.499954	-0.176470
C201	C	0.669767	-0.000036	-0.639698
C202	C	1.169767	0.499964	-0.139698
C203	C	0.727163	-0.000073	-0.189405
C204	C	1.227163	0.499927	0.310595
C205	C	0.727869	-0.000081	-0.130003
C206	C	1.227869	0.499919	0.369997
C207	C	0.624025	-0.000067	-0.115860
C208	C	1.124025	0.499933	0.384140
C209	C	0.623318	-0.000062	-0.175257
C210	C	1.123318	0.499938	0.324743
C211	C	0.674891	-0.000063	-0.212029
C212	C	1.174891	0.499937	0.287971
O213	O	0.578070	-0.000065	-0.263215
O214	O	1.078070	0.499935	0.236785
O215	O	0.770196	-0.000058	-0.289433
O216	O	1.270196	0.499942	0.210567
C217	C	0.667577	-0.000045	0.178283
C218	C	1.167577	0.499955	0.678283
C219	C	0.668343	-0.000036	0.241500
C220	C	1.168343	0.499964	0.741500
H221	H	0.486602	-0.000024	0.172255
H222	H	0.986602	0.499976	0.672255
O223	O	0.251882	0.000003	-0.079455
O224	O	0.751882	0.500003	0.420545
C225	C	0.241660	0.050935	-0.111229
C226	C	0.741660	0.550935	0.388771
H227	H	0.221192	0.086547	-0.081049
H228	H	0.721192	0.586547	0.418951
H229	H	0.283931	0.068035	-0.134317
H230	H	0.783931	0.568035	0.365683
H231	H	0.211590	0.039408	-0.144013
H232	H	0.711590	0.539408	0.355987
H233	H	0.742969	-0.159057	0.003535
H234	H	1.242969	0.340943	0.503535
O235	O	0.517974	-0.000031	-0.024304
O236	O	1.017974	0.499969	0.475696
C237	C	0.485275	-0.000057	-0.070602
C238	C	0.985275	0.499943	0.429398
H239	H	0.440858	0.018568	-0.055898
H240	H	0.940858	0.518568	0.444102
H241	H	0.507391	0.028496	-0.106713
H242	H	1.007391	0.528496	0.393287
H243	H	0.481134	-0.047253	-0.086634
H244	H	0.981134	0.452747	0.413366
H245	H	0.562700	-0.443901	0.183658
H246	H	1.062700	0.056099	0.683658
H247	H	0.742973	-0.271379	0.003516
H248	H	1.242973	0.228621	0.503516
H249	H	0.781929	-0.443878	-0.035414
H250	H	1.281929	0.056122	0.464586
O251	O	0.770662	-0.000017	-0.771678
O252	O	1.270662	0.499983	-0.271678
C253	C	0.758817	-0.000025	-0.828954
C254	C	1.258817	0.499975	-0.328954
H255	H	0.714098	0.018599	-0.830978
H256	H	1.214098	0.518599	-0.330978
H257	H	0.791705	0.028537	-0.856049
H258	H	1.291705	0.528537	-0.356049
H259	H	0.761072	-0.047216	-0.846150
H260	H	1.261072	0.452784	-0.346150
O261	O	0.209752	-0.000067	0.229171
O262	O	0.709752	0.499933	0.729171
C263	C	0.164549	-0.000049	0.274524
C264	C	0.664549	0.499951	0.774524
H265	H	0.124283	-0.018672	0.258788
H266	H	0.624283	0.481328	0.758788
H267	H	0.176754	-0.028607	0.311047
H268	H	0.676754	0.471393	0.811047
H269	H	0.156057	0.047145	0.290410
H270	H	0.656057	0.547145	0.790410
O271	O	0.788111	-0.560970	-0.041558
O272	O	1.288111	-0.060970	0.458442
C273	C	0.822467	-0.520351	-0.075913
C274	C	1.322467	-0.020351	0.424087
H275	H	0.822962	-0.476216	-0.052560
H276	H	1.322962	0.023784	0.447440
H277	H	0.868002	-0.538225	-0.084831
H278	H	1.368002	-0.038225	0.415169
H279	H	0.804220	-0.513768	-0.118129
H280	H	1.304220	-0.013768	0.381871
O281	O	0.595474	-0.276192	0.150900
O282	O	1.095474	0.223808	0.650900
C283	C	0.561109	-0.235592	0.185266
C284	C	1.061109	0.264408	0.685266
H285	H	0.560606	-0.191450	0.161926
H286	H	1.060606	0.308550	0.661926
H287	H	0.515577	-0.253480	0.194176
H288	H	1.015577	0.246520	0.694176
H289	H	0.579353	-0.229015	0.227485
H290	H	1.079353	0.270985	0.727485
O291	O	0.595602	-0.154147	0.150909
O292	O	1.095602	0.345853	0.650909
C293	C	0.625895	-0.118337	0.185901
C294	C	1.125895	0.381663	0.685901
H295	H	0.670590	-0.109062	0.162998
H296	H	1.170590	0.390938	0.662998
H297	H	0.602074	-0.074795	0.195024
H298	H	1.102074	0.425205	0.695024
H299	H	0.629516	-0.142195	0.227978
H300	H	1.129516	0.357805	0.727978
O301	O	0.772169	-0.000024	-0.654592
O302	O	1.272169	0.499976	-0.154592
C303	C	0.817524	-0.000045	-0.699793
C304	C	1.317524	0.499955	-0.199793
H305	H	0.801793	0.018577	-0.740059
H306	H	1.301793	0.518577	-0.240059
H307	H	0.854049	0.028512	-0.687586
H308	H	1.354049	0.528512	-0.187586
H309	H	0.833407	-0.047240	-0.708284
H310	H	1.333407	0.452760	-0.208284
H311	H	0.575496	-0.000028	-0.632386
H312	H	1.075496	0.499972	-0.132386
O313	O	0.373151	-0.000009	0.179124
O314	O	0.873151	0.499991	0.679124
C315	C	0.405867	-0.000011	0.225410
C316	C	0.905867	0.499989	0.725410
H317	H	0.450282	0.018610	0.210684
H318	H	0.950282	0.518610	0.710684
H319	H	0.383764	0.028557	0.261514
H320	H	0.883764	0.528557	0.761514
H321	H	0.410009	-0.047199	0.241460
H322	H	0.910009	0.452801	0.741460
O323	O	0.749143	-0.723929	-0.002678
O324	O	1.249143	-0.223929	0.497322
C325	C	0.783528	-0.764533	-0.037019
C326	C	1.283528	-0.264533	0.462981
H327	H	0.760185	-0.808673	-0.037540
H328	H	1.260185	-0.308673	0.462460
H329	H	0.792476	-0.746648	-0.082548
H330	H	1.292476	-0.246648	0.417452
H331	H	0.825728	-0.771112	-0.018740
H332	H	1.325728	-0.271112	0.481260
O333	O	0.400887	-0.000141	-0.025619
O334	O	0.900887	0.499859	0.474381
C335	C	0.366968	-0.051102	-0.029139
C336	C	0.866968	0.448898	0.470861
H337	H	0.351925	-0.068081	0.015836
H338	H	0.851925	0.431919	0.515836
H339	H	0.328194	-0.039655	-0.051619
H340	H	0.828194	0.460345	0.448381
H341	H	0.393357	-0.086776	-0.054480
H342	H	0.893357	0.413224	0.445520
H343	H	0.743008	-0.841044	0.003492
H344	H	1.243008	-0.341044	0.503492
O345	O	0.825946	0.000012	-0.505367
O346	O	1.325946	0.500012	-0.005367
C347	C	0.857709	0.050960	-0.495162
C348	C	1.357709	0.550960	0.004838
H349	H	0.843456	0.067950	-0.450026
H350	H	1.343456	0.567950	0.049974
H351	H	0.905229	0.039491	-0.499590
H352	H	1.405229	0.539491	0.000410
H353	H	0.850128	0.086634	-0.527617
H354	H	1.350128	0.586634	-0.027617
H355	H	0.138375	-0.000103	-0.072634
H356	H	0.638375	0.499897	0.427366
O357	O	0.777298	0.000002	-0.225061
O358	O	1.277298	0.500002	0.274939
C359	C	0.809061	0.050949	-0.214853
C360	C	1.309061	0.550949	0.285147
H361	H	0.794811	0.067934	-0.169715
H362	H	1.294811	0.567934	0.330285
H363	H	0.856581	0.039481	-0.219285
H364	H	1.356581	0.539481	0.280715
H365	H	0.801477	0.086626	-0.247304
H366	H	1.301477	0.586626	0.252696
H367	H	0.580748	-0.000069	-0.193677
H368	H	1.080748	0.499931	0.306323
H369	H	0.601694	-0.841052	0.144737
H370	H	1.101694	-0.341052	0.644737
O371	O	0.595538	-0.723957	0.150910
O372	O	1.095538	-0.223957	0.650910
C373	C	0.561164	-0.764572	0.185251
C374	C	1.061164	-0.264572	0.685251
H375	H	0.584516	-0.808705	0.185768
H376	H	1.084516	-0.308705	0.685768
H377	H	0.552216	-0.746690	0.230781
H378	H	1.052216	-0.246690	0.730781
H379	H	0.518964	-0.771164	0.166975
H380	H	1.018964	-0.271164	0.666975
O381	O	0.556533	-0.560997	0.189795
O382	O	1.056533	-0.060997	0.689795
C383	C	0.522169	-0.520389	0.224152
C384	C	1.022169	-0.020389	0.724152
H385	H	0.521666	-0.476253	0.200800
H386	H	1.021666	0.023747	0.700800
H387	H	0.476638	-0.538276	0.233069
H388	H	0.976638	-0.038276	0.733069
H389	H	0.540415	-0.513800	0.266369
H390	H	1.040415	-0.013800	0.766369
H391	H	0.770443	-0.000092	-0.111587
H392	H	1.270443	0.499908	0.388413
H393	H	-0.141947	-0.000076	-0.023982
H394	H	0.358053	0.499924	0.476018
H395	H	0.819097	-0.000072	-0.391900
H396	H	1.319097	0.499928	0.108100
H397	H	0.574207	-0.000035	-0.740136
H398	H	1.074207	0.499965	-0.240136
O399	O	0.092706	0.000039	0.227682
O400	O	0.592706	0.500039	0.727682
C401	C	0.057942	0.050997	0.230379
C402	C	0.557942	0.550997	0.730379
H403	H	0.055177	0.067970	0.185191
H404	H	0.555177	0.567970	0.685191
H405	H	0.013180	0.039548	0.251867
H406	H	0.513180	0.539548	0.751867
H407	H	0.077355	0.086677	0.256261
H408	H	0.577355	0.586677	0.756261
H409	H	0.525555	-0.000009	-0.459814
H410	H	1.025555	0.499991	0.040186
O411	O	0.518696	-0.000038	-0.346365
O412	O	1.018696	0.499962	0.153635
C413	C	0.472406	-0.000012	-0.379075
C414	C	0.972406	0.499988	0.120925
H415	H	0.487119	-0.018635	-0.423491
H416	H	0.987119	0.481365	0.076509
H417	H	0.436290	-0.028565	-0.356968
H418	H	0.936290	0.471435	0.143032
H419	H	0.456378	0.047185	-0.383216
H420	H	0.956378	0.547185	0.116784
O421	O	-0.056403	-0.000080	0.173980
O422	O	0.443597	0.499920	0.673980
C423	C	-0.101604	-0.000057	0.219335
C424	C	0.398396	0.499943	0.719335
H425	H	-0.141871	-0.018680	0.203604
H426	H	0.358129	0.481320	0.703604
H427	H	-0.089398	-0.028611	0.255861
H428	H	0.410602	0.471389	0.755861
H429	H	-0.110093	0.047139	0.235217
H430	H	0.389907	0.547139	0.735217
O431	O	0.573953	0.000044	-0.080109
O432	O	1.073953	0.500044	0.419891
C433	C	0.571284	0.050983	-0.045318
C434	C	1.071284	0.550983	0.454682
H435	H	0.600540	0.086585	-0.067238
H436	H	1.100540	0.586585	0.432762
H437	H	0.525376	0.068095	-0.038379
H438	H	1.025376	0.568095	0.461621
H439	H	0.585778	0.039461	-0.002205
H440	H	1.085778	0.539461	0.497795
O441	O	-0.028497	-0.000055	-0.030847
O442	O	0.471503	0.499945	0.469153
C443	C	-0.061211	-0.000074	-0.077135
C444	C	0.438789	0.499926	0.422865
H445	H	-0.105625	0.018548	-0.062415
H446	H	0.394375	0.518548	0.437585
H447	H	-0.039105	0.028483	-0.113247
H448	H	0.460895	0.528483	0.386753
H449	H	-0.065356	-0.047268	-0.093171
H450	H	0.434644	0.452732	0.406829
H451	H	-0.167632	-0.000059	0.164421
H452	H	0.332368	0.499941	0.664421
