data_functionalizedCrystal
_audit_creation_method	'MofGen! by Chris Wilmer'
_symmetry_space_group_name_H-M	'P1'
_symmetry_Int_Tables_number	1
_symmetry_cell_setting	triclinic
loop_
_symmetry_equiv_pos_as_xyz
  x,y,z
_cell_length_a	16.974885
_cell_length_b	10.723024
_cell_length_c	16.053802
_cell_angle_alpha	92.591250
_cell_angle_beta	91.069328
_cell_angle_gamma	83.929208
loop_
_atom_site_label
_atom_site_type_symbol
_atom_site_fract_x
_atom_site_fract_y
_atom_site_fract_z
O1	O	1.049928	0.159103	0.001448
O2	O	0.820572	0.178197	-0.014036
O3	O	0.940540	-0.012980	-0.005933
O4	O	0.929959	0.350280	-0.006654
O5	O	0.933936	-0.002501	0.132479
O6	O	0.813968	0.188676	0.124377
O7	O	1.043324	0.169582	0.139861
Zn8	Zn	0.927598	0.180793	0.154095
Zn9	Zn	0.936298	0.166986	-0.028270
O10	O	0.923356	0.360759	0.131759
C11	C	0.787902	0.182517	0.053188
C12	C	0.700395	0.179762	0.047280
C13	C	0.208218	0.163598	0.005870
C14	C	0.290439	0.166187	0.011432
C15	C	0.327941	0.173203	0.089663
C16	C	0.283219	0.177618	0.162336
C17	C	0.201000	0.175020	0.156773
C18	C	0.573454	0.181579	0.114391
C19	C	0.655678	0.184180	0.119948
C20	C	0.662893	0.172747	-0.030957
C21	C	0.580672	0.170157	-0.036513
C22	C	0.535957	0.174565	0.036161
N23	N	0.411984	0.175854	0.095350
N24	N	0.451916	0.171905	0.030473
C25	C	0.936468	-0.054232	0.063220
C26	C	0.934165	-0.192763	0.063062
C27	C	1.001293	-0.268431	0.067592
C28	C	0.998913	-0.411611	0.067429
C29	C	1.075994	0.165262	0.072636
C30	C	1.163501	0.168016	0.078538
C31	C	0.927428	0.402011	0.062604
C32	C	0.929732	0.540542	0.062757
N33	N	0.921665	0.190215	0.278555
N34	N	0.942237	0.157554	-0.152729
C35	C	0.972731	0.108898	0.325698
C36	C	0.968589	0.115501	0.412825
C37	C	0.913384	0.203428	0.452808
C38	C	0.862313	0.284748	0.405658
C39	C	0.866452	0.278139	0.318533
C40	C	0.895304	0.232265	0.712996
C41	C	0.891171	0.238871	0.800128
C42	C	0.997446	0.069621	0.807289
C43	C	1.001583	0.063024	0.720161
C44	C	0.950510	0.144340	0.673019
N45	N	0.909151	0.210182	0.541865
N46	N	0.954740	0.137579	0.583963
H47	H	0.326845	0.162582	-0.047742
Cl48	Cl	0.144785	0.180563	0.248131
H49	H	1.039027	0.003416	0.845679
H50	H	1.060525	-0.227213	0.071596
H51	H	0.824868	0.344354	0.280149
H52	H	0.853719	0.298478	0.674620
Cl53	Cl	1.087643	-0.511988	0.073424
Cl54	Cl	1.042139	-0.001639	0.275443
H55	H	0.872261	-0.394446	0.058883
Cl56	Cl	1.070985	-0.047512	0.669897
H57	H	0.817360	0.356336	0.438217
H58	H	0.550143	0.164442	-0.100216
H59	H	0.699309	0.169157	-0.090123
H60	H	0.874933	-0.233981	0.059057
Cl61	Cl	0.517249	0.187154	0.205752
Cl62	Cl	1.032786	0.013271	0.472091
H63	H	0.313760	0.183323	0.226033
Cl64	Cl	0.821765	0.349420	0.850386
H65	H	0.686209	0.189903	0.183656
H66	H	0.177689	0.157893	-0.057834
