data_functionalizedCrystal
_audit_creation_method	'MofGen! by Chris Wilmer'
_symmetry_space_group_name_H-M	'P1'
_symmetry_Int_Tables_number	1
_symmetry_cell_setting	triclinic
loop_
_symmetry_equiv_pos_as_xyz
  x,y,z
_cell_length_a	11.169417
_cell_length_b	18.050589
_cell_length_c	11.169409
_cell_angle_alpha	89.967208
_cell_angle_beta	89.979436
_cell_angle_gamma	90.029099
loop_
_atom_site_label
_atom_site_type_symbol
_atom_site_fract_x
_atom_site_fract_y
_atom_site_fract_z
Zn1	Zn	1.834822	-0.295582	-0.678538
Zn2	Zn	1.834646	-0.419797	-0.477854
Zn3	Zn	1.634105	-0.295627	-0.477873
Zn4	Zn	1.634053	-0.419737	-0.678498
O5	O	1.734407	-0.357686	-0.578191
O6	O	2.002748	-0.312066	-0.651926
O7	O	1.807992	-0.403370	-0.309906
O8	O	1.660826	-0.191697	-0.504516
O9	O	2.002619	-0.403326	-0.504483
O10	O	1.808292	-0.191664	-0.651945
O11	O	1.660656	-0.312143	-0.309920
O12	O	1.466149	-0.312085	-0.504478
O13	O	1.660737	-0.403223	-0.846454
O14	O	1.466110	-0.403267	-0.651876
O15	O	1.808241	-0.312008	-0.846483
O16	O	1.807941	-0.523714	-0.504445
O17	O	1.660566	-0.523670	-0.651858
C18	C	1.422582	-0.357675	-0.578175
C19	C	1.289182	-0.357688	-0.578197
C20	C	1.734262	-0.550638	-0.578171
C21	C	1.734309	-0.633184	-0.578202
C22	C	1.654246	-0.832637	-0.658338
C23	C	1.624981	-0.882089	-0.548822
C24	C	1.734427	-0.784314	-0.578218
C25	C	1.763751	-0.881944	-0.687746
C26	C	1.734539	-0.930299	-0.578243
C27	C	1.705105	-0.832679	-0.468645
C28	C	1.843926	-0.832530	-0.607642
C29	C	1.814703	-0.881959	-0.498052
C30	C	1.734360	-0.700216	-0.578205
C31	C	1.734607	-1.014396	-0.578243
C32	C	2.047449	-0.357698	-0.578207
C33	C	2.180849	-0.357703	-0.578214
C34	C	1.734503	-0.357604	-0.891233
C35	C	1.734544	-0.357569	-1.024633
C36	C	1.734585	-0.163980	-0.578237
C37	C	1.734661	-0.081435	-0.578257
C38	C	1.734380	-0.357714	-0.266366
C39	C	1.734571	-0.357540	-0.132967
H40	H	1.586339	-0.810980	-0.725996
C41	C	1.501676	-0.911264	-0.515603
C42	C	1.503674	-0.988820	-0.514975
C43	C	1.390111	-1.015719	-0.484373
H44	H	1.444652	-0.894462	-0.572534
H45	H	1.480319	-0.893714	-0.438322
H46	H	1.525017	-1.006364	-0.592245
H47	H	1.560675	-1.005643	-0.458043
H48	H	1.368754	-0.998168	-0.407092
H49	H	1.333095	-0.998911	-0.541308
H50	H	1.391454	-1.068342	-0.483932
H51	H	1.680241	-0.811127	-0.376003
C52	C	1.905022	-0.910621	-0.407435
C53	C	1.873825	-0.885539	-0.293009
C54	C	1.956983	-0.911937	-0.209499
H55	H	1.982580	-0.892918	-0.427504
H56	H	1.905020	-0.963251	-0.408322
H57	H	1.873840	-0.832920	-0.292125
H58	H	1.796281	-0.903240	-0.272902
H59	H	1.956981	-0.964567	-0.210387
H60	H	2.034536	-0.894233	-0.229580
H61	H	1.935821	-0.894929	-0.131851
C62	C	1.967256	-0.803517	-0.641108
C63	C	1.997438	-0.828418	-0.755908
C64	C	2.111034	-0.801696	-0.786797
H65	H	2.024577	-0.821121	-0.585114
H66	H	1.966510	-0.750890	-0.640202
H67	H	1.998194	-0.881034	-0.756805
H68	H	1.940148	-0.810816	-0.811927
H69	H	2.110288	-0.749069	-0.785891
H70	H	2.168345	-0.819302	-0.730796
H71	H	2.131522	-0.818582	-0.864695
C72	C	1.796606	-0.910699	-0.811342
C73	C	1.712320	-0.885692	-0.894837
C74	C	1.742545	-0.912155	-1.008710
H75	H	1.797107	-0.963319	-0.810452
H76	H	1.873785	-0.892979	-0.832850
H77	H	1.635161	-0.903416	-0.873336
H78	H	1.711807	-0.833075	-0.895766
H79	H	1.819724	-0.894434	-1.030217
H80	H	1.743045	-0.964774	-1.007806
H81	H	1.685368	-0.895186	-1.065376
