data_functionalizedCrystal
_audit_creation_method	'MofGen! by Chris Wilmer'
_symmetry_space_group_name_H-M	'P1'
_symmetry_Int_Tables_number	1
_symmetry_cell_setting	triclinic
loop_
_symmetry_equiv_pos_as_xyz
  x,y,z
_cell_length_a	17.019282
_cell_length_b	19.188930
_cell_length_c	15.500227
_cell_angle_alpha	87.186616
_cell_angle_beta	88.965536
_cell_angle_gamma	83.267516
loop_
_atom_site_label
_atom_site_type_symbol
_atom_site_fract_x
_atom_site_fract_y
_atom_site_fract_z
O1	O	1.046067	0.089173	-0.006008
O2	O	1.546067	0.589173	0.493992
O3	O	0.817235	0.099757	0.011050
O4	O	1.317235	0.599757	0.511050
O5	O	0.938254	-0.007157	0.002012
O6	O	1.438254	0.492843	0.502012
O7	O	0.925048	0.196087	0.003030
O8	O	1.425048	0.696087	0.503030
O9	O	0.930910	-0.000694	-0.141328
O10	O	1.430910	0.499306	0.358672
O11	O	0.809891	0.106219	-0.132290
O12	O	1.309891	0.606219	0.367710
O13	O	1.038723	0.095635	-0.149348
O14	O	1.538723	0.595635	0.350652
Cu15	Cu	0.923637	0.101517	-0.153907
Cu16	Cu	1.423637	0.601517	0.346093
Cu17	Cu	0.932321	0.093875	0.015609
Cu18	Cu	1.432321	0.593875	0.515609
O19	O	0.917704	0.202549	-0.140310
O20	O	1.417704	0.702549	0.359690
C21	C	0.784287	0.102461	-0.058438
C22	C	1.284287	0.602461	0.441562
C23	C	0.697054	0.100882	-0.051937
C24	C	1.197054	0.600882	0.448063
C25	C	0.652073	0.103661	-0.127019
C26	C	1.152073	0.603661	0.372981
C27	C	0.570110	0.102166	-0.120912
C28	C	1.070110	0.602166	0.379088
C29	C	0.533128	0.097897	-0.039723
C30	C	1.033128	0.597897	0.460277
C31	C	0.578115	0.095116	0.035365
C32	C	1.078115	0.595116	0.535365
C33	C	0.660077	0.096606	0.029258
C34	C	1.160077	0.596606	0.529258
C35	C	0.285854	0.093218	-0.017373
C36	C	0.785854	0.593218	0.482627
C37	C	0.203885	0.091731	-0.011272
C38	C	0.703885	0.591731	0.488728
C39	C	0.195886	0.098780	-0.167550
C40	C	0.695886	0.598780	0.332450
C41	C	0.277850	0.100274	-0.173650
C42	C	0.777850	0.600274	0.326350
C43	C	0.322830	0.097488	-0.098562
C44	C	0.822830	0.597488	0.401438
C45	C	0.449348	0.096372	-0.033479
C46	C	0.949348	0.596372	0.466521
C47	C	0.406610	0.099009	-0.104807
C48	C	0.906610	0.599009	0.395193
C49	C	0.934154	-0.029939	-0.069629
C50	C	1.434154	0.470061	0.430371
C51	C	0.932870	-0.107449	-0.069540
C52	C	1.432870	0.392551	0.430460
C53	C	1.003880	-0.152016	-0.074838
C54	C	1.503880	0.347984	0.425162
C55	C	1.002674	-0.224847	-0.074734
C56	C	1.502674	0.275153	0.425266
C57	C	0.930454	-0.253106	-0.069350
C58	C	1.430454	0.246894	0.430650
C59	C	0.859435	-0.208530	-0.064047
C60	C	1.359435	0.291470	0.435953
C61	C	0.860642	-0.135701	-0.064142
C62	C	1.360642	0.364299	0.435858
N63	N	0.872751	-0.359189	-0.114016
N64	N	1.372751	0.140811	0.385984
N65	N	0.871608	-0.428374	-0.113928
N66	N	1.371608	0.071626	0.386072
C67	C	0.926810	-0.472534	-0.069061
C68	C	1.426810	0.027466	0.430939
N69	N	0.983210	-0.444897	-0.024297
N70	N	1.483210	0.055103	0.475703
N71	N	0.984354	-0.375706	-0.024389
N72	N	1.484354	0.124294	0.475611
C73	C	0.929136	-0.332076	-0.069246
C74	C	1.429136	0.167924	0.430754
C75	C	0.996518	-0.596073	-0.074245
C76	C	1.496518	-0.096073	0.425755
C77	C	0.995310	-0.668904	-0.074136
C78	C	1.495310	-0.168904	0.425864
C79	C	0.852068	-0.652585	-0.063457
C80	C	1.352068	-0.152585	0.436543
C81	C	0.853278	-0.579756	-0.063558
C82	C	1.353278	-0.079756	0.436442
C83	C	0.925505	-0.551504	-0.068956
C84	C	1.425505	-0.051504	0.431044
C85	C	1.071671	0.092931	-0.079858
C86	C	1.571671	0.592931	0.420142
C87	C	1.158905	0.094510	-0.086354
C88	C	1.658905	0.594510	0.413646
C89	C	0.921804	0.225331	-0.068667
C90	C	1.421804	0.725331	0.431333
C91	C	0.923089	0.302841	-0.068750
C92	C	1.423089	0.802841	0.431250
N93	N	0.917534	0.106892	-0.273136
N94	N	1.417534	0.606892	0.226864
C95	C	0.968832	0.061606	-0.322244
C96	C	1.468832	0.561606	0.177756
C97	C	0.964223	0.065677	-0.412473
C98	C	1.464223	0.565677	0.087527
C99	C	0.908321	0.115039	-0.453592
C100	C	1.408321	0.615039	0.046408
C101	C	0.857018	0.160327	-0.404478
C102	C	1.357018	0.660327	0.095522
C103	C	0.861623	0.156252	-0.314251
C104	C	1.361623	0.656252	0.185749
C105	C	0.891732	0.129708	-0.725820
C106	C	1.391732	0.629708	-0.225820
C107	C	0.887133	0.133781	-0.816054
C108	C	1.387133	0.633781	-0.316054
C109	C	0.994338	0.039130	-0.824043
C110	C	1.494338	0.539130	-0.324043
C111	C	0.998941	0.035062	-0.733814
C112	C	1.498941	0.535062	-0.233814
C113	C	0.947635	0.080347	-0.684707
C114	C	1.447635	0.580347	-0.184707
C115	C	0.903611	0.119203	-0.545821
C116	C	1.403611	0.619203	-0.045821
C117	C	0.952342	0.076179	-0.592480
C118	C	1.452342	0.576179	-0.092480
N119	N	0.938430	0.088495	0.134838
N120	N	1.438430	0.588495	0.634838
H121	H	0.533491	0.104418	-0.182053
H122	H	1.033491	0.604418	0.317947
N123	N	0.163990	0.087116	0.076298
N124	N	0.663990	0.587116	0.576298
H125	H	0.123642	0.129580	0.082809
H126	H	0.623642	0.629580	0.582809
H127	H	0.204968	0.085551	0.122891
H128	H	0.704968	0.585551	0.622891
H129	H	0.682176	0.107143	-0.193132
H130	H	1.182176	0.607143	0.306868
H131	H	0.322468	0.090948	0.043769
H132	H	0.822468	0.590948	0.543769
H133	H	0.307955	0.103746	-0.239763
H134	H	0.807955	0.603746	0.260237
H135	H	0.795454	-0.543468	-0.059249
H136	H	1.295454	-0.043468	0.440751
N137	N	0.147372	0.101783	-0.248533
N138	N	0.647372	0.601783	0.251467
H139	H	0.089701	0.101154	-0.232343
H140	H	0.589701	0.601154	0.267657
H141	H	0.165762	0.059829	-0.283644
H142	H	0.665762	0.559829	0.216356
H143	H	1.014356	0.021413	-0.288771
H144	H	1.514356	0.521413	0.211229
H145	H	0.793264	-0.675594	-0.059069
H146	H	1.293264	-0.175594	0.440931
N147	N	0.796724	0.213572	-0.448820
N148	N	1.296724	0.713572	0.051180
H149	H	0.741782	0.204664	-0.428981
H150	H	1.241782	0.704664	0.071019
H151	H	0.801659	0.209261	-0.513421
H152	H	1.301659	0.709261	-0.013421
N153	N	0.784047	-0.087629	-0.058449
N154	N	1.284047	0.412371	0.441551
H155	H	0.795772	-0.037205	-0.059332
H156	H	1.295772	0.462795	0.440668
H157	H	0.755279	-0.099177	-0.002963
H158	H	1.255279	0.400823	0.497037
N159	N	0.538233	0.090503	0.122936
N160	N	1.038233	0.590503	0.622936
H161	H	0.479484	0.089982	0.115413
H162	H	0.979484	0.589982	0.615413
H163	H	0.547786	0.132463	0.156486
H164	H	1.047786	0.632463	0.656486
H165	H	1.005993	0.028801	-0.452456
H166	H	1.505993	0.528801	0.047544
N167	N	0.409448	0.091777	0.054084
N168	N	0.909448	0.591777	0.554084
H169	H	0.418934	0.133736	0.087674
H170	H	0.918934	0.633736	0.587674
H171	H	0.431996	0.047234	0.086626
H172	H	0.931996	0.547234	0.586626
N173	N	1.049664	-0.009716	-0.877009
N174	N	1.549664	0.490284	-0.377009
H175	H	1.085776	-0.041604	-0.837268
H176	H	1.585776	0.458396	-0.337268
H177	H	1.082400	0.018802	-0.917009
H178	H	1.582400	0.518802	-0.417009
H179	H	1.044461	-0.005132	-0.700336
H180	H	1.544461	0.494868	-0.200336
N181	N	0.781539	-0.239007	-0.058252
N182	N	1.281539	0.260993	0.441748
H183	H	0.736736	-0.199719	-0.054913
H184	H	1.236736	0.300281	0.445087
H185	H	0.780639	-0.271259	-0.004845
H186	H	1.280639	0.228741	0.495155
H187	H	0.696700	0.094344	0.090398
H188	H	1.196700	0.594344	0.590398
N189	N	0.806291	0.205092	-0.261280
N190	N	1.306291	0.705092	0.238720
H191	H	0.770179	0.236982	-0.301019
H192	H	1.270179	0.736982	0.198981
H193	H	0.838175	0.234353	-0.226057
H194	H	1.338175	0.734353	0.273943
N195	N	0.836411	0.178555	-0.672855
N196	N	1.336411	0.678555	-0.172855
H197	H	0.803619	0.150086	-0.632852
H198	H	1.303619	0.650086	-0.132852
H199	H	0.800351	0.210438	-0.712650
H200	H	1.300351	0.710438	-0.212650
N201	N	0.446488	0.103615	-0.192376
N202	N	0.946488	0.603615	0.307624
H203	H	0.486839	0.061153	-0.198889
H204	H	0.986839	0.561153	0.301111
H205	H	0.473746	0.147655	-0.197836
H206	H	0.973746	0.647655	0.302164
H207	H	0.997855	0.035987	-0.558998
H208	H	1.497855	0.535987	-0.058998
N209	N	0.826843	0.187030	-0.860409
N210	N	1.326843	0.687030	-0.360409
H211	H	0.795040	0.215102	-0.815610
H212	H	1.295040	0.715102	-0.315610
H213	H	0.790288	0.161897	-0.895288
H214	H	1.290288	0.661897	-0.395288
H215	H	0.858095	0.159395	-0.579308
H216	H	1.358095	0.659395	-0.079308
N217	N	1.074415	-0.565594	-0.080063
N218	N	1.574415	-0.065594	0.419937
H219	H	1.119219	-0.604882	-0.083396
H220	H	1.619219	-0.104882	0.416604
H221	H	1.080758	-0.538116	-0.027200
H222	H	1.580758	-0.038116	0.472800
N223	N	1.071901	-0.716979	-0.079850
N224	N	1.571901	-0.216979	0.420150
H225	H	1.106151	-0.710257	-0.029071
H226	H	1.606151	-0.210257	0.470929
H227	H	1.100628	-0.705461	-0.135373
H228	H	1.600628	-0.205461	0.364627
N229	N	1.081783	-0.121553	-0.080654
N230	N	1.581783	0.378447	0.419346
H231	H	1.115604	-0.140185	-0.029836
H232	H	1.615604	0.359815	0.470164
H233	H	1.071715	-0.068656	-0.079939
H234	H	1.571715	0.431344	0.420061
N235	N	1.079266	-0.272928	-0.080446
N236	N	1.579266	0.227072	0.419554
H237	H	1.125204	-0.243979	-0.083878
H238	H	1.625204	0.256021	0.416122
H239	H	1.079154	-0.301111	-0.133778
H240	H	1.579154	0.198889	0.366222
