data_functionalizedCrystal
_audit_creation_method	'MofGen! by Chris Wilmer'
_symmetry_space_group_name_H-M	'P1'
_symmetry_Int_Tables_number	1
_symmetry_cell_setting	triclinic
loop_
_symmetry_equiv_pos_as_xyz
  x,y,z
_cell_length_a	14.853566
_cell_length_b	13.330367
_cell_length_c	12.837942
_cell_angle_alpha	90.001444
_cell_angle_beta	89.231677
_cell_angle_gamma	90.004843
loop_
_atom_site_label
_atom_site_type_symbol
_atom_site_fract_x
_atom_site_fract_y
_atom_site_fract_z
O1	O	1.207850	0.083356	0.135347
O2	O	1.707850	0.583356	0.635347
O3	O	0.946758	0.083373	0.151472
O4	O	1.446758	0.583373	0.651472
O5	O	1.071515	0.083359	-0.007502
O6	O	1.571515	0.583359	0.492498
O7	O	1.083093	0.083370	0.294321
O8	O	1.583093	0.583370	0.794321
O9	O	1.071494	-0.083489	-0.007498
O10	O	1.571494	0.416511	0.492502
O11	O	0.946737	-0.083475	0.151476
O12	O	1.446737	0.416525	0.651476
O13	O	1.207829	-0.083491	0.135350
O14	O	1.707829	0.416509	0.635350
Cu15	Cu	1.077281	-0.098717	0.143413
Cu16	Cu	1.577281	0.401283	0.643413
Cu17	Cu	1.077306	0.098599	0.143409
Cu18	Cu	1.577306	0.598599	0.643409
O19	O	1.083073	-0.083477	0.294324
O20	O	1.583073	0.416523	0.794324
C21	C	0.913097	-0.000049	0.150743
C22	C	1.413097	0.499951	0.650743
C23	C	0.812828	-0.000043	0.148555
C24	C	1.312828	0.499957	0.648555
N25	N	1.077271	-0.237499	0.143415
N26	N	1.577271	0.262501	0.643415
C27	C	0.388869	0.090888	0.139295
C28	C	0.888869	0.590888	0.639295
C29	C	0.388868	-0.091016	0.139299
C30	C	0.888868	0.408984	0.639299
C31	C	0.483076	-0.091012	0.141354
C32	C	0.983076	0.408988	0.641354
C33	C	0.530185	-0.000058	0.142382
C34	C	1.030185	0.499942	0.642382
C35	C	0.483086	0.090894	0.141354
C36	C	0.983086	0.590894	0.641354
C37	C	0.530182	-0.181962	0.142393
C38	C	1.030182	0.318038	0.642393
C39	C	0.624396	-0.181963	0.144450
C40	C	1.124396	0.318037	0.644450
C41	C	0.671507	-0.091007	0.145470
C42	C	1.171507	0.408993	0.645470
C43	C	0.624402	-0.000052	0.144440
C44	C	1.124402	0.499948	0.644440
C45	C	0.671511	0.090903	0.145468
C46	C	1.171511	0.590903	0.645468
C47	C	0.624408	0.181859	0.144431
C48	C	1.124408	0.681859	0.644431
C49	C	0.530197	0.181849	0.142373
C50	C	1.030197	0.681849	0.642373
C51	C	0.765718	-0.090997	0.147527
C52	C	1.265718	0.409003	0.647527
C53	C	0.765728	0.090909	0.147526
C54	C	1.265728	0.590909	0.647526
C55	C	1.017187	-0.290023	0.080420
C56	C	1.517187	0.209977	0.580420
C57	C	1.137365	-0.290003	0.206405
C58	C	1.637365	0.209997	0.706405
C59	C	1.137375	-0.395021	0.206404
C60	C	1.637375	0.104979	0.706404
C61	C	1.077292	-0.447545	0.143409
C62	C	1.577292	0.052455	0.643409
C63	C	1.017197	-0.395051	0.080415
C64	C	1.517197	0.104949	0.580415
C65	C	1.197474	-0.447523	0.269389
C66	C	1.697474	0.052477	0.769389
C67	C	1.197488	-0.552548	0.269390
C68	C	1.697488	-0.052548	0.769390
C69	C	1.137399	-0.605074	0.206400
C70	C	1.637399	-0.105074	0.706400
C71	C	1.077302	-0.552573	0.143404
C72	C	1.577302	-0.052573	0.643404
C73	C	1.017218	-0.605097	0.080410
C74	C	1.517218	-0.105097	0.580410
C75	C	0.957116	-0.552598	0.017419
C76	C	1.457116	-0.052598	0.517419
C77	C	0.957109	-0.447577	0.017425
C78	C	1.457109	0.052423	0.517425
C79	C	1.137407	-0.710096	0.206394
C80	C	1.637407	-0.210096	0.706394
C81	C	1.017229	-0.710125	0.080405
C82	C	1.517229	-0.210125	0.580405
C83	C	1.241490	-0.000067	0.136079
C84	C	1.741490	0.499933	0.636079
C85	C	1.341760	-0.000067	0.138268
C86	C	1.841760	0.499933	0.638268
C87	C	1.067593	-0.000064	-0.046126
C88	C	1.567593	0.499936	0.453874
C89	C	1.055927	-0.000062	-0.161220
C90	C	1.555927	0.499938	0.338780
N91	N	1.077323	0.237380	0.143399
N92	N	1.577323	0.737380	0.643399
C93	C	1.196173	-0.000050	-0.401977
C94	C	1.696173	0.499950	0.098023
C95	C	1.185216	-0.000047	-0.510119
C96	C	1.685216	0.499953	-0.010119
C97	C	1.023056	-0.000048	-0.485647
C98	C	1.523056	0.499952	0.014353
C99	C	1.034013	-0.000050	-0.377505
C100	C	1.534013	0.499950	0.122495
C101	C	1.120575	-0.000053	-0.335675
C102	C	1.620575	0.499947	0.164325
C103	C	1.131531	-0.000062	-0.227531
C104	C	1.631531	0.499938	0.272469
C105	C	0.969372	-0.000055	-0.203061
C106	C	1.469372	0.499945	0.296939
C107	C	0.958415	-0.000053	-0.311203
C108	C	1.458415	0.499947	0.188797
C109	C	1.086995	-0.000052	0.332948
C110	C	1.586995	0.499948	0.832948
C111	C	1.098661	-0.000048	0.448042
C112	C	1.598661	0.499952	0.948042
H113	H	0.804078	0.164976	0.148360
H114	H	1.304078	0.664976	0.648360
Cl115	Cl	1.240349	-0.000072	-0.174945
Cl116	Cl	1.740349	0.499928	0.325055
Cl117	Cl	0.881562	-0.381573	-0.061759
Cl118	Cl	1.381562	0.118427	0.438241
H119	H	0.887939	-0.000047	-0.345276
H120	H	1.387939	0.499953	0.154724
Cl121	Cl	0.881590	-0.618641	-0.061777
Cl122	Cl	1.381590	-0.118641	0.438223
H123	H	0.662777	0.255914	0.145274
H124	H	1.162777	0.755914	0.645274
Cl125	Cl	1.304989	-0.000078	-0.349386
Cl126	Cl	1.804989	0.499922	0.150614
Cl127	Cl	0.941686	-0.776147	0.001212
Cl128	Cl	1.441686	-0.276147	0.501212
Cl129	Cl	0.329658	0.205227	0.137961
Cl130	Cl	0.829658	0.705227	0.637961
Cl131	Cl	1.212899	-0.223972	0.285587
Cl132	Cl	1.712899	0.276028	0.785587
H133	H	0.907814	-0.000065	-0.149065
H134	H	1.407814	0.499935	0.350935
Cl135	Cl	1.280259	-0.000041	-0.593468
Cl136	Cl	1.780259	0.499959	-0.093468
Cl137	Cl	1.273008	-0.381489	0.348571
Cl138	Cl	1.773008	0.118511	0.848571
Cl139	Cl	0.470978	0.296183	0.141030
Cl140	Cl	0.970978	0.796183	0.641030
Cl141	Cl	0.914246	-0.000015	-0.538253
Cl142	Cl	1.414246	0.499985	-0.038253
Cl143	Cl	0.941630	-0.224028	0.001240
Cl144	Cl	1.441630	0.275972	0.501240
H145	H	1.186344	-0.752836	0.257676
H146	H	1.686344	-0.252836	0.757676
Cl147	Cl	0.329643	-0.205352	0.138019
Cl148	Cl	0.829643	0.294648	0.638019
Cl149	Cl	1.273039	-0.618537	0.348583
Cl150	Cl	1.773039	-0.118537	0.848583
H151	H	0.662740	-0.256025	0.145292
H152	H	1.162740	0.243975	0.645292
H153	H	0.804065	-0.165052	0.148382
H154	H	1.304065	0.334948	0.648382
Cl155	Cl	0.470955	-0.296297	0.141115
Cl156	Cl	0.970955	0.203703	0.641115
