data_functionalizedCrystal
_audit_creation_method	'MofGen! by Chris Wilmer'
_symmetry_space_group_name_H-M	'P1'
_symmetry_Int_Tables_number	1
_symmetry_cell_setting	triclinic
loop_
_symmetry_equiv_pos_as_xyz
  x,y,z
_cell_length_a	9.065218
_cell_length_b	15.995350
_cell_length_c	14.472310
_cell_angle_alpha	89.998838
_cell_angle_beta	90.013153
_cell_angle_gamma	84.254130
loop_
_atom_site_label
_atom_site_type_symbol
_atom_site_fract_x
_atom_site_fract_y
_atom_site_fract_z
O1	O	1.957530	0.122766	0.076838
O2	O	1.528008	0.132836	0.076839
O3	O	1.754510	0.006002	0.076838
O4	O	1.731028	0.249600	0.076839
O5	O	1.754452	0.006009	-0.076844
O6	O	1.527950	0.132843	-0.076843
O7	O	1.957472	0.122773	-0.076844
Cu8	Cu	1.742705	0.127809	-0.090876
Cu9	Cu	1.742774	0.127800	0.090871
O10	O	1.730969	0.249607	-0.076843
C11	C	1.473015	0.131872	-0.000002
C12	C	1.309240	0.128978	-0.000001
C13	C	1.753510	-0.025196	-0.000002
C14	C	1.750600	-0.118169	0.000004
C15	C	1.740148	-0.455995	0.000001
C16	C	1.578837	-0.409785	0.000346
C17	C	1.581748	-0.313072	-0.000001
C18	C	1.745332	-0.288396	0.000003
C19	C	1.824863	-0.328866	-0.087756
C20	C	1.820811	-0.425532	-0.087829
C21	C	1.824209	-0.425873	0.086936
C22	C	1.824171	-0.328928	0.088096
C23	C	1.748271	-0.193676	0.000001
C24	C	1.737214	-0.550716	-0.000004
C25	C	2.012465	0.123737	-0.000001
C26	C	2.176239	0.126631	0.000005
C27	C	1.731969	0.280805	-0.000001
C28	C	1.734880	0.373778	-0.000000
N29	N	1.742668	0.127814	-0.218707
C30	C	1.742772	0.127797	-0.592798
C31	C	1.621169	0.195429	-0.553631
C32	C	1.621449	0.195682	-0.446543
C33	C	1.742719	0.127805	-0.407207
C34	C	1.896652	0.148055	-0.446044
C35	C	1.895969	0.148537	-0.553166
C36	C	1.711816	0.039723	-0.553328
C37	C	1.708286	0.040282	-0.446200
C38	C	1.742699	0.127809	-0.302319
C39	C	1.742803	0.127796	-0.697686
N40	N	1.742824	0.127788	0.218702
H41	H	1.519229	-0.285128	0.062908
H42	H	1.762767	-0.444271	-0.153432
H43	H	1.766024	-0.302123	0.153017
H44	H	1.989283	0.101281	-0.579072
C45	C	2.021825	0.083346	-0.411617
N46	N	2.116103	0.034606	-0.385684
C47	C	1.647502	0.283196	-0.589982
N48	N	1.667342	0.349301	-0.617363
C49	C	1.648164	0.283944	-0.411908
N50	N	1.668295	0.350427	-0.385822
C51	C	1.831610	-0.028291	-0.587550
N52	N	1.921840	-0.079512	-0.613332
C53	C	1.563433	0.013827	-0.589861
N54	N	1.451664	-0.005668	-0.617377
H55	H	1.939241	-0.456882	-0.091809
H56	H	1.791103	-0.012496	-0.419427
C57	C	1.932792	0.235365	-0.586908
N58	N	1.960517	0.300768	-0.612319
H59	H	1.945043	-0.313828	-0.091017
H60	H	1.507029	0.183445	-0.420287
C61	C	1.750167	-0.291093	-0.175987
N62	N	1.693896	-0.262645	-0.242442
H63	H	1.771494	-0.446816	0.153452
H64	H	1.924583	0.211597	-0.419206
H65	H	1.943466	-0.312662	0.093397
H66	H	1.595051	0.024942	-0.420818
H67	H	1.943143	-0.456732	0.087528
H68	H	1.506377	0.183377	-0.579419
C69	C	1.496660	-0.276066	-0.085135
N70	N	1.432571	-0.248194	-0.149263
C71	C	1.491754	-0.435493	0.085359
N72	N	1.426160	-0.454865	0.149392
H73	H	1.514625	-0.429863	-0.062237
