data_functionalizedCrystal
_audit_creation_method	'MofGen! by Chris Wilmer'
_symmetry_space_group_name_H-M	'P1'
_symmetry_Int_Tables_number	1
_symmetry_cell_setting	triclinic
loop_
_symmetry_equiv_pos_as_xyz
  x,y,z
_cell_length_a	19.288864
_cell_length_b	11.792241
_cell_length_c	18.366186
_cell_angle_alpha	89.993644
_cell_angle_beta	89.977106
_cell_angle_gamma	83.664831
loop_
_atom_site_label
_atom_site_type_symbol
_atom_site_fract_x
_atom_site_fract_y
_atom_site_fract_z
O1	O	0.922157	0.141582	-0.060784
O2	O	0.720005	0.160681	-0.060734
O3	O	0.825987	-0.014113	-0.060755
O4	O	0.816175	0.316377	-0.060763
O5	O	0.825968	-0.014122	0.060345
O6	O	0.719987	0.160673	0.060365
O7	O	0.922139	0.141574	0.060316
Zn8	Zn	0.821060	0.151122	0.079568
Zn9	Zn	0.821084	0.151133	-0.079986
O10	O	0.816157	0.316368	0.060337
C11	C	0.694116	0.160063	-0.000178
C12	C	0.617002	0.158218	-0.000159
C13	C	0.572888	0.260779	-0.000173
C14	C	0.500431	0.259046	-0.000181
C15	C	0.472091	0.154746	-0.000189
C16	C	0.516215	0.052171	-0.000171
C17	C	0.588670	0.053907	-0.000156
C18	C	0.363370	0.072757	-0.042638
C19	C	0.290915	0.071025	-0.042658
C20	C	0.248615	0.149387	-0.000233
C21	C	0.278777	0.229500	0.042202
C22	C	0.351232	0.231236	0.042217
C23	C	0.393526	0.152852	-0.000205
C24	C	0.125935	0.250076	-0.000255
C25	C	0.053477	0.248339	-0.000258
C26	C	0.069262	0.041460	-0.000256
C27	C	0.141718	0.043201	-0.000246
C28	C	0.170050	0.147512	-0.000248
C29	C	0.825361	-0.056399	-0.000205
C30	C	0.823517	-0.182385	-0.000206
C31	C	0.820125	-0.413045	-0.000217
C32	C	0.822009	-0.284689	-0.000211
C33	C	0.948028	0.142192	-0.000242
C34	C	1.025142	0.144037	-0.000266
C35	C	0.816783	0.358654	-0.000214
C36	C	0.818627	0.484640	-0.000219
N37	N	0.821049	0.151113	0.188459
N38	N	0.821101	0.151133	-0.188877
C39	C	0.867993	0.073752	0.226550
C40	C	0.867997	0.073747	0.302778
C41	C	0.821064	0.151123	0.340912
C42	C	0.774111	0.228490	0.302811
C43	C	0.774103	0.228485	0.226585
C44	C	0.812353	0.254534	0.461671
C45	C	0.812366	0.254540	0.537896
C46	C	0.821084	0.151137	0.576019
C47	C	0.829804	0.047723	0.537908
C48	C	0.829796	0.047719	0.461682
C49	C	0.821067	0.151136	0.423566
C50	C	0.868036	0.073764	0.696765
C51	C	0.868035	0.073757	0.772994
C52	C	0.774152	0.228510	0.773026
C53	C	0.774149	0.228507	0.696799
C54	C	0.821095	0.151135	0.658673
H55	H	0.464507	0.342567	-0.000190
H56	H	0.906261	0.010755	0.804009
N57	N	0.915971	-0.005253	0.341694
N58	N	0.959219	0.030608	0.384193
H59	H	0.993105	-0.025181	0.411674
N60	N	0.633735	-0.050862	-0.000131
N61	N	0.630902	-0.120313	0.050918
H62	H	0.662731	-0.194307	0.050937
N63	N	0.915998	-0.005254	0.187653
N64	N	0.914723	-0.110169	0.196184
H65	H	0.948648	-0.165953	0.168726
N66	N	0.726220	0.307563	0.811971
N67	N	0.727566	0.412465	0.803449
H68	H	0.693712	0.468298	0.830957
H69	H	0.735925	0.291506	0.665783
H70	H	0.805270	0.338745	0.568920
N71	N	0.838703	-0.057917	0.422763
N72	N	0.846488	-0.150238	0.456802
H73	H	0.852777	-0.224846	0.429317
N74	N	0.803455	0.360176	0.422744
N75	N	0.795686	0.452498	0.456777
H76	H	0.789405	0.527106	0.429287
N77	N	0.040325	-0.065084	-0.000246
N78	N	0.001632	-0.089133	0.050798
H79	H	-0.018807	-0.164384	0.050811
N80	N	0.838700	-0.057900	0.576850
N81	N	0.838692	-0.057887	0.644909
H82	H	0.844971	-0.132481	0.672416
N83	N	0.382031	0.313069	0.085564
N84	N	0.344262	0.383036	0.123440
H85	H	0.366013	0.440831	0.154056
N86	N	0.915903	-0.005414	0.657826
N87	N	0.957754	-0.074585	0.691850
H88	H	0.991529	-0.130559	0.664352
N89	N	0.726170	0.307513	0.341772
N90	N	0.726183	0.307508	0.409830
H91	H	0.692321	0.363316	0.437347
H92	H	0.493136	-0.032752	-0.000188
H93	H	0.735875	0.291483	0.195571
H94	H	0.266364	0.005797	-0.077214
N95	N	0.601816	0.367337	-0.000178
N96	N	0.562414	0.458904	-0.000191
H97	H	0.582845	0.534162	-0.000195
N98	N	0.406566	-0.007312	-0.085974
N99	N	0.379630	-0.078827	-0.123861
H100	H	0.410135	-0.135377	-0.154464
N101	N	0.154892	0.356611	-0.000241
N102	N	0.219585	0.358149	-0.000229
H103	H	0.240036	0.433389	-0.000218
N104	N	0.235566	0.309571	0.085517
N105	N	0.170874	0.308025	0.085490
H106	H	0.140351	0.364584	0.116072
N107	N	0.008416	0.353113	-0.000254
N108	N	0.011204	0.422559	0.050793
H109	H	-0.020620	0.496560	0.050799
N110	N	0.186774	-0.061575	-0.000234
N111	N	0.161465	-0.154696	-0.000238
H112	H	0.193285	-0.228700	-0.000227
