data_functionalizedCrystal
_audit_creation_method	'MofGen! by Chris Wilmer'
_symmetry_space_group_name_H-M	'P1'
_symmetry_Int_Tables_number	1
_symmetry_cell_setting	triclinic
loop_
_symmetry_equiv_pos_as_xyz
  x,y,z
_cell_length_a	10.654550
_cell_length_b	13.448316
_cell_length_c	10.654550
_cell_angle_alpha	90.006429
_cell_angle_beta	84.484931
_cell_angle_gamma	90.003497
loop_
_atom_site_label
_atom_site_type_symbol
_atom_site_fract_x
_atom_site_fract_y
_atom_site_fract_z
O1	O	1.667845	0.082617	0.176402
O2	O	1.302367	0.082636	0.193208
O3	O	1.493509	0.082620	0.002066
O4	O	1.476703	0.082633	0.367544
O5	O	1.493484	-0.082764	0.002054
O6	O	1.302342	-0.082748	0.193196
O7	O	1.667821	-0.082766	0.176390
Cu8	Cu	1.485079	-0.097858	0.184792
Cu9	Cu	1.485108	0.097727	0.184806
O10	O	1.476678	-0.082751	0.367532
C11	C	1.255556	-0.000054	0.191968
C12	C	1.116113	-0.000047	0.188276
N13	N	1.485068	-0.235422	0.184781
C14	C	1.036628	-0.000046	0.300818
C15	C	0.905607	-0.000063	0.297341
C16	C	0.933570	-0.000079	0.068772
C17	C	1.064588	-0.000069	0.072250
C18	C	1.569733	-0.287470	0.100179
C19	C	1.569741	-0.391573	0.100178
C20	C	1.485089	-0.443627	0.184786
C21	C	1.400415	-0.391572	0.269393
C22	C	1.400402	-0.287471	0.269387
C23	C	1.400450	-0.608553	0.269401
C24	C	1.400464	-0.712661	0.269410
C25	C	1.569788	-0.712654	0.100192
C26	C	1.569776	-0.608553	0.100186
C27	C	1.485103	-0.556506	0.184795
C28	C	1.714631	-0.000075	0.177630
C29	C	1.854074	-0.000075	0.181322
C30	C	1.492263	-0.000072	-0.044738
C31	C	1.488571	-0.000070	-0.184181
N32	N	1.485129	0.235292	0.184807
C33	C	1.601112	-0.000075	-0.263667
C34	C	1.597636	-0.000063	-0.394688
C35	C	1.369066	-0.000044	-0.366725
C36	C	1.372544	-0.000049	-0.235706
C37	C	1.477925	-0.000057	0.414336
C38	C	1.481616	-0.000052	0.553779
H39	H	1.078574	-0.000036	0.395294
O40	O	1.719021	-0.000070	-0.480420
H41	H	1.722881	-0.067471	-0.540802
H42	H	1.274601	-0.000029	-0.408693
O43	O	1.726252	-0.000075	-0.208094
H44	H	1.780386	-0.067477	-0.239967
O45	O	1.251155	-0.000055	-0.149960
H46	H	1.169891	-0.000058	-0.207797
O47	O	1.661071	-0.552403	0.008929
H48	H	1.719942	-0.606081	-0.049913
O49	O	1.150325	-0.000076	-0.049146
H50	H	1.250085	-0.000079	-0.027232
O51	O	1.309122	-0.447713	0.360663
H52	H	1.211076	-0.427760	0.343750
O53	O	0.877999	-0.000095	-0.056369
H54	H	0.773539	-0.000093	-0.039883
H55	H	1.638671	-0.245094	0.031286
H56	H	1.638731	-0.755038	0.031302
O57	O	1.309139	-0.768812	0.360636
H58	H	1.250238	-0.715133	0.419449
O59	O	0.819870	-0.000065	0.418724
H60	H	0.838296	0.067354	0.474189
O61	O	1.661084	-0.447702	0.008943
H62	H	1.644260	-0.427727	-0.089119
O63	O	1.309134	-0.552409	0.360661
H64	H	1.250282	-0.606093	0.419508
O65	O	1.309093	-0.231326	0.360641
H66	H	1.250239	-0.285010	0.419486
