data_functionalizedCrystal
_audit_creation_method	'MofGen! by Chris Wilmer'
_symmetry_space_group_name_H-M	'P1'
_symmetry_Int_Tables_number	1
_symmetry_cell_setting	triclinic
loop_
_symmetry_equiv_pos_as_xyz
  x,y,z
_cell_length_a	17.000383
_cell_length_b	17.019294
_cell_length_c	13.330367
_cell_angle_alpha	86.116384
_cell_angle_beta	89.989271
_cell_angle_gamma	79.506204
loop_
_atom_site_label
_atom_site_type_symbol
_atom_site_fract_x
_atom_site_fract_y
_atom_site_fract_z
O1	O	1.056072	0.028436	-0.085948
O2	O	1.556072	0.528436	0.414052
O3	O	0.824307	0.057066	-0.088408
O4	O	1.324307	0.557066	0.411592
O5	O	0.946654	-0.072530	-0.077215
O6	O	1.446654	0.427470	0.422785
O7	O	0.933724	0.158032	-0.097141
O8	O	1.433724	0.658032	0.402859
O9	O	0.946636	-0.072531	0.089632
O10	O	1.446636	0.427469	0.589632
O11	O	0.824289	0.057065	0.078439
O12	O	1.324289	0.557065	0.578439
O13	O	1.056054	0.028435	0.080899
O14	O	1.556054	0.528435	0.580899
Cu15	Cu	0.940170	0.042750	0.094904
Cu16	Cu	1.440170	0.542750	0.594904
Cu17	Cu	0.940191	0.042751	-0.102413
Cu18	Cu	1.440191	0.542751	0.397587
O19	O	0.933707	0.158031	0.069706
O20	O	1.433707	0.658031	0.569706
C21	C	0.794643	0.058603	-0.005115
C22	C	1.294643	0.558603	0.494885
C23	C	0.706279	0.063175	-0.005505
C24	C	1.206279	0.563175	0.494495
C25	C	0.206029	0.092699	-0.008094
C26	C	0.706029	0.592699	0.491906
C27	C	0.289057	0.088397	-0.007722
C28	C	0.789057	0.588397	0.492278
C29	C	0.340136	0.013720	-0.001260
C30	C	0.840136	0.513720	0.498740
C31	C	0.308184	-0.056658	0.004819
C32	C	0.808184	0.443342	0.504819
C33	C	0.225157	-0.052355	0.004439
C34	C	0.725157	0.447645	0.504439
C35	C	0.591300	-0.002900	0.000194
C36	C	1.091300	0.497100	0.500194
C37	C	0.674332	-0.007198	0.000576
C38	C	1.174332	0.492802	0.500576
C39	C	0.655199	0.137857	-0.011966
C40	C	1.155199	0.637857	0.488034
C41	C	0.572172	0.142154	-0.012339
C42	C	1.072172	0.642154	0.487661
C43	C	0.540227	0.071775	-0.006266
C44	C	1.040227	0.571775	0.493734
C45	C	0.425004	0.009321	-0.000876
C46	C	0.925004	0.509321	0.499124
C47	C	0.455360	0.076175	-0.006657
C48	C	0.955360	0.576175	0.493343
C49	C	0.946155	-0.101886	0.008743
C50	C	1.446155	0.398114	0.508743
C51	C	0.944684	-0.189354	0.016297
C52	C	1.444684	0.310646	0.516297
C53	C	0.944004	-0.230442	-0.071102
C54	C	1.444004	0.269558	0.428898
C55	C	0.942616	-0.312627	-0.064002
C56	C	1.442616	0.187373	0.435998
C57	C	0.941914	-0.353723	0.030498
C58	C	1.441914	0.146277	0.530498
C59	C	0.942592	-0.312630	0.117904
C60	C	1.442592	0.187370	0.617904
C61	C	0.943973	-0.230445	0.110803
C62	C	1.443973	0.269555	0.610803
C63	C	0.937736	-0.601867	0.056490
C64	C	1.437736	-0.101867	0.556490
C65	C	0.936357	-0.684057	0.063585
C66	C	1.436357	-0.184057	0.563585
C67	C	0.936380	-0.684048	-0.118323
C68	C	1.436380	-0.184048	0.381677
C69	C	0.937767	-0.601863	-0.125415
C70	C	1.437767	-0.101863	0.374585
C71	C	0.938440	-0.560776	-0.038010
C72	C	1.438440	-0.060776	0.461990
C73	C	0.940498	-0.437730	0.037758
C74	C	1.440498	0.062270	0.537758
C75	C	0.939850	-0.476770	-0.045271
C76	C	1.439850	0.023230	0.454729
C77	C	1.085718	0.026898	-0.002396
C78	C	1.585718	0.526898	0.497604
C79	C	1.174082	0.022326	-0.002013
C80	C	1.674082	0.522326	0.497987
C81	C	0.934206	0.187387	-0.016255
C82	C	1.434206	0.687387	0.483745
C83	C	0.935677	0.274855	-0.023815
C84	C	1.435677	0.774855	0.476185
N85	N	0.940161	0.042747	0.233685
N86	N	1.440161	0.542747	0.733685
N87	N	0.940206	0.042747	-0.241194
N88	N	1.440206	0.542747	0.258806
C89	C	0.886013	0.100116	0.701353
C90	C	1.386013	0.600116	1.201353
C91	C	0.994390	-0.014621	0.711231
C92	C	1.494390	0.485379	1.211231
C93	C	0.994381	-0.014622	0.606213
C94	C	1.494381	0.485378	1.106213
C95	C	0.940188	0.042746	0.548760
C96	C	1.440188	0.542746	1.048760
C97	C	0.886004	0.100117	0.596325
C98	C	1.386004	0.600117	1.096325
C99	C	1.048569	-0.071987	0.558639
C100	C	1.548569	0.428013	1.058639
C101	C	1.048563	-0.071991	0.453614
C102	C	1.548563	0.428009	0.953614
C103	C	0.994366	-0.014625	0.396160
C104	C	1.494366	0.485375	0.896160
C105	C	0.940179	0.042748	0.443732
C106	C	1.440179	0.542748	0.943732
C107	C	0.885986	0.100117	0.386279
C108	C	1.385986	0.600117	0.886279
C109	C	0.831795	0.157486	0.433849
C110	C	1.331795	0.657486	0.933849
C111	C	0.831807	0.157483	0.538871
C112	C	1.331807	0.657483	1.038871
C113	C	0.994354	-0.014621	0.291138
C114	C	1.494354	0.485379	0.791138
C115	C	0.885977	0.100118	0.281251
C116	C	1.385977	0.600118	0.781251
H117	H	0.565301	-0.060207	0.005142
H118	H	1.065301	0.439793	0.505142
H119	H	1.092687	-0.118704	0.414890
H120	H	1.592687	0.381296	0.914890
Br121	Br	1.122122	-0.149836	0.636606
Br122	Br	1.622122	0.350164	1.136606
H123	H	0.787687	0.204192	0.577609
H124	H	1.287687	0.704192	1.077609
H125	H	0.413768	0.136976	-0.011922
H126	H	0.913768	0.636976	0.488078
H127	H	0.199148	-0.109661	0.009389
H128	H	0.699148	0.390339	0.509389
H129	H	0.935831	-0.717511	-0.189483
H130	H	1.435831	-0.217511	0.310517
Br131	Br	1.067900	-0.092468	0.226584
Br132	Br	1.567900	0.407532	0.726584
H133	H	0.942015	-0.346096	0.194848
H134	H	1.442015	0.153904	0.694848
Br135	Br	0.136714	0.194050	-0.016852
Br136	Br	0.636714	0.694050	0.483148
Br137	Br	0.758257	0.235348	0.355866
Br138	Br	1.258257	0.735348	0.855866
Br139	Br	0.944892	-0.174681	0.229421
Br140	Br	1.444892	0.325319	0.729421
H141	H	1.038516	-0.061325	0.758012
H142	H	1.538516	0.438675	1.258012
Br143	Br	0.332410	0.183908	-0.015985
Br144	Br	0.832410	0.683908	0.484015
H145	H	0.530588	0.202963	-0.017604
H146	H	1.030588	0.702963	0.482396
H147	H	0.681218	0.195155	-0.016912
H148	H	1.181218	0.695155	0.483088
Br149	Br	0.812419	0.177974	0.203287
Br150	Br	1.312419	0.677974	0.703287
H151	H	0.841889	0.146823	0.740088
H152	H	1.341889	0.646823	1.240088
H153	H	0.715920	-0.068012	0.005833
H154	H	1.215920	0.431988	0.505833
H155	H	0.349779	-0.117461	0.010074
H156	H	0.849779	0.382539	0.510074
Br157	Br	0.938725	-0.546096	-0.253671
Br158	Br	1.438725	-0.046096	0.246329
H159	H	0.942066	-0.346077	-0.135172
H160	H	1.442066	0.153923	0.364828
H161	H	0.935781	-0.717515	0.140542
H162	H	1.435781	-0.217515	0.640542
H163	H	0.940416	-0.443304	-0.122213
H164	H	1.440416	0.056696	0.377787
H165	H	0.938300	-0.568426	0.127662
H166	H	1.438300	-0.068426	0.627662
H167	H	0.939929	-0.471201	0.114701
H168	H	1.439929	0.028799	0.614701
H169	H	0.466602	-0.051481	0.004388
H170	H	0.966602	0.448519	0.504388
H171	H	0.944580	-0.196988	-0.148055
H172	H	1.444580	0.303012	0.351945
