data_functionalizedCrystal
_audit_creation_method	'MofGen! by Chris Wilmer'
_symmetry_space_group_name_H-M	'P1'
_symmetry_Int_Tables_number	1
_symmetry_cell_setting	triclinic
loop_
_symmetry_equiv_pos_as_xyz
  x,y,z
_cell_length_a	9.798715
_cell_length_b	14.971486
_cell_length_c	14.971506
_cell_angle_alpha	83.618258
_cell_angle_beta	89.998430
_cell_angle_gamma	90.001270
loop_
_atom_site_label
_atom_site_type_symbol
_atom_site_fract_x
_atom_site_fract_y
_atom_site_fract_z
O1	O	0.113329	-1.186952	-0.116560
O2	O	0.613329	-0.686952	0.383440
O3	O	0.113366	-0.926553	-0.130518
O4	O	0.613366	-0.426553	0.369482
O5	O	0.113343	-1.063723	0.006660
O6	O	0.613343	-0.563723	0.506660
O7	O	0.113352	-1.049783	-0.253738
O8	O	0.613352	-0.549783	0.246262
O9	O	-0.113639	-1.063712	0.006660
O10	O	0.386361	-0.563712	0.506660
O11	O	-0.113616	-0.926543	-0.130518
O12	O	0.386384	-0.426543	0.369482
O13	O	-0.113653	-1.186942	-0.116559
O14	O	0.386347	-0.686942	0.383441
Zn15	Zn	-0.149673	-1.056741	-0.123539
Zn16	Zn	0.350327	-0.556741	0.376461
Zn17	Zn	0.149386	-1.056754	-0.123539
Zn18	Zn	0.649386	-0.556754	0.376461
O19	O	-0.113630	-1.049773	-0.253737
O20	O	0.386370	-0.549773	0.246263
C21	C	-0.000121	-0.893223	-0.129894
C22	C	0.499879	-0.393223	0.370106
C23	C	-0.000107	-0.793926	-0.128023
C24	C	0.499893	-0.293926	0.371977
N25	N	-0.353773	-1.056738	-0.123538
N26	N	0.146227	-0.556738	0.376462
C27	C	-0.000146	-1.063091	0.039984
C28	C	0.499854	-0.563091	0.539984
C29	C	-0.000140	-1.061213	0.139281
C30	C	0.499860	-0.561213	0.639281
C31	C	-0.421559	-1.114334	-0.065689
C32	C	0.078441	-0.614334	0.434311
C33	C	-0.578722	-1.114348	-0.065685
C34	C	-0.078722	-0.614348	0.434315
N35	N	0.353485	-1.056764	-0.123533
N36	N	0.853485	-0.556764	0.376467
C37	C	-0.000164	-1.220272	-0.117184
C38	C	0.499836	-0.720272	0.382816
C39	C	-0.000169	-1.319569	-0.119054
C40	C	0.499831	-0.819569	0.380946
C41	C	-0.000106	-0.736707	-0.208612
C42	C	0.499894	-0.236707	0.291388
C43	C	-0.000126	-0.643407	-0.206849
C44	C	0.499874	-0.143407	0.293151
C45	C	-0.000138	-0.607329	-0.124496
C46	C	0.499862	-0.107329	0.375504
C47	C	-0.000143	-0.664556	-0.043901
C48	C	0.499857	-0.164556	0.456099
C49	C	-0.000132	-0.757853	-0.045665
C50	C	0.499868	-0.257853	0.454335
C51	C	-0.000161	-0.470093	-0.040230
C52	C	0.499839	0.029907	0.459770
C53	C	-0.000170	-0.376789	-0.038466
C54	C	0.499830	0.123211	0.461534
C55	C	-0.000156	-0.355647	-0.201414
C56	C	0.499844	0.144353	0.298586
C57	C	-0.000145	-0.448944	-0.203178
C58	C	0.499855	0.051056	0.296822
C59	C	-0.000147	-0.506165	-0.122582
C60	C	0.499853	-0.006165	0.377418
C61	C	-0.000138	-1.050404	-0.287062
C62	C	0.499862	-0.550404	0.212938
C63	C	-0.000135	-1.052282	-0.386358
C64	C	0.499865	-0.552282	0.113642
C65	C	-0.000151	-1.134631	0.577563
C66	C	0.499849	-0.634631	1.077563
C67	C	-0.000160	-1.136389	0.484263
C68	C	0.499840	-0.636389	0.984263
C69	C	-0.000144	-1.055796	0.427043
C70	C	0.499856	-0.555796	0.927043
C71	C	-0.000132	-0.973441	0.463127
C72	C	0.499868	-0.473441	0.963127
C73	C	-0.000133	-0.971685	0.556426
C74	C	0.499867	-0.471685	1.056426
C75	C	-0.000128	-0.977108	0.268664
C76	C	0.499872	-0.477108	0.768664
C77	C	-0.000124	-0.978864	0.175359
C78	C	0.499876	-0.478864	0.675359
C79	C	-0.000154	-1.141812	0.196501
C80	C	0.499846	-0.641812	0.696501
C81	C	-0.000155	-1.140055	0.289800
C82	C	0.499845	-0.640055	0.789800
C83	C	-0.000141	-1.057700	0.325878
C84	C	0.499859	-0.557700	0.825878
H85	H	-0.363245	-1.163630	-0.016160
H86	H	0.136755	-0.663630	0.483840
C87	C	-0.000092	-0.776385	-0.299201
C88	C	0.499908	-0.276385	0.200799
H89	H	-0.000107	-0.728941	-0.346943
H90	H	0.499893	-0.228941	0.153057
H91	H	0.079065	-0.812336	-0.303278
H92	H	0.579065	-0.312336	0.196722
H93	H	-0.079252	-0.812344	-0.303275
H94	H	0.420748	-0.312344	0.196725
H95	H	-0.637015	-1.163662	-0.016161
H96	H	-0.137015	-0.663662	0.483839
C97	C	-0.000190	-0.337103	0.052119
C98	C	0.499810	0.162897	0.552119
H99	H	-0.000209	-0.384542	0.099866
H100	H	0.499791	0.115458	0.599866
H101	H	0.078960	-0.301144	0.056197
H102	H	0.578960	0.198856	0.556197
H103	H	-0.079357	-0.301150	0.056185
H104	H	0.420643	0.198850	0.556185
C105	C	-0.000189	-1.232401	0.156820
C106	C	0.499811	-0.732401	0.656820
H107	H	-0.000206	-1.221908	0.093060
H108	H	0.499794	-0.721908	0.593060
H109	H	0.078956	-1.265598	0.176447
H110	H	0.578956	-0.765598	0.676447
H111	H	-0.079361	-1.265578	0.176458
H112	H	0.420639	-0.765578	0.676458
C113	C	-0.000121	-0.580469	-0.295496
C114	C	0.499879	-0.080469	0.204504
H115	H	-0.000095	-0.615319	-0.344794
H116	H	0.499905	-0.115319	0.155206
H117	H	-0.079280	-0.543640	-0.298200
H118	H	0.420720	-0.043640	0.201800
H119	H	0.079038	-0.543629	-0.298191
H120	H	0.579038	-0.043629	0.201809
H121	H	-0.000160	-0.309053	-0.267037
H122	H	0.499840	0.190947	0.232963
H123	H	-0.588230	-1.007455	-0.173066
H124	H	-0.088230	-0.507455	0.326934
H125	H	-0.000160	-1.205681	0.336387
H126	H	0.499840	-0.705681	0.836387
C127	C	-0.000098	-0.886519	0.308349
C128	C	0.499902	-0.386519	0.808349
H129	H	-0.000070	-0.838772	0.260910
H130	H	0.499930	-0.338772	0.760910
H131	H	-0.079245	-0.882432	0.344309
H132	H	0.420755	-0.382432	0.844309
H133	H	0.079072	-0.882461	0.344301
H134	H	0.579072	-0.382461	0.844301
C135	C	-0.000148	-0.533033	0.048422
C136	C	0.499852	-0.033033	0.548422
H137	H	-0.000138	-0.498186	0.097722
H138	H	0.499862	0.001814	0.597722
H139	H	-0.079291	-0.569880	0.051129
H140	H	0.420709	-0.069880	0.551129
H141	H	0.079026	-0.569856	0.051112
H142	H	0.579026	-0.069856	0.551112
H143	H	-0.000132	-0.804441	0.019958
H144	H	0.499868	-0.304441	0.519958
H145	H	-0.412089	-1.007436	-0.173059
H146	H	0.087911	-0.507436	0.326941
H147	H	-0.000123	-0.478316	-0.270236
H148	H	0.499877	0.021684	0.229764
H149	H	-0.000153	-1.200259	0.624146
H150	H	0.499847	-0.700259	1.124146
H151	H	-0.000171	-0.635173	0.023152
H152	H	0.499829	-0.135173	0.523152
H153	H	-0.000127	-0.907821	0.416531
H154	H	0.499873	-0.407821	0.916531
C155	C	-0.000161	-1.226972	0.444580
C156	C	0.499839	-0.726972	0.944580
H157	H	-0.000150	-1.274718	0.492020
H158	H	0.499850	-0.774718	0.992020
H159	H	-0.079313	-1.231048	0.408624
H160	H	0.420687	-0.731048	0.908624
H161	H	0.079004	-1.231043	0.408624
H162	H	0.579004	-0.731043	0.908624
C163	C	-0.000113	-0.890215	0.112419
C164	C	0.499887	-0.390215	0.612419
H165	H	-0.000124	-0.840916	0.147266
H166	H	0.499876	-0.340916	0.647266
H167	H	0.079042	-0.887517	0.075585
H168	H	0.579042	-0.387517	0.575585
H169	H	-0.079275	-0.887516	0.075584
H170	H	0.420725	-0.387516	0.575584
C171	C	-0.000104	-0.881101	0.596113
C172	C	0.499896	-0.381101	1.096113
H173	H	-0.000079	-0.833354	0.548674
H174	H	0.499921	-0.333354	1.048674
H175	H	-0.079255	-0.877020	0.632071
H176	H	0.420745	-0.377020	1.132071
H177	H	0.079063	-0.877039	0.632067
H178	H	0.579063	-0.377039	1.132067
