data_functionalizedCrystal
_audit_creation_method	'MofGen! by Chris Wilmer'
_symmetry_space_group_name_H-M	'P1'
_symmetry_Int_Tables_number	1
_symmetry_cell_setting	triclinic
loop_
_symmetry_equiv_pos_as_xyz
  x,y,z
_cell_length_a	6.817900
_cell_length_b	16.418049
_cell_length_c	27.923559
_cell_angle_alpha	96.651816
_cell_angle_beta	98.965071
_cell_angle_gamma	103.389670
loop_
_atom_site_label
_atom_site_type_symbol
_atom_site_fract_x
_atom_site_fract_y
_atom_site_fract_z
V1	V	-3.976240	-0.117079	-0.151441
O2	O	-3.965244	0.004400	-0.148382
O3	O	-3.927594	-0.230968	-0.150574
O4	O	-3.906038	-0.115816	-0.217412
O5	O	-3.986950	-0.111550	-0.081081
V6	V	-4.462725	-0.102485	-0.143005
O7	O	-4.231001	-0.149091	-0.169946
O8	O	-4.658161	-0.070472	-0.124500
O9	O	-4.288165	0.011405	-0.143871
O10	O	-4.591118	-0.223964	-0.146063
O11	O	-4.569412	-0.108014	-0.213364
O12	O	-4.309721	-0.103748	-0.077033
C13	C	-3.773240	-0.258715	-0.148229
C14	C	-3.814607	-0.351825	-0.147960
C15	C	-4.091039	-0.570329	-0.149777
C16	C	-4.129895	-0.657816	-0.149529
C17	C	-3.767283	-0.649234	-0.144671
C18	C	-3.728432	-0.561749	-0.144923
C19	C	-3.890316	-0.522298	-0.147474
C20	C	-3.968023	-0.697270	-0.146974
C21	C	-4.010151	-0.792128	-0.146704
C22	C	-3.848186	-0.427435	-0.147744
C23	C	-3.745742	-0.111826	-0.233487
C24	C	-3.769626	-0.111547	-0.287420
C25	C	-3.955546	-0.186676	-0.628916
C26	C	-4.045419	-0.185677	-0.831624
O27	O	-4.089077	-0.250829	-0.863825
N28	N	-4.019077	-0.108791	-0.849926
C29	C	-3.970277	-0.032151	-0.817549
O30	O	-3.949955	0.033267	-0.837768
C31	C	-3.880420	-0.033151	-0.614843
C32	C	-3.906744	-0.110041	-0.596543
C33	C	-3.981870	-0.263559	-0.610616
C34	C	-3.959392	-0.263808	-0.559942
C35	C	-3.910590	-0.187173	-0.527568
C36	C	-3.884266	-0.110289	-0.545869
C37	C	-3.831634	0.043489	-0.582467
C38	C	-3.809177	0.043232	-0.531788
C39	C	-3.835502	-0.033658	-0.513488
C40	C	-3.812986	-0.033903	-0.462822
N41	N	-3.839328	-0.110788	-0.444519
C42	C	-3.888130	-0.187423	-0.476892
C43	C	-4.017452	-0.031631	-0.923973
C44	C	-4.039913	-0.031380	-0.974649
C45	C	-4.115057	-0.184907	-0.988720
C46	C	-4.092581	-0.185156	-0.938043
C47	C	-4.043794	-0.108516	-0.905670
C48	C	-3.840919	-0.187940	-0.370472
C49	C	-3.818428	-0.188181	-0.319793
C50	C	-3.743296	-0.034656	-0.305727
C51	C	-3.765775	-0.034413	-0.356401
C52	C	-3.814596	-0.111062	-0.388774
O53	O	-3.769353	0.031214	-0.430592
O54	O	-3.908487	-0.252833	-0.456664
C55	C	-3.978024	-0.186427	-0.679590
C56	C	-3.951700	-0.109543	-0.697891
C57	C	-3.902899	-0.032908	-0.665518
C58	C	-3.974161	-0.109293	-0.748567
C59	C	-4.022963	-0.185928	-0.780940
C60	C	-4.049304	-0.262813	-0.762638
C61	C	-4.026826	-0.263062	-0.711964
C62	C	-3.876557	0.043977	-0.683821
C63	C	-3.899036	0.044219	-0.734495
C64	C	-3.947838	-0.032415	-0.766868
C65	C	-4.105861	0.039147	-0.146216
C66	C	-4.043731	0.132256	-0.146488
C67	C	-4.133360	-0.107741	-0.060956
C68	C	-4.088715	-0.108015	-0.007023
H69	H	-4.222857	-0.538211	-0.151854
C70	C	-3.589219	-0.692627	-0.141861
H71	H	-3.464112	-0.651491	-0.140529
H72	H	-3.580525	-0.718701	-0.113226
H73	H	-3.613152	-0.734452	-0.170100
C74	C	-3.507623	-0.508911	-0.142387
H75	H	-3.416771	-0.544933	-0.140825
H76	H	-3.501243	-0.482479	-0.170819
H77	H	-3.468626	-0.466731	-0.113946
C78	C	-3.988379	-0.348388	-0.539818
H79	H	-4.020682	-0.393987	-0.566362
H80	H	-3.865217	-0.349001	-0.518760
H81	H	-4.097167	-0.354365	-0.521926
H82	H	-3.839862	-0.250797	-0.304897
C83	C	-3.894611	-0.272251	-0.406075
H84	H	-3.907048	-0.318070	-0.387911
H85	H	-4.020912	-0.278041	-0.427718
H86	H	-3.788956	-0.272661	-0.424554
C87	C	-4.168763	-0.269204	-1.024337
H88	H	-4.178384	-0.258036	-1.057138
H89	H	-4.064572	-0.298112	-1.017347
H90	H	-4.296513	-0.303462	-1.020506
H91	H	-4.114018	-0.247767	-0.923147
H92	H	-4.021615	-0.325968	-0.636970
C93	C	-4.010952	0.053198	-0.994774
H94	H	-3.978696	0.098798	-0.968232
H95	H	-3.902189	0.059186	-1.012670
H96	H	-4.134148	0.053795	-1.015830
H97	H	-4.293342	-0.696920	-0.151406
H98	H	-3.977724	0.030782	-0.897619
C99	C	-3.802644	0.128070	-0.602586
H100	H	-3.770376	0.173667	-0.576041
H101	H	-3.693869	0.134049	-0.620478
H102	H	-3.925820	0.128682	-0.623644
C103	C	-4.102999	-0.347109	-0.798255
H104	H	-4.112627	-0.335941	-0.831055
H105	H	-3.998798	-0.376012	-0.791265
H106	H	-4.230742	-0.381373	-0.794423
H107	H	-3.769455	0.105643	-0.505432
H108	H	-3.744350	0.028196	-0.371302
H109	H	-3.703553	0.027738	-0.279359
C110	C	-4.055810	-0.347642	-0.691840
H111	H	-4.088112	-0.393241	-0.718384
H112	H	-3.932648	-0.348254	-0.670782
H113	H	-4.164598	-0.353619	-0.673948
C114	C	-3.870087	0.128804	-0.754619
H115	H	-3.837826	0.174404	-0.728077
H116	H	-3.761332	0.134793	-0.772518
H117	H	-3.993290	0.129399	-0.775673
H118	H	-3.836824	0.106384	-0.657466
