data_functionalizedCrystal
_audit_creation_method	'MofGen! by Chris Wilmer'
_symmetry_space_group_name_H-M	'P1'
_symmetry_Int_Tables_number	1
_symmetry_cell_setting	triclinic
loop_
_symmetry_equiv_pos_as_xyz
  x,y,z
_cell_length_a	16.956995
_cell_length_b	14.519709
_cell_length_c	15.455313
_cell_angle_alpha	92.669068
_cell_angle_beta	87.515363
_cell_angle_gamma	79.867308
loop_
_atom_site_label
_atom_site_type_symbol
_atom_site_fract_x
_atom_site_fract_y
_atom_site_fract_z
O1	O	1.061583	0.033914	-0.072191
O2	O	1.561583	0.533914	0.427809
O3	O	0.829472	0.066287	-0.072180
O4	O	1.329472	0.566287	0.427820
O5	O	0.951681	-0.084618	-0.072178
O6	O	1.451681	0.415382	0.427822
O7	O	0.939374	0.184820	-0.072193
O8	O	1.439374	0.684820	0.427807
O9	O	0.944693	-0.076022	0.072084
O10	O	1.444693	0.423978	0.572084
O11	O	0.822483	0.074883	0.072082
O12	O	1.322483	0.574883	0.572082
O13	O	1.054595	0.042510	0.072071
O14	O	1.554595	0.542510	0.572071
Cu15	Cu	0.937901	0.059482	0.085249
Cu16	Cu	1.437901	0.559482	0.585249
Cu17	Cu	0.946166	0.049316	-0.085358
Cu18	Cu	1.446166	0.549316	0.414642
O19	O	0.932385	0.193416	0.072069
O20	O	1.432385	0.693416	0.572069
C21	C	0.947613	-0.114635	-0.000047
C22	C	1.447613	0.385365	0.499953
C23	C	0.945894	-0.216882	-0.000046
C24	C	1.445894	0.283118	0.499954
C25	C	0.796272	0.072243	-0.000048
C26	C	1.296272	0.572243	0.499952
C27	C	0.707758	0.077171	-0.000043
C28	C	1.207758	0.577171	0.499957
C29	C	0.208512	0.114034	-0.000078
C30	C	0.708512	0.614034	0.499922
C31	C	0.291681	0.109397	-0.000077
C32	C	0.791681	0.609397	0.499923
C33	C	0.342644	0.022351	-0.000065
C34	C	0.842644	0.522351	0.499935
C35	C	0.310436	-0.060064	-0.000064
C36	C	0.810436	0.439936	0.499936
C37	C	0.227269	-0.055426	-0.000071
C38	C	0.727269	0.444574	0.499929
C39	C	0.592383	-0.000606	-0.000049
C40	C	1.092383	0.499394	0.499951
C41	C	0.675555	-0.005237	-0.000039
C42	C	1.175555	0.494763	0.499961
C43	C	0.656794	0.164224	-0.000054
C44	C	1.156794	0.664224	0.499946
C45	C	0.573626	0.168854	-0.000056
C46	C	1.073626	0.668854	0.499944
C47	C	0.541425	0.086440	-0.000059
C48	C	1.041425	0.586440	0.499941
N49	N	0.427656	0.017609	-0.000062
N50	N	0.927656	0.517609	0.499938
N51	N	0.456415	0.091182	-0.000069
N52	N	0.956415	0.591182	0.499931
C53	C	0.939568	-0.591285	-0.000069
C54	C	1.439568	-0.091285	0.499931
C55	C	0.941324	-0.487114	-0.000062
C56	C	1.441324	0.012886	0.499938
C57	C	0.942731	-0.404086	-0.000057
C58	C	1.442731	0.095914	0.499943
C59	C	0.944488	-0.299909	-0.000052
C60	C	1.444488	0.200091	0.499948
C61	C	1.087795	0.036555	-0.000064
C62	C	1.587795	0.536555	0.499936
C63	C	1.176309	0.031626	-0.000074
C64	C	1.676309	0.531626	0.499926
C65	C	0.936453	0.223433	-0.000064
C66	C	1.436453	0.723433	0.499936
C67	C	0.938173	0.325679	-0.000071
C68	C	1.438173	0.825679	0.499929
N69	N	0.932094	0.066631	0.205244
N70	N	1.432094	0.566631	0.705244
N71	N	0.951979	0.042159	-0.205353
N72	N	1.451979	0.542159	0.294647
C73	C	0.984031	0.002542	0.250639
C74	C	1.484031	0.502542	0.750639
C75	C	0.979646	0.007956	0.341447
C76	C	1.479646	0.507956	0.841447
C77	C	0.923328	0.077465	0.386858
C78	C	1.423328	0.577465	0.886858
C79	C	0.871386	0.141557	0.341457
C80	C	1.371386	0.641557	0.841457
C81	C	0.875767	0.136138	0.250650
C82	C	1.375767	0.636138	0.750650
C83	C	0.904418	0.100832	0.658439
C84	C	1.404418	0.600832	1.158439
C85	C	0.900042	0.106248	0.749252
C86	C	1.400042	0.606248	1.249252
C87	C	1.008302	-0.027354	0.749236
C88	C	1.508302	0.472646	1.249236
C89	C	1.012682	-0.032764	0.658428
C90	C	1.512682	0.467236	1.158428
C91	C	0.960736	0.031325	0.613034
C92	C	1.460736	0.531325	1.113034
N93	N	0.918847	0.083003	0.479678
N94	N	1.418847	0.583003	0.979678
N95	N	0.965214	0.025782	0.520216
N96	N	1.465214	0.525782	1.020216
H97	H	0.167022	0.184917	-0.000081
H98	H	0.667022	0.684917	0.499919
H99	H	1.029894	-0.054056	0.213671
H100	H	1.529894	0.445944	0.713671
Cl101	Cl	1.044939	-0.072615	0.398516
Cl102	Cl	1.544939	0.427385	0.898516
Cl103	Cl	1.083483	-0.120146	0.601339
Cl104	Cl	1.583483	0.379854	1.101339
H105	H	0.854179	0.162854	0.786221
H106	H	1.354179	0.662854	1.286221
Cl107	Cl	0.810468	0.216708	0.193583
Cl108	Cl	1.310468	0.716708	0.693583
H109	H	0.825526	0.198150	0.378436
H110	H	1.325526	0.698150	0.878436
Cl111	Cl	0.551914	-0.104215	-0.000073
Cl112	Cl	1.051914	0.395785	0.499927
H113	H	1.050593	-0.079534	0.786203
H114	H	1.550593	0.420466	1.286203
Cl115	Cl	0.839120	0.181402	0.601379
Cl116	Cl	1.339120	0.681402	1.101379
Cl117	Cl	0.332161	0.213001	-0.000087
Cl118	Cl	0.832161	0.713001	0.499913
H119	H	0.351938	-0.130939	-0.000060
H120	H	0.851938	0.369061	0.499940
H121	H	0.717049	-0.076124	-0.000034
H122	H	1.217049	0.423876	0.499966
H123	H	0.532136	0.239737	-0.000068
H124	H	1.032136	0.739737	0.499932
Cl125	Cl	0.697281	0.267824	-0.000058
Cl126	Cl	1.197281	0.767824	0.499942
H127	H	0.201051	-0.122531	-0.000069
H128	H	0.701051	0.377469	0.499931
