data_functionalizedCrystal
_audit_creation_method	'MofGen! by Chris Wilmer'
_symmetry_space_group_name_H-M	'P1'
_symmetry_Int_Tables_number	1
_symmetry_cell_setting	triclinic
loop_
_symmetry_equiv_pos_as_xyz
  x,y,z
_cell_length_a	27.435584
_cell_length_b	27.434948
_cell_length_c	27.431174
_cell_angle_alpha	60.005483
_cell_angle_beta	60.011353
_cell_angle_gamma	59.993028
loop_
_atom_site_label
_atom_site_type_symbol
_atom_site_fract_x
_atom_site_fract_y
_atom_site_fract_z
O1	O	0.067437	-0.712144	0.595551
O2	O	0.567437	-0.212144	1.095551
O3	O	0.025356	-0.554453	0.479848
O4	O	0.525356	-0.054453	0.979848
O5	O	0.125206	-0.654236	0.479781
O6	O	0.625206	-0.154236	0.979781
O7	O	-0.032412	-0.612361	0.595618
O8	O	0.467588	-0.112361	1.095618
O9	O	0.158328	-0.621117	0.512835
O10	O	0.658328	-0.121117	1.012835
O11	O	0.058479	-0.521333	0.512902
O12	O	0.558479	-0.021333	1.012902
O13	O	0.100560	-0.679025	0.628605
O14	O	0.600560	-0.179025	1.128605
Zn15	Zn	0.084778	-0.594921	0.576001
Zn16	Zn	0.584778	-0.094921	1.076001
Zn17	Zn	0.041138	-0.638557	0.532452
Zn18	Zn	0.541138	-0.138557	1.032452
O19	O	0.000710	-0.579241	0.628672
O20	O	0.500710	-0.079241	1.128672
N21	N	0.114563	-0.565144	0.605726
N22	N	0.614563	-0.065144	1.105726
N23	N	0.011358	-0.668338	0.502727
N24	N	0.511358	-0.168338	1.002727
C25	C	0.156385	-0.523520	0.904506
C26	C	0.656385	-0.023520	1.404506
C27	C	0.413419	-0.523497	0.647322
C28	C	0.913419	-0.023497	1.147322
C29	C	0.156253	-0.523488	0.647384
C30	C	0.656253	-0.023488	1.147384
C31	C	0.156238	-0.266354	0.647407
C32	C	0.656238	0.233646	1.147407
C33	C	0.197637	-0.390463	0.688753
C34	C	0.697637	0.109537	1.188753
C35	C	0.197646	-0.482126	0.688741
C36	C	0.697646	0.017874	1.188741
C37	C	0.220575	-0.459215	0.711654
C38	C	0.720575	0.040785	1.211654
C39	C	0.320555	-0.441991	0.659023
C40	C	0.820555	0.058009	1.159023
C41	C	0.383051	-0.462825	0.638179
C42	C	0.883051	0.037175	1.138179
C43	C	0.383069	-0.563942	0.676737
C44	C	0.883069	-0.063942	1.176737
C45	C	0.320575	-0.543107	0.697583
C46	C	0.820575	-0.043107	1.197583
C47	C	0.212704	-0.359206	0.627313
C48	C	0.712704	0.140794	1.127313
C49	C	0.191849	-0.296705	0.606496
C50	C	0.691849	0.203295	1.106496
C51	C	0.140866	-0.296722	0.708562
C52	C	0.640866	0.203278	1.208562
C53	C	0.161721	-0.359223	0.729379
C54	C	0.661721	0.140777	1.229379
C55	C	0.136200	-0.467030	0.703858
C56	C	0.636200	0.032970	1.203858
C57	C	0.115361	-0.487857	0.683021
C58	C	0.615361	0.012143	1.183021
C59	C	0.217408	-0.538877	0.631968
C60	C	0.717408	-0.038877	1.131968
C61	C	0.238249	-0.518050	0.652796
C62	C	0.738249	-0.018050	1.152796
C63	C	0.136259	-0.467047	0.811668
C64	C	0.636259	0.032953	1.311668
C65	C	0.115461	-0.487892	0.874167
C66	C	0.615461	0.012108	1.374167
C67	C	0.217537	-0.538923	0.874131
C68	C	0.717537	-0.038923	1.374131
C69	C	0.238333	-0.518080	0.811631
C70	C	0.738333	-0.018080	1.311631
C71	C	0.197693	-0.482140	0.780401
C72	C	0.697693	0.017860	1.280401
C73	C	0.289320	-0.482131	0.688723
C74	C	0.789320	0.017869	1.188723
C75	C	0.132699	-0.546027	0.973247
C76	C	0.632699	-0.046027	1.473247
C77	C	0.482158	-0.545613	0.624075
C78	C	0.982158	-0.045613	1.124075
C79	C	0.132521	-0.546006	0.624886
C80	C	0.632521	-0.046006	1.124886
C81	C	0.132917	-0.197607	0.625310
C82	C	0.632917	0.302393	1.125310
C83	C	-0.098217	-0.686189	0.484419
C84	C	0.401783	-0.186189	0.984419
C85	C	-0.006438	-0.686322	0.392891
C86	C	0.493562	-0.186322	0.892891
C87	C	-0.006621	-0.777944	0.484592
C88	C	0.493379	-0.277944	0.984592
C89	C	-0.006606	-0.686315	0.484649
C90	C	0.493394	-0.186315	0.984649
C91	C	-0.029470	-0.709193	0.461638
C92	C	0.470530	-0.209193	0.961638
N93	N	0.538410	-0.565162	0.605628
N94	N	1.038410	-0.065162	1.105628
O95	O	0.742647	-0.575135	0.458625
O96	O	1.242647	-0.075135	0.958625
O97	O	0.742821	-0.691181	0.616169
O98	O	1.242821	-0.191181	1.116169
O99	O	0.742757	-0.690917	0.516248
O100	O	1.242757	-0.190917	1.016248
O101	O	0.742711	-0.575399	0.558546
O102	O	1.242711	-0.075399	1.058546
O103	O	0.643472	-0.657878	0.549405
O104	O	1.143472	-0.157878	1.049405
O105	O	0.643536	-0.658142	0.649326
O106	O	1.143536	-0.158142	1.149326
O107	O	0.643362	-0.542096	0.491782
O108	O	1.143362	-0.042096	0.991782
Zn109	Zn	0.627685	-0.594873	0.575818
Zn110	Zn	1.127685	-0.094873	1.075818
Zn111	Zn	0.758498	-0.638404	0.532133
Zn112	Zn	1.258498	-0.138404	1.032133
O113	O	0.643426	-0.542360	0.591702
O114	O	1.143426	-0.042360	1.091702
N115	N	0.847774	-0.668115	0.502317
N116	N	1.347774	-0.168115	1.002317
N117	N	0.114542	-0.141354	0.605766
N118	N	0.614542	0.358646	1.105766
O119	O	-0.032397	0.062987	0.595660
O120	O	0.467603	0.562987	1.095660
O121	O	0.125155	0.062987	0.479633
O122	O	0.625155	0.562987	0.979633
O123	O	0.025219	0.062974	0.479910
O124	O	0.525219	0.562974	0.979910
O125	O	0.067539	0.063001	0.595383
O126	O	0.567539	0.563001	1.095383
O127	O	0.058343	-0.036320	0.513009
O128	O	0.558343	0.463680	1.013009
O129	O	0.158279	-0.036306	0.512732
O130	O	0.658279	0.463694	1.012732
O131	O	0.000728	-0.036306	0.628759
O132	O	0.500728	0.463694	1.128759
Zn133	Zn	0.084763	-0.052071	0.576000
Zn134	Zn	0.584763	0.447929	1.076000
Zn135	Zn	0.041120	0.078752	0.532392
Zn136	Zn	0.541120	0.578752	1.032392
O137	O	0.100664	-0.036292	0.628482
O138	O	0.600664	0.463708	1.128482
N139	N	0.011333	0.168036	0.502628
N140	N	0.511333	0.668036	1.002628
N141	N	0.114782	-0.565197	1.029501
N142	N	0.614782	-0.065197	1.529501
O143	O	0.104681	-0.712124	1.233827
O144	O	0.604681	-0.212124	1.733827
O145	O	-0.011334	-0.554523	1.233839
O146	O	0.488666	-0.054523	1.733839
O147	O	-0.011066	-0.654443	1.233797
O148	O	0.488934	-0.154443	1.733797
O149	O	0.104414	-0.612204	1.233869
O150	O	0.604414	-0.112204	1.733869
O151	O	0.022028	-0.621336	1.134509
O152	O	0.522028	-0.121336	1.634509
O153	O	0.021760	-0.521417	1.134551
O154	O	0.521760	-0.021417	1.634551
O155	O	0.137775	-0.679018	1.134539
O156	O	0.637775	-0.179018	1.634539
Zn157	Zn	0.085022	-0.594961	1.118780
Zn158	Zn	0.585022	-0.094961	1.618780
Zn159	Zn	0.041420	-0.638580	1.249597
Zn160	Zn	0.541420	-0.138580	1.749597
O161	O	0.137508	-0.579098	1.134580
O162	O	0.637508	-0.079098	1.634580
N163	N	0.011658	-0.668350	1.338876
N164	N	0.511658	-0.168350	1.838876
C165	C	0.037974	-0.518023	0.480435
C166	C	0.537974	-0.018023	0.980435
C167	C	0.161625	-0.641592	0.480351
C168	C	0.661625	-0.141592	0.980351
C169	C	0.087941	-0.715455	0.628017
C170	C	0.587941	-0.215455	1.128017
C171	C	-0.035710	-0.591885	0.628101
C172	C	0.464290	-0.091885	1.128101
C173	C	0.693199	-0.690642	0.652596
C174	C	1.193199	-0.190642	1.152596
C175	C	0.693122	-0.690315	0.528855
C176	C	1.193122	-0.190315	1.028855
C177	C	0.692981	-0.542634	0.455356
C178	C	1.192981	-0.042634	0.955356
C179	C	0.693062	-0.542961	0.579095
C180	C	1.193062	-0.042961	1.079095
C181	C	0.161524	0.013463	0.480164
C182	C	0.661524	0.513463	0.980164
C183	C	0.037807	0.013324	0.480547
C184	C	0.537807	0.513324	0.980547
C185	C	-0.035683	0.013341	0.628188
C186	C	0.464317	0.513341	1.128188
C187	C	0.088076	0.013357	0.627845
C188	C	0.588076	0.513357	1.127845
C189	C	-0.010764	-0.518114	1.184196
C190	C	0.489236	-0.018114	1.684196
C191	C	-0.010426	-0.641846	1.184125
C192	C	0.489574	-0.141846	1.684125
C193	C	0.137205	-0.715426	1.184182
C194	C	0.637205	-0.215426	1.684182
C195	C	0.136875	-0.591687	1.184231
C196	C	0.636875	-0.091687	1.684231
H197	H	0.103160	-0.437777	0.786243
H198	H	0.603160	0.062223	1.286243
H199	H	0.028745	0.013321	0.444270
H200	H	0.528745	0.513321	0.944270
H201	H	0.097136	0.013366	0.664120
H202	H	0.597136	0.513366	1.164120
O203	O	0.413371	-0.623177	0.685301
O204	O	0.913371	-0.123177	1.185301
C205	C	0.432523	-0.709382	0.666940
C206	C	0.932523	-0.209382	1.166940
C207	C	0.398159	-0.642302	0.657209
C208	C	0.898159	-0.142302	1.157209
H209	H	0.420247	-0.724861	0.644222
H210	H	0.920247	-0.224861	1.144222
H211	H	0.420251	-0.735572	0.716807
H212	H	0.920251	-0.235572	1.216807
H213	H	0.482552	-0.717363	0.646958
H214	H	0.982552	-0.217363	1.146958
H215	H	0.348123	-0.634264	0.677156
H216	H	0.848123	-0.134264	1.177156
H217	H	0.410482	-0.616146	0.607335
H218	H	0.910482	-0.116146	1.107335
O219	O	-0.089742	-0.581304	0.671483
O220	O	0.410258	-0.081304	1.171483
C221	C	-0.177411	-0.610268	0.736762
C222	C	0.322589	-0.110268	1.236762
C223	C	-0.116237	-0.622308	0.687625
C224	C	0.383763	-0.122308	1.187625
H225	H	-0.198844	-0.643420	0.749837
H226	H	0.301156	-0.143420	1.249837
H227	H	-0.207506	-0.562864	0.719402
H228	H	0.292494	-0.062864	1.219402
H229	H	-0.171148	-0.615629	0.777458
H230	H	0.328852	-0.115629	1.277458
H231	H	-0.122443	-0.616979	0.646912
H232	H	0.377557	-0.116979	1.146912
H233	H	-0.086163	-0.669707	0.705033
H234	H	0.413837	-0.169707	1.205033
O235	O	0.693361	-0.734123	0.706548
O236	O	1.193361	-0.234123	1.206548
C237	C	0.744858	-0.797196	0.778429
C238	C	1.244858	-0.297196	1.278429
C239	C	0.744755	-0.747964	0.717312
C240	C	1.244755	-0.247964	1.217312
H241	H	0.786398	-0.808393	0.787157
H242	H	1.286398	-0.308393	1.287157
H243	H	0.744922	-0.838825	0.778515
H244	H	1.244922	-0.338825	1.278515
H245	H	0.703299	-0.780786	0.814885
H246	H	1.203299	-0.280786	1.314885
H247	H	0.786306	-0.764318	0.680822
H248	H	1.286306	-0.264318	1.180822
H249	H	0.744659	-0.706345	0.717277
H250	H	1.244659	-0.206345	1.217277
H251	H	0.288361	-0.530376	0.786177
H252	H	0.788361	-0.030376	1.286177
O253	O	-0.054162	-0.464093	1.184225
O254	O	0.445838	0.035907	1.684225
C255	C	-0.081902	-0.365732	1.184215
C256	C	0.418098	0.134268	1.684215
C257	C	-0.032706	-0.426889	1.184197
C258	C	0.467294	0.073111	1.684197
H259	H	-0.064569	-0.335631	1.184180
H260	H	0.435431	0.164369	1.684180
H261	H	-0.122620	-0.371961	1.225768
H262	H	0.377380	0.128039	1.725768
H263	H	-0.094928	-0.344315	1.142664
H264	H	0.405072	0.155685	1.642664
H265	H	-0.019630	-0.448339	1.225720
H266	H	0.480370	0.051661	1.725720
H267	H	0.007979	-0.420621	1.142616
H268	H	0.507979	0.079379	1.642616
O269	O	0.215444	0.013713	0.436671
O270	O	0.715444	0.513713	0.936671
C271	C	0.321729	-0.037258	0.407473
C272	C	0.821729	0.462742	0.907473
C273	C	0.260704	-0.037606	0.456781
C274	C	0.760704	0.462394	0.956781
H275	H	0.358337	-0.078751	0.423709
H276	H	0.858337	0.421249	0.923709
H277	H	0.330282	0.004362	0.396331
H278	H	0.830282	0.504362	0.896331
H279	H	0.321736	-0.037144	0.365853
H280	H	0.821736	0.462856	0.865853
H281	H	0.260652	-0.037741	0.498431
H282	H	0.760652	0.462259	0.998431
H283	H	0.252175	-0.079222	0.467871
H284	H	0.752175	0.420778	0.967871
O285	O	0.692996	-0.499146	0.401379
O286	O	1.192996	0.000854	0.901379
C287	C	0.744348	-0.433843	0.313742
C288	C	1.244348	0.066157	0.813742
C289	C	0.744400	-0.483080	0.374865
C290	C	1.244400	0.016920	0.874865
H291	H	0.785910	-0.420848	0.292282
H292	H	1.285910	0.079152	0.792282
H293	H	0.702803	-0.393112	0.320015
H294	H	1.202803	0.106888	0.820015
H295	H	0.744309	-0.451149	0.283657
H296	H	1.244309	0.048851	0.783657
H297	H	0.744460	-0.465830	0.404982
H298	H	1.244460	0.034170	0.904982
H299	H	0.785941	-0.523801	0.368546
H300	H	1.285941	-0.023801	0.868546
H301	H	-0.080930	0.013340	0.664614
H302	H	0.419070	0.513340	1.164614
O303	O	0.027320	-0.463960	0.437096
O304	O	0.527320	0.036040	0.937096
C305	C	0.056170	-0.376215	0.371856
C306	C	0.556170	0.123785	0.871856
C307	C	0.068292	-0.437423	0.420945
C308	C	0.568292	0.062577	0.920945
H309	H	0.089296	-0.354748	0.358774
H310	H	0.589296	0.145252	0.858774
H311	H	0.008762	-0.346165	0.389266
H312	H	0.508762	0.153835	0.889266
H313	H	0.061503	-0.382441	0.331152
H314	H	0.561503	0.117559	0.831152
H315	H	0.062992	-0.431254	0.461665
H316	H	0.562992	0.068746	0.961665
H317	H	0.115695	-0.467452	0.403487
H318	H	0.615695	0.032548	0.903487
O319	O	0.215673	-0.652328	0.437025
O320	O	0.715673	-0.152328	0.937025
C321	C	0.313967	-0.723086	0.409422
C322	C	0.813967	-0.223086	0.909422
C323	C	0.252791	-0.711004	0.458545
C324	C	0.752791	-0.211004	0.958545
H325	H	0.343990	-0.770529	0.426798
H326	H	0.843990	-0.270529	0.926798
H327	H	0.335488	-0.690017	0.396374
H328	H	0.835488	-0.190017	0.896374
H329	H	0.307695	-0.717666	0.368706
H330	H	0.807695	-0.217666	0.868706
H331	H	0.259011	-0.716432	0.499294
H332	H	0.759011	-0.216432	0.999294
H333	H	0.231290	-0.744070	0.471543
H334	H	0.731290	-0.244070	0.971543
O335	O	0.098747	-0.769536	0.671297
O336	O	0.598747	-0.269536	1.171297
C337	C	0.169591	-0.867812	0.698781
C338	C	0.669591	-0.367812	1.198781
C339	C	0.157428	-0.806597	0.649711
C340	C	0.657428	-0.306597	1.149711
H341	H	0.217037	-0.897789	0.681351
H342	H	0.717037	-0.397789	1.181351
H343	H	0.136547	-0.889363	0.711831
H344	H	0.636547	-0.389363	1.211831
H345	H	0.164201	-0.861585	0.739509
H346	H	0.664201	-0.361585	1.239509
H347	H	0.162826	-0.812772	0.608951
H348	H	0.662826	-0.312772	1.108951
H349	H	0.190470	-0.785067	0.636711
H350	H	0.690470	-0.285067	1.136711
H351	H	0.693140	-0.726605	0.519802
H352	H	1.193140	-0.226605	1.019802
H353	H	0.693053	-0.506675	0.588146
H354	H	1.193053	-0.006675	1.088146
O355	O	-0.053616	-0.652692	1.184022
O356	O	0.446384	-0.152692	1.684022
C357	C	-0.080902	-0.723592	1.183941
C358	C	0.419098	-0.223592	1.683941
C359	C	-0.031933	-0.711385	1.184043
C360	C	0.468067	-0.211385	1.684043
H361	H	-0.063394	-0.771049	1.183971
H362	H	0.436606	-0.271049	1.683971
H363	H	-0.093915	-0.690562	1.142360
H364	H	0.406085	-0.190562	1.642360
H365	H	-0.121672	-0.718213	1.225464
H366	H	0.378328	-0.218213	1.725464
H367	H	0.008869	-0.716772	1.142548
H368	H	0.508869	-0.216772	1.642548
H369	H	-0.018971	-0.744413	1.225652
H370	H	0.481029	-0.244413	1.725652
H371	H	0.173631	-0.760687	1.184171
H372	H	0.673631	-0.260687	1.684171
O373	O	0.180102	-0.580804	1.184221
O374	O	0.680102	-0.080804	1.684221
C375	C	0.207393	-0.509899	1.184290
C376	C	0.707393	-0.009899	1.684290
C377	C	0.158390	-0.522140	1.184287
C378	C	0.658390	-0.022140	1.684287
H379	H	0.189853	-0.462475	1.184355
H380	H	0.689853	0.037525	1.684355
H381	H	0.248139	-0.515203	1.142730
H382	H	0.748139	-0.015203	1.642730
H383	H	0.220454	-0.542981	1.225834
H384	H	0.720454	-0.042981	1.725834
H385	H	0.145279	-0.489069	1.142771
H386	H	0.645279	0.010931	1.642771
H387	H	0.117677	-0.516857	1.225874
H388	H	0.617677	-0.016857	1.725874
H389	H	0.250633	-0.568176	0.899553
H390	H	0.750633	-0.068176	1.399553
O391	O	0.055760	-0.473143	0.904441
O392	O	0.555760	0.026857	1.404441
C393	C	-0.043288	-0.420344	0.897874
C394	C	0.456712	0.079656	1.397874
C395	C	0.024305	-0.436990	0.863512
C396	C	0.524305	0.063010	1.363512
H397	H	-0.068739	-0.391122	0.864798
H398	H	0.431261	0.108878	1.364798
H399	H	-0.055608	-0.394867	0.927120
H400	H	0.444392	0.105133	1.427120
H401	H	-0.055557	-0.462761	0.927148
H402	H	0.444443	0.037239	1.427148
H403	H	0.036622	-0.394603	0.834205
H404	H	0.536622	0.105397	1.334205
H405	H	0.036588	-0.462490	0.834304
H406	H	0.536588	0.037510	1.334304
H407	H	0.065328	-0.475552	0.695316
H408	H	0.565328	0.024448	1.195316
O409	O	0.096677	-0.432116	0.738743
O410	O	0.596677	0.067884	1.238743
C411	C	-0.006742	-0.383736	0.787212
C412	C	0.493258	0.116264	1.287212
C413	C	0.037953	-0.423267	0.747685
C414	C	0.537953	0.076733	1.247685
H415	H	-0.054230	-0.376580	0.794464
H416	H	0.445770	0.123420	1.294464
H417	H	0.000401	-0.338756	0.764328
H418	H	0.500401	0.161244	1.264328
H419	H	0.000519	-0.406645	0.832146
H420	H	0.500519	0.093355	1.332146
H421	H	0.030719	-0.400411	0.702745
H422	H	0.530719	0.099589	1.202745
H423	H	0.030799	-0.468245	0.770617
H424	H	0.530799	0.031755	1.270617
H425	H	0.288283	-0.530335	0.640482
H426	H	0.788283	-0.030335	1.140482
O427	O	0.256884	-0.573682	0.596967
O428	O	0.756884	-0.073682	1.096967
C429	C	0.337741	-0.581650	0.504983
C430	C	0.837741	-0.081650	1.004983
C431	C	0.293051	-0.542170	0.544561
C432	C	0.793051	-0.042170	1.044561
H433	H	0.367002	-0.556193	0.462610
H434	H	0.867002	-0.056193	0.962610
H435	H	0.312337	-0.593938	0.492627
H436	H	0.812337	-0.093938	0.992627
H437	H	0.366996	-0.624070	0.530438
H438	H	0.866996	-0.124070	1.030438
H439	H	0.263785	-0.499725	0.519143
H440	H	0.763785	0.000275	1.019143
H441	H	0.318491	-0.529930	0.556920
H442	H	0.818491	-0.029930	1.056920
O443	O	0.413302	-0.423750	0.609315
O444	O	0.913302	0.076250	1.109315
C445	C	0.406690	-0.321261	0.573297
C446	C	0.906690	0.178739	1.073297
C447	C	0.372355	-0.365447	0.605982
C448	C	0.872355	0.134553	1.105982
H449	H	0.373599	-0.274115	0.570603
H450	H	0.873599	0.225885	1.070603
H451	H	0.435915	-0.323127	0.526288
H452	H	0.935915	0.176873	1.026288
H453	H	0.435981	-0.333841	0.598841
H454	H	0.935981	0.166159	1.098841
H455	H	0.343031	-0.352898	0.580488
H456	H	0.843031	0.147102	1.080488
H457	H	0.343167	-0.363574	0.652994
H458	H	0.843167	0.136426	1.152994
O459	O	0.290131	-0.382783	0.650522
O460	O	0.790131	0.117217	1.150522
C461	C	0.219614	-0.307153	0.696575
C462	C	0.719614	0.192847	1.196575
C463	C	0.254022	-0.374224	0.706287
C464	C	0.754022	0.125776	1.206287
H465	H	0.190422	-0.300210	0.741652
H466	H	0.690422	0.199790	1.241652
H467	H	0.190296	-0.289532	0.669136
H468	H	0.690296	0.210468	1.169136
H469	H	0.252689	-0.282055	0.671740
H470	H	0.752689	0.217945	1.171740
H471	H	0.220990	-0.399371	0.731138
H472	H	0.720990	0.100629	1.231138
H473	H	0.283349	-0.391798	0.733701
H474	H	0.783349	0.108202	1.233701
O475	O	0.247562	-0.389461	0.587771
O476	O	0.747562	0.110539	1.087771
C477	C	0.295946	-0.382847	0.484336
C478	C	0.795946	0.117153	0.984336
C479	C	0.256455	-0.348510	0.529054
C480	C	0.756455	0.151490	1.029054
H481	H	0.303159	-0.349753	0.436854
H482	H	0.803159	0.150247	0.936854
H483	H	0.273056	-0.412091	0.491500
H484	H	0.773056	0.087909	0.991500
H485	H	0.340898	-0.412124	0.491555
H486	H	0.840898	0.087876	0.991555
H487	H	0.211496	-0.319201	0.521863
H488	H	0.711496	0.180799	1.021863
H489	H	0.279392	-0.319303	0.521880
H490	H	0.779392	0.180697	1.021880
O491	O	0.290204	-0.582090	0.726527
O492	O	0.790204	-0.082090	1.226527
C493	C	0.219652	-0.623811	0.817323
C494	C	0.719652	-0.123811	1.317323
C495	C	0.254019	-0.579651	0.784618
C496	C	0.754019	-0.079651	1.284618
H497	H	0.190378	-0.621845	0.864291
H498	H	0.690378	-0.121845	1.364291
H499	H	0.252700	-0.670988	0.820120
H500	H	0.752700	-0.170988	1.320120
H501	H	0.190402	-0.611261	0.791748
H502	H	0.690402	-0.111261	1.291748
H503	H	0.283269	-0.592146	0.810166
H504	H	0.783269	-0.092146	1.310166
H505	H	0.220938	-0.532485	0.781815
H506	H	0.720938	-0.032485	1.281815
H507	H	0.111630	-0.271286	0.741644
H508	H	0.611630	0.228714	1.241644
O509	O	0.206380	-0.266311	0.546816
O510	O	0.706380	0.233689	1.046816
C511	C	0.170419	-0.195703	0.464093
C512	C	0.670419	0.304297	0.964093
C513	C	0.153880	-0.230097	0.531684
C514	C	0.653880	0.269903	1.031684
H515	H	0.127983	-0.166407	0.451839
H516	H	0.627983	0.333593	0.951839
H517	H	0.199643	-0.228739	0.438600
H518	H	0.699643	0.271261	0.938600
H519	H	0.195882	-0.166469	0.451807
H520	H	0.695882	0.333531	0.951807
H521	H	0.128396	-0.259332	0.544025
H522	H	0.628396	0.240668	1.044025
H523	H	0.124684	-0.197029	0.557139
H524	H	0.624684	0.302971	1.057139
H525	H	0.149444	-0.384673	0.779411
H526	H	0.649444	0.115327	1.279411
