data_functionalizedCrystal
_audit_creation_method	'MofGen! by Chris Wilmer'
_symmetry_space_group_name_H-M	'P1'
_symmetry_Int_Tables_number	1
_symmetry_cell_setting	triclinic
loop_
_symmetry_equiv_pos_as_xyz
  x,y,z
_cell_length_a	11.792254
_cell_length_b	14.421503
_cell_length_c	11.792254
_cell_angle_alpha	90.005059
_cell_angle_beta	84.198598
_cell_angle_gamma	89.991560
loop_
_atom_site_label
_atom_site_type_symbol
_atom_site_fract_x
_atom_site_fract_y
_atom_site_fract_z
O1	O	1.506916	-0.077111	0.155618
O2	O	2.006916	0.422889	0.655618
O3	O	1.176577	-0.077113	0.171636
O4	O	1.676577	0.422887	0.671636
O5	O	1.349755	-0.077106	-0.001542
O6	O	1.849755	0.422894	0.498458
O7	O	1.333737	-0.077119	0.328796
O8	O	1.833737	0.422881	0.828796
O9	O	1.349724	0.077118	-0.001513
O10	O	1.849724	0.577118	0.498487
O11	O	1.176545	0.077110	0.171665
O12	O	1.676545	0.577110	0.671665
O13	O	1.506884	0.077112	0.155647
O14	O	2.006884	0.577112	0.655647
Cu15	Cu	1.341712	0.091193	0.163659
Cu16	Cu	1.841712	0.591193	0.663659
Cu17	Cu	1.341749	-0.091194	0.163624
Cu18	Cu	1.841749	0.408806	0.663624
O19	O	1.333706	0.077104	0.328825
O20	O	1.833706	0.577104	0.828825
C21	C	1.134271	-0.000002	0.170641
C22	C	1.634271	0.499998	0.670641
C23	C	1.008257	-0.000003	0.167621
C24	C	1.508257	0.499997	0.667621
C25	C	0.905921	-0.000006	0.165168
C26	C	1.405921	0.499994	0.665168
C27	C	0.777534	-0.000007	0.162099
C28	C	1.277534	0.499993	0.662099
N29	N	1.341694	0.219474	0.163682
N30	N	1.841694	0.719474	0.663682
C31	C	1.261597	0.469124	0.243729
C32	C	1.761597	0.969124	0.743729
C33	C	1.364291	0.530927	0.266396
C34	C	1.864291	1.030927	0.766396
C35	C	1.341717	0.408636	0.163659
C36	C	1.841717	0.908636	0.663659
C37	C	1.239046	0.530927	0.141023
C38	C	1.739046	1.030927	0.641023
C39	C	1.341731	0.591357	0.163640
C40	C	1.841731	1.091357	0.663640
C41	C	1.444464	0.469077	0.186377
C42	C	1.944464	0.969077	0.686377
C43	C	1.319151	0.469072	0.060960
C44	C	1.819151	0.969072	0.560960
C45	C	1.421919	0.530847	0.083584
C46	C	1.921919	1.030847	0.583584
C47	C	1.341708	0.303374	0.163674
C48	C	1.841708	0.803374	0.663674
C49	C	1.341753	0.696616	0.163625
C50	C	1.841753	1.196616	0.663625
C51	C	1.549190	-0.000001	0.156642
C52	C	2.049190	0.499999	0.656642
C53	C	1.675204	-0.000007	0.159662
C54	C	2.175204	0.499993	0.659662
C55	C	1.348730	0.000006	-0.043818
C56	C	1.848730	0.500006	0.456182
C57	C	1.345710	0.000005	-0.169832
C58	C	1.845710	0.500005	0.330168
N59	N	1.341757	0.780525	0.163613
N60	N	1.841757	1.280525	0.663613
C61	C	1.343256	0.000001	-0.272168
C62	C	1.843256	0.500001	0.227832
C63	C	1.340188	-0.000007	-0.400555
C64	C	1.840188	0.499993	0.099445
C65	C	1.334731	-0.000009	0.371102
C66	C	1.834731	0.499991	0.871102
C67	C	1.337751	-0.000014	0.497115
C68	C	1.837751	0.499986	0.997115
H69	H	1.383393	0.558095	0.353237
H70	H	1.883393	1.058095	0.853237
N71	N	1.553419	0.435132	0.210506
N72	N	2.053419	0.935132	0.710506
N73	N	1.570985	0.349769	0.214444
N74	N	2.070985	0.849769	0.714444
H75	H	1.647932	0.325792	0.231486
H76	H	2.147932	0.825792	0.731486
N77	N	1.507017	0.564659	-0.001356
N78	N	2.007017	1.064659	0.498644
N79	N	1.520328	0.649998	-0.015646
N80	N	2.020328	1.149998	0.484354
H81	H	1.580432	0.673883	-0.075628
H82	H	2.080432	1.173883	0.424372
N83	N	1.295140	0.434970	-0.047949
N84	N	1.795140	0.934970	0.452051
N85	N	1.202823	0.454752	-0.085689
N86	N	1.702823	0.954752	0.414311
H87	H	1.185853	0.430667	-0.162607
H88	H	1.685853	0.930667	0.337393
N89	N	1.130124	0.565030	0.117017
N90	N	1.630124	1.065030	0.617017
N91	N	1.073422	0.615749	0.187618
N92	N	1.573422	1.115749	0.687618
H93	H	0.996495	0.639835	0.170672
H94	H	1.496495	1.139835	0.670672
N95	N	1.176690	0.435134	0.328745
N96	N	1.676690	0.935134	0.828745
N97	N	1.181923	0.454986	0.431268
N98	N	1.681923	0.954986	0.931268
H99	H	1.121962	0.430981	0.491314
H100	H	1.621962	0.930981	0.991314
