data_functionalizedCrystal
_audit_creation_method	'MofGen! by Chris Wilmer'
_symmetry_space_group_name_H-M	'P1'
_symmetry_Int_Tables_number	1
_symmetry_cell_setting	triclinic
loop_
_symmetry_equiv_pos_as_xyz
  x,y,z
_cell_length_a	8.559649
_cell_length_b	8.559649
_cell_length_c	17.766277
_cell_angle_alpha	89.994756
_cell_angle_beta	89.990263
_cell_angle_gamma	69.778664
loop_
_atom_site_label
_atom_site_type_symbol
_atom_site_fract_x
_atom_site_fract_y
_atom_site_fract_z
O1	O	2.126892	-0.055034	-0.062592
O2	O	1.651407	0.028747	-0.062592
O3	O	1.931040	-0.250886	-0.062591
O4	O	1.847259	0.224599	-0.062593
O5	O	1.930998	-0.250893	0.062597
O6	O	1.651365	0.028740	0.062596
O7	O	2.126850	-0.055041	0.062597
Cu8	Cu	1.889104	-0.013151	0.074027
Cu9	Cu	1.889154	-0.013143	-0.074023
O10	O	1.847217	0.224592	0.062596
C11	C	1.591077	0.035093	0.000002
C12	C	1.411378	0.053992	0.000001
C13	C	1.937369	-0.311198	0.000002
C14	C	1.956268	-0.490898	-0.000002
C15	C	2.187180	-0.061387	0.000001
C16	C	2.366879	-0.080286	-0.000003
C17	C	1.840889	0.284904	0.000001
C18	C	1.821990	0.464604	0.000000
N19	N	1.889081	-0.013160	0.178158
N20	N	1.889191	-0.013148	-0.178153
C21	C	2.012931	-0.136932	0.217545
C22	C	2.012942	-0.136940	0.296347
C23	C	1.889113	-0.013151	0.335758
C24	C	1.765241	0.110632	0.296361
C25	C	1.765225	0.110627	0.217561
C26	C	1.849727	0.137204	0.460595
C27	C	1.849754	0.137210	0.539394
C28	C	1.889154	-0.013137	0.578804
C29	C	1.928562	-0.163499	0.539406
C30	C	1.928546	-0.163503	0.460606
C31	C	1.889117	-0.013133	0.421204
C32	C	2.013023	-0.136928	0.703638
C33	C	2.013022	-0.136937	0.782441
C34	C	1.765328	0.110648	0.782454
C35	C	1.765323	0.110644	0.703652
C36	C	1.889179	-0.013143	0.664249
H37	H	1.466268	-0.209714	-0.000003
H38	H	1.312000	0.183411	-0.000007
F39	F	1.807907	0.297224	0.418660
F40	F	1.652825	-0.405504	0.000002
F41	F	1.633401	0.242368	0.175640
F42	F	1.970508	-0.323523	0.581342
H43	H	2.085696	-0.590286	0.000004
H44	H	1.817677	0.259642	0.571466
H45	H	2.113779	-0.237729	0.185465
F46	F	2.144767	-0.268682	0.338273
H47	H	1.664416	0.211420	0.328454
F48	F	1.970472	-0.323523	0.418678
H49	H	2.113870	-0.237727	0.671554
H50	H	2.113873	-0.237735	0.814511
H51	H	1.664499	0.211434	0.814542
H52	H	1.664477	0.211436	0.671581
