data_functionalizedCrystal
_audit_creation_method	'MofGen! by Chris Wilmer'
_symmetry_space_group_name_H-M	'P1'
_symmetry_Int_Tables_number	1
_symmetry_cell_setting	triclinic
loop_
_symmetry_equiv_pos_as_xyz
  x,y,z
_cell_length_a	14.971486
_cell_length_b	14.971475
_cell_length_c	13.448316
_cell_angle_alpha	90.005879
_cell_angle_beta	89.993189
_cell_angle_gamma	96.388096
loop_
_atom_site_label
_atom_site_type_symbol
_atom_site_fract_x
_atom_site_fract_y
_atom_site_fract_z
O1	O	0.116518	-1.186953	-0.082672
O2	O	0.449852	-0.853620	0.250661
O3	O	0.783185	-0.520287	0.583995
O4	O	0.130487	-0.926552	-0.082679
O5	O	0.463821	-0.593219	0.250655
O6	O	0.797154	-0.259885	0.583988
O7	O	-0.006697	-1.063732	-0.082668
O8	O	0.326636	-0.730399	0.250665
O9	O	0.659969	-0.397065	0.583999
O10	O	0.253703	-1.049773	-0.082683
O11	O	0.587037	-0.716440	0.250651
O12	O	0.920370	-0.383107	0.583984
O13	O	-0.006706	-1.063715	0.082716
O14	O	0.326627	-0.730382	0.416049
O15	O	0.659961	-0.397048	0.749382
O16	O	0.130479	-0.926535	0.082705
O17	O	0.463812	-0.593201	0.416039
O18	O	0.797146	-0.259868	0.749372
O19	O	0.116510	-1.186936	0.082712
O20	O	0.449843	-0.853603	0.416045
O21	O	0.783177	-0.520269	0.749378
Cu22	Cu	0.123494	-1.056734	0.097809
Cu23	Cu	0.456827	-0.723401	0.431143
Cu24	Cu	0.790160	-0.390067	0.764476
Cu25	Cu	0.123504	-1.056754	-0.097776
Cu26	Cu	0.456837	-0.723421	0.235557
Cu27	Cu	0.790170	-0.390088	0.568891
O28	O	0.253695	-1.049756	0.082701
O29	O	0.587028	-0.716423	0.416035
O30	O	0.920361	-0.383089	0.749368
C31	C	0.129860	-0.893218	0.000013
C32	C	0.463194	-0.559885	0.333346
C33	C	0.796527	-0.226552	0.666679
C34	C	0.127993	-0.793921	0.000010
C35	C	0.461327	-0.460588	0.333344
C36	C	0.794660	-0.127254	0.666677
C37	C	0.127109	-0.747267	0.090162
C38	C	0.460443	-0.413933	0.423495
C39	C	0.793776	-0.080600	0.756828
C40	C	0.125341	-0.653968	0.090162
C41	C	0.458674	-0.320635	0.423496
C42	C	0.792008	0.012699	0.756829
C43	C	0.124463	-0.607324	0.000010
C44	C	0.457796	-0.273991	0.333344
C45	C	0.791130	0.059343	0.666677
C46	C	0.125344	-0.653985	-0.090148
C47	C	0.458678	-0.320652	0.243185
C48	C	0.792011	0.012681	0.576519
C49	C	0.127106	-0.747283	-0.090148
C50	C	0.460440	-0.413950	0.243186
C51	C	0.793773	-0.080616	0.576519
C52	C	0.121674	-0.459523	-0.090143
C53	C	0.455007	-0.126189	0.243191
C54	C	0.788341	0.207144	0.576524
C55	C	0.119914	-0.366218	-0.090144
C56	C	0.453247	-0.032885	0.243190
C57	C	0.786580	0.300449	0.576523
C58	C	0.119909	-0.366207	0.090167
C59	C	0.453242	-0.032874	0.423501
C60	C	0.786575	0.300459	0.756834
C61	C	0.121671	-0.459505	0.090168
C62	C	0.455004	-0.126172	0.423501
C63	C	0.788337	0.207161	0.756834
C64	C	0.122554	-0.506160	0.000009
C65	C	0.455887	-0.172826	0.333342
C66	C	0.789220	0.160507	0.666676
C67	C	-0.040026	-1.063099	0.000024
C68	C	0.293307	-0.729766	0.333357
C69	C	0.626640	-0.396433	0.666690
C70	C	-0.139323	-1.061228	0.000023
C71	C	0.194010	-0.727895	0.333356
C72	C	0.527343	-0.394562	0.666689
C73	C	-0.196552	-1.141818	0.000025
C74	C	0.136781	-0.808485	0.333359
C75	C	0.470115	-0.475151	0.666692
C76	C	-0.289851	-1.140055	0.000015
C77	C	0.043482	-0.806722	0.333349
C78	C	0.376815	-0.473388	0.666682
C79	C	-0.325920	-1.057701	0.000010
C80	C	0.007413	-0.724368	0.333343
C81	C	0.340746	-0.391035	0.666676
C82	C	-0.268685	-0.977106	0.000004
C83	C	0.064649	-0.643772	0.333337
C84	C	0.397982	-0.310439	0.666671
C85	C	-0.175387	-0.978870	0.000007
C86	C	0.157946	-0.645536	0.333340
C87	C	0.491280	-0.312203	0.666674
C88	C	-0.463147	-0.973434	0.000000
C89	C	-0.129814	-0.640101	0.333334
C90	C	0.203520	-0.306768	0.666667
C91	C	-0.556451	-0.971670	-0.000001
C92	C	-0.223118	-0.638337	0.333332
C93	C	0.110216	-0.305003	0.666666
C94	C	-0.577611	-1.134620	0.000009
C95	C	-0.244278	-0.801287	0.333342
C96	C	0.089056	-0.467953	0.666675
C97	C	-0.484314	-1.136384	0.000012
C98	C	-0.150980	-0.803051	0.333345
C99	C	0.182353	-0.469717	0.666678
C100	C	-0.427084	-1.055788	0.000008
C101	C	-0.093751	-0.722454	0.333341
C102	C	0.239582	-0.389121	0.666674
C103	C	0.287024	-1.050389	0.000007
C104	C	0.620357	-0.717056	0.333341
C105	C	0.953690	-0.383722	0.666674
C106	C	0.386321	-1.052260	0.000002
C107	C	0.719654	-0.718926	0.333335
C108	C	1.052987	-0.385593	0.666669
N109	N	0.123486	-1.056726	0.235374
N110	N	0.456819	-0.723393	0.568707
N111	N	0.790153	-0.390059	0.902040
C112	C	0.117144	-0.220269	0.000017
C113	C	0.450477	0.113065	0.333350
C114	C	0.783810	0.446398	0.666684
C115	C	0.119030	-0.319564	0.000008
C116	C	0.452363	0.013769	0.333341
C117	C	0.785696	0.347103	0.666675
N118	N	0.123504	-1.056769	-0.235340
N119	N	0.456838	-0.723436	0.097993
N120	N	0.790171	-0.390102	0.431326
C121	C	0.062766	-1.117488	0.287419
C122	C	0.396099	-0.784155	0.620752
C123	C	0.729432	-0.450822	0.954085
C124	C	0.062765	-1.117494	0.391522
C125	C	0.396098	-0.784161	0.724855
C126	C	0.729432	-0.450827	1.058189
C127	C	0.123490	-1.056741	0.443578
C128	C	0.456823	-0.723407	0.776912
C129	C	0.790156	-0.390074	1.110245
C130	C	0.184213	-0.995972	0.391526
C131	C	0.517546	-0.662639	0.724859
C132	C	0.850880	-0.329305	1.058193
C133	C	0.184209	-0.995963	0.287425
C134	C	0.517542	-0.662630	0.620758
C135	C	0.850875	-0.329296	0.954091
C136	C	0.184219	-0.995997	0.608506
C137	C	0.517552	-0.662664	0.941839
C138	C	0.850886	-0.329330	1.275173
C139	C	0.184225	-0.996007	0.712615
C140	C	0.517558	-0.662674	1.045948
C141	C	0.850891	-0.329340	1.379281
C142	C	0.062775	-1.117528	0.712603
C143	C	0.396109	-0.784195	1.045937
C144	C	0.729442	-0.450861	1.379270
C145	C	0.062771	-1.117519	0.608502
C146	C	0.396104	-0.784185	0.941835
C147	C	0.729438	-0.450852	1.275169
C148	C	0.123496	-1.056751	0.556457
C149	C	0.456829	-0.723417	0.889790
C150	C	0.790162	-0.390084	1.223124
H151	H	0.124606	-0.615988	0.163573
H152	H	0.457940	-0.282655	0.496906
H153	H	0.791273	0.050679	0.830240
H154	H	0.122393	-0.497506	-0.163560
H155	H	0.455726	-0.164172	0.169774
H156	H	0.789060	0.169161	0.503107
H157	H	0.119199	-0.328243	-0.163553
H158	H	0.452533	0.005090	0.169780
H159	H	0.785866	0.338424	0.503113
F160	F	0.124382	-0.604345	-0.186095
F161	F	0.457716	-0.271011	0.147238
F162	F	0.791049	0.062322	0.480572
H163	H	0.013321	-1.166970	0.433897
H164	H	0.346655	-0.833637	0.767230
H165	H	0.679988	-0.500304	1.100563
H166	H	0.122391	-0.497479	0.163578
H167	H	0.455725	-0.164146	0.496911
H168	H	0.789058	0.169187	0.830244
F169	F	-0.001863	-1.182156	0.232026
F170	F	0.331470	-0.848822	0.565360
F171	F	0.664804	-0.515489	0.898693
F172	F	0.118969	-0.316554	0.186122
F173	F	0.452303	0.016780	0.519455
F174	F	0.785636	0.350113	0.852789
H175	H	-0.585815	-0.904610	0.000011
H176	H	-0.252482	-0.571277	0.333344
H177	H	0.080852	-0.237944	0.666677
F178	F	-0.001853	-1.182183	0.553099
F179	F	0.331480	-0.848850	0.886433
F180	F	0.664814	-0.515516	1.219766
H181	H	0.127828	-0.785268	-0.163558
H182	H	0.461161	-0.451934	0.169775
H183	H	0.794494	-0.118601	0.503108
H184	H	0.233665	-0.946510	0.566134
H185	H	0.566998	-0.613177	0.899468
H186	H	0.900331	-0.279843	1.232801
H187	H	0.233672	-0.946535	0.754994
H188	H	0.567005	-0.613201	1.088327
H189	H	0.900339	-0.279868	1.421660
H190	H	0.233653	-0.946501	0.433916
H191	H	0.566987	-0.613168	0.767250
H192	H	0.900320	-0.279835	1.100583
H193	H	0.233652	-0.946483	0.245050
H194	H	0.566986	-0.613150	0.578384
H195	H	0.900319	-0.279816	0.911717
F196	F	-0.114480	-0.893095	0.000001
F197	F	0.218853	-0.559762	0.333334
F198	F	0.552187	-0.226428	0.666668
F199	F	-0.158173	-1.229472	0.000041
F200	F	0.175160	-0.896138	0.333374
F201	F	0.508493	-0.562805	0.666708
H202	H	-0.336444	-1.205679	0.000020
H203	H	-0.003110	-0.872346	0.333353
H204	H	0.330223	-0.539013	0.666686
H205	H	-0.454950	-1.203443	0.000023
H206	H	-0.121616	-0.870110	0.333357
H207	H	0.211717	-0.536777	0.666690
F208	F	-0.638520	-1.220397	0.000008
F209	F	-0.305186	-0.887064	0.333342
F210	F	0.028147	-0.553730	0.666675
F211	F	-0.402241	-0.887654	-0.000006
F212	F	-0.068907	-0.554321	0.333327
F213	F	0.264426	-0.220987	0.666661
F214	F	0.128050	-0.796899	0.186116
F215	F	0.461383	-0.463566	0.519449
F216	F	0.794717	-0.130233	0.852782
H217	H	0.013331	-1.167007	0.754985
H218	H	0.346664	-0.833673	1.088318
H219	H	0.679998	-0.500340	1.421651
F220	F	-0.307074	-0.889458	-0.000013
F221	F	0.026259	-0.556125	0.333320
F222	F	0.359592	-0.222791	0.666653
