data_functionalizedCrystal
_audit_creation_method	'MofGen! by Chris Wilmer'
_symmetry_space_group_name_H-M	'P1'
_symmetry_Int_Tables_number	1
_symmetry_cell_setting	triclinic
loop_
_symmetry_equiv_pos_as_xyz
  x,y,z
_cell_length_a	26.455835
_cell_length_b	26.455273
_cell_length_c	26.451828
_cell_angle_alpha	60.005170
_cell_angle_beta	60.010757
_cell_angle_gamma	59.993435
loop_
_atom_site_label
_atom_site_type_symbol
_atom_site_fract_x
_atom_site_fract_y
_atom_site_fract_z
O1	O	0.069940	-0.738516	0.617604
O2	O	0.026299	-0.574986	0.497618
O3	O	0.129847	-0.678463	0.497546
O4	O	-0.033607	-0.635040	0.617676
O5	O	0.164197	-0.644116	0.531822
O6	O	0.060649	-0.540639	0.531894
O7	O	0.104290	-0.704170	0.651880
Cu8	Cu	0.085606	-0.619268	0.595016
Cu9	Cu	0.044984	-0.659887	0.554481
O10	O	0.000742	-0.600693	0.651952
N11	N	0.114179	-0.590703	0.623530
N12	N	0.016416	-0.688458	0.525968
C13	C	0.157553	-0.547535	0.933368
C14	C	0.424104	-0.547506	0.666656
C15	C	0.157413	-0.547503	0.666729
C16	C	0.157397	-0.280846	0.666749
C17	C	0.200330	-0.409550	0.709625
C18	C	0.200339	-0.504608	0.709615
C19	C	0.224118	-0.480848	0.733375
C20	C	0.327800	-0.462984	0.678792
C21	C	0.392611	-0.484588	0.657175
C22	C	0.392630	-0.589450	0.697162
C23	C	0.327821	-0.567844	0.718781
C24	C	0.215955	-0.377135	0.645910
C25	C	0.194327	-0.312320	0.624323
C26	C	0.141457	-0.312339	0.730169
C27	C	0.163084	-0.377154	0.751756
C28	C	0.136618	-0.488954	0.725292
C29	C	0.115007	-0.510553	0.703686
C30	C	0.220833	-0.563461	0.650740
C31	C	0.242447	-0.541861	0.672339
C32	C	0.136680	-0.488971	0.837094
C33	C	0.115112	-0.510589	0.901907
C34	C	0.220969	-0.563508	0.901868
C35	C	0.242535	-0.541892	0.837053
C36	C	0.200389	-0.504622	0.804668
C37	C	0.295409	-0.504610	0.709593
C38	C	0.132990	-0.570876	1.004655
C39	C	0.495389	-0.570440	0.642547
C40	C	0.132802	-0.570856	0.643399
C41	C	0.133212	-0.209553	0.643833
C42	C	-0.097217	-0.706972	0.506986
C43	C	-0.002040	-0.707108	0.412067
C44	C	-0.002230	-0.802124	0.507163
C45	C	-0.002214	-0.707101	0.507221
C46	C	-0.025925	-0.730827	0.483360
N47	N	0.553723	-0.590712	0.623415
O48	O	0.751638	-0.596429	0.475603
O49	O	0.751819	-0.716773	0.638980
O50	O	0.751753	-0.716500	0.535361
O51	O	0.751705	-0.596703	0.579222
O52	O	0.648791	-0.682239	0.569747
O53	O	0.648858	-0.682512	0.673366
O54	O	0.648676	-0.562169	0.509989
Cu55	Cu	0.639366	-0.619212	0.594817
Cu56	Cu	0.761130	-0.659729	0.554152
O57	O	0.648743	-0.562442	0.613609
N58	N	0.846773	-0.688230	0.525548
N59	N	0.114157	-0.151217	0.623565
O60	O	-0.033591	0.046803	0.617717
O61	O	0.129795	0.046806	0.497390
O62	O	0.026157	0.046789	0.497680
O63	O	0.070046	0.046819	0.617427
O64	O	0.060509	-0.056181	0.532004
O65	O	0.164146	-0.056164	0.531714
O66	O	0.000760	-0.056167	0.652041
Cu67	Cu	0.085590	-0.065568	0.595012
Cu68	Cu	0.044965	0.056206	0.554419
O69	O	0.104397	-0.056151	0.651751
N70	N	0.016390	0.141855	0.525867
N71	N	0.114410	-0.590756	1.062992
O72	O	0.108565	-0.738494	1.260998
O73	O	-0.011747	-0.575059	1.261012
O74	O	-0.011470	-0.678679	1.260970
O75	O	0.108287	-0.634874	1.261040
O76	O	0.022849	-0.644347	1.158004
O77	O	0.022572	-0.540726	1.158046
O78	O	0.142884	-0.704162	1.158033
Cu79	Cu	0.085861	-0.619309	1.148638
Cu80	Cu	0.045275	-0.659911	1.270406
O81	O	0.142606	-0.600541	1.158074
N82	N	0.016726	-0.688471	1.356052
C83	C	0.039385	-0.537207	0.498225
C84	C	0.167616	-0.665350	0.498136
C85	C	0.091204	-0.741950	0.651272
C86	C	-0.037027	-0.613806	0.651361
C87	C	0.700360	-0.716215	0.676756
C88	C	0.700279	-0.715877	0.548436
C89	C	0.700133	-0.562725	0.472214
C90	C	0.700218	-0.563065	0.600533
C91	C	0.167511	-0.004552	0.497940
C92	C	0.039211	-0.004699	0.498341
C93	C	-0.036999	-0.004682	0.651449
C94	C	0.091344	-0.004663	0.651090
C95	C	-0.011156	-0.537302	1.209530
C96	C	-0.010806	-0.665617	1.209458
C97	C	0.142293	-0.741918	1.209514
C98	C	0.141950	-0.613596	1.209563
H99	H	0.102355	-0.458618	0.810728
O100	O	-0.055751	-0.676678	1.209408
C101	C	-0.109163	-0.623492	1.209372
H102	H	-0.108662	-0.593945	1.228913
H103	H	-0.152149	-0.637989	1.239213
H104	H	-0.109870	-0.595535	1.159961
H105	H	0.100526	-0.788925	0.688956
O106	O	0.424048	-0.444112	0.627160
C107	C	0.408170	-0.400104	0.573741
H108	H	0.390344	-0.420075	0.558851
H109	H	0.450778	-0.388239	0.534830
H110	H	0.370548	-0.356414	0.584344
O111	O	0.187282	-0.797957	1.209535
C112	C	0.165005	-0.836471	1.209491
H113	H	0.112272	-0.819696	1.228976
H114	H	0.183989	-0.886071	1.239377
H115	H	0.180742	-0.834789	1.160085
H116	H	0.100739	-0.004653	0.688708
O117	O	0.223577	-0.676295	0.453051
C118	C	0.223640	-0.623046	0.399711
H119	H	0.173998	-0.593557	0.400379
H120	H	0.251173	-0.637460	0.356667
H121	H	0.245800	-0.595063	0.398955
H122	H	-0.048928	-0.490363	1.209534
H123	H	-0.083922	-0.004684	0.689225
H124	H	-0.083976	-0.604550	0.689083
H125	H	0.700405	-0.753994	0.723681
O126	O	0.186779	-0.602309	1.209552
C127	C	0.164225	-0.541454	1.209581
H128	H	0.124483	-0.512153	1.190082
H129	H	0.202996	-0.520632	1.179699
H130	H	0.146959	-0.542366	1.258983
H131	H	0.214338	-0.004265	0.460069
O132	O	0.053200	-0.495295	0.933303
C133	C	0.020631	-0.457776	0.890817
H134	H	0.051526	-0.434215	0.844613
H135	H	-0.022615	-0.421104	0.909556
H136	H	0.006647	-0.487670	0.883927
H137	H	0.030065	-0.490230	0.460543
H138	H	0.700073	-0.524942	0.425295
O139	O	0.700270	-0.760698	0.537149
C140	C	0.700233	-0.738150	0.476295
H141	H	0.680699	-0.685414	0.460023
H142	H	0.670350	-0.757020	0.475412
H143	H	0.749619	-0.753782	0.444241
O144	O	0.700283	-0.518244	0.611773
C145	C	0.753641	-0.539542	0.626296
H146	H	0.771462	-0.592317	0.644054
H147	H	0.741664	-0.521657	0.663553
H148	H	0.790942	-0.521872	0.583026
O149	O	0.261935	-0.599788	0.933294
C150	C	0.299423	-0.654134	0.917426
H151	H	0.274387	-0.663151	0.899622
H152	H	0.309256	-0.694965	0.960037
H153	H	0.344939	-0.648234	0.879791
O154	O	0.304412	-0.556989	0.805488
C155	C	0.320056	-0.502530	0.768012
H156	H	0.277334	-0.461803	0.758319
H157	H	0.357625	-0.508323	0.722428
H158	H	0.337861	-0.493429	0.792984
O159	O	0.095689	-0.452676	0.761406
C160	C	0.058185	-0.398320	0.728701
H161	H	0.083189	-0.389300	0.676845
H162	H	0.048386	-0.357497	0.740304
H163	H	0.012652	-0.404208	0.742507
O164	O	0.053104	-0.495429	0.719019
C165	C	0.026222	-0.517598	0.783937
H166	H	0.063146	-0.557572	0.804810
H167	H	-0.011977	-0.534431	0.796350
H168	H	0.005760	-0.478721	0.803146
H169	H	0.255124	-0.593799	0.620395
H170	H	0.301449	-0.601745	0.743862
O171	O	0.304365	-0.557128	0.657061
C172	C	0.336898	-0.594618	0.619505
H173	H	0.306002	-0.618199	0.627792
H174	H	0.380181	-0.631274	0.631613
H175	H	0.350819	-0.564697	0.568744
H176	H	0.029814	-0.004702	0.460721
H177	H	0.301415	-0.411495	0.671309
O178	O	0.424025	-0.650899	0.706153
C179	C	0.381537	-0.683007	0.737960
H180	H	0.335344	-0.654735	0.764528
H181	H	0.400286	-0.729748	0.771785
H182	H	0.374625	-0.690502	0.703287
O183	O	0.252041	-0.408580	0.604965
C184	C	0.219293	-0.392727	0.567500
H185	H	0.167446	-0.374915	0.592542
H186	H	0.230885	-0.435349	0.557699
H187	H	0.233066	-0.355100	0.521965
O188	O	0.209395	-0.280800	0.562433
C189	C	0.154922	-0.243295	0.546792
H190	H	0.116003	-0.262835	0.583336
H191	H	0.163440	-0.242548	0.499741
H192	H	0.141276	-0.194177	0.544650
H193	H	0.150353	-0.403547	0.803641
O194	O	0.105266	-0.280961	0.771176
C195	C	0.096137	-0.323470	0.832044
H196	H	0.103382	-0.369672	0.831928
H197	H	0.046993	-0.304751	0.862832
H198	H	0.130652	-0.330360	0.850592
