data_functionalizedCrystal
_audit_creation_method	'MofGen! by Chris Wilmer'
_symmetry_space_group_name_H-M	'P1'
_symmetry_Int_Tables_number	1
_symmetry_cell_setting	triclinic
loop_
_symmetry_equiv_pos_as_xyz
  x,y,z
_cell_length_a	16.625548
_cell_length_b	21.295417
_cell_length_c	16.625539
_cell_angle_alpha	90.033373
_cell_angle_beta	90.020568
_cell_angle_gamma	90.031575
loop_
_atom_site_label
_atom_site_type_symbol
_atom_site_fract_x
_atom_site_fract_y
_atom_site_fract_z
Zn1	Zn	1.232635	-0.250590	0.455881
Zn2	Zn	1.232520	-0.355864	0.321036
Zn3	Zn	1.097797	-0.250614	0.321061
Zn4	Zn	1.097749	-0.355827	0.455826
O5	O	1.165175	-0.303224	0.388451
O6	O	1.345452	-0.264560	0.438006
O7	O	1.214620	-0.341927	0.208207
O8	O	1.115753	-0.162522	0.338979
O9	O	1.345367	-0.341904	0.338936
O10	O	1.214818	-0.162504	0.438030
O11	O	1.115640	-0.264601	0.208226
O12	O	0.984958	-0.264566	0.338926
O13	O	1.115670	-0.341842	0.568666
O14	O	0.984923	-0.341866	0.437937
O15	O	1.214771	-0.264525	0.568706
O16	O	1.214573	-0.443948	0.338883
O17	O	1.115558	-0.443922	0.437912
C18	C	0.955684	-0.303215	0.388429
C19	C	0.866063	-0.303226	0.388438
C20	C	0.537888	-0.303230	0.388473
C21	C	0.629196	-0.303227	0.388460
C22	C	0.701973	-0.303229	0.388455
C23	C	0.793287	-0.303225	0.388444
C24	C	1.165070	-0.466775	0.388407
C25	C	1.165098	-0.536744	0.388414
C26	C	1.216701	-0.569603	0.336903
C27	C	1.216739	-0.635346	0.336921
C28	C	1.165159	-0.668226	0.388442
C29	C	1.113552	-0.635359	0.439964
C30	C	1.113522	-0.569617	0.439950
N31	N	1.094624	-0.771493	0.394581
N32	N	1.094656	-0.833944	0.394590
C33	C	1.165250	-0.866301	0.388488
N34	N	1.235813	-0.833847	0.382362
N35	N	1.235780	-0.771389	0.382350
C36	C	1.165187	-0.739511	0.388463
C37	C	1.216898	-0.970446	0.336994
C38	C	1.216937	-1.036189	0.337017
C39	C	1.113743	-1.036201	0.440056
C40	C	1.113711	-0.970459	0.440037
C41	C	1.165288	-0.937585	0.388501
C42	C	1.375484	-0.303233	0.388474
C43	C	1.465105	-0.303237	0.388484
C44	C	1.165228	-0.303177	0.598760
C45	C	1.165250	-0.303157	0.688381
C46	C	1.165303	-0.139033	0.388514
C47	C	1.165358	-0.069065	0.388540
C48	C	1.165169	-0.303225	0.178960
C49	C	1.165303	-0.303068	0.089340
C50	C	1.165287	-0.303086	1.016557
C51	C	1.165275	-0.303108	0.925249
C52	C	1.165269	-0.303122	0.852472
C53	C	1.165256	-0.303143	0.761158
H54	H	1.258700	-0.542839	0.294941
H55	H	1.071688	-0.943703	0.481979
C56	C	1.273136	-1.071754	0.281136
C57	C	1.352874	-1.055640	0.298781
C58	C	1.404683	-1.088369	0.247313
H59	H	1.265920	-1.115632	0.288449
H60	H	1.261415	-1.060998	0.226936
H61	H	1.364591	-1.066400	0.352968
H62	H	1.360116	-1.011768	0.291463
H63	H	1.392962	-1.077613	0.193113
H64	H	1.397460	-1.132245	0.254630
H65	H	1.458790	-1.077436	0.259273
H66	H	1.258764	-0.662105	0.294974
C67	C	1.057520	-0.670941	0.495991
C68	C	1.012333	-0.628089	0.541116
C69	C	0.960717	-0.660843	0.592749
H70	H	1.022344	-0.696631	0.465211
H71	H	1.088339	-0.696531	0.531198
H72	H	0.981516	-0.602509	0.505914
H73	H	1.047488	-0.602397	0.571913
H74	H	0.991537	-0.686433	0.627956
H75	H	0.925547	-0.686532	0.561963
H76	H	0.930058	-0.631773	0.623378
C77	C	1.057623	-0.533904	0.495977
C78	C	1.103231	-0.496108	0.547701
C79	C	1.051764	-0.463205	0.599329
H80	H	1.022479	-0.508251	0.465187
H81	H	1.026923	-0.562879	0.526714
H82	H	1.133917	-0.467136	0.516966
H83	H	1.138372	-0.521744	0.578508
H84	H	1.021064	-0.492180	0.630067
H85	H	1.016623	-0.437556	0.568533
H86	H	1.082701	-0.437561	0.634435
H87	H	1.071750	-1.062972	0.482010
C88	C	1.272850	-0.934828	0.280918
C89	C	1.255360	-0.950894	0.201130
C90	C	1.306892	-0.918103	0.149452
H91	H	1.265487	-0.890959	0.288175
H92	H	1.327039	-0.945566	0.292723
H93	H	1.201185	-0.940152	0.189330
H94	H	1.262728	-0.994757	0.193848
H95	H	1.361081	-0.928840	0.161257
H96	H	1.299525	-0.874235	0.156716
H97	H	1.295038	-0.929003	0.095311
