data_functionalizedCrystal
_audit_creation_method	'MofGen! by Chris Wilmer'
_symmetry_space_group_name_H-M	'P1'
_symmetry_Int_Tables_number	1
_symmetry_cell_setting	triclinic
loop_
_symmetry_equiv_pos_as_xyz
  x,y,z
_cell_length_a	19.188930
_cell_length_b	10.268362
_cell_length_c	11.792241
_cell_angle_alpha	89.994572
_cell_angle_beta	83.669098
_cell_angle_gamma	89.981535
loop_
_atom_site_label
_atom_site_type_symbol
_atom_site_fract_x
_atom_site_fract_y
_atom_site_fract_z
O1	O	0.926947	-0.108720	0.141694
O2	O	1.260281	0.224614	0.475028
O3	O	1.593614	0.557947	0.808361
O4	O	0.723744	-0.108631	0.160769
O5	O	1.057077	0.224703	0.494102
O6	O	1.390411	0.558036	0.827436
O7	O	0.830277	-0.108668	-0.014013
O8	O	1.163610	0.224665	0.319321
O9	O	1.496944	0.557998	0.652654
O10	O	0.820415	-0.108682	0.316476
O11	O	1.153748	0.224651	0.649809
O12	O	1.487081	0.557985	0.983143
O13	O	0.830268	0.107932	-0.014020
O14	O	1.163601	0.441266	0.319314
O15	O	1.496934	0.774599	0.652647
O16	O	0.723735	0.107970	0.160762
O17	O	1.057068	0.441303	0.494095
O18	O	1.390401	0.774637	0.827428
O19	O	0.926938	0.107881	0.141687
O20	O	1.260271	0.441214	0.475021
O21	O	1.593605	0.774548	0.808354
Cu22	Cu	0.825336	0.127703	0.151224
Cu23	Cu	1.158669	0.461036	0.484557
Cu24	Cu	1.492002	0.794369	0.817891
Cu25	Cu	0.825347	-0.128453	0.151232
Cu26	Cu	1.158680	0.204881	0.484566
Cu27	Cu	1.492013	0.538214	0.817899
O28	O	0.820405	0.107919	0.316469
O29	O	1.153739	0.441252	0.649802
O30	O	1.487072	0.774585	0.983136
C31	C	0.697725	-0.000319	0.160148
C32	C	1.031058	0.333015	0.493481
C33	C	1.364392	0.666348	0.826814
C34	C	0.620210	-0.000285	0.158293
C35	C	0.953543	0.333049	0.491627
C36	C	1.286877	0.666382	0.824960
N37	N	0.825333	0.307869	0.151217
N38	N	1.158666	0.641202	0.484551
N39	N	1.492000	0.974535	0.817884
C40	C	0.829653	-0.000368	-0.056298
C41	C	1.162986	0.332965	0.277035
C42	C	1.496319	0.666299	0.610369
C43	C	0.827799	-0.000368	-0.182284
C44	C	1.161132	0.332965	0.151049
C45	C	1.494465	0.666298	0.484383
C46	C	0.575867	-0.000309	0.260849
C47	C	0.909200	0.333024	0.594183
C48	C	1.242534	0.666357	0.927516
C49	C	0.503033	-0.000324	0.259107
C50	C	0.836367	0.333010	0.592441
C51	C	1.169700	0.666343	0.925774
C52	C	0.474546	-0.000339	0.154803
C53	C	0.807879	0.332994	0.488137
C54	C	1.141213	0.666328	0.821470
C55	C	0.518899	-0.000307	0.052234
C56	C	0.852232	0.333026	0.385567
C57	C	1.185565	0.666360	0.718901
C58	C	0.591731	-0.000280	0.053979
C59	C	0.925064	0.333054	0.387312
C60	C	1.258397	0.666387	0.720646
N61	N	0.366117	-0.074107	0.075079
N62	N	0.699451	0.259226	0.408412
N63	N	1.032784	0.592560	0.741745
N64	N	0.296929	-0.074136	0.073428
N65	N	0.630263	0.259198	0.406761
N66	N	0.963596	0.592531	0.740095
C67	C	0.255107	-0.000419	0.149540
C68	C	0.588441	0.332915	0.482873
C69	C	0.921774	0.666248	0.816206
N70	N	0.285086	0.073312	0.227382
N71	N	0.618419	0.406645	0.560715
N72	N	0.951753	0.739979	0.894049
N73	N	0.354280	0.073335	0.229036
N74	N	0.687613	0.406668	0.562369
N75	N	1.020947	0.740001	0.895703
C76	C	0.395573	-0.000368	0.152900
C77	C	0.728906	0.332965	0.486233
C78	C	1.062239	0.666299	0.819567
C79	C	0.131789	-0.000457	0.250214
C80	C	0.465123	0.332876	0.583547
C81	C	0.798456	0.666210	0.916881
C82	C	0.058955	-0.000463	0.248468
C83	C	0.392288	0.332870	0.581801
C84	C	0.725621	0.666204	0.915134
C85	C	0.074822	-0.000460	0.041591
C86	C	0.408155	0.332874	0.374925
C87	C	0.741488	0.666207	0.708258
C88	C	0.147655	-0.000440	0.043341
C89	C	0.480988	0.332893	0.376674
C90	C	0.814321	0.666226	0.710007
C91	C	0.176134	-0.000445	0.147655
C92	C	0.509467	0.332888	0.480988
C93	C	0.842801	0.666221	0.814322
C94	C	0.952957	-0.000434	0.142309
C95	C	1.286291	0.332900	0.475642
C96	C	1.619624	0.666233	0.808975
C97	C	1.030472	-0.000477	0.144163
C98	C	1.363806	0.332857	0.477496
C99	C	1.697139	0.666190	0.810830
N100	N	0.825355	-0.308618	0.151230
N101	N	1.158688	0.024715	0.484563
N102	N	1.492021	0.358048	0.817897
C103	C	0.825343	0.573539	0.151230
C104	C	1.158676	0.906873	0.484563
C105	C	1.492010	1.240206	0.817897
C106	C	0.825335	0.425701	0.151226
C107	C	1.158669	0.759035	0.484560
C108	C	1.492002	1.092368	0.817893
C109	C	0.824389	-0.000389	-0.412945
C110	C	1.157722	0.332945	-0.079612
C111	C	1.491056	0.666278	0.253722
C112	C	0.826283	-0.000378	-0.284588
C113	C	1.159617	0.332956	0.048745
C114	C	1.492950	0.666289	0.382079
C115	C	0.821029	-0.000385	0.358754
C116	C	1.154363	0.332949	0.692087
C117	C	1.487696	0.666282	1.025421
C118	C	0.822884	-0.000393	0.484740
C119	C	1.156217	0.332941	0.818073
C120	C	1.489550	0.666274	1.151407
H121	H	0.599050	-0.000316	0.345790
H122	H	0.932383	0.333018	0.679124
H123	H	1.265716	0.666351	1.012457
H124	H	0.183760	-0.000427	-0.040172
H125	H	0.517093	0.332906	0.293161
H126	H	0.850427	0.666239	0.626495
H127	H	0.495700	-0.000338	-0.032691
H128	H	0.829033	0.332996	0.300642
H129	H	1.162366	0.666329	0.633976
H130	H	0.466922	-0.000340	0.342624
H131	H	0.800256	0.332993	0.675957
H132	H	1.133589	0.666327	1.009290
H133	H	0.154978	-0.000442	0.335153
H134	H	0.488311	0.332892	0.668486
H135	H	0.821645	0.666225	1.001820
H136	H	0.627836	-0.000260	-0.029537
H137	H	0.961169	0.333073	0.303796
H138	H	1.294502	0.666406	0.637129
H139	H	0.022850	-0.000476	0.331985
H140	H	0.356184	0.332858	0.665318
H141	H	0.689517	0.666191	0.998652
H142	H	0.051628	-0.000553	-0.043335
H143	H	0.384961	0.332780	0.289998
H144	H	0.718295	0.666113	0.623332
