data_functionalizedCrystal
_audit_creation_method	'MofGen! by Chris Wilmer'
_symmetry_space_group_name_H-M	'P1'
_symmetry_Int_Tables_number	1
_symmetry_cell_setting	triclinic
loop_
_symmetry_equiv_pos_as_xyz
  x,y,z
_cell_length_a	15.944551
_cell_length_b	10.654554
_cell_length_c	9.730223
_cell_angle_alpha	90.001137
_cell_angle_beta	89.997716
_cell_angle_gamma	83.992741
loop_
_atom_site_label
_atom_site_type_symbol
_atom_site_fract_x
_atom_site_fract_y
_atom_site_fract_z
O1	O	0.117991	1.666304	-0.114251
O2	O	0.617991	2.166304	0.385749
O3	O	0.129227	1.300681	-0.114263
O4	O	0.629227	1.800681	0.385737
O5	O	0.001392	1.493477	-0.114244
O6	O	0.501392	1.993477	0.385756
O7	O	0.245826	1.473508	-0.114269
O8	O	0.745826	1.973508	0.385731
O9	O	0.001395	1.493475	0.114336
O10	O	0.501395	1.993475	0.614336
O11	O	0.129230	1.300679	0.114317
O12	O	0.629230	1.800679	0.614317
O13	O	0.117994	1.666302	0.114329
O14	O	0.617994	2.166302	0.614329
Zn15	Zn	0.123613	1.483490	0.150615
Zn16	Zn	0.623613	1.983490	0.650615
Zn17	Zn	0.123608	1.483493	-0.150549
Zn18	Zn	0.623608	1.983493	0.349451
O19	O	0.245829	1.473506	0.114310
O20	O	0.745829	1.973506	0.614310
C21	C	0.128403	1.253893	0.000026
C22	C	0.628403	1.753893	0.500026
C23	C	0.125932	1.114482	0.000021
C24	C	0.625932	1.614482	0.500021
C25	C	0.198881	0.903029	0.000026
C26	C	0.698881	1.403029	0.500026
C27	C	0.201203	1.034021	0.000015
C28	C	0.701203	1.534021	0.500015
C29	C	0.048334	1.063945	0.000024
C30	C	0.548334	1.563945	0.500024
C31	C	0.046013	0.932956	0.000025
C32	C	0.546013	1.432956	0.500025
C33	C	0.274156	0.822574	0.000034
C34	C	0.774156	1.322574	0.500034
C35	C	0.351754	0.873101	0.000029
C36	C	0.851754	1.373101	0.500029
C37	C	0.354076	1.004092	0.000018
C38	C	0.854076	1.504092	0.500018
C39	C	0.278800	1.084557	0.000012
C40	C	0.778800	1.584557	0.500012
C41	C	-0.029905	1.492647	0.000046
C42	C	0.470095	1.992647	0.500046
C43	C	-0.123166	1.490161	0.000047
C44	C	0.376834	1.990161	0.500047
C45	C	-0.338750	1.364717	0.000024
C46	C	0.161250	1.864717	0.500024
C47	C	-0.399428	1.422968	0.112729
C48	C	0.100572	1.922968	0.612729
C49	C	-0.293918	1.485665	0.000036
C50	C	0.206082	1.985665	0.500036
C51	C	-0.399414	1.422999	-0.112633
C52	C	0.100586	1.922999	0.387367
C53	C	-0.458856	1.481313	0.000020
C54	C	0.041144	1.981313	0.500020
C55	C	-0.353367	1.543950	0.112835
C56	C	0.146633	2.043950	0.612835
C57	C	-0.353347	1.543963	-0.112628
C58	C	0.146653	2.043963	0.387372
C59	C	-0.414007	1.602302	0.000105
C60	C	0.085993	2.102302	0.500105
C61	C	-0.198901	1.488169	0.000047
C62	C	0.301099	1.988169	0.500047
C63	C	-0.553871	1.478819	0.000019
C64	C	-0.053871	1.978819	0.500019
C65	C	0.277126	1.474336	0.000017
C66	C	0.777126	1.974336	0.500017
C67	C	0.370387	1.476821	0.000008
C68	C	0.870387	1.976821	0.500008
C69	C	0.118818	1.713090	0.000038
C70	C	0.618818	2.213090	0.500038
C71	C	0.121289	1.852501	0.000033
C72	C	0.621289	2.352501	0.500033
N73	N	0.123615	1.483497	0.356152
N74	N	0.623615	1.983497	0.856152
N75	N	0.123599	1.483496	-0.356085
N76	N	0.623599	1.983496	0.143915
C77	C	0.067029	1.568889	0.428086
C78	C	0.567029	2.068889	0.928086
C79	C	0.067019	1.568886	0.571969
C80	C	0.567019	2.068886	1.071969
C81	C	0.180188	1.398095	0.571970
C82	C	0.680188	1.898095	1.071970
C83	C	0.180193	1.398093	0.428090
C84	C	0.680193	1.898093	0.928090
C85	C	0.010451	1.654293	0.356147
C86	C	0.510451	2.154293	0.856147
C87	C	-0.046139	1.739692	0.428082
C88	C	0.453861	2.239692	0.928082
C89	C	-0.046150	1.739689	0.571965
C90	C	0.453850	2.239689	1.071965
C91	C	0.010430	1.654286	0.643913
C92	C	0.510430	2.154286	1.143913
H93	H	-0.017169	0.891816	0.000029
H94	H	0.482831	1.391816	0.500029
H95	H	-0.333079	1.595062	0.208223
H96	H	0.166921	2.095062	0.708223
H97	H	-0.419789	1.371828	-0.207923
H98	H	0.080211	1.871828	0.292077
Cl99	Cl	-0.464306	1.757434	0.000203
Cl100	Cl	0.035694	2.257434	0.500203
H101	H	0.010455	1.654306	0.238991
H102	H	0.510455	2.154306	0.738991
H103	H	-0.012952	1.129469	0.000021
H104	H	0.487048	1.629469	0.500021
Cl105	Cl	-0.321808	1.622880	-0.259742
Cl106	Cl	0.178192	2.122880	0.240258
H107	H	0.413041	0.807579	0.000023
H108	H	0.913041	1.307579	0.500023
Cl109	Cl	-0.288224	1.209721	0.000183
Cl110	Cl	0.211776	1.709721	0.500183
Cl111	Cl	-0.117296	1.847036	0.662396
Cl112	Cl	0.382704	2.347036	1.162396
H113	H	0.226270	1.328558	0.369520
H114	H	0.726270	1.828558	0.869520
Cl115	Cl	-0.430931	1.343989	0.259836
Cl116	Cl	0.069069	1.843989	0.759836
Cl117	Cl	0.271242	0.657899	0.000054
Cl118	Cl	0.771242	1.157899	0.500054
Cl119	Cl	0.451626	1.067609	-0.000007
Cl120	Cl	0.951626	1.567609	0.499993
H121	H	-0.092210	1.809218	0.369494
H122	H	0.407790	2.309218	0.869494
H123	H	0.010411	1.654283	0.761073
H124	H	0.510411	2.154283	1.261073
H125	H	0.226254	1.328564	0.630560
H126	H	0.726254	1.828564	1.130560
H127	H	0.280697	1.191218	-0.000025
H128	H	0.780697	1.691218	0.499975
