data_functionalizedCrystal
_audit_creation_method	'MofGen! by Chris Wilmer'
_symmetry_space_group_name_H-M	'P1'
_symmetry_Int_Tables_number	1
_symmetry_cell_setting	triclinic
loop_
_symmetry_equiv_pos_as_xyz
  x,y,z
_cell_length_a	17.077404
_cell_length_b	16.120484
_cell_length_c	17.077396
_cell_angle_alpha	87.131254
_cell_angle_beta	90.018362
_cell_angle_gamma	92.923471
loop_
_atom_site_label
_atom_site_type_symbol
_atom_site_fract_x
_atom_site_fract_y
_atom_site_fract_z
Zn1	Zn	1.184192	-0.331952	0.459652
Zn2	Zn	1.177436	-0.471376	0.335036
Zn3	Zn	1.052923	-0.331976	0.328403
Zn4	Zn	1.046232	-0.471321	0.466259
O5	O	1.115196	-0.401656	0.397338
O6	O	1.293142	-0.350460	0.443132
O7	O	1.160892	-0.452917	0.224311
O8	O	1.075963	-0.215307	0.340273
O9	O	1.288179	-0.452894	0.351577
O10	O	1.172406	-0.215290	0.436700
O11	O	1.069413	-0.350500	0.219438
O12	O	0.942189	-0.350447	0.346680
O13	O	1.064560	-0.452800	0.575228
O14	O	0.937273	-0.452823	0.447962
O15	O	1.165918	-0.350407	0.570374
O16	O	1.154405	-0.588034	0.357984
O17	O	1.058009	-0.587994	0.454393
C18	C	0.911249	-0.401632	0.397319
C19	C	0.823999	-0.401642	0.397330
C20	C	0.785589	-0.348400	0.445084
C21	C	0.703608	-0.348405	0.445088
C22	C	0.660039	-0.401658	0.397342
C23	C	0.698454	-0.454903	0.349583
C24	C	0.780433	-0.454893	0.349575
C25	C	0.527583	-0.454922	0.349603
C26	C	0.445598	-0.454933	0.349611
C27	C	0.450758	-0.348434	0.445116
C28	C	0.532737	-0.348424	0.445108
C29	C	0.571147	-0.401670	0.397350
C30	C	1.104769	-0.618264	0.407642
C31	C	1.100380	-0.710930	0.412077
C32	C	1.092372	-0.880591	0.420190
C33	C	1.138160	-0.921881	0.374498
C34	C	1.133704	-1.016286	0.379012
C35	C	1.096827	-0.786177	0.415677
C36	C	1.319939	-0.401680	0.397357
C37	C	1.407188	-0.401691	0.397365
C38	C	1.115246	-0.401595	0.602079
C39	C	1.115268	-0.401568	0.689328
C40	C	1.125684	-0.184202	0.387010
C41	C	1.130154	-0.091537	0.382609
C42	C	1.115193	-0.401657	0.193390
C43	C	1.115335	-0.401448	0.106130
C44	C	1.168047	-0.348248	0.727791
C45	C	1.168058	-0.348220	0.809770
C46	C	1.115292	-0.401518	0.853285
C47	C	1.062507	-0.454841	0.814816
C48	C	1.062493	-0.454864	0.732838
C49	C	1.062541	-0.454791	0.985683
C50	C	1.062556	-0.454769	1.067667
C51	C	1.168106	-0.348147	1.062616
C52	C	1.168092	-0.348170	0.980638
C53	C	1.115307	-0.401494	0.942175
H54	H	0.672339	-0.305051	0.483976
H55	H	1.019542	-0.498234	0.850252
C56	C	1.005144	-0.512556	0.943882
C57	C	0.957078	-0.465371	0.894581
C58	C	0.904192	-0.518559	0.856073
H59	H	1.033323	-0.548911	0.913572
H60	H	0.973682	-0.544280	0.981518
H61	H	0.988536	-0.433661	0.856950
H62	H	0.928880	-0.429017	0.924872
H63	H	0.872730	-0.550283	0.893709
H64	H	0.932378	-0.554912	0.825767
H65	H	0.871568	-0.486552	0.822623
H66	H	0.558853	-0.498278	0.310711
C67	C	1.194838	-0.874591	0.317689
C68	C	1.176814	-0.895796	0.241006
C69	C	1.229010	-0.852255	0.188654
H70	H	1.190381	-0.816507	0.322040
H71	H	1.246932	-0.888771	0.329837
H72	H	1.124733	-0.881611	0.228861
H73	H	1.181275	-0.953873	0.236630
H74	H	1.281104	-0.866434	0.200802
H75	H	1.224550	-0.794173	0.193011
H76	H	1.216793	-0.866642	0.136619
H77	H	0.811705	-0.498248	0.310689
H78	H	0.662973	-0.498258	0.310703
H79	H	0.568210	-0.305066	0.483992
H80	H	0.410125	-0.498297	0.310733
H81	H	1.019507	-0.498275	0.701522
C82	C	1.035661	-0.928138	0.476782
C83	C	1.042443	-1.013677	0.470037
C84	C	0.990204	-1.057513	0.522146
H85	H	1.047715	-0.913972	0.528905
H86	H	0.983562	-0.914024	0.464571
H87	H	1.094529	-1.027785	0.482254
H88	H	1.030381	-1.027868	0.417926
H89	H	0.938105	-1.043400	0.509935
H90	H	1.002263	-1.043341	0.574266
H91	H	0.994793	-1.115556	0.517572
C92	C	0.833027	-0.290672	0.496899
C93	C	0.913042	-0.302072	0.486690
C94	C	0.956763	-0.248912	0.534416
H95	H	0.822374	-0.234609	0.482881
H96	H	0.819068	-0.302954	0.550225
H97	H	0.926997	-0.289784	0.433377
H98	H	0.923720	-0.358124	0.500714
H99	H	0.942803	-0.261194	0.587742
H100	H	0.946103	-0.192852	0.520394
H101	H	1.011057	-0.256645	0.527502
H102	H	1.211017	-0.304849	0.692367
C103	C	1.225453	-0.290300	0.851388
C104	C	1.271678	-0.243650	0.795735
C105	C	1.324568	-0.190291	0.834043
H106	H	1.197278	-0.253884	0.881636
H107	H	1.258162	-0.322171	0.884870
H108	H	1.238972	-0.211781	0.762265
H109	H	1.299869	-0.280044	0.765484
H110	H	1.357277	-0.222163	0.867526
H111	H	1.296386	-0.153881	0.864290
H112	H	1.355942	-0.158638	0.796289
H113	H	1.211062	-0.304775	0.945211
H114	H	1.211084	-0.304727	1.093937
H115	H	1.019588	-0.498167	1.103094
H116	H	0.419481	-0.305078	0.484001
