data_functionalizedCrystal
_audit_creation_method	'MofGen! by Chris Wilmer'
_symmetry_space_group_name_H-M	'P1'
_symmetry_Int_Tables_number	1
_symmetry_cell_setting	triclinic
loop_
_symmetry_equiv_pos_as_xyz
  x,y,z
_cell_length_a	14.853566
_cell_length_b	14.853559
_cell_length_c	13.330367
_cell_angle_alpha	89.997552
_cell_angle_beta	89.995295
_cell_angle_gamma	83.632934
loop_
_atom_site_label
_atom_site_type_symbol
_atom_site_fract_x
_atom_site_fract_y
_atom_site_fract_z
O1	O	1.196366	0.117699	-0.083352
O2	O	0.933906	0.131721	-0.083368
O3	O	1.072151	-0.006520	-0.083359
O4	O	1.058121	0.255940	-0.083362
O5	O	1.072131	-0.006523	0.083488
O6	O	0.933886	0.131718	0.083479
O7	O	1.196346	0.117696	0.083495
Cu8	Cu	1.065114	0.124707	0.098721
Cu9	Cu	1.065138	0.124710	-0.098595
O10	O	1.058101	0.255937	0.083485
C11	C	0.900307	0.131085	0.000053
C12	C	0.800223	0.129181	0.000047
C13	C	0.377050	0.121132	-0.090884
C14	C	0.377049	0.121129	0.091020
C15	C	0.471083	0.122917	0.091016
C16	C	0.518105	0.123813	0.000062
C17	C	0.471092	0.122922	-0.090890
C18	C	0.518102	0.123817	0.181966
C19	C	0.612141	0.125605	0.181967
C20	C	0.659165	0.126496	0.091011
C21	C	0.612147	0.125604	0.000056
C22	C	0.659168	0.126500	-0.090899
C23	C	0.612153	0.125602	-0.181855
C24	C	0.518116	0.123813	-0.181845
C25	C	0.753202	0.128285	0.091002
C26	C	0.753211	0.128290	-0.090904
C27	C	1.071506	-0.040111	0.000063
C28	C	1.069605	-0.140195	0.000057
C29	C	1.061553	-0.563368	-0.090892
C30	C	1.061531	-0.563366	0.091011
C31	C	1.063324	-0.469333	0.091012
C32	C	1.064230	-0.422313	0.000060
C33	C	1.063343	-0.469326	-0.090894
C34	C	1.064202	-0.422312	0.181964
C35	C	1.065994	-0.328273	0.181969
C36	C	1.066907	-0.281251	0.091015
C37	C	1.066021	-0.328270	0.000058
C38	C	1.066928	-0.281250	-0.090894
C39	C	1.066048	-0.328268	-0.181853
C40	C	1.064256	-0.422305	-0.181847
C41	C	1.068699	-0.187215	0.091010
C42	C	1.068718	-0.187208	-0.090896
C43	C	1.229945	0.118332	0.000071
C44	C	1.330028	0.120236	0.000071
C45	C	1.058745	0.289528	0.000062
C46	C	1.060646	0.389612	0.000061
N47	N	1.065104	0.124703	0.237503
N48	N	1.065155	0.124706	-0.237376
C49	C	1.003920	0.185900	0.710122
C50	C	1.126379	0.063514	0.710098
C51	C	1.126369	0.063511	0.605080
C52	C	1.065135	0.124704	0.552577
C53	C	1.003910	0.185900	0.605094
C54	C	1.187599	0.002322	0.552556
C55	C	1.187592	0.002318	0.447531
C56	C	1.126352	0.063507	0.395027
C57	C	1.065124	0.124705	0.447549
C58	C	1.003890	0.185899	0.395047
C59	C	0.942657	0.247093	0.447568
C60	C	0.942670	0.247090	0.552589
C61	C	1.126339	0.063510	0.290005
C62	C	1.003879	0.185900	0.290019
H63	H	0.338766	0.120397	-0.164938
H64	H	0.338758	0.120406	0.165071
C65	C	0.466419	0.122527	0.282005
H66	H	0.403694	0.121229	0.268980
H67	H	0.474912	0.175257	0.319593
H68	H	0.488767	0.070193	0.319158
C69	C	0.466399	0.122852	-0.281887
H70	H	0.507869	0.123640	-0.336059
H71	H	0.422912	0.174693	-0.285650
H72	H	0.436517	0.069623	-0.285678
H73	H	0.650414	0.126335	0.256029
C74	C	1.063277	-0.474024	-0.281889
H75	H	1.062069	-0.536761	-0.268859
H76	H	1.116104	-0.465430	-0.319263
H77	H	1.011035	-0.451797	-0.319257
H78	H	1.069395	-0.148934	0.165066
C79	C	0.663878	0.126593	-0.281901
H80	H	0.622413	0.125808	-0.336071
H81	H	0.707380	0.074765	-0.285680
H82	H	0.693742	0.179834	-0.285678
C83	C	1.066965	-0.276557	0.282014
H84	H	1.068156	-0.213817	0.268989
H85	H	1.119195	-0.298782	0.319391
H86	H	1.014126	-0.285155	0.319376
H87	H	0.791477	0.129025	0.165057
H88	H	1.066779	-0.289971	-0.255906
H89	H	0.892803	0.296921	0.404808
H90	H	1.069461	-0.148931	-0.164962
C91	C	1.060581	-0.615081	-0.190938
H92	H	1.059380	-0.677821	-0.177916
H93	H	1.113409	-0.606477	-0.228307
H94	H	1.008339	-0.592857	-0.228307
C95	C	1.060537	-0.615086	0.191050
H96	H	1.059349	-0.677825	0.178025
H97	H	1.008299	-0.592864	0.228424
H98	H	1.113368	-0.606490	0.228416
H99	H	1.063459	-0.460602	0.256013
C100	C	0.936572	0.253211	0.767888
H101	H	0.945348	0.244453	0.837955
H102	H	0.876394	0.243312	0.750685
H103	H	0.946440	0.313401	0.750671
C104	C	0.936521	0.253215	0.232274
H105	H	0.900064	0.289661	0.278597
H106	H	0.898955	0.220718	0.191309
H107	H	0.968997	0.290811	0.191303
H108	H	1.237459	-0.047495	0.595306
C109	C	1.193732	-0.003792	0.767847
H110	H	1.184966	0.004969	0.837916
H111	H	1.253908	0.006104	0.750621
H112	H	1.183861	-0.063983	0.750644
H113	H	0.892818	0.296913	0.595358
H114	H	1.237449	-0.047510	0.404775
C115	C	0.804931	0.129278	-0.190954
H116	H	0.867671	0.130469	-0.177934
H117	H	0.782706	0.181514	-0.228326
H118	H	0.796336	0.076445	-0.228319
H119	H	1.176197	0.013691	0.247248
