data_functionalizedCrystal
_audit_creation_method	'MofGen! by Chris Wilmer'
_symmetry_space_group_name_H-M	'P1'
_symmetry_Int_Tables_number	1
_symmetry_cell_setting	triclinic
loop_
_symmetry_equiv_pos_as_xyz
  x,y,z
_cell_length_a	25.639243
_cell_length_b	25.639239
_cell_length_c	12.594509
_cell_angle_alpha	90.034128
_cell_angle_beta	90.023577
_cell_angle_gamma	90.041410
loop_
_atom_site_label
_atom_site_type_symbol
_atom_site_fract_x
_atom_site_fract_y
_atom_site_fract_z
Zn1	Zn	0.799264	-0.208097	0.601880
Zn2	Zn	1.299264	0.291903	1.101880
Zn3	Zn	0.799176	-0.295539	0.423883
Zn4	Zn	1.299176	0.204461	0.923883
Zn5	Zn	0.711829	-0.208124	0.423902
Zn6	Zn	1.211829	0.291876	0.923902
Zn7	Zn	0.711786	-0.295507	0.601806
Zn8	Zn	1.211786	0.204493	1.101806
O9	O	0.755514	-0.251817	0.512868
O10	O	1.255514	0.248183	1.012868
O11	O	0.872418	-0.219699	0.578292
O12	O	1.372418	0.280301	1.078292
O13	O	0.787571	-0.283968	0.274940
O14	O	1.287571	0.216032	0.774940
O15	O	0.723483	-0.134955	0.447550
O16	O	1.223483	0.365045	0.947550
O17	O	0.872353	-0.283942	0.447518
O18	O	1.372353	0.216058	0.947518
O19	O	0.787721	-0.134935	0.578310
O20	O	1.287721	0.365065	1.078310
O21	O	0.723397	-0.219744	0.274954
O22	O	1.223397	0.280256	0.774954
O23	O	0.638658	-0.219713	0.447478
O24	O	1.138658	0.280287	0.947478
O25	O	0.723409	-0.283888	0.750762
O26	O	1.223409	0.216112	1.250762
O27	O	0.638626	-0.283914	0.578184
O28	O	1.138626	0.216086	1.078184
O29	O	0.787679	-0.219668	0.750816
O30	O	1.287679	0.280332	1.250816
O31	O	0.787529	-0.368700	0.447447
O32	O	1.287529	0.131300	0.947447
O33	O	0.723323	-0.368677	0.578166
O34	O	1.223323	0.131323	1.078166
C35	C	0.619671	-0.251813	0.512826
C36	C	1.119671	0.248187	1.012826
C37	C	0.561557	-0.251824	0.512833
C38	C	1.061557	0.248176	1.012833
C39	C	0.201222	-0.218418	0.581075
C40	C	0.701222	0.281582	1.081075
C41	C	0.146618	-0.218417	0.581082
C42	C	0.646618	0.281583	1.081082
O43	O	0.118405	-0.190004	0.639052
O44	O	0.618405	0.309996	1.139052
N45	N	0.119275	-0.251815	0.512897
N46	N	0.619275	0.248185	1.012897
C47	C	0.146539	-0.285212	0.444694
C48	C	0.646539	0.214788	0.944694
O49	O	0.118267	-0.313619	0.386698
O50	O	0.618267	0.186381	0.886698
C51	C	0.201142	-0.285210	0.444683
C52	C	0.701142	0.214790	0.944683
C53	C	0.228482	-0.251813	0.512880
C54	C	0.728482	0.248187	1.012880
C55	C	0.228563	-0.185024	0.649266
C56	C	0.728563	0.314976	1.149266
C57	C	0.283163	-0.185025	0.649260
C58	C	0.783163	0.314975	1.149260
C59	C	0.310423	-0.218420	0.581064
C60	C	0.810423	0.281580	1.081064
C61	C	0.283083	-0.251814	0.512874
C62	C	0.783083	0.248186	1.012874
C63	C	0.228405	-0.318603	0.376475
C64	C	0.728405	0.181397	0.876475
C65	C	0.283012	-0.318598	0.376469
C66	C	0.783012	0.181402	0.876469
C67	C	0.310352	-0.285201	0.444666
C68	C	0.810352	0.214799	0.944666
C69	C	0.364944	-0.285211	0.444673
C70	C	0.864944	0.214789	0.944673
N71	N	0.392287	-0.251813	0.512857
N72	N	0.892287	0.248187	1.012857
C73	C	0.365027	-0.218418	0.581053
C74	C	0.865027	0.281582	1.081053
C75	C	0.031868	-0.285214	0.444721
C76	C	0.531868	0.214786	0.944721
C77	C	-0.022734	-0.285220	0.444737
C78	C	0.477266	0.214780	0.944737
C79	C	-0.022651	-0.218424	0.581124
C80	C	0.477349	0.281576	1.081124
C81	C	0.031952	-0.218422	0.581113
C82	C	0.531952	0.281578	1.081113
C83	C	0.059211	-0.251816	0.512906
C84	C	0.559211	0.248184	1.012906
C85	C	0.479692	-0.218423	0.581037
C86	C	0.979692	0.281577	1.081037
C87	C	0.534297	-0.218429	0.581029
C88	C	1.034297	0.281571	1.081029
C89	C	0.534209	-0.285222	0.444639
C90	C	1.034209	0.214778	0.944639
C91	C	0.479609	-0.285219	0.444650
C92	C	0.979609	0.214781	0.944650
C93	C	0.452351	-0.251815	0.512853
C94	C	0.952351	0.248185	1.012853
O95	O	0.393191	-0.313608	0.386730
O96	O	0.893191	0.186392	0.886730
O97	O	0.393305	-0.190011	0.639030
O98	O	0.893305	0.309989	1.139030
C99	C	0.755426	-0.387659	0.512819
C100	C	1.255426	0.112341	1.012819
C101	C	0.755436	-0.445774	0.512834
C102	C	1.255436	0.054226	1.012834
C103	C	0.789033	-0.806136	0.444919
C104	C	1.289033	-0.306136	0.944919
C105	C	0.789053	-0.860740	0.444933
C106	C	1.289053	-0.360740	0.944933
O107	O	0.817527	-0.888977	0.387135
O108	O	1.317527	-0.388977	0.887135
N109	N	0.755606	-0.888056	0.512939
N110	N	1.255606	-0.388056	1.012939
C111	C	0.722140	-0.860764	0.580942
C112	C	1.222140	-0.360764	1.080942
O113	O	0.693692	-0.889012	0.638789
O114	O	1.193692	-0.389012	1.138789
C115	C	0.722123	-0.806161	0.580933
C116	C	1.222123	-0.306161	1.080933
C117	C	0.755568	-0.778848	0.512915
C118	C	1.255568	-0.278848	1.012915
C119	C	0.822476	-0.778823	0.376907
C120	C	1.322476	-0.278823	0.876907
C121	C	0.822455	-0.724223	0.376892
C122	C	1.322455	-0.224223	0.876892
C123	C	0.788991	-0.696935	0.444888
C124	C	1.288991	-0.196935	0.944888
C125	C	0.755547	-0.724248	0.512899
C126	C	1.255547	-0.224248	1.012899
C127	C	0.688659	-0.778870	0.648941
C128	C	1.188659	-0.278870	1.148941
C129	C	0.688645	-0.724263	0.648926
C130	C	1.188645	-0.224263	1.148926
C131	C	0.722091	-0.696951	0.580908
C132	C	1.222091	-0.196951	1.080908
C133	C	0.722062	-0.642359	0.580880
C134	C	1.222062	-0.142359	1.080880
N135	N	0.755509	-0.615044	0.512874
N136	N	1.255509	-0.115044	1.012874
C137	C	0.788973	-0.642332	0.444878
C138	C	1.288973	-0.142332	0.944878
C139	C	0.722179	-0.975435	0.580959
C140	C	1.222179	-0.475435	1.080959
C141	C	0.722193	-1.030037	0.580964
C142	C	1.222193	-0.530037	1.080964
C143	C	0.789108	-1.030010	0.444955
C144	C	1.289108	-0.530010	0.944955
C145	C	0.789090	-0.975406	0.444946
C146	C	1.289090	-0.475406	0.944946
C147	C	0.755626	-0.948119	0.512953
C148	C	1.255626	-0.448119	1.012953
C149	C	0.788926	-0.527667	0.444850
C150	C	1.288926	-0.027667	0.944850
C151	C	0.788901	-0.473061	0.444838
C152	C	1.288901	0.026939	0.944838
C153	C	0.721989	-0.473094	0.580850
C154	C	1.221989	0.026906	1.080850
C155	C	0.722012	-0.527694	0.580859
C156	C	1.222012	-0.027694	1.080859
C157	C	0.755485	-0.554979	0.512856
C158	C	1.255485	-0.054979	1.012856
O159	O	0.693604	-0.614088	0.638651
O160	O	1.193604	-0.114088	1.138651
O161	O	0.817421	-0.614077	0.387052
O162	O	1.317421	-0.114077	0.887052
C163	C	0.891887	-0.251821	0.512911
C164	C	1.391887	0.248179	1.012911
C165	C	0.950001	-0.251823	0.512929
C166	C	1.450001	0.248177	1.012929
C167	C	0.755549	-0.251771	0.790489
C168	C	1.255549	0.248229	1.290489
C169	C	0.755564	-0.251752	0.908795
C170	C	1.255564	0.248248	1.408795
C171	C	0.755616	-0.115444	0.512940
C172	C	1.255616	0.384556	1.012940
C173	C	0.755660	-0.057330	0.512971
C174	C	1.255660	0.442670	1.012971
C175	C	0.755509	-0.251825	0.236327
C176	C	1.255509	0.248175	0.736327
C177	C	0.755596	-0.251697	0.118022
C178	C	1.255596	0.248303	0.618022
C179	C	0.720618	-0.286661	0.978018
C180	C	1.220618	0.213339	1.478018
C181	C	0.768321	-0.299433	1.048810
C182	C	1.268321	0.200567	1.548810
C183	C	0.707899	-0.238948	1.048802
C184	C	1.207899	0.261052	1.548802
C185	C	0.803291	-0.264549	0.978028
C186	C	1.303291	0.235451	1.478028
C187	C	0.742837	-0.204041	0.978014
C188	C	1.242837	0.295959	1.478014
C189	C	0.790572	-0.216795	1.048774
C190	C	1.290572	0.283205	1.548774
H191	H	0.054059	-0.312413	0.389182
H192	H	0.554059	0.187587	0.889182
H193	H	0.816358	-1.052237	0.389593
H194	H	1.316358	-0.552237	0.889593
N195	N	-0.052218	-0.321241	0.371181
N196	N	0.447782	0.178759	0.871181
H197	H	-0.090947	-0.316177	0.381524
H198	H	0.409053	0.183823	0.881524
H199	H	-0.042696	-0.358592	0.387608
H200	H	0.457304	0.141408	0.887608
H201	H	0.843626	-0.275402	0.947070
H202	H	1.343626	0.224598	1.447070
N203	N	0.829777	-0.177665	1.089695
N204	N	1.329777	0.322335	1.589695
H205	H	0.865763	-0.187385	1.063817
H206	H	1.365763	0.312615	1.563817
H207	H	0.829311	-0.177667	1.169880
H208	H	1.329311	0.322333	1.669880
N209	N	0.728538	-0.150645	0.936773
N210	N	1.228538	0.349355	1.436773
H211	H	0.692494	-0.141025	0.962467
H212	H	1.192494	0.358975	1.462467
H213	H	0.729001	-0.151026	0.856592
H214	H	1.229001	0.348974	1.356592
H215	H	0.849691	-0.701988	0.321509
H216	H	1.349691	-0.201988	0.821509
H217	H	0.816184	-0.549876	0.389478
H218	H	1.316184	-0.049876	0.889478
H219	H	0.667575	-0.228141	1.079891
H220	H	1.167575	0.271859	1.579891
H221	H	0.556555	-0.191233	0.636567
H222	H	1.056555	0.308767	1.136567
H223	H	0.661396	-0.702049	0.704309
H224	H	1.161396	-0.202049	1.204309
N225	N	0.686119	-1.059496	0.654318
N226	N	1.186119	-0.559496	1.154318
H227	H	0.661908	-1.082192	0.611023
H228	H	1.161908	-0.582192	1.111023
H229	H	0.664952	-1.033887	0.697375
H230	H	1.164952	-0.533887	1.197375
H231	H	0.849730	-0.801035	0.321536
H232	H	1.349730	-0.301035	0.821536
N233	N	0.686080	-0.946006	0.654305
N234	N	1.186080	-0.446006	1.154305
H235	H	0.664895	-0.971599	0.697381
H236	H	1.164895	-0.471599	1.197381
H237	H	0.661887	-0.923392	0.610927
H238	H	1.161887	-0.423392	1.110927
N239	N	0.312409	-0.354617	0.302896
N240	N	0.812409	0.145383	0.802896
H241	H	0.302882	-0.391984	0.319286
H242	H	0.802882	0.108016	0.819286
H243	H	0.351140	-0.349508	0.313264
H244	H	0.851140	0.150492	0.813264
H245	H	0.816325	-0.953171	0.389560
H246	H	1.316325	-0.453171	0.889560
H247	H	0.556414	-0.312413	0.389117
H248	H	1.056414	0.187587	0.889117
N249	N	0.450297	-0.182394	0.654592
N250	N	0.950297	0.317606	1.154592
H251	H	0.475910	-0.161242	0.697784
H252	H	0.975910	0.338758	1.197784
H253	H	0.427638	-0.203702	0.703778
H254	H	0.927638	0.296298	1.203778
N255	N	0.681508	-0.325826	0.936853
N256	N	1.181508	0.174174	1.436853
H257	H	0.681538	-0.325334	0.856667
H258	H	1.181538	0.174666	1.356667
H259	H	0.645598	-0.316523	0.963777
H260	H	1.145598	0.183477	1.463777
H261	H	0.206154	-0.345798	0.320941
H262	H	0.706154	0.154202	0.820941
H263	H	0.816136	-0.450825	0.389446
H264	H	1.316136	0.049175	0.889446
H265	H	0.661422	-0.801099	0.704323
H266	H	1.161422	-0.301099	1.204323
H267	H	0.305419	-0.157829	0.704792
H268	H	0.805419	0.342171	1.204792
N269	N	0.685934	-0.557157	0.654206
N270	N	1.185934	-0.057157	1.154206
H271	H	0.664730	-0.531582	0.697276
H272	H	1.164730	-0.031582	1.197276
H273	H	0.707213	-0.579768	0.703515
H274	H	1.207213	-0.079768	1.203515
H275	H	0.054209	-0.191226	0.636642
H276	H	0.554209	0.308774	1.136642
N277	N	0.199166	-0.148996	0.722815
N278	N	0.699166	0.351004	1.222815
H279	H	0.224780	-0.127842	0.766000
H280	H	0.724780	0.372158	1.266000
H281	H	0.176508	-0.170303	0.772006
H282	H	0.676508	0.329697	1.272006
H283	H	0.779103	-0.339758	1.079907
H284	H	1.279103	0.160242	1.579907
N285	N	-0.052058	-0.182403	0.654681
N286	N	0.447942	0.317597	1.154681
H287	H	-0.090797	-0.187474	0.644331
H288	H	0.409203	0.312526	1.144331
H289	H	-0.042494	-0.145052	0.638249
H290	H	0.457506	0.354948	1.138249
H291	H	0.694741	-0.450867	0.636208
H292	H	1.194741	0.049133	1.136208
N293	N	0.450116	-0.321245	0.371113
N294	N	0.950116	0.178755	0.871113
H295	H	0.475673	-0.342403	0.327915
H296	H	0.975673	0.157597	0.827915
H297	H	0.427468	-0.299933	0.321932
H298	H	0.927468	0.200067	0.821932
