data_functionalizedCrystal
_audit_creation_method	'MofGen! by Chris Wilmer'
_symmetry_space_group_name_H-M	'P1'
_symmetry_Int_Tables_number	1
_symmetry_cell_setting	triclinic
loop_
_symmetry_equiv_pos_as_xyz
  x,y,z
_cell_length_a	18.101398
_cell_length_b	18.101397
_cell_length_c	16.625539
_cell_angle_alpha	89.968146
_cell_angle_beta	89.973613
_cell_angle_gamma	90.018196
loop_
_atom_site_label
_atom_site_type_symbol
_atom_site_fract_x
_atom_site_fract_y
_atom_site_fract_z
Zn1	Zn	1.132187	-0.294873	-0.456015
Zn2	Zn	1.132103	-0.418722	-0.321173
Zn3	Zn	1.008343	-0.294894	-0.321181
Zn4	Zn	1.008320	-0.418672	-0.455950
O5	O	1.070238	-0.356790	-0.388580
O6	O	1.235809	-0.311314	-0.438151
O7	O	1.115660	-0.402326	-0.208342
O8	O	1.024816	-0.191258	-0.339098
O9	O	1.235747	-0.402305	-0.339084
O10	O	1.115804	-0.191243	-0.438159
O11	O	1.024734	-0.311350	-0.208348
O12	O	0.904707	-0.311301	-0.339035
O13	O	1.024777	-0.402221	-0.568791
O14	O	0.904690	-0.402241	-0.438049
O15	O	1.115782	-0.311266	-0.568838
O16	O	1.115638	-0.522348	-0.339021
O17	O	1.024695	-0.522312	-0.438041
C18	C	0.877828	-0.356769	-0.388536
C19	C	0.795514	-0.356777	-0.388536
C20	C	0.644805	-0.356792	-0.388573
C21	C	0.613437	-0.299494	-0.326380
C22	C	0.527819	-0.299278	-0.326584
C23	C	0.496423	-0.356807	-0.388607
C24	C	0.527561	-0.335973	-0.473679
C25	C	0.613206	-0.335549	-0.473300
C26	C	0.613215	-0.435073	-0.366443
C27	C	0.527564	-0.434661	-0.364590
C28	C	0.412563	-0.356817	-0.388632
C29	C	0.728665	-0.356781	-0.388554
C30	C	1.070175	-0.549201	-0.388541
C31	C	1.070216	-0.631515	-0.388551
C32	C	1.070310	-0.930606	-0.388625
C33	C	1.127369	-0.899273	-0.326157
C34	C	1.127567	-0.813654	-0.326319
C35	C	1.070263	-0.782223	-0.388587
C36	C	1.091421	-0.813230	-0.473580
C37	C	1.091863	-0.898875	-0.473240
C38	C	0.991941	-0.899112	-0.366835
C39	C	0.992328	-0.813463	-0.364938
C40	C	1.070235	-0.698364	-0.388572
C41	C	1.070340	-1.014465	-0.388646
C42	C	1.263400	-0.356813	-0.388624
C43	C	1.345714	-0.356822	-0.388643
C44	C	1.070286	-0.356735	-0.598889
C45	C	1.070307	-0.356712	-0.688510
C46	C	1.070322	-0.163628	-0.388637
C47	C	1.070358	-0.081314	-0.388661
C48	C	1.070341	-0.356629	-1.016686
C49	C	1.070330	-0.356654	-0.925377
C50	C	1.070324	-0.356671	-0.852601
C51	C	1.070312	-0.356695	-0.761286
C52	C	1.070233	-0.356792	-0.179089
C53	C	1.070356	-0.356607	-0.089468
H54	H	0.507229	-0.376436	-0.521301
F55	F	0.971470	-0.786981	-0.283186
H56	H	1.185104	-0.920743	-0.340409
F57	F	0.500294	-0.316261	-0.244146
F58	F	1.039895	-0.925965	-0.536143
F59	F	0.639342	-0.260770	-0.497748
H60	H	1.149147	-0.918796	-0.491696
F61	F	0.640310	-0.316270	-0.243672
H62	H	0.633499	-0.477759	-0.411742
H63	H	0.949427	-0.919375	-0.412332
H64	H	1.114330	-0.792694	-0.263299
F65	F	0.501056	-0.223466	-0.345789
H66	H	0.507209	-0.450376	-0.301980
H67	H	0.634778	-0.454098	-0.305444
H68	H	0.506185	-0.479615	-0.406555
H69	H	0.947527	-0.792075	-0.407103
H70	H	0.972693	-0.920773	-0.305933
F71	F	0.641586	-0.224105	-0.345335
F72	F	1.203444	-0.786802	-0.345168
F73	F	0.640336	-0.387748	-0.535963
F74	F	1.110281	-0.926259	-0.243537
F75	F	1.038758	-0.786624	-0.536052
H76	H	1.148064	-0.791724	-0.492348
H77	H	0.506131	-0.279395	-0.492713
