data_functionalizedCrystal
_audit_creation_method	'MofGen! by Chris Wilmer'
_symmetry_space_group_name_H-M	'P1'
_symmetry_Int_Tables_number	1
_symmetry_cell_setting	triclinic
loop_
_symmetry_equiv_pos_as_xyz
  x,y,z
_cell_length_a	19.077105
_cell_length_b	29.839131
_cell_length_c	19.077569
_cell_angle_alpha	87.673679
_cell_angle_beta	85.299277
_cell_angle_gamma	87.737628
loop_
_atom_site_label
_atom_site_type_symbol
_atom_site_fract_x
_atom_site_fract_y
_atom_site_fract_z
Zn1	Zn	1.093625	-0.195626	-0.441828
Zn2	Zn	1.088771	-0.273652	-0.323930
Zn3	Zn	0.971007	-0.195633	-0.319224
Zn4	Zn	0.975670	-0.267822	-0.437050
O5	O	1.032268	-0.233183	-0.380508
O6	O	1.191630	-0.208413	-0.430158
O7	O	1.069167	-0.265745	-0.224654
O8	O	0.987353	-0.132766	-0.335518
O9	O	1.188064	-0.265739	-0.343538
O10	O	1.077440	-0.132761	-0.425595
O11	O	0.982646	-0.208424	-0.221196
O12	O	0.872977	-0.202772	-0.330885
O13	O	0.995300	-0.255803	-0.536336
O14	O	0.876403	-0.255809	-0.417451
O15	O	1.081961	-0.202761	-0.539846
O16	O	1.073688	-0.335745	-0.338905
O17	O	0.990593	-0.331462	-0.422014
C18	C	0.849111	-0.228659	-0.373139
C19	C	0.770756	-0.226734	-0.370003
C20	C	1.032140	-0.349904	-0.380468
C21	C	1.032150	-0.399838	-0.380477
C22	C	0.735744	-0.253488	-0.413530
C23	C	0.662122	-0.251674	-0.410587
C24	C	0.623512	-0.223106	-0.364113
C25	C	0.658529	-0.196349	-0.320585
C26	C	0.732151	-0.198162	-0.323532
C27	C	0.403135	-0.214716	-0.350478
C28	C	0.329509	-0.212907	-0.347532
C29	C	0.333106	-0.268231	-0.437535
C30	C	0.406728	-0.270043	-0.440475
C31	C	0.441739	-0.243284	-0.396950
N32	N	0.548258	-0.221252	-0.361103
N33	N	0.516992	-0.245137	-0.399965
C34	C	1.075620	-0.711701	-0.337302
C35	C	1.075709	-0.899376	-0.337333
O36	O	1.112566	-0.925527	-0.300594
N37	N	1.032417	-0.920628	-0.380567
C38	C	0.989103	-0.894957	-0.423800
O39	O	0.952288	-0.917340	-0.460579
C40	C	0.989019	-0.707284	-0.423772
C41	C	1.032309	-0.686035	-0.380530
C42	C	1.118907	-0.690452	-0.294064
C43	C	1.118882	-0.643536	-0.294054
C44	C	1.075570	-0.617870	-0.337282
C45	C	1.032283	-0.639119	-0.380520
C46	C	0.945710	-0.681615	-0.467008
C47	C	0.945694	-0.634693	-0.466998
C48	C	0.988984	-0.613444	-0.423757
C49	C	0.988946	-0.566537	-0.423738
N50	N	1.032238	-0.545285	-0.380504
C51	C	1.075550	-0.570952	-0.337276
C52	C	0.989149	-0.993489	-0.423810
C53	C	0.989169	-1.040407	-0.423816
C54	C	1.075776	-1.044822	-0.337351
C55	C	1.075752	-0.997903	-0.337341
C56	C	1.032441	-0.972237	-0.380576
C57	C	1.075493	-0.472425	-0.337258
C58	C	1.075462	-0.425505	-0.337249
C59	C	0.988858	-0.421093	-0.423717
C60	C	0.988887	-0.468010	-0.423723
C61	C	1.032210	-0.493674	-0.380491
O62	O	0.952114	-0.540358	-0.460464
O63	O	1.112371	-0.548561	-0.300514
C64	C	1.075646	-0.758617	-0.337312
C65	C	1.032359	-0.779867	-0.380550
C66	C	0.989047	-0.754200	-0.423778
C67	C	1.032379	-0.826785	-0.380556
C68	C	1.075691	-0.852451	-0.337329
C69	C	1.118983	-0.831200	-0.294095
C70	C	1.118957	-0.784284	-0.294085
C71	C	0.945756	-0.775451	-0.467012
C72	C	0.945784	-0.822368	-0.467018
C73	C	0.989096	-0.848034	-0.423790
C74	C	1.216141	-0.237725	-0.387906
C75	C	1.294496	-0.239661	-0.391059
C76	C	1.039692	-0.228631	-0.564385
C77	C	1.042856	-0.226691	-0.642743
C78	C	1.032417	-0.116007	-0.380564
C79	C	1.032481	-0.066074	-0.380589
C80	C	0.999223	-0.253394	-0.677729
C81	C	1.002202	-0.251571	-0.751354
C82	C	1.048809	-0.223043	-0.789993
C83	C	1.092447	-0.196339	-0.755002
C84	C	1.089471	-0.198164	-0.681378
C85	C	1.062549	-0.214625	-1.010381
C86	C	1.065520	-0.212800	-1.084010
C87	C	0.975275	-0.268033	-1.080358
C88	C	0.972301	-0.269854	-1.006732
C89	C	1.015941	-0.243152	-0.971748
N90	N	1.051853	-0.221178	-0.865250
N91	N	1.012900	-0.245019	-0.896492
C92	C	1.024914	-0.237686	-0.197348
C93	C	1.021887	-0.239503	-0.118996
H94	H	0.767175	-0.276753	-0.451371
H95	H	1.154134	-0.626238	-0.258845
C96	C	0.907201	-0.560811	-0.505392
C97	C	0.898084	-0.606482	-0.514524
H98	H	0.877811	-0.543396	-0.534734
H99	H	0.895001	-0.554061	-0.457608
H100	H	0.954974	-0.554003	-0.517650
H101	H	0.850312	-0.613291	-0.502260
H102	H	0.910280	-0.613234	-0.562318
H103	H	0.953639	-0.485311	-0.458937
H104	H	0.934359	-0.293092	-0.975279
C105	C	0.215054	-0.185547	-0.303079
C106	C	0.287067	-0.181489	-0.296467
H107	H	0.188854	-0.166151	-0.271557
H108	H	0.204933	-0.177564	-0.349985
H109	H	0.202536	-0.215680	-0.292168
H110	H	0.299586	-0.151357	-0.307383
H111	H	0.297193	-0.189470	-0.249551
H112	H	0.633618	-0.273460	-0.446030
C113	C	1.152041	-0.159842	-1.021396
C114	C	1.110511	-0.185270	-0.971932
H115	H	1.181648	-0.141717	-0.997656
H116	H	1.180141	-0.179370	-1.051187
H117	H	1.122498	-0.141190	-1.048885
H118	H	1.140054	-0.203924	-0.944447
H119	H	1.082409	-0.165740	-0.942129
H120	H	0.438159	-0.293307	-0.478317
H121	H	1.154247	-0.852106	-0.258895
C122	C	0.254159	-0.270177	-0.529033
C123	C	0.294619	-0.297638	-0.485384
H124	H	0.230403	-0.288332	-0.558578
H125	H	0.220633	-0.252909	-0.500931
H126	H	0.284006	-0.250670	-0.557200
H127	H	0.264772	-0.317143	-0.457212
H128	H	0.328149	-0.314913	-0.513489
C129	C	1.081777	-0.947750	-0.242905
C130	C	1.123339	-0.974549	-0.289812
H131	H	1.111159	-0.933336	-0.213559
H132	H	1.055991	-0.925747	-0.268649
H133	H	1.050002	-0.965994	-0.214686
H134	H	1.155111	-0.956304	-0.318034
H135	H	1.149137	-0.996554	-0.264065
H136	H	1.125001	-0.176420	-0.652893
H137	H	0.953912	-1.057704	-0.459021
H138	H	1.130399	-0.173113	-0.786467
C139	C	0.894680	-0.938209	-0.429710
C140	C	0.941534	-0.965278	-0.471332
H141	H	0.865286	-0.920792	-0.459048
H142	H	0.866513	-0.956633	-0.397894
H143	H	0.920466	-0.918837	-0.403968
H144	H	0.915748	-0.984653	-0.497071
H145	H	0.969704	-0.946852	-0.503160
C146	C	0.392174	-0.159849	-0.261220
C147	C	0.441613	-0.185304	-0.302634
H148	H	0.415932	-0.141692	-0.231680
H149	H	0.364724	-0.141232	-0.290838
H150	H	0.362344	-0.179363	-0.233046
H151	H	0.471439	-0.165789	-0.330811
H152	H	0.469075	-0.203923	-0.273012
C153	C	0.959254	-0.402833	-0.541676
C154	C	0.941259	-0.392874	-0.471239
H155	H	0.929869	-0.385411	-0.571016
H156	H	1.007023	-0.396025	-0.553919
H157	H	0.953061	-0.433816	-0.547865
H158	H	0.947457	-0.361891	-0.465049
H159	H	0.893478	-0.399678	-0.458992
C160	C	0.544077	-0.169004	-0.276105
C161	C	0.616092	-0.164945	-0.269503
H162	H	0.517881	-0.149618	-0.244564
H163	H	0.533946	-0.161008	-0.323003
H164	H	0.531565	-0.199140	-0.265212
H165	H	0.628605	-0.134810	-0.280401
H166	H	0.626228	-0.172939	-0.222594
C167	C	1.204498	-0.690091	-0.208591
C168	C	1.166516	-0.718660	-0.246538
H169	H	1.233886	-0.707504	-0.179242
H170	H	1.232671	-0.671674	-0.240412
H171	H	1.172695	-0.671725	-0.180373
H172	H	1.198320	-0.737024	-0.274760
H173	H	1.138341	-0.737085	-0.214713
C174	C	0.721205	-0.143302	-0.234262
C175	C	0.770639	-0.168756	-0.275680
H176	H	0.744966	-0.125150	-0.204717
H177	H	0.693759	-0.124678	-0.263876
H178	H	0.691370	-0.162815	-0.206093
H179	H	0.800470	-0.149242	-0.303853
H180	H	0.798096	-0.187381	-0.246062
H181	H	1.110713	-0.408205	-0.302034
C182	C	1.161089	-0.472063	-0.251780
C183	C	1.123109	-0.500631	-0.289731
H184	H	1.190478	-0.489478	-0.222434
H185	H	1.189260	-0.453644	-0.283599
H186	H	1.129285	-0.453700	-0.223559
H187	H	1.154913	-0.518992	-0.317957
H188	H	1.094935	-0.519058	-0.257909
H189	H	1.111042	-1.065728	-0.302153
C190	C	0.860121	-0.672518	-0.552487
C191	C	0.898129	-0.704963	-0.514547
H192	H	0.830749	-0.686932	-0.581841
H193	H	0.831931	-0.654342	-0.520662
H194	H	0.891909	-0.654279	-0.580699
H195	H	0.866341	-0.723200	-0.486331
H196	H	0.926321	-0.723146	-0.546376
H197	H	1.154208	-0.766987	-0.258873
H198	H	0.961262	-0.276619	-0.646275
C199	C	0.860183	-0.813279	-0.552496
C200	C	0.898197	-0.845721	-0.514556
H201	H	0.830813	-0.827696	-0.581849
H202	H	0.831990	-0.795105	-0.520671
H203	H	0.891967	-0.795038	-0.580709
H204	H	0.866412	-0.863960	-0.486339
H205	H	0.926392	-0.863902	-0.546386
H206	H	0.910487	-0.754557	-0.502214
H207	H	0.966672	-0.273316	-0.779837
C208	C	1.163699	-0.206856	-1.170626
C209	C	1.116761	-0.181444	-1.126482
H210	H	1.195329	-0.187497	-1.196848
H211	H	1.189474	-0.227805	-1.142980
H212	H	1.138127	-0.222493	-1.201996
H213	H	1.142334	-0.165808	-1.095108
H214	H	1.090985	-0.160486	-1.154130
H215	H	0.939746	-0.289773	-1.108850
