data_functionalizedCrystal
_audit_creation_method	'MofGen! by Chris Wilmer'
_symmetry_space_group_name_H-M	'P1'
_symmetry_Int_Tables_number	1
_symmetry_cell_setting	triclinic
loop_
_symmetry_equiv_pos_as_xyz
  x,y,z
_cell_length_a	12.759395
_cell_length_b	12.759393
_cell_length_c	12.759387
_cell_angle_alpha	90.027941
_cell_angle_beta	89.980569
_cell_angle_gamma	89.985328
loop_
_atom_site_label
_atom_site_type_symbol
_atom_site_fract_x
_atom_site_fract_y
_atom_site_fract_z
Zn1	Zn	1.606268	0.418215	-0.593996
Zn2	Zn	1.606158	0.593932	-0.418325
Zn3	Zn	1.430566	0.418268	-0.418336
Zn4	Zn	1.430558	0.593853	-0.593967
O5	O	1.518387	0.506067	-0.506156
O6	O	1.753274	0.441536	-0.570700
O7	O	1.582823	0.570685	-0.271305
O8	O	1.453922	0.271240	-0.441654
O9	O	1.753194	0.570635	-0.441635
O10	O	1.583010	0.271201	-0.570711
O11	O	1.453816	0.441625	-0.271313
O12	O	1.283544	0.441548	-0.441626
O13	O	1.453909	0.570499	-0.740992
O14	O	1.283538	0.570549	-0.570662
O15	O	1.583002	0.441459	-0.741013
O16	O	1.582815	0.740943	-0.441608
O17	O	1.453802	0.740884	-0.570652
C18	C	1.245420	0.506046	-0.506143
C19	C	1.128643	0.506063	-0.506162
C20	C	1.128708	0.371849	-0.640775
C21	C	1.073879	0.304756	-0.708089
C22	C	0.964158	0.304774	-0.708102
C23	C	0.909262	0.371892	-0.640791
C24	C	0.964091	0.438986	-0.573477
C25	C	1.073815	0.438962	-0.573473
C26	C	0.964026	0.573192	-0.438861
C27	C	1.073748	0.573180	-0.438852
C28	C	0.909130	0.640309	-0.371550
C29	C	0.963959	0.707410	-0.304239
C30	C	1.073687	0.707389	-0.304230
C31	C	1.128576	0.640274	-0.371537
C32	C	1.518324	0.779035	-0.506148
C33	C	1.518394	0.895811	-0.506180
C34	C	1.652835	0.895819	-0.371908
C35	C	1.720083	0.950684	-0.304787
C36	C	1.720145	1.060405	-0.304823
C37	C	1.652953	1.115265	-0.371988
C38	C	1.585705	1.060400	-0.439109
C39	C	1.585649	0.950676	-0.439064
C40	C	1.451270	1.060392	-0.573385
C41	C	1.451202	0.950671	-0.573346
C42	C	1.384079	1.115252	-0.640550
C43	C	1.316824	1.060387	-0.707667
C44	C	1.316764	0.950659	-0.707628
C45	C	1.383954	0.895806	-0.640466
C46	C	1.792421	0.506089	-0.506170
C47	C	1.909197	0.506098	-0.506175
C48	C	1.518467	0.505964	-0.780190
C49	C	1.518501	0.505920	-0.896966
C50	C	1.518479	1.232034	-0.506203
C51	C	1.518519	1.115257	-0.506265
C52	C	1.652934	0.371560	-0.897008
C53	C	1.720166	0.304364	-0.951889
C54	C	1.720192	0.304326	-1.061611
C55	C	1.652976	0.371488	-1.116454
C56	C	1.585745	0.438684	-1.061572
C57	C	1.585728	0.438717	-0.951848
C58	C	1.451307	0.573038	-1.061531
C59	C	1.451285	0.573083	-0.951809
C60	C	1.384091	0.640200	-1.116373
C61	C	1.316863	0.707403	-1.061492
C62	C	1.316842	0.707439	-0.951763
C63	C	1.384053	0.640279	-0.896927
C64	C	1.518369	0.506094	-0.233188
C65	C	1.518539	0.505842	-0.116412
H66	H	1.217917	0.640245	-0.371531
H67	H	1.218049	0.371823	-0.640766
O68	O	1.244372	0.779832	-1.120644
H69	H	1.161920	0.761799	-1.099576
O70	O	1.652760	0.777476	-0.371825
H71	H	1.573507	0.748649	-0.350503
H72	H	1.262082	0.762147	-0.907085
O73	O	0.790787	0.640329	-0.371552
H74	H	0.761885	0.661679	-0.450756
O75	O	1.132819	0.779749	-0.231616
H76	H	1.182832	0.833254	-0.278532
O77	O	1.384025	0.640330	-0.778585
H78	H	1.362814	0.561096	-0.749659
O79	O	0.790919	0.371903	-0.640788
H80	H	0.762009	0.393244	-0.719992
H81	H	1.118588	0.250108	-0.762890
H82	H	1.774793	0.906008	-0.250104
O83	O	0.905011	0.232413	-0.780703
H84	H	0.961611	0.185743	-0.827511
H85	H	1.262127	1.105062	-0.762353
O86	O	1.652987	0.371440	-1.234797
H87	H	1.732222	0.392680	-1.263746
H88	H	1.774910	1.105076	-0.250173
O89	O	0.904756	0.779792	-0.231642
H90	H	0.819249	0.768531	-0.242959
O91	O	1.244220	0.891483	-0.780012
H92	H	1.197505	0.948067	-0.826708
H93	H	1.653019	1.204606	-0.372021
O94	O	1.384112	0.640165	-1.234716
H95	H	1.442160	0.582164	-1.263668
O96	O	1.384130	1.233594	-0.640587
H97	H	1.442169	1.262531	-0.582621
H98	H	1.774890	0.249680	-0.907224
O99	O	1.383871	0.777463	-0.640431
H100	H	1.463084	0.748441	-0.661721
H101	H	1.652930	0.371594	-0.807667
H102	H	1.774931	0.249602	-1.106296
