data_functionalizedCrystal
_audit_creation_method	'MofGen! by Chris Wilmer'
_symmetry_space_group_name_H-M	'P1'
_symmetry_Int_Tables_number	1
_symmetry_cell_setting	triclinic
loop_
_symmetry_equiv_pos_as_xyz
  x,y,z
_cell_length_a	16.120530
_cell_length_b	12.594516
_cell_length_c	16.120297
_cell_angle_alpha	92.877768
_cell_angle_beta	90.128140
_cell_angle_gamma	87.111852
loop_
_atom_site_label
_atom_site_type_symbol
_atom_site_fract_x
_atom_site_fract_y
_atom_site_fract_z
Zn1	Zn	1.247493	-0.539249	-0.534603
Zn2	Zn	1.580827	-0.205916	-0.201269
Zn3	Zn	1.914160	0.127418	0.132064
Zn4	Zn	1.254461	-0.708692	-0.395557
Zn5	Zn	1.587794	-0.375359	-0.062224
Zn6	Zn	1.921127	-0.042025	0.271110
Zn7	Zn	1.115482	-0.521263	-0.388519
Zn8	Zn	1.448815	-0.187930	-0.055186
Zn9	Zn	1.782149	0.145404	0.278147
Zn10	Zn	1.108417	-0.707712	-0.527526
Zn11	Zn	1.441750	-0.374379	-0.194193
Zn12	Zn	1.775084	-0.041045	0.139140
O13	O	1.181463	-0.619229	-0.461551
O14	O	1.514797	-0.285896	-0.128218
O15	O	1.848130	0.047438	0.205115
O16	O	1.364785	-0.569664	-0.522065
O17	O	1.698118	-0.236330	-0.188731
O18	O	2.031451	0.097003	0.144602
O19	O	1.241897	-0.676712	-0.278258
O20	O	1.575231	-0.343379	0.055076
O21	O	1.908564	-0.010046	0.388409
O22	O	1.133034	-0.374707	-0.407914
O23	O	1.466368	-0.041373	-0.074581
O24	O	1.799701	0.291960	0.258753
O25	O	1.369904	-0.694153	-0.419909
O26	O	1.703237	-0.360819	-0.086575
O27	O	2.036570	-0.027486	0.246758
O28	O	1.230022	-0.387921	-0.515241
O29	O	1.563356	-0.054588	-0.181907
O30	O	1.896689	0.278746	0.151426
O31	O	1.139790	-0.539009	-0.273087
O32	O	1.473124	-0.205675	0.060246
O33	O	1.806457	0.127658	0.393580
O34	O	0.998178	-0.538058	-0.401052
O35	O	1.331511	-0.204725	-0.067719
O36	O	1.664844	0.128608	0.265614
O37	O	1.120993	-0.692482	-0.644831
O38	O	1.454327	-0.359149	-0.311498
O39	O	1.787660	-0.025815	0.021836
O40	O	0.992987	-0.675042	-0.503180
O41	O	1.326320	-0.341708	-0.169847
O42	O	1.659654	-0.008375	0.163487
O43	O	1.223172	-0.568713	-0.650030
O44	O	1.556505	-0.235380	-0.316697
O45	O	1.889839	0.097954	0.016637
O46	O	1.235047	-0.857504	-0.413047
O47	O	1.568380	-0.524171	-0.079713
O48	O	1.901714	-0.190838	0.253620
O49	O	1.127749	-0.856784	-0.510004
O50	O	1.461083	-0.523451	-0.176671
O51	O	1.794416	-0.190117	0.156663
C52	C	0.965410	-0.604493	-0.450585
C53	C	1.298743	-0.271159	-0.117252
C54	C	1.632076	0.062174	0.216082
C55	C	0.872980	-0.598215	-0.445913
C56	C	1.206313	-0.264882	-0.112580
C57	C	1.539647	0.068452	0.220753
C58	C	0.703749	-0.586730	-0.437391
C59	C	1.037083	-0.253396	-0.104058
C60	C	1.370416	0.079937	0.229276
C61	C	0.660015	-0.651810	-0.485772
C62	C	0.993348	-0.318477	-0.152439
C63	C	1.326681	0.014856	0.180894
C64	C	0.565849	-0.645420	-0.481031
C65	C	0.899182	-0.312087	-0.147697
C66	C	1.232515	0.021247	0.185636
C67	C	0.797924	-0.593119	-0.442132
C68	C	1.131257	-0.259785	-0.108798
C69	C	1.464590	0.073548	0.224535
C70	C	1.181409	-0.895766	-0.461540
C71	C	1.514742	-0.562432	-0.128207
C72	C	1.848076	-0.229099	0.205126
C73	C	1.181461	-1.014076	-0.461567
C74	C	1.514794	-0.680743	-0.128234
C75	C	1.848127	-0.347410	0.205099
C76	C	1.123098	-1.082974	-0.514263
C77	C	1.456431	-0.749640	-0.180930
C78	C	1.789765	-0.416307	0.152404
C79	C	1.106686	-1.147787	-0.437359
C80	C	1.440019	-0.814454	-0.104026
C81	C	1.773352	-0.481120	0.229307
C82	C	1.197948	-1.160068	-0.538488
C83	C	1.531281	-0.826735	-0.205155
C84	C	1.864615	-0.493401	0.128179
C85	C	1.165010	-1.077326	-0.384621
C86	C	1.498344	-0.743993	-0.051288
C87	C	1.831677	-0.410660	0.282045
C88	C	1.256305	-1.089606	-0.485803
C89	C	1.589639	-0.756273	-0.152470
C90	C	1.922972	-0.422940	0.180864
C91	C	1.239924	-1.154387	-0.408848
C92	C	1.573258	-0.821053	-0.075515
C93	C	1.906591	-0.487720	0.257818
C94	C	1.398360	-0.634024	-0.472561
C95	C	1.731694	-0.300690	-0.139228
C96	C	2.065027	0.032643	0.194106
C97	C	1.490789	-0.640328	-0.477253
C98	C	1.824122	-0.306995	-0.143919
C99	C	2.157456	0.026338	0.189414
C100	C	1.170517	-0.632495	-0.678446
C101	C	1.503851	-0.299161	-0.345113
C102	C	1.837184	0.034172	-0.011780
C103	C	1.165853	-0.638148	-0.770874
C104	C	1.499186	-0.304814	-0.437541
C105	C	1.832520	0.028519	-0.104208
C106	C	1.181539	-0.341615	-0.461582
C107	C	1.514873	-0.008282	-0.128248
C108	C	1.848206	0.325052	0.205085
C109	C	1.181572	-0.223313	-0.461595
C110	C	1.514905	0.110021	-0.128261
C111	C	1.848238	0.443354	0.205072
C112	C	1.157306	-0.648443	-0.940100
C113	C	1.490640	-0.315109	-0.606766
C114	C	1.823973	0.018224	-0.273433
C115	C	1.205784	-0.589708	-0.983863
C116	C	1.539117	-0.256374	-0.650530
C117	C	1.872451	0.076959	-0.317197
C118	C	1.201029	-0.595436	-1.078026
C119	C	1.534362	-0.262103	-0.744693
C120	C	1.867695	0.071231	-0.411359
C121	C	1.162061	-0.642716	-0.845928
C122	C	1.495394	-0.309382	-0.512595
C123	C	1.828727	0.023951	-0.179262
C124	C	1.192414	-0.605942	-0.245502
C125	C	1.525748	-0.272608	0.087831
C126	C	1.859081	0.060725	0.421164
C127	C	1.197240	-0.600000	-0.153083
C128	C	1.530573	-0.266666	0.180250
C129	C	1.863907	0.066667	0.513583
H130	H	1.073662	-1.051620	-0.558754
H131	H	1.406996	-0.718287	-0.225420
H132	H	1.740329	-0.384954	0.107913
H133	H	0.670473	-0.526218	-0.392412
H134	H	1.003806	-0.192885	-0.059079
H135	H	1.337140	0.140448	0.274254
H136	H	0.693293	-0.712326	-0.530755
H137	H	1.026626	-0.378993	-0.197422
H138	H	1.359959	-0.045659	0.135911
O139	O	1.103611	-0.713546	-0.979893
O140	O	1.436944	-0.380213	-0.646559
O141	O	1.770277	-0.046879	-0.313226
C142	C	1.049807	-0.778603	-1.111397
C143	C	1.383141	-0.445269	-0.778064
C144	C	1.716474	-0.111936	-0.444730
C145	C	1.110663	-0.704846	-1.066425
C146	C	1.443997	-0.371512	-0.733091
C147	C	1.777330	-0.038179	-0.399758
H148	H	1.055476	-0.771577	-1.181365
H149	H	1.388809	-0.438244	-0.848032
H150	H	1.722143	-0.104910	-0.514698
H151	H	1.065232	-0.864435	-1.095187
H152	H	1.398565	-0.531101	-0.761854
H153	H	1.731899	-0.197768	-0.428520
H154	H	0.983611	-0.754342	-1.090922
H155	H	1.316944	-0.421009	-0.757588
H156	H	1.650277	-0.087676	-0.424255
H157	H	1.176881	-0.729010	-1.086876
H158	H	1.510214	-0.395677	-0.753542
H159	H	1.843547	-0.062343	-0.420209
H160	H	1.095167	-0.619031	-1.082636
H161	H	1.428500	-0.285698	-0.749302
H162	H	1.761833	0.047635	-0.415969
H163	H	1.250858	-0.535120	-0.950612
H164	H	1.584191	-0.201786	-0.617279
H165	H	1.917525	0.131547	-0.283945
H166	H	1.043442	-1.173578	-0.416881
H167	H	1.376776	-0.840245	-0.083548
H168	H	1.710109	-0.506912	0.249786
H169	H	1.289330	-1.185534	-0.364243
H170	H	1.622663	-0.852200	-0.030909
H171	H	1.955997	-0.518867	0.302424
O172	O	1.148310	-1.034186	-0.307060
O173	O	1.481643	-0.700853	0.026274
O174	O	1.814977	-0.367520	0.359607
C175	C	1.129566	-0.873588	-0.220020
C176	C	1.462900	-0.540254	0.113314
C177	C	1.796233	-0.206921	0.446647
C178	C	1.148472	-0.922304	-0.307897
C179	C	1.481806	-0.588970	0.025436
C180	C	1.815139	-0.255637	0.358769
H181	H	1.129708	-0.783125	-0.220664
H182	H	1.463042	-0.449792	0.112670
H183	H	1.796375	-0.116458	0.446003
H184	H	1.065998	-0.897931	-0.199253
H185	H	1.399331	-0.564598	0.134080
H186	H	1.732664	-0.231265	0.467413
H187	H	1.179059	-0.903656	-0.175066
H188	H	1.512393	-0.570323	0.158267
H189	H	1.845726	-0.236990	0.491601
H190	H	1.099032	-0.892260	-0.352911
H191	H	1.432366	-0.558926	-0.019578
H192	H	1.765699	-0.225593	0.313755
H193	H	1.212065	-0.897966	-0.328594
H194	H	1.545398	-0.564632	0.004739
H195	H	1.878731	-0.231299	0.338073
H196	H	1.211849	-1.196211	-0.603528
H197	H	1.545182	-0.862878	-0.270195
H198	H	1.878516	-0.529545	0.063138
O199	O	1.331701	-1.058889	-0.510417
O200	O	1.665034	-0.725555	-0.177083
O201	O	1.998368	-0.392222	0.156250
C202	C	1.434289	-1.066367	-0.619321
C203	C	1.767622	-0.733034	-0.285987
C204	C	2.100956	-0.399701	0.047346
C205	C	1.348884	-1.101213	-0.591547
C206	C	1.682217	-0.767879	-0.258213
C207	C	2.015550	-0.434546	0.075120
H208	H	1.448216	-1.100590	-0.684910
H209	H	1.781549	-0.767256	-0.351576
H210	H	2.114882	-0.433923	-0.018243
H211	H	1.433705	-0.975769	-0.618537
H212	H	1.767039	-0.642436	-0.285204
H213	H	2.100372	-0.309103	0.048129
H214	H	1.484203	-1.097008	-0.575043
H215	H	1.817536	-0.763675	-0.241710
H216	H	2.150870	-0.430342	0.091624
H217	H	1.298922	-1.070646	-0.635799
H218	H	1.632256	-0.737313	-0.302466
H219	H	1.965589	-0.403979	0.030867
H220	H	1.349537	-1.191813	-0.592307
H221	H	1.682871	-0.858479	-0.258974
H222	H	2.016204	-0.525146	0.074359
