data_functionalizedCrystal
_audit_creation_method	'MofGen! by Chris Wilmer'
_symmetry_space_group_name_H-M	'P1'
_symmetry_Int_Tables_number	1
_symmetry_cell_setting	triclinic
loop_
_symmetry_equiv_pos_as_xyz
  x,y,z
_cell_length_a	19.188931
_cell_length_b	10.654550
_cell_length_c	9.730223
_cell_angle_alpha	90.004253
_cell_angle_beta	89.998242
_cell_angle_gamma	96.185144
loop_
_atom_site_label
_atom_site_type_symbol
_atom_site_fract_x
_atom_site_fract_y
_atom_site_fract_z
O1	O	0.927169	-0.156779	-0.114240
O2	O	0.723996	-0.177885	-0.114254
O3	O	0.830254	0.015506	-0.114238
O4	O	0.820911	-0.350170	-0.114256
O5	O	0.830247	0.015511	0.114342
O6	O	0.723989	-0.177880	0.114326
O7	O	0.927162	-0.156774	0.114340
Zn8	Zn	0.825574	-0.167326	0.150625
Zn9	Zn	0.825583	-0.167333	-0.150539
O10	O	0.820904	-0.350165	0.114324
C11	C	0.697977	-0.177199	0.000035
C12	C	0.620459	-0.175147	0.000030
C13	C	0.953181	-0.157460	0.000049
C14	C	1.030699	-0.159512	0.000045
C15	C	0.829564	0.062292	0.000051
C16	C	0.827512	0.201692	0.000049
C17	C	1.074881	-0.046037	0.000038
C18	C	1.147717	-0.047964	0.000046
C19	C	1.176369	-0.163374	0.000033
C20	C	1.132177	-0.276864	0.000047
C21	C	1.059342	-0.274933	0.000053
N22	N	1.284942	-0.251592	-0.077784
N23	N	1.354133	-0.253418	-0.077792
C24	C	1.395815	-0.169198	0.000019
N25	N	1.365694	-0.083063	0.077822
N26	N	1.296498	-0.081233	0.077824
C27	C	1.255345	-0.165480	0.000028
C28	C	1.518975	-0.057804	0.000024
C29	C	1.591813	-0.059737	0.000040
C30	C	1.576271	-0.288640	0.000028
C31	C	1.503435	-0.286704	0.000025
C32	C	1.474792	-0.171283	0.000016
C33	C	0.821594	-0.396951	0.000032
C34	C	0.823646	-0.536351	0.000025
N35	N	0.825573	-0.167321	0.356161
C36	C	0.890075	0.282501	0.000053
C37	C	0.888142	0.413481	0.000036
C38	C	0.761078	0.382829	0.000017
C39	C	0.763011	0.251852	0.000024
N40	N	0.825590	-0.167328	-0.356075
C41	C	0.872640	-0.081723	0.428094
C42	C	0.872647	-0.081723	0.571977
C43	C	0.778518	-0.252930	0.571982
C44	C	0.778508	-0.252923	0.428101
H45	H	1.183697	0.044444	0.000037
H46	H	0.942595	0.241666	0.000070
C47	C	0.967487	-0.053960	0.266188
C48	C	0.924336	0.012408	0.348981
H49	H	0.999393	0.004168	0.217346
H50	H	0.939454	-0.104957	0.202786
H51	H	0.992887	-0.106087	0.322290
H52	H	0.898932	0.064528	0.292877
H53	H	0.952372	0.063427	0.412390
C54	C	1.097565	0.180028	0.000059
C55	C	1.043397	0.080833	0.000054
H56	H	1.078125	0.258350	0.000081
H57	H	1.125645	0.174514	-0.079654
H58	H	1.125653	0.174501	0.079769
H59	H	1.015311	0.086354	-0.079662
H60	H	1.015305	0.086348	0.079775
H61	H	0.740177	-0.322627	0.369530
H62	H	0.708564	0.423686	0.000000
H63	H	0.939087	0.479272	0.000036
C64	C	0.637214	0.234698	0.000020
C65	C	0.694237	0.163015	0.000025
H66	H	0.594759	0.179851	0.000025
H67	H	0.639105	0.286411	-0.079688
H68	H	0.639103	0.286433	0.079734
H69	H	0.692351	0.111287	-0.079695
H70	H	0.692346	0.111280	0.079741
C71	C	1.236928	-0.381457	0.000002
C72	C	1.163668	-0.403724	0.000021
H73	H	1.256367	-0.459780	-0.000020
H74	H	1.252055	-0.334760	0.079710
H75	H	1.252046	-0.334746	-0.079712
H76	H	1.148549	-0.450427	0.079741
H77	H	1.148534	-0.450442	-0.079695
H78	H	1.467461	-0.379108	0.000021
H79	H	0.740199	-0.322627	0.630570
C80	C	1.051297	-0.501385	0.000036
C81	C	1.010772	-0.399674	0.000044
H82	H	1.021310	-0.578394	0.000020
H83	H	1.080024	-0.497379	0.079745
H84	H	1.080034	-0.497370	-0.079678
H85	H	0.982040	-0.403684	0.079764
H86	H	0.982034	-0.403682	-0.079673
C87	C	0.965695	0.087493	0.557511
C88	C	0.924388	0.012363	0.651046
H89	H	0.997641	0.145576	0.606327
H90	H	0.936415	0.132540	0.501410
H91	H	0.991051	0.035313	0.501376
H92	H	0.899028	0.064543	0.707175
H93	H	0.953671	-0.032687	0.707170
C94	C	1.681016	-0.393236	-0.000034
C95	C	1.607756	-0.415502	-0.000016
H96	H	1.700454	-0.471560	-0.000074
H97	H	1.696144	-0.346553	0.079683
H98	H	1.696134	-0.346511	-0.079739
H99	H	1.592637	-0.462219	0.079695
H100	H	1.592622	-0.462205	-0.079741
C101	C	1.509798	0.137896	-0.117464
C102	C	1.487484	0.069062	0.000031
H103	H	1.490361	0.216220	-0.117453
H104	H	1.494669	0.091188	-0.197164
H105	H	1.559500	0.152979	-0.117445
H106	H	1.437782	0.053971	0.000007
H107	H	1.502610	0.115779	0.079751
C108	C	1.710361	0.038941	0.000042
C109	C	1.640382	0.065005	0.000034
H110	H	1.740345	0.115954	0.000045
H111	H	1.719103	-0.008401	-0.079660
H112	H	1.719097	-0.008390	0.079763
H113	H	1.631645	0.112328	-0.079692
H114	H	1.631637	0.112367	0.079744
