data_functionalizedCrystal
_audit_creation_method	'MofGen! by Chris Wilmer'
_symmetry_space_group_name_H-M	'P1'
_symmetry_Int_Tables_number	1
_symmetry_cell_setting	triclinic
loop_
_symmetry_equiv_pos_as_xyz
  x,y,z
_cell_length_a	10.723023
_cell_length_b	10.654550
_cell_length_c	9.130313
_cell_angle_alpha	90.004369
_cell_angle_beta	89.996944
_cell_angle_gamma	95.523761
loop_
_atom_site_label
_atom_site_type_symbol
_atom_site_fract_x
_atom_site_fract_y
_atom_site_fract_z
O1	O	1.657214	-0.176145	-0.121784
O2	O	1.294064	-0.193006	-0.121790
O3	O	1.483988	-0.001835	-0.121778
O4	O	1.467289	-0.367316	-0.121796
O5	O	1.483975	-0.001829	0.121821
O6	O	1.294050	-0.193001	0.121809
O7	O	1.657200	-0.176139	0.121815
Cu8	Cu	1.475624	-0.184569	0.144054
Cu9	Cu	1.475640	-0.184576	-0.144030
O10	O	1.467276	-0.367310	0.121802
C11	C	1.247557	-0.191777	0.000009
C12	C	1.109002	-0.188106	0.000006
C13	C	1.047223	-0.186467	0.126197
C14	C	0.904020	-0.182673	0.126197
C15	C	1.482755	0.044966	0.000021
C16	C	1.479087	0.184408	0.000019
C17	C	1.703707	-0.177369	0.000013
C18	C	1.842262	-0.181039	0.000005
C19	C	1.468509	-0.414111	0.000001
C20	C	1.472177	-0.553554	-0.000007
N21	N	1.475622	-0.184564	0.346677
C22	C	1.590911	0.263911	0.000020
C23	C	1.587457	0.394931	0.000002
C24	C	1.360344	0.366933	-0.000012
C25	C	1.363800	0.235916	-0.000005
N26	N	1.475651	-0.184572	-0.346652
C27	C	1.559750	-0.099949	0.423334
C28	C	1.559762	-0.099949	0.576671
C29	C	1.391515	-0.269190	0.576680
C30	C	1.391498	-0.269183	0.423346
H31	H	0.850890	-0.181270	0.234234
O32	O	1.248330	0.416913	-0.000284
C33	C	1.180089	0.376347	-0.126431
H34	H	1.247487	0.348512	-0.214606
H35	H	1.111286	0.291573	-0.097908
C36	C	1.024665	0.518341	-0.075346
C37	C	1.107446	0.484164	-0.183649
H38	H	0.979851	0.584844	-0.110639
H39	H	1.070637	0.545668	0.009644
H40	H	0.967341	0.447686	-0.051588
H41	H	1.164778	0.554814	-0.207393
H42	H	1.061482	0.456851	-0.268645
H43	H	0.895381	-0.182457	-0.108036
O44	O	1.695999	0.472289	0.000200
C45	C	1.700800	0.548911	0.126371
H46	H	1.601687	0.556391	0.168424
H47	H	1.758162	0.505339	0.214724
C48	C	1.884176	0.672174	0.036383
C49	C	1.762443	0.681370	0.088027
H50	H	1.922205	0.753879	0.012735
H51	H	1.880945	0.620550	-0.048618
H52	H	1.931962	0.635859	0.110020
H53	H	1.714655	0.717670	0.014384
H54	H	1.765667	0.733003	0.173015
H55	H	1.055876	-0.186698	-0.108029
O56	O	1.641539	-0.017930	0.651297
C57	C	1.719126	-0.085905	0.739941
H58	H	1.670269	-0.183723	0.762912
H59	H	1.811418	-0.095292	0.680828
C60	C	1.805214	0.104802	0.857382
C61	C	1.745201	-0.015337	0.885605
H62	H	1.821304	0.148333	0.947232
H63	H	1.752945	0.150599	0.797657
H64	H	1.882117	0.096962	0.808118
H65	H	1.668293	-0.007496	0.934852
H66	H	1.797457	-0.061132	0.945342
O67	O	1.702866	0.213817	0.000286
C68	C	1.711649	0.138856	0.126433
H69	H	1.646165	0.170401	0.214613
H70	H	1.683765	0.035796	0.097914
C71	C	1.927795	0.114836	0.075330
C72	C	1.847374	0.153587	0.183639
H73	H	2.011517	0.123917	0.110615
H74	H	1.921878	0.165334	-0.009661
H75	H	1.904543	0.028955	0.051574
H76	H	1.870617	0.239470	0.207380
H77	H	1.853299	0.103103	0.268636
H78	H	1.322986	-0.338087	0.360927
H79	H	1.272733	0.171181	-0.000011
H80	H	1.100351	-0.187865	0.234232
H81	H	1.628247	-0.031045	0.360914
H82	H	1.323025	-0.338087	0.639119
