data_functionalizedCrystal
_audit_creation_method	'MofGen! by Chris Wilmer'
_symmetry_space_group_name_H-M	'P1'
_symmetry_Int_Tables_number	1
_symmetry_cell_setting	triclinic
loop_
_symmetry_equiv_pos_as_xyz
  x,y,z
_cell_length_a	14.971482
_cell_length_b	11.026607
_cell_length_c	14.048226
_cell_angle_alpha	89.996210
_cell_angle_beta	89.994098
_cell_angle_gamma	96.099312
loop_
_atom_site_label
_atom_site_type_symbol
_atom_site_fract_x
_atom_site_fract_y
_atom_site_fract_z
O1	O	1.212290	0.158158	-0.079145
O2	O	1.712290	0.658158	0.420855
O3	O	0.954926	0.177105	-0.079150
O4	O	1.454926	0.677105	0.420850
O5	O	1.062278	-0.009052	-0.079144
O6	O	1.562278	0.490948	0.420856
O7	O	1.104938	0.344316	-0.079151
O8	O	1.604938	0.844316	0.420849
O9	O	1.062260	-0.009063	0.079177
O10	O	1.562260	0.490937	0.579177
O11	O	0.954907	0.177094	0.079172
O12	O	1.454907	0.677094	0.579172
O13	O	1.212272	0.158147	0.079176
O14	O	1.712272	0.658147	0.579176
Zn15	Zn	1.083587	0.167619	0.104311
Zn16	Zn	1.583587	0.667619	0.604311
Zn17	Zn	1.083611	0.167634	-0.104284
Zn18	Zn	1.583611	0.667634	0.395716
O19	O	1.104920	0.344305	0.079171
O20	O	1.604920	0.844305	0.579171
C21	C	0.921456	0.176254	0.000010
C22	C	1.421456	0.676254	0.500010
C23	C	0.821752	0.173717	0.000009
C24	C	1.321752	0.673717	0.500009
C25	C	0.774906	0.172516	0.086311
C26	C	1.274906	0.672516	0.586311
C27	C	0.681223	0.170113	0.086312
C28	C	1.181223	0.670113	0.586312
C29	C	0.634388	0.168919	0.000010
C30	C	1.134388	0.668919	0.500010
C31	C	0.681240	0.170117	-0.086299
C32	C	1.181240	0.670117	0.413701
C33	C	0.774921	0.172511	-0.086299
C34	C	1.274921	0.672511	0.413701
C35	C	0.485979	0.165129	-0.086293
C36	C	0.985979	0.665129	0.413707
C37	C	0.392291	0.162737	-0.086293
C38	C	0.892291	0.662737	0.413707
C39	C	0.392281	0.162731	0.086318
C40	C	0.892281	0.662731	0.586318
C41	C	0.485962	0.165125	0.086318
C42	C	0.985962	0.665125	0.586318
C43	C	0.532808	0.166325	0.000009
C44	C	1.032808	0.666325	0.500009
C45	C	1.054399	-0.054279	0.000015
C46	C	1.554399	0.445721	0.500015
C47	C	1.030938	-0.189027	0.000011
C48	C	1.530938	0.310973	0.500011
C49	C	1.095717	-0.262740	0.000011
C50	C	1.595717	0.237260	0.500011
C51	C	1.071471	-0.402009	0.000007
C52	C	1.571471	0.097991	0.500007
C53	C	1.245742	0.158999	0.000014
C54	C	1.745742	0.658999	0.500014
C55	C	1.345445	0.161536	0.000009
C56	C	1.845445	0.661536	0.500009
C57	C	1.112799	0.389532	0.000009
C58	C	1.612799	0.889532	0.500009
C59	C	1.136260	0.524280	0.000007
C60	C	1.636260	1.024280	0.500007
N61	N	1.083577	0.167609	0.246671
N62	N	1.583577	0.667609	0.746671
N63	N	1.083626	0.167635	-0.246645
N64	N	1.583626	0.667635	0.253355
C65	C	1.131137	0.085212	0.296492
C66	C	1.631137	0.585212	0.796492
C67	C	1.131143	0.085212	0.396149
C68	C	1.631143	0.585212	0.896149
C69	C	1.083593	0.167614	0.445985
C70	C	1.583593	0.667614	0.945985
C71	C	1.036027	0.250014	0.396158
C72	C	1.536027	0.750014	0.896158
C73	C	1.036017	0.250008	0.296502
C74	C	1.536017	0.750008	0.796502
C75	C	1.036055	0.250023	0.603872
C76	C	1.536055	0.750023	1.103872
C77	C	1.036066	0.250031	0.703535
C78	C	1.536066	0.750031	1.203535
C79	C	1.131181	0.085227	0.703520
C80	C	1.631181	0.585227	1.203520
C81	C	1.131170	0.085220	0.603864
C82	C	1.631170	0.585220	1.103864
C83	C	1.083605	0.167623	0.554043
C84	C	1.583605	0.667623	1.054043
H85	H	0.813033	0.173498	0.156588
H86	H	1.313033	0.673498	0.656588
H87	H	0.997306	0.317104	0.436739
H88	H	1.497306	0.817104	0.936739
C89	C	0.983753	0.340671	0.758352
C90	C	1.483753	0.840671	1.258352
N91	N	0.944348	0.408940	0.799640
N92	N	1.444348	0.908940	1.299640
C93	C	1.235442	-0.421701	0.000010
C94	C	1.735442	0.078299	0.500010
N95	N	1.310145	-0.381013	0.000013
N96	N	1.810145	0.118987	0.500013
H97	H	1.169909	0.018132	0.744089
H98	H	1.669909	0.518132	1.244089
H99	H	0.643084	0.169115	0.156588
H100	H	1.143084	0.669115	0.656588
C101	C	0.537479	0.166440	0.181255
C102	C	1.037479	0.666440	0.681255
N103	N	0.576281	0.167425	0.252762
N104	N	1.076281	0.667425	0.752762
H105	H	0.997287	0.317102	0.255939
H106	H	1.497287	0.817102	0.755939
C107	C	0.629718	0.168800	-0.181232
C108	C	1.129718	0.668800	0.318768
N109	N	0.590912	0.167813	-0.252738
N110	N	1.090912	0.667813	0.247262
H111	H	0.354134	0.161755	0.156594
H112	H	0.854134	0.661755	0.656594
C113	C	0.826451	0.173835	-0.181238
C114	C	1.326451	0.673835	0.318762
N115	N	0.865263	0.174828	-0.252749
N116	N	1.365263	0.674828	0.247251
C117	C	1.183477	-0.005426	0.549047
C118	C	1.683477	0.494574	1.049047
N119	N	1.222872	-0.073706	0.507758
N120	N	1.722872	0.426294	1.007758
C121	C	1.194894	-0.208713	0.000020
C122	C	1.694894	0.291287	0.500020
N123	N	1.269596	-0.168021	0.000030
N124	N	1.769596	0.331979	0.500030
H125	H	0.957527	-0.229024	0.000004
H126	H	1.457527	0.270976	0.500004
H127	H	1.169862	0.018116	0.255922
H128	H	1.669862	0.518116	0.755922
H129	H	0.354161	0.161766	-0.156567
H130	H	0.854161	0.661766	0.343433
C131	C	0.983719	0.340658	0.549072
C132	C	1.483719	0.840658	1.049072
N133	N	0.944301	0.408922	0.507796
N134	N	1.444301	0.908922	1.007796
C135	C	0.972289	-0.456030	0.000007
C136	C	1.472289	0.043970	0.500007
N137	N	0.897587	-0.496722	0.000009
N138	N	1.397587	0.003278	0.500009
H139	H	0.524118	0.166106	-0.156575
H140	H	1.024118	0.666106	0.343425
H141	H	1.169869	0.018118	0.436713
H142	H	1.669869	0.518118	0.936713
