data_functionalizedCrystal
_audit_creation_method	'MofGen! by Chris Wilmer'
_symmetry_space_group_name_H-M	'P1'
_symmetry_Int_Tables_number	1
_symmetry_cell_setting	triclinic
loop_
_symmetry_equiv_pos_as_xyz
  x,y,z
_cell_length_a	19.188930
_cell_length_b	9.065218
_cell_length_c	8.140239
_cell_angle_alpha	89.998449
_cell_angle_beta	89.991748
_cell_angle_gamma	84.080333
loop_
_atom_site_label
_atom_site_type_symbol
_atom_site_fract_x
_atom_site_fract_y
_atom_site_fract_z
O1	O	0.102369	1.956844	-0.136639
O2	O	0.602369	2.456844	0.363361
O3	O	0.110766	1.527268	-0.136643
O4	O	0.610766	2.027268	0.363357
O5	O	0.005008	1.754452	-0.136609
O6	O	0.505008	2.254452	0.363391
O7	O	0.208127	1.729659	-0.136674
O8	O	0.708127	2.229659	0.363326
O9	O	0.005008	1.754445	0.136618
O10	O	0.505008	2.254445	0.636618
O11	O	0.110765	1.527260	0.136584
O12	O	0.610765	2.027260	0.636584
O13	O	0.102368	1.956837	0.136588
O14	O	0.602368	2.456837	0.636588
Zn15	Zn	0.106567	1.742047	0.179966
Zn16	Zn	0.606567	2.242047	0.679966
Zn17	Zn	0.106568	1.742057	-0.180022
Zn18	Zn	0.606568	2.242057	0.319978
O19	O	0.208126	1.729652	0.136553
O20	O	0.708126	2.229652	0.636553
C21	C	0.109959	1.472305	-0.000030
C22	C	0.609959	1.972305	0.499970
C23	C	0.107546	1.308546	-0.000030
C24	C	0.607546	1.808546	0.499970
C25	C	-0.021009	1.753646	0.000009
C26	C	0.478991	2.253646	0.500009
C27	C	-0.098533	1.751236	0.000023
C28	C	0.401467	2.251236	0.500023
C29	C	-0.142421	1.884540	0.000032
C30	C	0.357579	2.384540	0.500032
C31	C	-0.215262	1.882276	0.000006
C32	C	0.284738	2.382276	0.500006
C33	C	-0.244212	1.746699	0.000003
C34	C	0.255788	2.246699	0.500003
C35	C	-0.200314	1.613377	-0.000015
C36	C	0.299686	2.113377	0.499985
C37	C	-0.127474	1.615646	-0.000005
C38	C	0.372526	2.115646	0.499995
N39	N	-0.353023	1.643065	0.092987
N40	N	0.146977	2.143065	0.592987
N41	N	-0.422218	1.640920	0.092981
N42	N	0.077782	2.140920	0.592981
C43	C	-0.463674	1.739858	-0.000030
C44	C	0.036326	2.239858	0.499970
N45	N	-0.433322	1.841045	-0.093014
N46	N	0.066678	2.341045	0.406986
N47	N	-0.364121	1.843195	-0.093001
N48	N	0.135879	2.343195	0.406999
C49	C	-0.323194	1.744225	-0.000008
C50	C	0.176806	2.244225	0.499992
C51	C	-0.586546	1.870716	-0.000052
C52	C	-0.086546	2.370716	0.499948
C53	C	-0.659388	1.868446	-0.000088
C54	C	-0.159388	2.368446	0.499912
C55	C	-0.644438	1.599544	-0.000092
C56	C	-0.144438	2.099544	0.499908
C57	C	-0.571598	1.601818	-0.000072
C58	C	-0.071598	2.101818	0.499928
C59	C	-0.542656	1.737408	-0.000044
C60	C	-0.042656	2.237408	0.499956
C61	C	0.234144	1.730458	-0.000068
C62	C	0.734144	2.230458	0.499932
C63	C	0.311667	1.732869	-0.000093
C64	C	0.811667	2.232869	0.499907
C65	C	0.103176	2.011799	-0.000029
C66	C	0.603176	2.511799	0.499971
C67	C	0.105589	2.175558	-0.000040
C68	C	0.605589	2.675558	0.499960
N69	N	0.106566	1.742052	0.425649
N70	N	0.606566	2.242052	0.925649
N71	N	0.106563	1.742064	-0.425705
N72	N	0.606563	2.242064	0.074295
H73	H	-0.251003	1.990832	0.000007
H74	H	0.248997	2.490832	0.500007
C75	C	-0.305336	1.490507	-0.000006
C76	C	0.194664	1.990507	0.499994
C77	C	-0.232133	1.464349	-0.000011
C78	C	0.267867	1.964349	0.499989
H79	H	-0.324977	1.398497	0.000001
H80	H	0.175023	1.898497	0.500001
H81	H	-0.320333	1.545370	-0.095279
H82	H	0.179667	2.045370	0.404721
H83	H	-0.320343	1.545375	0.095282
H84	H	0.179657	2.045375	0.595282
H85	H	-0.217126	1.409489	-0.095306
H86	H	0.282874	1.909489	0.404694
H87	H	-0.217130	1.409462	0.095272
H88	H	0.282870	1.909462	0.595272
C89	C	-0.481019	1.448382	0.140392
C90	C	0.018981	1.948382	0.640392
C91	C	-0.523347	1.455287	-0.000065
C92	C	-0.023347	1.955287	0.499935
H93	H	-0.451229	1.357919	0.140383
H94	H	0.048771	1.857919	0.640383
H95	H	-0.509753	1.453071	0.235651
H96	H	-0.009753	1.953071	0.735651
H97	H	-0.453361	1.529462	0.140381
H98	H	0.046639	2.029462	0.640381
H99	H	-0.551010	1.374212	-0.000048
H100	H	-0.051010	1.874212	0.499952
H101	H	-0.494610	1.450583	-0.095348
H102	H	0.005390	1.950583	0.404652
C103	C	-0.749951	2.021914	-0.140563
C104	C	-0.249951	2.521914	0.359437
C105	C	-0.707632	2.014990	-0.000091
C106	C	-0.207632	2.514990	0.499909
H107	H	-0.779730	2.112391	-0.140567
H108	H	-0.279730	2.612391	0.359433
H109	H	-0.777614	1.940858	-0.140567
H110	H	-0.277614	2.440858	0.359433
H111	H	-0.721205	2.017213	-0.235821
H112	H	-0.221205	2.517213	0.264179
H113	H	-0.736377	2.019680	0.095169
H114	H	-0.236377	2.519680	0.595169
H115	H	-0.679965	2.096069	-0.000071
H116	H	-0.179965	2.596069	0.499929
H117	H	-0.118862	1.994948	0.000050
H118	H	0.381138	2.494948	0.500050
H119	H	-0.668009	1.489155	-0.000103
H120	H	-0.168009	1.989155	0.499897
C121	C	-0.513323	2.029280	0.140426
C122	C	-0.013323	2.529280	0.640426
C123	C	-0.554730	2.019756	-0.000042
C124	C	-0.054730	2.519756	0.499958
H125	H	-0.493688	2.121296	0.140432
H126	H	0.006312	2.621296	0.640432
H127	H	-0.476759	1.950225	0.140425
H128	H	0.023241	2.450225	0.640425
H129	H	-0.541446	2.022803	0.235688
H130	H	-0.041446	2.522803	0.735688
H131	H	-0.526606	2.026222	-0.095304
H132	H	-0.026606	2.526222	0.404696
H133	H	-0.591299	2.098833	-0.000055
H134	H	-0.091299	2.598833	0.499945
C135	C	-0.120015	1.349622	-0.000009
C136	C	0.379985	1.849622	0.499991
C137	C	-0.079227	1.469106	0.000001
C138	C	0.420773	1.969106	0.500001
H139	H	-0.090227	1.259156	0.000007
H140	H	0.409773	1.759156	0.500007
H141	H	-0.148724	1.354330	-0.095293
H142	H	0.351276	1.854330	0.404707
H143	H	-0.148749	1.354337	0.095269
H144	H	0.351251	1.854337	0.595269
H145	H	-0.050497	1.464398	-0.095284
H146	H	0.449503	1.964398	0.404716
H147	H	-0.050507	1.464396	0.095294
H148	H	0.449493	1.964396	0.595294
