data_functionalizedCrystal
_audit_creation_method	'MofGen! by Chris Wilmer'
_symmetry_space_group_name_H-M	'P1'
_symmetry_Int_Tables_number	1
_symmetry_cell_setting	triclinic
loop_
_symmetry_equiv_pos_as_xyz
  x,y,z
_cell_length_a	19.188925
_cell_length_b	10.654562
_cell_length_c	9.130313
_cell_angle_alpha	90.003070
_cell_angle_beta	89.999117
_cell_angle_gamma	96.183674
loop_
_atom_site_label
_atom_site_type_symbol
_atom_site_fract_x
_atom_site_fract_y
_atom_site_fract_z
O1	O	0.098101	-1.665745	-0.121894
O2	O	0.107435	-1.300071	-0.121876
O3	O	0.001181	-1.493465	-0.121877
O4	O	0.204354	-1.472352	-0.121893
O5	O	0.001184	-1.493462	0.121721
O6	O	0.107437	-1.300069	0.121723
O7	O	0.098104	-1.665743	0.121704
Cu8	Cu	0.102771	-1.482906	0.143956
Cu9	Cu	0.102768	-1.482909	-0.144128
O10	O	0.204357	-1.472350	0.121706
C11	C	0.106749	-1.253287	-0.000074
C12	C	0.104693	-1.113888	-0.000067
C13	C	-0.024833	-1.492781	-0.000079
C14	C	-0.102351	-1.490732	-0.000082
C15	C	0.098790	-1.712527	-0.000101
C16	C	0.100846	-1.851926	-0.000117
C17	C	-0.663466	-1.590489	-0.000124
C18	C	-0.590630	-1.592425	-0.000111
C19	C	-0.546441	-1.478948	-0.000106
C20	C	-0.575093	-1.363526	-0.000076
C21	C	-0.647928	-1.361594	-0.000074
N22	N	-0.426301	-1.396796	-0.083016
N23	N	-0.357111	-1.398640	-0.083021
C24	C	-0.326994	-1.484765	-0.000107
N25	N	-0.368680	-1.568995	0.082793
N26	N	-0.437876	-1.567155	0.082791
C27	C	-0.467463	-1.481031	-0.000106
C28	C	-0.219373	-1.602279	-0.000112
C29	C	-0.146535	-1.604210	-0.000090
C30	C	-0.130999	-1.375308	-0.000069
C31	C	-0.203835	-1.373380	-0.000077
C32	C	-0.248018	-1.486869	-0.000105
C33	C	0.230371	-1.473034	-0.000096
C34	C	0.307890	-1.475082	-0.000103
C35	C	0.103736	-1.048376	0.132707
C36	C	0.101809	-0.917395	0.132683
C37	C	0.101801	-0.917448	-0.132902
C38	C	0.103722	-1.048428	-0.132876
C39	C	0.104706	-1.113836	0.265516
C40	C	0.103750	-1.048324	0.398301
C41	C	0.101824	-0.917343	0.398277
C42	C	0.100854	-0.851874	0.265468
N43	N	0.102773	-1.482913	0.346579
N44	N	0.102760	-1.482911	-0.346750
C45	C	0.055740	-1.568569	0.423230
C46	C	0.055732	-1.568566	0.576567
C47	C	0.149795	-1.397246	0.576588
C48	C	0.149800	-1.397244	0.423254
C49	C	0.008713	-1.654237	0.346555
C50	C	-0.038323	-1.739902	0.423207
C51	C	-0.038331	-1.739898	0.576544
C52	C	0.008697	-1.654231	0.653229
H53	H	-0.699436	-1.682901	-0.000139
N54	N	-0.089058	-1.832269	0.340508
H55	H	-0.081920	-1.819271	0.231739
H56	H	-0.080541	-1.921311	0.367298
N57	N	0.106788	-1.255106	0.265541
H58	H	0.107258	-1.286637	0.369818
H59	H	0.064043	-1.296981	0.213355
H60	H	-0.227157	-1.279403	-0.000070
N61	N	-0.089053	-1.832296	0.659222
H62	H	-0.118838	-1.886569	0.587377
H63	H	-0.062024	-1.887646	0.722830
H64	H	-0.095021	-1.282913	-0.000052
N65	N	-0.559726	-1.716906	-0.000132
H66	H	-0.529856	-1.722813	0.090172
H67	H	-0.598809	-1.788428	-0.000198
H68	H	0.099284	-0.745220	0.265458
N69	N	0.008714	-1.654232	0.181173
H70	H	0.045644	-1.586966	0.144248
H71	H	0.019297	-1.739533	0.144349
N72	N	0.008691	-1.654210	0.818614
H73	H	-0.038842	-1.636209	0.855542
H74	H	0.019321	-1.739482	0.855437
H75	H	-0.539109	-1.271133	-0.000067
H76	H	0.104534	-1.101639	0.506430
H77	H	0.101039	-0.864008	0.506397
H78	H	-0.671248	-1.267613	-0.000054
H79	H	0.101013	-0.864132	-0.241029
H80	H	0.104505	-1.101768	-0.240993
H81	H	-0.255349	-1.694688	-0.000134
N82	N	0.200515	-1.304853	0.659290
H83	H	0.193376	-1.317854	0.768058
H84	H	0.250122	-1.319077	0.632493
N85	N	0.200527	-1.304855	0.340575
H86	H	0.250156	-1.319032	0.367256
H87	H	0.193330	-1.317897	0.231831
N88	N	-0.115637	-1.728690	-0.000096
H89	H	-0.154681	-1.800286	-0.000115
H90	H	-0.085752	-1.734471	-0.090397
