data_functionalizedCrystal
_audit_creation_method	'MofGen! by Chris Wilmer'
_symmetry_space_group_name_H-M	'P1'
_symmetry_Int_Tables_number	1
_symmetry_cell_setting	triclinic
loop_
_symmetry_equiv_pos_as_xyz
  x,y,z
_cell_length_a	12.784890
_cell_length_b	12.837942
_cell_length_c	9.198806
_cell_angle_alpha	90.002604
_cell_angle_beta	90.002877
_cell_angle_gamma	83.967749
loop_
_atom_site_label
_atom_site_type_symbol
_atom_site_fract_x
_atom_site_fract_y
_atom_site_fract_z
O1	O	1.410968	0.006424	0.120848
O2	O	1.105969	0.050419	0.120860
O3	O	1.251706	-0.121872	0.120845
O4	O	1.265232	0.178715	0.120863
O5	O	1.251693	-0.121871	-0.120940
O6	O	1.105956	0.050419	-0.120925
O7	O	1.410956	0.006425	-0.120937
Cu8	Cu	1.258455	0.028422	-0.143008
Cu9	Cu	1.258470	0.028421	0.142931
O10	O	1.265219	0.178715	-0.120922
C11	C	1.066653	0.053280	-0.000031
C12	C	0.949521	0.061794	-0.000026
C13	C	1.247130	-0.160080	-0.000046
C14	C	1.233502	-0.273929	-0.000043
C15	C	0.781351	0.168495	-0.000018
C16	C	0.891407	0.160502	-0.000019
C17	C	0.897572	-0.028928	-0.000029
C18	C	0.787516	-0.020935	-0.000029
C19	C	0.729410	0.077780	-0.000025
C20	C	0.619353	0.085771	-0.000035
C21	C	0.625519	-0.103657	-0.000035
C22	C	0.735575	-0.111650	-0.000036
C23	C	1.397334	-0.529655	-0.000020
C24	C	1.384534	-0.636627	-0.000017
C25	C	1.195104	-0.594847	-0.000024
C26	C	1.207904	-0.487875	-0.000027
C27	C	1.309022	-0.455284	-0.000027
C28	C	1.321821	-0.348309	-0.000040
C29	C	1.132391	-0.306531	-0.000037
C30	C	1.119592	-0.413503	-0.000034
C31	C	1.450272	0.003563	-0.000043
C32	C	1.567404	-0.004950	-0.000038
C33	C	1.269795	0.216924	-0.000028
C34	C	1.283422	0.330772	-0.000021
N35	N	1.258452	0.028422	-0.344122
C36	C	1.319615	-0.044208	-0.416325
C37	C	1.319631	-0.044213	-0.583737
N38	N	1.258480	0.028413	0.344045
H39	H	0.572044	0.166150	-0.000040
H40	H	0.734040	0.248872	-0.000033
H41	H	1.479668	-0.503120	-0.000034
H42	H	1.037264	-0.440054	-0.000029
N43	N	0.569501	-0.201510	-0.000038
H44	H	0.590002	-0.244305	-0.089672
H45	H	0.490979	-0.181388	0.000014
N46	N	1.389007	-0.126578	-0.665970
H47	H	1.379187	-0.114905	-0.773907
H48	H	1.369270	-0.198307	-0.639451
N49	N	0.798245	-0.218118	-0.000046
H50	H	0.844048	-0.225662	0.089583
H51	H	0.843977	-0.225586	-0.089736
N52	N	1.479786	-0.716842	-0.000031
H53	H	1.456337	-0.789555	-0.000031
H54	H	1.523388	-0.707264	0.089601
H55	H	1.060481	-0.245964	-0.000055
H56	H	0.933693	0.234372	-0.000016
N57	N	1.430877	-0.313152	-0.000049
H58	H	1.484879	-0.376502	-0.000040
H59	H	1.440315	-0.269672	0.089581
H60	H	0.944901	-0.109296	-0.000021
H61	H	1.112778	-0.621402	-0.000009
N62	N	1.388939	-0.126597	-0.334054
H63	H	1.379088	-0.114925	-0.226122
H64	H	1.464924	-0.121680	-0.360544
N65	N	1.189107	0.110791	-0.573741
H66	H	1.234124	0.152489	-0.510577
H67	H	1.138427	0.075745	-0.510687
N68	N	1.189099	0.110782	-0.426403
H69	H	1.208795	0.182551	-0.399988
H70	H	1.113117	0.105785	-0.399974
