data_functionalizedCrystal
_audit_creation_method	'MofGen! by Chris Wilmer'
_symmetry_space_group_name_H-M	'P1'
_symmetry_Int_Tables_number	1
_symmetry_cell_setting	triclinic
loop_
_symmetry_equiv_pos_as_xyz
  x,y,z
_cell_length_a	10.489711
_cell_length_b	9.565339
_cell_length_c	8.559649
_cell_angle_alpha	89.998090
_cell_angle_beta	77.152837
_cell_angle_gamma	90.005127
loop_
_atom_site_label
_atom_site_type_symbol
_atom_site_fract_x
_atom_site_fract_y
_atom_site_fract_z
O1	O	1.670389	0.116303	0.224945
O2	O	1.296957	0.116293	0.246131
O3	O	1.516573	0.116297	0.003310
O4	O	1.450773	0.116299	0.467766
O5	O	1.516556	-0.116223	0.003325
O6	O	1.296940	-0.116227	0.246146
O7	O	1.670372	-0.116218	0.224960
Zn8	Zn	1.483653	-0.153140	0.235556
Zn9	Zn	1.483676	0.153216	0.235536
O10	O	1.450756	-0.116221	0.467781
C11	C	1.249584	0.000032	0.244549
C12	C	1.108454	0.000029	0.239791
C13	C	0.910691	0.000046	0.385817
C14	C	1.010525	0.114688	0.312868
C15	C	1.010486	-0.114559	0.312843
C16	C	0.956851	0.114796	0.158286
C17	C	0.956800	-0.114554	0.158284
C18	C	1.056619	0.000117	0.085222
N19	N	1.483648	-0.362219	0.235568
C20	C	1.382059	-0.453424	0.347827
C21	C	1.494159	-0.546600	0.380107
C22	C	1.371597	-0.546598	0.203301
C23	C	1.595798	-0.453343	0.267920
C24	C	1.473166	-0.453334	0.091052
C25	C	1.585355	-0.546467	0.123271
C26	C	1.717745	0.000047	0.226542
C27	C	1.858875	0.000059	0.231300
N28	N	1.483693	0.362295	0.235510
C29	C	1.521551	0.000040	-0.056155
C30	C	1.536393	0.000048	-0.233367
C31	C	1.445778	0.000039	0.527247
C32	C	1.430936	0.000040	0.704458
H33	H	0.932928	0.211831	0.092962
N34	N	1.042442	0.243079	0.399466
H35	H	1.077339	0.213841	0.495393
H36	H	1.110593	0.300462	0.324499
N37	N	1.296292	0.000016	-0.186487
H38	H	1.304417	0.000018	-0.071106
H39	H	1.247189	0.086206	-0.207777
N40	N	1.042366	-0.242940	0.399485
H41	H	0.960643	-0.300750	0.436462
H42	H	1.110573	-0.300283	0.324570
N43	N	1.268332	-0.399312	0.473677
H44	H	1.276442	-0.433245	0.582782
H45	H	1.268688	-0.293736	0.471993
H46	H	1.638042	0.000039	-0.315716
H47	H	1.503055	-0.587566	0.502296
H48	H	0.847628	0.000160	0.512818
N49	N	1.461322	-0.399017	-0.070745
H50	H	1.462259	-0.293437	-0.069814
H51	H	1.537189	-0.434436	-0.155741
H52	H	1.119462	0.000174	-0.041897
H53	H	1.276819	-0.587565	0.176036
N54	N	1.721358	-0.399329	0.304223
H55	H	1.720551	-0.293744	0.304067
H56	H	1.729466	-0.434181	0.412970
N57	N	1.699278	-0.600257	-0.002521
H58	H	1.783827	-0.566150	0.022041
H59	H	1.698120	-0.705835	-0.002427
N60	N	0.924807	-0.242937	0.071748
H61	H	0.943805	-0.329497	0.130217
H62	H	0.829216	-0.241356	0.068231
