data_functionalizedCrystal
_audit_creation_method	'MofGen! by Chris Wilmer'
_symmetry_space_group_name_H-M	'P1'
_symmetry_Int_Tables_number	1
_symmetry_cell_setting	triclinic
loop_
_symmetry_equiv_pos_as_xyz
  x,y,z
_cell_length_a	15.995292
_cell_length_b	19.188924
_cell_length_c	15.072220
_cell_angle_alpha	89.996779
_cell_angle_beta	89.986330
_cell_angle_gamma	83.305290
loop_
_atom_site_label
_atom_site_type_symbol
_atom_site_fract_x
_atom_site_fract_y
_atom_site_fract_z
O1	O	1.110695	0.089798	-0.073811
O2	O	0.866872	0.100954	-0.073808
O3	O	0.995822	-0.006263	-0.073799
O4	O	0.981744	0.197016	-0.073819
O5	O	0.995791	-0.006257	0.073766
O6	O	0.866840	0.100960	0.073757
O7	O	1.110663	0.089804	0.073755
Zn8	Zn	0.988746	0.095383	0.097185
Zn9	Zn	0.988788	0.095375	-0.097238
O10	O	0.981712	0.197022	0.073746
C11	C	0.835662	0.100503	-0.000025
C12	C	0.742714	0.099142	-0.000023
C13	C	0.404994	0.094138	-0.000033
C14	C	0.428021	0.171524	-0.000370
C15	C	0.524691	0.172995	-0.000034
C16	C	0.572541	0.096621	-0.000028
C17	C	0.543563	0.057935	0.084240
C18	C	0.446776	0.057003	0.084306
C19	C	0.446963	0.055416	-0.083503
C20	C	0.543445	0.058284	-0.084613
C21	C	0.667232	0.098020	-0.000023
C22	C	0.310303	0.092736	-0.000032
C23	C	0.995351	-0.032272	-0.000015
C24	C	0.993986	-0.109780	-0.000013
C25	C	0.993366	-0.146184	-0.080451
C26	C	0.992071	-0.219010	-0.080458
C27	C	0.991412	-0.255431	-0.000022
C28	C	0.992028	-0.219018	0.080427
C29	C	0.993315	-0.146192	0.080431
N30	N	1.037029	-0.374983	0.059844
N31	N	1.035808	-0.444164	0.059834
C32	C	0.987534	-0.474849	-0.000030
N33	N	0.940537	-0.433740	-0.059899
N34	N	0.941761	-0.364553	-0.059891
C35	C	0.990017	-0.334397	-0.000018
C36	C	0.985508	-0.590219	-0.080481
C37	C	0.984208	-0.663045	-0.080485
C38	C	0.984174	-0.663053	0.080402
C39	C	0.985466	-0.590227	0.080403
C40	C	0.986137	-0.553814	-0.000041
C41	C	1.141873	0.090255	-0.000031
C42	C	1.234821	0.091617	-0.000038
C43	C	0.982183	0.223031	-0.000040
C44	C	0.983549	0.300539	-0.000048
N45	N	0.988724	0.095388	0.229874
N46	N	0.988817	0.095365	-0.229927
C47	C	0.988786	0.095373	0.589075
C48	C	0.919557	0.152550	0.551464
C49	C	0.919715	0.152759	0.448638
C50	C	0.988755	0.095380	0.410871
C51	C	1.076063	0.111277	0.448160
C52	C	1.075675	0.111683	0.551017
C53	C	0.971487	0.022129	0.551184
C54	C	0.969480	0.022618	0.448320
C55	C	0.988742	0.095383	0.310158
C56	C	0.988805	0.095371	0.689789
H57	H	0.398879	0.201190	0.059717
H58	H	0.930422	0.206597	0.577296
C59	C	0.986162	-0.550182	0.168886
H60	H	0.985592	-0.582302	0.216791
H61	H	0.937848	-0.516437	0.172235
H62	H	1.035489	-0.527111	0.172227
H63	H	0.576622	0.002538	-0.089698
H64	H	1.091721	0.164083	0.422385
C65	C	0.986236	-0.550158	-0.168961
H66	H	0.987103	-0.501572	-0.157439
H67	H	0.937214	-0.556754	-0.202013
H68	H	1.034855	-0.567428	-0.202013
C69	C	0.983524	-0.703092	-0.168969
H70	H	0.982651	-0.751679	-0.157452
H71	H	1.032562	-0.696493	-0.202017
H72	H	0.934922	-0.685818	-0.202021
H73	H	0.991561	-0.248655	-0.145962
H74	H	0.930734	0.207112	0.424018
C75	C	1.147308	0.056521	0.415106
H76	H	1.124385	0.023402	0.378179
H77	H	1.174620	0.033010	0.464481
H78	H	1.186868	0.079373	0.382246
C79	C	0.832029	0.139981	0.414578
H80	H	0.795989	0.134618	0.463605
H81	H	0.836776	0.098610	0.379445
H82	H	0.809217	0.178846	0.379685
C83	C	0.550263	0.213930	-0.081629
H84	H	0.501528	0.229811	-0.115280
H85	H	0.588175	0.184136	-0.117280
H86	H	0.576849	0.253113	-0.062662
H87	H	0.993910	-0.116541	-0.145955
H88	H	0.909219	0.006840	0.577177
C89	C	0.994005	-0.106148	0.168917
H90	H	0.993431	-0.138267	0.216823
H91	H	0.945692	-0.072401	0.172263
H92	H	1.043332	-0.083078	0.172259
C93	C	0.390060	0.211824	-0.082000
H94	H	0.359822	0.181819	-0.116606
H95	H	0.433969	0.227226	-0.116700
H96	H	0.352948	0.251286	-0.063050
H97	H	0.575639	0.001734	0.087377
H98	H	1.090960	0.165099	0.574993
H99	H	0.433180	-0.001546	-0.084068
C100	C	1.033205	-0.037555	0.413609
H101	H	1.072578	-0.019006	0.375658
H102	H	1.004271	-0.069963	0.381502
H103	H	1.062100	-0.060809	0.462261
C104	C	1.147334	0.057564	0.584631
H105	H	1.176558	0.035432	0.535422
H106	H	1.124438	0.023258	0.619665
H107	H	1.185226	0.080621	0.619531
H108	H	0.991490	-0.248676	0.145918
H109	H	0.419847	0.083801	0.147294
C110	C	0.549395	0.214168	0.081705
H111	H	0.608628	0.215214	0.082186
H112	H	0.532868	0.191927	0.134122
H113	H	0.521936	0.260773	0.079226
H114	H	0.905257	0.010554	0.423950
H115	H	0.561924	0.086451	-0.146954
H116	H	0.432435	0.000263	0.088138
C117	C	1.039684	-0.035353	0.584046
H118	H	1.078516	-0.014855	0.620681
H119	H	1.068549	-0.057405	0.534582
H120	H	1.014057	-0.069255	0.617169
C121	C	0.570497	0.094232	0.168957
H122	H	0.552676	0.070435	0.219599
H123	H	0.545404	0.141600	0.169709
H124	H	0.630033	0.093042	0.169834
C125	C	0.408696	0.088163	-0.169788
H126	H	0.366762	0.125761	-0.155711
H127	H	0.384069	0.053588	-0.202692
H128	H	0.451654	0.105361	-0.204185
C129	C	0.983443	-0.703107	0.168880
H130	H	0.982590	-0.751693	0.157358
H131	H	0.934829	-0.685836	0.201930
H132	H	1.032469	-0.696511	0.201934
C133	C	0.831588	0.139980	0.584925
H134	H	0.836290	0.099752	0.622139
H135	H	0.796527	0.132689	0.535731
H136	H	0.807682	0.179744	0.617573
