data_functionalizedCrystal
_audit_creation_method	'MofGen! by Chris Wilmer'
_symmetry_space_group_name_H-M	'P1'
_symmetry_Int_Tables_number	1
_symmetry_cell_setting	triclinic
loop_
_symmetry_equiv_pos_as_xyz
  x,y,z
_cell_length_a	29.839134
_cell_length_b	29.839131
_cell_length_c	21.295411
_cell_angle_alpha	90.020364
_cell_angle_beta	90.036602
_cell_angle_gamma	90.034165
loop_
_atom_site_label
_atom_site_type_symbol
_atom_site_fract_x
_atom_site_fract_y
_atom_site_fract_z
Zn1	Zn	0.686774	-0.178991	0.356119
Zn2	Zn	0.686690	-0.254107	0.250847
Zn3	Zn	0.611641	-0.178982	0.250842
Zn4	Zn	0.611605	-0.254086	0.356057
O5	O	0.649177	-0.216542	0.303466
O6	O	0.749630	-0.188968	0.342183
O7	O	0.676715	-0.244147	0.162757
O8	O	0.621658	-0.116116	0.264832
O9	O	0.749568	-0.244155	0.264840
O10	O	0.676858	-0.116123	0.342178
O11	O	0.621576	-0.188953	0.162753
O12	O	0.548769	-0.188932	0.264771
O13	O	0.621596	-0.244119	0.444154
O14	O	0.548742	-0.244110	0.342071
O15	O	0.676823	-0.188948	0.444200
O16	O	0.676680	-0.316971	0.264779
O17	O	0.621515	-0.316956	0.342076
C18	C	0.532455	-0.216518	0.303414
C19	C	0.482520	-0.216519	0.303407
C20	C	0.125935	-0.187768	0.263298
C21	C	0.313608	-0.187755	0.263260
O22	O	0.337873	-0.163272	0.229099
N23	N	0.337075	-0.216526	0.303438
C24	C	0.313622	-0.245301	0.343632
O25	O	0.337889	-0.269769	0.377811
C26	C	0.125950	-0.245311	0.343673
C27	C	0.102484	-0.216541	0.303488
C28	C	0.102469	-0.159000	0.223116
C29	C	0.055554	-0.159005	0.223123
C30	C	0.032104	-0.187778	0.263313
C31	C	0.055569	-0.216546	0.303495
C32	C	0.102497	-0.274082	0.383870
C33	C	0.055576	-0.274081	0.383878
C34	C	0.032111	-0.245312	0.343692
C35	C	-0.014797	-0.245324	0.343692
N36	N	-0.038264	-0.216553	0.303514
C37	C	-0.014814	-0.187780	0.263324
C38	C	0.412152	-0.245294	0.343607
C39	C	0.459070	-0.245292	0.343596
C40	C	0.459053	-0.187746	0.263224
C41	C	0.412134	-0.187750	0.263232
C42	C	0.388685	-0.216523	0.303429
C43	C	-0.113340	-0.187793	0.263342
C44	C	-0.160260	-0.187803	0.263352
C45	C	-0.160238	-0.245347	0.343726
C46	C	-0.113323	-0.245340	0.343714
C47	C	-0.089875	-0.216559	0.303521
O48	O	-0.039091	-0.269791	0.377840
O49	O	-0.039089	-0.163309	0.229161
C50	C	0.172850	-0.187763	0.263290
C51	C	0.196315	-0.216530	0.303472
C52	C	0.172865	-0.245303	0.343662
C53	C	0.243233	-0.216529	0.303462
C54	C	0.266683	-0.187756	0.263272
C55	C	0.243216	-0.158985	0.223093
C56	C	0.196300	-0.158990	0.223101
C57	C	0.196333	-0.274075	0.383841
C58	C	0.243248	-0.274067	0.383829
C59	C	0.266698	-0.245294	0.343640
C60	C	0.649096	-0.333264	0.303435
C61	C	0.649103	-0.383199	0.303443
C62	C	0.677954	-0.692837	0.263276
C63	C	0.678010	-0.880511	0.263301
O64	O	0.702476	-0.904772	0.229126
N65	N	0.649271	-0.903984	0.303514
C66	C	0.620518	-0.880536	0.343726
O67	O	0.596078	-0.904807	0.377935
C68	C	0.620465	-0.692863	0.343704
C69	C	0.649203	-0.669393	0.303484
C70	C	0.706690	-0.669367	0.223060
C71	C	0.706674	-0.622451	0.223052
C72	C	0.677922	-0.599007	0.263260
C73	C	0.649187	-0.622477	0.303476
C74	C	0.591715	-0.669416	0.383920
C75	C	0.591705	-0.622495	0.383912
C76	C	0.620443	-0.599025	0.343692
C77	C	0.620419	-0.552117	0.343676
N78	N	0.649158	-0.528644	0.303463
C79	C	0.677910	-0.552089	0.263255
C80	C	0.620547	-0.979066	0.343734
C81	C	0.620560	-1.025984	0.343739
C82	C	0.678052	-1.025956	0.263314
C83	C	0.678037	-0.979037	0.263307
C84	C	0.649286	-0.955593	0.303521
C85	C	0.677874	-0.453563	0.263241
C86	C	0.677854	-0.406643	0.263235
C87	C	0.620364	-0.406676	0.343661
C88	C	0.620382	-0.453591	0.343666
C89	C	0.649140	-0.477034	0.303453
O90	O	0.595970	-0.527827	0.377838
O91	O	0.702353	-0.527809	0.229062
C92	C	0.677970	-0.739753	0.263285
C93	C	0.649234	-0.763224	0.303501
C94	C	0.620483	-0.739779	0.343709
C95	C	0.649247	-0.810141	0.303505
C96	C	0.677998	-0.833586	0.263297
C97	C	0.706737	-0.810113	0.223085
C98	C	0.706721	-0.763198	0.223077
C99	C	0.591744	-0.763252	0.383922
C100	C	0.591762	-0.810167	0.383926
C101	C	0.620513	-0.833612	0.343718
C102	C	0.766356	-0.216565	0.303519
C103	C	0.816290	-0.216575	0.303541
C104	C	0.649215	-0.216532	0.467656
C105	C	0.649231	-0.216528	0.537625
C106	C	0.649271	-0.099363	0.303511
C107	C	0.649311	-0.049429	0.303531
C108	C	0.649166	-0.216519	0.139915
C109	C	0.649237	-0.216396	0.069947
C110	C	0.677986	-0.187799	0.570516
C111	C	0.677985	-0.187780	0.636259
C112	C	0.649234	-0.216497	0.669107
C113	C	0.620473	-0.245228	0.636208
C114	C	0.620471	-0.245244	0.570466
N115	N	0.645761	-0.255797	0.772323
N116	N	0.645765	-0.255781	0.834774
C117	C	0.649237	-0.216452	0.867182
N118	N	0.652713	-0.177138	0.834779
N119	N	0.652711	-0.177154	0.772322
C120	C	0.649233	-0.216483	0.740393
C121	C	0.677993	-0.187699	0.971359
C122	C	0.677989	-0.187679	1.037103
C123	C	0.620480	-0.245131	1.037051
C124	C	0.620481	-0.245148	0.971308
C125	C	0.649240	-0.216432	0.938466
H126	H	0.036453	-0.135578	0.190400
F127	F	0.737266	-0.597478	0.180251
H128	H	0.730147	-0.829210	0.190344
H129	H	-0.094216	-0.268770	0.376432
H130	H	0.177199	-0.135562	0.190378
H131	H	0.568293	-0.603409	0.416661
H132	H	0.596953	-0.387580	0.376396
F133	F	0.561132	-0.694385	0.426733
H134	H	0.596982	-0.472702	0.376418
F135	F	0.708592	-0.157235	0.535567
F136	F	0.589865	-0.275822	0.535460
F137	F	0.708442	-0.381667	0.220425
H138	H	0.262317	-0.135558	0.190367
H139	H	0.701405	-0.164282	1.063882
F140	F	0.561172	-0.835142	0.426735
F141	F	0.708584	-0.157194	0.671272
H142	H	0.597062	-0.268609	0.662957
H143	H	0.730122	-0.744091	0.190326
H144	H	0.701438	-0.959930	0.230556
F145	F	0.589877	-0.275692	1.072006
F146	F	0.708482	-0.478506	0.220443
H147	H	0.568331	-0.744167	0.416665
F148	F	0.708599	-0.157136	0.936404
F149	F	-0.185230	-0.157181	0.220578
F150	F	0.268216	-0.304693	0.426601
H151	H	0.597068	-0.268545	0.944527
H152	H	-0.094254	-0.164356	0.230616
F153	F	0.484018	-0.157124	0.220451
H154	H	0.121558	-0.135567	0.190389
H155	H	-0.179340	-0.268775	0.376445
H156	H	0.393032	-0.164322	0.230512
H157	H	0.478172	-0.268724	0.376313
H158	H	0.121594	-0.297510	0.416593
F159	F	0.387201	-0.275921	0.386391
H160	H	0.701463	-1.045052	0.230575
F161	F	0.737294	-0.694311	0.180263
F162	F	0.030622	-0.304705	0.426663
F163	F	0.589968	-1.050958	0.386539
F164	F	0.589944	-0.954121	0.386538
F165	F	0.171381	-0.304701	0.426618
