data_functionalizedCrystal
_audit_creation_method	'MofGen! by Chris Wilmer'
_symmetry_space_group_name_H-M	'P1'
_symmetry_Int_Tables_number	1
_symmetry_cell_setting	triclinic
loop_
_symmetry_equiv_pos_as_xyz
  x,y,z
_cell_length_a	15.944551
_cell_length_b	11.792241
_cell_length_c	10.268362
_cell_angle_alpha	90.005428
_cell_angle_beta	90.000094
_cell_angle_gamma	83.846077
loop_
_atom_site_label
_atom_site_type_symbol
_atom_site_fract_x
_atom_site_fract_y
_atom_site_fract_z
O1	O	-1.115185	-0.146381	-0.108165
O2	O	-0.870717	-0.164428	-0.108197
O3	O	-0.998883	0.009815	-0.108171
O4	O	-0.987018	-0.320624	-0.108191
O5	O	-0.998872	0.009822	0.108429
O6	O	-0.870705	-0.164421	0.108403
O7	O	-1.115173	-0.146373	0.108436
Cu8	Cu	-0.992938	-0.155396	0.128197
Cu9	Cu	-0.992952	-0.155405	-0.127958
O10	O	-0.987007	-0.320616	0.108410
C11	C	-0.839414	-0.163675	0.000099
C12	C	-0.746157	-0.161429	0.000087
N13	N	-0.992935	-0.155390	0.308363
C14	C	-1.146476	-0.147126	0.000137
C15	C	-1.239733	-0.149372	0.000140
C16	C	-0.530789	-0.048056	0.000119
C17	C	-0.470012	-0.100706	-0.106680
C18	C	-0.575413	-0.157365	0.000102
C19	C	-0.470023	-0.100725	0.106871
C20	C	-0.410483	-0.153432	0.000123
C21	C	-0.515865	-0.210045	-0.106785
C22	C	-0.515882	-0.210049	0.106863
C23	C	-0.455123	-0.262778	0.000038
C24	C	-0.670426	-0.159628	0.000089
C25	C	-0.315471	-0.151178	0.000127
C26	C	-0.998132	0.052104	0.000129
C27	C	-0.995901	0.178099	0.000127
C28	C	-0.987758	-0.362905	0.000107
C29	C	-0.989989	-0.488900	0.000100
C30	C	-0.991799	0.408777	0.000105
C31	C	-0.994079	0.280411	0.000117
N32	N	-0.992961	-0.155402	-0.308124
C33	C	-0.992947	-0.155403	0.574033
C34	C	-0.992938	-0.155399	0.426195
H35	H	-0.449698	-0.054476	-0.196965
H36	H	-0.536065	-0.256247	-0.197173
H37	H	-0.422374	-0.353590	-0.000027
H38	H	-0.563713	0.042662	-0.000008
C39	C	-0.520465	-0.214992	0.340482
C40	C	-0.543349	-0.272402	0.228746
H41	H	-0.537430	-0.253477	0.415733
H42	H	-0.461037	-0.213423	0.341795
H43	H	-0.547423	-0.139143	0.339704
H44	H	-0.516386	-0.348249	0.229520
H45	H	-0.602789	-0.273983	0.227434
C46	C	-0.481190	0.074124	0.228543
C47	C	-0.442619	-0.038289	0.228760
H48	H	-0.464276	0.112671	0.303792
H49	H	-0.464718	0.112199	0.152716
H50	H	-0.540736	0.073738	0.228997
H51	H	-0.383073	-0.037902	0.228297
H52	H	-0.459086	-0.076373	0.304607
