data_functionalizedCrystal
_audit_creation_method	'MofGen! by Chris Wilmer'
_symmetry_space_group_name_H-M	'P1'
_symmetry_Int_Tables_number	1
_symmetry_cell_setting	triclinic
loop_
_symmetry_equiv_pos_as_xyz
  x,y,z
_cell_length_a	25.639243
_cell_length_b	25.639240
_cell_length_c	25.639234
_cell_angle_alpha	90.026973
_cell_angle_beta	90.023193
_cell_angle_gamma	90.045843
loop_
_atom_site_label
_atom_site_type_symbol
_atom_site_fract_x
_atom_site_fract_y
_atom_site_fract_z
Zn1	Zn	-0.799246	0.208145	-0.295649
Zn2	Zn	-0.299246	0.708145	0.204351
Zn3	Zn	-0.799152	0.295573	-0.208210
Zn4	Zn	-0.299152	0.795573	0.291790
Zn5	Zn	-0.711811	0.208158	-0.208222
Zn6	Zn	-0.211811	0.708158	0.291778
Zn7	Zn	-0.711760	0.295556	-0.295609
Zn8	Zn	-0.211760	0.795556	0.204391
O9	O	-0.755492	0.251858	-0.251923
O10	O	-0.255492	0.751858	0.248077
O11	O	-0.872399	0.219745	-0.284061
O12	O	-0.372399	0.719745	0.215939
O13	O	-0.787547	0.283990	-0.135046
O14	O	-0.287547	0.783990	0.364954
O15	O	-0.723470	0.134991	-0.219841
O16	O	-0.223470	0.634991	0.280159
O17	O	-0.872329	0.283978	-0.219820
O18	O	-0.372329	0.783978	0.280180
O19	O	-0.787708	0.134982	-0.284073
O20	O	-0.287708	0.634982	0.215927
O21	O	-0.723379	0.219767	-0.135055
O22	O	-0.223379	0.719767	0.364945
O23	O	-0.638639	0.219749	-0.219803
O24	O	-0.138639	0.719749	0.280197
O25	O	-0.723384	0.283948	-0.368780
O26	O	-0.223384	0.783948	0.131220
O27	O	-0.638602	0.283960	-0.284006
O28	O	-0.138602	0.783960	0.215994
O29	O	-0.787659	0.219728	-0.368809
O30	O	-0.287659	0.719728	0.131191
O31	O	-0.787498	0.368736	-0.219782
O32	O	-0.287498	0.868736	0.280218
O33	O	-0.723292	0.368723	-0.283994
O34	O	-0.223292	0.868723	0.216006
C35	C	-0.619650	0.251854	-0.251902
C36	C	-0.119650	0.751854	0.248098
C37	C	-0.561536	0.251865	-0.251905
C38	C	-0.061536	0.751865	0.248095
C39	C	-0.201203	0.218464	-0.285428
C40	C	0.298797	0.718464	0.214572
C41	C	-0.146599	0.218463	-0.285431
C42	C	0.353401	0.718463	0.214569
O43	O	-0.118388	0.190055	-0.313908
O44	O	0.381612	0.690055	0.186092
N45	N	-0.119253	0.251856	-0.251936
N46	N	0.380747	0.751856	0.248064
C47	C	-0.146515	0.285247	-0.218432
C48	C	0.353485	0.785247	0.281568
O49	O	-0.118241	0.313650	-0.189942
O50	O	0.381759	0.813650	0.310058
C51	C	-0.201118	0.285245	-0.218427
C52	C	0.298882	0.785245	0.281573
C53	C	-0.228461	0.251854	-0.251928
C54	C	0.271539	0.751854	0.248072
C55	C	-0.228546	0.185075	-0.318926
C56	C	0.271454	0.685075	0.181074
C57	C	-0.283146	0.185077	-0.318923
C58	C	0.216854	0.685077	0.181077
C59	C	-0.310404	0.218467	-0.285423
C60	C	0.189596	0.718467	0.214577
C61	C	-0.283061	0.251855	-0.251925
C62	C	0.216939	0.751855	0.248075
C63	C	-0.228379	0.318633	-0.184921
C64	C	0.271621	0.818633	0.315079
C65	C	-0.282986	0.318628	-0.184918
C66	C	0.217014	0.818628	0.315082
C67	C	-0.310328	0.285237	-0.218419
C68	C	0.189672	0.785237	0.281581
C69	C	-0.364920	0.285247	-0.218422
C70	C	0.135080	0.785247	0.281578
N71	N	-0.392265	0.251854	-0.251917
N72	N	0.107735	0.751854	0.248083
C73	C	-0.365008	0.218464	-0.285417
C74	C	0.134992	0.718464	0.214583
C75	C	-0.031844	0.285250	-0.218446
C76	C	0.468156	0.785250	0.281554
C77	C	0.022758	0.285255	-0.218453
C78	C	0.522758	0.785255	0.281547
C79	C	0.022670	0.218470	-0.285452
C80	C	0.522670	0.718470	0.214548
C81	C	-0.031933	0.218468	-0.285446
C82	C	0.468067	0.718468	0.214554
C83	C	-0.059190	0.251857	-0.251941
C84	C	0.440810	0.751857	0.248059
C85	C	-0.479673	0.218470	-0.285410
C86	C	0.020327	0.718470	0.214590
C87	C	-0.534278	0.218475	-0.285406
C88	C	-0.034278	0.718475	0.214594
C89	C	-0.534185	0.285258	-0.218406
C90	C	-0.034185	0.785258	0.281594
C91	C	-0.479585	0.285254	-0.218411
C92	C	0.020415	0.785254	0.281589
C93	C	-0.452330	0.251856	-0.251915
C94	C	0.047670	0.751856	0.248085
O95	O	-0.393165	0.313639	-0.189958
O96	O	0.106835	0.813639	0.310042
O97	O	-0.393288	0.190061	-0.313898
O98	O	0.106712	0.690061	0.186102
C99	C	-0.755394	0.387701	-0.251894
C100	C	-0.255394	0.887701	0.248106
C101	C	-0.755399	0.445815	-0.251899
C102	C	-0.255399	0.945815	0.248101
C103	C	0.108135	0.251862	-0.251944
C104	C	0.608135	0.751862	0.248056
C105	C	0.050021	0.251863	-0.251952
C106	C	0.550021	0.751863	0.248048
C107	C	-0.788968	0.806172	-0.218524
C108	C	-0.288968	1.306172	0.281476
C109	C	-0.788984	0.860776	-0.218529
C110	C	-0.288984	1.360776	0.281471
O111	O	-0.817456	0.889008	-0.190137
O112	O	-0.317456	1.389008	0.309863
N113	N	-0.755534	0.888097	-0.251934
N114	N	-0.255534	1.388097	0.248066
C115	C	-0.722070	0.860811	-0.285340
C116	C	-0.222070	1.360811	0.214660
O117	O	-0.693621	0.889063	-0.313754
O118	O	-0.193621	1.389063	0.186246
C119	C	-0.722057	0.806207	-0.285337
C120	C	-0.222057	1.306207	0.214663
C121	C	-0.755506	0.778889	-0.251927
C122	C	-0.255506	1.278889	0.248073
C123	C	-0.822414	0.778854	-0.185117
C124	C	-0.322414	1.278854	0.314883
C125	C	-0.822397	0.724253	-0.185111
C126	C	-0.322397	1.224253	0.314889
C127	C	-0.788935	0.696971	-0.218513
C128	C	-0.288935	1.196971	0.281487
C129	C	-0.755489	0.724289	-0.251921
C130	C	-0.255489	1.224289	0.248079
C131	C	-0.688596	0.778922	-0.318745
C132	C	-0.188596	1.278922	0.181255
C133	C	-0.688586	0.724315	-0.318740
C134	C	-0.188586	1.224315	0.181260
C135	C	-0.722035	0.696997	-0.285329
C136	C	-0.222035	1.196997	0.214671
C137	C	-0.722009	0.642406	-0.285317
C138	C	-0.222009	1.142406	0.214683
N139	N	-0.755459	0.615085	-0.251913
N140	N	-0.255459	1.115085	0.248087
C141	C	-0.788922	0.642368	-0.218511
C142	C	-0.288922	1.142368	0.281489
C143	C	-0.722101	0.975481	-0.285344
C144	C	-0.222101	1.475481	0.214656
C145	C	-0.722111	1.030084	-0.285344
C146	C	-0.222111	1.530084	0.214656
C147	C	-0.789025	1.030045	-0.218534
C148	C	-0.289025	1.530045	0.281466
C149	C	-0.789012	0.975442	-0.218532
C150	C	-0.289012	1.475442	0.281468
C151	C	-0.755550	0.948161	-0.251939
C152	C	-0.255550	1.448161	0.248061
C153	C	-0.788883	0.527703	-0.218501
C154	C	-0.288883	1.027703	0.281499
C155	C	-0.788862	0.473097	-0.218497
C156	C	-0.288862	0.973097	0.281503
C157	C	-0.721950	0.473140	-0.285309
C158	C	-0.221950	0.973140	0.214691
C159	C	-0.721969	0.527741	-0.285311
C160	C	-0.221969	1.027741	0.214689
C161	C	-0.755440	0.555021	-0.251906
C162	C	-0.255440	1.055021	0.248094
O163	O	-0.693553	0.614139	-0.313697
O164	O	-0.193553	1.114139	0.186303
O165	O	-0.817371	0.614108	-0.190106
O166	O	-0.317371	1.114108	0.309894
C167	C	-0.755526	0.251834	-0.388296
C168	C	-0.255526	0.751834	0.111704
C169	C	-0.755541	0.251824	-0.446410
C170	C	-0.255541	0.751824	0.053590
C171	C	-0.755586	1.115485	-0.251954
C172	C	-0.255586	1.615485	0.248046
C173	C	-0.755576	1.057371	-0.251944
C174	C	-0.255576	1.557371	0.248056
C175	C	-0.722143	0.218320	-0.806783
C176	C	-0.222143	0.718320	-0.306783
C177	C	-0.722146	0.218311	-0.861388
C178	C	-0.222146	0.718311	-0.361388
O179	O	-0.693723	0.189883	-0.889633
O180	O	-0.193723	0.689883	-0.389633
N181	N	-0.755558	0.251742	-0.888692
N182	N	-0.255558	0.751742	-0.388692
C183	C	-0.788966	0.285188	-0.861390
C184	C	-0.288966	0.785188	-0.361390
O185	O	-0.817386	0.313624	-0.889629
O186	O	-0.317386	0.813624	-0.389629
C187	C	-0.788960	0.285200	-0.806787
C188	C	-0.288960	0.785200	-0.306787
C189	C	-0.755549	0.251763	-0.779485
C190	C	-0.255549	0.751763	-0.279485
C191	C	-0.688734	0.184887	-0.779481
C192	C	-0.188734	0.684887	-0.279481
C193	C	-0.688732	0.184895	-0.724880
C194	C	-0.188732	0.684895	-0.224880
C195	C	-0.722139	0.218338	-0.697582
C196	C	-0.222139	0.718338	-0.197582
C197	C	-0.755547	0.251772	-0.724884
C198	C	-0.255547	0.751772	-0.224884
C199	C	-0.822365	0.318649	-0.779486
C200	C	-0.322365	0.818649	-0.279486
C201	C	-0.822356	0.318658	-0.724879
C202	C	-0.322356	0.818658	-0.224879
C203	C	-0.788945	0.285221	-0.697576
C204	C	-0.288945	0.785221	-0.197576
C205	C	-0.788952	0.285224	-0.642985
C206	C	-0.288952	0.785224	-0.142985
N207	N	-0.755540	0.251793	-0.615680
N208	N	-0.255540	0.751793	-0.115680
C209	C	-0.722133	0.218350	-0.642979
C210	C	-0.222133	0.718350	-0.142979
C211	C	-0.788975	0.285162	-0.976061
C212	C	-0.288975	0.785162	-0.476061
C213	C	-0.788984	0.285148	-1.030663
C214	C	-0.288984	0.785148	-0.530663
C215	C	-0.722163	0.218271	-1.030657
C216	C	-0.222163	0.718271	-0.530657
C217	C	-0.722157	0.218283	-0.976053
C218	C	-0.222157	0.718283	-0.476053
C219	C	-0.755563	0.251731	-0.948756
C220	C	-0.255563	0.751731	-0.448756
C221	C	-0.722132	0.218371	-0.528314
C222	C	-0.222132	0.718371	-0.028314
C223	C	-0.722134	0.218381	-0.473708
C224	C	-0.222134	0.718381	0.026292
C225	C	-0.788953	0.285260	-0.473719
C226	C	-0.288953	0.785260	0.026281
C227	C	-0.788953	0.285248	-0.528320
C228	C	-0.288953	0.785248	-0.028320
C229	C	-0.755538	0.251802	-0.555616
C230	C	-0.255538	0.751802	-0.055616
O231	O	-0.817359	0.313639	-0.614705
O232	O	-0.317359	0.813639	-0.114705
O233	O	-0.693713	0.189924	-0.614733
O234	O	-0.193713	0.689924	-0.114733
C235	C	-0.755489	0.251844	-0.116080
C236	C	-0.255489	0.751844	0.383920
C237	C	-0.755575	0.251707	-0.057966
C238	C	-0.255575	0.751707	0.442034
H239	H	-0.054192	0.191277	-0.312725
H240	H	0.445808	0.691277	0.187275
H241	H	-0.305404	0.157885	-0.346202
H242	H	0.194596	0.657885	0.153798
F243	F	-0.060848	0.320792	-0.182784
F244	F	0.439152	0.820792	0.317216
H245	H	-0.694734	0.549984	-0.312518
H246	H	-0.194734	1.049984	0.187482
F247	F	-0.686607	0.182679	-1.059719
F248	F	-0.186607	0.682679	-0.559719
F249	F	-0.824508	0.320848	-0.444657
F250	F	-0.324508	0.820848	0.055343
H251	H	-0.816197	0.312370	-1.052888
H252	H	-0.316197	0.812370	-0.552888
F253	F	-0.857911	0.354261	-0.695830
F254	F	-0.357911	0.854261	-0.195830
F255	F	-0.824521	0.320827	-0.557378
F256	F	-0.324521	0.820827	-0.057378
H257	H	-0.816100	0.450856	-0.191288
H258	H	-0.316100	0.950856	0.308712
H259	H	-0.694703	0.450918	-0.312503
H260	H	-0.194703	0.950918	0.187497
H261	H	-0.206358	0.157882	-0.346206
H262	H	0.293642	0.657882	0.153794
F263	F	-0.199290	0.354165	-0.149256
F264	F	0.300710	0.854165	0.350744
H265	H	-0.849572	0.345877	-0.801706
H266	H	-0.349572	0.845877	-0.301706
F267	F	-0.824612	0.946373	-0.182972
F268	F	-0.324612	1.446373	0.317028
F269	F	-0.858004	0.695186	-0.149557
F270	F	-0.358004	1.195186	0.350443
F271	F	0.051690	0.182932	-0.321105
F272	F	0.551690	0.682932	0.178895
F273	F	-0.686480	0.946451	-0.320900
F274	F	-0.186480	1.446451	0.179100
H275	H	-0.694951	0.191055	-0.953828
H276	H	-0.194951	0.691055	-0.453828
F277	F	-0.686573	0.182790	-0.444654
F278	F	-0.186573	0.682790	0.055346
H279	H	-0.556538	0.191284	-0.312688
H280	H	-0.056538	0.691284	0.187312
H281	H	-0.849666	0.801062	-0.157917
H282	H	-0.349666	1.301062	0.342083
H283	H	-0.305175	0.345817	-0.157632
H284	H	0.194825	0.845817	0.342368
F285	F	-0.450484	0.320806	-0.182769
F286	F	0.049516	0.820806	0.317231
H287	H	-0.816185	0.312396	-0.953839
H288	H	-0.316185	0.812396	-0.453839
F289	F	-0.563205	0.320793	-0.182755
F290	F	-0.063205	0.820793	0.317245
F291	F	-0.450673	0.182923	-0.321068
F292	F	0.049327	0.682923	0.178932
H293	H	0.045016	0.312451	-0.191180
H294	H	0.545016	0.812451	0.308820
H295	H	-0.661357	0.801155	-0.345949
H296	H	-0.161357	1.301155	0.154051
H297	H	-0.694869	1.052321	-0.312546
H298	H	-0.194869	1.552321	0.187454
F299	F	-0.824507	0.556728	-0.182947
F300	F	-0.324507	1.056728	0.317053
F301	F	-0.824639	1.059091	-0.182984
F302	F	-0.324639	1.559091	0.317016
F303	F	-0.652972	0.695283	-0.354299
F304	F	-0.152972	1.195283	0.145701
H305	H	-0.694922	0.191135	-0.550531
H306	H	-0.194922	0.691135	-0.050531
H307	H	-0.661528	0.157653	-0.801702
H308	H	-0.161528	0.657653	-0.301702
F309	F	-0.653169	0.149309	-0.695830
F310	F	-0.153169	0.649309	-0.195830
