data_functionalizedCrystal
_audit_creation_method	'MofGen! by Chris Wilmer'
_symmetry_space_group_name_H-M	'P1'
_symmetry_Int_Tables_number	1
_symmetry_cell_setting	triclinic
loop_
_symmetry_equiv_pos_as_xyz
  x,y,z
_cell_length_a	18.101395
_cell_length_b	13.032951
_cell_length_c	13.032268
_cell_angle_alpha	89.114265
_cell_angle_beta	97.146252
_cell_angle_gamma	97.166904
loop_
_atom_site_label
_atom_site_type_symbol
_atom_site_fract_x
_atom_site_fract_y
_atom_site_fract_z
Zn1	Zn	-0.500170	-1.498315	-0.780838
Zn2	Zn	-0.610505	-1.520022	-0.608850
Zn3	Zn	-0.469228	-1.348184	-0.587077
Zn4	Zn	-0.606494	-1.326272	-0.758970
O5	O	-0.546599	-1.423198	-0.683934
O6	O	-0.529433	-1.645110	-0.776287
O7	O	-0.580494	-1.515482	-0.462047
O8	O	-0.369711	-1.368185	-0.612820
O9	O	-0.610496	-1.661058	-0.649928
O10	O	-0.392443	-1.478485	-0.755175
O11	O	-0.476699	-1.389233	-0.446050
O12	O	-0.472810	-1.201362	-0.591615
O13	O	-0.603660	-1.330840	-0.905786
O14	O	-0.573658	-1.185263	-0.717904
O15	O	-0.525544	-1.457239	-0.921853
O16	O	-0.713594	-1.494235	-0.628724
O17	O	-0.710647	-1.351888	-0.739017
C18	C	-0.519442	-1.155997	-0.650025
C19	C	-0.507843	-1.041684	-0.635543
C20	C	-0.738993	-1.423065	-0.683886
C21	C	-0.821313	-1.423097	-0.683912
C22	C	-0.552635	-0.982794	-0.691478
C23	C	-0.540648	-0.864645	-0.676512
C24	C	-1.120431	-1.423316	-0.683996
C25	C	-1.087317	-1.333914	-0.753610
C26	C	-1.001641	-1.333569	-0.753313
C27	C	-0.972035	-1.423207	-0.683955
C28	C	-0.991698	-1.407637	-0.571850
C29	C	-1.077329	-1.407065	-0.572262
C30	C	-1.102005	-1.528583	-0.725555
C31	C	-1.016475	-1.527641	-0.727851
C32	C	-0.888167	-1.423148	-0.683926
C33	C	-1.204297	-1.423373	-0.684018
C34	C	-0.353458	-1.423358	-0.684008
C35	C	-0.271153	-1.423426	-0.684039
C36	C	-0.567606	-1.389174	-0.952179
C37	C	-0.576558	-1.374674	-1.066488
C38	C	-0.573854	-0.691444	-0.717969
C39	C	-0.585446	-0.805757	-0.732455
C40	C	-0.541899	-1.430750	-1.125401
C41	C	-0.551150	-1.415765	-1.243546
C42	C	-0.525626	-1.457150	-0.416740
C43	C	-0.516486	-1.471849	-0.302456
H44	H	-0.599854	-1.019844	-0.750450
H45	H	-0.479957	-1.530949	-1.265432
O46	O	-0.968571	-1.483568	-0.507440
C47	C	-0.960797	-1.553328	-0.334658
C48	C	-0.987023	-1.467271	-0.407485
H49	H	-0.975691	-1.540169	-0.253824
H50	H	-0.989786	-1.631655	-0.364853
H51	H	-0.897441	-1.551829	-0.331372
H52	H	-1.050371	-1.468672	-0.410803
H53	H	-0.957979	-1.388982	-0.377262
H54	H	-0.997157	-1.596668	-0.681941
O55	O	-0.620131	-1.304244	-1.110826
C56	C	-0.669024	-1.225024	-1.268995
C57	C	-0.619666	-1.304838	-1.218924
H58	H	-0.668651	-1.225462	-1.356397
H59	H	-0.728953	-1.245684	-1.250280
H60	H	-0.645963	-1.144777	-1.237356
H61	H	-0.642659	-1.385113	-1.250534
H62	H	-0.559744	-1.284088	-1.237632
O63	O	-0.451543	-0.997630	-0.565059
C64	C	-0.398405	-0.986686	-0.386035
C65	C	-0.462199	-1.036665	-0.465757
H66	H	-0.407007	-1.018210	-0.305729
H67	H	-0.342244	-1.005510	-0.406808
H68	H	-0.398763	-0.899271	-0.386546
H69	H	-0.461912	-1.124089	-0.465288
H70	H	-0.518331	-1.017758	-0.444956
H71	H	-1.116039	-1.341845	-0.836541
O72	O	-0.484371	-0.820297	-0.606159
C73	C	-0.421077	-0.662094	-0.527160
C74	C	-0.484844	-0.712185	-0.606857
H75	H	-0.421428	-0.574677	-0.527713
H76	H	-0.429615	-0.693584	-0.446820
H77	H	-0.364941	-0.680941	-0.547998
H78	H	-0.541008	-0.693358	-0.586116
H79	H	-0.476240	-0.680693	-0.687174
O80	O	-0.641699	-0.850046	-0.802878
C81	C	-0.674914	-0.953816	-0.957020
C82	C	-0.611141	-0.903737	-0.877326
H83	H	-0.650231	-0.997220	-1.017243
H84	H	-0.714944	-1.010147	-0.916102
H85	H	-0.706783	-0.891084	-0.996755
H86	H	-0.579215	-0.966397	-0.837567
H87	H	-0.571163	-0.847384	-0.918301
O88	O	-0.986381	-1.343231	-0.852030
C89	C	-1.036332	-1.361264	-1.031938
C90	C	-1.053712	-1.350317	-0.920188
H91	H	-1.090759	-1.367018	-1.087073
H92	H	-0.997061	-1.290856	-1.052889
H93	H	-1.008306	-1.434103	-1.038573
H94	H	-1.081765	-1.277519	-0.913471
H95	H	-1.092952	-1.420777	-0.899287
H96	H	-1.099336	-1.256070	-0.725287
H97	H	-0.971583	-1.255264	-0.724697
O98	O	-1.089277	-1.315682	-0.532198
C99	C	-1.033526	-1.151102	-0.459285
C100	C	-1.019895	-1.254543	-0.504657
H101	H	-0.977441	-1.101651	-0.436986
H102	H	-1.069609	-1.108465	-0.519441
H103	H	-1.063627	-1.166648	-0.387765
H104	H	-0.989772	-1.239089	-0.576165
H105	H	-0.983843	-1.297148	-0.444436
O106	O	-1.103083	-1.482151	-0.507337
C107	C	-1.164233	-1.522233	-0.355061
C108	C	-1.135110	-1.437098	-0.428506
H109	H	-1.190119	-1.485838	-0.291297
H110	H	-1.208477	-1.579869	-0.400327
H111	H	-1.115607	-1.564022	-0.319147
H112	H	-1.183686	-1.395231	-0.464439
H113	H	-1.090845	-1.379531	-0.383189
H114	H	-0.960442	-1.331993	-0.537932
O115	O	-1.138106	-1.548773	-0.822339
C116	C	-1.125972	-1.579280	-1.001022
C117	C	-1.084994	-1.556454	-0.891461
H118	H	-1.083049	-1.585474	-1.056941
H119	H	-1.164713	-1.655247	-1.000567
H120	H	-1.160497	-1.513935	-1.026677
H121	H	-1.050428	-1.621734	-0.865738
H122	H	-1.046297	-1.480452	-0.891976
O123	O	-1.002347	-1.542143	-0.826328
C124	C	-0.953875	-1.650726	-0.943322
C125	C	-0.969835	-1.634443	-0.831752
H126	H	-0.927573	-1.725337	-0.947739
H127	H	-1.008628	-1.656101	-0.997755
H128	H	-0.913561	-1.582740	-0.967055
H129	H	-1.010125	-1.702404	-0.807922
H130	H	-0.915051	-1.629024	-0.777384
H131	H	-1.123700	-1.595021	-0.675021
H132	H	-0.505374	-1.489848	-1.088370
O133	O	-0.594726	-1.345331	-1.287879
C134	C	-0.643619	-1.266111	-1.446048
C135	C	-0.594261	-1.345925	-1.395977
H136	H	-0.643246	-1.266549	-1.533450
H137	H	-0.703548	-1.286771	-1.427333
H138	H	-0.620558	-1.185864	-1.414409
H139	H	-0.617254	-1.426200	-1.427587
H140	H	-0.534338	-1.325175	-1.414685
