data_functionalizedCrystal
_audit_creation_method	'MofGen! by Chris Wilmer'
_symmetry_space_group_name_H-M	'P1'
_symmetry_Int_Tables_number	1
_symmetry_cell_setting	triclinic
loop_
_symmetry_equiv_pos_as_xyz
  x,y,z
_cell_length_a	12.759401
_cell_length_b	12.645330
_cell_length_c	12.759393
_cell_angle_alpha	89.970244
_cell_angle_beta	89.979062
_cell_angle_gamma	90.013910
loop_
_atom_site_label
_atom_site_type_symbol
_atom_site_fract_x
_atom_site_fract_y
_atom_site_fract_z
Zn1	Zn	1.606283	-0.421945	-0.594026
Zn2	Zn	1.606181	-0.599246	-0.418348
Zn3	Zn	1.430582	-0.422001	-0.418361
Zn4	Zn	1.430581	-0.599171	-0.593985
O5	O	1.518407	-0.510591	-0.506180
O6	O	1.753291	-0.445472	-0.570733
O7	O	1.582846	-0.575788	-0.271328
O8	O	1.453932	-0.273647	-0.441685
O9	O	1.753216	-0.575734	-0.441663
O10	O	1.583019	-0.273605	-0.570745
O11	O	1.453833	-0.445568	-0.271338
O12	O	1.283561	-0.445496	-0.441646
O13	O	1.453930	-0.575607	-0.741012
O14	O	1.283560	-0.575662	-0.570677
O15	O	1.583018	-0.445400	-0.741041
O16	O	1.582845	-0.747583	-0.441624
O17	O	1.453832	-0.747529	-0.570664
C18	C	1.245440	-0.510578	-0.506159
C19	C	1.128663	-0.510598	-0.506175
C20	C	1.073828	-0.578478	-0.573255
C21	C	0.964104	-0.578483	-0.573276
C22	C	0.964059	-0.442722	-0.439127
C23	C	1.073781	-0.442714	-0.439112
C24	C	1.518356	-0.786021	-0.506161
C25	C	1.518430	-0.903851	-0.506189
C26	C	1.599685	-0.948722	-0.425080
C27	C	1.599498	-1.071282	-0.424790
C28	C	1.407712	-1.071862	-0.476440
C29	C	1.408129	-0.949264	-0.475822
C30	C	1.547035	-0.948922	-0.617311
C31	C	1.549531	-1.071527	-0.616748
C32	C	1.792440	-0.510605	-0.506201
C33	C	1.909217	-0.510610	-0.506211
C34	C	1.518486	-0.510489	-0.780213
C35	C	1.518519	-0.510446	-0.896990
C36	C	1.518487	-0.234086	-0.506221
C37	C	1.518521	-0.116255	-0.506239
C38	C	1.585740	-0.442636	-0.951869
C39	C	1.585758	-0.442590	-1.061593
C40	C	1.451331	-0.578173	-1.061550
C41	C	1.451308	-0.578213	-0.951827
C42	C	1.518389	-0.510616	-0.233212
C43	C	1.518559	-0.510360	-0.116436
H44	H	0.919361	-0.387455	-0.384526
O45	O	1.376077	-0.911497	-0.368237
H46	H	1.376052	-0.823736	-0.366729
H47	H	1.494717	-1.102134	-0.680409
O48	O	1.574880	-0.908030	-0.316634
H49	H	1.632700	-0.940172	-0.259994
H50	H	1.118429	-0.387431	-0.384487
H51	H	0.919462	-0.633756	-0.627901
O52	O	1.574421	-1.110254	-0.315748
H53	H	1.502006	-1.158853	-0.318008
O54	O	1.378842	-0.651265	-1.120694
H55	H	1.390155	-0.639853	-1.206211
H56	H	1.640464	-0.387452	-0.907224
H57	H	1.396562	-0.633431	-0.907144
O58	O	1.325182	-0.909935	-0.550680
H59	H	1.284942	-0.978485	-0.587155
H60	H	1.118509	-0.633751	-0.627865
H61	H	1.631078	-1.100533	-0.639221
H62	H	1.681656	-1.101294	-0.443403
O63	O	1.708819	-0.909554	-0.449405
H64	H	1.706318	-0.857683	-0.519561
H65	H	1.487861	-0.919896	-0.677741
O66	O	1.325267	-1.110888	-0.551979
H67	H	1.362497	-1.162403	-0.611746
H68	H	1.383116	-1.102654	-0.396127
O69	O	1.652095	-0.907754	-0.653498
H70	H	1.706149	-0.975214	-0.666673
O71	O	1.658266	-0.369459	-1.120789
H72	H	1.705000	-0.322352	-1.064219
