data_functionalizedCrystal
_audit_creation_method	'MofGen! by Chris Wilmer'
_symmetry_space_group_name_H-M	'P1'
_symmetry_Int_Tables_number	1
_symmetry_cell_setting	triclinic
loop_
_symmetry_equiv_pos_as_xyz
  x,y,z
_cell_length_a	19.288864
_cell_length_b	8.559649
_cell_length_c	18.366186
_cell_angle_alpha	89.997058
_cell_angle_beta	89.980630
_cell_angle_gamma	76.457456
loop_
_atom_site_label
_atom_site_type_symbol
_atom_site_fract_x
_atom_site_fract_y
_atom_site_fract_z
O1	O	0.910984	0.199401	-0.060777
O2	O	1.410984	0.699401	0.439223
O3	O	0.707325	0.226301	-0.060726
O4	O	1.207325	0.726301	0.439274
O5	O	0.827097	-0.019880	-0.060755
O6	O	1.327097	0.480120	0.439245
O7	O	0.791212	0.445582	-0.060748
O8	O	1.291212	0.945582	0.439252
O9	O	0.827086	-0.019886	0.060344
O10	O	1.327086	0.480114	0.560344
O11	O	0.707314	0.226295	0.060373
O12	O	1.207314	0.726295	0.560373
O13	O	0.910973	0.199396	0.060322
O14	O	1.410973	0.699396	0.560322
Zn15	Zn	0.809142	0.212844	0.079575
Zn16	Zn	1.309142	0.712844	0.579575
Zn17	Zn	0.809156	0.212852	-0.079979
Zn18	Zn	1.309156	0.712852	0.420021
O19	O	0.791201	0.445576	0.060351
O20	O	1.291201	0.945576	0.560351
C21	C	0.681488	0.225432	-0.000170
C22	C	1.181488	0.725432	0.499830
C23	C	0.604519	0.222834	-0.000151
C24	C	1.104519	0.722834	0.499849
C25	C	0.829811	-0.079432	-0.000208
C26	C	1.329811	0.420568	0.499792
C27	C	0.837906	-0.256871	-0.000214
C28	C	1.337906	0.243129	0.499786
C29	C	0.552314	0.367282	-0.000161
C30	C	1.052314	0.867282	0.499839
C31	C	0.479994	0.364841	-0.000169
C32	C	0.979994	0.864841	0.499831
C33	C	0.459883	0.217944	-0.000182
C34	C	0.959883	0.717944	0.499818
C35	C	0.512099	0.073477	-0.000169
C36	C	1.012099	0.573477	0.499831
C37	C	0.584417	0.075922	-0.000154
C38	C	1.084417	0.575922	0.499846
C39	C	0.357627	0.102469	-0.042635
C40	C	0.857627	0.602469	0.457365
C41	C	0.285310	0.100030	-0.042655
C42	C	0.785310	0.600030	0.457345
C43	C	0.236829	0.210396	-0.000226
C44	C	0.736829	0.710396	0.499774
C45	C	0.260673	0.323229	0.042213
C46	C	0.760673	0.823229	0.542213
C47	C	0.332991	0.325675	0.042228
C48	C	0.832991	0.825675	0.542228
C49	C	0.381467	0.215276	-0.000198
C50	C	0.881467	0.715276	0.499802
C51	C	0.106205	0.352207	-0.000243
C52	C	0.606205	0.852207	0.499757
C53	C	0.033884	0.349760	-0.000247
C54	C	0.533884	0.849760	0.499753
C55	C	0.065991	0.058393	-0.000254
C56	C	0.565991	0.558393	0.499746
C57	C	0.138310	0.060844	-0.000244
C58	C	0.638310	0.560844	0.499756
C59	C	0.158412	0.207756	-0.000241
C60	C	0.658412	0.707756	0.499759
C61	C	0.936810	0.200264	-0.000235
C62	C	1.436810	0.700264	0.499765
C63	C	1.013778	0.202862	-0.000259
C64	C	1.513778	0.702862	0.499741
C65	C	0.788487	0.505129	-0.000198
C66	C	1.288487	1.005129	0.499802
C67	C	0.780392	0.682567	-0.000197
C68	C	1.280392	1.182567	0.499803
N69	N	0.809137	0.212838	0.188466
N70	N	1.309137	0.712838	0.688466
N71	N	0.809167	0.212845	-0.188870
N72	N	1.309167	0.712845	0.311130
C73	C	0.862202	0.103866	0.773003
C74	C	1.362202	0.603866	1.273003
C75	C	0.862202	0.103870	0.696776
C76	C	1.362202	0.603870	1.196776
C77	C	0.809157	0.212837	0.658677
C78	C	1.309157	0.712837	1.158677
C79	C	0.756118	0.321837	0.696813
C80	C	1.256118	0.821837	1.196813
C81	C	0.756123	0.321841	0.773039
C82	C	1.256123	0.821841	1.273039
C83	C	0.744756	0.234170	0.537939
C84	C	1.244756	0.734170	1.037939
C85	C	0.744750	0.234155	0.461714
C86	C	1.244750	0.734155	0.961714
C87	C	0.809141	0.212834	0.423570
C88	C	1.309141	0.712834	0.923570
C89	C	0.873542	0.191495	0.461660
C90	C	1.373542	0.691495	0.961660
C91	C	0.873547	0.191499	0.537886
C92	C	1.373547	0.691499	1.037886
C93	C	0.809146	0.212846	0.576022
C94	C	1.309146	0.712846	1.076022
C95	C	0.862181	0.103853	0.302788
C96	C	1.362181	0.603853	0.802788
C97	C	0.862182	0.103868	0.226559
C98	C	1.362182	0.603868	0.726559
C99	C	0.756092	0.321827	0.226598
C100	C	1.256092	0.821827	0.726598
C101	C	0.756096	0.321820	0.302826
C102	C	1.256096	0.821820	0.802826
C103	C	0.809141	0.212825	0.340916
C104	C	1.309141	0.712825	0.840916
H105	H	0.568676	0.486909	-0.000160
H106	H	1.068676	0.986909	0.499840
H107	H	0.905391	0.015123	0.665727
H108	H	1.405391	0.515123	1.165727
H109	H	0.221201	0.413100	0.076763
H110	H	0.721201	0.913100	0.576763
H111	H	0.626924	-0.041708	-0.000147
H112	H	1.126924	0.458292	0.499853
Br113	Br	0.684116	0.469722	0.354575
Br114	Br	1.184116	0.969722	0.854575
H115	H	0.905374	0.015107	0.333803
H116	H	1.405374	0.515107	0.833803
H117	H	0.495719	-0.046127	-0.000190
H118	H	0.995719	0.453873	0.499810
H119	H	0.712904	0.410557	0.195579
H120	H	1.212904	0.910557	0.695579
Br121	Br	0.684131	0.469735	0.645111
Br122	Br	1.184131	0.969735	1.145111
Br123	Br	0.365350	0.478792	0.099822
Br124	Br	0.865350	0.978792	0.599822
H125	H	0.692312	0.251512	0.430707
H126	H	1.192312	0.751512	0.930707
Br127	Br	0.423417	-0.047333	-0.100220
Br128	Br	0.923417	0.452667	0.399780
H129	H	0.437480	0.482471	-0.000174
H130	H	0.937480	0.982471	0.499826
Br131	Br	0.687996	-0.177606	-0.000169
Br132	Br	1.187996	0.322394	0.499831
H133	H	0.893342	-0.340776	-0.000222
H134	H	1.393342	0.159224	0.499778
H135	H	-0.008622	0.467392	-0.000250
H136	H	0.491378	0.967392	0.499750
Br137	Br	0.934190	-0.044046	0.824698
Br138	Br	1.434190	0.455954	1.324698
H139	H	0.692317	0.251540	0.568990
H140	H	1.192317	0.751540	1.068990
Br141	Br	0.133492	0.551582	-0.000235
Br142	Br	0.633492	1.051582	0.499765
Br143	Br	0.960943	0.162553	0.589578
Br144	Br	1.460943	0.662553	1.089578
H145	H	0.925975	0.174146	0.430605
H146	H	1.425975	0.674146	0.930605
H147	H	0.712935	0.410587	0.804083
H148	H	1.212935	0.910587	1.304083
Br149	Br	0.934168	-0.044030	0.174811
Br150	Br	1.434168	0.455970	0.674811
H151	H	0.049617	-0.061214	-0.000311
H152	H	0.549617	0.438786	0.499689
H153	H	0.180818	-0.056781	-0.000240
H154	H	0.680818	0.443219	0.499760
H155	H	0.265902	0.008161	-0.077214
H156	H	0.765902	0.508161	0.422786
