data_functionalizedCrystal
_audit_creation_method	'MofGen! by Chris Wilmer'
_symmetry_space_group_name_H-M	'P1'
_symmetry_Int_Tables_number	1
_symmetry_cell_setting	triclinic
loop_
_symmetry_equiv_pos_as_xyz
  x,y,z
_cell_length_a	10.654550
_cell_length_b	15.995350
_cell_length_c	9.730223
_cell_angle_alpha	90.000899
_cell_angle_beta	89.996251
_cell_angle_gamma	83.988639
loop_
_atom_site_label
_atom_site_type_symbol
_atom_site_fract_x
_atom_site_fract_y
_atom_site_fract_z
O1	O	1.666298	0.117599	-0.114395
O2	O	1.300673	0.128803	-0.114373
O3	O	1.493480	0.001371	-0.114383
O4	O	1.473491	0.245031	-0.114385
O5	O	1.493478	0.001375	0.114197
O6	O	1.300671	0.128806	0.114207
O7	O	1.666295	0.117602	0.114185
Zn8	Zn	1.483483	0.123205	0.150488
Zn9	Zn	1.483486	0.123200	-0.150676
O10	O	1.473488	0.245034	0.114195
C11	C	1.253885	0.127982	-0.000080
C12	C	1.114473	0.125521	-0.000071
C13	C	1.034008	0.200551	-0.000092
C14	C	0.903017	0.198233	-0.000116
C15	C	0.932971	0.045849	-0.000104
C16	C	1.063959	0.048168	-0.000071
C17	C	1.016713	0.288528	-0.000104
C18	C	0.885722	0.286211	-0.000128
C19	C	1.492652	-0.029827	-0.000096
C20	C	1.490175	-0.122791	-0.000104
C21	C	1.481278	-0.460591	-0.000098
C22	C	1.343964	-0.413954	-0.000603
C23	C	1.346442	-0.317249	-0.000087
C24	C	1.485691	-0.293004	-0.000102
C25	C	1.553417	-0.333687	0.130422
C26	C	1.549968	-0.430342	0.130531
C27	C	1.552807	-0.430688	-0.129407
C28	C	1.552775	-0.333743	-0.131132
C29	C	1.488192	-0.198292	-0.000099
C30	C	1.478780	-0.555303	-0.000092
C31	C	1.713084	0.118423	-0.000111
C32	C	1.852495	0.120884	-0.000129
C33	C	1.474316	0.276232	-0.000095
C34	C	1.476793	0.369197	-0.000097
N35	N	1.483490	0.123207	0.356024
N36	N	1.483488	0.123191	-0.356212
C37	C	1.568886	0.066800	0.427946
C38	C	1.568883	0.066789	0.571829
C39	C	1.398083	0.179602	0.571856
C40	C	1.398081	0.179607	0.427976
C41	C	1.667501	0.001671	0.427931
C42	C	1.667497	0.001661	0.571814
H43	H	0.839703	0.312800	0.098556
H44	H	1.500580	-0.448929	0.228110
C45	C	0.877400	-0.039233	-0.000117
H46	H	0.787864	-0.029869	-0.000148
H47	H	0.905001	-0.070159	0.079597
H48	H	0.905041	-0.070156	-0.079835
H49	H	1.763822	0.016006	0.610858
C50	C	0.828774	0.330875	-0.129464
H51	H	0.894242	0.350820	-0.182636
H52	H	0.770126	0.376915	-0.103062
H53	H	0.786843	0.292402	-0.182529
H54	H	1.045593	0.322938	0.095561
C55	C	1.485996	-0.297246	-0.261585
H56	H	1.527012	-0.322135	-0.340499
H57	H	1.489376	-0.238154	-0.263982
H58	H	1.400401	-0.308942	-0.260762
H59	H	1.293204	-0.289138	-0.093652
H60	H	1.328534	0.225531	0.369419
C61	C	1.492159	-0.458781	-0.263054
H62	H	1.422637	-0.489013	-0.241236
H63	H	1.552748	-0.493905	-0.314028
H64	H	1.463640	-0.410749	-0.316334
C65	C	1.689958	-0.312201	-0.141796
H66	H	1.708200	-0.277933	-0.066133
H67	H	1.700595	-0.282796	-0.225106
H68	H	1.745720	-0.362594	-0.140692
C69	C	1.686147	-0.473124	0.138555
H70	H	1.684963	-0.532431	0.138672
H71	H	1.724832	-0.456299	0.220566
H72	H	1.732653	-0.457042	0.061362
H73	H	1.637779	-0.059156	0.616432
C74	C	1.064396	0.326377	-0.133410
H75	H	0.994987	0.341632	-0.192794
H76	H	1.122544	0.286021	-0.177692
H77	H	1.105058	0.374843	-0.111981
H78	H	1.328544	0.225520	0.630455
H79	H	1.289082	-0.432806	-0.094203
H80	H	1.129471	-0.012929	-0.000034
H81	H	1.289324	-0.433864	0.092484
C82	C	1.274043	-0.280015	0.126531
H83	H	1.275299	-0.220716	0.127271
H84	H	1.312982	-0.303269	0.207725
H85	H	1.189163	-0.293079	0.122698
C86	C	1.691615	-0.313799	0.136981
H87	H	1.709277	-0.280425	0.059995
H88	H	1.746068	-0.364770	0.135768
H89	H	1.704751	-0.283915	0.219226
H90	H	1.506376	-0.305577	0.227563
C91	C	1.689567	-0.472805	-0.130621
H92	H	1.703060	-0.508444	-0.052753
H93	H	1.746303	-0.430813	-0.127763
H94	H	1.703697	-0.505160	-0.212087
C95	C	1.639659	-0.085263	0.375164
H96	H	1.628197	-0.121017	0.451100
H97	H	1.708465	-0.109055	0.320918
H98	H	1.565115	-0.079344	0.320935
H99	H	1.758418	0.022064	0.383299
