data_functionalizedCrystal
_audit_creation_method	'MofGen! by Chris Wilmer'
_symmetry_space_group_name_H-M	'P1'
_symmetry_Int_Tables_number	1
_symmetry_cell_setting	triclinic
loop_
_symmetry_equiv_pos_as_xyz
  x,y,z
_cell_length_a	12.759401
_cell_length_b	12.827892
_cell_length_c	12.827885
_cell_angle_alpha	89.970024
_cell_angle_beta	89.981893
_cell_angle_gamma	90.015669
loop_
_atom_site_label
_atom_site_type_symbol
_atom_site_fract_x
_atom_site_fract_y
_atom_site_fract_z
Zn1	Zn	1.606246	-0.415975	-0.590815
Zn2	Zn	1.606139	-0.590752	-0.416075
Zn3	Zn	1.430549	-0.416027	-0.416092
Zn4	Zn	1.430534	-0.590675	-0.590778
O5	O	1.518367	-0.503357	-0.503440
O6	O	1.753253	-0.439170	-0.567643
O7	O	1.582809	-0.567628	-0.269841
O8	O	1.453906	-0.269784	-0.439292
O9	O	1.753175	-0.567578	-0.439262
O10	O	1.582990	-0.269746	-0.567660
O11	O	1.453803	-0.439258	-0.269854
O12	O	1.283526	-0.439184	-0.439256
O13	O	1.453881	-0.567447	-0.737019
O14	O	1.283515	-0.567497	-0.567598
O15	O	1.582976	-0.439095	-0.737046
O16	O	1.582794	-0.736978	-0.439227
O17	O	1.453778	-0.736922	-0.567581
C18	C	1.245400	-0.503338	-0.503425
C19	C	1.128623	-0.503356	-0.503444
C20	C	0.964052	-0.570286	-0.570173
C21	C	1.073776	-0.570274	-0.570162
C22	C	1.073741	-0.436452	-0.436725
C23	C	0.964019	-0.436469	-0.436731
C24	C	1.518301	-0.774867	-0.503421
C25	C	1.518369	-0.891020	-0.503447
C26	C	1.582216	-0.942703	-0.567025
C27	C	1.582287	-1.062753	-0.567054
C28	C	1.792400	-0.503377	-0.503455
C29	C	1.909177	-0.503385	-0.503461
C30	C	1.518439	-0.503257	-0.776010
C31	C	1.518469	-0.503214	-0.892163
C32	C	1.518462	-0.230787	-0.503482
C33	C	1.518502	-0.114634	-0.503500
C34	C	1.582356	-0.439689	-0.943961
C35	C	1.582389	-0.439643	-1.064012
C36	C	1.518356	-0.503382	-0.231930
C37	C	1.518529	-0.503130	-0.115777
H38	H	1.118406	-0.381970	-0.382397
H39	H	1.463842	-1.070195	-0.449062
H40	H	1.463791	-0.557559	-0.936694
H41	H	1.118450	-0.624753	-0.624485
H42	H	1.637024	-0.385333	-0.899431
H43	H	1.637089	-0.385261	-1.108557
H44	H	1.463834	-0.557523	-1.071239
H45	H	0.919338	-0.381989	-0.382401
C46	C	1.655991	-0.882422	-0.640529
H47	H	1.646270	-0.809643	-0.630861
H48	H	1.640608	-0.900218	-0.710750
H49	H	1.726620	-0.900209	-0.625306
H50	H	1.636952	-1.107199	-0.621481
H51	H	0.919403	-0.624774	-0.624509
H52	H	1.463757	-0.935650	-0.449043
