data_functionalizedCrystal
_audit_creation_method	'MofGen! by Chris Wilmer'
_symmetry_space_group_name_H-M	'P1'
_symmetry_Int_Tables_number	1
_symmetry_cell_setting	triclinic
loop_
_symmetry_equiv_pos_as_xyz
  x,y,z
_cell_length_a	14.044191
_cell_length_b	13.101018
_cell_length_c	14.044220
_cell_angle_alpha	86.335600
_cell_angle_beta	93.190327
_cell_angle_gamma	93.666878
loop_
_atom_site_label
_atom_site_type_symbol
_atom_site_fract_x
_atom_site_fract_y
_atom_site_fract_z
O1	O	1.281983	0.085170	0.225382
O2	O	1.531983	0.335170	0.475382
O3	O	1.781983	0.585170	0.725382
O4	O	2.031983	0.835170	0.975382
O5	O	1.005311	0.085182	0.217069
O6	O	1.255311	0.335182	0.467069
O7	O	1.505311	0.585182	0.717069
O8	O	1.755311	0.835182	0.967069
O9	O	1.139494	0.085166	0.082890
O10	O	1.389494	0.335166	0.332890
O11	O	1.639494	0.585166	0.582890
O12	O	1.889494	0.835166	0.832890
O13	O	1.147800	0.085186	0.359561
O14	O	1.397800	0.335186	0.609561
O15	O	1.647800	0.585186	0.859561
O16	O	1.897800	0.835186	1.109561
O17	O	1.129855	-0.085263	0.092525
O18	O	1.379855	0.164737	0.342525
O19	O	1.629855	0.414737	0.592525
O20	O	1.879855	0.664737	0.842525
O21	O	0.995672	-0.085247	0.226704
O22	O	1.245672	0.164753	0.476704
O23	O	1.495672	0.414753	0.726704
O24	O	1.745672	0.664753	0.976704
O25	O	1.272344	-0.085260	0.235017
O26	O	1.522344	0.164740	0.485017
O27	O	1.772344	0.414740	0.735017
O28	O	2.022344	0.664740	0.985017
Zn29	Zn	1.132478	-0.112313	0.232390
Zn30	Zn	1.382478	0.137687	0.482390
Zn31	Zn	1.632478	0.387687	0.732390
Zn32	Zn	1.882478	0.637687	0.982390
Zn33	Zn	1.145177	0.112235	0.219695
Zn34	Zn	1.395177	0.362235	0.469695
Zn35	Zn	1.645177	0.612235	0.719695
Zn36	Zn	1.895177	0.862235	0.969695
O37	O	1.138162	-0.085243	0.369196
O38	O	1.388162	0.164757	0.619196
O39	O	1.638162	0.414757	0.869196
O40	O	1.888162	0.664757	1.119196
C41	C	0.964870	-0.000031	0.218250
C42	C	1.214870	0.249969	0.468250
C43	C	1.464870	0.499969	0.718250
C44	C	1.714870	0.749969	0.968250
C45	C	0.858727	-0.000026	0.207402
C46	C	1.108727	0.249974	0.457402
C47	C	1.358727	0.499974	0.707402
C48	C	1.608727	0.749974	0.957402
N49	N	1.123818	-0.265560	0.241054
N50	N	1.373818	-0.015560	0.491054
N51	N	1.623818	0.234440	0.741054
N52	N	1.873818	0.484440	0.991054
C53	C	0.613268	-0.000032	0.264503
C54	C	0.863268	0.249968	0.514503
C55	C	1.113268	0.499968	0.764503
C56	C	1.363268	0.749968	1.014503
C57	C	0.664393	-0.000036	0.187587
C58	C	0.914393	0.249964	0.437587
C59	C	1.164393	0.499964	0.687587
C60	C	1.414393	0.749964	0.937587
C61	C	0.772531	-0.000031	0.198615
C62	C	1.022531	0.249969	0.448615
C63	C	1.272531	0.499969	0.698615
C64	C	1.522531	0.749969	0.948615
C65	C	0.505121	-0.000038	0.253476
C66	C	0.755121	0.249962	0.503476
C67	C	1.005121	0.499962	0.753476
C68	C	1.255121	0.749962	1.003476
C69	C	1.165622	-0.525475	0.199233
C70	C	1.415622	-0.275475	0.449233
C71	C	1.665622	-0.025475	0.699233
C72	C	1.915622	0.224525	0.949233
C73	C	1.112043	-0.474596	0.252843
C74	C	1.362043	-0.224596	0.502843
C75	C	1.612043	0.025404	0.752843
C76	C	1.862043	0.275404	1.002843
C77	C	1.118596	-0.358278	0.246282
C78	C	1.368596	-0.108278	0.496282
C79	C	1.618596	0.141722	0.746282
C80	C	1.868596	0.391722	0.996282
C81	C	1.159070	-0.641804	0.205793
C82	C	1.409070	-0.391804	0.455793
C83	C	1.659070	-0.141804	0.705793
C84	C	1.909070	0.108196	0.955793
C85	C	1.312785	-0.000044	0.233836
C86	C	1.562785	0.249956	0.483836
C87	C	1.812785	0.499956	0.733836
C88	C	2.062785	0.749956	0.983836
C89	C	1.418929	-0.000042	0.244683
C90	C	1.668929	0.249958	0.494683
C91	C	1.918929	0.499958	0.744683
C92	C	2.168929	0.749958	0.994683
C93	C	1.131038	-0.000049	0.052086
C94	C	1.381038	0.249951	0.302086
C95	C	1.631038	0.499951	0.552086
C96	C	1.881038	0.749951	0.802086
C97	C	1.120194	-0.000050	-0.054057
C98	C	1.370194	0.249950	0.195943
C99	C	1.620194	0.499950	0.445943
C100	C	1.870194	0.749950	0.695943
N101	N	1.153844	0.265483	0.211025
N102	N	1.403844	0.515483	0.461025
N103	N	1.653844	0.765483	0.711025
N104	N	1.903844	1.015483	0.961025
C105	C	1.100368	-0.000034	-0.248396
C106	C	1.350368	0.249966	0.001604
C107	C	1.600368	0.499966	0.251604
C108	C	1.850368	0.749966	0.501604
C109	C	1.177283	-0.000034	-0.299524
C110	C	1.427283	0.249966	-0.049524
C111	C	1.677283	0.499966	0.200476
C112	C	1.927283	0.749966	0.450476
C113	C	1.166252	-0.000026	-0.407661
C114	C	1.416252	0.249974	-0.157661
C115	C	1.666252	0.499974	0.092339
C116	C	1.916252	0.749974	0.342339
C117	C	1.111398	-0.000043	-0.140250
C118	C	1.361398	0.249957	0.109750
C119	C	1.611398	0.499957	0.359750
C120	C	1.861398	0.749957	0.609750
C121	C	1.146617	-0.000026	0.400000
C122	C	1.396617	0.249974	0.650000
C123	C	1.646617	0.499974	0.900000
C124	C	1.896617	0.749974	1.150000
C125	C	1.157462	-0.000019	0.506143
C126	C	1.407462	0.249981	0.756143
C127	C	1.657462	0.499981	1.006143
C128	C	1.907462	0.749981	1.256143
H129	H	0.626954	0.000031	0.113451
H130	H	0.876954	0.250031	0.363451
H131	H	1.126954	0.500031	0.613451
H132	H	1.376954	0.750031	0.863451
C133	C	1.277430	-0.000062	-0.248950
C134	C	1.527430	0.249938	0.001050
C135	C	1.777430	0.499938	0.251050
C136	C	2.027430	0.749938	0.501050
H137	H	1.271804	-0.000079	-0.181849
H138	H	1.521804	0.249921	0.068151
H139	H	1.771804	0.499921	0.318151
H140	H	2.021804	0.749921	0.568151
H141	H	1.314507	0.059363	-0.270240
H142	H	1.564507	0.309363	-0.020240
H143	H	1.814507	0.559363	0.229760
H144	H	2.064507	0.809363	0.479760
H145	H	1.307754	-0.059509	-0.263544
H146	H	1.557754	0.190491	-0.013544
H147	H	1.807754	0.440491	0.236456
H148	H	2.057754	0.690491	0.486456
H149	H	1.026241	-0.000028	-0.285836
H150	H	1.276241	0.249972	-0.035836
H151	H	1.526241	0.499972	0.214164
H152	H	1.776241	0.749972	0.464164
H153	H	0.650710	-0.000024	0.338629
H154	H	0.900710	0.249976	0.588629
H155	H	1.150710	0.499976	0.838629
H156	H	1.400710	0.749976	1.088629
H157	H	1.061253	-0.518395	0.303669
H158	H	1.311253	-0.268395	0.553669
H159	H	1.561253	-0.018395	0.803669
H160	H	1.811253	0.231605	1.053669
H161	H	1.216410	-0.481681	0.148412
H162	H	1.466410	-0.231681	0.398412
H163	H	1.716410	0.018319	0.648412
H164	H	1.966410	0.268319	0.898412
