data_functionalizedCrystal
_audit_creation_method	'MofGen! by Chris Wilmer'
_symmetry_space_group_name_H-M	'P1'
_symmetry_Int_Tables_number	1
_symmetry_cell_setting	triclinic
loop_
_symmetry_equiv_pos_as_xyz
  x,y,z
_cell_length_a	13.897447
_cell_length_b	25.639242
_cell_length_c	13.897441
_cell_angle_alpha	89.968225
_cell_angle_beta	90.029327
_cell_angle_gamma	89.985811
loop_
_atom_site_label
_atom_site_type_symbol
_atom_site_fract_x
_atom_site_fract_y
_atom_site_fract_z
Zn1	Zn	-0.384121	-0.799339	0.545674
Zn2	Zn	-0.545443	-0.799278	0.384379
Zn3	Zn	-0.384149	-0.711902	0.384361
Zn4	Zn	-0.545361	-0.711889	0.545600
O5	O	-0.464769	-0.755602	0.465003
O6	O	-0.405544	-0.872496	0.524316
O7	O	-0.524093	-0.787668	0.249395
O8	O	-0.249164	-0.723531	0.405783
O9	O	-0.524066	-0.872451	0.405813
O10	O	-0.249143	-0.787770	0.524299
O11	O	-0.405591	-0.723473	0.249382
O12	O	-0.405511	-0.638735	0.405712
O13	O	-0.523927	-0.723509	0.680592
O14	O	-0.523953	-0.638726	0.524173
O15	O	-0.405465	-0.787758	0.680646
O16	O	-0.680414	-0.787655	0.405742
O17	O	-0.680354	-0.723451	0.524191
C18	C	-0.464727	-0.619759	0.464933
C19	C	-0.464732	-0.561645	0.464926
C20	C	-0.402989	-0.310448	0.403403
C21	C	-0.402981	-0.365052	0.403393
O22	O	-0.350430	-0.393286	0.351043
N23	N	-0.464743	-0.392371	0.464965
C24	C	-0.526510	-0.365084	0.526557
O25	O	-0.579042	-0.393335	0.578929
C26	C	-0.526513	-0.310480	0.526571
C27	C	-0.464754	-0.283164	0.464988
C28	C	-0.341235	-0.283132	0.341826
C29	C	-0.341245	-0.228531	0.341834
C30	C	-0.403009	-0.201247	0.403419
C31	C	-0.464764	-0.228563	0.464996
C32	C	-0.588275	-0.283193	0.588167
C33	C	-0.588272	-0.228586	0.588176
C34	C	-0.526513	-0.201270	0.526593
C35	C	-0.526539	-0.146679	0.526590
N36	N	-0.464777	-0.119359	0.465018
C37	C	-0.403012	-0.146644	0.403433
C38	C	-0.526498	-0.479754	0.526526
C39	C	-0.526501	-0.534356	0.526508
C40	C	-0.402970	-0.534321	0.403345
C41	C	-0.402973	-0.479718	0.403359
C42	C	-0.464736	-0.452435	0.464954
C43	C	-0.403039	-0.031979	0.403454
C44	C	-0.403057	0.022627	0.403465
C45	C	-0.526584	0.022587	0.526631
C46	C	-0.526570	-0.032013	0.526617
C47	C	-0.464789	-0.059295	0.465025
O48	O	-0.579060	-0.118411	0.578916
O49	O	-0.350480	-0.118386	0.351079
C50	C	-0.715383	-0.755559	0.464981
C51	C	-0.822597	-0.755589	0.465004
C52	C	-0.909667	-0.755614	0.465026
C53	C	-1.018899	-0.755651	0.465051
C54	C	-0.213176	-0.755659	0.465047
C55	C	-0.105962	-0.755683	0.465066
C56	C	-0.464683	-0.755639	0.716597
C57	C	-0.464647	-0.755655	0.823811
C58	C	-0.464809	0.108025	0.465061
C59	C	-0.464822	0.049911	0.465050
C60	C	-0.464784	-0.755595	0.214389
C61	C	-0.464549	-0.755681	0.107176
C62	C	-0.464582	-0.755669	1.020106
C63	C	-0.464621	-0.755660	0.910873
H64	H	-0.576874	0.044812	0.576769
Cl65	Cl	-0.665919	-0.317520	0.665592
Cl66	Cl	-0.325373	-0.066267	0.326021
H67	H	-0.638565	-0.206375	0.638338
H68	H	-0.352680	-0.457481	0.353216
Cl69	Cl	-0.263575	-0.317422	0.264395
H70	H	-0.576866	-0.054256	0.576755
Cl71	Cl	-0.325321	-0.568632	0.325924
H72	H	-0.290954	-0.206295	0.291687
H73	H	-0.576802	-0.556593	0.576645
H74	H	-0.352764	0.044865	0.353314
Cl75	Cl	-0.604160	-0.445461	0.603959
