data_functionalizedCrystal
_audit_creation_method	'MofGen! by Chris Wilmer'
_symmetry_space_group_name_H-M	'P1'
_symmetry_Int_Tables_number	1
_symmetry_cell_setting	triclinic
loop_
_symmetry_equiv_pos_as_xyz
  x,y,z
_cell_length_a	27.732048
_cell_length_b	11.026607
_cell_length_c	10.065875
_cell_angle_alpha	79.268236
_cell_angle_beta	98.667963
_cell_angle_gamma	95.614336
loop_
_atom_site_label
_atom_site_type_symbol
_atom_site_fract_x
_atom_site_fract_y
_atom_site_fract_z
O1	O	-0.659402	-0.126245	-0.113310
O2	O	-0.520583	-0.148157	-0.113350
O3	O	-0.578488	0.039236	-0.113328
O4	O	-0.601498	-0.313638	-0.113332
O5	O	-0.567458	0.003360	0.113656
O6	O	-0.509554	-0.184033	0.113635
O7	O	-0.648373	-0.162120	0.113675
Zn8	Zn	-0.577213	-0.178773	0.149693
Zn9	Zn	-0.591744	-0.131505	-0.149369
O10	O	-0.590469	-0.349514	0.113653
C11	C	-0.568728	0.066430	0.000161
C12	C	-0.556074	0.200908	0.000153
C13	C	-0.497021	-0.165634	0.000137
C14	C	-0.443242	-0.164246	0.000121
C15	C	-0.671936	-0.144643	0.000185
C16	C	-0.725715	-0.146029	0.000191
C17	C	-0.113605	-0.266272	0.000180
C18	C	0.088518	-0.261134	0.000192
O19	O	0.111381	-0.354430	0.000250
N20	N	0.117641	-0.150015	0.000190
C21	C	0.096232	-0.040175	0.000195
O22	O	0.125642	0.054454	0.000208
C23	C	-0.105890	-0.045316	0.000192
C24	C	-0.135011	-0.156440	0.000180
C25	C	-0.142726	-0.377388	0.000169
C26	C	-0.193254	-0.378670	0.000158
C27	C	-0.214661	-0.268837	0.000159
C28	C	-0.185539	-0.157722	0.000169
C29	C	-0.127298	0.064522	0.000207
C30	C	-0.177831	0.063226	0.000210
C31	C	-0.206953	-0.047898	0.000197
C32	C	-0.257474	-0.049172	0.000159
N33	N	-0.286597	-0.160290	0.000161
C34	C	-0.265191	-0.270123	0.000160
C35	C	0.202348	-0.037483	0.000194
C36	C	0.252878	-0.036197	0.000192
C37	C	0.245161	-0.257157	0.000191
C38	C	0.194629	-0.258440	0.000183
C39	C	0.173225	-0.148601	0.000195
C40	C	-0.371303	-0.272807	0.000137
C41	C	-0.421836	-0.274079	0.000121
C42	C	-0.414113	-0.053121	0.000129
C43	C	-0.363586	-0.051847	0.000138
C44	C	-0.342182	-0.161701	0.000147
O45	O	-0.280369	0.044073	0.000117
O46	O	-0.294608	-0.364743	0.000178
C47	C	-0.063077	-0.264990	0.000190
C48	C	-0.033955	-0.153875	0.000201
C49	C	-0.055362	-0.044042	0.000201
C50	C	0.016575	-0.152589	0.000199
C51	C	0.037981	-0.262422	0.000199
C52	C	0.008858	-0.373541	0.000200
C53	C	-0.041670	-0.374823	0.000190
C54	C	-0.026238	0.067076	0.000200
C55	C	0.024289	0.068350	0.000209
C56	C	0.045696	-0.041483	0.000209
C57	C	-0.600229	-0.376707	0.000161
C58	C	-0.612884	-0.511184	0.000160
N59	N	-0.567299	-0.211031	0.353795
C60	C	-0.591015	0.275368	0.000161
C61	C	-0.577937	0.414358	0.000152
N62	N	-0.601661	-0.099237	-0.353471
C63	C	-0.588291	-0.142721	0.421582
C64	C	-0.580666	-0.167557	0.578746
H65	H	-0.445545	-0.364573	0.000110
Cl66	Cl	-0.674023	0.428392	0.000171
Cl67	Cl	-0.090701	0.204233	0.000199
H68	H	-0.516478	0.240060	0.000132
Cl69	Cl	-0.624623	-0.023768	0.331555
H70	H	-0.557044	-0.244427	0.637058
Cl71	Cl	-0.638253	0.019197	0.556511
H72	H	-0.543679	-0.287896	0.412112
Cl73	Cl	-0.229857	-0.518378	0.000152
Cl74	Cl	-0.115825	-0.515482	0.000165
Cl75	Cl	-0.344404	-0.410911	0.000147
H76	H	0.170922	-0.348928	0.000181
H77	H	-0.538338	0.453504	0.000132
H78	H	-0.339874	0.038642	0.000128
Cl79	Cl	0.272081	-0.395232	0.000196
H80	H	-0.630611	0.236216	0.000181
Cl81	Cl	0.289481	0.103513	0.000173
H82	H	0.184926	0.051967	0.000203
H83	H	-0.195256	0.152672	0.000220
H84	H	-0.431552	0.036303	0.000124
H85	H	0.026295	-0.462970	0.000194
Cl86	Cl	-0.078273	-0.514530	0.000176
H87	H	-0.043662	0.156517	0.000204
Cl88	Cl	0.060893	0.208066	0.000207
