data_functionalizedCrystal
_audit_creation_method	'MofGen! by Chris Wilmer'
_symmetry_space_group_name_H-M	'P1'
_symmetry_Int_Tables_number	1
_symmetry_cell_setting	triclinic
loop_
_symmetry_equiv_pos_as_xyz
  x,y,z
_cell_length_a	23.096457
_cell_length_b	14.560438
_cell_length_c	14.560438
_cell_angle_alpha	60.000905
_cell_angle_beta	89.999077
_cell_angle_gamma	59.997904
loop_
_atom_site_label
_atom_site_type_symbol
_atom_site_fract_x
_atom_site_fract_y
_atom_site_fract_z
Zr1	Zr	0.557775	1.005256	-0.120526
O2	O	0.465323	1.196862	-0.267168
O3	O	0.586117	0.813653	-0.075575
O4	O	0.586114	1.005257	-0.267176
O5	O	0.465328	1.005256	0.075574
O6	O	0.681396	1.005254	-0.267179
O7	O	0.465326	1.005259	-0.075567
O8	O	0.681401	0.662509	0.075560
O9	O	0.465323	1.348000	-0.267165
O10	O	0.669312	0.892458	-0.056403
O11	O	0.598206	0.892459	0.056394
O12	O	0.598203	1.118048	-0.169191
O13	O	0.527096	1.118048	-0.056394
Zr14	Zr	0.709743	1.005246	0.120521
Zr15	Zr	0.709740	1.005250	-0.120531
Zr16	Zr	0.557779	1.005252	0.120526
Zr17	Zr	0.557776	1.246303	-0.120521
Zr18	Zr	0.709743	0.764198	0.120517
O19	O	0.681402	1.196849	0.075570
O20	O	0.681396	1.196854	-0.267175
O21	O	0.465328	1.196857	0.075577
O22	O	0.802196	0.813639	0.267163
O23	O	0.802190	0.813645	-0.075582
O24	O	0.586122	0.813647	0.267170
O25	O	0.802191	1.005246	-0.075579
O26	O	0.681405	1.005245	0.267171
O27	O	0.586122	1.005248	0.267174
O28	O	0.802193	1.005243	0.075562
O29	O	0.586114	1.347996	-0.267169
O30	O	0.681404	0.662506	0.267164
O31	O	0.802196	0.662501	0.267160
O32	O	0.802193	0.662505	0.075556
O33	O	0.465326	1.347997	-0.075561
O34	O	0.586117	1.347993	-0.075565
O35	O	0.669316	0.892454	0.169186
O36	O	0.740422	0.892453	0.056389
O37	O	0.669313	1.118043	-0.056399
O38	O	0.598206	1.118044	0.056398
C39	C	0.633759	0.703737	-0.000008
C40	C	0.633759	0.601406	-0.000010
C41	C	0.670874	0.553330	-0.058889
C42	C	0.670877	0.457170	-0.058879
C43	C	0.596643	0.457176	0.058892
C44	C	0.596645	0.553327	0.058887
C45	C	0.443675	1.005258	0.000004
C46	C	0.379162	1.005260	0.000006
C47	C	0.348858	1.005271	-0.083264
C48	C	0.288246	1.005260	-0.083264
C49	C	0.257932	1.005263	-0.000002
C50	C	0.288246	1.005245	0.083283
C51	C	0.348861	1.005243	0.083287
N52	N	0.139580	1.078795	0.025207
N53	N	0.081998	1.078798	0.025196
C54	C	0.075303	1.005264	-0.000008
N55	N	0.128361	0.931741	-0.025222
N56	N	0.185947	0.931743	-0.025217
C57	C	0.192205	1.005263	0.000003
C58	C	-0.020724	1.005260	-0.083282
C59	C	-0.081335	1.005240	-0.083275
C60	C	-0.081338	1.005238	0.083268
C61	C	-0.020724	1.005245	0.083264
C62	C	0.009578	1.005262	-0.000016
C63	C	0.823844	1.005244	-0.000009
C64	C	0.888356	1.005241	-0.000011
C65	C	0.633755	1.005256	-0.301522
C66	C	0.633753	1.005258	-0.403855
C67	C	0.633760	1.306765	0.000003
C68	C	0.633760	1.409096	0.000005
C69	C	0.596635	1.123011	-0.510805
C70	C	0.596643	1.123005	-0.606954
C71	C	0.670888	0.887482	-0.489188
C72	C	0.670884	0.887489	-0.393042
C73	C	0.633764	1.005246	0.301517
C74	C	0.633766	1.005244	0.403850
C75	C	0.823843	0.703730	-0.000015
C76	C	0.888356	0.601396	-0.000019
C77	C	0.633764	0.703732	0.301511
C78	C	0.633765	0.601399	0.403842
C79	C	0.823848	0.703725	0.301505
C80	C	0.888362	0.601390	0.403834
C81	C	0.443671	1.306777	-0.301510
C82	C	0.379156	1.409112	-0.403839
C83	C	0.443676	1.306772	0.000010
C84	C	0.379163	1.409105	0.000014
C85	C	0.633755	1.306770	-0.301516
C86	C	0.633753	1.409103	-0.403847
C87	C	0.881533	0.553342	-0.058907
C88	C	0.942144	0.457202	-0.058933
C89	C	1.009577	0.409112	-0.000064
C90	C	1.016398	0.457176	0.058826
C91	C	0.955788	0.553321	0.058845
C92	C	0.955782	0.553332	0.393010
C93	C	1.016406	0.457190	0.489149
C94	C	1.009609	0.409102	0.596112
C95	C	0.942182	0.457170	0.606934
C96	C	0.881559	0.553316	0.510795
C97	C	0.311737	1.457182	-0.393015
C98	C	0.251113	1.553353	-0.489154
C99	C	0.257910	1.601446	-0.596117
C100	C	0.325337	1.553373	-0.606939
C101	C	0.385959	1.457210	-0.510800
C102	C	0.385986	1.457170	0.058892
C103	C	0.325375	1.553336	0.058892
C104	C	0.257942	1.601430	0.000019
C105	C	0.251121	1.553361	-0.058866
C106	C	0.311731	1.457203	-0.058872
C107	C	0.670884	0.553319	0.510794
C108	C	0.670877	0.457175	0.606941
C109	C	0.596632	0.457197	0.489171
C110	C	0.596635	0.553346	0.393026
H111	H	0.701096	0.592471	-0.106845
H112	H	0.440854	1.418072	-0.519627
H113	H	0.961330	0.592471	0.305924
H114	H	0.566426	0.418020	0.106842
H115	H	0.961353	0.592434	0.106806
H116	H	0.701115	0.592446	0.519607
F117	F	0.557144	0.604490	0.121564
F118	F	1.088160	0.406046	0.477608
H119	H	0.566401	1.218906	-0.519616
H120	H	0.936576	0.418080	-0.106889
H121	H	0.196217	1.592478	-0.480321
F122	F	0.304458	1.406052	-0.121536
F123	F	0.710390	0.762153	-0.279207
H124	H	0.330863	1.592542	-0.694039
H125	H	0.566404	0.418059	0.480378
F126	F	0.934958	0.405977	0.720781
F127	F	0.557123	0.604525	0.279190
F128	F	0.255985	1.005242	0.171900
F129	F	1.074135	0.306772	0.698423
H130	H	0.826665	0.592432	0.519624
H131	H	0.701101	0.418027	-0.106822
F132	F	0.304486	1.406012	-0.279186
H133	H	0.373529	1.005281	-0.151074
F134	F	1.074078	0.306784	-0.000093
F135	F	0.557139	1.248334	-0.720778
H136	H	0.263568	1.005268	-0.151074
H137	H	0.196209	1.592534	-0.106799
H138	H	0.701102	0.418034	0.694023
F139	F	0.381114	1.005232	0.171918
H140	H	0.701118	0.791599	-0.480398
H141	H	0.440887	1.418019	0.106841
F142	F	-0.113584	1.005241	-0.171901
F143	F	0.011528	1.005270	-0.171913
H144	H	0.003949	1.005244	0.151067
F145	F	-0.113593	1.005230	0.171887
F146	F	0.332650	1.604473	0.121573
F147	F	0.809772	0.604509	-0.121572
F148	F	0.193441	1.703770	0.000037
F149	F	0.193384	1.703792	-0.698428
F150	F	1.088171	0.405978	0.121478
