data_functionalizedCrystal
_audit_creation_method	'MofGen! by Chris Wilmer'
_symmetry_space_group_name_H-M	'P1'
_symmetry_Int_Tables_number	1
_symmetry_cell_setting	triclinic
loop_
_symmetry_equiv_pos_as_xyz
  x,y,z
_cell_length_a	29.839134
_cell_length_b	29.839131
_cell_length_c	29.839125
_cell_angle_alpha	90.025363
_cell_angle_beta	90.024313
_cell_angle_gamma	90.027971
loop_
_atom_site_label
_atom_site_type_symbol
_atom_site_fract_x
_atom_site_fract_y
_atom_site_fract_z
Zn1	Zn	0.686739	-0.179003	0.254129
Zn2	Zn	1.186739	0.320997	0.754129
Zn3	Zn	0.686679	-0.254115	0.178989
Zn4	Zn	1.186679	0.245885	0.678989
Zn5	Zn	0.611622	-0.178991	0.178996
Zn6	Zn	1.111622	0.321009	0.678996
Zn7	Zn	0.611578	-0.254097	0.254074
Zn8	Zn	1.111578	0.245903	0.754074
O9	O	0.649154	-0.216552	0.216547
O10	O	1.149154	0.283448	0.716547
O11	O	0.749598	-0.188980	0.244182
O12	O	1.249598	0.311020	0.744182
O13	O	0.676716	-0.244152	0.116123
O14	O	1.176716	0.255848	0.616123
O15	O	0.621630	-0.116125	0.188988
O16	O	1.121630	0.383875	0.688988
O17	O	0.749554	-0.244164	0.188977
O18	O	1.249554	0.255836	0.688977
O19	O	0.676818	-0.116134	0.244188
O20	O	1.176818	0.383866	0.744188
O21	O	0.621572	-0.188958	0.116128
O22	O	1.121572	0.311042	0.616128
O23	O	0.548749	-0.188941	0.188935
O24	O	1.048749	0.311059	0.688935
O25	O	0.621554	-0.244134	0.316949
O26	O	1.121554	0.255866	0.816949
O27	O	0.548716	-0.244122	0.244095
O28	O	1.048716	0.255878	0.744095
O29	O	0.676775	-0.188962	0.316989
O30	O	1.176775	0.311038	0.816989
O31	O	0.676673	-0.316980	0.188924
O32	O	1.176673	0.183020	0.688924
O33	O	0.621497	-0.316967	0.244088
O34	O	1.121497	0.183033	0.744088
C35	C	0.532432	-0.216528	0.216510
C36	C	1.032432	0.283472	0.716510
C37	C	0.482497	-0.216529	0.216505
C38	C	0.982497	0.283471	0.716505
C39	C	0.125915	-0.187777	0.187884
C40	C	0.625915	0.312223	0.687884
C41	C	0.313588	-0.187764	0.187857
C42	C	0.813588	0.312236	0.687857
O43	O	0.337856	-0.163279	0.163480
O44	O	0.837856	0.336721	0.663480
N45	N	0.337052	-0.216536	0.216527
N46	N	0.837052	0.283464	0.716527
C47	C	0.313596	-0.245312	0.245209
C48	C	0.813596	0.254688	0.745209
O49	O	0.337860	-0.269781	0.269598
O50	O	0.837860	0.230219	0.769598
C51	C	0.125923	-0.245322	0.245238
C52	C	0.625923	0.254678	0.745238
C53	C	0.102461	-0.216551	0.216562
C54	C	0.602461	0.283449	0.716562
C55	C	0.102452	-0.159007	0.159211
C56	C	0.602452	0.340993	0.659211
C57	C	0.055537	-0.159013	0.159216
C58	C	0.555537	0.340987	0.659216
C59	C	0.032084	-0.187787	0.187895
C60	C	0.532084	0.312213	0.687895
C61	C	0.055546	-0.216556	0.216568
C62	C	0.555546	0.283444	0.716568
C63	C	0.102468	-0.274095	0.273922
C64	C	0.602468	0.225905	0.773922
C65	C	0.055547	-0.274094	0.273927
C66	C	0.555547	0.225906	0.773927
C67	C	0.032085	-0.245323	0.245251
C68	C	0.532085	0.254677	0.745251
C69	C	-0.014823	-0.245336	0.245251
C70	C	0.485177	0.254664	0.745251
N71	N	-0.038287	-0.216563	0.216581
N72	N	0.461713	0.283437	0.716581
C73	C	-0.014834	-0.187789	0.187902
C74	C	0.485166	0.312211	0.687902
C75	C	0.412126	-0.245305	0.245191
C76	C	0.912126	0.254695	0.745191
C77	C	0.459044	-0.245303	0.245183
C78	C	0.959044	0.254697	0.745183
C79	C	0.459033	-0.187755	0.187831
C80	C	0.959033	0.312245	0.687831
C81	C	0.412114	-0.187759	0.187837
C82	C	0.912114	0.312241	0.687837
C83	C	0.388662	-0.216533	0.216520
C84	C	0.888662	0.283467	0.716520
C85	C	-0.113360	-0.187802	0.187916
C86	C	0.386640	0.312198	0.687916
C87	C	-0.160280	-0.187811	0.187922
C88	C	0.339720	0.312189	0.687922
C89	C	-0.160264	-0.245358	0.245275
C90	C	0.339736	0.254642	0.745275
C91	C	-0.113349	-0.245351	0.245267
C92	C	0.386651	0.254649	0.745267
C93	C	-0.089898	-0.216569	0.216586
C94	C	0.410102	0.283431	0.716586
O95	O	-0.039120	-0.269804	0.269618
O96	O	0.460880	0.230196	0.769618
O97	O	-0.039107	-0.163316	0.163524
O98	O	0.460893	0.336684	0.663524
C99	C	0.172830	-0.187771	0.187878
C100	C	0.672830	0.312229	0.687878
C101	C	0.196292	-0.216541	0.216552
C102	C	0.696292	0.283459	0.716552
C103	C	0.172839	-0.245315	0.245230
C104	C	0.672839	0.254685	0.745230
C105	C	0.243210	-0.216539	0.216544
C106	C	0.743210	0.283461	0.716544
C107	C	0.266663	-0.187764	0.187865
C108	C	0.766663	0.312236	0.687865
C109	C	0.243199	-0.158992	0.159195
C110	C	0.743199	0.341008	0.659195
C111	C	0.196283	-0.158997	0.159200
C112	C	0.696283	0.341003	0.659200
C113	C	0.196304	-0.274087	0.273901
C114	C	0.696304	0.225913	0.773901
C115	C	0.243219	-0.274080	0.273892
C116	C	0.743219	0.225920	0.773892
C117	C	0.266672	-0.245306	0.245214
C118	C	0.766672	0.254694	0.745214
C119	C	0.649086	-0.333274	0.216509
C120	C	1.149086	0.166726	0.716509
C121	C	0.649098	-0.383209	0.216508
C122	C	1.149098	0.116791	0.716508
C123	C	0.677885	-0.692822	0.245331
C124	C	1.177885	-0.192822	0.745331
C125	C	0.677933	-0.880495	0.245358
C126	C	1.177933	-0.380495	0.745358
O127	O	0.702342	-0.904734	0.269836
O128	O	1.202342	-0.404734	0.769836
N129	N	0.649231	-0.903994	0.216597
N130	N	1.149231	-0.403994	0.716597
C131	C	0.620512	-0.880571	0.187829
C132	C	1.120512	-0.380571	0.687829
O133	O	0.596096	-0.904865	0.163370
O134	O	1.096096	-0.404865	0.663370
C135	C	0.620461	-0.692899	0.187805
C136	C	1.120461	-0.192899	0.687805
C137	C	0.649169	-0.669403	0.216564
C138	C	1.149169	-0.169403	0.716564
C139	C	0.706590	-0.669326	0.274088
C140	C	1.206590	-0.169326	0.774088
C141	C	0.706579	-0.622410	0.274079
C142	C	1.206579	-0.122410	0.774079
C143	C	0.677863	-0.598991	0.245313
C144	C	1.177863	-0.098991	0.745313
C145	C	0.649158	-0.622487	0.216556
C146	C	1.149158	-0.122487	0.716556
C147	C	0.591740	-0.669477	0.159040
C148	C	1.091740	-0.169477	0.659040
C149	C	0.591729	-0.622556	0.159037
C150	C	1.091729	-0.122556	0.659037
C151	C	0.620437	-0.599060	0.187797
C152	C	1.120437	-0.099060	0.687797
C153	C	0.620431	-0.552153	0.187781
C154	C	1.120431	-0.052153	0.687781
N155	N	0.649134	-0.528654	0.216541
N156	N	1.149134	-0.028654	0.716541
C157	C	0.677850	-0.552073	0.245308
C158	C	1.177850	-0.052073	0.745308
C159	C	0.620541	-0.979102	0.187844
C160	C	1.120541	-0.479102	0.687844
C161	C	0.620554	-1.026020	0.187849
C162	C	1.120554	-0.526020	0.687849
C163	C	0.677975	-1.025940	0.245378
C164	C	1.177975	-0.525940	0.745378
C165	C	0.677964	-0.979022	0.245370
C166	C	1.177964	-0.479022	0.745370
C167	C	0.649244	-0.955603	0.216604
C168	C	1.149244	-0.455603	0.716604
C169	C	0.677826	-0.453547	0.245287
C170	C	1.177826	0.046453	0.745287
C171	C	0.677814	-0.406628	0.245274
C172	C	1.177814	0.093372	0.745274
C173	C	0.620391	-0.406711	0.187747
C174	C	1.120391	0.093289	0.687747
C175	C	0.620404	-0.453627	0.187758
C176	C	1.120404	0.046373	0.687758
C177	C	0.649123	-0.477044	0.216531
C178	C	1.149123	0.022956	0.716531
O179	O	0.596032	-0.527885	0.163319
O180	O	1.096032	-0.027885	0.663319
O181	O	0.702255	-0.527772	0.269770
O182	O	1.202255	-0.027772	0.769770
C183	C	0.677895	-0.739737	0.245339
C184	C	1.177895	-0.239737	0.745339
C185	C	0.649190	-0.763234	0.216582
C186	C	1.149190	-0.263234	0.716582
C187	C	0.620474	-0.739815	0.187816
C188	C	1.120474	-0.239815	0.687816
C189	C	0.649203	-0.810152	0.216587
C190	C	1.149203	-0.310152	0.716587
C191	C	0.677919	-0.833571	0.245354
C192	C	1.177919	-0.333571	0.745354
C193	C	0.706622	-0.810072	0.274115
C194	C	1.206622	-0.310072	0.774115
C195	C	0.706611	-0.763157	0.274106
C196	C	1.206611	-0.263157	0.774106
C197	C	0.591772	-0.763313	0.159055
C198	C	1.091772	-0.263313	0.659055
C199	C	0.591785	-0.810229	0.159066
C200	C	1.091785	-0.310229	0.659066
C201	C	0.620501	-0.833648	0.187832
C202	C	1.120501	-0.333648	0.687832
C203	C	0.766333	-0.216575	0.216585
C204	C	1.266333	0.283425	0.716585
C205	C	0.816267	-0.216586	0.216601
C206	C	1.316267	0.283414	0.716601
C207	C	0.649167	-0.216548	0.333725
C208	C	1.149167	0.283452	0.833725
C209	C	0.649172	-0.216546	0.383660
C210	C	1.149172	0.283454	0.883660
C211	C	0.649235	-0.099373	0.216595
C212	C	1.149235	0.400627	0.716595
C213	C	0.649270	-0.049439	0.216615
C214	C	1.149270	0.450561	0.716615
C215	C	0.649168	-0.216523	0.099825
C216	C	1.149168	0.283477	0.599825
C217	C	0.649250	-0.216398	0.049890
C218	C	1.149250	0.283602	0.549890
C219	C	0.677955	-0.187743	0.693327
C220	C	1.177955	0.312257	1.193327
C221	C	0.677978	-0.187705	0.881000
C222	C	1.177978	0.312295	1.381000
O223	O	0.702417	-0.163258	0.905286
O224	O	1.202417	0.336742	1.405286
N225	N	0.649231	-0.216426	0.904445
N226	N	1.149231	0.283574	1.404445
C227	C	0.620475	-0.245156	0.880969
C228	C	1.120475	0.254844	1.380969
O229	O	0.596022	-0.269581	0.905216
O230	O	1.096022	0.230419	1.405216
C231	C	0.620451	-0.245192	0.693296
C232	C	1.120451	0.254808	1.193296
C233	C	0.649202	-0.216472	0.669854
C234	C	1.149202	0.283528	1.169854
C235	C	0.706704	-0.159025	0.669885
C236	C	1.206704	0.340975	1.169885
C237	C	0.706700	-0.159037	0.622970
C238	C	1.206700	0.340963	1.122970
C239	C	0.677947	-0.187766	0.599496
C240	C	1.177947	0.312234	1.099496
C241	C	0.649198	-0.216484	0.622939
C242	C	1.149198	0.283516	1.122939
C243	C	0.591693	-0.273920	0.669821
C244	C	1.091693	0.226080	1.169821
C245	C	0.591689	-0.273925	0.622900
C246	C	1.091689	0.226075	1.122900
C247	C	0.620440	-0.245206	0.599458
C248	C	1.120440	0.254794	1.099458
C249	C	0.620441	-0.245225	0.552550
C250	C	1.120441	0.254775	1.052550
N251	N	0.649188	-0.216504	0.529105
N252	N	1.149188	0.283496	1.029105
C253	C	0.677941	-0.187774	0.552578
C254	C	1.177941	0.312226	1.052578
C255	C	0.620491	-0.245136	0.979499
C256	C	1.120491	0.254864	1.479499
C257	C	0.620497	-0.245128	1.026417
C258	C	1.120497	0.254872	1.526417
C259	C	0.677999	-0.187675	1.026446
C260	C	1.177999	0.312325	1.526446
C261	C	0.677994	-0.187686	0.979527
C262	C	1.177994	0.312314	1.479527
C263	C	0.649237	-0.216415	0.956055
C264	C	1.149237	0.283585	1.456055
C265	C	0.677930	-0.187801	0.454053
C266	C	1.177930	0.312199	0.954053
C267	C	0.677925	-0.187817	0.407133
C268	C	1.177925	0.312183	0.907133
C269	C	0.620421	-0.245267	0.407109
C270	C	1.120421	0.254733	0.907109
C271	C	0.620428	-0.245253	0.454024
C272	C	1.120428	0.254747	0.954024
C273	C	0.649184	-0.216517	0.477495
C274	C	1.149184	0.283483	0.977495
O275	O	0.596011	-0.269655	0.528236
O276	O	1.096011	0.230345	1.028236
O277	O	0.702383	-0.163346	0.528323
O278	O	1.202383	0.336654	1.028323
C279	C	0.677959	-0.187731	0.740243
C280	C	1.177959	0.312269	1.240243
C281	C	0.649211	-0.216449	0.763685
C282	C	1.149211	0.283551	1.263685
C283	C	0.620458	-0.245178	0.740212
C284	C	1.120458	0.254822	1.240212
C285	C	0.649217	-0.216441	0.810603
C286	C	1.149217	0.283559	1.310603
C287	C	0.677970	-0.187711	0.834076
C288	C	1.177970	0.312289	1.334076
C289	C	0.706717	-0.158990	0.810631
C290	C	1.206717	0.341010	1.310631
C291	C	0.706712	-0.159002	0.763716
C292	C	1.206712	0.340998	1.263716
C293	C	0.591711	-0.273899	0.763657
C294	C	1.091711	0.226101	1.263657
C295	C	0.591718	-0.273886	0.810572
C296	C	1.091718	0.226114	1.310572
C297	C	0.620471	-0.245156	0.834045
C298	C	1.120471	0.254844	1.334045
H299	H	-0.179368	-0.268787	0.268623
H300	H	0.320632	0.231213	0.768623
H301	H	0.568297	-0.297295	0.744550
H302	H	1.068297	0.202705	1.244550
H303	H	0.262303	-0.135564	0.135842
H304	H	0.762303	0.364436	0.635842
H305	H	0.729974	-0.688389	0.297516
H306	H	1.229974	-0.188389	0.797516
H307	H	0.262318	-0.297513	0.297243
H308	H	0.762318	0.202487	0.797243
O309	O	0.708928	-0.953679	0.276387
O310	O	1.208928	-0.453679	0.776387
H311	H	0.728897	-0.977851	0.296389
H312	H	1.228897	-0.477851	0.796389
H313	H	0.568306	-0.297277	0.829655
H314	H	1.068306	0.202723	1.329655
H315	H	0.729988	-0.744029	0.297525
H316	H	1.229988	-0.244029	0.797525
O317	O	0.589564	-0.953845	0.156814
O318	O	1.089564	-0.453845	0.656814
H319	H	0.609682	-0.932465	0.133980
H320	H	1.109682	-0.432465	0.633980
O321	O	0.171010	-0.305185	0.304772
O322	O	0.671010	0.194815	0.804772
H323	H	0.195213	-0.325213	0.324681
H324	H	0.695213	0.174787	0.824681
O325	O	0.386833	-0.276405	0.276065
O326	O	0.886833	0.223595	0.776065
H327	H	0.411036	-0.296435	0.295972
H328	H	0.911036	0.203565	0.795972
O329	O	-0.185588	-0.156784	0.156988
O330	O	0.314412	0.343216	0.656988
H331	H	-0.206950	-0.133961	0.177138
H332	H	0.293050	0.366039	0.677138
H333	H	0.478143	-0.268737	0.268529
H334	H	0.978143	0.231263	0.768529
O335	O	-0.088069	-0.156767	0.156975
O336	O	0.411931	0.343233	0.656975
H337	H	-0.112272	-0.136770	0.137035
H338	H	0.387728	0.363230	0.637035
O339	O	0.709002	-0.156708	0.954243
O340	O	1.209002	0.343292	1.454243
H341	H	0.728993	-0.136730	0.978453
H342	H	1.228993	0.363270	1.478453
H343	H	0.730005	-0.829148	0.297536
H344	H	1.230005	-0.329148	0.797536
O345	O	0.708783	-0.381284	0.276289
O346	O	1.208783	0.118716	0.776289
H347	H	0.728751	-0.405454	0.296294
H348	H	1.228751	0.094546	0.796294
H349	H	0.121563	-0.297524	0.297272
H350	H	0.621563	0.202476	0.797272
O351	O	0.560755	-0.597297	0.128007
O352	O	1.060755	-0.097297	0.628007
H353	H	0.540801	-0.621521	0.108009
H354	H	1.040801	-0.121521	0.608009
O355	O	0.589443	-0.478974	0.156739
O356	O	1.089443	0.021026	0.656739
H357	H	0.569472	-0.454805	0.136736
H358	H	1.069472	0.045195	0.636736
O359	O	0.589418	-0.381448	0.156722
O360	O	1.089418	0.118552	0.656722
H361	H	0.594232	-0.344877	0.161554
H362	H	1.094232	0.155123	0.661554
H363	H	0.730125	-0.135615	0.744633
H364	H	1.230125	0.364385	1.244633
O365	O	0.708803	-0.478801	0.276317
O366	O	1.208803	0.021199	0.776317
H367	H	0.728762	-0.454575	0.296307
H368	H	1.228762	0.045425	0.796307
O369	O	0.560819	-0.835570	0.128045
O370	O	1.060819	-0.335570	0.628045
H371	H	0.540848	-0.811398	0.108046
H372	H	1.040848	-0.311398	0.608046
H373	H	0.036454	-0.297524	0.297286
H374	H	0.536454	0.202476	0.797286
O375	O	-0.088038	-0.276382	0.276194
O376	O	0.411962	0.223618	0.776194
H377	H	-0.112231	-0.296390	0.296138
H378	H	0.387769	0.203610	0.796138
H379	H	0.729954	-0.603282	0.297499
H380	H	1.229954	-0.103282	0.797499
O381	O	0.708944	-1.051203	0.276411
O382	O	1.208944	-0.551203	0.776411
H383	H	0.704124	-1.087774	0.271584
H384	H	1.204124	-0.587774	0.771584
O385	O	0.589594	-1.051361	0.156827
O386	O	1.089594	-0.551361	0.656827
H387	H	0.569622	-1.027189	0.136829
H388	H	1.069622	-0.527189	0.636829
O389	O	0.737715	-0.128033	0.695200
O390	O	1.237715	0.371967	1.195200
H391	H	0.760560	-0.148138	0.716580
H392	H	1.260560	0.351862	1.216580
H393	H	0.701339	-0.164429	0.388048
H394	H	1.201339	0.335571	0.888048
H395	H	0.177185	-0.135568	0.135850
H396	H	0.677185	0.364432	0.635850
O397	O	0.560773	-0.694814	0.128024
O398	O	1.060773	-0.194814	0.628024
H399	H	0.540801	-0.670639	0.108028
H400	H	1.040801	-0.170639	0.608028
O401	O	0.560805	-0.738056	0.128020
O402	O	1.060805	-0.238056	0.628020
H403	H	0.540854	-0.762283	0.108021
H404	H	1.040854	-0.262283	0.608021
O405	O	0.708948	-0.156812	0.479365
O406	O	1.208948	0.343188	0.979365
H407	H	0.728939	-0.136850	0.455175
H408	H	1.228939	0.363150	0.955175
O409	O	0.737708	-0.128058	0.597687
O410	O	1.237708	0.371942	1.097687
H411	H	0.757697	-0.108079	0.621898
H412	H	1.257697	0.391921	1.121898
H413	H	0.701411	-0.164283	1.045566
H414	H	1.201411	0.335717	1.545566
O415	O	0.589488	-0.276105	1.051700
O416	O	1.089488	0.223895	1.551700
H417	H	0.569491	-0.296077	1.027491
H418	H	1.069491	0.203923	1.527491
H419	H	0.597073	-0.268533	0.960392
H420	H	1.097073	0.231467	1.460392
H421	H	0.568280	-0.297306	0.688899
H422	H	1.068280	0.202694	1.188899
H423	H	0.568265	-0.297315	0.603791
H424	H	1.068265	0.202685	1.103791
O425	O	0.589420	-0.276229	0.479313
O426	O	1.089420	0.223771	0.979313
H427	H	0.569424	-0.296207	0.455106
H428	H	1.069424	0.203793	0.955106
H429	H	0.597013	-0.268659	0.387988
H430	H	1.097013	0.231341	0.887988
O431	O	0.737719	-0.127997	0.835959
O432	O	1.237719	0.372003	1.335959
H433	H	0.760560	-0.148100	0.857346
H434	H	1.260560	0.351900	1.357346
O435	O	0.030233	-0.127978	0.128291
O436	O	0.530233	0.372022	0.628291
H437	H	0.039258	-0.092731	0.136069
H438	H	0.539258	0.407269	0.636069
O439	O	0.127740	-0.127976	0.128267
O440	O	0.627740	0.372024	0.628267
H441	H	0.118750	-0.092728	0.136032
H442	H	0.618750	0.407272	0.636032
O443	O	0.386809	-0.156724	0.156913
O444	O	0.886809	0.343276	0.656913
H445	H	0.411005	-0.136715	0.136974
H446	H	0.911005	0.363285	0.636974
O447	O	0.484332	-0.156714	0.156902
O448	O	0.984332	0.343286	0.656902
H449	H	0.520898	-0.161547	0.161720
H450	H	1.020898	0.338453	0.661720
