data_functionalizedCrystal
_audit_creation_method	'MofGen! by Chris Wilmer'
_symmetry_space_group_name_H-M	'P1'
_symmetry_Int_Tables_number	1
_symmetry_cell_setting	triclinic
loop_
_symmetry_equiv_pos_as_xyz
  x,y,z
_cell_length_a	25.639242
_cell_length_b	25.639239
_cell_length_c	25.639233
_cell_angle_alpha	89.981253
_cell_angle_beta	89.977834
_cell_angle_gamma	90.034213
loop_
_atom_site_label
_atom_site_type_symbol
_atom_site_fract_x
_atom_site_fract_y
_atom_site_fract_z
Zn1	Zn	0.799225	-0.208277	-0.295742
Zn2	Zn	1.049225	0.041723	-0.045742
Zn3	Zn	1.299225	0.291723	0.204258
Zn4	Zn	1.549225	0.541723	0.454258
Zn5	Zn	0.799149	-0.295696	-0.208307
Zn6	Zn	1.049149	-0.045696	0.041693
Zn7	Zn	1.299149	0.204304	0.291693
Zn8	Zn	1.549149	0.454304	0.541693
Zn9	Zn	0.711801	-0.208269	-0.208306
Zn10	Zn	0.961801	0.041731	0.041694
Zn11	Zn	1.211801	0.291731	0.291694
Zn12	Zn	1.461801	0.541731	0.541694
Zn13	Zn	0.711746	-0.295676	-0.295696
Zn14	Zn	0.961746	-0.045676	-0.045696
Zn15	Zn	1.211746	0.204324	0.204304
Zn16	Zn	1.461746	0.454324	0.454304
O17	O	0.755480	-0.251979	-0.252013
O18	O	1.005480	-0.001979	-0.002013
O19	O	1.255480	0.248021	0.247987
O20	O	1.505480	0.498021	0.497987
O21	O	0.872380	-0.219884	-0.284163
O22	O	1.122380	0.030116	-0.034163
O23	O	1.372380	0.280116	0.215837
O24	O	1.622380	0.530116	0.465837
O25	O	0.787553	-0.284103	-0.135141
O26	O	1.037553	-0.034103	0.114859
O27	O	1.287553	0.215897	0.364859
O28	O	1.537553	0.465897	0.614859
O29	O	0.723453	-0.135105	-0.219924
O30	O	0.973453	0.114895	0.030076
O31	O	1.223453	0.364895	0.280076
O32	O	1.473453	0.614895	0.530076
O33	O	0.872324	-0.284111	-0.219924
O34	O	1.122324	-0.034111	0.030076
O35	O	1.372324	0.215889	0.280076
O36	O	1.622324	0.465889	0.530076
O37	O	0.787683	-0.135111	-0.284163
O38	O	1.037683	0.114889	-0.034163
O39	O	1.287683	0.364889	0.215837
O40	O	1.537683	0.614889	0.465837
O41	O	0.723379	-0.219871	-0.135141
O42	O	0.973379	0.030129	0.114859
O43	O	1.223379	0.280129	0.364859
O44	O	1.473379	0.530129	0.614859
O45	O	0.638629	-0.219853	-0.219880
O46	O	0.888629	0.030147	0.030120
O47	O	1.138629	0.280147	0.280120
O48	O	1.388629	0.530147	0.530120
O49	O	0.723360	-0.284078	-0.368868
O50	O	0.973360	-0.034078	-0.118868
O51	O	1.223360	0.215922	0.131132
O52	O	1.473360	0.465922	0.381132
O53	O	0.638589	-0.284070	-0.284085
O54	O	0.888589	-0.034070	-0.034085
O55	O	1.138589	0.215930	0.215915
O56	O	1.388589	0.465930	0.465915
O57	O	0.787630	-0.219866	-0.368901
O58	O	1.037630	0.030134	-0.118901
O59	O	1.287630	0.280134	0.131099
O60	O	1.537630	0.530134	0.381099
O61	O	0.787499	-0.368858	-0.219880
O62	O	1.037499	-0.118858	0.030120
O63	O	1.287499	0.131142	0.280120
O64	O	1.537499	0.381142	0.530120
O65	O	0.723286	-0.368844	-0.284085
O66	O	0.973286	-0.118844	-0.034085
O67	O	1.223286	0.131156	0.215915
O68	O	1.473286	0.381156	0.465915
C69	C	0.619638	-0.251959	-0.251977
C70	C	0.869638	-0.001959	-0.001977
C71	C	1.119638	0.248041	0.248023
C72	C	1.369638	0.498041	0.498023
C73	C	0.561524	-0.251963	-0.251975
C74	C	0.811524	-0.001963	-0.001975
C75	C	1.061524	0.248037	0.248025
C76	C	1.311524	0.498037	0.498025
C77	C	0.201149	-0.285473	-0.285413
C78	C	0.451149	-0.035473	-0.035413
C79	C	0.701149	0.214527	0.214587
C80	C	0.951149	0.464527	0.464587
C81	C	0.146544	-0.285477	-0.285421
C82	C	0.396544	-0.035477	-0.035421
C83	C	0.646544	0.214523	0.214579
C84	C	0.896544	0.464523	0.464579
O85	O	0.118297	-0.313943	-0.313821
O86	O	0.368297	-0.063943	-0.063821
O87	O	0.618297	0.186057	0.186179
O88	O	0.868297	0.436057	0.436179
N89	N	0.119241	-0.251994	-0.252047
N90	N	0.369241	-0.001994	-0.002047
N91	N	0.619241	0.248006	0.247953
N92	N	0.869241	0.498006	0.497953
C93	C	0.146545	-0.218502	-0.218666
C94	C	0.396545	0.031498	0.031334
C95	C	0.646545	0.281498	0.281334
C96	C	0.896545	0.531498	0.531334
O97	O	0.118308	-0.190022	-0.190280
O98	O	0.368308	0.059978	0.059720
O99	O	0.618308	0.309978	0.309720
O100	O	0.868308	0.559978	0.559720
C101	C	0.201149	-0.218496	-0.218661
C102	C	0.451149	0.031504	0.031339
C103	C	0.701149	0.281504	0.281339
C104	C	0.951149	0.531504	0.531339
C105	C	0.228449	-0.251985	-0.252034
C106	C	0.478449	-0.001985	-0.002034
C107	C	0.728449	0.248015	0.247966
C108	C	0.978449	0.498015	0.497966
C109	C	0.228449	-0.318959	-0.318783
C110	C	0.478449	-0.068959	-0.068783
C111	C	0.728449	0.181041	0.181217
C112	C	0.978449	0.431041	0.431217
C113	C	0.283049	-0.318956	-0.318774
C114	C	0.533049	-0.068956	-0.068774
C115	C	0.783049	0.181044	0.181226
C116	C	1.033049	0.431044	0.431226
C117	C	0.310350	-0.285468	-0.285395
C118	C	0.560350	-0.035468	-0.035395
C119	C	0.810350	0.214532	0.214605
C120	C	1.060350	0.464532	0.464605
C121	C	0.283049	-0.251983	-0.252024
C122	C	0.533049	-0.001983	-0.002024
C123	C	0.783049	0.248017	0.247976
C124	C	1.033049	0.498017	0.497976
C125	C	0.228452	-0.185002	-0.185283
C126	C	0.478452	0.064998	0.064717
C127	C	0.728452	0.314998	0.314717
C128	C	0.978452	0.564998	0.564717
C129	C	0.283059	-0.185000	-0.185281
C130	C	0.533059	0.065000	0.064719
C131	C	0.783059	0.315000	0.314719
C132	C	1.033059	0.565000	0.564719
C133	C	0.310359	-0.218488	-0.218654
C134	C	0.560359	0.031512	0.031346
C135	C	0.810359	0.281512	0.281346
C136	C	1.060359	0.531512	0.531346
C137	C	0.364950	-0.218492	-0.218636
C138	C	0.614950	0.031508	0.031364
C139	C	0.864950	0.281508	0.281364
C140	C	1.114950	0.531508	0.531364
N141	N	0.392253	-0.251974	-0.252010
N142	N	0.642253	-0.001974	-0.002010
N143	N	0.892253	0.248026	0.247990
N144	N	1.142253	0.498026	0.497990
C145	C	0.364953	-0.285463	-0.285389
C146	C	0.614953	-0.035463	-0.035389
C147	C	0.864953	0.214537	0.214611
C148	C	1.114953	0.464537	0.464611
C149	C	0.031875	-0.218515	-0.218680
C150	C	0.281875	0.031485	0.031320
C151	C	0.531875	0.281485	0.281320
C152	C	0.781875	0.531485	0.531320
C153	C	-0.022728	-0.218523	-0.218683
C154	C	0.227272	0.031477	0.031317
C155	C	0.477272	0.281477	0.281317
C156	C	0.727272	0.531477	0.531317
C157	C	-0.022725	-0.285497	-0.285438
C158	C	0.227275	-0.035497	-0.035438
C159	C	0.477275	0.214503	0.214562
C160	C	0.727275	0.464503	0.464562
C161	C	0.031878	-0.285492	-0.285433
C162	C	0.281878	-0.035492	-0.035433
C163	C	0.531878	0.214508	0.214567
C164	C	0.781878	0.464508	0.464567
C165	C	0.059178	-0.251998	-0.252054
C166	C	0.309178	-0.001998	-0.002054
C167	C	0.559178	0.248002	0.247946
C168	C	0.809178	0.498002	0.497946
C169	C	0.479618	-0.285455	-0.285368
C170	C	0.729618	-0.035455	-0.035368
C171	C	0.979618	0.214545	0.214632
C172	C	1.229618	0.464545	0.464632
C173	C	0.534223	-0.285451	-0.285354
C174	C	0.784223	-0.035451	-0.035354
C175	C	1.034223	0.214549	0.214646
C176	C	1.284223	0.464549	0.464646
C177	C	0.534216	-0.218475	-0.218601
C178	C	0.784216	0.031525	0.031399
C179	C	1.034216	0.281525	0.281399
C180	C	1.284216	0.531525	0.531399
C181	C	0.479615	-0.218481	-0.218612
C182	C	0.729615	0.031519	0.031388
C183	C	0.979615	0.281519	0.281388
C184	C	1.229615	0.531519	0.531388
C185	C	0.452318	-0.251972	-0.252000
C186	C	0.702318	-0.001972	-0.002000
C187	C	0.952318	0.248028	0.248000
C188	C	1.202318	0.498028	0.498000
O189	O	0.393232	-0.190038	-0.190252
O190	O	0.643232	0.059962	0.059748
O191	O	0.893232	0.309962	0.309748
O192	O	1.143232	0.559962	0.559748
O193	O	0.393197	-0.313933	-0.313776
O194	O	0.643197	-0.063933	-0.063776
O195	O	0.893197	0.186067	0.186224
O196	O	1.143197	0.436067	0.436224
C197	C	0.755392	-0.387822	-0.251989
C198	C	1.005392	-0.137822	-0.001989
C199	C	1.255392	0.112178	0.248011
C200	C	1.505392	0.362178	0.498011
C201	C	0.755403	-0.445936	-0.251996
C202	C	1.005403	-0.195936	-0.001996
C203	C	1.255403	0.054064	0.248004
C204	C	1.505403	0.304064	0.498004
C205	C	0.789004	-0.806294	-0.218638
C206	C	1.039004	-0.556294	0.031362
C207	C	1.289004	-0.306294	0.281362
C208	C	1.539004	-0.056294	0.531362
C209	C	0.789024	-0.860898	-0.218645
C210	C	1.039024	-0.610898	0.031355
C211	C	1.289024	-0.360898	0.281355
C212	C	1.539024	-0.110898	0.531355
O213	O	0.817502	-0.889131	-0.190257
O214	O	1.067502	-0.639131	0.059743
O215	O	1.317502	-0.389131	0.309743
O216	O	1.567502	-0.139131	0.559743
N217	N	0.755572	-0.888218	-0.252048
N218	N	1.005572	-0.638218	-0.002048
N219	N	1.255572	-0.388218	0.247952
N220	N	1.505572	-0.138218	0.497952
C221	C	0.722102	-0.860932	-0.285449
C222	C	0.972102	-0.610932	-0.035449
C223	C	1.222102	-0.360932	0.214551
C224	C	1.472102	-0.110932	0.464551
O225	O	0.693651	-0.889184	-0.313861
O226	O	0.943651	-0.639184	-0.063861
O227	O	1.193651	-0.389184	0.186139
O228	O	1.443651	-0.139184	0.436139
C229	C	0.722085	-0.806328	-0.285444
C230	C	0.972085	-0.556328	-0.035444
C231	C	1.222085	-0.306328	0.214556
C232	C	1.472085	-0.056328	0.464556
C233	C	0.755535	-0.779011	-0.252036
C234	C	1.005535	-0.529011	-0.002036
C235	C	1.255535	-0.279011	0.247964
C236	C	1.505535	-0.029011	0.497964
C237	C	0.822452	-0.778976	-0.185233
C238	C	1.072452	-0.528976	0.064767
C239	C	1.322452	-0.278976	0.314767
C240	C	1.572452	-0.028976	0.564767
C241	C	0.822431	-0.724376	-0.185226
C242	C	1.072431	-0.474376	0.064774
C243	C	1.322431	-0.224376	0.314774
C244	C	1.572431	0.025624	0.564774
C245	C	0.788962	-0.697093	-0.218623
C246	C	1.038962	-0.447093	0.031377
C247	C	1.288962	-0.197093	0.281377
C248	C	1.538962	0.052907	0.531377
C249	C	0.755514	-0.724410	-0.252028
C250	C	1.005514	-0.474410	-0.002028
C251	C	1.255514	-0.224410	0.247972
C252	C	1.505514	0.025590	0.497972
C253	C	0.688617	-0.779042	-0.318847
C254	C	0.938617	-0.529042	-0.068847
C255	C	1.188617	-0.279042	0.181153
C256	C	1.438617	-0.029042	0.431153
C257	C	0.688603	-0.724435	-0.318840
C258	C	0.938603	-0.474435	-0.068840
C259	C	1.188603	-0.224435	0.181160
C260	C	1.438603	0.025565	0.431160
C261	C	0.722053	-0.697118	-0.285432
C262	C	0.972053	-0.447118	-0.035432
C263	C	1.222053	-0.197118	0.214568
C264	C	1.472053	0.052882	0.464568
C265	C	0.722024	-0.642527	-0.285418
C266	C	0.972024	-0.392527	-0.035418
C267	C	1.222024	-0.142527	0.214582
C268	C	1.472024	0.107473	0.464582
N269	N	0.755475	-0.615206	-0.252016
N270	N	1.005475	-0.365206	-0.002016
N271	N	1.255475	-0.115206	0.247984
N272	N	1.505475	0.134794	0.497984
C273	C	0.788944	-0.642490	-0.218618
C274	C	1.038944	-0.392490	0.031382
C275	C	1.288944	-0.142490	0.281382
C276	C	1.538944	0.107510	0.531382
C277	C	0.722141	-0.975602	-0.285457
C278	C	0.972141	-0.725602	-0.035457
C279	C	1.222141	-0.475602	0.214543
C280	C	1.472141	-0.225602	0.464543
C281	C	0.722155	-1.030204	-0.285459
C282	C	0.972155	-0.780204	-0.035459
C283	C	1.222155	-0.530204	0.214541
C284	C	1.472155	-0.280204	0.464541
C285	C	0.789078	-1.030167	-0.218656
C286	C	1.039078	-0.780167	0.031344
C287	C	1.289078	-0.530167	0.281344
C288	C	1.539078	-0.280167	0.531344
C289	C	0.789061	-0.975564	-0.218652
C290	C	1.039061	-0.725564	0.031348
C291	C	1.289061	-0.475564	0.281348
C292	C	1.539061	-0.225564	0.531348
C293	C	0.755593	-0.948282	-0.252055
C294	C	1.005593	-0.698282	-0.002055
C295	C	1.255593	-0.448282	0.247945
C296	C	1.505593	-0.198282	0.497945
C297	C	0.788897	-0.527824	-0.218605
C298	C	1.038897	-0.277824	0.031395
C299	C	1.288897	-0.027824	0.281395
C300	C	1.538897	0.222176	0.531395
C301	C	0.788872	-0.473219	-0.218599
C302	C	1.038872	-0.223219	0.031401
C303	C	1.288872	0.026781	0.281401
C304	C	1.538872	0.276781	0.531401
C305	C	0.721951	-0.473261	-0.285403
C306	C	0.971951	-0.223261	-0.035403
C307	C	1.221951	0.026739	0.214597
C308	C	1.471951	0.276739	0.464597
C309	C	0.721974	-0.527862	-0.285408
C310	C	0.971974	-0.277862	-0.035408
C311	C	1.221974	-0.027862	0.214592
C312	C	1.471974	0.222138	0.464592
C313	C	0.755452	-0.555142	-0.252007
C314	C	1.005452	-0.305142	-0.002007
C315	C	1.255452	-0.055142	0.247993
C316	C	1.505452	0.194858	0.497993
O317	O	0.693562	-0.614260	-0.313793
O318	O	0.943562	-0.364260	-0.063793
O319	O	1.193562	-0.114260	0.186207
O320	O	1.443562	0.135740	0.436207
O321	O	0.817396	-0.614231	-0.190216
O322	O	1.067396	-0.364231	0.059784
O323	O	1.317396	-0.114231	0.309784
O324	O	1.567396	0.135769	0.559784
C325	C	0.891853	-0.252000	-0.252049
C326	C	1.141853	-0.002000	-0.002049
C327	C	1.391853	0.248000	0.247951
C328	C	1.641853	0.498000	0.497951
C329	C	0.949967	-0.252009	-0.252064
C330	C	1.199967	-0.002009	-0.002064
C331	C	1.449967	0.247991	0.247936
C332	C	1.699967	0.497991	0.497936
C333	C	0.755497	-0.251970	-0.388386
C334	C	1.005497	-0.001970	-0.138386
C335	C	1.255497	0.248030	0.111614
C336	C	1.505497	0.498030	0.361614
C337	C	0.755504	-0.251966	-0.446500
C338	C	1.005504	-0.001966	-0.196500
C339	C	1.255504	0.248034	0.053500
C340	C	1.505504	0.498034	0.303500
C341	C	0.755583	-0.115606	-0.252048
C342	C	1.005583	0.134394	-0.002048
C343	C	1.255583	0.384394	0.247952
C344	C	1.505583	0.634394	0.497952
C345	C	0.755627	-0.057492	-0.252064
C346	C	1.005627	0.192508	-0.002064
C347	C	1.255627	0.442508	0.247936
C348	C	1.505627	0.692508	0.497936
C349	C	0.789012	-0.218432	-0.806886
C350	C	1.039012	0.031568	-0.556886
C351	C	1.289012	0.281568	-0.306886
C352	C	1.539012	0.531568	-0.056886
C353	C	0.789019	-0.218417	-0.861491
C354	C	1.039019	0.031583	-0.611491
C355	C	1.289019	0.281583	-0.361491
C356	C	1.539019	0.531583	-0.111491
O357	O	0.817466	-0.189967	-0.889747
O358	O	1.067466	0.060033	-0.639747
O359	O	1.317466	0.310033	-0.389747
O360	O	1.567466	0.560033	-0.139747
N361	N	0.755562	-0.251844	-0.888783
N362	N	1.005562	-0.001844	-0.638783
N363	N	1.255562	0.248156	-0.388783
N364	N	1.505562	0.498156	-0.138783
C365	C	0.722093	-0.285283	-0.861468
C366	C	0.972093	-0.035283	-0.611468
C367	C	1.222093	0.214717	-0.361468
C368	C	1.472093	0.464717	-0.111468
O369	O	0.693636	-0.313713	-0.889695
O370	O	0.943636	-0.063713	-0.639695
O371	O	1.193636	0.186287	-0.389695
O372	O	1.443636	0.436287	-0.139695
C373	C	0.722084	-0.285294	-0.806864
C374	C	0.972084	-0.035294	-0.556864
C375	C	1.222084	0.214706	-0.306864
C376	C	1.472084	0.464706	-0.056864
C377	C	0.755547	-0.251870	-0.779575
C378	C	1.005547	-0.001870	-0.529575
C379	C	1.255547	0.248130	-0.279575
C380	C	1.505547	0.498130	-0.029575
C381	C	0.822472	-0.185009	-0.779597
C382	C	1.072472	0.064991	-0.529597
C383	C	1.322472	0.314991	-0.279597
C384	C	1.572472	0.564991	-0.029597
C385	C	0.822466	-0.185025	-0.724997
C386	C	1.072466	0.064975	-0.474997
C387	C	1.322466	0.314975	-0.224997
C388	C	1.572466	0.564975	0.025003
C389	C	0.789000	-0.218462	-0.697685
C390	C	1.039000	0.031538	-0.447685
C391	C	1.289000	0.281538	-0.197685
C392	C	1.539000	0.531538	0.052315
C393	C	0.755541	-0.251885	-0.724974
C394	C	1.005541	-0.001885	-0.474974
C395	C	1.255541	0.248115	-0.224974
C396	C	1.505541	0.498115	0.025026
C397	C	0.688613	-0.318731	-0.779550
C398	C	0.938613	-0.068731	-0.529550
C399	C	1.188613	0.181269	-0.279550
C400	C	1.438613	0.431269	-0.029550
C401	C	0.688607	-0.318739	-0.724943
C402	C	0.938607	-0.068739	-0.474943
C403	C	1.188607	0.181261	-0.224943
C404	C	1.438607	0.431261	0.025057
C405	C	0.722069	-0.285314	-0.697654
C406	C	0.972069	-0.035314	-0.447654
C407	C	1.222069	0.214686	-0.197654
C408	C	1.472069	0.464686	0.052346
C409	C	0.722070	-0.285338	-0.643063
C410	C	0.972070	-0.035338	-0.393063
C411	C	1.222070	0.214662	-0.143063
C412	C	1.472070	0.464662	0.106937
N413	N	0.755526	-0.251912	-0.615771
N414	N	1.005526	-0.001912	-0.365771
N415	N	1.255526	0.248088	-0.115771
N416	N	1.505526	0.498088	0.134229
C417	C	0.788992	-0.218474	-0.643082
C418	C	1.038992	0.031526	-0.393082
C419	C	1.288992	0.281526	-0.143082
C420	C	1.538992	0.531526	0.106918
C421	C	0.722113	-0.285256	-0.976138
C422	C	0.972113	-0.035256	-0.726138
C423	C	1.222113	0.214744	-0.476138
C424	C	1.472113	0.464744	-0.226138
C425	C	0.722124	-0.285247	-1.030741
C426	C	0.972124	-0.035247	-0.780741
C427	C	1.222124	0.214753	-0.530741
C428	C	1.472124	0.464753	-0.280741
C429	C	0.789049	-0.218381	-1.030760
C430	C	1.039049	0.031619	-0.780760
C431	C	1.289049	0.281619	-0.530760
C432	C	1.539049	0.531619	-0.280760
C433	C	0.789041	-0.218392	-0.976157
C434	C	1.039041	0.031608	-0.726157
C435	C	1.289041	0.281608	-0.476157
C436	C	1.539041	0.531608	-0.226157
C437	C	0.755570	-0.251829	-0.948846
C438	C	1.005570	-0.001829	-0.698846
C439	C	1.255570	0.248171	-0.448846
C440	C	1.505570	0.498171	-0.198846
C441	C	0.788977	-0.218509	-0.528417
C442	C	1.038977	0.031491	-0.278417
C443	C	1.288977	0.281491	-0.028417
C444	C	1.538977	0.531491	0.221583
C445	C	0.788970	-0.218529	-0.473811
C446	C	1.038970	0.031471	-0.223811
C447	C	1.288970	0.281471	0.026189
C448	C	1.538970	0.531471	0.276189
C449	C	0.722043	-0.285393	-0.473797
C450	C	0.972043	-0.035393	-0.223797
C451	C	1.222043	0.214607	0.026203
C452	C	1.472043	0.464607	0.276203
C453	C	0.722052	-0.285375	-0.528397
C454	C	0.972052	-0.035375	-0.278397
C455	C	1.222052	0.214625	-0.028397
C456	C	1.472052	0.464625	0.221603
C457	C	0.755521	-0.251929	-0.555706
C458	C	1.005521	-0.001929	-0.305706
C459	C	1.255521	0.248071	-0.055706
C460	C	1.505521	0.498071	0.194294
O461	O	0.693635	-0.313773	-0.614771
O462	O	0.943635	-0.063773	-0.364771
O463	O	1.193635	0.186227	-0.114771
O464	O	1.443635	0.436227	0.135229
O465	O	0.817439	-0.190044	-0.614847
O466	O	1.067439	0.059956	-0.364847
O467	O	1.317439	0.309956	-0.114847
O468	O	1.567439	0.559956	0.135153
C469	C	0.755494	-0.251951	-0.116170
C470	C	1.005494	-0.001951	0.133830
C471	C	1.255494	0.248049	0.383830
C472	C	1.505494	0.498049	0.633830
C473	C	0.755588	-0.251807	-0.058057
C474	C	1.005588	-0.001807	0.191943
C475	C	1.255588	0.248193	0.441943
C476	C	1.505588	0.498193	0.691943
H477	H	0.305283	-0.157721	-0.158103
H478	H	0.555283	0.092279	0.091897
H479	H	0.805283	0.342279	0.341897
H480	H	1.055283	0.592279	0.591897
F481	F	0.686514	-0.946571	-0.321008
F482	F	0.936514	-0.696571	-0.071008
F483	F	1.186514	-0.446571	0.178992
F484	F	1.436514	-0.196571	0.428992
H485	H	0.816221	-0.191310	-0.451595
H486	H	1.066221	0.058690	-0.201595
H487	H	1.316221	0.308690	0.048405
H488	H	1.566221	0.558690	0.298405
F489	F	0.652981	-0.354327	-0.695880
F490	F	0.902981	-0.104327	-0.445880
F491	F	1.152981	0.145673	-0.195880
F492	F	1.402981	0.395673	0.054120
F493	F	0.199409	-0.149356	-0.149766
F494	F	0.449409	0.100644	0.100234
F495	F	0.699409	0.350644	0.350234
F496	F	0.949409	0.600644	0.600234
H497	H	0.694912	-1.052442	-0.312659
H498	H	0.944912	-0.802442	-0.062659
H499	H	1.194912	-0.552442	0.187341
H500	H	1.444912	-0.302442	0.437341
F501	F	0.686428	-0.320977	-0.444720
F502	F	0.936428	-0.070977	-0.194720
F503	F	1.186428	0.179023	0.055280
F504	F	1.436428	0.429023	0.305280
H505	H	0.816111	-0.450979	-0.191392
H506	H	1.066111	-0.200979	0.058608
H507	H	1.316111	0.049021	0.308608
H508	H	1.566111	0.299021	0.558608
H509	H	0.661376	-0.801275	-0.346049
H510	H	0.911376	-0.551275	-0.096049
H511	H	1.161376	-0.301275	0.153951
H512	H	1.411376	-0.051275	0.403951
F513	F	0.563275	-0.321097	-0.320874
F514	F	0.813275	-0.071097	-0.070874
F515	F	1.063275	0.178903	0.179126
F516	F	1.313275	0.428903	0.429126
H517	H	0.849709	-0.801185	-0.158037
H518	H	1.099709	-0.551185	0.091963
H519	H	1.349709	-0.301185	0.341963
H520	H	1.599709	-0.051185	0.591963
H521	H	0.457387	-0.191213	-0.191436
H522	H	0.707387	0.058787	0.058564
H523	H	0.957387	0.308787	0.308564
H524	H	1.207387	0.558787	0.558564
F525	F	0.824699	-1.059214	-0.183111
F526	F	1.074699	-0.809214	0.066889
F527	F	1.324699	-0.559214	0.316889
F528	F	1.574699	-0.309214	0.566889
H529	H	0.849714	-0.157806	-0.702783
H530	H	1.099714	0.092194	-0.452783
H531	H	1.349714	0.342194	-0.202783
H532	H	1.599714	0.592194	0.047217
H533	H	0.661364	-0.345949	-0.801759
H534	H	0.911364	-0.095949	-0.551759
H535	H	1.161364	0.154051	-0.301759
H536	H	1.411364	0.404051	-0.051759
H537	H	0.816298	-0.191153	-1.053007
H538	H	1.066298	0.058847	-0.803007
H539	H	1.316298	0.308847	-0.553007
H540	H	1.566298	0.558847	-0.303007
H541	H	0.694738	-0.550105	-0.312613
H542	H	0.944738	-0.300105	-0.062613
H543	H	1.194738	-0.050105	0.187387
H544	H	1.444738	0.199895	0.437387
F545	F	0.563281	-0.182837	-0.183077
F546	F	0.813281	0.067163	0.066923
F547	F	1.063281	0.317163	0.316923
F548	F	1.313281	0.567163	0.566923
F549	F	0.312097	-0.354598	-0.354296
F550	F	0.562097	-0.104598	-0.104296
F551	F	0.812097	0.145402	0.145704
F552	F	1.062097	0.395402	0.395704
H553	H	0.457399	-0.312726	-0.312556
H554	H	0.707399	-0.062726	-0.062556
H555	H	0.957399	0.187274	0.187444
H556	H	1.207399	0.437274	0.437444
F557	F	0.686490	-0.320850	-0.947077
F558	F	0.936490	-0.070850	-0.697077
F559	F	1.186490	0.179150	-0.447077
F560	F	1.436490	0.429150	-0.197077
F561	F	0.824596	-0.182909	-0.557473
F562	F	1.074596	0.067091	-0.307473
F563	F	1.324596	0.317091	-0.057473
F564	F	1.574596	0.567091	0.192527
F565	F	0.686441	-0.320953	-0.557441
F566	F	0.936441	-0.070953	-0.307441
F567	F	1.186441	0.179047	-0.057441
F568	F	1.436441	0.429047	0.192559
H569	H	-0.044951	-0.191258	-0.191502
H570	H	0.205049	0.058742	0.058498
H571	H	0.455049	0.308742	0.308498
H572	H	0.705049	0.558742	0.558498
F573	F	0.824663	-0.946496	-0.183095
F574	F	1.074663	-0.696496	0.066905
F575	F	1.324663	-0.446496	0.316905
F576	F	1.574663	-0.196496	0.566905
H577	H	0.054099	-0.191241	-0.191496
H578	H	0.304099	0.058759	0.058504
H579	H	0.554099	0.308759	0.308504
H580	H	0.804099	0.558759	0.558504
H581	H	0.816159	-0.550030	-0.191408
H582	H	1.066159	-0.300030	0.058592
H583	H	1.316159	-0.050030	0.308592
H584	H	1.566159	0.199970	0.558592
H585	H	0.661350	-0.702225	-0.346042
H586	H	0.911350	-0.452225	-0.096042
H587	H	1.161350	-0.202225	0.153958
H588	H	1.411350	0.047775	0.403958
F589	F	0.858039	-0.695309	-0.149674
F590	F	1.108039	-0.445309	0.100326
F591	F	1.358039	-0.195309	0.350326
F592	F	1.608039	0.054691	0.600326
H593	H	0.206227	-0.346229	-0.345967
H594	H	0.456227	-0.096229	-0.095967
H595	H	0.706227	0.153771	0.154033
H596	H	0.956227	0.403771	0.404033
F597	F	0.686334	-0.444215	-0.320947
F598	F	0.936334	-0.194215	-0.070947
F599	F	1.186334	0.055785	0.179053
F600	F	1.436334	0.305785	0.429053
H601	H	0.849723	-0.157777	-0.801828
H602	H	1.099723	0.092223	-0.551828
H603	H	1.349723	0.342223	-0.301828
H604	H	1.599723	0.592223	-0.051828
H605	H	0.816288	-0.191174	-0.953941
H606	H	1.066288	0.058826	-0.703941
H607	H	1.316288	0.308826	-0.453941
H608	H	1.566288	0.558826	-0.203941
H609	H	0.694881	-0.312471	-1.052955
H610	H	0.944881	-0.062471	-0.802955
H611	H	1.194881	0.187529	-0.552955
H612	H	1.444881	0.437529	-0.302955
H613	H	0.054103	-0.312760	-0.312609
H614	H	0.304103	-0.062760	-0.062609
H615	H	0.554103	0.187240	0.187391
H616	H	0.804103	0.437240	0.437391
H617	H	-0.044963	-0.312763	-0.312619
H618	H	0.205037	-0.062763	-0.062619
H619	H	0.455037	0.187237	0.187381
H620	H	0.705037	0.437237	0.437381
