data_functionalizedCrystal
_audit_creation_method	'MofGen! by Chris Wilmer'
_symmetry_space_group_name_H-M	'P1'
_symmetry_Int_Tables_number	1
_symmetry_cell_setting	triclinic
loop_
_symmetry_equiv_pos_as_xyz
  x,y,z
_cell_length_a	12.759401
_cell_length_b	16.625545
_cell_length_c	12.759393
_cell_angle_alpha	89.966096
_cell_angle_beta	89.981504
_cell_angle_gamma	90.025719
loop_
_atom_site_label
_atom_site_type_symbol
_atom_site_fract_x
_atom_site_fract_y
_atom_site_fract_z
Zn1	Zn	1.606176	-0.320951	-0.593964
Zn2	Zn	2.106176	0.179049	-0.093964
Zn3	Zn	1.606037	-0.455807	-0.418277
Zn4	Zn	2.106037	0.044193	0.081723
Zn5	Zn	1.430478	-0.320993	-0.418304
Zn6	Zn	1.930478	0.179007	0.081696
Zn7	Zn	1.430433	-0.455745	-0.593919
Zn8	Zn	1.930433	0.044255	-0.093919
O9	O	1.518281	-0.388374	-0.506116
O10	O	2.018281	0.111626	-0.006116
O11	O	1.753179	-0.338848	-0.570667
O12	O	2.253179	0.161152	-0.070667
O13	O	1.582709	-0.437968	-0.271260
O14	O	2.082709	0.062032	0.228740
O15	O	1.453862	-0.208155	-0.441636
O16	O	1.953862	0.291845	0.058364
O17	O	1.753077	-0.437927	-0.441590
O18	O	2.253077	0.062073	0.058410
O19	O	1.582946	-0.208124	-0.570693
O20	O	2.082946	0.291876	-0.070693
O21	O	1.453727	-0.338920	-0.271279
O22	O	1.953727	0.161080	0.228721
O23	O	1.283451	-0.338860	-0.441591
O24	O	1.783451	0.161140	0.058409
O25	O	1.453786	-0.437821	-0.740946
O26	O	1.953786	0.062179	-0.240946
O27	O	1.283418	-0.437862	-0.570615
O28	O	1.783418	0.062138	-0.070615
O29	O	1.582903	-0.338788	-0.740979
O30	O	2.082903	0.161212	-0.240979
O31	O	1.582666	-0.568632	-0.441546
O32	O	2.082666	-0.068632	0.058454
O33	O	1.453651	-0.568586	-0.570589
O34	O	1.953651	-0.068586	-0.070589
C35	C	1.245314	-0.388359	-0.506102
C36	C	1.745314	0.111641	-0.006102
C37	C	1.128537	-0.388372	-0.506120
C38	C	1.628537	0.111628	-0.006120
C39	C	1.518167	-0.597865	-0.506083
C40	C	2.018167	-0.097865	-0.006083
C41	C	1.518214	-0.687486	-0.506104
C42	C	2.018214	-0.187486	-0.006104
C43	C	1.073686	-0.440005	-0.573192
C44	C	1.573686	0.059995	-0.073192
C45	C	0.963962	-0.440015	-0.573203
C46	C	1.463962	0.059985	-0.073203
C47	C	0.963950	-0.336758	-0.439063
C48	C	1.463950	0.163242	0.060937
C49	C	1.073672	-0.336744	-0.439058
C50	C	1.573672	0.163256	0.060942
C51	C	1.073691	-0.499623	-0.650634
C52	C	1.573691	0.000377	-0.150634
C53	C	0.963967	-0.499633	-0.650645
C54	C	1.463967	0.000367	-0.150645
C55	C	1.518255	-0.760268	-0.506125
C56	C	2.018255	-0.260268	-0.006125
C57	C	1.518316	-0.851577	-0.506148
C58	C	2.018316	-0.351577	-0.006148
C59	C	1.518371	-0.924353	-0.506161
C60	C	2.018371	-0.424353	-0.006161
C61	C	1.518431	-1.015668	-0.506183
C62	C	2.018431	-0.515668	-0.006183
C63	C	1.792314	-0.388390	-0.506131
C64	C	2.292314	0.111610	-0.006131
C65	C	1.909091	-0.388396	-0.506137
C66	C	2.409091	0.111604	-0.006137
C67	C	1.518355	-0.388293	-0.780149
C68	C	2.018355	0.111707	-0.280149
C69	C	1.518386	-0.388258	-0.896926
C70	C	2.018386	0.111742	-0.396926
C71	C	1.518424	-0.178065	-0.506172
C72	C	2.018424	0.321935	-0.006172
C73	C	1.518485	-0.088444	-0.506196
C74	C	2.018485	0.411556	-0.006196
C75	C	1.585627	-0.336687	-0.951807
C76	C	2.085627	0.163313	-0.451807
C77	C	1.585652	-0.336657	-1.061531
C78	C	2.085652	0.163343	-0.561531
C79	C	1.451192	-0.439778	-1.061484
C80	C	1.951192	0.060222	-0.561484
C81	C	1.451163	-0.439803	-0.951761
C82	C	1.951163	0.060197	-0.451761
C83	C	1.663259	-0.277153	-0.951836
C84	C	2.163259	0.222847	-0.451836
C85	C	1.663284	-0.277124	-1.061560
C86	C	2.163284	0.222876	-0.561560
C87	C	1.518268	-0.388397	-0.233149
C88	C	2.018268	0.111603	0.266851
C89	C	1.518441	-0.388204	-0.116372
C90	C	2.018441	0.111796	0.383628
H91	H	1.118329	-0.294694	-0.384448
H92	H	1.618329	0.205306	0.115552
H93	H	0.929975	-0.477343	-0.727998
H94	H	1.429975	0.022657	-0.227998
O95	O	1.771059	-0.299278	-1.101010
O96	O	2.271059	0.200722	-0.601010
H97	H	1.771013	-0.299230	-1.188000
H98	H	2.271013	0.200770	-0.688000
H99	H	0.934156	-0.562065	-0.628710
H100	H	1.434156	-0.062065	-0.128710
H101	H	1.396405	-0.481794	-0.907081
H102	H	1.896405	0.018206	-0.407081
H103	H	1.103503	-0.482970	-0.732041
H104	H	1.603503	0.017030	-0.232041
O105	O	0.904761	-0.281096	-0.366715
O106	O	1.404761	0.218904	0.133285
H107	H	0.854792	-0.240125	-0.413826
H108	H	1.354792	0.259875	0.086174
O109	O	1.765611	-0.306794	-0.906745
O110	O	2.265611	0.193206	-0.406745
H111	H	1.750900	-0.360838	-0.857781
H112	H	2.250900	0.139162	-0.357781
H113	H	1.641506	-0.214709	-0.922083
H114	H	2.141506	0.285291	-0.422083
H115	H	1.396460	-0.481742	-1.106144
H116	H	1.896460	0.018258	-0.606144
H117	H	1.107691	-0.558911	-0.621346
H118	H	1.607691	-0.058911	-0.121346
H119	H	1.634185	-0.217793	-1.095611
H120	H	2.134185	0.282207	-0.595611
