data_functionalizedCrystal
_audit_creation_method	'MofGen! by Chris Wilmer'
_symmetry_space_group_name_H-M	'P1'
_symmetry_Int_Tables_number	1
_symmetry_cell_setting	triclinic
loop_
_symmetry_equiv_pos_as_xyz
  x,y,z
_cell_length_a	19.077105
_cell_length_b	19.077068
_cell_length_c	19.076929
_cell_angle_alpha	85.532199
_cell_angle_beta	90.078300
_cell_angle_gamma	89.884684
loop_
_atom_site_label
_atom_site_type_symbol
_atom_site_fract_x
_atom_site_fract_y
_atom_site_fract_z
Zn1	Zn	1.044032	0.340427	-0.453497
Zn2	Zn	1.544032	0.840427	0.046503
Zn3	Zn	1.043949	0.453583	-0.340339
Zn4	Zn	1.543949	0.953583	0.159661
Zn5	Zn	0.931648	0.331006	-0.330929
Zn6	Zn	1.431648	0.831006	0.169071
Zn7	Zn	0.921785	0.453152	-0.453075
Zn8	Zn	1.421785	0.953152	0.046925
O9	O	0.985354	0.394542	-0.394460
O10	O	1.485354	0.894542	0.105540
O11	O	1.142180	0.359560	-0.442602
O12	O	1.642180	0.859560	0.057398
O13	O	1.033146	0.433560	-0.240615
O14	O	1.533146	0.933560	0.259385
O15	O	0.950719	0.233781	-0.343427
O16	O	1.450719	0.733781	0.156573
O17	O	1.142120	0.442695	-0.359465
O18	O	1.642120	0.942695	0.140535
O19	O	1.033287	0.240703	-0.433477
O20	O	1.533287	0.740703	0.066523
O21	O	0.950638	0.343504	-0.233702
O22	O	1.450638	0.843504	0.266298
O23	O	0.832180	0.343086	-0.343017
O24	O	1.332180	0.843086	0.156983
O25	O	0.933908	0.441962	-0.551606
O26	O	1.433908	0.941962	-0.051606
O27	O	0.824934	0.432827	-0.432757
O28	O	1.324934	0.932827	0.067243
O29	O	1.023722	0.359143	-0.551917
O30	O	1.523722	0.859143	-0.051917
O31	O	1.023581	0.552000	-0.359055
O32	O	1.523581	1.052000	0.140945
O33	O	0.933828	0.551684	-0.441881
O34	O	1.433828	1.051684	0.058119
C35	C	0.803105	0.386888	-0.386820
C36	C	1.303105	0.886888	0.113180
C37	C	0.725137	0.383631	-0.383570
C38	C	1.225137	0.883631	0.116430
C39	C	0.977644	0.577377	-0.401459
C40	C	1.477644	1.077377	0.098541
C41	C	0.974409	0.655598	-0.404480
C42	C	1.474409	1.155598	0.095520
C43	C	0.977724	0.401555	-0.578009
C44	C	1.477724	0.901555	-0.078009
C45	C	0.974473	0.404544	-0.656227
C46	C	1.474473	0.904544	-0.156227
C47	C	0.684753	0.428889	-0.428697
C48	C	1.184753	0.928889	0.071303
C49	C	0.611494	0.425820	-0.425645
C50	C	1.111494	0.925820	0.074355
C51	C	0.578621	0.377496	-0.377463
C52	C	1.078621	0.877496	0.122537
C53	C	0.619010	0.332233	-0.332333
C54	C	1.119010	0.832233	0.167667
C55	C	0.692268	0.335299	-0.335389
C56	C	1.192268	0.835299	0.164611
C57	C	0.359927	0.363304	-0.363325
C58	C	0.859927	0.863304	0.136675
C59	C	0.286664	0.360243	-0.360271
C60	C	0.786664	0.860243	0.139729
C61	C	0.279153	0.453830	-0.453584
C62	C	0.779153	0.953830	0.046416
C63	C	0.352413	0.456895	-0.456633
C64	C	0.852413	0.956895	0.043367
C65	C	0.392795	0.411629	-0.411506
C66	C	0.892795	0.911629	0.088494
N67	N	0.503738	0.374359	-0.374341
N68	N	1.003738	0.874359	0.125659
N69	N	0.467676	0.414763	-0.414632
N70	N	0.967676	0.914763	0.085368
C71	C	1.168313	0.402226	-0.402130
C72	C	1.668313	0.902226	0.097870
C73	C	1.246280	0.405501	-0.405398
C74	C	1.746280	0.905501	0.094602
C75	C	0.993112	0.210995	-0.387450
C76	C	1.493112	0.710995	0.112550
C77	C	0.996418	0.132778	-0.384462
C78	C	1.496418	0.632778	0.115538
C79	C	1.019652	0.692490	-0.362814
C80	C	1.519652	1.192490	0.137186
C81	C	1.016613	0.765988	-0.365660
C82	C	1.516613	1.265988	0.134340
C83	C	0.968327	0.802591	-0.410167
C84	C	1.468327	1.302591	0.089833
C85	C	0.923082	0.765693	-0.451837
C86	C	1.423082	1.265693	0.048163
C87	C	0.926124	0.692198	-0.448995
C88	C	1.426124	1.192198	0.051005
C89	C	0.954215	1.022385	-0.423291
C90	C	1.454215	1.522385	0.076709
C91	C	0.951175	1.095885	-0.426128
C92	C	1.451175	1.595885	0.073872
C93	C	1.044708	1.096175	-0.339951
C94	C	1.544708	1.596175	0.160049
C95	C	1.047743	1.022677	-0.337110
C96	C	1.547743	1.522677	0.162890
C97	C	1.002500	0.985786	-0.378782
C98	C	1.502500	1.485786	0.121218
N99	N	0.965218	0.877717	-0.413075
N100	N	1.465218	1.377717	0.086925
N101	N	1.005613	0.910662	-0.375878
N102	N	1.505613	1.410662	0.124122
C103	C	0.951156	0.426035	-1.096494
C104	C	1.451156	0.926035	-0.596494
C105	C	0.954209	0.423217	-1.023000
C106	C	1.454209	0.923217	-0.523000
C107	C	1.002500	0.378692	-0.986418
C108	C	1.502500	0.878692	-0.486418
C109	C	1.047737	0.336978	-1.023334
C110	C	1.547737	0.836978	-0.523334
C111	C	1.044681	0.339794	-1.096827
C112	C	1.544681	0.839794	-0.596827
C113	C	1.016653	0.365645	-0.766636
C114	C	1.516653	0.865645	-0.266636
C115	C	1.019708	0.362835	-0.693138
C116	C	1.519708	0.862835	-0.193138
C117	C	0.926178	0.449072	-0.692809
C118	C	1.426178	0.949072	-0.192809
C119	C	0.923129	0.451887	-0.766303
C120	C	1.423129	0.951887	-0.266303
C121	C	0.968363	0.410170	-0.803213
C122	C	1.468363	0.910170	-0.303213
N123	N	1.005623	0.375812	-0.911295
N124	N	1.505623	0.875812	-0.411295
N125	N	0.965236	0.413048	-0.878334
N126	N	1.465236	0.913048	-0.378334
C127	C	0.992996	0.387507	-0.211625
C128	C	1.492996	0.887507	0.288375
C129	C	0.996391	0.384326	-0.133405
C130	C	1.496391	0.884326	0.366595
H131	H	0.711513	0.468243	-0.467930
H132	H	1.211513	0.968243	0.032070
H133	H	1.053455	0.796022	-0.331731
H134	H	1.553455	1.296022	0.168269
F135	F	1.092819	0.295394	-1.136110
F136	F	1.592819	0.795394	-0.636110
F137	F	0.251679	0.308811	-0.308982
F138	F	0.751679	0.808811	0.191018
F139	F	1.092858	1.135442	-0.295606
F140	F	1.592858	1.635442	0.204394
F141	F	0.402896	0.315127	-0.315298
F142	F	0.902896	0.815127	0.184702
F143	F	0.735247	0.287128	-0.287359
F144	F	1.235247	0.787128	0.212641
F145	F	0.584022	0.280798	-0.281058
F146	F	1.084022	0.780798	0.218942
H147	H	0.889283	0.662161	-0.482925
H148	H	1.389283	1.162161	0.017075
F149	F	1.071041	0.653541	-0.315438
F150	F	1.571041	1.153541	0.184562
H151	H	1.087061	0.992876	-0.300868
H152	H	1.587061	1.492876	0.199132
H153	H	0.911862	1.125686	-0.462384
H154	H	1.411862	1.625686	0.037616
H155	H	0.917376	0.992354	-0.457221
H156	H	1.417376	1.492354	0.042779
F157	F	0.871695	0.804652	-0.499210
F158	F	1.371695	1.304652	0.000790
H159	H	0.578617	0.462675	-0.462392
H160	H	1.078617	0.962675	0.037608
F161	F	0.236170	0.502002	-0.501607
F162	F	0.736170	1.002002	-0.001607
H163	H	0.911835	0.462295	-1.126274
H164	H	1.411835	0.962295	-0.626274
H165	H	0.917381	0.457189	-0.992951
H166	H	1.417381	0.957189	-0.492951
H167	H	0.379173	0.496247	-0.495867
H168	H	0.879173	0.996247	0.004133
F169	F	0.871737	0.499282	-0.805231
F170	F	1.371737	0.999282	-0.305231
F171	F	0.878038	0.493464	-0.653522
F172	F	1.378038	0.993464	-0.153522
H173	H	1.059032	0.326573	-0.663355
H174	H	1.559032	0.826573	-0.163355
H175	H	1.053489	0.331681	-0.796679
H176	H	1.553489	0.831681	-0.296679
H177	H	1.087054	0.300722	-0.993544
H178	H	1.587054	0.800722	-0.493544
