data_functionalizedCrystal
_audit_creation_method	'MofGen! by Chris Wilmer'
_symmetry_space_group_name_H-M	'P1'
_symmetry_Int_Tables_number	1
_symmetry_cell_setting	triclinic
loop_
_symmetry_equiv_pos_as_xyz
  x,y,z
_cell_length_a	17.638336
_cell_length_b	17.640280
_cell_length_c	10.686551
_cell_angle_alpha	106.368030
_cell_angle_beta	106.356989
_cell_angle_gamma	65.685103
loop_
_atom_site_label
_atom_site_type_symbol
_atom_site_fract_x
_atom_site_fract_y
_atom_site_fract_z
Zn1	Zn	1.365652	-0.544140	0.978145
Zn2	Zn	1.383322	-0.692078	0.725136
Zn3	Zn	1.217698	-0.526381	0.725202
Zn4	Zn	1.252750	-0.656913	0.905343
O5	O	1.304855	-0.604878	0.833457
O6	O	1.484560	-0.585913	0.975023
O7	O	1.354077	-0.677382	0.543871
O8	O	1.215260	-0.412196	0.789251
O9	O	1.497542	-0.694602	0.789139
O10	O	1.323961	-0.425243	0.975087
O11	O	1.232394	-0.555645	0.543919
O12	O	1.105784	-0.521547	0.718658
O13	O	1.275000	-0.634670	1.096275
O14	O	1.131536	-0.617449	0.851007
O15	O	1.357949	-0.551816	1.149762
O16	O	1.388065	-0.803954	0.718546
O17	O	1.292134	-0.778119	0.850943
C18	C	1.088436	-0.563756	0.776940
C19	C	0.995856	-0.546182	0.752787
C20	C	0.851928	-0.471396	0.649988
C21	C	0.938922	-0.487914	0.672691
C22	C	0.965812	-0.587959	0.810207
C23	C	0.878818	-0.571452	0.787509
C24	C	0.821882	-0.513169	0.707400
C25	C	0.848773	-0.613225	0.844922
C26	C	0.761787	-0.596716	0.822231
C27	C	0.704845	-0.538434	0.742129
C28	C	0.734896	-0.496660	0.684710
C29	C	0.905710	-0.671503	0.925038
C30	C	0.875665	-0.713276	0.982450
C31	C	0.788678	-0.696772	0.959753
C32	C	0.731736	-0.638490	0.879651
C33	C	0.758627	-0.738546	1.017172
C34	C	0.671641	-0.722036	0.994482
C35	C	0.644750	-0.621980	0.856961
C36	C	1.345844	-0.821257	0.776871
C37	C	1.363458	-0.913838	0.752727
C38	C	1.171410	-1.151183	1.017438
C39	C	1.187960	-1.238179	0.994710
C40	C	1.287925	-1.265022	0.857030
C41	C	1.271387	-1.178027	0.879752
C42	C	1.213127	-1.121114	0.959956
C43	C	1.313104	-1.147957	0.822269
C44	C	1.296563	-1.060970	0.844984
C45	C	1.238304	-1.004052	0.925181
C46	C	1.196586	-1.034126	0.982671
C47	C	1.371359	-1.204871	0.742058
C48	C	1.413076	-1.174802	0.684576
C49	C	1.396540	-1.087813	0.707298
C50	C	1.338281	-1.030895	0.787495
C51	C	1.438258	-1.057738	0.649808
C52	C	1.421717	-0.970751	0.672523
C53	C	1.321740	-0.943907	0.810209
C54	C	1.522120	-0.646161	0.890195
C55	C	1.614705	-0.663753	0.914373
C56	C	1.318414	-0.591301	1.171335
C57	C	1.324191	-0.585516	1.315319
C58	C	1.263730	-0.387657	0.890297
C59	C	1.246205	-0.295090	0.914519
C60	C	1.291386	-0.618351	0.496921
C61	C	1.285725	-0.623932	0.353041
H62	H	0.598388	-0.574521	0.791728
C63	C	0.937431	-0.776433	1.069653
C64	C	0.918037	-0.749259	1.197071
C65	C	0.974923	-0.807414	1.277441
H66	H	0.933060	-0.830464	1.032373
H67	H	0.993550	-0.780273	1.075037
H68	H	0.861932	-0.745429	1.191683
H69	H	0.922413	-0.695237	1.234390
H70	H	1.031043	-0.811254	1.282825
H71	H	0.970548	-0.861442	1.240149
H72	H	0.961778	-0.788981	1.363905
H73	H	0.976539	-0.684937	0.943520
C74	C	1.235918	-0.673774	1.249439
C75	C	1.201610	-0.708076	1.313089
C76	C	1.155735	-0.754009	1.217685
H77	H	1.191443	-0.637202	1.195475
H78	H	1.272556	-0.718251	1.195519
H79	H	1.164975	-0.663605	1.366986
H80	H	1.246067	-0.744661	1.367046
H81	H	1.192373	-0.798485	1.163766
H82	H	1.111264	-0.717430	1.163727
H83	H	1.132458	-0.777294	1.260858
H84	H	1.361551	-0.548201	1.393182
H85	H	1.485687	-1.104088	0.584496
H86	H	1.224831	-0.933220	0.943663
C87	C	0.820394	-0.801696	1.104385
C88	C	0.800995	-0.774515	1.231800
C89	C	0.857882	-0.832661	1.312183
H90	H	0.816029	-0.855730	1.067113
H91	H	0.876512	-0.805532	1.109772
H92	H	0.744890	-0.770689	1.226408
H93	H	0.805365	-0.720490	1.269109
H94	H	0.914000	-0.836497	1.317570
H95	H	0.853512	-0.886692	1.274899
H96	H	0.844732	-0.814223	1.398645
H97	H	0.963378	-0.453885	0.625947
C98	C	0.610366	-0.520360	0.717383
C99	C	0.566936	-0.460363	0.634967
C100	C	0.479901	-0.443685	0.612156
H101	H	0.599847	-0.571184	0.675600
H102	H	0.591302	-0.498903	0.799608
H103	H	0.585993	-0.481822	0.552757
H104	H	0.577429	-0.409528	0.676726
H105	H	0.460836	-0.422229	0.694381
H106	H	0.469391	-0.494513	0.570377
H107	H	0.450422	-0.402971	0.556245
C108	C	0.673171	-0.433459	0.597539
C109	C	0.692577	-0.460611	0.470131
C110	C	0.635740	-0.402408	0.389808
H111	H	0.617036	-0.429567	0.592097
H112	H	0.677599	-0.379448	0.634914
H113	H	0.688141	-0.514606	0.432764
H114	H	0.748702	-0.464498	0.475531
H115	H	0.640168	-0.348398	0.427183
H116	H	0.579608	-0.398521	0.384377
H117	H	0.648904	-0.420819	0.303356
C118	C	0.790203	-0.408195	0.562817
C119	C	0.809609	-0.435347	0.435409
C120	C	0.752771	-0.377144	0.355085
H121	H	0.734068	-0.404303	0.557375
H122	H	0.794631	-0.354184	0.600192
H123	H	0.805173	-0.489343	0.398042
H124	H	0.865734	-0.439234	0.440809
H125	H	0.757199	-0.323134	0.392460
H126	H	0.696640	-0.373257	0.349655
H127	H	0.765935	-0.395555	0.268634
H128	H	1.149152	-0.987785	1.047992
H129	H	1.274306	-0.897566	0.875531
C130	C	1.027770	-0.651240	0.897081
C131	C	1.110383	-0.656774	0.904641
C132	C	1.167480	-0.715071	0.984640
H133	H	1.014841	-0.633014	0.983663
H134	H	1.023400	-0.705268	0.859618
H135	H	1.114750	-0.602758	0.942108
H136	H	1.123338	-0.675010	0.818081
H137	H	1.163110	-0.769099	0.947177
H138	H	1.154543	-0.696840	1.071217
H139	H	1.223539	-0.718839	0.989770
C140	C	0.638944	-0.767232	1.056995
C141	C	0.583449	-0.707338	1.139452
C142	C	0.553318	-0.748936	1.197080
H143	H	0.609818	-0.799016	0.989145
H144	H	0.685281	-0.804287	1.108027
H145	H	0.537119	-0.670297	1.088422
H146	H	0.612556	-0.675551	1.207324
H147	H	0.599655	-0.785991	1.248112
H148	H	0.524196	-0.780719	1.129221
H149	H	0.515667	-0.708305	1.253043
H150	H	1.123975	-1.104842	1.082760
C151	C	1.142613	-1.270664	1.057308
C152	C	1.088071	-1.202203	1.132434
C153	C	1.046293	-1.232097	1.190129
H154	H	1.110748	-1.299722	0.989495
H155	H	1.183143	-1.308318	1.113324
H156	H	1.047546	-1.164564	1.076423
H157	H	1.119915	-1.173138	1.200269
H158	H	1.086823	-1.269750	1.246145
H159	H	1.014433	-1.261154	1.122307
H160	H	1.009287	-1.185652	1.241118
C161	C	1.476317	-1.236733	0.597572
C162	C	1.481884	-1.319351	0.589994
C163	C	1.540137	-1.376422	0.509865
H164	H	1.458033	-1.223790	0.511006
H165	H	1.530350	-1.232355	0.634943
H166	H	1.427862	-1.323725	0.552619
H167	H	1.500178	-1.332320	0.676538
H168	H	1.594170	-1.372045	0.547235
H169	H	1.521848	-1.363472	0.423304
H170	H	1.543928	-1.432485	0.504722
C171	C	1.467124	-0.938266	0.610047
C172	C	1.521701	-1.006728	0.534975
C173	C	1.563548	-0.976836	0.477408
H174	H	1.426661	-0.900607	0.554014
H175	H	1.498968	-0.909219	0.677965
H176	H	1.489860	-1.035762	0.467065
H177	H	1.562180	-1.044393	0.590977
H178	H	1.595391	-0.947788	0.545326
H179	H	1.523079	-0.939177	0.421382
H180	H	1.600589	-1.023282	0.426475
H181	H	1.335358	-1.311371	0.791724
H182	H	1.384827	-1.275701	0.723571
