data_functionalizedCrystal
_audit_creation_method	'MofGen! by Chris Wilmer'
_symmetry_space_group_name_H-M	'P1'
_symmetry_Int_Tables_number	1
_symmetry_cell_setting	triclinic
loop_
_symmetry_equiv_pos_as_xyz
  x,y,z
_cell_length_a	11.792254
_cell_length_b	14.044209
_cell_length_c	10.868271
_cell_angle_alpha	89.995960
_cell_angle_beta	90.004308
_cell_angle_gamma	91.306725
loop_
_atom_site_label
_atom_site_type_symbol
_atom_site_fract_x
_atom_site_fract_y
_atom_site_fract_z
O1	O	1.519107	-0.130040	0.102330
O2	O	1.769107	0.119960	0.352330
O3	O	2.019107	0.369960	0.602330
O4	O	2.269107	0.619960	0.852330
O5	O	1.190024	-0.143424	0.102334
O6	O	1.440024	0.106576	0.352334
O7	O	1.690024	0.356576	0.602334
O8	O	1.940024	0.606576	0.852334
O9	O	1.349627	0.001279	0.102314
O10	O	1.599627	0.251279	0.352314
O11	O	1.849627	0.501279	0.602314
O12	O	2.099627	0.751279	0.852314
O13	O	1.359504	-0.274742	0.102349
O14	O	1.609504	-0.024742	0.352349
O15	O	1.859504	0.225258	0.602349
O16	O	2.109504	0.475258	0.852349
O17	O	1.349612	0.001274	-0.102330
O18	O	1.599612	0.251274	0.147670
O19	O	1.849612	0.501274	0.397670
O20	O	2.099612	0.751274	0.647670
O21	O	1.190009	-0.143428	-0.102311
O22	O	1.440009	0.106572	0.147689
O23	O	1.690009	0.356572	0.397689
O24	O	1.940009	0.606572	0.647689
O25	O	1.519092	-0.130044	-0.102315
O26	O	1.769092	0.119956	0.147685
O27	O	2.019092	0.369956	0.397685
O28	O	2.269092	0.619956	0.647685
Zn29	Zn	1.354548	-0.136737	-0.134805
Zn30	Zn	1.604548	0.113263	0.115195
Zn31	Zn	1.854548	0.363263	0.365195
Zn32	Zn	2.104548	0.613263	0.615195
Zn33	Zn	1.354568	-0.136731	0.134824
Zn34	Zn	1.604568	0.113269	0.384824
Zn35	Zn	1.854568	0.363269	0.634824
Zn36	Zn	2.104568	0.613269	0.884824
O37	O	1.359488	-0.274747	-0.102295
O38	O	1.609488	-0.024747	0.147705
O39	O	1.859488	0.225253	0.397705
O40	O	2.109488	0.475253	0.647705
C41	C	1.147647	-0.142583	0.000011
C42	C	1.397647	0.107417	0.250011
C43	C	1.647647	0.357417	0.500011
C44	C	1.897647	0.607417	0.750011
C45	C	1.021397	-0.140059	0.000012
C46	C	1.271397	0.109941	0.250012
C47	C	1.521397	0.359941	0.500012
C48	C	1.771397	0.609941	0.750012
C49	C	0.918868	-0.138009	0.000017
C50	C	1.168868	0.111991	0.250017
C51	C	1.418868	0.361991	0.500017
C52	C	1.668868	0.611991	0.750017
C53	C	0.790240	-0.135445	0.000018
C54	C	1.040240	0.114555	0.250018
C55	C	1.290240	0.364555	0.500018
C56	C	1.540240	0.614555	0.750018
C57	C	1.345296	0.036613	-0.000010
C58	C	1.595296	0.286613	0.249990
C59	C	1.845296	0.536613	0.499990
C60	C	2.095296	0.786613	0.749990
C61	C	1.332398	0.141906	-0.000015
C62	C	1.582398	0.391906	0.249985
C63	C	1.832398	0.641906	0.499985
C64	C	2.082398	0.891906	0.749985
C65	C	1.308818	0.334690	-0.000005
C66	C	1.558818	0.584690	0.249995
C67	C	1.808818	0.834690	0.499995
C68	C	2.058818	1.084690	0.749995
C69	C	1.400303	0.391849	-0.000004
C70	C	1.650303	0.641849	0.249996
C71	C	1.900303	0.891849	0.499996
C72	C	2.150303	1.141849	0.749996
C73	C	1.387182	0.499121	0.000002
C74	C	1.637182	0.749121	0.250002
C75	C	1.887182	0.999121	0.500002
C76	C	2.137182	1.249121	0.750002
C77	C	1.321936	0.227408	-0.000011
C78	C	1.571936	0.477408	0.249989
C79	C	1.821936	0.727408	0.499989
C80	C	2.071936	0.977408	0.749989
C81	C	1.561469	-0.130885	0.000010
C82	C	1.811469	0.119115	0.250010
C83	C	2.061469	0.369115	0.500010
C84	C	2.311469	0.619115	0.750010
C85	C	1.687719	-0.133409	0.000018
C86	C	1.937719	0.116591	0.250018
C87	C	2.187719	0.366591	0.500018
C88	C	2.437719	0.616591	0.750018
C89	C	1.363823	0.689919	0.000022
C90	C	1.613823	0.939919	0.250022
C91	C	1.863823	1.189919	0.500022
C92	C	2.113823	1.439919	0.750022
C93	C	1.376728	0.584627	0.000006
C94	C	1.626728	0.834627	0.250006
C95	C	1.876728	1.084627	0.500006
C96	C	2.126728	1.334627	0.750006
N97	N	1.354542	-0.136741	-0.318819
N98	N	1.604542	0.113259	-0.068819
N99	N	1.854542	0.363259	0.181181
N100	N	2.104542	0.613259	0.431181
C101	C	1.354551	-0.136741	-0.430156
C102	C	1.604551	0.113259	-0.180156
C103	C	1.854551	0.363259	0.069844
C104	C	2.104551	0.613259	0.319844
C105	C	1.354565	-0.136732	-0.569834
C106	C	1.604565	0.113268	-0.319834
C107	C	1.854565	0.363268	-0.069834
C108	C	2.104565	0.613268	0.180166
N109	N	1.354582	-0.136720	0.318838
N110	N	1.604582	0.113280	0.568838
N111	N	1.854582	0.363280	0.818838
N112	N	2.104582	0.613280	1.068838
H113	H	1.488479	0.360222	0.000079
H114	H	1.738479	0.610222	0.250079
H115	H	1.988479	0.860222	0.500079
H116	H	2.238479	1.110222	0.750079
H117	H	1.220648	0.366315	-0.000002
H118	H	1.470648	0.616315	0.249998
H119	H	1.720648	0.866315	0.499998
H120	H	1.970648	1.116315	0.749998
