data_functionalizedCrystal
_audit_creation_method	'MofGen! by Chris Wilmer'
_symmetry_space_group_name_H-M	'P1'
_symmetry_Int_Tables_number	1
_symmetry_cell_setting	triclinic
loop_
_symmetry_equiv_pos_as_xyz
  x,y,z
_cell_length_a	31.640172
_cell_length_b	31.640171
_cell_length_c	18.426585
_cell_angle_alpha	59.993709
_cell_angle_beta	89.991622
_cell_angle_gamma	59.970930
loop_
_atom_site_label
_atom_site_type_symbol
_atom_site_fract_x
_atom_site_fract_y
_atom_site_fract_z
Zr1	Zr	0.406962	0.462742	-0.095536
O2	O	0.339427	0.550960	-0.211446
O3	O	0.427694	0.374532	-0.059974
O4	O	0.427648	0.462742	-0.211421
O5	O	0.339477	0.462747	0.059431
O6	O	0.497205	0.462733	-0.211435
O7	O	0.339473	0.462750	-0.060000
O8	O	0.497288	0.304941	0.059476
O9	O	0.339394	0.620539	-0.211479
O10	O	0.488411	0.410804	-0.044853
O11	O	0.436504	0.410809	0.044287
O12	O	0.436449	0.514665	-0.134022
O13	O	0.384542	0.514670	-0.044882
Zr14	Zr	0.517904	0.462723	0.094921
Zr15	Zr	0.517898	0.462727	-0.095557
Zr16	Zr	0.406968	0.462737	0.094942
Zr17	Zr	0.406910	0.573712	-0.095589
Zr18	Zr	0.517956	0.351753	0.094974
O19	O	0.497172	0.550933	0.059360
O20	O	0.497164	0.550939	-0.211476
O21	O	0.339435	0.550954	0.059390
O22	O	0.585439	0.374505	0.210832
O23	O	0.585430	0.374511	-0.060004
O24	O	0.427702	0.374525	0.210862
O25	O	0.585389	0.462718	-0.060046
O26	O	0.497218	0.462723	0.210807
O27	O	0.427661	0.462732	0.210820
O28	O	0.585392	0.462715	0.059385
O29	O	0.427573	0.620527	-0.211496
O30	O	0.497292	0.304938	0.210881
O31	O	0.585471	0.304926	0.210865
O32	O	0.585467	0.304930	0.059460
O33	O	0.339399	0.620535	-0.060074
O34	O	0.427578	0.620524	-0.060091
O35	O	0.488416	0.410800	0.133407
O36	O	0.540323	0.410795	0.044267
O37	O	0.488362	0.514656	-0.044902
O38	O	0.436455	0.514661	0.044238
C39	C	0.462498	0.323926	-0.000242
C40	C	0.462521	0.276816	-0.000219
C41	C	0.500777	-0.097757	0.065494
C42	C	0.500823	0.079196	0.065543
O43	O	0.533447	0.069458	0.121494
N44	N	0.462488	0.139678	-0.000259
C45	C	0.424140	0.155922	-0.066081
O46	O	0.391538	0.211426	-0.122054
C47	C	0.424097	-0.021031	-0.066133
C48	C	0.462432	-0.081513	-0.000322
C49	C	0.539109	-0.158236	0.131299
C50	C	0.539095	-0.202471	0.131289
C51	C	0.500750	-0.186227	0.065473
C52	C	0.462418	-0.125748	-0.000332
C53	C	0.385752	-0.004787	-0.131959
C54	C	0.385746	-0.049031	-0.131967
C55	C	0.424080	-0.109513	-0.066156
C56	C	0.424060	-0.153740	-0.066158
N57	N	0.462395	-0.214221	-0.000356
C58	C	0.500740	-0.230465	0.065460
C59	C	0.424165	0.248822	-0.066049
C60	C	0.424175	0.293060	-0.066035
C61	C	0.500858	0.216331	0.065589
C62	C	0.500846	0.172093	0.065578
C63	C	0.462500	0.188340	-0.000247
C64	C	0.500709	-0.323359	0.065434
C65	C	0.500690	-0.367595	0.065420
C66	C	0.424009	-0.290863	-0.066206
C67	C	0.424025	-0.246631	-0.066190
C68	C	0.462380	-0.262884	-0.000366
O69	O	0.391456	-0.144046	-0.122085
O70	O	0.533344	-0.285972	0.121413
C71	C	0.500791	-0.053521	0.065504
C72	C	0.462459	0.006958	-0.000302
C73	C	0.424113	0.023201	-0.066117
C74	C	0.462469	0.051196	-0.000288
C75	C	0.500814	0.034952	0.065528
C76	C	0.539149	-0.025530	0.131329
C77	C	0.539136	-0.069765	0.131319
C78	C	0.385778	0.083683	-0.131919
C79	C	0.385795	0.127915	-0.131903
C80	C	0.424140	0.111672	-0.066088
C81	C	0.323669	0.462751	-0.000281
C82	C	0.276574	0.462757	-0.000272
C83	C	-0.059697	0.462719	0.065504
C84	C	0.117284	0.462736	0.065517
O85	O	0.140178	0.462713	0.121496
N86	N	0.139416	0.462740	-0.000278
C87	C	0.117302	0.462736	-0.066079
O88	O	0.140191	0.462733	-0.122036
C89	C	-0.059676	0.462714	-0.066088
C90	C	-0.081809	0.462716	-0.000293
C91	C	-0.081830	0.462720	0.131294
C92	C	-0.126074	0.462719	0.131287
C93	C	-0.148186	0.462717	0.065490
C94	C	-0.126054	0.462715	-0.000300
C95	C	-0.081787	0.462706	-0.131884
C96	C	-0.126034	0.462699	-0.131879
C97	C	-0.148167	0.462701	-0.066084
C98	C	-0.192410	0.462712	-0.066104
N99	N	-0.214542	0.462708	-0.000308
C100	C	-0.192430	0.462710	0.065489
C101	C	0.210218	0.462748	-0.066070
C102	C	0.254462	0.462755	-0.066069
C103	C	0.254442	0.462754	0.065528
C104	C	0.210195	0.462752	0.065523
C105	C	0.188086	0.462744	-0.000274
C106	C	-0.285347	0.462709	0.065469
C107	C	-0.329596	0.462710	0.065454
C108	C	-0.329570	0.462708	-0.066140
C109	C	-0.285326	0.462710	-0.066128
C110	C	-0.263215	0.462708	-0.000316
O111	O	-0.215328	0.462728	-0.122047
O112	O	-0.215320	0.462700	0.121450
C113	C	-0.015453	0.462720	0.065511
C114	C	0.006680	0.462718	-0.000279
C115	C	-0.015432	0.462716	-0.066076
C116	C	0.050924	0.462725	-0.000278
C117	C	0.073035	0.462727	0.065519
C118	C	0.050903	0.462723	0.131314
C119	C	0.006659	0.462722	0.131308
C120	C	0.006700	0.462720	-0.131872
C121	C	0.050944	0.462722	-0.131860
C122	C	0.073056	0.462724	-0.066063
C123	C	0.601197	0.462714	-0.000334
C124	C	0.648292	0.462708	-0.000343
C125	C	0.462426	0.462738	-0.238567
C126	C	0.462423	0.462740	-0.319430
C127	C	0.462367	0.601539	-0.000373
C128	C	0.462345	0.648649	-0.000396
C129	C	0.462443	0.462722	-0.615514
C130	C	0.462438	0.462725	-0.533132
C131	C	0.462433	0.462731	-0.467475
C132	C	0.462429	0.462734	-0.385088
C133	C	0.462440	0.462727	0.237952
C134	C	0.462443	0.462725	0.318815
C135	C	0.601262	0.323908	-0.000268
C136	C	0.648380	0.276792	-0.000255
C137	C	0.462506	0.323920	0.238018
C138	C	0.462530	0.276808	0.318904
C139	C	0.601269	0.323902	0.237992
C140	C	0.648389	0.276784	0.318868
C141	C	0.323596	0.601563	-0.238607
C142	C	0.276477	0.648681	-0.319483
C143	C	0.323604	0.601557	-0.000347
C144	C	0.276486	0.648673	-0.000360
C145	C	0.462360	0.601545	-0.238633
C146	C	0.462336	0.648656	-0.319518
C147	C	0.643409	0.254670	-0.046776
C148	C	0.687676	0.210406	-0.046781
C149	C	0.736914	0.188261	-0.000259
C150	C	0.741884	0.210387	0.046264
C151	C	0.697617	0.254653	0.046263
C152	C	0.489640	0.254680	0.403416
C153	C	0.489661	0.210419	0.479424
C154	C	0.462575	0.188286	0.470917
C155	C	0.435463	0.210419	0.386396
C156	C	0.435439	0.254681	0.310390
C157	C	0.697617	0.254654	0.310319
C158	C	0.741895	0.210388	0.386303
C159	C	0.736945	0.188249	0.470837
C160	C	0.687712	0.210383	0.479385
C161	C	0.643435	0.254652	0.403401
C162	C	0.227249	0.670816	-0.310934
C163	C	0.182971	0.715096	-0.386918
C164	C	0.187921	0.737237	-0.471452
C165	C	0.237154	0.715100	-0.480000
C166	C	0.281431	0.670824	-0.404016
C167	C	0.281457	0.670799	0.046153
C168	C	0.237190	0.715076	0.046137
C169	C	0.187952	0.737222	-0.000387
C170	C	0.182982	0.715095	-0.046907
C171	C	0.227249	0.670822	-0.046895
C172	C	0.489426	0.670776	-0.310983
C173	C	0.489413	0.715037	-0.386977
C174	C	0.462306	0.737180	-0.471504
C175	C	0.435215	0.715056	-0.480037
C176	C	0.435231	0.670793	-0.404045
H177	H	0.570313	-0.251715	0.184877
H178	H	0.511696	0.272696	0.410359
H179	H	0.532061	0.122848	0.119167
H180	H	0.392954	0.342305	-0.119615
O181	O	0.516048	0.188968	0.561454
C182	C	0.539943	0.218003	0.552654
H183	H	0.545292	0.236238	0.484839
H184	H	0.579324	0.184793	0.607147
H185	H	0.514535	0.256454	0.558859
O186	O	0.241991	0.736482	-0.562094
C187	C	0.269268	0.689216	-0.571768
H188	H	0.293754	0.644951	-0.503343
H189	H	0.295525	0.695886	-0.611849
H190	H	0.240582	0.688590	-0.607937
H191	H	0.773002	0.152203	0.532701
O192	O	0.144961	0.780260	-0.545351
C193	C	0.159881	0.795047	-0.621802
H194	H	0.200730	0.782855	-0.604388
H195	H	0.131890	0.845081	-0.675472
H196	H	0.159086	0.769164	-0.647368
H197	H	0.603353	0.272664	0.410375
O198	O	0.329322	0.649210	0.091332
C199	C	0.367335	0.605399	0.081359
H200	H	0.350103	0.586036	0.064249
H201	H	0.401479	0.568159	0.146127
H202	H	0.381163	0.626573	0.025638
O203	O	0.576318	-0.174053	0.195351
C204	C	0.573895	-0.208204	0.279583
H205	H	0.533461	-0.197902	0.271956
H206	H	0.582655	-0.196521	0.324297
H207	H	0.603610	-0.257805	0.310607
H208	H	0.532080	0.203112	0.119180
O209	O	0.329220	0.649429	-0.412450
C210	C	0.334865	0.696669	-0.459331
H211	H	0.295006	0.740954	-0.501252
H212	H	0.358124	0.690006	-0.504523
H213	H	0.356028	0.697247	-0.410129
H214	H	0.781980	0.192350	0.084140
H215	H	0.772955	0.152216	-0.000265
O216	O	0.789745	0.188789	0.378109
C217	C	0.817000	0.126762	0.419285
H218	H	0.800120	0.107982	0.471084
H219	H	0.859595	0.103831	0.453015
H220	H	0.813324	0.118314	0.367054
O221	O	0.462532	0.145305	0.544662
C222	C	0.432825	0.130497	0.519041
H223	H	0.404146	0.169318	0.448899
H224	H	0.410782	0.121300	0.567065
H225	H	0.459526	0.088901	0.520443
H226	H	0.192177	0.462753	0.119099
H227	H	0.701672	0.272659	0.084152
H228	H	0.413410	0.192391	0.379483
H229	H	0.151911	0.773272	-0.000389
H230	H	0.570370	-0.038749	0.184922
H231	H	-0.011359	0.462724	0.184884
O232	O	0.348595	0.186660	-0.195949
C233	C	0.351012	0.199158	-0.280187
H234	H	0.391438	0.164538	-0.272567
H235	H	0.342270	0.245646	-0.324883
H236	H	0.321281	0.197396	-0.311229
H237	H	0.413365	0.272693	0.241579
O238	O	0.702525	0.276065	0.228275
C239	C	0.755474	0.247001	0.237042
H240	H	0.779082	0.228810	0.304806
H241	H	0.761626	0.280177	0.182472
H242	H	0.768528	0.208515	0.230935
O243	O	0.595555	0.276281	-0.092039
C244	C	0.568311	0.338308	-0.157372
H245	H	0.585198	0.357077	-0.137821
H246	H	0.525714	0.361248	-0.163012
H247	H	0.571990	0.346755	-0.224111
H248	H	0.354553	0.096919	-0.185516
O249	O	0.515651	0.736630	-0.378789
C250	C	0.480833	0.798657	-0.419960
H251	H	0.445163	0.817440	-0.471756
H252	H	0.500485	0.821586	-0.453692
H253	H	0.468698	0.807103	-0.367725
O254	O	0.683000	0.188787	0.561570
C255	C	0.732640	0.144979	0.626792
H256	H	0.761972	0.125632	0.597165
H257	H	0.732184	0.107727	0.685402
H258	H	0.743903	0.166150	0.650549
H259	H	0.241246	0.733085	0.084022
O260	O	0.682749	0.188961	-0.091982
C261	C	0.629797	0.218007	-0.133047
H262	H	0.606202	0.236244	-0.096546
H263	H	0.623641	0.184805	-0.130522
H264	H	0.616730	0.256458	-0.205278
H265	H	0.223208	0.652791	-0.242109
H266	H	-0.347616	0.462714	0.119033
O267	O	0.135112	0.736655	-0.092015
C268	C	0.097112	0.780483	-0.082057
H269	H	0.114375	0.773205	-0.019222
H270	H	0.062989	0.776898	-0.076704
H271	H	0.083246	0.826784	-0.142190
H272	H	0.142888	0.733112	-0.379941
H273	H	0.223194	0.652808	-0.084770
O274	O	0.386852	-0.187857	-0.130131
C275	C	0.410308	-0.159989	-0.178289
H276	H	0.452183	-0.186675	-0.135889
H277	H	0.388302	-0.112642	-0.196192
H278	H	0.409408	-0.158115	-0.241725
O279	O	0.515807	0.649317	-0.228946
C280	C	0.539703	0.678348	-0.237727
H281	H	0.545055	0.696587	-0.305538
H282	H	0.579083	0.645134	-0.183228
H283	H	0.514294	0.716795	-0.231514
O284	O	0.462385	0.780122	-0.545255
C285	C	0.513668	0.758473	-0.545116
H286	H	0.541645	0.720811	-0.474150
H287	H	0.518788	0.796272	-0.573075
H288	H	0.522041	0.740832	-0.588010
O289	O	0.408889	0.736656	-0.562216
C290	C	0.414696	0.780458	-0.627449
H291	H	0.424675	0.799799	-0.597829
H292	H	0.376963	0.817714	-0.686051
H293	H	0.447146	0.759281	-0.651215
O294	O	0.408938	0.649246	-0.412184
C295	C	0.414738	0.605450	-0.326994
H296	H	0.451357	0.586052	-0.276615
H297	H	0.417824	0.568232	-0.327833
H298	H	0.379724	0.626651	-0.307646
H299	H	0.531940	-0.336601	0.119034
O300	O	0.537919	-0.426329	0.129466
C301	C	0.535493	-0.438846	0.213709
H302	H	0.516016	-0.395812	0.209738
H303	H	0.576358	-0.472427	0.263972
H304	H	0.512145	-0.458418	0.235539
O305	O	0.386860	0.264714	-0.130033
C306	C	0.353038	0.327583	-0.188112
H307	H	0.354882	0.347866	-0.152639
H308	H	0.311786	0.341643	-0.209361
H309	H	0.365097	0.344077	-0.249297
O310	O	0.348491	0.053931	-0.195980
C311	C	0.314645	0.058768	-0.254055
H312	H	0.335294	0.015976	-0.250911
H313	H	0.302268	0.098367	-0.324865
H314	H	0.279004	0.065872	-0.233350
O315	O	-0.351020	0.462598	-0.129940
C316	C	-0.350847	0.411092	-0.089636
H317	H	-0.319500	0.375095	-0.021388
H318	H	-0.342691	0.393796	-0.132977
H319	H	-0.390209	0.422735	-0.081953
O320	O	-0.263956	0.462745	0.129430
C321	C	-0.292981	0.462736	0.187498
H322	H	-0.333935	0.481554	0.152031
H323	H	-0.294666	0.491624	0.208709
H324	H	-0.273813	0.415025	0.248706
O325	O	0.072395	0.462806	0.195114
C326	C	0.072202	0.514325	0.154821
H327	H	0.070237	0.531499	0.082947
H328	H	0.109113	0.502741	0.192606
H329	H	0.037101	0.550393	0.156329
H330	H	0.068959	0.462725	-0.185446
H331	H	0.392788	-0.277646	-0.119788
O332	O	0.576427	-0.128487	0.195288
C333	C	0.610262	-0.133326	0.253385
H334	H	0.608435	-0.090545	0.217931
H335	H	0.651508	-0.172941	0.274631
H336	H	0.598204	-0.140404	0.314571
O337	O	0.348475	-0.033315	-0.195791
C338	C	0.320418	-0.056578	-0.155525
H339	H	0.345125	-0.096515	-0.083654
H340	H	0.309960	-0.071443	-0.193334
H341	H	0.283482	-0.020590	-0.157029
O342	O	0.275924	0.462862	-0.130057
C343	C	0.275755	0.514366	-0.178212
H344	H	0.244400	0.550371	-0.171792
H345	H	0.267612	0.531651	-0.251249
H346	H	0.315113	0.502724	-0.150538
H347	H	-0.063829	0.462720	0.184877
O348	O	-0.147488	0.462687	0.195295
C349	C	-0.118483	0.462702	0.253351
H350	H	-0.077521	0.443880	0.250215
H351	H	-0.116815	0.433821	0.324165
H352	H	-0.137656	0.510416	0.232622
H353	H	0.192220	0.462743	-0.119653
O354	O	0.275933	0.462833	0.129333
C355	C	0.275739	0.514352	0.089051
H356	H	0.273773	0.531532	0.017175
H357	H	0.312650	0.502766	0.126840
H358	H	0.240638	0.550416	0.090566
H359	H	-0.063773	0.462703	-0.185459
O360	O	-0.147458	0.462718	-0.195885
C361	C	-0.118423	0.462701	-0.253935
H362	H	-0.096309	0.481534	-0.250808
H363	H	-0.145646	0.491572	-0.324748
H364	H	-0.089836	0.414985	-0.233191
H365	H	-0.267310	0.462716	-0.119712
H366	H	-0.011300	0.462717	-0.185451
