data_functionalizedCrystal
_audit_creation_method	'MofGen! by Chris Wilmer'
_symmetry_space_group_name_H-M	'P1'
_symmetry_Int_Tables_number	1
_symmetry_cell_setting	triclinic
loop_
_symmetry_equiv_pos_as_xyz
  x,y,z
_cell_length_a	11.792241
_cell_length_b	10.654550
_cell_length_c	9.730223
_cell_angle_alpha	90.000193
_cell_angle_beta	90.003985
_cell_angle_gamma	95.660841
loop_
_atom_site_label
_atom_site_type_symbol
_atom_site_fract_x
_atom_site_fract_y
_atom_site_fract_z
O1	O	1.507300	-0.172130	-0.114153
O2	O	1.177000	-0.189870	-0.114184
O3	O	1.349744	0.001761	-0.114163
O4	O	1.334556	-0.363761	-0.114174
O5	O	1.349742	0.001756	0.114417
O6	O	1.176998	-0.189875	0.114396
O7	O	1.507298	-0.172135	0.114427
Zn8	Zn	1.342148	-0.181006	0.150703
Zn9	Zn	1.342150	-0.180999	-0.150460
O10	O	1.334554	-0.363766	0.114406
C11	C	1.134705	-0.188758	0.000102
C12	C	1.008684	-0.185423	0.000090
C13	C	1.348628	0.048553	0.000126
C14	C	1.345291	0.187987	0.000120
C15	C	1.335670	-0.410558	0.000114
C16	C	1.339006	-0.549992	0.000111
C17	C	0.777958	-0.179290	0.000129
C18	C	0.906351	-0.182697	0.000107
C19	C	1.549592	-0.173247	0.000138
C20	C	1.675614	-0.176582	0.000141
N21	N	1.342154	-0.181009	0.356240
C22	C	1.447000	0.267760	0.000134
C23	C	1.443858	0.398772	0.000124
C24	C	1.237290	0.370224	0.000092
C25	C	1.240433	0.239215	0.000093
C26	C	1.551859	0.216532	0.000162
C27	C	1.653577	0.296307	0.000178
C28	C	1.650435	0.427319	0.000168
C29	C	1.545575	0.478556	0.000142
N30	N	1.342153	-0.180986	-0.355997
C31	C	1.418665	-0.096184	0.428175
C32	C	1.418662	-0.096169	0.572058
C33	C	1.265633	-0.265815	0.572057
C34	C	1.265632	-0.265823	0.428177
C35	C	1.495187	-0.011370	0.356238
C36	C	1.571705	0.073461	0.428174
C37	C	1.571702	0.073477	0.572057
C38	C	1.495181	-0.011339	0.644004
H39	H	1.554429	0.109857	0.000174
O40	O	1.645949	0.155773	0.358078
C41	C	1.629508	0.137618	0.215659
H42	H	1.587923	0.038063	0.195996
H43	H	1.571972	0.209088	0.174857
C44	C	1.796522	0.278000	0.165918
C45	C	1.745455	0.155721	0.141766
H46	H	1.868041	0.289172	0.120335
H47	H	1.807597	0.290236	0.261868
H48	H	1.748563	0.337544	0.131916
H49	H	1.793406	0.096180	0.175784
H50	H	1.734390	0.143475	0.045820
O51	O	1.135534	0.420201	0.000139
C52	C	1.154570	0.552940	0.000110
H53	H	1.242904	0.583097	0.043395
H54	H	1.148785	0.589444	-0.109551
C55	C	0.955363	0.570851	0.036581
C56	C	1.063852	0.607890	0.089755
H57	H	0.899402	0.604749	0.091872
H58	H	0.942536	0.481423	0.036596
H59	H	0.950558	0.601273	-0.054802
H60	H	1.068661	0.577454	0.181129
H61	H	1.076678	0.697315	0.089758
O62	O	1.646071	0.155708	0.642089
C63	C	1.716632	0.087929	0.725304
H64	H	1.672191	-0.010005	0.746867
H65	H	1.800580	0.078758	0.669863
C66	C	1.794923	0.278855	0.835486
C67	C	1.740335	0.158574	0.861979
H68	H	1.809550	0.322434	0.919792
H69	H	1.747389	0.324520	0.779419
H70	H	1.864874	0.271196	0.789282
H71	H	1.670380	0.166235	0.908167
H72	H	1.787859	0.112911	0.918058
H73	H	1.495178	-0.011311	0.761163
O74	O	1.141560	0.161841	-0.000102
C75	C	1.077978	0.185146	-0.118513
H76	H	1.105057	0.284329	-0.157973
H77	H	1.094076	0.113396	-0.201410
C78	C	0.916937	0.051726	-0.034111
C79	C	0.950190	0.173549	-0.082569
H80	H	0.838111	0.044567	-0.011942
H81	H	0.959775	0.036021	0.045663
H82	H	0.930362	-0.008052	-0.103200
H83	H	0.936778	0.233323	-0.013475
H84	H	0.907347	0.189264	-0.162331
O85	O	1.191154	-0.348078	0.641883
C86	C	1.078641	-0.326845	0.606694
H87	H	1.077300	-0.226292	0.567132
H88	H	1.045843	-0.396215	0.523184
C89	C	1.003500	-0.469273	0.783099
C90	C	1.001851	-0.345769	0.734518
H91	H	0.956130	-0.480952	0.861944
H92	H	1.079301	-0.483583	0.806804
H93	H	0.976171	-0.527068	0.713495
H94	H	1.029193	-0.287978	0.804116
H95	H	0.926052	-0.331450	0.710828
H96	H	1.543025	0.585236	0.000120
H97	H	1.203328	-0.334895	0.369607
H98	H	1.738949	0.254580	0.000164
H99	H	1.733258	0.492268	0.000166
H100	H	1.495199	-0.011377	0.239082
