data_functionalizedCrystal
_audit_creation_method	'MofGen! by Chris Wilmer'
_symmetry_space_group_name_H-M	'P1'
_symmetry_Int_Tables_number	1
_symmetry_cell_setting	triclinic
loop_
_symmetry_equiv_pos_as_xyz
  x,y,z
_cell_length_a	10.489741
_cell_length_b	23.532407
_cell_length_c	8.965430
_cell_angle_alpha	89.995773
_cell_angle_beta	89.998843
_cell_angle_gamma	83.693926
loop_
_atom_site_label
_atom_site_type_symbol
_atom_site_fract_x
_atom_site_fract_y
_atom_site_fract_z
O1	O	1.691383	0.080340	-0.123964
O2	O	1.319936	0.087881	-0.123989
O3	O	1.516860	0.001253	-0.123949
O4	O	1.494458	0.166968	-0.124005
O5	O	1.516844	0.001259	0.124130
O6	O	1.319920	0.087887	0.124090
O7	O	1.691366	0.080346	0.124115
Cu8	Cu	1.505641	0.084117	0.146754
Cu9	Cu	1.505661	0.084110	-0.146628
O10	O	1.494442	0.166974	0.124074
C11	C	1.272415	0.087315	0.000048
C12	C	1.130842	0.085611	0.000039
C13	C	1.064535	0.030491	0.000072
C14	C	0.971550	0.056526	-0.122250
C15	C	0.971568	0.056545	0.122337
C16	C	1.039723	0.111668	-0.122383
C17	C	1.039750	0.111679	0.122313
C18	C	0.946792	0.137754	-0.000039
C19	C	1.516282	-0.019964	0.000095
C20	C	1.514566	-0.083192	0.000106
C21	C	1.620344	-0.481594	0.000031
C22	C	1.618751	-0.541005	0.000020
O23	O	1.716808	-0.577100	-0.000029
N24	N	1.501680	-0.564407	0.000013
C25	C	1.386194	-0.528395	0.000003
O26	O	1.286470	-0.553755	-0.000006
C27	C	1.387789	-0.468985	0.000003
C28	C	1.504868	-0.445587	0.000025
C29	C	1.737414	-0.458195	0.000051
C30	C	1.739007	-0.398788	0.000066
C31	C	1.623530	-0.362781	0.000060
C32	C	1.506460	-0.386180	0.000039
C33	C	1.272305	-0.432974	-0.000018
C34	C	1.273909	-0.373561	-0.000018
C35	C	1.390988	-0.350162	0.000004
C36	C	1.392576	-0.290766	0.000048
N37	N	1.509648	-0.267364	0.000054
C38	C	1.625125	-0.303371	0.000060
C39	C	1.382854	-0.653160	-0.000002
C40	C	1.381258	-0.712568	0.000008
C41	C	1.613816	-0.725174	0.000023
C42	C	1.615410	-0.665765	0.000023
C43	C	1.499926	-0.629758	0.000005
C44	C	1.628461	-0.178612	0.000092
C45	C	1.630043	-0.119200	0.000112
C46	C	1.397486	-0.106599	0.000090
C47	C	1.395903	-0.166006	0.000077
C48	C	1.511401	-0.202012	0.000073
O49	O	1.294571	-0.254636	0.000090
O50	O	1.724833	-0.278003	0.000049
C51	C	1.738887	0.080912	0.000075
C52	C	1.880460	0.082616	0.000073
C53	C	1.495021	0.188191	0.000028
C54	C	1.496736	0.251419	0.000006
N55	N	1.505637	0.084121	0.353103
N56	N	1.505676	0.084101	-0.352977
C57	C	1.414538	0.124171	0.450390
C58	C	1.529652	0.135693	0.549807
C59	C	1.390572	0.072603	0.549813
C60	C	1.620808	0.095670	0.450331
C61	C	1.481652	0.032557	0.450328
C62	C	1.596850	0.044059	0.549701
H63	H	1.070014	0.134985	0.225718
O64	O	1.553706	0.187702	0.602129
C65	C	1.477303	0.269991	0.749888
C66	C	1.449928	0.211093	0.690773
H67	H	1.393405	0.288926	0.821543
H68	H	1.568559	0.264984	0.819922
H69	H	1.490183	0.299687	0.651860
H70	H	1.436987	0.181366	0.788711
H71	H	1.358700	0.216145	0.620695
H72	H	1.069783	0.134970	-0.225914
H73	H	1.300568	-0.185058	0.000101
O74	O	1.274519	0.060884	0.601869
C75	C	1.116875	-0.006241	0.607987
C76	C	1.248338	0.006948	0.548967
H77	H	1.095654	-0.049843	0.565214
H78	H	1.118261	-0.006595	0.735134
H79	H	1.039337	0.027978	0.567220
H80	H	1.325948	-0.027257	0.589624
H81	H	1.246843	0.007322	0.421823
O82	O	1.736839	0.107472	0.398401
C83	C	1.852304	0.170831	0.252114
C84	C	1.720835	0.157518	0.310828
H85	H	1.839406	0.211287	0.181274
H86	H	1.918182	0.177477	0.350237
H87	H	1.896647	0.133554	0.181276
H88	H	1.676379	0.194777	0.381643
H89	H	1.655046	0.150850	0.212638
H90	H	1.673989	0.010180	0.593032
O91	O	1.457607	-0.019458	0.398071
C92	C	1.534859	-0.102170	0.252322
C93	C	1.562287	-0.043279	0.311439
H94	H	1.619463	-0.121442	0.182242
H95	H	1.520182	-0.131671	0.350239
H96	H	1.444570	-0.096975	0.180633
H97	H	1.652587	-0.048420	0.383105
H98	H	1.576885	-0.013800	0.213454
O99	O	1.125429	-0.023598	0.000141
C100	C	1.158438	-0.114129	0.127820
C101	C	1.089368	-0.052896	0.127922
H102	H	1.129329	-0.137831	0.231136
H103	H	1.130614	-0.137563	0.023488
H104	H	1.266590	-0.112310	0.128804
H105	H	0.981203	-0.054663	0.126992
H106	H	1.117297	-0.029486	0.232247
O107	O	1.322872	0.164641	0.398171
C108	C	1.276699	0.250004	0.250584
C109	C	1.380626	0.204201	0.309594
H110	H	1.323356	0.282006	0.178983
H111	H	1.204674	0.228711	0.180521
H112	H	1.225127	0.273226	0.348666
H113	H	1.432294	0.180963	0.211603
H114	H	1.452566	0.225527	0.379702
H115	H	0.941318	0.033202	-0.225650
H116	H	1.285921	-0.731613	0.000016
H117	H	0.895860	0.183113	-0.000121
H118	H	1.176967	-0.452014	-0.000045
O119	O	0.935313	0.028713	0.245605
C120	C	0.760216	-0.003566	0.384458
C121	C	0.801096	0.027959	0.244789
H122	H	0.651697	-0.004176	0.383861
H123	H	0.809005	-0.049310	0.384314
H124	H	0.789688	0.019487	0.488665
H125	H	0.771631	0.004953	0.140508
H126	H	0.752317	0.073704	0.245066
H127	H	1.725387	-0.100152	0.000134
H128	H	1.303468	-0.077271	0.000090
H129	H	1.722510	-0.207922	0.000082
H130	H	1.834344	-0.379743	0.000077
H131	H	1.831454	-0.487507	0.000051
O132	O	1.729252	-0.643132	-0.000037
C133	C	1.959746	-0.661922	0.000063
C134	C	1.830906	-0.687625	0.000103
H135	H	2.041967	-0.697882	0.000208
H136	H	1.966406	-0.634444	-0.103786
H137	H	1.966240	-0.634405	0.103855
H138	H	1.824326	-0.715168	-0.103619
H139	H	1.824302	-0.715070	0.104021
H140	H	1.707843	-0.754503	0.000022
H141	H	1.179865	-0.344246	-0.000035
O142	O	1.270580	-0.618242	-0.000196
C143	C	1.072333	-0.589271	-0.128764
C144	C	1.199419	-0.628852	-0.128709
H145	H	1.014776	-0.597826	-0.232671
H146	H	1.014593	-0.597858	-0.025016
H147	H	1.093595	-0.542792	-0.128688
H148	H	1.178274	-0.675345	-0.128838
H149	H	1.257121	-0.620216	-0.232448
