data_functionalizedCrystal
_audit_creation_method	'MofGen! by Chris Wilmer'
_symmetry_space_group_name_H-M	'P1'
_symmetry_Int_Tables_number	1
_symmetry_cell_setting	triclinic
loop_
_symmetry_equiv_pos_as_xyz
  x,y,z
_cell_length_a	21.295417
_cell_length_b	21.295420
_cell_length_c	13.897441
_cell_angle_alpha	90.022920
_cell_angle_beta	90.032897
_cell_angle_gamma	90.025274
loop_
_atom_site_label
_atom_site_type_symbol
_atom_site_fract_x
_atom_site_fract_y
_atom_site_fract_z
Zn1	Zn	0.250633	-0.962350	-0.545422
Zn2	Zn	0.355912	-0.962263	-0.384117
Zn3	Zn	0.250655	-0.857079	-0.384134
Zn4	Zn	0.355863	-0.857048	-0.545363
O5	O	0.303266	-0.909685	-0.464759
O6	O	0.264609	-1.050428	-0.524042
O7	O	0.341979	-0.948286	-0.249137
O8	O	0.162563	-0.871093	-0.405561
O9	O	0.341957	-1.050364	-0.405532
O10	O	0.162546	-0.948436	-0.524059
O11	O	0.264648	-0.871007	-0.249150
O12	O	0.264601	-0.768985	-0.405504
O13	O	0.341874	-0.871041	-0.680353
O14	O	0.341896	-0.768963	-0.523959
O15	O	0.264562	-0.948406	-0.680396
O16	O	0.443994	-0.948256	-0.405475
O17	O	0.443959	-0.870955	-0.523942
C18	C	0.303246	-0.746133	-0.464728
C19	C	0.303253	-0.676165	-0.464737
C20	C	0.343577	-0.176712	-0.526361
C21	C	0.343578	-0.242455	-0.526353
C22	C	0.303271	-0.275326	-0.464775
C23	C	0.262970	-0.242449	-0.403183
C24	C	0.262975	-0.176708	-0.403186
N25	N	0.248156	-0.378564	-0.457520
N26	N	0.248153	-0.441016	-0.457522
C27	C	0.303256	-0.473400	-0.464759
N28	N	0.358362	-0.440975	-0.472012
N29	N	0.358364	-0.378517	-0.472014
C30	C	0.303262	-0.346611	-0.464763
C31	C	0.343558	-0.577555	-0.526332
C32	C	0.343560	-0.643299	-0.526317
C33	C	0.262947	-0.643292	-0.403152
C34	C	0.262950	-0.577549	-0.403162
C35	C	0.303255	-0.544685	-0.464758
C36	C	0.466817	-0.909610	-0.464721
C37	C	0.536785	-0.909635	-0.464737
C38	C	1.036241	-0.950081	-0.403265
C39	C	0.970498	-0.950057	-0.403239
C40	C	0.937625	-0.909768	-0.464858
C41	C	0.970499	-0.869489	-0.526490
C42	C	1.036240	-0.869509	-0.526507
N43	N	0.834367	-0.904878	-0.549258
N44	N	0.771916	-0.904862	-0.549238
C45	C	0.739550	-0.909704	-0.464808
N46	N	0.771995	-0.914575	-0.380395
N47	N	0.834452	-0.914594	-0.380415
C48	C	0.866339	-0.909742	-0.464845
C49	C	0.635398	-0.949953	-0.403146
C50	C	0.569654	-0.949925	-0.403119
C51	C	0.569656	-0.869360	-0.526378
C52	C	0.635399	-0.869385	-0.526397
C53	C	0.668266	-0.909685	-0.464783
C54	C	1.139075	-0.909775	-0.464831
C55	C	1.069107	-0.909809	-0.464893
C56	C	0.303282	-0.073875	-0.464785
C57	C	0.303279	-0.143843	-0.464782
C58	C	0.303210	-0.909730	-0.716352
C59	C	0.303186	-0.909749	-0.823566
C60	C	0.303144	-0.909766	-1.019862
C61	C	0.303169	-0.909754	-0.910629
C62	C	0.303276	-0.909677	-0.214145
C63	C	0.303122	-0.909780	-0.106931
H64	H	0.376398	-0.149958	-0.576514
H65	H	0.230134	-0.550787	-0.353021
O66	O	0.938539	-0.830444	-0.586452
C67	C	0.900445	-0.866250	-0.648781
H68	H	0.920220	-0.915831	-0.654819
H69	H	0.899679	-0.843454	-0.722979
H70	H	0.850634	-0.868417	-0.618947
H71	H	0.542891	-0.836554	-0.576546
H72	H	0.376377	-0.550795	-0.576486
O73	O	1.068059	-0.989342	-0.343458
C74	C	1.051896	-1.052046	-0.364712
H75	H	1.004158	-1.053262	-0.401826
H76	H	1.049604	-1.080321	-0.295164
H77	H	1.088854	-1.073260	-0.414328
H78	H	0.943734	-0.982852	-0.353052
O79	O	1.068267	-0.830411	-0.586291
C80	C	1.133340	-0.839084	-0.573116
H81	H	1.142340	-0.859731	-0.498709
H82	H	1.158361	-0.791939	-0.579598
H83	H	1.151939	-0.872593	-0.630386
O84	O	0.667231	-0.830249	-0.586362
C85	C	0.624122	-0.794671	-0.640728
H86	H	0.577238	-0.820439	-0.644094
H87	H	0.643085	-0.787934	-0.716722
H88	H	0.617184	-0.746874	-0.605331
H89	H	0.230153	-0.269217	-0.353044
O90	O	0.382654	-0.274365	-0.586317
C91	C	0.368973	-0.258321	-0.682488
H92	H	0.318691	-0.240264	-0.687481
H93	H	0.374419	-0.301568	-0.730125
H94	H	0.402746	-0.220160	-0.707623
O95	O	0.223766	-0.144873	-0.343339
C96	C	0.188202	-0.187980	-0.288962
H97	H	0.186050	-0.234856	-0.328470
H98	H	0.138598	-0.169001	-0.278807
H99	H	0.211198	-0.194938	-0.215642
O100	O	0.223705	-0.675146	-0.343382
C101	C	0.160981	-0.659126	-0.364647
H102	H	0.159706	-0.611405	-0.401734
H103	H	0.132702	-0.656867	-0.295107
H104	H	0.139815	-0.696149	-0.414292
H105	H	0.376379	-0.670059	-0.576460
H106	H	0.662160	-0.982767	-0.352975
H107	H	0.542894	-0.982718	-0.352928
