data_functionalizedCrystal
_audit_creation_method	'MofGen! by Chris Wilmer'
_symmetry_space_group_name_H-M	'P1'
_symmetry_Int_Tables_number	1
_symmetry_cell_setting	triclinic
loop_
_symmetry_equiv_pos_as_xyz
  x,y,z
_cell_length_a	16.974897
_cell_length_b	13.339070
_cell_length_c	15.455313
_cell_angle_alpha	93.394339
_cell_angle_beta	83.675220
_cell_angle_gamma	99.482345
loop_
_atom_site_label
_atom_site_type_symbol
_atom_site_fract_x
_atom_site_fract_y
_atom_site_fract_z
O1	O	1.082547	0.119883	-0.148039
O2	O	0.855391	0.137262	-0.132112
O3	O	0.942899	-0.018544	-0.138245
O4	O	0.995039	0.275689	-0.141906
O5	O	0.937887	-0.009671	0.006368
O6	O	0.850379	0.146135	0.012501
O7	O	1.077535	0.128756	-0.003426
Cu8	Cu	0.963499	0.138256	0.017742
Cu9	Cu	0.969427	0.127762	-0.153280
O10	O	0.990027	0.284562	0.002707
C11	C	0.823218	0.141200	-0.057725
C12	C	0.734815	0.139701	-0.051527
C13	C	0.696009	0.134163	-0.127437
C14	C	0.612947	0.132772	-0.121600
C15	C	0.568692	0.136912	-0.039852
C16	C	0.607505	0.142454	0.036064
C17	C	0.690566	0.143852	0.030226
C18	C	0.319984	0.133256	-0.013941
C19	C	0.236917	0.131854	-0.008109
C20	C	0.242366	0.122175	-0.165773
C21	C	0.325427	0.123567	-0.171604
C22	C	0.364233	0.129114	-0.095688
N23	N	0.483790	0.135487	-0.033884
N24	N	0.449135	0.130546	-0.101657
C25	C	0.931585	-0.051748	-0.065322
C26	C	0.905332	-0.163902	-0.063485
C27	C	1.109463	-0.529843	-0.077797
C28	C	1.134131	-0.424468	-0.079519
C29	C	1.076933	-0.359322	-0.075511
C30	C	0.995063	-0.399560	-0.069780
C31	C	0.970392	-0.504944	-0.068052
C32	C	0.937863	-0.334423	-0.065765
C33	C	0.855993	-0.374661	-0.060035
C34	C	0.831326	-0.480035	-0.058307
C35	C	0.888524	-0.545182	-0.062315
C36	C	0.962534	-0.229039	-0.067494
C37	C	0.823464	-0.204140	-0.057748
C38	C	0.798795	-0.309514	-0.056027
C39	C	1.109709	0.124818	-0.077815
C40	C	1.198111	0.126316	-0.084019
C41	C	1.001341	0.317765	-0.070218
C42	C	1.027594	0.429919	-0.072061
N43	N	0.959336	0.145636	0.138029
N44	N	0.973595	0.120374	-0.273568
C45	C	0.996536	0.079468	0.180816
C46	C	0.993396	0.085058	0.271844
C47	C	0.953062	0.156822	0.320083
C48	C	0.915857	0.222993	0.277290
C49	C	0.918992	0.217397	0.186264
C50	C	0.939525	0.180949	0.592613
C51	C	0.936395	0.186542	0.683645
C52	C	1.013933	0.048605	0.678193
C53	C	1.017068	0.043020	0.587165
C54	C	0.979860	0.109187	0.544381
N55	N	0.949854	0.162540	0.413128
N56	N	0.983063	0.103463	0.451338
H57	H	0.581355	0.128263	-0.183415
C58	C	0.374100	0.118996	-0.261533
N59	N	0.410758	0.115543	-0.329268
H60	H	0.351569	0.137766	0.047876
C61	C	1.172370	-0.601509	-0.082200
N62	N	1.219756	-0.655490	-0.085515
H63	H	0.883011	0.281422	0.316572
C64	C	0.199673	0.116083	-0.249275
N65	N	0.167518	0.111499	-0.312172
C66	C	0.861392	-0.661101	-0.060412
N67	N	0.840958	-0.748414	-0.058973
H68	H	0.903548	0.244985	0.722918
H69	H	0.776888	-0.151097	-0.054480
C70	C	1.104072	-0.243407	-0.077411
N71	N	1.124517	-0.156097	-0.078848
C72	C	0.898726	0.253867	0.545553
N73	N	0.868042	0.308838	0.510101
C74	C	0.741266	-0.524293	-0.051995
N75	N	0.673433	-0.557626	-0.047241
H76	H	0.732135	-0.342291	-0.051360
H77	H	0.888699	0.271277	0.151428
H78	H	0.200890	0.135254	0.058463
C79	C	0.733252	0.149941	0.113734
N80	N	0.765402	0.154529	0.176634
C81	C	0.744682	0.129608	-0.217367
N82	N	0.781340	0.126180	-0.285105
C83	C	1.034295	0.012243	0.318907
N84	N	1.065092	-0.042614	0.354355
C85	C	1.040907	0.000521	0.127761
N86	N	1.074325	-0.058948	0.087803
H87	H	0.571467	0.145830	0.102625
H88	H	1.049912	-0.015416	0.547891
C89	C	1.224185	-0.380214	-0.085823
N90	N	1.292019	-0.346882	-0.090573
H91	H	1.029193	-0.196288	-0.072159
C92	C	1.054851	-0.024182	0.725264
N93	N	1.085668	-0.079012	0.760719
