data_functionalizedCrystal
_audit_creation_method	'MofGen! by Chris Wilmer'
_symmetry_space_group_name_H-M	'P1'
_symmetry_Int_Tables_number	1
_symmetry_cell_setting	triclinic
loop_
_symmetry_equiv_pos_as_xyz
  x,y,z
_cell_length_a	11.026607
_cell_length_b	14.519709
_cell_length_c	9.482944
_cell_angle_alpha	100.411698
_cell_angle_beta	98.185432
_cell_angle_gamma	96.133081
loop_
_atom_site_label
_atom_site_type_symbol
_atom_site_fract_x
_atom_site_fract_y
_atom_site_fract_z
O1	O	1.628002	0.401966	0.120917
O2	O	1.274600	0.357975	0.120917
O3	O	1.460669	0.247274	0.120904
O4	O	1.441933	0.512667	0.120930
O5	O	1.426658	0.215985	-0.120891
O6	O	1.240590	0.326686	-0.120878
O7	O	1.593991	0.370677	-0.120878
Cu8	Cu	1.414185	0.345825	-0.142956
Cu9	Cu	1.454406	0.382827	0.142995
O10	O	1.407922	0.481378	-0.120865
C11	C	1.212366	0.334215	0.000019
C12	C	1.077600	0.310023	0.000019
C13	C	1.003940	0.376823	0.000026
C14	C	0.864651	0.351821	0.000026
C15	C	1.442790	0.197126	0.000006
C16	C	1.440173	0.094313	0.000005
C17	C	1.430544	-0.282165	0.000043
C18	C	1.433218	-0.177418	0.000032
C19	C	1.435358	-0.093929	0.000023
C20	C	1.438033	0.010825	0.000015
C21	C	1.656225	0.394437	0.000023
C22	C	1.790993	0.418631	0.000033
C23	C	1.425801	0.531526	0.000036
C24	C	1.428420	0.634340	0.000046
N25	N	1.385904	0.319800	-0.344078
C26	C	1.446056	0.375149	-0.416273
C27	C	1.422536	0.353489	-0.583692
N28	N	1.482696	0.408847	0.344117
H29	H	0.824605	0.276120	0.000055
C30	C	1.581010	0.499369	-0.422406
C31	C	1.575720	0.494479	-0.572026
H32	H	1.638430	0.552239	-0.370640
H33	H	1.606695	0.443148	-0.397538
H34	H	1.501493	0.506053	-0.397570
H35	H	1.655235	0.487787	-0.596864
H36	H	1.550042	0.550714	-0.596904
C37	C	1.185522	0.484006	0.000031
C38	C	1.058001	0.479019	0.000033
H39	H	1.218892	0.547101	0.000043
H40	H	1.200218	0.443248	-0.084286
H41	H	1.223939	0.465066	0.084353
H42	H	1.019582	0.497954	-0.084295
H43	H	1.043295	0.519791	0.084358
C44	C	1.287371	0.229418	-0.577561
C45	C	1.292872	0.234180	-0.427942
H46	H	1.229928	0.176561	-0.629328
H47	H	1.366831	0.222790	-0.602574
H48	H	1.261600	0.285668	-0.602251
H49	H	1.318651	0.177932	-0.403250
H50	H	1.213395	0.240800	-0.402919
H51	H	0.831041	0.494335	0.000031
H52	H	1.037548	0.234327	0.000048
H53	H	1.514971	0.438568	-0.354137
H54	H	1.353624	0.290061	-0.645822
