data_functionalizedCrystal
_audit_creation_method	'MofGen! by Chris Wilmer'
_symmetry_space_group_name_H-M	'P1'
_symmetry_Int_Tables_number	1
_symmetry_cell_setting	triclinic
loop_
_symmetry_equiv_pos_as_xyz
  x,y,z
_cell_length_a	12.759401
_cell_length_b	25.639239
_cell_length_c	12.759393
_cell_angle_alpha	89.962948
_cell_angle_beta	89.981504
_cell_angle_gamma	90.038847
loop_
_atom_site_label
_atom_site_type_symbol
_atom_site_fract_x
_atom_site_fract_y
_atom_site_fract_z
Zn1	Zn	1.606080	-0.208118	-0.593941
Zn2	Zn	2.106080	0.291882	-0.093941
Zn3	Zn	1.605901	-0.295564	-0.418245
Zn4	Zn	2.105901	0.204436	0.081755
Zn5	Zn	1.430382	-0.208145	-0.418281
Zn6	Zn	1.930382	0.291855	0.081719
Zn7	Zn	1.430297	-0.295524	-0.593886
Zn8	Zn	1.930297	0.204476	-0.093886
O9	O	1.518165	-0.251838	-0.506088
O10	O	2.018165	0.248162	-0.006088
O11	O	1.753078	-0.219723	-0.570643
O12	O	2.253078	0.280277	-0.070643
O13	O	1.582579	-0.283996	-0.271228
O14	O	2.082579	0.216004	0.228772
O15	O	1.453799	-0.134976	-0.441621
O16	O	1.953799	0.365024	0.058379
O17	O	1.752946	-0.283970	-0.441559
O18	O	2.252946	0.216030	0.058441
O19	O	1.582884	-0.134956	-0.570678
O20	O	2.082884	0.365044	-0.070678
O21	O	1.453626	-0.219770	-0.271255
O22	O	1.953626	0.280230	0.228745
O23	O	1.283350	-0.219731	-0.441567
O24	O	1.783350	0.280269	0.058433
O25	O	1.453655	-0.283901	-0.740914
O26	O	1.953655	0.216099	-0.240914
O27	O	1.283288	-0.283928	-0.570584
O28	O	1.783288	0.216072	-0.070584
O29	O	1.582802	-0.219684	-0.740955
O30	O	2.082802	0.280316	-0.240955
O31	O	1.582496	-0.368724	-0.441505
O32	O	2.082496	0.131276	0.058495
O33	O	1.453481	-0.368695	-0.570549
O34	O	1.953481	0.131305	-0.070549
C35	C	1.245198	-0.251828	-0.506074
C36	C	1.745198	0.248172	-0.006074
C37	C	1.128421	-0.251837	-0.506093
C38	C	1.628421	0.248163	-0.006093
C39	C	1.073554	-0.285318	-0.573160
C40	C	1.573554	0.214682	-0.073160
C41	C	0.963830	-0.285324	-0.573172
C42	C	1.463830	0.214676	-0.073172
C43	C	0.963850	-0.218368	-0.439039
C44	C	1.463850	0.281632	0.060961
C45	C	1.073572	-0.218359	-0.439033
C46	C	1.573572	0.281641	0.060967
C47	C	1.073542	-0.323976	-0.650598
C48	C	1.573542	0.176024	-0.150598
C49	C	0.963818	-0.323983	-0.650609
C50	C	1.463818	0.176017	-0.150609
C51	C	1.517989	-0.387680	-0.506040
C52	C	2.017989	0.112320	-0.006040
C53	C	1.518009	-0.445795	-0.506055
C54	C	2.018009	0.054205	-0.006055
C55	C	1.585519	-0.806160	-0.439010
C56	C	2.085519	-0.306160	0.060990
C57	C	1.585560	-0.860765	-0.439024
C58	C	2.085560	-0.360765	0.060976
O59	O	1.642775	-0.889004	-0.381967
O60	O	2.142775	-0.389004	0.118033
N61	N	1.518350	-0.888077	-0.506158
N62	N	2.018350	-0.388077	-0.006158
C63	C	1.451103	-0.860782	-0.573289
C64	C	1.951103	-0.360782	-0.073289
O65	O	1.393940	-0.889027	-0.630394
O66	O	1.893940	-0.389027	-0.130394
C67	C	1.451068	-0.806179	-0.573280
C68	C	1.951068	-0.306179	-0.073280
C69	C	1.518275	-0.778869	-0.506134
C70	C	2.018275	-0.278869	-0.006134
C71	C	1.652721	-0.778851	-0.371870
C72	C	2.152721	-0.278851	0.128130
C73	C	1.652678	-0.724250	-0.371855
C74	C	2.152678	-0.224250	0.128145
C75	C	1.585434	-0.696959	-0.438980
C76	C	2.085434	-0.196959	0.061020
C77	C	1.518232	-0.724269	-0.506119
C78	C	2.018232	-0.224269	-0.006119
C79	C	1.383827	-0.778885	-0.640416
C80	C	1.883827	-0.278885	-0.140416
C81	C	1.383799	-0.724278	-0.640401
C82	C	1.883799	-0.224278	-0.140401
C83	C	1.451005	-0.696968	-0.573256
C84	C	1.951005	-0.196968	-0.073256
C85	C	1.450946	-0.642377	-0.573228
C86	C	1.950946	-0.142377	-0.073228
N87	N	1.518155	-0.615065	-0.506094
N88	N	2.018155	-0.115065	-0.006094
C89	C	1.585399	-0.642356	-0.438970
C90	C	2.085399	-0.142356	0.061030
C91	C	1.451182	-0.975453	-0.573306
C92	C	1.951182	-0.475453	-0.073306
C93	C	1.451210	-1.030055	-0.573311
C94	C	1.951210	-0.530055	-0.073311
C95	C	1.585669	-1.030034	-0.439046
C96	C	2.085669	-0.530034	0.060954
C97	C	1.585634	-0.975430	-0.439037
C98	C	2.085634	-0.475430	0.060963
C99	C	1.518391	-0.948140	-0.506172
C100	C	2.018391	-0.448140	-0.006172
C101	C	1.585305	-0.527691	-0.438943
C102	C	2.085305	-0.027691	0.061057
C103	C	1.585253	-0.473086	-0.438930
C104	C	2.085253	0.026914	0.061070
C105	C	1.450799	-0.473111	-0.573198
C106	C	1.950799	0.026889	-0.073198
C107	C	1.450846	-0.527712	-0.573207
C108	C	1.950846	-0.027712	-0.073207
C109	C	1.518108	-0.555000	-0.506076
C110	C	2.018108	-0.055000	-0.006076
O111	O	1.393762	-0.614103	-0.630258
O112	O	1.893762	-0.114103	-0.130258
O113	O	1.642562	-0.614104	-0.381885
O114	O	2.142562	-0.114104	0.118115
C115	C	1.792198	-0.251848	-0.506103
C116	C	2.292198	0.248152	-0.006103
C117	C	1.908975	-0.251852	-0.506109
C118	C	2.408975	0.248148	-0.006109
C119	C	1.518239	-0.251785	-0.780122
C120	C	2.018239	0.248215	-0.280122
C121	C	1.518270	-0.251763	-0.896898
C122	C	2.018270	0.248237	-0.396898
C123	C	1.518371	-0.115465	-0.506159
C124	C	2.018371	0.384535	-0.006159
C125	C	1.518459	-0.057351	-0.506190
C126	C	2.018459	0.442649	-0.006190
C127	C	1.585526	-0.218322	-0.951783
C128	C	2.085526	0.281678	-0.451783
C129	C	1.585551	-0.218303	-1.061507
C130	C	2.085551	0.281697	-0.561507
C131	C	1.451061	-0.285170	-1.061452
C132	C	1.951061	0.214830	-0.561452
C133	C	1.451032	-0.285186	-0.951730
C134	C	1.951032	0.214814	-0.451730
C135	C	1.663176	-0.179718	-0.951816
C136	C	2.163176	0.320282	-0.451816
C137	C	1.663201	-0.179699	-1.061540
C138	C	2.163201	0.320301	-0.561540
C139	C	1.518152	-0.251853	-0.233121
C140	C	2.018152	0.248147	0.266879
C141	C	1.518325	-0.251728	-0.116345
C142	C	2.018325	0.248272	0.383655
H143	H	0.929832	-0.309529	-0.727964
H144	H	1.429832	0.190471	-0.227964
F145	F	1.379434	-0.320771	-0.893321
F146	F	1.879434	0.179229	-0.393321
F147	F	1.764160	-0.198688	-0.907319
F148	F	2.264160	0.301312	-0.407319
F149	F	1.656891	-0.556726	-0.367494
F150	F	2.156891	-0.056726	0.132506
H151	H	1.634120	-0.141226	-1.095595
H152	H	2.134120	0.358774	-0.595595
F153	F	1.634768	-0.126794	-0.912928
F154	F	2.134768	0.373206	-0.412928
F155	F	1.379668	-1.059114	-0.644764
F156	F	1.879668	-0.559114	-0.144764
F157	F	0.905466	-0.182739	-0.367675
F158	F	1.405466	0.317261	0.132325
H159	H	1.744563	-0.190544	-1.091316
H160	H	2.244563	0.309456	-0.591316
H161	H	1.396316	-0.312382	-1.106109
H162	H	1.896316	0.187618	-0.606109
H163	H	1.707485	-0.801065	-0.317210
H164	H	2.207485	-0.301065	0.182790
H165	H	1.640360	-0.953198	-0.384362
H166	H	2.140360	-0.453198	0.115638
H167	H	1.118241	-0.191092	-0.384427
H168	H	1.618241	0.308908	0.115573
H169	H	1.707407	-0.702018	-0.317183
H170	H	2.207407	-0.202018	0.182817
F171	F	1.112521	-0.309863	-0.757003
F172	F	1.612521	0.190137	-0.257003
H173	H	1.107524	-0.362421	-0.621306
H174	H	1.607524	0.137579	-0.121306
F175	F	0.924823	-0.376893	-0.621905
F176	F	1.424823	0.123107	-0.121905
H177	H	1.639981	-0.450852	-0.384249
H178	H	2.139981	0.049148	0.115751
F179	F	1.657235	-1.059089	-0.367605
F180	F	2.157235	-0.559089	0.132395
H181	H	1.329095	-0.801111	-0.695088
H182	H	1.829095	-0.301111	-0.195088
H183	H	1.396416	-0.953236	-0.627972
H184	H	1.896416	-0.453236	-0.127972
F185	F	1.312230	-0.695237	-0.711860
F186	F	1.812230	-0.195237	-0.211860
H187	H	1.396125	-0.549949	-0.627886
H188	H	1.896125	-0.049949	-0.127886
H189	H	1.396046	-0.450883	-0.627847
H190	H	1.896046	0.049117	-0.127847
