data_functionalizedCrystal
_audit_creation_method	'MofGen! by Chris Wilmer'
_symmetry_space_group_name_H-M	'P1'
_symmetry_Int_Tables_number	1
_symmetry_cell_setting	triclinic
loop_
_symmetry_equiv_pos_as_xyz
  x,y,z
_cell_length_a	12.827893
_cell_length_b	17.637651
_cell_length_c	12.827885
_cell_angle_alpha	78.750836
_cell_angle_beta	89.980538
_cell_angle_gamma	101.219302
loop_
_atom_site_label
_atom_site_type_symbol
_atom_site_fract_x
_atom_site_fract_y
_atom_site_fract_z
Zn1	Zn	1.513561	-0.314727	-0.506621
Zn2	Zn	1.478115	-0.446962	-0.296492
Zn3	Zn	1.338792	-0.314766	-0.331884
Zn4	Zn	1.303464	-0.446904	-0.471207
O5	O	1.408483	-0.380840	-0.401551
O6	O	1.655093	-0.332276	-0.478755
O7	O	1.459584	-0.429467	-0.154939
O8	O	1.391595	-0.204119	-0.384695
O9	O	1.629051	-0.429429	-0.324375
O10	O	1.519997	-0.204091	-0.513074
O11	O	1.357224	-0.332343	-0.180942
O12	O	1.187872	-0.332286	-0.350357
O13	O	1.331383	-0.429330	-0.622152
O14	O	1.161916	-0.429367	-0.452717
O15	O	1.485741	-0.332220	-0.648170
O16	O	1.425328	-0.557596	-0.290036
O17	O	1.297013	-0.557553	-0.418399
C18	C	1.136977	-0.380825	-0.401535
C19	C	1.020821	-0.380838	-0.401548
C20	C	0.981899	-0.332849	-0.478016
C21	C	0.861846	-0.332861	-0.478031
C22	C	1.353519	-0.586263	-0.346557
C23	C	1.330100	-0.674144	-0.323065
C24	C	1.587069	-0.962804	-0.580345
C25	C	1.565030	-1.045381	-0.558253
C26	C	1.431414	-1.045518	-0.424443
C27	C	1.453445	-0.962939	-0.446521
C28	C	1.531272	-0.921588	-0.524474
C29	C	1.397648	-0.921724	-0.390649
C30	C	1.419674	-0.839152	-0.412729
C31	C	1.497496	-0.797795	-0.490681
C32	C	1.553298	-0.839017	-0.546554
C33	C	1.319816	-0.963076	-0.312702
C34	C	1.264019	-0.921861	-0.256831
C35	C	1.286050	-0.839287	-0.278905
C36	C	1.363871	-0.797931	-0.356856
C37	C	1.230247	-0.798066	-0.223032
C38	C	1.252273	-0.715494	-0.245112
C39	C	1.385897	-0.715359	-0.378936
C40	C	1.681049	-0.380855	-0.401567
C41	C	1.797201	-0.380861	-0.401574
C42	C	1.408575	-0.380764	-0.674141
C43	C	1.408615	-0.380731	-0.790303
C44	C	1.463690	-0.174615	-0.456783
C45	C	1.487217	-0.086734	-0.480319
C46	C	1.459317	-0.428738	-0.949280
C47	C	1.459278	-0.428772	-0.829221
C48	C	1.408467	-0.380858	-0.130036
C49	C	1.408689	-0.380668	-0.013934
H50	H	1.449280	-0.681690	-0.442406
O51	O	1.518703	-0.717585	-0.512141
C52	C	1.425891	-0.690032	-0.546284
H53	H	1.353003	-0.737652	-0.515635
H54	H	1.427546	-0.675344	-0.636920
C55	C	1.510255	-0.556962	-0.540188
C56	C	1.420732	-0.615448	-0.502537
H57	H	1.507073	-0.510953	-0.513208
H58	H	1.572786	-0.575524	-0.517189
H59	H	1.511624	-0.544731	-0.615717
H60	H	1.419371	-0.627685	-0.427011
H61	H	1.358201	-0.596886	-0.525522
H62	H	1.166873	-0.831747	-0.159570
O63	O	1.048311	-0.283895	-0.556056
C64	C	1.153397	-0.294771	-0.538657
H65	H	1.151870	-0.355766	-0.487955
H66	H	1.196894	-0.247841	-0.495639
C67	C	1.213365	-0.212737	-0.708525
C68	C	1.211491	-0.287655	-0.646259
H69	H	1.249203	-0.208345	-0.774899
H70	H	1.142568	-0.205407	-0.720246
H71	H	1.249611	-0.173638	-0.672664
H72	H	1.175234	-0.326753	-0.682114
H73	H	1.282284	-0.294992	-0.634547
H74	H	1.502628	-0.469923	-0.773670
H75	H	1.206836	-0.681937	-0.199616
H76	H	1.502685	-0.469870	-0.982810
O77	O	1.357040	-0.331518	-0.856547
C78	C	1.400924	-0.252707	-0.851042
H79	H	1.485443	-0.248705	-0.822047
H80	H	1.350361	-0.232013	-0.793308
C81	C	1.299182	-0.204895	-0.997799
C82	C	1.402994	-0.199979	-0.962195
H83	H	1.300455	-0.172368	-1.066361
H84	H	1.269613	-0.257991	-1.001505
H85	H	1.257058	-0.187651	-0.949677
H86	H	1.445112	-0.217232	-1.010308
H87	H	1.432569	-0.146884	-0.958499
H88	H	1.616681	-0.805347	-0.610023
H89	H	0.828324	-0.291778	-0.543502
H90	H	0.830713	-0.421953	-0.336108
O91	O	0.954636	-0.429977	-0.323476
C92	C	0.960137	-0.508815	-0.325030
H93	H	1.038971	-0.510536	-0.364654
H94	H	0.891632	-0.535456	-0.371632
C95	C	0.855371	-0.554508	-0.161581
C96	C	0.952200	-0.556622	-0.210241
H97	H	0.850470	-0.583999	-0.090775
H98	H	0.851661	-0.501393	-0.160535
H99	H	0.798294	-0.576707	-0.200427
H100	H	1.009275	-0.534414	-0.171402
H101	H	0.955919	-0.609734	-0.211277
H102	H	1.365311	-0.339542	-0.980403
H103	H	1.610458	-1.078936	-0.603771
O104	O	1.662670	-0.922751	-0.656138
C105	C	1.707221	-0.976832	-0.700701
H106	H	1.648718	-1.035716	-0.688533
H107	H	1.784277	-0.985587	-0.660168
C108	C	1.802676	-0.872218	-0.835517
C109	C	1.730818	-0.944538	-0.820579
H110	H	1.817237	-0.852297	-0.909462
H111	H	1.772665	-0.835781	-0.805492
H112	H	1.866882	-0.879523	-0.801732
H113	H	1.666610	-0.937230	-0.854352
H114	H	1.760820	-0.980973	-0.850613
O115	O	1.355744	-1.085777	-0.348843
C116	C	1.275455	-1.133527	-0.395505
H117	H	1.308976	-1.145837	-0.471445
H118	H	1.206485	-1.101737	-0.415409
C119	C	1.194469	-1.196883	-0.223736
C120	C	1.235642	-1.212008	-0.317002
H121	H	1.169906	-1.245292	-0.175311
H122	H	1.248558	-1.164711	-0.192298
H123	H	1.136999	-1.170389	-0.240337
H124	H	1.293119	-1.238492	-0.300402
H125	H	1.181561	-1.244186	-0.348435
H126	H	1.301876	-1.030312	-0.294737
O127	O	1.188489	-0.962154	-0.181109
C128	C	1.180991	-1.043873	-0.173619
H129	H	1.258622	-1.055093	-0.204925
H130	H	1.112718	-1.067306	-0.222941
C131	C	1.064813	-1.072545	-0.018073
C132	C	1.160164	-1.086327	-0.056515
H133	H	1.051960	-1.098734	0.054161
H134	H	1.069860	-1.017490	-0.023120
H135	H	1.007929	-1.092073	-0.059184
H136	H	1.217047	-1.066790	-0.015412
H137	H	1.155125	-1.141380	-0.051458
