data_functionalizedCrystal
_audit_creation_method	'MofGen! by Chris Wilmer'
_symmetry_space_group_name_H-M	'P1'
_symmetry_Int_Tables_number	1
_symmetry_cell_setting	triclinic
loop_
_symmetry_equiv_pos_as_xyz
  x,y,z
_cell_length_a	14.044220
_cell_length_b	14.044190
_cell_length_c	10.868271
_cell_angle_alpha	89.990065
_cell_angle_beta	90.000690
_cell_angle_gamma	93.190328
loop_
_atom_site_label
_atom_site_type_symbol
_atom_site_fract_x
_atom_site_fract_y
_atom_site_fract_z
O1	O	1.277174	0.230169	-0.102216
O2	O	1.527174	0.480169	0.147784
O3	O	1.777174	0.730169	0.397784
O4	O	2.027174	0.980169	0.647784
O5	O	1.000502	0.221863	-0.102247
O6	O	1.250502	0.471863	0.147753
O7	O	1.500502	0.721863	0.397753
O8	O	1.750502	0.971863	0.647753
O9	O	1.134681	0.087680	-0.102208
O10	O	1.384681	0.337680	0.147792
O11	O	1.634681	0.587680	0.397792
O12	O	1.884681	0.837680	0.647792
O13	O	1.142994	0.364352	-0.102255
O14	O	1.392994	0.614352	0.147745
O15	O	1.642994	0.864352	0.397745
O16	O	1.892994	1.114352	0.647745
O17	O	1.134669	0.087673	0.102437
O18	O	1.384669	0.337673	0.352437
O19	O	1.634669	0.587673	0.602437
O20	O	1.884669	0.837673	0.852437
O21	O	1.000489	0.221856	0.102398
O22	O	1.250489	0.471856	0.352398
O23	O	1.500489	0.721856	0.602398
O24	O	1.750489	0.971856	0.852398
O25	O	1.277161	0.230162	0.102428
O26	O	1.527161	0.480162	0.352428
O27	O	1.777161	0.730162	0.602428
O28	O	2.027161	0.980162	0.852428
Zn29	Zn	1.138823	0.226008	0.134905
Zn30	Zn	1.388823	0.476008	0.384905
Zn31	Zn	1.638823	0.726008	0.634905
Zn32	Zn	1.888823	0.976008	0.884905
Zn33	Zn	1.138840	0.226017	-0.134723
Zn34	Zn	1.388840	0.476017	0.115277
Zn35	Zn	1.638840	0.726017	0.365277
Zn36	Zn	1.888840	0.976017	0.615277
O37	O	1.142982	0.364346	0.102389
O38	O	1.392982	0.614346	0.352389
O39	O	1.642982	0.864346	0.602389
O40	O	1.892982	1.114346	0.852389
C41	C	0.964874	0.218224	0.000072
C42	C	1.214874	0.468224	0.250072
C43	C	1.464874	0.718224	0.500072
C44	C	1.714874	0.968224	0.750072
C45	C	0.858731	0.207380	0.000062
C46	C	1.108731	0.457380	0.250062
C47	C	1.358731	0.707380	0.500062
C48	C	1.608731	0.957380	0.750062
C49	C	0.664392	0.187553	0.000089
C50	C	0.914392	0.437553	0.250089
C51	C	1.164392	0.687553	0.500089
C52	C	1.414392	0.937553	0.750089
C53	C	0.613264	0.264468	0.000081
C54	C	0.863264	0.514468	0.250081
C55	C	1.113264	0.764468	0.500081
C56	C	1.363264	1.014468	0.750081
C57	C	0.505128	0.253436	0.000097
C58	C	0.755128	0.503436	0.250097
C59	C	1.005128	0.753436	0.500097
C60	C	1.255128	1.003436	0.750097
C61	C	0.772539	0.198583	0.000074
C62	C	1.022539	0.448583	0.250074
C63	C	1.272539	0.698583	0.500074
C64	C	1.522539	0.948583	0.750074
C65	C	1.131039	0.052054	0.000118
C66	C	1.381039	0.302054	0.250118
C67	C	1.631039	0.552054	0.500118
C68	C	1.881039	0.802054	0.750118
C69	C	1.120191	-0.054089	0.000127
C70	C	1.370191	0.195911	0.250127
C71	C	1.620191	0.445911	0.500127
C72	C	1.870191	0.695911	0.750127
C73	C	1.177292	-0.299547	0.000085
C74	C	1.427292	-0.049547	0.250085
C75	C	1.677292	0.200453	0.500085
C76	C	1.927292	0.450453	0.750085
C77	C	1.100375	-0.248422	0.000086
C78	C	1.350375	0.001578	0.250086
C79	C	1.600375	0.251578	0.500086
C80	C	1.850375	0.501578	0.750086
C81	C	1.111404	-0.140285	0.000109
C82	C	1.361404	0.109715	0.250109
C83	C	1.611404	0.359715	0.500109
C84	C	1.861404	0.609715	0.750109
C85	C	1.166265	-0.407694	0.000062
C86	C	1.416265	-0.157694	0.250062
C87	C	1.666265	0.092306	0.500062
C88	C	1.916265	0.342306	0.750062
C89	C	1.312789	0.233801	0.000107
C90	C	1.562789	0.483801	0.250107
C91	C	1.812789	0.733801	0.500107
C92	C	2.062789	0.983801	0.750107
C93	C	1.418932	0.244646	0.000109
C94	C	1.668932	0.494646	0.250109
C95	C	1.918932	0.744646	0.500109
C96	C	2.168932	0.994646	0.750109
C97	C	1.146624	0.399971	0.000061
C98	C	1.396624	0.649971	0.250061
C99	C	1.646624	0.899971	0.500061
C100	C	1.896624	1.149971	0.750061
C101	C	1.157472	0.506114	0.000044
C102	C	1.407472	0.756114	0.250044
C103	C	1.657472	1.006114	0.500044
C104	C	1.907472	1.256114	0.750044
N105	N	1.138819	0.226002	0.318919
N106	N	1.388819	0.476002	0.568919
N107	N	1.638819	0.726002	0.818919
N108	N	1.888819	0.976002	1.068919
N109	N	1.138851	0.226016	-0.318737
N110	N	1.388851	0.476016	-0.068737
N111	N	1.638851	0.726016	0.181263
N112	N	1.888851	0.976016	0.431263
C113	C	1.138835	0.226015	0.569925
C114	C	1.388835	0.476015	0.819925
C115	C	1.638835	0.726015	1.069925
C116	C	1.888835	0.976015	1.319925
C117	C	1.138823	0.226010	0.430248
C118	C	1.388823	0.476010	0.680248
C119	C	1.638823	0.726010	0.930248
C120	C	1.888823	0.976010	1.180248
H121	H	0.650706	0.338602	0.000063
H122	H	0.900706	0.588602	0.250063
H123	H	1.150706	0.838602	0.500063
H124	H	1.400706	1.088602	0.750063
H125	H	0.626954	0.113425	0.000109
H126	H	0.876954	0.363425	0.250109
H127	H	1.126954	0.613425	0.500109
H128	H	1.376954	0.863425	0.750109
H129	H	1.026243	-0.285865	0.000070
H130	H	1.276243	-0.035865	0.250070
H131	H	1.526243	0.214135	0.500070
H132	H	1.776243	0.464135	0.750070
O133	O	1.265657	-0.254735	0.000171
O134	O	1.515657	-0.004735	0.250171
O135	O	1.765657	0.245265	0.500171
O136	O	2.015657	0.495265	0.750171
C137	C	1.257133	-0.155178	0.000161
C138	C	1.507133	0.094822	0.250161
C139	C	1.757133	0.344822	0.500161
C140	C	2.007133	0.594822	0.750161
H141	H	1.184563	-0.138234	0.038888
H142	H	1.434563	0.111766	0.288888
H143	H	1.684563	0.361766	0.538888
H144	H	1.934563	0.611766	0.788888
H145	H	1.264072	-0.127030	-0.098008
H146	H	1.514072	0.122970	0.151992
H147	H	1.764072	0.372970	0.401992
H148	H	2.014072	0.622970	0.651992
C149	C	1.425609	-0.128150	0.032886
C150	C	1.675609	0.121850	0.282886
C151	C	1.925609	0.371850	0.532886
C152	C	2.175609	0.621850	0.782886
C153	C	1.336480	-0.107339	0.080460
C154	C	1.586480	0.142661	0.330460
C155	C	1.836480	0.392661	0.580460
C156	C	2.086480	0.642661	0.830460
H157	H	1.474557	-0.098640	0.082413
H158	H	1.724557	0.151360	0.332413
H159	H	1.974557	0.401360	0.582413
H160	H	2.224557	0.651360	0.832413
H161	H	1.431354	-0.195224	0.032888
H162	H	1.681354	0.054776	0.282888
H163	H	1.931354	0.304776	0.532888
H164	H	2.181354	0.554776	0.782888
H165	H	1.431379	-0.104693	-0.048921
H166	H	1.681379	0.145307	0.201079
H167	H	1.931379	0.395307	0.451079
H168	H	2.181379	0.645307	0.701079
H169	H	1.330708	-0.130807	0.162260
H170	H	1.580708	0.119193	0.412260
H171	H	1.830708	0.369193	0.662260
H172	H	2.080708	0.619193	0.912260
H173	H	1.330737	-0.040268	0.080474
H174	H	1.580737	0.209732	0.330474
H175	H	1.830737	0.459732	0.580474
H176	H	2.080737	0.709732	0.830474
