data_functionalizedCrystal
_audit_creation_method	'MofGen! by Chris Wilmer'
_symmetry_space_group_name_H-M	'P1'
_symmetry_Int_Tables_number	1
_symmetry_cell_setting	triclinic
loop_
_symmetry_equiv_pos_as_xyz
  x,y,z
_cell_length_a	27.731988
_cell_length_b	14.519709
_cell_length_c	12.996460
_cell_angle_alpha	90.007090
_cell_angle_beta	89.993711
_cell_angle_gamma	83.149253
loop_
_atom_site_label
_atom_site_type_symbol
_atom_site_fract_x
_atom_site_fract_y
_atom_site_fract_z
O1	O	-0.641470	-0.109471	-0.085284
O2	O	-0.500752	-0.126213	-0.085349
O3	O	-0.574842	0.016462	-0.085306
O4	O	-0.567380	-0.252147	-0.085328
O5	O	-0.574834	0.016470	0.085828
O6	O	-0.500745	-0.126206	0.085785
O7	O	-0.641462	-0.109464	0.085850
Cu8	Cu	-0.571103	-0.117834	0.101443
Cu9	Cu	-0.571112	-0.117843	-0.100942
O10	O	-0.567373	-0.252140	0.085806
C11	C	-0.482739	-0.125867	0.000210
C12	C	-0.429078	-0.124834	0.000185
N13	N	-0.571100	-0.117827	0.243790
C14	C	-0.045885	-0.117352	-0.093054
C15	C	-0.247562	-0.121289	-0.093080
O16	O	-0.273641	-0.121764	-0.172417
N17	N	-0.272781	-0.121777	0.000203
C18	C	-0.247577	-0.121275	0.093500
O19	O	-0.273655	-0.121772	0.172842
C20	C	-0.045902	-0.117332	0.093524
C21	C	-0.020685	-0.116853	0.000235
C22	C	-0.020669	-0.116872	-0.186336
C23	C	0.029748	-0.115893	-0.186328
C24	C	0.054948	-0.115394	-0.093039
C25	C	0.029731	-0.115874	0.000242
C26	C	-0.020700	-0.116824	0.186819
C27	C	0.029722	-0.115835	0.186817
C28	C	0.054939	-0.115356	0.093528
C29	C	0.105348	-0.114396	0.093539
N30	N	0.130566	-0.113908	0.000256
C31	C	0.105366	-0.114407	-0.093034
C32	C	-0.353460	-0.123347	0.093480
C33	C	-0.403878	-0.124335	0.093474
C34	C	-0.403860	-0.124347	-0.093106
C35	C	-0.353440	-0.123366	-0.093099
C36	C	-0.328241	-0.122859	0.000197
C37	C	0.211244	-0.112352	-0.093011
C38	C	0.261666	-0.111376	-0.092995
C39	C	0.261643	-0.111360	0.093584
C40	C	0.211226	-0.112340	0.093569
C41	C	0.186028	-0.112833	0.000263
O42	O	0.131457	-0.113910	0.172834
O43	O	0.131452	-0.113890	-0.172364
C44	C	-0.096302	-0.118331	-0.093061
C45	C	-0.121518	-0.118811	0.000220
C46	C	-0.096318	-0.118312	0.093509
C47	C	-0.171937	-0.119799	0.000214
C48	C	-0.197137	-0.120298	-0.093075
C49	C	-0.171918	-0.119810	-0.186358
C50	C	-0.121502	-0.118830	-0.186351
C51	C	-0.121537	-0.118801	0.186793
C52	C	-0.171953	-0.119781	0.186778
C53	C	-0.197153	-0.120280	0.093489
C54	C	-0.574490	0.050820	0.000261
C55	C	-0.573448	0.153183	0.000261
C56	C	0.340525	-0.109819	0.000286
C57	C	0.286866	-0.110877	0.000294
C58	C	-0.567724	-0.286497	0.000237
C59	C	-0.568766	-0.388860	0.000230
C60	C	-0.569612	0.528010	0.000233
C61	C	-0.570677	0.423721	0.000241
C62	C	-0.571530	0.340600	0.000248
C63	C	-0.572596	0.236304	0.000255
N64	N	-0.571119	-0.117843	-0.243289
C65	C	-0.571111	-0.117844	0.663605
C66	C	-0.571107	-0.117842	0.546799
C67	C	-0.571106	-0.117836	0.453701
C68	C	-0.571101	-0.117833	0.336889
H69	H	0.282195	-0.110989	-0.168966
O70	O	0.056939	-0.115368	-0.286952
H71	H	0.096234	-0.114607	-0.271292
O72	O	-0.094331	-0.118310	0.287386
H73	H	-0.108246	-0.055635	0.332178
O74	O	0.184069	-0.112877	-0.193644
H75	H	0.165351	-0.176198	-0.198117
O76	O	-0.326244	-0.122820	-0.193715
H77	H	-0.352244	-0.123322	-0.258580
O78	O	0.184023	-0.112866	0.194182
H79	H	0.189438	-0.049792	0.238915
H80	H	0.282170	-0.110957	0.169537
O81	O	-0.431044	-0.124868	-0.193729
H82	H	-0.470340	-0.125624	-0.178051
H83	H	-0.041182	-0.117276	-0.262307
O84	O	-0.199109	-0.120341	-0.286974
H85	H	-0.185180	-0.183037	-0.331717
O86	O	-0.431072	-0.124882	0.194092
H87	H	-0.405074	-0.124367	0.258957
H88	H	-0.332948	-0.122932	0.169457
O89	O	-0.047889	-0.117366	0.287439
H90	H	-0.021888	-0.116852	0.352299
O91	O	0.056997	-0.115413	0.287337
H92	H	0.043144	-0.052762	0.332232
O93	O	-0.094309	-0.118279	-0.286969
H94	H	-0.120310	-0.118772	-0.351831
O95	O	-0.199148	-0.120319	0.287403
H96	H	-0.173150	-0.119806	0.352268
