data_functionalizedCrystal
_audit_creation_method	'MofGen! by Chris Wilmer'
_symmetry_space_group_name_H-M	'P1'
_symmetry_Int_Tables_number	1
_symmetry_cell_setting	triclinic
loop_
_symmetry_equiv_pos_as_xyz
  x,y,z
_cell_length_a	12.811445
_cell_length_b	12.837938
_cell_length_c	17.766277
_cell_angle_alpha	90.002635
_cell_angle_beta	84.559227
_cell_angle_gamma	90.586919
loop_
_atom_site_label
_atom_site_type_symbol
_atom_site_fract_x
_atom_site_fract_y
_atom_site_fract_z
O1	O	1.406667	-0.139722	-0.158603
O2	O	1.906667	0.360278	0.341397
O3	O	1.102598	-0.154903	-0.137849
O4	O	1.602598	0.345097	0.362151
O5	O	1.247891	0.003619	-0.147766
O6	O	1.747891	0.503619	0.352234
O7	O	1.261374	-0.298245	-0.148686
O8	O	1.761374	0.201755	0.351314
O9	O	1.247861	0.003628	-0.022576
O10	O	1.747861	0.503628	0.477424
O11	O	1.102569	-0.154895	-0.012659
O12	O	1.602569	0.345105	0.487341
O13	O	1.406637	-0.139714	-0.033413
O14	O	1.906637	0.360286	0.466587
Cu15	Cu	1.254601	-0.147304	-0.011605
Cu16	Cu	1.754601	0.352696	0.488395
Cu17	Cu	1.254635	-0.147313	-0.159657
Cu18	Cu	1.754635	0.352687	0.340343
O19	O	1.261345	-0.298237	-0.023496
O20	O	1.761345	0.201763	0.476504
C21	C	1.063394	-0.154047	-0.072579
C22	C	1.563394	0.345953	0.427421
C23	C	0.946620	-0.151495	-0.064609
C24	C	1.446620	0.348505	0.435391
C25	C	0.727218	-0.146729	-0.186130
C26	C	1.227218	0.353271	0.313870
C27	C	0.617499	-0.144332	-0.178644
C28	C	1.117499	0.355668	0.321356
C29	C	0.617459	-0.144312	-0.042154
C30	C	1.117459	0.355688	0.457846
C31	C	0.727179	-0.146709	-0.049640
C32	C	1.227179	0.353291	0.450360
C33	C	0.782055	-0.147916	-0.121630
C34	C	1.282055	0.352084	0.378370
C35	C	0.891776	-0.150306	-0.129114
C36	C	1.391776	0.349694	0.370886
C37	C	0.891735	-0.150292	0.007375
C38	C	1.391735	0.349708	0.507375
C39	C	0.782015	-0.147895	0.014860
C40	C	1.282015	0.352105	0.514860
C41	C	1.243321	0.042264	-0.084862
C42	C	1.743321	0.542264	0.415138
C43	C	1.229735	0.157400	-0.083940
C44	C	1.729735	0.657400	0.416060
C45	C	1.393067	0.397650	-0.095111
C46	C	1.893067	0.897650	0.404889
C47	C	1.380306	0.505831	-0.094245
C48	C	1.880306	1.005831	0.405755
C49	C	1.191455	0.481946	-0.081347
C50	C	1.691455	0.981946	0.418653
C51	C	1.204215	0.373764	-0.082213
C52	C	1.704215	0.873764	0.417787
C53	C	1.305024	0.331621	-0.089094
C54	C	1.805024	0.831621	0.410906
C55	C	1.317784	0.223437	-0.089955
C56	C	1.817784	0.723437	0.410045
C57	C	1.128933	0.199554	-0.077062
C58	C	1.628933	0.699554	0.422938
C59	C	1.116173	0.307735	-0.076196
C60	C	1.616173	0.807735	0.423804
C61	C	1.445842	-0.140570	-0.098684
C62	C	1.945842	0.359430	0.401316
C63	C	1.562616	-0.143122	-0.106659
C64	C	2.062616	0.356878	0.393341
N65	N	1.254584	-0.147296	0.092527
N66	N	1.754584	0.352704	0.592527
C67	C	1.265916	0.663119	-0.086410
C68	C	1.765916	1.163119	0.413590
C69	C	1.279504	0.547983	-0.087362
C70	C	1.779504	1.047983	0.412638
N71	N	1.254659	-0.147313	-0.263789
N72	N	1.754659	0.352687	0.236211
C73	C	1.318946	-0.077137	0.127520
C74	C	1.818946	0.422863	0.627520
C75	C	1.318952	-0.077132	0.206322
C76	C	1.818952	0.422868	0.706322
C77	C	1.254607	-0.147305	0.250126
C78	C	1.754607	0.352695	0.750126
C79	C	1.190232	-0.217469	0.215123
C80	C	1.690232	0.282531	0.715123
C81	C	1.190221	-0.217465	0.136324
C82	C	1.690221	0.282535	0.636324
C83	C	1.250295	-0.241695	0.375258
C84	C	1.750295	0.258305	0.875258
C85	C	1.250314	-0.241701	0.454056
C86	C	1.750314	0.258299	0.954056
C87	C	1.254636	-0.147317	0.493170
C88	C	1.754636	0.352683	0.993170
C89	C	1.258962	-0.052924	0.453476
C90	C	1.758962	0.447076	0.953476
C91	C	1.258950	-0.052920	0.374676
C92	C	1.758950	0.447080	0.874676
C93	C	1.254612	-0.147317	0.335571
C94	C	1.754612	0.352683	0.835571
C95	C	1.319008	-0.077147	0.613609
C96	C	1.819008	0.422853	1.113609
C97	C	1.319006	-0.077141	0.692412
C98	C	1.819006	0.422859	1.192412
C99	C	1.190292	-0.217487	0.701212
C100	C	1.690292	0.282513	1.201212
C101	C	1.190288	-0.217484	0.622410
C102	C	1.690288	0.282516	1.122410
C103	C	1.254652	-0.147315	0.578613
C104	C	1.754652	0.352685	1.078613
H105	H	0.936394	-0.151257	0.059896
H106	H	1.436394	0.348743	0.559896
C107	C	1.119464	-0.294694	0.097826
C108	C	1.619464	0.205306	0.597826
N109	N	1.066189	-0.352881	0.068828
N110	N	1.566189	0.147119	0.568828
H111	H	0.737320	-0.146916	0.073473
H112	H	1.237320	0.353084	0.573473
C113	C	1.389797	0.000048	0.565430
C114	C	1.889797	0.500048	1.065430
N115	N	1.443115	0.058195	0.529144
N116	N	1.943115	0.558195	1.029144
C117	C	1.119568	-0.294741	0.583910
C118	C	1.619568	0.205259	1.083910
N119	N	1.066323	-0.352958	0.554911
N120	N	1.566323	0.147042	1.054911
C121	C	1.428675	0.177081	-0.097527
C122	C	1.928675	0.677081	0.402473
N123	N	1.512201	0.142169	-0.103233
N124	N	2.012201	0.642169	0.396767
C125	C	1.080573	0.528324	-0.073771
C126	C	1.580573	1.028324	0.426229
N127	N	0.997056	0.563257	-0.068060
N128	N	1.497056	1.063257	0.431940
C129	C	1.389737	0.000061	0.079349
C130	C	1.889737	0.500061	0.579349
N131	N	1.443053	0.058210	0.043065
N132	N	1.943053	0.558210	0.543065
H133	H	1.057242	0.145781	-0.072157
H134	H	1.557242	0.645781	0.427843
H135	H	0.572760	-0.143338	0.016457
H136	H	1.072760	0.356662	0.516457
H137	H	1.034096	0.342064	-0.070597
H138	H	1.534096	0.842064	0.429403
H139	H	1.371364	-0.019998	0.234819
H140	H	1.871364	0.480002	0.734819
H141	H	0.771899	-0.147707	-0.244747
H142	H	1.271899	0.352293	0.255253
C143	C	1.263694	0.050910	0.331016
C144	C	1.763694	0.550910	0.831016
N145	N	1.267261	0.129117	0.298132
N146	N	1.767261	0.629117	0.798132
H147	H	1.475149	0.363336	-0.100707
H148	H	1.975149	0.863336	0.399293
H149	H	1.137840	-0.274603	0.250792
H150	H	1.637840	0.225397	0.750792
H151	H	0.936455	-0.151288	-0.187732
H152	H	1.436455	0.348712	0.312268
C153	C	1.263714	0.050906	0.496495
C154	C	1.763714	0.550906	0.996495
N155	N	1.267294	0.129108	0.528901
N156	N	1.767294	0.629108	1.028901
H157	H	1.371413	-0.020003	0.720905
H158	H	1.871413	0.479997	1.220905
H159	H	1.137897	-0.274618	0.736877
H160	H	1.637897	0.225382	1.236877
C161	C	0.557183	-0.143020	-0.249600
C162	C	1.057183	0.356980	0.250400
N163	N	0.511754	-0.142031	-0.303047
N164	N	1.011754	0.357969	0.196953
H165	H	1.452000	0.559589	-0.099147
H166	H	1.952000	1.059589	0.400853
H167	H	1.246799	-0.318561	0.486368
H168	H	1.746799	0.181439	0.986368
C169	C	1.245540	-0.345531	0.332240
C170	C	1.745540	0.154469	0.832240
N171	N	1.241959	-0.423738	0.299840
N172	N	1.741959	0.076262	0.799840
