data_functionalizedCrystal
_audit_creation_method	'MofGen! by Chris Wilmer'
_symmetry_space_group_name_H-M	'P1'
_symmetry_Int_Tables_number	1
_symmetry_cell_setting	triclinic
loop_
_symmetry_equiv_pos_as_xyz
  x,y,z
_cell_length_a	10.489741
_cell_length_b	14.044220
_cell_length_c	12.503552
_cell_angle_alpha	86.160109
_cell_angle_beta	86.444084
_cell_angle_gamma	91.135974
loop_
_atom_site_label
_atom_site_type_symbol
_atom_site_fract_x
_atom_site_fract_y
_atom_site_fract_z
O1	O	0.300997	-1.265226	0.089205
O2	O	0.800997	-0.765226	0.589205
O3	O	0.289890	-0.989183	0.089232
O4	O	0.789890	-0.489183	0.589232
O5	O	0.110483	-1.133486	0.089212
O6	O	0.610483	-0.633486	0.589212
O7	O	0.480403	-1.120924	0.089226
O8	O	0.980403	-0.620924	0.589226
O9	O	0.123987	-1.122621	-0.089429
O10	O	0.623987	-0.622621	0.410571
O11	O	0.303394	-0.978318	-0.089409
O12	O	0.803394	-0.478318	0.410591
O13	O	0.314501	-1.254362	-0.089436
O14	O	0.814501	-0.754362	0.410564
Cu15	Cu	0.310180	-1.115348	-0.105734
Cu16	Cu	0.810180	-0.615348	0.394266
Cu17	Cu	0.294210	-1.128197	0.105530
Cu18	Cu	0.794210	-0.628197	0.605530
O19	O	0.493907	-1.110059	-0.089415
O20	O	0.993907	-0.610059	0.410585
C21	C	0.291780	-0.948403	-0.000085
C22	C	0.791780	-0.448403	0.499915
C23	C	0.277280	-0.843079	-0.000074
C24	C	0.777280	-0.343079	0.499926
C25	C	0.069607	-1.127104	-0.000108
C26	C	0.569607	-0.627104	0.499892
C27	C	-0.072311	-1.124266	-0.000106
C28	C	0.427689	-0.624266	0.499894
C29	C	0.312610	-1.295142	-0.000116
C30	C	0.812610	-0.795142	0.499884
C31	C	0.327110	-1.400466	-0.000120
C32	C	0.827110	-0.900466	0.499880
C33	C	-0.149764	-1.032451	-0.000089
C34	C	0.350236	-0.532451	0.499911
C35	C	-0.230829	-1.070467	-0.088172
C36	C	0.269171	-0.570467	0.411828
C37	C	-0.244116	-1.081200	0.087954
C38	C	0.255884	-0.581200	0.587954
C39	C	-0.151501	-1.162315	-0.088262
C40	C	0.348499	-0.662315	0.411738
C41	C	-0.164785	-1.173041	0.087943
C42	C	0.335215	-0.673041	0.587943
C43	C	-0.245814	-1.211122	-0.000162
C44	C	0.254186	-0.711122	0.499838
C45	C	0.534783	-1.116440	-0.000093
C46	C	1.034783	-0.616440	0.499907
C47	C	0.676700	-1.119279	-0.000088
C48	C	1.176700	-0.619279	0.499912
N49	N	0.321413	-1.106317	-0.254325
N50	N	0.821413	-0.606317	0.245675
C51	C	0.250773	-0.650235	-0.000097
C52	C	0.750773	-0.150235	0.499903
C53	C	0.353611	-0.593304	-0.000097
C54	C	0.853611	-0.093304	0.499903
C55	C	0.338862	-0.485999	-0.000110
C56	C	0.838862	0.014001	0.499890
C57	C	0.265520	-0.757550	-0.000084
C58	C	0.765520	-0.257550	0.499916
C59	C	0.266441	-1.150514	-0.526764
C60	C	0.766441	-0.650514	-0.026764
C61	C	0.337937	-1.093041	-0.473432
C62	C	0.837937	-0.593041	0.026568
C63	C	0.328740	-1.100430	-0.351510
C64	C	0.828740	-0.600430	0.148490
C65	C	0.275635	-1.143126	-0.648698
C66	C	0.775635	-0.643126	-0.148698
N67	N	0.282969	-1.137235	0.254122
N68	N	0.782969	-0.637235	0.754122
H69	H	-0.107764	-0.956955	-0.000170
H70	H	0.392236	-0.456955	0.499830
Cl71	Cl	0.443108	-1.008510	-0.544308
Cl72	Cl	0.943108	-0.508510	-0.044308
Cl73	Cl	0.161283	-1.235047	-0.455893
Cl74	Cl	0.661283	-0.735047	0.044107
H75	H	0.151662	-0.618389	-0.000106
H76	H	0.651662	-0.118389	0.499894
H77	H	-0.260152	-1.027088	-0.162633
H78	H	0.239848	-0.527088	0.337367
Cl79	Cl	0.506645	-0.642471	-0.000085
Cl80	Cl	1.006645	-0.142471	0.499915
Cl81	Cl	-0.089128	-1.215246	-0.203364
Cl82	Cl	0.410872	-0.715246	0.296636
H83	H	-0.135432	-1.216386	0.162408
H84	H	0.364568	-0.716386	0.662408
Cl85	Cl	-0.310289	-1.327772	-0.000245
Cl86	Cl	0.189711	-0.827772	0.499755
H87	H	-0.284651	-1.046869	0.162429
H88	H	0.215349	-0.546869	0.662429
