data_functionalizedCrystal
_audit_creation_method	'MofGen! by Chris Wilmer'
_symmetry_space_group_name_H-M	'P1'
_symmetry_Int_Tables_number	1
_symmetry_cell_setting	triclinic
loop_
_symmetry_equiv_pos_as_xyz
  x,y,z
_cell_length_a	11.792241
_cell_length_b	17.699083
_cell_length_c	16.176319
_cell_angle_alpha	89.998611
_cell_angle_beta	90.006929
_cell_angle_gamma	96.261785
loop_
_atom_site_label
_atom_site_type_symbol
_atom_site_fract_x
_atom_site_fract_y
_atom_site_fract_z
O1	O	0.143527	-1.004844	0.068631
O2	O	0.162200	-0.784565	0.068658
O3	O	-0.012371	-0.900050	0.068638
O4	O	0.318098	-0.889359	0.068651
O5	O	-0.012382	-0.900034	-0.068855
O6	O	0.162189	-0.784549	-0.068835
O7	O	0.143516	-1.004828	-0.068862
Cu8	Cu	0.152851	-0.894687	-0.081403
Cu9	Cu	0.152865	-0.894706	0.081199
O10	O	0.318087	-0.889343	-0.068842
C11	C	-0.054660	-0.899370	-0.000108
C12	C	-0.180649	-0.897360	-0.000107
C13	C	0.161525	-0.756356	-0.000085
C14	C	0.159518	-0.672328	-0.000075
C15	C	0.144190	-1.033036	-0.000117
C16	C	0.146198	-1.117065	-0.000122
C17	C	-0.411317	-0.893664	-0.000093
C18	C	-0.282956	-0.895718	-0.000101
C19	C	0.360375	-0.890022	-0.000094
C20	C	0.486365	-0.892032	-0.000090
N21	N	0.152841	-0.894679	-0.195768
C22	C	0.261988	-0.624253	-0.000071
C23	C	0.260095	-0.545299	-0.000082
C24	C	0.155731	-0.514422	-0.000091
C25	C	0.053254	-0.562503	-0.000097
C26	C	0.055148	-0.641455	-0.000092
C27	C	0.045613	-0.244099	-0.000118
C28	C	0.043727	-0.165141	-0.000120
C29	C	0.250560	-0.147944	-0.000108
C30	C	0.252454	-0.226896	-0.000103
C31	C	0.149977	-0.274970	-0.000113
C32	C	0.152031	-0.360580	-0.000103
C33	C	0.153676	-0.428814	-0.000095
C34	C	0.075573	-0.945831	-0.239041
C35	C	0.075572	-0.945835	-0.325588
C36	C	0.152845	-0.894690	-0.368861
C37	C	0.230118	-0.843532	-0.325582
C38	C	0.230113	-0.843525	-0.239036
C39	C	0.230139	-0.843558	-0.674610
C40	C	0.230140	-0.843570	-0.761161
C41	C	0.075598	-0.945868	-0.761162
C42	C	0.075593	-0.945861	-0.674617
C43	C	0.152861	-0.894701	-0.631345
C44	C	0.152860	-0.894697	-0.537501
C45	C	0.152853	-0.894697	-0.462703
N46	N	0.152865	-0.894720	0.195564
H47	H	0.346973	-0.649386	-0.000064
O48	O	-0.055371	-0.693313	-0.000093
H49	H	-0.128261	-0.658580	-0.000093
H50	H	0.012653	-0.987483	-0.203814
O51	O	-0.064915	-0.295941	-0.000123
H52	H	-0.046074	-0.356030	-0.000128
O53	O	0.313483	-0.788388	-0.627942
H54	H	0.367225	-0.752833	-0.672575
O55	O	-0.068841	-0.131834	-0.000143
H56	H	-0.139783	-0.178526	-0.000161
O57	O	-0.059315	-0.529206	-0.000109
H58	H	-0.043419	-0.466229	-0.000104
O59	O	-0.007747	-1.001020	-0.372265
H60	H	-0.061464	-1.036594	-0.327635
O61	O	-0.007757	-1.001020	-0.627942
H62	H	-0.061498	-1.036586	-0.672573
O63	O	0.313438	-0.788340	-0.192363
H64	H	0.300439	-0.796917	-0.124913
H65	H	0.012679	-0.987523	-0.796403
O66	O	0.313510	-0.788411	-0.807830
H67	H	0.299163	-0.729348	-0.791243
O68	O	0.370614	-0.493444	-0.000078
H69	H	0.443502	-0.528179	-0.000062
O70	O	0.365016	-0.260201	-0.000106
H71	H	0.435954	-0.213506	-0.000117
H72	H	0.293032	-0.801884	-0.360819
H73	H	0.334002	-0.108792	-0.000103
