data_functionalizedCrystal
_audit_creation_method	'MofGen! by Chris Wilmer'
_symmetry_space_group_name_H-M	'P1'
_symmetry_Int_Tables_number	1
_symmetry_cell_setting	triclinic
loop_
_symmetry_equiv_pos_as_xyz
  x,y,z
_cell_length_a	12.811445
_cell_length_b	12.811415
_cell_length_c	17.766277
_cell_angle_alpha	84.562803
_cell_angle_beta	84.559227
_cell_angle_gamma	83.528277
loop_
_atom_site_label
_atom_site_type_symbol
_atom_site_fract_x
_atom_site_fract_y
_atom_site_fract_z
O1	O	1.393312	0.141414	-0.167348
O2	O	1.893312	0.641414	0.332652
O3	O	1.087792	0.156778	-0.147544
O4	O	1.587792	0.656778	0.352456
O5	O	1.248236	-0.003663	-0.147540
O6	O	1.748236	0.496337	0.352460
O7	O	1.232867	0.301855	-0.167352
O8	O	1.732867	0.801855	0.332648
O9	O	1.248208	-0.003672	-0.022349
O10	O	1.748208	0.496328	0.477651
O11	O	1.087764	0.156770	-0.022353
O12	O	1.587764	0.656770	0.477647
O13	O	1.393283	0.141405	-0.042157
O14	O	1.893283	0.641405	0.457843
Cu15	Cu	1.240521	0.149087	-0.020824
Cu16	Cu	1.740521	0.649087	0.479176
Cu17	Cu	1.240554	0.149097	-0.168877
Cu18	Cu	1.740554	0.649097	0.331123
O19	O	1.232839	0.301847	-0.042161
O20	O	1.732839	0.801847	0.457839
C21	C	1.048670	0.155912	-0.082221
C22	C	1.548670	0.655912	0.417779
C23	C	0.932140	0.153329	-0.074091
C24	C	1.432140	0.653329	0.425909
C25	C	0.713194	0.148506	-0.195313
C26	C	1.213194	0.648506	0.304687
C27	C	0.603703	0.146080	-0.187678
C28	C	1.103703	0.646080	0.312322
C29	C	0.603666	0.146059	-0.051186
C30	C	1.103666	0.646059	0.448814
C31	C	0.713156	0.148485	-0.058822
C32	C	1.213156	0.648485	0.441178
C33	C	0.767916	0.149706	-0.130887
C34	C	1.267916	0.649706	0.369113
C35	C	0.877410	0.152125	-0.138521
C36	C	1.377410	0.652125	0.361479
C37	C	0.877369	0.152112	-0.002031
C38	C	1.377369	0.652112	0.497969
C39	C	0.767879	0.149686	0.005604
C40	C	1.267879	0.649686	0.505604
C41	C	1.247360	-0.042775	-0.082217
C42	C	1.747360	0.457225	0.417783
C43	C	1.244780	-0.159305	-0.074089
C44	C	1.744780	0.340695	0.425911
C45	C	1.239942	-0.378257	-0.195312
C46	C	1.739942	0.121743	0.304688
C47	C	1.237517	-0.487747	-0.187679
C48	C	1.737517	0.012253	0.312321
C49	C	1.237497	-0.487777	-0.051188
C50	C	1.737497	0.012223	0.448812
C51	C	1.239922	-0.378287	-0.058822
C52	C	1.739922	0.121713	0.441178
C53	C	1.241146	-0.323531	-0.130886
C54	C	1.741146	0.176469	0.369114
C55	C	1.243578	-0.214039	-0.138520
C56	C	1.743578	0.285961	0.361480
C57	C	1.243551	-0.214070	-0.002029
C58	C	1.743551	0.285930	0.497971
C59	C	1.241126	-0.323561	0.005604
C60	C	1.741126	0.176439	0.505604
C61	C	1.432406	0.142272	-0.107482
C62	C	1.932406	0.642272	0.392518
C63	C	1.548936	0.144854	-0.115617
C64	C	2.048936	0.644854	0.384383
C65	C	1.233715	0.340959	-0.107486
C66	C	1.733715	0.840959	0.392514
C67	C	1.236296	0.457489	-0.115619
C68	C	1.736296	0.957489	0.384381
N69	N	1.240505	0.149079	0.083308
N70	N	1.740505	0.649079	0.583308
N71	N	1.240579	0.149096	-0.273009
N72	N	1.740579	0.649096	0.226991
C73	C	1.311573	0.078071	0.122693
C74	C	1.811573	0.578071	0.622693
C75	C	1.311579	0.078066	0.201494
C76	C	1.811579	0.578066	0.701494
C77	C	1.240527	0.149088	0.240906
C78	C	1.740527	0.649088	0.740906
C79	C	1.169446	0.220102	0.201512
C80	C	1.669446	0.720102	0.701512
C81	C	1.169435	0.220097	0.122713
C82	C	1.669435	0.720097	0.622713
C83	C	1.227193	0.244621	0.360131
C84	C	1.727193	0.744621	0.860131
C85	C	1.227211	0.244627	0.438928
C86	C	1.727211	0.744627	0.938928
C87	C	1.240555	0.149101	0.483950
C88	C	1.740555	0.649101	0.983950
C89	C	1.253903	0.053565	0.450163
C90	C	1.753903	0.553565	0.950163
C91	C	1.253892	0.053561	0.371364
C92	C	1.753892	0.553561	0.871364
C93	C	1.240531	0.149100	0.326351
C94	C	1.740531	0.649100	0.826351
C95	C	1.311634	0.078081	0.608781
C96	C	1.811634	0.578081	1.108781
C97	C	1.311632	0.078075	0.687584
C98	C	1.811632	0.578075	1.187584
C99	C	1.169504	0.220119	0.687600
C100	C	1.669504	0.720119	1.187600
C101	C	1.169501	0.220117	0.608799
C102	C	1.669501	0.720117	1.108799
C103	C	1.240571	0.149099	0.569393
C104	C	1.740571	0.649099	1.069393
H105	H	0.757781	0.149495	-0.253991
H106	H	1.257781	0.649495	0.246009
H107	H	1.244536	-0.169501	0.050431
H108	H	1.744536	0.330499	0.550431
H109	H	1.111593	0.277927	0.233606
H110	H	1.611593	0.777927	0.733606
Br111	Br	0.529438	0.144457	-0.275117
Br112	Br	1.029438	0.644457	0.224883
Br113	Br	0.693551	0.148036	0.103402
Br114	Br	1.193551	0.648036	0.603402
H115	H	0.921936	0.153088	0.050429
H116	H	1.421936	0.653088	0.550429
Br117	Br	1.239452	-0.397880	0.103402
Br118	Br	1.739452	0.102120	0.603402
Br119	Br	1.245246	-0.139729	-0.236320
Br120	Br	1.745246	0.360271	0.263680
Br121	Br	1.408081	-0.018303	0.555300
Br122	Br	1.908081	0.481697	1.055300
Br123	Br	1.241624	-0.303942	-0.293112
Br124	Br	1.741624	0.196058	0.206888
H125	H	1.369440	0.020242	0.090611
H126	H	1.869440	0.520242	0.590611
H127	H	1.216350	0.322417	0.466431
H128	H	1.716350	0.822417	0.966431
H129	H	1.236532	-0.532300	-0.240141
H130	H	1.736532	-0.032300	0.259859
H131	H	0.921994	0.153119	-0.197201
H132	H	1.421994	0.653119	0.302799
Br133	Br	1.235798	-0.562102	0.046608
Br134	Br	1.735798	-0.062102	0.546608
Br135	Br	1.408035	-0.018312	0.254955
Br136	Br	1.908035	0.481688	0.754955
H137	H	1.264757	-0.024227	0.343858
H138	H	1.764757	0.475773	0.843858
Br139	Br	1.272027	-0.076087	0.511253
Br140	Br	1.772027	0.423913	1.011253
Br141	Br	1.408080	-0.018310	0.741041
Br142	Br	1.908080	0.481690	1.241041
Br143	Br	0.529327	0.144425	0.046607
Br144	Br	1.029327	0.644425	0.546607
Br145	Br	1.073065	0.316496	0.741082
Br146	Br	1.573065	0.816496	1.241082
Br147	Br	1.073050	0.316493	0.555341
Br148	Br	1.573050	0.816493	1.055341
H149	H	1.216309	0.322415	0.323481
H150	H	1.716309	0.822415	0.823481
H151	H	1.111561	0.277922	0.090645
H152	H	1.611561	0.777922	0.590645
