data_functionalizedCrystal
_audit_creation_method	'MofGen! by Chris Wilmer'
_symmetry_space_group_name_H-M	'P1'
_symmetry_Int_Tables_number	1
_symmetry_cell_setting	triclinic
loop_
_symmetry_equiv_pos_as_xyz
  x,y,z
_cell_length_a	10.540539
_cell_length_b	15.995350
_cell_length_c	9.616153
_cell_angle_alpha	89.999971
_cell_angle_beta	89.995174
_cell_angle_gamma	84.008933
loop_
_atom_site_label
_atom_site_type_symbol
_atom_site_fract_x
_atom_site_fract_y
_atom_site_fract_z
O1	O	1.684270	0.117994	-0.115573
O2	O	1.314705	0.129112	-0.115589
O3	O	1.509590	0.001726	-0.115579
O4	O	1.489385	0.245380	-0.115583
O5	O	1.509563	0.001729	0.115712
O6	O	1.314678	0.129115	0.115702
O7	O	1.684244	0.117997	0.115719
Zn8	Zn	1.499457	0.123556	0.152433
Zn9	Zn	1.499492	0.123553	-0.152303
O10	O	1.489359	0.245383	0.115709
C11	C	1.267400	0.128280	0.000055
C12	C	1.126486	0.125785	0.000048
C13	C	0.944373	0.030202	0.000589
C14	C	1.090956	0.032730	0.000054
C15	C	1.064213	0.170565	-0.132026
C16	C	0.917712	0.167390	-0.132122
C17	C	0.917167	0.169286	0.130899
C18	C	1.064138	0.170143	0.132630
C19	C	1.508741	-0.029472	0.000064
C20	C	1.506237	-0.122438	0.000056
C21	C	1.497244	-0.460239	0.000060
C22	C	1.358450	-0.413635	-0.000465
C23	C	1.360955	-0.316930	0.000057
C24	C	1.501705	-0.292652	0.000057
C25	C	1.570147	-0.333318	0.132137
C26	C	1.566661	-0.429975	0.132247
C27	C	1.569558	-0.430319	-0.130774
C28	C	1.569525	-0.333374	-0.132520
C29	C	1.504233	-0.197939	0.000060
C30	C	1.494719	-0.554952	0.000067
C31	C	1.731549	0.118829	0.000072
C32	C	1.872462	0.121324	0.000070
C33	C	1.490207	0.276581	0.000063
C34	C	1.492711	0.369547	0.000062
N35	N	1.499442	0.123558	0.360408
N36	N	1.499517	0.123544	-0.360278
C37	C	1.394879	0.191473	0.580772
C38	C	1.395104	0.191727	0.419605
C39	C	1.631892	0.143433	0.418863
C40	C	1.631321	0.143914	0.580081
C41	C	1.472879	0.035546	0.580319
C42	C	1.469825	0.036116	0.419092
H43	H	1.105538	0.137429	0.230339
Br44	Br	1.230984	0.171853	0.353729
H45	H	1.133200	-0.002755	-0.094786
Br46	Br	1.490885	-0.286490	0.295963
Br47	Br	1.102949	0.283224	0.145922
H48	H	1.378403	0.016630	0.621052
H49	H	1.671890	-0.461468	-0.131661
H50	H	0.889968	0.134291	-0.230848
Br51	Br	1.230253	0.171834	0.645411
Br52	Br	0.894875	-0.030822	-0.156386
Br53	Br	1.493932	-0.464994	-0.297630
H54	H	1.372394	0.021051	0.380888
Br55	Br	1.671945	0.249229	0.351547
H56	H	1.085627	0.238902	-0.136941
Br57	Br	1.162779	-0.025998	0.157854
H58	H	0.868824	0.234313	-0.138118
H59	H	1.306770	-0.289388	0.094893
Br60	Br	1.135922	0.118718	-0.295858
H61	H	1.541080	-0.016861	0.378801
Br62	Br	1.266113	-0.447241	0.156035
Br63	Br	0.865267	0.119092	0.297760
Br64	Br	0.897548	-0.031071	0.158462
Br65	Br	0.836919	0.281311	0.132385
Br66	Br	1.486822	-0.287915	-0.295403
Br67	Br	1.271283	-0.270091	-0.157750
Br68	Br	1.265998	-0.445072	-0.158336
Br69	Br	1.483435	-0.460979	0.296801
Br70	Br	1.736493	-0.482713	0.142254
Br71	Br	1.742498	-0.308749	0.140333
Br72	Br	1.764865	0.064565	0.645080
Br73	Br	1.740602	-0.306742	-0.145826
Br74	Br	1.422849	0.299678	0.648239
H75	H	1.412105	0.257014	0.381025
Br76	Br	1.670444	0.250919	0.642739
Br77	Br	1.764764	0.063222	0.354961
Br78	Br	1.600061	-0.048723	0.643851
