data_functionalizedCrystal
_audit_creation_method	'MofGen! by Chris Wilmer'
_symmetry_space_group_name_H-M	'P1'
_symmetry_Int_Tables_number	1
_symmetry_cell_setting	triclinic
loop_
_symmetry_equiv_pos_as_xyz
  x,y,z
_cell_length_a	10.685904
_cell_length_b	10.686285
_cell_length_c	19.077174
_cell_angle_alpha	87.730334
_cell_angle_beta	83.143920
_cell_angle_gamma	89.665902
loop_
_atom_site_label
_atom_site_type_symbol
_atom_site_fract_x
_atom_site_fract_y
_atom_site_fract_z
Zn1	Zn	1.992280	-0.383340	-0.466897
Zn2	Zn	1.998579	-0.584795	-0.340876
Zn3	Zn	1.772685	-0.391027	-0.339485
Zn4	Zn	1.797204	-0.607937	-0.448923
O5	O	1.890187	-0.491775	-0.399045
O6	O	2.169293	-0.397162	-0.458285
O7	O	1.960988	-0.552623	-0.242151
O8	O	1.788916	-0.214921	-0.363327
O9	O	2.173921	-0.545170	-0.365697
O10	O	1.950252	-0.209273	-0.456936
O11	O	1.795025	-0.410263	-0.241129
O12	O	1.599760	-0.432703	-0.345898
O13	O	1.830707	-0.584612	-0.549848
O14	O	1.617774	-0.592065	-0.426301
O15	O	1.974028	-0.419602	-0.563053
O16	O	1.984764	-0.762952	-0.348268
O17	O	1.836815	-0.779954	-0.427650
C18	C	1.563086	-0.515730	-0.383998
C19	C	1.423155	-0.526010	-0.377577
C20	C	1.914169	-0.816849	-0.386176
C21	C	1.924546	-0.955911	-0.380700
C22	C	2.218565	-0.467727	-0.414151
C23	C	2.358500	-0.457479	-0.420588
C24	C	1.904400	-0.503831	-0.582715
C25	C	1.910457	-0.508968	-0.660985
C26	C	1.866147	-0.165429	-0.411981
C27	C	1.855902	-0.026361	-0.417494
C28	C	1.826897	-0.437264	-0.697223
C29	C	1.832584	-0.442101	-0.770765
C30	C	1.921837	-0.518638	-0.808067
C31	C	2.005400	-0.590351	-0.771823
C32	C	1.999707	-0.585519	-0.698282
C33	C	1.948126	-0.541043	-1.028068
C34	C	1.953816	-0.545867	-1.101614
C35	C	1.780997	-0.397619	-1.100551
C36	C	1.775316	-0.392788	-1.027009
C37	C	1.858875	-0.464506	-0.990771
N38	N	1.927655	-0.523582	-0.883239
N39	N	1.853051	-0.459568	-0.915600
C40	C	1.876095	-0.479670	-0.216096
C41	C	1.870256	-0.474163	-0.137853
H42	H	1.789195	-0.980291	-0.453186
H43	H	1.991248	-1.001988	-0.345000
C44	C	1.728716	-0.353071	-0.656194
C45	C	1.636798	-0.274203	-0.696059
C46	C	1.538611	-0.190011	-0.655032
C47	C	1.532343	-0.184687	-0.574140
C48	C	1.624264	-0.263557	-0.534271
C49	C	1.722451	-0.347749	-0.575298
H50	H	1.641435	-0.278142	-0.755944
H51	H	1.470565	-0.131626	-0.684547
H52	H	1.459659	-0.122363	-0.543770
H53	H	1.619627	-0.259618	-0.474386
H54	H	1.790497	-0.406134	-0.545783
H55	H	1.371455	-0.592540	-0.335840
H56	H	1.764537	-0.383717	-0.800267
C57	C	2.103573	-0.674544	-0.812859
C58	C	2.060156	-0.780080	-0.857015
C59	C	2.158330	-0.864272	-0.898051
C60	C	2.299921	-0.842929	-0.894932
C61	C	2.343344	-0.737389	-0.850774
C62	C	2.245170	-0.653196	-0.809737
H63	H	1.955337	-0.795883	-0.859326
H64	H	2.126185	-0.942400	-0.930740
H65	H	2.372595	-0.905253	-0.925310
H66	H	2.448164	-0.721585	-0.848463
H67	H	2.277316	-0.575068	-0.777049
H68	H	2.067758	-0.643898	-0.668779
H69	H	1.702634	-0.330468	-0.996642
H70	H	1.712967	-0.339232	-1.130063
H71	H	2.026502	-0.608193	-1.131984
H72	H	1.410205	-0.390936	-0.462324
H73	H	2.016153	-0.599456	-0.998570
