data_functionalizedCrystal
_audit_creation_method	'MofGen! by Chris Wilmer'
_symmetry_space_group_name_H-M	'P1'
_symmetry_Int_Tables_number	1
_symmetry_cell_setting	triclinic
loop_
_symmetry_equiv_pos_as_xyz
  x,y,z
_cell_length_a	11.169417
_cell_length_b	18.101397
_cell_length_c	11.169409
_cell_angle_alpha	89.960119
_cell_angle_beta	89.980487
_cell_angle_gamma	90.021715
loop_
_atom_site_label
_atom_site_type_symbol
_atom_site_fract_x
_atom_site_fract_y
_atom_site_fract_z
Zn1	Zn	1.834878	-0.294745	-0.678470
Zn2	Zn	2.334878	0.205255	-0.178470
Zn3	Zn	1.834732	-0.418611	-0.477760
Zn4	Zn	2.334732	0.081389	0.022240
Zn5	Zn	1.634164	-0.294791	-0.477805
Zn6	Zn	2.134164	0.205209	0.022195
Zn7	Zn	1.634136	-0.418552	-0.678406
Zn8	Zn	2.134136	0.081448	-0.178406
O9	O	1.734477	-0.356675	-0.578110
O10	O	2.234477	0.143325	-0.078110
O11	O	2.002808	-0.311182	-0.651853
O12	O	2.502808	0.188818	-0.151853
O13	O	1.808077	-0.402230	-0.309816
O14	O	2.308077	0.097770	0.190184
O15	O	1.660862	-0.191152	-0.504469
O16	O	2.160862	0.308848	-0.004469
O17	O	2.002701	-0.402186	-0.504393
O18	O	2.502701	0.097814	-0.004393
O19	O	1.808326	-0.191118	-0.651897
O20	O	2.308326	0.308882	-0.151897
O21	O	1.660720	-0.311260	-0.309850
O22	O	2.160720	0.188740	0.190150
O23	O	1.466210	-0.311202	-0.504408
O24	O	1.966210	0.188798	-0.004408
O25	O	1.660814	-0.402084	-0.846365
O26	O	2.160814	0.097916	-0.346365
O27	O	1.466190	-0.402129	-0.651788
O28	O	1.966190	0.097871	-0.151788
O29	O	1.808298	-0.311124	-0.846411
O30	O	2.308298	0.188876	-0.346411
O31	O	1.808049	-0.522236	-0.504331
O32	O	2.308049	-0.022236	-0.004331
O33	O	1.660672	-0.522193	-0.651745
O34	O	2.160672	-0.022193	-0.151745
C35	C	1.422653	-0.356665	-0.578097
C36	C	1.922653	0.143335	-0.078097
C37	C	1.289253	-0.356678	-0.578119
C38	C	1.789253	0.143322	-0.078119
C39	C	1.734375	-0.549085	-0.578052
C40	C	2.234375	-0.049085	-0.078052
C41	C	1.734440	-0.631399	-0.578068
C42	C	2.234440	-0.131399	-0.078068
C43	C	1.734594	-0.930490	-0.578177
C44	C	2.234594	-0.430490	-0.078177
C45	C	1.827061	-0.899162	-0.485180
C46	C	2.327061	-0.399162	0.014820
C47	C	1.827381	-0.813543	-0.485421
C48	C	2.327381	-0.313543	0.014579
C49	C	1.734518	-0.782108	-0.578122
C50	C	2.234518	-0.282108	-0.078122
C51	C	1.768813	-0.813102	-0.704626
C52	C	2.268813	-0.313102	-0.204626
C53	C	1.769528	-0.898747	-0.704120
C54	C	2.269528	-0.398747	-0.204120
C55	C	1.607585	-0.899004	-0.545764
C56	C	2.107585	-0.399004	-0.045764
C57	C	1.608212	-0.813355	-0.542941
C58	C	2.108212	-0.313355	-0.042941
C59	C	1.734473	-0.698248	-0.578098
C60	C	2.234473	-0.198248	-0.078098
C61	C	1.734642	-1.014350	-0.578209
C62	C	2.234642	-0.514350	-0.078209
C63	C	2.047520	-0.356685	-0.578125
C64	C	2.547520	0.143315	-0.078125
C65	C	2.180920	-0.356690	-0.578131
C66	C	2.680920	0.143310	-0.078131
C67	C	1.734569	-0.356593	-0.891153
C68	C	2.234569	0.143407	-0.391153
C69	C	1.734609	-0.356557	-1.024553
C70	C	2.234609	0.143443	-0.524553
C71	C	1.734613	-0.163513	-0.578195
C72	C	2.234613	0.336487	-0.078195
C73	C	1.734671	-0.081199	-0.578231
C74	C	2.234671	0.418801	-0.078231
C75	C	1.734455	-0.356703	-0.266286
C76	C	2.234455	0.143297	0.233714
C77	C	1.734648	-0.356530	-0.132886
C78	C	2.234648	0.143470	0.367114
H79	H	1.805924	-0.792591	-0.391619
H80	H	2.305924	-0.292591	0.108381
H81	H	1.805863	-0.919815	-0.391097
H82	H	2.305863	-0.419815	0.108903
H83	H	1.535611	-0.791964	-0.605715
H84	H	2.035611	-0.291964	-0.105715
H85	H	1.920627	-0.920626	-0.506378
H86	H	2.420627	-0.420626	-0.006378
Cl87	Cl	1.501215	-0.930286	-0.650335
Cl88	Cl	2.001215	-0.430286	-0.150335
Cl89	Cl	1.972633	-0.781815	-0.518539
Cl90	Cl	2.472633	-0.281815	-0.018539
H91	H	1.582353	-0.793106	-0.449843
H92	H	2.082353	-0.293106	0.050157
H93	H	1.705130	-0.919467	-0.775797
H94	H	2.205130	-0.419467	-0.275797
Cl95	Cl	1.912863	-0.929498	-0.746507
Cl96	Cl	2.412863	-0.429498	-0.246507
Cl97	Cl	1.668005	-0.781670	-0.814484
Cl98	Cl	2.168005	-0.281670	-0.314484
H99	H	1.576387	-0.920674	-0.455117
H100	H	2.076387	-0.420674	0.044883
Cl101	Cl	1.910544	-0.779894	-0.747738
Cl102	Cl	2.410544	-0.279894	-0.247738
