data_functionalizedCrystal
_audit_creation_method	'MofGen! by Chris Wilmer'
_symmetry_space_group_name_H-M	'P1'
_symmetry_Int_Tables_number	1
_symmetry_cell_setting	triclinic
loop_
_symmetry_equiv_pos_as_xyz
  x,y,z
_cell_length_a	25.639242
_cell_length_b	12.594516
_cell_length_c	12.594509
_cell_angle_alpha	89.973801
_cell_angle_beta	89.970217
_cell_angle_gamma	90.011581
loop_
_atom_site_label
_atom_site_type_symbol
_atom_site_fract_x
_atom_site_fract_y
_atom_site_fract_z
Zn1	Zn	0.799347	-0.423837	-0.602115
Zn2	Zn	0.799293	-0.601847	-0.424143
Zn3	Zn	0.711911	-0.423869	-0.424118
Zn4	Zn	0.711903	-0.601760	-0.602047
O5	O	0.755613	-0.512828	-0.513106
O6	O	0.872505	-0.447473	-0.578546
O7	O	0.787683	-0.578288	-0.275194
O8	O	0.723536	-0.274919	-0.447748
O9	O	0.872465	-0.578257	-0.447791
O10	O	0.787774	-0.274895	-0.578522
O11	O	0.723484	-0.447528	-0.275175
O12	O	0.638745	-0.447444	-0.447681
O13	O	0.723521	-0.578108	-0.751002
O14	O	0.638739	-0.578139	-0.578405
O15	O	0.787766	-0.447389	-0.751052
O16	O	0.787674	-0.750781	-0.447724
O17	O	0.723469	-0.750717	-0.578429
C18	C	0.755579	-0.789369	-0.513095
C19	C	0.755612	-0.907675	-0.513126
C20	C	0.619771	-0.512786	-0.513033
C21	C	0.561657	-0.512794	-0.513028
C22	C	0.720688	-0.976932	-0.584167
C23	C	0.707949	-1.047795	-0.487040
C24	C	0.768399	-1.047610	-0.610270
C25	C	0.742848	-0.976980	-0.415948
C26	C	0.803321	-0.976789	-0.539243
C27	C	0.790600	-1.047620	-0.442050
C28	C	0.201299	-0.580995	-0.581109
C29	C	0.146695	-0.581002	-0.581126
O30	O	0.118463	-0.638937	-0.638950
N31	N	0.119374	-0.512858	-0.513175
C32	C	0.146661	-0.444695	-0.445211
O33	O	0.118409	-0.386733	-0.387416
C34	C	0.201264	-0.444684	-0.445200
C35	C	0.228582	-0.512840	-0.513148
C36	C	0.228617	-0.649145	-0.649052
C37	C	0.283218	-0.649140	-0.649033
C38	C	0.310500	-0.580984	-0.581072
C39	C	0.283183	-0.512835	-0.513129
C40	C	0.228550	-0.376516	-0.377242
C41	C	0.283157	-0.376511	-0.377238
C42	C	0.310475	-0.444667	-0.445185
C43	C	0.365066	-0.444674	-0.445149
N44	N	0.392386	-0.512818	-0.513100
C45	C	0.365104	-0.580973	-0.581061
C46	C	0.031990	-0.444722	-0.445240
C47	C	-0.022612	-0.444738	-0.445244
C48	C	-0.022574	-0.581043	-0.581161
C49	C	0.032029	-0.581032	-0.581150
C50	C	0.059311	-0.512866	-0.513190
C51	C	0.479769	-0.580958	-0.581017
C52	C	0.534374	-0.580949	-0.580989
C53	C	0.534331	-0.444640	-0.445077
C54	C	0.479731	-0.444652	-0.445100
C55	C	0.452451	-0.512814	-0.513079
O56	O	0.393332	-0.386766	-0.387358
O57	O	0.393363	-0.638916	-0.638857
C58	C	0.891986	-0.512871	-0.513179
C59	C	0.950100	-0.512889	-0.513210
C60	C	0.755648	-0.512735	-0.790727
C61	C	0.755663	-0.512695	-0.909032
C62	C	0.755662	-0.235207	-0.513139
C63	C	0.755683	-0.116902	-0.513154
C64	C	0.720732	-0.583753	-0.978258
C65	C	0.768439	-0.609767	-1.049064
C66	C	0.707993	-0.486617	-1.049026
C67	C	0.803396	-0.538760	-0.978280
C68	C	0.742917	-0.415565	-0.978235
C69	C	0.790658	-0.441542	-1.049009
C70	C	0.755609	-0.512844	-0.236565
C71	C	0.755695	-0.512584	-0.118260
H72	H	0.691100	-0.945892	-0.644156
H73	H	0.457564	-0.636459	-0.636374
C74	C	0.769449	-0.264689	-0.875050
C75	C	0.728324	-0.304776	-0.936194
H76	H	0.760435	-0.196290	-0.849100
H77	H	0.775864	-0.310973	-0.816946
H78	H	0.799935	-0.259602	-0.917645
H79	H	0.697839	-0.309870	-0.893595
H80	H	0.721902	-0.258480	-0.994306
C81	C	0.857216	-0.823481	-0.567794
C82	C	0.857730	-0.934646	-0.569087
H83	H	0.890808	-0.797465	-0.586220
H84	H	0.832301	-0.798232	-0.617547
H85	H	0.848200	-0.799356	-0.498731
H86	H	0.866742	-0.958771	-0.638153
H87	H	0.882653	-0.959905	-0.519333
H88	H	-0.044798	-0.636536	-0.636502
H89	H	0.820246	-0.381403	-1.079878
H90	H	0.054200	-0.389214	-0.389891
C91	C	0.277754	-0.783858	-0.783388
C92	C	0.313241	-0.724048	-0.723736
H93	H	0.296287	-0.830098	-0.829515
H94	H	0.256442	-0.824517	-0.736948
H95	H	0.256470	-0.737517	-0.824171
H96	H	0.334522	-0.770389	-0.682947
H97	H	0.334561	-0.683386	-0.770181
C98	C	0.854261	-0.660725	-0.874640
C99	C	0.857853	-0.568614	-0.936517
H100	H	0.887880	-0.679160	-0.848864
H101	H	0.831508	-0.648319	-0.816415
H102	H	0.840966	-0.717169	-0.916685
H103	H	0.871144	-0.512168	-0.894470
H104	H	0.880613	-0.581015	-0.994750
H105	H	0.206409	-0.704646	-0.704400
H106	H	0.206317	-0.321019	-0.321909
H107	H	0.667666	-0.464607	-1.080103
C108	C	0.026569	-0.715759	-0.715499
C109	C	0.062054	-0.655941	-0.655850
H110	H	0.045105	-0.762000	-0.761622
H111	H	0.005260	-0.756419	-0.669057
H112	H	0.005284	-0.669424	-0.756284
H113	H	0.083337	-0.702276	-0.615058
H114	H	0.083373	-0.615278	-0.702297
C115	C	0.654272	-1.201073	-0.456619
C116	C	0.653527	-1.089907	-0.457223
H117	H	0.620674	-1.227066	-0.438210
H118	H	0.663568	-1.226287	-0.525126
H119	H	0.679075	-1.225257	-0.406096
H120	H	0.628726	-1.065723	-0.507752
H121	H	0.644224	-1.064684	-0.388706
H122	H	0.779186	-1.078636	-0.692412
C123	C	-0.017151	-0.310006	-0.310899
C124	C	-0.052636	-0.369825	-0.370547
H125	H	-0.035687	-0.263749	-0.264791
H126	H	0.004127	-0.356332	-0.270105
H127	H	0.004166	-0.269354	-0.357350
H128	H	-0.073951	-0.410483	-0.324096
H129	H	-0.073923	-0.323493	-0.411344
C130	C	0.817033	-1.053424	-0.259279
C131	C	0.830510	-1.089271	-0.360877
H132	H	0.841669	-1.079146	-0.209166
H133	H	0.817023	-0.978014	-0.258429
H134	H	0.783269	-1.078818	-0.241335
H135	H	0.864273	-1.063870	-0.378824
H136	H	0.830526	-1.164697	-0.361730
C137	C	0.643228	-0.612649	-0.875115
C138	C	0.680883	-0.664992	-0.936311
H139	H	0.618629	-0.662804	-0.849224
H140	H	0.659670	-0.578254	-0.816970
H141	H	0.625843	-0.561401	-0.917656
H142	H	0.698271	-0.716235	-0.893767
H143	H	0.664440	-0.699404	-0.994464
C144	C	0.551239	-0.633012	-0.761136
C145	C	0.564402	-0.655865	-0.655688
H146	H	0.569779	-0.679256	-0.807249
H147	H	0.514819	-0.642770	-0.770862
H148	H	0.560203	-0.561513	-0.776814
H149	H	0.555435	-0.727362	-0.640007
H150	H	0.600830	-0.646117	-0.645957
C151	C	0.728291	-0.824105	-0.306032
C152	C	0.728219	-0.935280	-0.305028
H153	H	0.719255	-0.798363	-0.237559
H154	H	0.762047	-0.799209	-0.324680
H155	H	0.703612	-0.799349	-0.356530
H156	H	0.752901	-0.960037	-0.254536
H157	H	0.694457	-0.960186	-0.286368
C158	C	0.277630	-0.241780	-0.242888
C159	C	0.313144	-0.301588	-0.302522
H160	H	0.296143	-0.195535	-0.196755
H161	H	0.256355	-0.201125	-0.289338
H162	H	0.256313	-0.288121	-0.202112
H163	H	0.334458	-0.255247	-0.343304
H164	H	0.334428	-0.342246	-0.256065
C165	C	0.485181	-0.309919	-0.310751
C166	C	0.449700	-0.369739	-0.370408
H167	H	0.466643	-0.263662	-0.264649
H168	H	0.506457	-0.356245	-0.269951
H169	H	0.506501	-0.269268	-0.357197
H170	H	0.428382	-0.410397	-0.323962
H171	H	0.428415	-0.323408	-0.411210
C172	C	0.618023	-0.384109	-0.384731
C173	C	0.564328	-0.369720	-0.370382
H174	H	0.636541	-0.337846	-0.338626
H175	H	0.626957	-0.455594	-0.369021
H176	H	0.626986	-0.368627	-0.456278
H177	H	0.555364	-0.385209	-0.298837
H178	H	0.555390	-0.298219	-0.386085
C179	C	0.746370	-0.794933	-1.055369
C180	C	0.783016	-0.720584	-1.091075
H181	H	0.755366	-0.863346	-1.081309
H182	H	0.746155	-0.795935	-0.979961
H183	H	0.712737	-0.775947	-1.080640
H184	H	0.816649	-0.739566	-1.065798
H185	H	0.783236	-0.719585	-1.166499
