data_functionalizedCrystal
_audit_creation_method	'MofGen! by Chris Wilmer'
_symmetry_space_group_name_H-M	'P1'
_symmetry_Int_Tables_number	1
_symmetry_cell_setting	triclinic
loop_
_symmetry_equiv_pos_as_xyz
  x,y,z
_cell_length_a	18.627331
_cell_length_b	18.627209
_cell_length_c	18.627263
_cell_angle_alpha	89.998668
_cell_angle_beta	119.999582
_cell_angle_gamma	120.005223
loop_
_atom_site_label
_atom_site_type_symbol
_atom_site_fract_x
_atom_site_fract_y
_atom_site_fract_z
O1	O	0.633234	0.021338	-0.492482
O2	O	0.486225	-0.021272	-0.388086
O3	O	0.633237	0.125741	-0.388084
O4	O	0.486222	-0.125675	-0.492484
O5	O	0.513832	0.125733	-0.507488
O6	O	0.366820	-0.021280	-0.507490
O7	O	0.513828	0.021330	-0.611886
Zn8	Zn	0.421366	0.000024	-0.578646
Zn9	Zn	0.578688	0.000034	-0.421326
O10	O	0.366816	-0.125683	-0.611889
C11	C	0.226043	-0.030944	-0.386975
C12	C	0.137451	-0.024836	-0.431271
C13	C	0.269032	-0.031558	-0.430383
C14	C	0.356035	-0.030956	-0.256980
C15	C	0.406431	-0.024861	-0.162284
C16	C	0.398826	-0.031570	-0.300585
C17	C	0.356031	-0.030961	-0.386982
C18	C	0.406424	-0.024871	-0.431285
C19	C	0.269035	-0.031553	-0.300578
C20	C	0.774048	0.387058	-0.256984
C21	C	0.862653	0.431366	-0.162286
C22	C	0.731049	0.300654	-0.300585
C23	C	0.644042	0.387047	-0.386989
C24	C	0.593644	0.431344	-0.431291
C25	C	0.601241	0.300643	-0.430392
C26	C	0.644038	0.257044	-0.386985
C27	C	0.593637	0.162341	-0.431285
C28	C	0.731053	0.430459	-0.300588
C29	C	0.774039	0.031042	-0.612979
C30	C	0.862642	0.024951	-0.568677
C31	C	0.731044	0.031646	-0.699379
C32	C	0.644033	0.031034	-0.612983
C33	C	0.593633	0.024934	-0.568685
C34	C	0.601235	0.031638	-0.699383
C35	C	0.644035	0.031033	-0.742983
C36	C	0.593637	0.024933	-0.837681
C37	C	0.731042	0.031647	-0.569577
O38	O	1.104458	0.125770	-0.388070
O39	O	0.895640	-0.125649	-0.492473
O40	O	0.895646	0.021354	-0.492473
O41	O	1.104452	-0.021233	-0.388070
O42	O	0.895647	0.021354	-0.611875
O43	O	0.895640	-0.125649	-0.611874
O44	O	1.104458	0.125770	-0.507472
Zn45	Zn	1.000049	0.000060	-0.578631
Zn46	Zn	1.000049	0.000060	-0.421314
O47	O	1.104452	-0.021233	-0.507472
O48	O	0.366823	0.388104	-0.507507
O49	O	0.513845	0.492554	-0.611888
O50	O	0.366824	0.492518	-0.611897
O51	O	0.513845	0.388141	-0.507499
O52	O	0.486222	0.611924	-0.492487
O53	O	0.633243	0.611961	-0.492479
O54	O	0.486221	0.507511	-0.388098
Zn55	Zn	0.578689	0.578694	-0.421329
Zn56	Zn	0.421377	0.421371	-0.578657
O57	O	0.633243	0.507547	-0.388089
C58	C	0.356024	0.743019	-0.612995
C59	C	0.406419	0.837718	-0.568690
C60	C	0.269020	0.699414	-0.699399
C61	C	0.356025	0.613018	-0.612997
C62	C	0.406422	0.568721	-0.568694
C63	C	0.269021	0.569611	-0.699401
C64	C	0.226028	0.613013	-0.743004
C65	C	0.137431	0.568710	-0.837706
C66	C	0.398820	0.699419	-0.569589
O67	O	0.513841	0.021341	0.125720
O68	O	0.366836	-0.021255	-0.125679
O69	O	0.513867	0.125751	0.021329
O70	O	0.366810	-0.125666	-0.021287
O71	O	0.633257	0.125736	0.021322
O72	O	0.486226	-0.021271	-0.125686
O73	O	0.633231	0.021325	0.125713
Zn74	Zn	0.578685	0.000024	0.000013
Zn75	Zn	0.421383	0.000045	0.000022
O76	O	0.486200	-0.125682	-0.021294
C77	C	0.774095	0.387046	0.031004
C78	C	0.862695	0.431338	0.024902
C79	C	0.731113	0.430461	0.031613
C80	C	0.644080	0.257049	0.031014
C81	C	0.593668	0.162347	0.024922
C82	C	0.601296	0.300661	0.031623
C83	C	0.644107	0.387063	0.031012
C84	C	0.593723	0.431374	0.024917
C85	C	0.731087	0.300644	0.031616
O86	O	1.104465	0.492583	0.125719
O87	O	0.895655	0.388168	-0.125684
O88	O	0.895653	0.388168	0.021315
O89	O	1.104467	0.492583	-0.021280
O90	O	0.895660	0.507573	0.021315
O91	O	0.895661	0.507573	-0.125683
O92	O	1.104471	0.611988	0.125719
Zn93	Zn	1.000067	0.578739	0.000018
Zn94	Zn	1.000059	0.421417	0.000018
O95	O	1.104473	0.611989	-0.021280
C96	C	0.644013	-0.386973	-0.612984
C97	C	0.593611	-0.431280	-0.568686
C98	C	0.601214	-0.430380	-0.699383
C99	C	0.774026	-0.256959	-0.612979
C100	C	0.862634	-0.162254	-0.568676
C101	C	0.731030	-0.300564	-0.699379
C102	C	0.644016	-0.386970	-0.742983
C103	C	0.593618	-0.431273	-0.837681
C104	C	0.731026	-0.300567	-0.569577
C105	C	1.356082	0.387092	-0.256963
C106	C	1.406482	0.431395	-0.162266
C107	C	1.398884	0.430501	-0.300564
C108	C	1.226072	0.257080	-0.386967
C109	C	1.137464	0.162375	-0.431269
C110	C	1.269071	0.300687	-0.430369
C111	C	1.356084	0.387093	-0.386963
C112	C	1.406486	0.431399	-0.431262
C113	C	1.269069	0.300685	-0.300567
O114	O	0.366928	0.492589	-0.021319
O115	O	0.513908	0.388172	0.021304
O116	O	0.366937	0.388188	-0.125707
O117	O	0.513899	0.492573	0.125691
O118	O	0.486376	0.507601	-0.125677
O119	O	0.633347	0.507586	0.021333
O120	O	0.486367	0.612002	-0.021290
Zn121	Zn	0.578820	0.578754	0.000027
Zn122	Zn	0.421454	0.421421	-0.000013
O123	O	0.633338	0.611987	0.125721
C124	C	0.355960	-0.386994	-0.030977
C125	C	0.406344	-0.431304	-0.024883
C126	C	0.268954	-0.430391	-0.031578
C127	C	0.355987	-0.256979	-0.030979
C128	C	0.406399	-0.162278	-0.024887
C129	C	0.268981	-0.300574	-0.031581
C130	C	0.225973	-0.386976	-0.030969
C131	C	0.137373	-0.431269	-0.024866
C132	C	0.398771	-0.300591	-0.031589
H133	H	0.233048	-0.032532	-0.265575
C134	C	0.709255	0.178082	-0.041847
C135	C	0.779643	0.253376	0.032921
H136	H	0.739233	0.148906	-0.041046
H137	H	0.651197	0.139740	-0.042096
H138	H	0.689613	0.194542	-0.093106
H139	H	0.799280	0.236915	0.084181
H140	H	0.837719	0.291725	0.033178
H141	H	0.232959	-0.501386	-0.032559
H142	H	0.531207	0.265625	-0.501374
H143	H	0.233045	0.498621	-0.734407
H144	H	0.767036	0.501449	-0.265576
C145	C	0.709338	0.531220	-0.041833
C146	C	0.779702	0.526296	0.032929
H147	H	0.739333	0.590384	-0.041016
H148	H	0.689694	0.495125	-0.093090
H149	H	0.651271	0.511502	-0.042086
H150	H	0.837766	0.546008	0.033179
H151	H	0.799361	0.562404	0.084200
H152	H	0.767025	0.032620	-0.498589
H153	H	0.531198	-0.501376	-0.734387
C154	C	1.471024	0.579533	-0.299922
C155	C	1.493403	0.526341	-0.253302
H156	H	1.529374	0.638698	-0.270740
H157	H	1.451579	0.559815	-0.357718
H158	H	1.416950	0.576169	-0.302909
H159	H	1.547472	0.529699	-0.250320
H160	H	1.512862	0.546064	-0.195490
C161	C	0.529127	0.108544	-0.700016
C162	C	0.506732	0.032970	-0.746649
H163	H	0.470791	0.109372	-0.729202
H164	H	0.548548	0.108254	-0.642228
H165	H	0.583222	0.159261	-0.697006
H166	H	0.452642	-0.017748	-0.749653
H167	H	0.487298	0.033252	-0.804453
H168	H	0.233035	0.734418	-0.734399
H169	H	0.468831	0.734431	-0.498596
H170	H	0.767021	-0.265550	-0.734379
C171	C	0.879444	0.108573	-0.699999
C172	C	0.779624	0.032992	-0.746639
H173	H	0.909433	0.109406	-0.729175
H174	H	0.879077	0.159280	-0.696992
H175	H	0.917521	0.108282	-0.642203
H176	H	0.741545	0.033286	-0.804433
H177	H	0.779985	-0.017728	-0.749657
H178	H	0.767038	0.265655	-0.265575
H179	H	0.531279	0.265654	0.032598
C180	C	0.290785	-0.178026	0.041878
C181	C	0.220415	-0.253312	-0.032895
H182	H	0.260802	-0.148850	0.041063
H183	H	0.310410	-0.194488	0.093128
H184	H	0.348862	-0.139674	0.042142
H185	H	0.162342	-0.291668	-0.033156
H186	H	0.200776	-0.236852	-0.084159
C187	C	0.808555	-0.299932	-0.420557
C188	C	0.779621	-0.253301	-0.473742
H189	H	0.838564	-0.270747	-0.361394
H190	H	0.750472	-0.357727	-0.440274
H191	H	0.856268	-0.302933	-0.423925
H192	H	0.731902	-0.250305	-0.470379
H193	H	0.837711	-0.195491	-0.454020
H194	H	0.468829	-0.032560	-0.265580
H195	H	1.233074	0.265679	-0.501363
H196	H	1.233087	0.265678	-0.265558
C197	C	0.572981	-0.178038	0.041849
C198	C	0.493284	-0.253335	-0.032913
H199	H	0.631328	-0.148866	0.041032
H200	H	0.553525	-0.139693	0.042106
H201	H	0.588150	-0.194492	0.093112
H202	H	0.478110	-0.236879	-0.084177
H203	H	0.512743	-0.291687	-0.033178
C204	C	0.219994	0.041917	-0.531127
C205	C	0.220472	-0.032869	-0.526211
H206	H	0.190025	0.041110	-0.590284
H207	H	0.181910	0.042191	-0.511416
H208	H	0.287727	0.093170	-0.495023
H209	H	0.152737	-0.084123	-0.562310
H210	H	0.258554	-0.033152	-0.545933
