data_functionalizedCrystal
_audit_creation_method	'MofGen! by Chris Wilmer'
_symmetry_space_group_name_H-M	'P1'
_symmetry_Int_Tables_number	1
_symmetry_cell_setting	triclinic
loop_
_symmetry_equiv_pos_as_xyz
  x,y,z
_cell_length_a	15.944493
_cell_length_b	17.038274
_cell_length_c	15.021413
_cell_angle_alpha	90.003767
_cell_angle_beta	89.993251
_cell_angle_gamma	92.706585
loop_
_atom_site_label
_atom_site_type_symbol
_atom_site_fract_x
_atom_site_fract_y
_atom_site_fract_z
O1	O	1.121743	-0.100610	-0.074037
O2	O	1.455076	0.232723	0.259297
O3	O	1.788410	0.566057	0.592630
O4	O	0.878078	-0.113089	-0.074043
O5	O	1.211411	0.220244	0.259290
O6	O	1.544744	0.553577	0.592624
O7	O	0.998462	0.006966	-0.074015
O8	O	1.331795	0.340299	0.259318
O9	O	1.665129	0.673633	0.592651
O10	O	1.001359	-0.220665	-0.074064
O11	O	1.334692	0.112668	0.259269
O12	O	1.668025	0.446002	0.592602
O13	O	0.998443	0.006949	0.074049
O14	O	1.331776	0.340282	0.407382
O15	O	1.665109	0.673615	0.740716
O16	O	0.878058	-0.113106	0.074021
O17	O	1.211392	0.220227	0.407354
O18	O	1.544725	0.553560	0.740688
O19	O	1.121724	-0.100627	0.074028
O20	O	1.455057	0.232706	0.407361
O21	O	1.788390	0.566040	0.740694
Zn22	Zn	0.999888	-0.106869	0.097533
Zn23	Zn	1.333221	0.226464	0.430866
Zn24	Zn	1.666555	0.559797	0.764199
Zn25	Zn	0.999913	-0.106847	-0.097548
Zn26	Zn	1.333247	0.226486	0.235785
Zn27	Zn	1.666580	0.559820	0.569118
O28	O	1.001339	-0.220682	0.074000
O29	O	1.334673	0.112651	0.407333
O30	O	1.668006	0.445984	0.740666
C31	C	0.846737	-0.112588	-0.000011
C32	C	1.180070	0.220746	0.333322
C33	C	1.513404	0.554079	0.666655
C34	C	0.753379	-0.111059	-0.000013
C35	C	1.086712	0.222275	0.333321
C36	C	1.420046	0.555608	0.666654
C37	C	0.522665	-0.181726	-0.000029
C38	C	0.855998	0.151607	0.333305
C39	C	1.189332	0.484941	0.666638
C40	C	0.469376	-0.143626	0.072987
C41	C	0.802709	0.189707	0.406320
C42	C	1.136043	0.523040	0.739654
C43	C	0.582456	-0.108225	-0.000010
C44	C	0.915789	0.225108	0.333323
C45	C	1.249122	0.558441	0.666656
C46	C	0.469398	-0.143592	-0.072993
C47	C	0.802732	0.189741	0.260340
C48	C	1.136065	0.523075	0.593674
C49	C	0.417351	-0.105494	-0.000012
C50	C	0.750684	0.227840	0.333321
C51	C	1.084018	0.561173	0.666655
C52	C	0.530397	-0.070145	0.073065
C53	C	0.863730	0.263188	0.406399
C54	C	1.197063	0.596521	0.739732
C55	C	0.530423	-0.070122	-0.072980
C56	C	0.863756	0.263212	0.260353
C57	C	1.197090	0.596545	0.593687
C58	C	0.477163	-0.031968	0.000053
C59	C	0.810496	0.301365	0.333387
C60	C	1.143830	0.634698	0.666720
C61	C	0.677568	-0.109801	-0.000009
C62	C	1.010901	0.223532	0.333325
C63	C	1.344235	0.556866	0.666658
C64	C	0.322241	-0.103912	-0.000007
C65	C	0.655574	0.229421	0.333326
C66	C	0.988908	0.562754	0.666659
C67	C	0.995818	0.036086	0.000021
C68	C	1.329151	0.369419	0.333354
C69	C	1.662485	0.702753	0.666688
C70	C	0.987958	0.122880	0.000034
C71	C	1.321292	0.456213	0.333367
C72	C	1.654625	0.789546	0.666701
C73	C	1.060117	0.172986	0.000044
C74	C	1.393450	0.506320	0.333377
C75	C	1.726783	0.839653	0.666711
C76	C	1.052727	0.254538	0.000048
C77	C	1.386060	0.587871	0.333381
C78	C	1.719394	0.921204	0.666715
C79	C	0.973178	0.285981	0.000049
C80	C	1.306511	0.619314	0.333382
C81	C	1.639844	0.952647	0.666715
C82	C	0.901014	0.235867	0.000036
C83	C	1.234347	0.569201	0.333369
C84	C	1.567681	0.902534	0.666703
C85	C	0.908405	0.154318	0.000025
C86	C	1.241738	0.487651	0.333359
C87	C	1.575071	0.820984	0.666692
C88	C	0.947068	0.531741	0.000074
C89	C	1.280401	0.865074	0.333407
C90	C	1.613735	1.198408	0.666740
C91	C	0.939683	0.613297	0.000087
C92	C	1.273016	0.946631	0.333420
C93	C	1.606349	1.279964	0.666753
C94	C	1.091396	0.631962	0.000097
C95	C	1.424730	0.965295	0.333431
C96	C	1.758063	1.298629	0.666764
C97	C	1.098780	0.550410	0.000092
C98	C	1.432113	0.883743	0.333426
C99	C	1.765447	1.217076	0.666759
C100	C	1.026616	0.500304	0.000075
C101	C	1.359949	0.833637	0.333408
C102	C	1.693283	1.166970	0.666742
C103	C	0.965622	0.369339	0.000055
C104	C	1.298956	0.702672	0.333389
C105	C	1.632289	1.036006	0.666722
C106	C	1.034172	0.416947	0.000062
C107	C	1.367506	0.750280	0.333395
C108	C	1.700839	1.083614	0.666728
C109	C	1.153065	-0.101128	-0.000006
C110	C	1.486398	0.232205	0.333327
C111	C	1.819731	0.565538	0.666661
C112	C	1.246422	-0.102658	-0.000011
C113	C	1.579756	0.230676	0.333323
C114	C	1.913089	0.564009	0.666656
C115	C	1.003983	0.750198	0.000000
C116	C	1.337316	1.083531	0.333333
C117	C	1.670650	1.416864	0.666667
C118	C	1.011841	0.663404	0.000097
C119	C	1.345174	0.996737	0.333430
C120	C	1.678508	1.330071	0.666763
N121	N	0.999877	-0.106884	0.230670
N122	N	1.333210	0.226449	0.564004
N123	N	1.666543	0.559782	0.897337
N124	N	0.999931	-0.106826	-0.230686
N125	N	1.333264	0.226508	0.102647
N126	N	1.666598	0.559841	0.435981
C127	C	0.944200	-0.162372	0.470341
C128	C	1.277533	0.170962	0.803674
C129	C	1.610867	0.504295	1.137007
C130	C	1.021185	-0.177536	0.529673
C131	C	1.354519	0.155798	0.863007
C132	C	1.687852	0.489131	1.196340
C133	C	0.999897	-0.106865	0.412277
C134	C	1.333230	0.226469	0.745611
C135	C	1.666564	0.559802	1.078944
C136	C	0.922933	-0.091718	0.529687
C137	C	1.256267	0.241615	0.863020
C138	C	1.589600	0.574948	1.196353
C139	C	0.999910	-0.106848	0.587701
C140	C	1.333243	0.226486	0.921035
C141	C	1.666576	0.559819	1.254368
C142	C	1.076923	-0.122064	0.470303
C143	C	1.410256	0.211269	0.803637
C144	C	1.743590	0.544603	1.136970
C145	C	0.978619	-0.036216	0.470311
C146	C	1.311952	0.297118	0.803645
C147	C	1.645286	0.630451	1.136978
C148	C	1.055657	-0.051350	0.529617
C149	C	1.388990	0.281984	0.862950
C150	C	1.722323	0.615317	1.196284
C151	C	0.999888	-0.106877	0.311220
C152	C	1.333222	0.226457	0.644553
C153	C	1.666555	0.559790	0.977887
C154	C	0.999927	-0.106835	0.688756
C155	C	1.333260	0.226498	1.022090
C156	C	1.666593	0.559831	1.355423
H157	H	0.442685	-0.174640	-0.134713
H158	H	0.776019	0.158693	0.198621
H159	H	1.109352	0.492026	0.531954
Cl160	Cl	0.571467	-0.022263	0.168467
Cl161	Cl	0.904800	0.311070	0.501800
Cl162	Cl	1.238133	0.644404	0.835134
Cl163	Cl	0.446290	0.065852	0.000139
Cl164	Cl	0.779623	0.399186	0.333473
Cl165	Cl	1.112957	0.732519	0.666806
Cl166	Cl	0.871564	-0.234899	0.430151
Cl167	Cl	1.204897	0.098434	0.763484
Cl168	Cl	1.538230	0.431767	1.096817
Cl169	Cl	1.160127	0.133467	0.000053
Cl170	Cl	1.493460	0.466800	0.333386
Cl171	Cl	1.826793	0.800133	0.666719
H172	H	1.111486	0.295332	0.000058
H173	H	1.444820	0.628665	0.333392
H174	H	1.778153	0.961999	0.666725
Cl175	Cl	0.822438	-0.071948	0.569961
Cl176	Cl	1.155771	0.261385	0.903295
Cl177	Cl	1.489105	0.594718	1.236628
Cl178	Cl	0.817687	0.091326	0.000010
Cl179	Cl	1.151020	0.424659	0.333343
Cl180	Cl	1.484354	0.757992	0.666676
Cl181	Cl	0.553777	-0.279472	0.000056
Cl182	Cl	0.887110	0.053862	0.333389
Cl183	Cl	1.220444	0.387195	0.666722
Cl184	Cl	0.571723	-0.022231	-0.168268
Cl185	Cl	0.905057	0.311102	0.165066
Cl186	Cl	1.238390	0.644435	0.498399
Cl187	Cl	0.428106	-0.191559	0.168268
Cl188	Cl	0.761439	0.141774	0.501602
Cl189	Cl	1.094772	0.475107	0.834935
Cl190	Cl	1.198789	0.510888	0.000063
Cl191	Cl	1.532122	0.844221	0.333396
Cl192	Cl	1.865455	1.177555	0.666730
Cl193	Cl	1.128467	0.021137	0.569556
Cl194	Cl	1.461800	0.354470	0.902889
Cl195	Cl	1.795134	0.687804	1.236223
H196	H	1.150148	0.672766	0.000110
H197	H	1.483481	1.006100	0.333443
H198	H	1.816814	1.339433	0.666777
Cl199	Cl	0.839670	0.652824	0.000093
Cl200	Cl	1.173004	0.986157	0.333426
Cl201	Cl	1.506337	1.319490	0.666759
Cl202	Cl	0.801009	0.275396	0.000025
Cl203	Cl	1.134342	0.608729	0.333359
Cl204	Cl	1.467675	0.942062	0.666692
Cl205	Cl	0.856346	0.468761	0.000050
Cl206	Cl	1.189680	0.802095	0.333383
Cl207	Cl	1.523013	1.135428	0.666716
Cl208	Cl	1.134173	0.377417	0.000057
Cl209	Cl	1.467507	0.710751	0.333390
Cl210	Cl	1.800840	1.044084	0.666723
Cl211	Cl	0.865620	0.408874	0.000051
Cl212	Cl	1.198954	0.742208	0.333385
Cl213	Cl	1.532287	1.075541	0.666718
Cl214	Cl	1.048991	-0.269766	0.569932
Cl215	Cl	1.382324	0.063567	0.903266
Cl216	Cl	1.715657	0.396901	1.236599
H217	H	1.142034	-0.134939	0.444328
H218	H	1.475367	0.198394	0.777662
H219	H	1.808701	0.531728	1.110995
H220	H	0.960588	0.023504	0.444216
H221	H	1.293921	0.356837	0.777549
H222	H	1.627255	0.690171	1.110883
