data_functionalizedCrystal
_audit_creation_method	'MofGen! by Chris Wilmer'
_symmetry_space_group_name_H-M	'P1'
_symmetry_Int_Tables_number	1
_symmetry_cell_setting	triclinic
loop_
_symmetry_equiv_pos_as_xyz
  x,y,z
_cell_length_a	19.805407
_cell_length_b	18.101395
_cell_length_c	19.805398
_cell_angle_alpha	89.976545
_cell_angle_beta	89.984135
_cell_angle_gamma	90.031104
loop_
_atom_site_label
_atom_site_type_symbol
_atom_site_fract_x
_atom_site_fract_y
_atom_site_fract_z
Zn1	Zn	1.034689	-0.294859	-0.382731
Zn2	Zn	1.284689	-0.044859	-0.132731
Zn3	Zn	1.534689	0.205141	0.117269
Zn4	Zn	1.784689	0.455141	0.367269
Zn5	Zn	1.034602	-0.418699	-0.269548
Zn6	Zn	1.284602	-0.168699	-0.019548
Zn7	Zn	1.534602	0.081301	0.230452
Zn8	Zn	1.784602	0.331301	0.480452
Zn9	Zn	0.921511	-0.294876	-0.269556
Zn10	Zn	1.171511	-0.044876	-0.019556
Zn11	Zn	1.421511	0.205124	0.230444
Zn12	Zn	1.671511	0.455124	0.480444
Zn13	Zn	0.921458	-0.418663	-0.382695
Zn14	Zn	1.171458	-0.168663	-0.132695
Zn15	Zn	1.421458	0.081337	0.117305
Zn16	Zn	1.671458	0.331337	0.367305
O17	O	0.978065	-0.356774	-0.326132
O18	O	1.228065	-0.106774	-0.076132
O19	O	1.478065	0.143226	0.173868
O20	O	1.728065	0.393226	0.423868
O21	O	1.129394	-0.311295	-0.367729
O22	O	1.379394	-0.061295	-0.117729
O23	O	1.629394	0.188705	0.132271
O24	O	1.879394	0.438705	0.382271
O25	O	1.019586	-0.402296	-0.174832
O26	O	1.269586	-0.152296	0.075168
O27	O	1.519586	0.097704	0.325168
O28	O	1.769586	0.347704	0.575168
O29	O	0.936583	-0.191241	-0.284587
O30	O	1.186583	0.058759	-0.034587
O31	O	1.436583	0.308759	0.215413
O32	O	1.686583	0.558759	0.465413
O33	O	1.129330	-0.402279	-0.284574
O34	O	1.379330	-0.152279	-0.034574
O35	O	1.629330	0.097721	0.215426
O36	O	1.879330	0.347721	0.465426
O37	O	1.019734	-0.191228	-0.367737
O38	O	1.269734	0.058772	-0.117737
O39	O	1.519734	0.308772	0.132263
O40	O	1.769734	0.558772	0.382263
O41	O	0.936498	-0.311323	-0.174838
O42	O	1.186498	-0.061323	0.075162
O43	O	1.436498	0.188677	0.325162
O44	O	1.686498	0.438677	0.575162
O45	O	0.826787	-0.311289	-0.284552
O46	O	1.076787	-0.061289	-0.034552
O47	O	1.326787	0.188711	0.215448
O48	O	1.576787	0.438711	0.465448
O49	O	0.936492	-0.402218	-0.477416
O50	O	1.186492	-0.152218	-0.227416
O51	O	1.436492	0.097782	0.022584
O52	O	1.686492	0.347782	0.272584
O53	O	0.826748	-0.402235	-0.367674
O54	O	1.076748	-0.152235	-0.117674
O55	O	1.326748	0.097765	0.132326
O56	O	1.576748	0.347765	0.382326
O57	O	1.019683	-0.311260	-0.477443
O58	O	1.269683	-0.061260	-0.227443
O59	O	1.519683	0.188740	0.022557
O60	O	1.769683	0.438740	0.272557
O61	O	1.019534	-0.522327	-0.284538
O62	O	1.269534	-0.272327	-0.034538
O63	O	1.519534	-0.022327	0.215462
O64	O	1.769534	0.227673	0.465462
O65	O	0.936408	-0.522301	-0.367667
O66	O	1.186408	-0.272301	-0.117667
O67	O	1.436408	-0.022301	0.132333
O68	O	1.686408	0.227699	0.382333
C69	C	0.802209	-0.356760	-0.326110
C70	C	1.052209	-0.106760	-0.076110
C71	C	1.302209	0.143240	0.173890
C72	C	1.552209	0.393240	0.423890
C73	C	0.726977	-0.356772	-0.326117
C74	C	0.976977	-0.106772	-0.076117
C75	C	1.226977	0.143228	0.173883
C76	C	1.476977	0.393228	0.423883
C77	C	0.977974	-0.549185	-0.326112
C78	C	1.227974	-0.299185	-0.076112
C79	C	1.477974	-0.049185	0.173888
C80	C	1.727974	0.200815	0.423888
C81	C	0.977997	-0.631499	-0.326127
C82	C	1.227997	-0.381499	-0.076127
C83	C	1.477997	-0.131499	0.173873
C84	C	1.727997	0.118501	0.423873
C85	C	0.691630	-0.404199	-0.369329
C86	C	0.941630	-0.154199	-0.119329
C87	C	1.191630	0.095801	0.130671
C88	C	1.441630	0.345801	0.380671
C89	C	0.620942	-0.404200	-0.369339
C90	C	0.870942	-0.154200	-0.119339
C91	C	1.120942	0.095800	0.130661
C92	C	1.370942	0.345800	0.380661
C93	C	0.585601	-0.356778	-0.326132
C94	C	0.835601	-0.106778	-0.076132
C95	C	1.085601	0.143222	0.173868
C96	C	1.335601	0.393222	0.423868
C97	C	0.620953	-0.309345	-0.282919
C98	C	0.870953	-0.059345	-0.032919
C99	C	1.120953	0.190655	0.217081
C100	C	1.370953	0.440655	0.467081
C101	C	0.691640	-0.309341	-0.282913
C102	C	0.941640	-0.059341	-0.032913
C103	C	1.191640	0.190659	0.217087
C104	C	1.441640	0.440659	0.467087
C105	C	0.335880	-0.309362	-0.282941
C106	C	0.585880	-0.059362	-0.032941
C107	C	0.835880	0.190638	0.217059
C108	C	1.085880	0.440638	0.467059
C109	C	0.265187	-0.309372	-0.282948
C110	C	0.515187	-0.059372	-0.032948
C111	C	0.765187	0.190628	0.217052
C112	C	1.015187	0.440628	0.467052
C113	C	0.265181	-0.404221	-0.369367
C114	C	0.515181	-0.154221	-0.119367
C115	C	0.765181	0.095779	0.130633
C116	C	1.015181	0.345779	0.380633
C117	C	0.335868	-0.404216	-0.369361
C118	C	0.585868	-0.154216	-0.119361
C119	C	0.835868	0.095784	0.130639
C120	C	1.085868	0.345784	0.380639
C121	C	0.371214	-0.356782	-0.326150
C122	C	0.621214	-0.106782	-0.076150
C123	C	0.871214	0.143218	0.173850
C124	C	1.121214	0.393218	0.423850
C125	C	0.447862	-0.356780	-0.326141
C126	C	0.697862	-0.106780	-0.076141
C127	C	0.947862	0.143220	0.173859
C128	C	1.197862	0.393220	0.423859
C129	C	0.508954	-0.356783	-0.326137
C130	C	0.758954	-0.106783	-0.076137
C131	C	1.008954	0.143217	0.173863
C132	C	1.258954	0.393217	0.423863
C133	C	0.978146	-0.930590	-0.326163
C134	C	1.228146	-0.680590	-0.076163
C135	C	1.478146	-0.430590	0.173837
C136	C	1.728146	-0.180590	0.423837
C137	C	0.925966	-0.899279	-0.378595
C138	C	1.175966	-0.649279	-0.128595
C139	C	1.425966	-0.399279	0.121405
C140	C	1.675966	-0.149279	0.371405
C141	C	0.925718	-0.813661	-0.378431
C142	C	1.175718	-0.563661	-0.128431
C143	C	1.425718	-0.313661	0.121569
C144	C	1.675718	-0.063661	0.371569
C145	C	0.978072	-0.782207	-0.326146
C146	C	1.228072	-0.532207	-0.076146
C147	C	1.478072	-0.282207	0.173854
C148	C	1.728072	-0.032207	0.423854
C149	C	0.958766	-0.813353	-0.254811
C150	C	1.208766	-0.563353	-0.004811
C151	C	1.458766	-0.313353	0.245189
C152	C	1.708766	-0.063353	0.495189
C153	C	0.958430	-0.898999	-0.255125
C154	C	1.208430	-0.648999	-0.005125
C155	C	1.458430	-0.398999	0.244875
C156	C	1.708430	-0.148999	0.494875
C157	C	1.049746	-0.898935	-0.344438
C158	C	1.299746	-0.648935	-0.094438
C159	C	1.549746	-0.398935	0.155562
C160	C	1.799746	-0.148935	0.405562
C161	C	1.049325	-0.813284	-0.346002
C162	C	1.299325	-0.563284	-0.096002
C163	C	1.549325	-0.313284	0.153998
C164	C	1.799325	-0.063284	0.403998
C165	C	0.978032	-0.698348	-0.326131
C166	C	1.228032	-0.448348	-0.076131
C167	C	1.478032	-0.198348	0.173869
C168	C	1.728032	0.051652	0.423869
C169	C	0.978185	-1.014449	-0.326173
C170	C	1.228185	-0.764449	-0.076173
C171	C	1.478185	-0.514449	0.173827
C172	C	1.728185	-0.264449	0.423827
C173	C	1.154607	-0.356789	-0.326155
C174	C	1.404607	-0.106789	-0.076155
C175	C	1.654607	0.143211	0.173845
C176	C	1.904607	0.393211	0.423845
C177	C	1.229839	-0.356795	-0.326164
C178	C	1.479839	-0.106795	-0.076164
C179	C	1.729839	0.143205	0.173836
C180	C	1.979839	0.393205	0.423836
C181	C	0.978091	-0.356733	-0.502675
C182	C	1.228091	-0.106733	-0.252675
C183	C	1.478091	0.143267	-0.002675
C184	C	1.728091	0.393267	0.247325
C185	C	0.978103	-0.356716	-0.577907
C186	C	1.228103	-0.106716	-0.327907
C187	C	1.478103	0.143284	-0.077907
C188	C	1.728103	0.393284	0.172093
C189	C	0.978174	-0.163612	-0.326167
C190	C	1.228174	0.086388	-0.076167
C191	C	1.478174	0.336388	0.173833
C192	C	1.728174	0.586388	0.423833
C193	C	0.978221	-0.081298	-0.326182
C194	C	1.228221	0.168702	-0.076182
C195	C	1.478221	0.418702	0.173818
C196	C	1.728221	0.668702	0.423818
C197	C	1.021501	-0.309223	-1.039714
C198	C	1.271501	-0.059223	-0.789714
C199	C	1.521501	0.190777	-0.539714
C200	C	1.771501	0.440777	-0.289714
C201	C	1.021491	-0.309245	-0.969025
C202	C	1.271491	-0.059245	-0.719025
C203	C	1.521491	0.190755	-0.469025
C204	C	1.771491	0.440755	-0.219025
C205	C	0.978172	-0.356613	-0.933669
C206	C	1.228172	-0.106613	-0.683669
C207	C	1.478172	0.143387	-0.433669
C208	C	1.728172	0.393387	-0.183669
C209	C	0.934866	-0.403966	-0.969005
C210	C	1.184866	-0.153966	-0.719005
C211	C	1.434866	0.096034	-0.469005
C212	C	1.684866	0.346034	-0.219005
C213	C	0.934880	-0.403946	-1.039692
C214	C	1.184880	-0.153946	-0.789692
C215	C	1.434880	0.096054	-0.539692
C216	C	1.684880	0.346054	-0.289692
C217	C	0.934807	-0.404046	-0.683932
C218	C	1.184807	-0.154046	-0.433932
C219	C	1.434807	0.095954	-0.183932
C220	C	1.684807	0.345954	0.066068
C221	C	0.934794	-0.404060	-0.613240
C222	C	1.184794	-0.154060	-0.363240
C223	C	1.434794	0.095940	-0.113240
C224	C	1.684794	0.345940	0.136760
C225	C	1.021417	-0.309345	-0.613264
C226	C	1.271417	-0.059345	-0.363264
C227	C	1.521417	0.190655	-0.113264
C228	C	1.771417	0.440655	0.136736
C229	C	1.021432	-0.309326	-0.683952
C230	C	1.271432	-0.059326	-0.433952
C231	C	1.521432	0.190674	-0.183952
C232	C	1.771432	0.440674	0.066048
C233	C	0.978129	-0.356681	-0.719282
C234	C	1.228129	-0.106681	-0.469282
C235	C	1.478129	0.143319	-0.219282
C236	C	1.728129	0.393319	0.030718
C237	C	0.978142	-0.356657	-0.795930
C238	C	1.228142	-0.106657	-0.545930
C239	C	1.478142	0.143343	-0.295930
C240	C	1.728142	0.393343	-0.045930
C241	C	0.978155	-0.356634	-0.857022
C242	C	1.228155	-0.106634	-0.607022
C243	C	1.478155	0.143366	-0.357022
C244	C	1.728155	0.393366	-0.107022
C245	C	0.978077	-0.356762	-0.150276
C246	C	1.228077	-0.106762	0.099724
C247	C	1.478077	0.143238	0.349724
C248	C	1.728077	0.393238	0.599724
C249	C	0.978197	-0.356570	-0.075045
C250	C	1.228197	-0.106570	0.174955
C251	C	1.478197	0.143430	0.424955
C252	C	1.728197	0.393430	0.674955
H253	H	0.720399	-0.442818	-0.404510
H254	H	0.970399	-0.192818	-0.154510
H255	H	1.220399	0.057182	0.095490
H256	H	1.470399	0.307182	0.345490
F257	F	0.729258	-0.258861	-0.236922
F258	F	0.979258	-0.008861	0.013078
F259	F	1.229258	0.241139	0.263078
F260	F	1.479258	0.491139	0.513078
H261	H	1.056772	-0.270646	-1.068495
H262	H	1.306772	-0.020646	-0.818495
H263	H	1.556772	0.229354	-0.568495
H264	H	1.806772	0.479354	-0.318495
H265	H	1.067349	-0.920487	-0.395569
H266	H	1.317349	-0.670487	-0.145569
H267	H	1.567349	-0.420487	0.104431
H268	H	1.817349	-0.170487	0.354431
H269	H	0.236415	-0.270750	-0.247765
H270	H	0.486415	-0.020750	0.002235
H271	H	0.736415	0.229250	0.252235
H272	H	0.986415	0.479250	0.502235
H273	H	1.063884	-0.792925	-0.398501
H274	H	1.313884	-0.542925	-0.148501
H275	H	1.563884	-0.292925	0.101499
H276	H	1.813884	-0.042925	0.351499
H277	H	0.937797	-0.792601	-0.431325
H278	H	1.187797	-0.542601	-0.181325
H279	H	1.437797	-0.292601	0.068675
H280	H	1.687797	-0.042601	0.318675
H281	H	0.899618	-0.442503	-1.068458
H282	H	1.149618	-0.192503	-0.818458
H283	H	1.399618	0.057497	-0.568458
H284	H	1.649618	0.307497	-0.318458
F285	F	0.227558	-0.454705	-0.415357
F286	F	0.477558	-0.204705	-0.165357
F287	F	0.727558	0.045295	0.084643
F288	F	0.977558	0.295295	0.334643
H289	H	0.995576	-0.792980	-0.214680
H290	H	1.245576	-0.542980	0.035320
H291	H	1.495576	-0.292980	0.285320
H292	H	1.745576	-0.042980	0.535320
F293	F	0.890019	-0.925197	-0.234891
F294	F	1.140019	-0.675197	0.015109
F295	F	1.390019	-0.425197	0.265109
F296	F	1.640019	-0.175197	0.515109
F297	F	1.067582	-0.258851	-0.931426
F298	F	1.317582	-0.008851	-0.681426
F299	F	1.567582	0.241149	-0.431426
F300	F	1.817582	0.491149	-0.181426
F301	F	0.583326	-0.454678	-0.415331
F302	F	0.833326	-0.204678	-0.165331
F303	F	1.083326	0.045322	0.084669
F304	F	1.333326	0.295322	0.334669
F305	F	1.102830	-0.785288	-0.299729
F306	F	1.352830	-0.535288	-0.049729
F307	F	1.602830	-0.285288	0.200271
F308	F	1.852830	-0.035288	0.450271
F309	F	0.888722	-0.454449	-0.721524
F310	F	1.138722	-0.204449	-0.471524
F311	F	1.388722	0.045551	-0.221524
F312	F	1.638722	0.295551	0.028476
H313	H	0.899598	-0.442537	-0.940213
H314	H	1.149598	-0.192537	-0.690213
H315	H	1.399598	0.057463	-0.440213
H316	H	1.649598	0.307463	-0.190213
H317	H	0.937925	-0.919830	-0.431660
H318	H	1.187925	-0.669830	-0.181660
H319	H	1.437925	-0.419830	0.068340
H320	H	1.687925	-0.169830	0.318340
F321	F	1.067542	-0.258916	-0.721576
F322	F	1.317542	-0.008916	-0.471576
F323	F	1.567542	0.241084	-0.221576
F324	F	1.817542	0.491084	0.028424
F325	F	0.888687	-0.454479	-0.575613
F326	F	1.138687	-0.204479	-0.325613
F327	F	1.388687	0.045521	-0.075613
F328	F	1.638687	0.295521	0.174387
F329	F	0.373488	-0.258876	-0.236954
F330	F	0.623488	-0.008876	0.013046
F331	F	0.873488	0.241124	0.263046
F332	F	1.123488	0.491124	0.513046
F333	F	0.857021	-0.927506	-0.362984
F334	F	1.107021	-0.677506	-0.112984
F335	F	1.357021	-0.427506	0.137016
F336	F	1.607021	-0.177506	0.387016
F337	F	1.100562	-0.925411	-0.294532
F338	F	1.350562	-0.675411	-0.044532
F339	F	1.600562	-0.425411	0.205468
F340	F	1.850562	-0.175411	0.455468
F341	F	0.373476	-0.454692	-0.415344
F342	F	0.623476	-0.204692	-0.165344
F343	F	0.873476	0.045308	0.084656
F344	F	1.123476	0.295308	0.334656
F345	F	0.891078	-0.785405	-0.234214
F346	F	1.141078	-0.535405	0.015786
F347	F	1.391078	-0.285405	0.265786
F348	F	1.641078	-0.035405	0.515786
H349	H	0.592173	-0.270730	-0.247742
H350	H	0.842173	-0.020730	0.002258
H351	H	1.092173	0.229270	0.252258
H352	H	1.342173	0.479270	0.502258
H353	H	0.872647	-0.793237	-0.366326
H354	H	1.122647	-0.543237	-0.116326
H355	H	1.372647	-0.293237	0.133674
H356	H	1.622647	-0.043237	0.383674
F357	F	1.067504	-0.258943	-0.575658
F358	F	1.317504	-0.008943	-0.325658
F359	F	1.567504	0.241057	-0.075658
F360	F	1.817504	0.491057	0.174342
H361	H	0.994787	-0.919713	-0.214727
H362	H	1.244787	-0.669713	0.035273
H363	H	1.494787	-0.419713	0.285273
H364	H	1.744787	-0.169713	0.535273
