data_functionalizedCrystal
_audit_creation_method	'MofGen! by Chris Wilmer'
_symmetry_space_group_name_H-M	'P1'
_symmetry_Int_Tables_number	1
_symmetry_cell_setting	triclinic
loop_
_symmetry_equiv_pos_as_xyz
  x,y,z
_cell_length_a	12.811457
_cell_length_b	12.811415
_cell_length_c	11.295483
_cell_angle_alpha	88.701575
_cell_angle_beta	91.289320
_cell_angle_gamma	84.559489
loop_
_atom_site_label
_atom_site_type_symbol
_atom_site_fract_x
_atom_site_fract_y
_atom_site_fract_z
O1	O	1.390744	0.143897	0.035628
O2	O	1.087656	0.156846	0.001497
O3	O	1.245672	-0.001175	0.035632
O4	O	1.232728	0.301917	0.001493
O5	O	1.231793	0.012683	0.230687
O6	O	1.073777	0.170704	0.196552
O7	O	1.376864	0.157754	0.230683
Cu8	Cu	1.224054	0.165494	0.231427
Cu9	Cu	1.240467	0.149106	0.000752
O10	O	1.218849	0.315775	0.196548
C11	C	1.041899	0.162625	0.094956
C12	C	0.926232	0.159185	0.082836
C13	C	0.693751	0.167810	0.272735
C14	C	0.585072	0.164578	0.261353
C15	C	0.600194	0.149481	0.048691
C16	C	0.708873	0.152713	0.060073
C17	C	0.755647	0.161879	0.172099
C18	C	0.864328	0.165119	0.183479
C19	C	0.879448	0.150014	-0.029181
C20	C	0.770769	0.146782	-0.040563
C21	C	1.237582	-0.033065	0.137226
C22	C	1.234141	-0.148733	0.149342
C23	C	1.242789	-0.381185	-0.040567
C24	C	1.239556	-0.489866	-0.029189
C25	C	1.224435	-0.474778	0.183474
C26	C	1.227668	-0.366097	0.172096
C27	C	1.236846	-0.319305	0.060072
C28	C	1.240087	-0.210622	0.048696
C29	C	1.224958	-0.195536	0.261357
C30	C	1.221725	-0.304217	0.272735
C31	C	1.422622	0.151976	0.137221
C32	C	1.538289	0.155415	0.149334
C33	C	1.226939	0.347665	0.094951
C34	C	1.230381	0.463333	0.082828
N35	N	1.212517	0.177020	0.393673
N36	N	1.252012	0.137572	-0.161491
C37	C	1.335061	0.054542	0.669427
C38	C	1.326350	0.063260	0.792208
C39	C	1.186379	0.203168	0.762019
C40	C	1.195090	0.194450	0.639237
C41	C	1.269434	0.120136	0.592947
C42	C	1.278150	0.111424	0.470163
C43	C	1.138175	0.251326	0.439976
C44	C	1.129464	0.260044	0.562757
H45	H	0.902409	0.172589	0.274695
H46	H	0.731834	0.175288	0.363949
H47	H	1.338687	0.050916	0.432475
H48	H	0.534679	0.169413	0.343301
C49	C	0.590255	0.046267	-0.125285
C50	C	0.548772	0.139407	-0.074443
H51	H	0.558505	0.040050	-0.201301
H52	H	0.663829	0.047353	-0.132909
H53	H	0.576548	-0.011771	-0.076132
H54	H	0.562486	0.197446	-0.123592
H55	H	0.475182	0.138329	-0.066825
H56	H	1.216953	-0.512895	0.274678
H57	H	0.732671	0.139314	-0.131771
H58	H	1.395602	-0.005960	0.631737
H59	H	1.214248	-0.342330	0.363941
C60	C	1.004093	0.264742	0.774130
C61	C	1.104654	0.284833	0.812927
H62	H	0.953639	0.315153	0.805569
H63	H	0.999891	0.268960	0.690072
H64	H	0.990547	0.196493	0.800458
H65	H	1.118204	0.353079	0.786591
H66	H	1.108860	0.280625	0.897003
H67	H	0.929855	0.145191	-0.111127
C68	C	0.947182	0.321645	0.574855
C69	C	1.047746	0.341723	0.613653
H70	H	0.896734	0.372069	0.606282
H71	H	0.942984	0.325851	0.490796
H72	H	0.933621	0.253403	0.601194
H73	H	1.061309	0.409962	0.587306
H74	H	1.051947	0.337527	0.697730
H75	H	1.379788	0.009846	0.854477
H76	H	1.247563	-0.172526	-0.042520
C77	C	1.257419	-0.407011	-0.249632
C78	C	1.252881	-0.329743	-0.163698
H79	H	1.263643	-0.375251	-0.325649
H80	H	1.316453	-0.456300	-0.233448
H81	H	1.195225	-0.441872	-0.248090
H82	H	1.315078	-0.294887	-0.165234
H83	H	1.193841	-0.280436	-0.179887
H84	H	1.244391	-0.540245	-0.111140
C85	C	1.223199	-0.022237	0.338351
C86	C	1.218422	-0.127513	0.371989
H87	H	1.219161	0.019755	0.406650
H88	H	1.287445	-0.014750	0.300127
H89	H	1.166218	-0.000316	0.285476
H90	H	1.275408	-0.149436	0.424858
H91	H	1.154169	-0.135005	0.410231
C92	C	1.081854	0.428225	0.376436
C93	C	1.066033	0.323438	0.355907
H94	H	1.037324	0.472744	0.324530
H95	H	1.066024	0.444038	0.456177
H96	H	1.152943	0.438961	0.362501
H97	H	0.994945	0.312700	0.369850
H98	H	1.081856	0.307620	0.276147
