data_functionalizedCrystal
_audit_creation_method	'MofGen! by Chris Wilmer'
_symmetry_space_group_name_H-M	'P1'
_symmetry_Int_Tables_number	1
_symmetry_cell_setting	triclinic
loop_
_symmetry_equiv_pos_as_xyz
  x,y,z
_cell_length_a	19.188930
_cell_length_b	17.699077
_cell_length_c	16.176319
_cell_angle_alpha	89.993140
_cell_angle_beta	89.988074
_cell_angle_gamma	83.212679
loop_
_atom_site_label
_atom_site_type_symbol
_atom_site_fract_x
_atom_site_fract_y
_atom_site_fract_z
O1	O	0.088275	1.003965	-0.068745
O2	O	0.099766	0.783571	-0.068750
O3	O	-0.007628	0.900128	-0.068731
O4	O	0.195669	0.887408	-0.068764
O5	O	-0.007635	0.900112	0.068762
O6	O	0.099759	0.783555	0.068743
O7	O	0.088268	1.003949	0.068748
Cu8	Cu	0.094013	0.893751	0.081300
Cu9	Cu	0.094021	0.893770	-0.081302
O10	O	0.195662	0.887392	0.068729
C11	C	0.099352	0.755367	-0.000004
C12	C	0.098119	0.671350	-0.000005
C13	C	0.097534	0.631875	0.074943
C14	C	0.096364	0.552934	0.074944
C15	C	0.095784	0.513469	-0.000004
C16	C	0.096367	0.552950	-0.074958
C17	C	0.097532	0.631890	-0.074959
C18	C	0.091668	0.234593	-0.074959
C19	C	0.090505	0.155647	-0.074953
C20	C	0.090501	0.155636	0.074944
C21	C	0.091665	0.234577	0.074943
C22	C	0.092244	0.274051	-0.000010
C23	C	0.093512	0.359648	-0.000011
C24	C	0.094522	0.427872	-0.000005
C25	C	-0.033643	0.899708	0.000018
C26	C	-0.111149	0.898472	0.000025
C27	C	-0.155998	0.966864	0.000030
C28	C	-0.228823	0.965702	0.000017
C29	C	-0.256796	0.896145	0.000015
C30	C	-0.211937	0.827744	0.000005
C31	C	-0.139114	0.828907	0.000010
N32	N	-0.364862	0.842971	0.046805
N33	N	-0.434041	0.841870	0.046802
C34	C	-0.476208	0.892634	-0.000002
N35	N	-0.446583	0.944553	-0.046793
N36	N	-0.377397	0.945656	-0.046786
C37	C	-0.335760	0.894875	0.000009
C38	C	-0.600023	0.959771	-0.000012
C39	C	-0.672849	0.958607	-0.000030
C40	C	-0.655962	0.820646	-0.000035
C41	C	-0.583137	0.821813	-0.000024
C42	C	-0.555173	0.891378	-0.000009
C43	C	0.221677	0.887812	-0.000021
C44	C	0.299183	0.889049	-0.000034
C45	C	0.088682	1.032154	0.000000
C46	C	0.089915	1.116171	-0.000004
N47	N	0.094007	0.893743	0.195665
N48	N	0.094022	0.893784	-0.195667
C49	C	0.046472	0.945370	0.238938
C50	C	0.046471	0.945374	0.325485
C51	C	0.094009	0.893754	0.368758
C52	C	0.141546	0.842121	0.325479
C53	C	0.141543	0.842115	0.238934
C54	C	0.141560	0.842147	0.674507
C55	C	0.141560	0.842160	0.761059
C56	C	0.046488	0.945407	0.761058
C57	C	0.046484	0.945400	0.674513
C58	C	0.094019	0.893765	0.631242
C59	C	0.094018	0.893761	0.537398
C60	C	0.094014	0.893761	0.462600
H61	H	0.092141	0.266705	0.135974
H62	H	-0.133234	1.023509	0.000040
C63	C	0.193838	0.785342	0.373077
H64	H	0.187038	0.792744	0.430818
H65	H	0.186316	0.734855	0.358910
H66	H	0.240428	0.793409	0.358874
H67	H	0.007780	0.987448	0.796299
H68	H	-0.546620	0.766121	-0.000024
C69	C	0.098173	0.675283	0.157385
H70	H	0.098957	0.727950	0.146654
H71	H	0.057282	0.668252	0.188189
H72	H	0.138686	0.656430	0.188172
C73	C	0.193834	0.785328	0.191334
H74	H	0.222152	0.754590	0.229499
H75	H	0.168754	0.753906	0.157587
H76	H	0.222868	0.812457	0.157558
H77	H	-0.265345	1.021397	0.000018
H78	H	-0.709365	1.014302	-0.000030
H79	H	0.090032	0.123517	-0.135989
C80	C	0.095726	0.509513	0.157388
H81	H	0.096248	0.544322	0.202023
H82	H	0.054573	0.484628	0.160517
H83	H	0.135977	0.472809	0.160492
C84	C	-0.242701	0.751231	-0.000001
H85	H	-0.205558	0.710664	-0.000011
H86	H	-0.270769	0.747899	0.047943
H87	H	-0.270748	0.747920	-0.047957
H88	H	-0.102597	0.773213	0.000005
C89	C	-0.686720	0.744132	-0.000040
H90	H	-0.649576	0.703566	-0.000046
H91	H	-0.714790	0.740803	0.047902
H92	H	-0.714764	0.740819	-0.047998
H93	H	0.007764	0.987408	0.203710
C94	C	0.089916	0.112205	0.157393
H95	H	0.089150	0.059537	0.146663
H96	H	0.130825	0.119250	0.188134
H97	H	0.049420	0.131025	0.188240
C98	C	0.092313	0.278004	-0.157405
H99	H	0.091809	0.243191	-0.202038
H100	H	0.052068	0.314709	-0.160519
H101	H	0.133472	0.302888	-0.160527
C102	C	0.098176	0.675316	-0.157400
H103	H	0.098946	0.727983	-0.146666
H104	H	0.138685	0.656475	-0.188205
H105	H	0.057281	0.668292	-0.188185
H106	H	0.007764	0.987412	0.360717
H107	H	0.095889	0.520812	-0.135983
H108	H	0.007777	0.987436	0.639283
H109	H	-0.577253	1.016415	-0.000003
H110	H	0.180273	0.800121	0.796290
H111	H	0.180265	0.800106	0.639283
