data_functionalizedCrystal
_audit_creation_method	'MofGen! by Chris Wilmer'
_symmetry_space_group_name_H-M	'P1'
_symmetry_Int_Tables_number	1
_symmetry_cell_setting	triclinic
loop_
_symmetry_equiv_pos_as_xyz
  x,y,z
_cell_length_a	13.101039
_cell_length_b	14.519709
_cell_length_c	14.519709
_cell_angle_alpha	96.319855
_cell_angle_beta	86.632446
_cell_angle_gamma	86.641741
loop_
_atom_site_label
_atom_site_type_symbol
_atom_site_fract_x
_atom_site_fract_y
_atom_site_fract_z
O1	O	0.085083	-1.228925	0.115817
O2	O	0.085114	-0.960450	0.130052
O3	O	0.085088	-1.101805	-0.011303
O4	O	0.085109	-1.087569	0.257173
O5	O	-0.085340	-1.091663	-0.001144
O6	O	-0.085314	-0.950308	0.140211
O7	O	-0.085345	-1.218783	0.125976
Zn8	Zn	-0.112389	-1.082935	0.134707
Zn9	Zn	0.112158	-1.096297	0.121322
O10	O	-0.085319	-1.077427	0.267331
C11	C	-0.000096	-0.921019	0.134468
C12	C	-0.000084	-0.818638	0.132479
N13	N	-0.265635	-1.073822	0.143841
C14	C	-0.000126	-1.096070	-0.040583
C15	C	-0.000126	-1.094082	-0.142965
C16	C	-0.474676	-1.061423	0.156277
C17	C	-0.525562	-1.117813	0.099747
C18	C	-0.641879	-1.110914	0.106667
C19	C	-0.358348	-1.068321	0.149358
N20	N	0.265405	-1.105418	0.112180
C21	C	-0.000133	-1.258213	0.121560
C22	C	-0.000138	-1.360594	0.123549
C23	C	-0.000131	-0.443740	0.125162
C24	C	-0.000118	-0.548049	0.127194
C25	C	-0.000107	-0.631186	0.128820
C26	C	-0.000095	-0.735501	0.130853
C27	C	-0.000098	-1.086764	-0.517862
C28	C	-0.000106	-1.088796	-0.413554
C29	C	-0.000113	-1.090423	-0.330417
C30	C	-0.000119	-1.092456	-0.226102
C31	C	-0.000103	-1.083162	0.296612
C32	C	-0.000096	-1.085151	0.398992
H33	H	-0.518463	-1.007970	0.209866
C34	C	-0.467358	-1.188982	0.028055
C35	C	-0.493498	-1.172083	-0.060971
C36	C	-0.439944	-1.237613	-0.127073
H37	H	-0.484876	-1.249588	0.038977
H38	H	-0.395772	-1.184279	0.032672
H39	H	-0.565068	-1.176795	-0.065586
H40	H	-0.475977	-1.111489	-0.071923
H41	H	-0.368358	-1.232909	-0.122455
H42	H	-0.457466	-1.298214	-0.116142
H43	H	-0.457665	-1.226150	-0.187484
