data_functionalizedCrystal
_audit_creation_method	'MofGen! by Chris Wilmer'
_symmetry_space_group_name_H-M	'P1'
_symmetry_Int_Tables_number	1
_symmetry_cell_setting	triclinic
loop_
_symmetry_equiv_pos_as_xyz
  x,y,z
_cell_length_a	23.532407
_cell_length_b	15.944551
_cell_length_c	14.421503
_cell_angle_alpha	89.996660
_cell_angle_beta	90.002238
_cell_angle_gamma	83.173708
loop_
_atom_site_label
_atom_site_type_symbol
_atom_site_fract_x
_atom_site_fract_y
_atom_site_fract_z
O1	O	-0.755658	-0.101953	-0.076998
O2	O	-0.505658	0.148047	0.173002
O3	O	-0.255658	0.398047	0.423002
O4	O	-0.005658	0.648047	0.673002
O5	O	-0.589852	-0.116706	-0.077025
O6	O	-0.339852	0.133294	0.172975
O7	O	-0.089852	0.383294	0.422975
O8	O	0.160148	0.633294	0.672975
O9	O	-0.677283	0.012983	-0.077003
O10	O	-0.427283	0.262983	0.172997
O11	O	-0.177283	0.512983	0.422997
O12	O	0.072717	0.762983	0.672997
O13	O	-0.668227	-0.231642	-0.077021
O14	O	-0.418227	0.018358	0.172979
O15	O	-0.168227	0.268358	0.422979
O16	O	0.081773	0.518358	0.672979
O17	O	-0.677268	0.012964	0.077221
O18	O	-0.427268	0.262964	0.327221
O19	O	-0.177268	0.512964	0.577221
O20	O	0.072732	0.762964	0.827221
O21	O	-0.589837	-0.116726	0.077198
O22	O	-0.339837	0.133274	0.327198
O23	O	-0.089837	0.383274	0.577198
O24	O	0.160163	0.633274	0.827198
O25	O	-0.755643	-0.101972	0.077225
O26	O	-0.505643	0.148028	0.327225
O27	O	-0.255643	0.398028	0.577225
O28	O	-0.005643	0.648028	0.827225
Cu29	Cu	-0.672739	-0.109351	0.091294
Cu30	Cu	-0.422739	0.140649	0.341294
Cu31	Cu	-0.172739	0.390649	0.591294
Cu32	Cu	0.077261	0.640649	0.841294
Cu33	Cu	-0.672756	-0.109328	-0.091094
Cu34	Cu	-0.422756	0.140672	0.158906
Cu35	Cu	-0.172756	0.390672	0.408906
Cu36	Cu	0.077244	0.640672	0.658906
O37	O	-0.668213	-0.231662	0.077203
O38	O	-0.418213	0.018338	0.327203
O39	O	-0.168213	0.268338	0.577203
O40	O	0.081787	0.518338	0.827203
C41	C	-0.568627	-0.116340	0.000083
C42	C	-0.318627	0.133660	0.250083
C43	C	-0.068627	0.383660	0.500083
C44	C	0.181373	0.633660	0.750083
C45	C	-0.505406	-0.115211	0.000073
C46	C	-0.255406	0.134789	0.250073
C47	C	-0.005406	0.384789	0.500073
C48	C	0.244594	0.634789	0.750073
C49	C	-0.776868	-0.102338	0.000115
C50	C	-0.526868	0.147662	0.250115
C51	C	-0.276868	0.397662	0.500115
C52	C	-0.026868	0.647662	0.750115
C53	C	-0.840090	-0.103468	0.000119
C54	C	-0.590090	0.146532	0.250119
C55	C	-0.340090	0.396532	0.500119
C56	C	-0.090090	0.646532	0.750119
C57	C	-0.106572	-0.184874	0.000109
C58	C	0.143428	0.065126	0.250109
C59	C	0.393428	0.315126	0.500109
C60	C	0.643428	0.565126	0.750109
C61	C	-0.047168	-0.183824	0.000115
C62	C	0.202832	0.066176	0.250115
C63	C	0.452832	0.316176	0.500115
C64	C	0.702832	0.566176	0.750115
O65	O	-0.010674	-0.248403	0.000144
O66	O	0.239326	0.001597	0.250144
O67	O	0.489326	0.251597	0.500144
O68	O	0.739326	0.501597	0.750144
N69	N	-0.024243	-0.106724	0.000119
N70	N	0.225757	0.143276	0.250119
N71	N	0.475757	0.393276	0.500119
N72	N	0.725757	0.643276	0.750119
C73	C	-0.060726	-0.030668	0.000127
C74	C	0.189274	0.219332	0.250127
C75	C	0.439274	0.469332	0.500127
C76	C	0.689274	0.719332	0.750127
O77	O	-0.035772	0.035009	0.000132
O78	O	0.214228	0.285009	0.250132
O79	O	0.464228	0.535009	0.500132
O80	O	0.714228	0.785009	0.750132
C81	C	-0.120129	-0.031718	0.000128
C82	C	0.129871	0.218282	0.250128
C83	C	0.379871	0.468282	0.500128
C84	C	0.629871	0.718282	0.750128
C85	C	-0.143051	-0.108823	0.000114
C86	C	0.106949	0.141177	0.250114
C87	C	0.356949	0.391177	0.500114
C88	C	0.606949	0.641177	0.750114
C89	C	-0.129494	-0.261973	0.000097
C90	C	0.120506	-0.011973	0.250097
C91	C	0.370506	0.238027	0.500097
C92	C	0.620506	0.488027	0.750097
C93	C	-0.188894	-0.263022	0.000089
C94	C	0.061106	-0.013022	0.250089
C95	C	0.311106	0.236978	0.500089
C96	C	0.561106	0.486978	0.750089
C97	C	-0.225373	-0.186971	0.000094
C98	C	0.024627	0.063029	0.250094
C99	C	0.274627	0.313029	0.500094
C100	C	0.524627	0.563029	0.750094
C101	C	-0.202451	-0.109872	0.000107
C102	C	0.047549	0.140128	0.250107
C103	C	0.297549	0.390128	0.500107
C104	C	0.547549	0.640128	0.750107
C105	C	-0.156611	0.044337	0.000143
C106	C	0.093389	0.294337	0.250143
C107	C	0.343389	0.544337	0.500143
C108	C	0.593389	0.794337	0.750143
C109	C	-0.216018	0.043281	0.000144
C110	C	0.033982	0.293281	0.250144
C111	C	0.283982	0.543281	0.500144
C112	C	0.533982	0.793281	0.750144
C113	C	-0.238939	-0.033825	0.000131
C114	C	0.011061	0.216175	0.250131
C115	C	0.261061	0.466175	0.500131
C116	C	0.511061	0.716175	0.750131
C117	C	-0.298329	-0.034871	0.000105
C118	C	-0.048329	0.215129	0.250105
C119	C	0.201671	0.465129	0.500105
C120	C	0.451671	0.715129	0.750105
N121	N	-0.321254	-0.111971	0.000100
N122	N	-0.071254	0.138029	0.250100
N123	N	0.178746	0.388029	0.500100
N124	N	0.428746	0.638029	0.750100
C125	C	-0.284776	-0.188022	0.000095
C126	C	-0.034776	0.061978	0.250095
C127	C	0.215224	0.311978	0.500095
C128	C	0.465224	0.561978	0.750095
C129	C	0.064025	-0.028468	0.000127
C130	C	0.314025	0.221532	0.250127
C131	C	0.564025	0.471532	0.500127
C132	C	0.814025	0.721532	0.750127
C133	C	0.123427	-0.027417	0.000119
C134	C	0.373427	0.222583	0.250119
C135	C	0.623427	0.472583	0.500119
C136	C	0.873427	0.722583	0.750119
C137	C	0.136981	-0.180574	0.000109
C138	C	0.386981	0.069426	0.250109
C139	C	0.636981	0.319426	0.500109
C140	C	0.886981	0.569426	0.750109
C141	C	0.077578	-0.181624	0.000110
C142	C	0.327578	0.068376	0.250110
C143	C	0.577578	0.318376	0.500110
C144	C	0.827578	0.568376	0.750110
C145	C	0.041100	-0.105569	0.000123
C146	C	0.291100	0.144431	0.250123
C147	C	0.541100	0.394431	0.500123
C148	C	0.791100	0.644431	0.750123
C149	C	-0.409521	-0.190219	0.000079
C150	C	-0.159521	0.059781	0.250079
C151	C	0.090479	0.309781	0.500079
C152	C	0.340479	0.559781	0.750079
C153	C	-0.468927	-0.191261	0.000067
C154	C	-0.218927	0.058739	0.250067
C155	C	0.031073	0.308739	0.500067
C156	C	0.281073	0.558739	0.750067
C157	C	-0.482476	-0.038104	0.000083
C158	C	-0.232476	0.211896	0.250083
C159	C	0.017524	0.461896	0.500083
C160	C	0.267524	0.711896	0.750083
C161	C	-0.423075	-0.037062	0.000089
C162	C	-0.173075	0.212938	0.250089
C163	C	0.076925	0.462938	0.500089
C164	C	0.326925	0.712938	0.750089
C165	C	-0.386599	-0.113126	0.000090
C166	C	-0.136599	0.136874	0.250090
C167	C	0.113401	0.386874	0.500090
C168	C	0.363401	0.636874	0.750090
O169	O	-0.334859	0.029673	0.000080
O170	O	-0.084859	0.279673	0.250080
O171	O	0.165141	0.529673	0.500080
O172	O	0.415141	0.779673	0.750080
O173	O	-0.309738	-0.253687	0.000103
O174	O	-0.059738	-0.003687	0.250103
O175	O	0.190262	0.246313	0.500103
O176	O	0.440262	0.496313	0.750103
C177	C	-0.676899	0.044265	0.000109
C178	C	-0.426899	0.294265	0.250109
C179	C	-0.176899	0.544265	0.500109
C180	C	0.073101	0.794265	0.750109
C181	C	-0.675772	0.137501	0.000110
C182	C	-0.425772	0.387501	0.250110
C183	C	-0.175772	0.637501	0.500110
C184	C	0.074228	0.887501	0.750110
C185	C	-0.668596	-0.262943	0.000089
C186	C	-0.418596	-0.012943	0.250089
C187	C	-0.168596	0.237057	0.500089
C188	C	0.081404	0.487057	0.750089
C189	C	-0.669723	-0.356179	0.000082
C190	C	-0.419723	-0.106179	0.250082
C191	C	-0.169723	0.143821	0.500082
C192	C	0.080277	0.393821	0.750082
N193	N	-0.672731	-0.109366	0.219575
N194	N	-0.422731	0.140634	0.469575
N195	N	-0.172731	0.390634	0.719575
N196	N	0.077269	0.640634	0.969575
C197	C	-0.618885	0.351879	0.000087
C198	C	-0.368885	0.601879	0.250087
C199	C	-0.118885	0.851879	0.500087
C200	C	0.131115	1.101879	0.750087
C201	C	-0.645294	0.413109	0.076133
C202	C	-0.395294	0.663109	0.326133
C203	C	-0.145294	0.913109	0.576133
C204	C	0.104706	1.163109	0.826133
C205	C	-0.673733	0.308210	0.000102
C206	C	-0.423733	0.558210	0.250102
C207	C	-0.173733	0.808210	0.500102
C208	C	0.076267	1.058210	0.750102
C209	C	-0.645322	0.413111	-0.075919
C210	C	-0.395322	0.663111	0.174081
C211	C	-0.145322	0.913111	0.424081
C212	C	0.104678	1.163111	0.674081
C213	C	-0.671760	0.473106	0.000091
C214	C	-0.421760	0.723106	0.250091
C215	C	-0.171760	0.973106	0.500091
C216	C	0.078240	1.223106	0.750091
C217	C	-0.700158	0.368212	0.076211
C218	C	-0.450158	0.618212	0.326211
C219	C	-0.200158	0.868212	0.576211
C220	C	0.049842	1.118212	0.826211
C221	C	-0.700178	0.368208	-0.075910
C222	C	-0.450178	0.618208	0.174090
C223	C	-0.200178	0.868208	0.424090
C224	C	0.049822	1.118208	0.674090
C225	C	-0.726627	0.429421	0.000155
C226	C	-0.476627	0.679421	0.250155
C227	C	-0.226627	0.929421	0.500155
C228	C	0.023373	1.179421	0.750155
C229	C	-0.674869	0.213217	0.000109
C230	C	-0.424869	0.463217	0.250109
C231	C	-0.174869	0.713217	0.500109
C232	C	0.075131	0.963217	0.750109
C233	C	-0.670629	0.568097	0.000090
C234	C	-0.420629	0.818097	0.250090
C235	C	-0.170629	1.068097	0.500090
C236	C	0.079371	1.318097	0.750090
N237	N	-0.672769	-0.109306	-0.219375
N238	N	-0.422769	0.140694	0.030625
N239	N	-0.172769	0.390694	0.280625
N240	N	0.077231	0.640694	0.530625
C241	C	-0.632296	-0.169308	0.469218
C242	C	-0.382296	0.080692	0.719218
C243	C	-0.132296	0.330692	0.969218
C244	C	0.117704	0.580692	1.219218
C245	C	-0.683757	-0.185182	0.531028
C246	C	-0.433757	0.064818	0.781028
C247	C	-0.183757	0.314818	1.031028
C248	C	0.066243	0.564818	1.281028
C249	C	-0.672745	-0.109346	0.408736
C250	C	-0.422745	0.140654	0.658736
C251	C	-0.172745	0.390654	0.908736
C252	C	0.077255	0.640654	1.158736
C253	C	-0.621298	-0.093492	0.531020
C254	C	-0.371298	0.156508	0.781020
C255	C	-0.121298	0.406508	1.031020
C256	C	0.128702	0.656508	1.281020
C257	C	-0.672754	-0.109328	0.591458
C258	C	-0.422754	0.140672	0.841458
C259	C	-0.172754	0.390672	1.091458
C260	C	0.077246	0.640672	1.341458
C261	C	-0.724232	-0.125257	0.469185
C262	C	-0.474232	0.124743	0.719185
C263	C	-0.224232	0.374743	0.969185
C264	C	0.025768	0.624743	1.219185
C265	C	-0.661739	-0.033535	0.469172
C266	C	-0.411739	0.216465	0.719172
C267	C	-0.161739	0.466465	0.969172
C268	C	0.088261	0.716465	1.219172
C269	C	-0.713237	-0.049376	0.530954
C270	C	-0.463237	0.200624	0.780954
C271	C	-0.213237	0.450624	1.030954
C272	C	0.036763	0.700624	1.280954
C273	C	-0.672739	-0.109358	0.303475
C274	C	-0.422739	0.140642	0.553475
C275	C	-0.172739	0.390642	0.803475
C276	C	0.077261	0.640642	1.053475
C277	C	-0.672766	-0.109315	0.696717
C278	C	-0.422766	0.140685	0.946717
C279	C	-0.172766	0.390685	1.196717
C280	C	0.077234	0.640685	1.446717
H281	H	-0.487586	-0.254052	0.000056
H282	H	-0.237586	-0.004052	0.250056
H283	H	0.012414	0.245948	0.500056
H284	H	0.262414	0.495948	0.750056
H285	H	-0.137960	0.107125	0.000154
H286	H	0.112040	0.357125	0.250154
H287	H	0.362040	0.607125	0.500154
H288	H	0.612040	0.857125	0.750154
H289	H	-0.573358	0.318187	0.000156
H290	H	-0.323358	0.568187	0.250156
H291	H	-0.073358	0.818187	0.500156
H292	H	0.176642	1.068187	0.750156
H293	H	-0.652405	0.030549	0.441981
H294	H	-0.402405	0.280549	0.691981
H295	H	-0.152405	0.530549	0.941981
H296	H	0.097595	0.780549	1.191981
Cl297	Cl	-0.791427	-0.146065	0.427432
Cl298	Cl	-0.541427	0.103935	0.677432
Cl299	Cl	-0.291427	0.353935	0.927432
Cl300	Cl	-0.041427	0.603935	1.177432
H301	H	-0.207551	-0.325809	0.000078
H302	H	0.042449	-0.075809	0.250078
H303	H	0.292449	0.174191	0.500078
H304	H	0.542449	0.424191	0.750078
H305	H	-0.693074	-0.249286	0.558197
H306	H	-0.443074	0.000714	0.808197
H307	H	-0.193074	0.250714	1.058197
H308	H	0.056926	0.500714	1.308197
Cl309	Cl	-0.579538	-0.247655	0.427360
Cl310	Cl	-0.329538	0.002345	0.677360
Cl311	Cl	-0.079538	0.252345	0.927360
Cl312	Cl	0.170462	0.502345	1.177360
Cl313	Cl	-0.796978	0.481213	0.000229
Cl314	Cl	-0.546978	0.731213	0.250229
Cl315	Cl	-0.296978	0.981213	0.500229
Cl316	Cl	-0.046978	1.231213	0.750229
H317	H	-0.245716	0.105216	0.000155
H318	H	0.004284	0.355216	0.250155
H319	H	0.254284	0.605216	0.500155
H320	H	0.504284	0.855216	0.750155
Cl321	Cl	-0.735974	0.337439	-0.175164
Cl322	Cl	-0.485974	0.587439	0.074836
Cl323	Cl	-0.235974	0.837439	0.324836
Cl324	Cl	0.014026	1.087439	0.574836
Cl325	Cl	-0.766110	0.028929	0.572551
Cl326	Cl	-0.516110	0.278929	0.822551
Cl327	Cl	-0.266110	0.528929	1.072551
Cl328	Cl	-0.016110	0.778929	1.322551
Cl329	Cl	-0.609499	0.443841	-0.175172
Cl330	Cl	-0.359499	0.693841	0.074828
Cl331	Cl	-0.109499	0.943841	0.324828
Cl332	Cl	0.140501	1.193841	0.574828
H333	H	-0.577786	-0.080090	0.558184
H334	H	-0.327786	0.169910	0.808184
H335	H	-0.077786	0.419910	1.058184
H336	H	0.172214	0.669910	1.308184
H337	H	-0.379828	-0.252157	0.000083
H338	H	-0.129828	-0.002157	0.250083
H339	H	0.120172	0.247843	0.500083
H340	H	0.370172	0.497843	0.750083
H341	H	-0.099799	-0.323906	0.000096
H342	H	0.150201	-0.073906	0.250096
H343	H	0.400201	0.176094	0.500096
H344	H	0.650201	0.426094	0.750096
H345	H	0.166693	-0.242498	0.000109
H346	H	0.416693	0.007502	0.250109
H347	H	0.666693	0.257502	0.500109
H348	H	0.916693	0.507502	0.750109
Cl349	Cl	0.048769	-0.278560	0.000096
Cl350	Cl	0.298769	-0.028560	0.250096
Cl351	Cl	0.548769	0.221440	0.500096
Cl352	Cl	0.798769	0.471440	0.750096
H353	H	0.142084	0.035370	0.000116
H354	H	0.392084	0.285370	0.250116
H355	H	0.642084	0.535370	0.500116
H356	H	0.892084	0.785370	0.750116
H357	H	-0.404412	0.025724	0.000087
H358	H	-0.154412	0.275724	0.250087
H359	H	0.095588	0.525724	0.500087
H360	H	0.345588	0.775724	0.750087
Cl361	Cl	0.018172	0.067155	0.000132
Cl362	Cl	0.268172	0.317155	0.250132
Cl363	Cl	0.518172	0.567155	0.500132
Cl364	Cl	0.768172	0.817155	0.750132
Cl365	Cl	-0.528345	0.057496	0.000093
Cl366	Cl	-0.278345	0.307496	0.250093
Cl367	Cl	-0.028345	0.557496	0.500093
Cl368	Cl	0.221655	0.807496	0.750093
H369	H	-0.723331	0.348409	0.140572
H370	H	-0.473331	0.598409	0.390572
H371	H	-0.223331	0.848409	0.640572
H372	H	0.026669	1.098409	0.890572
Cl373	Cl	-0.609470	0.443842	0.175382
Cl374	Cl	-0.359470	0.693842	0.425382
Cl375	Cl	-0.109470	0.943842	0.675382
Cl376	Cl	0.140530	1.193842	0.925382
