data_functionalizedCrystal
_audit_creation_method	'MofGen! by Chris Wilmer'
_symmetry_space_group_name_H-M	'P1'
_symmetry_Int_Tables_number	1
_symmetry_cell_setting	triclinic
loop_
_symmetry_equiv_pos_as_xyz
  x,y,z
_cell_length_a	10.489746
_cell_length_b	10.489741
_cell_length_c	9.130313
_cell_angle_alpha	89.999004
_cell_angle_beta	90.002668
_cell_angle_gamma	84.540238
loop_
_atom_site_label
_atom_site_type_symbol
_atom_site_fract_x
_atom_site_fract_y
_atom_site_fract_z
O1	O	1.694043	0.179994	-0.121700
O2	O	1.322848	0.196880	-0.121724
O3	O	1.516892	0.002839	-0.121703
O4	O	1.499999	0.374034	-0.121721
O5	O	1.516889	0.002844	0.121896
O6	O	1.322845	0.196885	0.121874
O7	O	1.694040	0.179999	0.121899
Cu8	Cu	1.508443	0.188442	0.144129
Cu9	Cu	1.508445	0.188436	-0.143955
O10	O	1.499996	0.374040	0.121877
C11	C	1.275315	0.195606	0.000072
C12	C	1.133686	0.191786	0.000063
C13	C	1.515614	-0.044690	0.000096
C14	C	1.511797	-0.186320	0.000093
C15	C	0.980828	0.066062	0.000090
C16	C	1.058221	0.128921	0.120189
C17	C	1.058179	0.128946	-0.119980
C18	C	0.958729	0.247903	0.120298
C19	C	0.958682	0.247910	-0.119980
C20	C	1.036025	0.310856	0.000149
C21	C	1.388333	-0.254462	0.000074
C22	C	1.446655	-0.346581	0.120184
C23	C	1.446687	-0.346561	-0.119985
C24	C	1.570170	-0.276573	0.120302
C25	C	1.570185	-0.276543	-0.119975
C26	C	1.628597	-0.368635	0.000165
C27	C	1.741573	0.181273	0.000099
C28	C	1.883202	0.185093	0.000099
C29	C	1.501273	0.421569	0.000076
C30	C	1.505091	0.563198	0.000069
N31	N	1.508450	0.188446	0.346752
N32	N	1.508448	0.188423	-0.346577
C33	C	1.594395	0.102554	0.423413
C34	C	1.594391	0.102539	0.576750
C35	C	1.422494	0.274318	0.576750
C36	C	1.422492	0.274327	0.423416
C37	C	1.680352	0.016674	0.346749
C38	C	1.766305	-0.069224	0.423410
C39	C	1.766302	-0.069239	0.576747
C40	C	1.680345	0.016643	0.653422
H41	H	0.956107	-0.037439	0.000216
H42	H	1.680341	0.016615	0.778280
O43	O	1.639312	-0.235752	0.254967
H44	H	1.573701	-0.168879	0.320503
H45	H	1.286821	-0.204813	0.000188
O46	O	1.329768	0.366943	0.340726
H47	H	1.344190	0.352499	0.221225
O48	O	1.858987	-0.161861	0.340701
H49	H	1.958576	-0.144656	0.370134
H50	H	1.836279	-0.139189	0.639163
H51	H	1.352513	0.344242	0.639189
O52	O	1.115866	0.062364	0.254665
H53	H	1.094209	-0.039168	0.254417
H54	H	0.915449	0.298120	0.221950
O55	O	0.901053	0.314406	-0.254490
H56	H	0.832865	0.396548	-0.220703
O57	O	1.377478	-0.387603	-0.254499
H58	H	1.277774	-0.341438	-0.254240
O59	O	1.068472	0.448050	0.000221
H60	H	1.028283	0.497152	0.100017
H61	H	1.622382	-0.245500	-0.221518
H62	H	1.101622	0.078673	-0.221518
O63	O	1.680348	0.016674	0.181365
H64	H	1.775820	0.038011	0.140939
O65	O	1.377472	-0.387661	0.254693
H66	H	1.277760	-0.341516	0.254446
H67	H	1.730200	-0.418057	0.000239
