data_functionalizedCrystal
_audit_creation_method	'MofGen! by Chris Wilmer'
_symmetry_space_group_name_H-M	'P1'
_symmetry_Int_Tables_number	1
_symmetry_cell_setting	triclinic
loop_
_symmetry_equiv_pos_as_xyz
  x,y,z
_cell_length_a	12.759395
_cell_length_b	12.759394
_cell_length_c	12.759387
_cell_angle_alpha	89.968340
_cell_angle_beta	90.021426
_cell_angle_gamma	89.984475
loop_
_atom_site_label
_atom_site_type_symbol
_atom_site_fract_x
_atom_site_fract_y
_atom_site_fract_z
Zn1	Zn	1.606268	0.418192	0.594025
Zn2	Zn	1.606158	0.593909	0.418342
Zn3	Zn	1.430566	0.418246	0.418359
Zn4	Zn	1.430558	0.593831	0.593979
O5	O	1.518387	0.506045	0.506176
O6	O	1.753274	0.441511	0.570732
O7	O	1.582823	0.570662	0.271323
O8	O	1.453922	0.271218	0.441687
O9	O	1.753194	0.570609	0.441659
O10	O	1.583010	0.271178	0.570748
O11	O	1.453816	0.441604	0.271335
O12	O	1.283544	0.441529	0.441643
O13	O	1.453909	0.570477	0.741006
O14	O	1.283538	0.570530	0.570670
O15	O	1.583002	0.441436	0.741040
O16	O	1.582815	0.740920	0.441615
O17	O	1.453802	0.740863	0.570654
C18	C	1.245420	0.506028	0.506154
C19	C	1.128643	0.506046	0.506169
C20	C	0.909252	0.640617	0.640348
C21	C	0.964140	0.707880	0.707412
C22	C	1.073862	0.707867	0.707399
C23	C	1.128698	0.640586	0.640311
C24	C	1.073810	0.573322	0.573247
C25	C	0.964086	0.573340	0.573270
C26	C	1.073755	0.438782	0.439104
C27	C	0.964033	0.438788	0.439122
C28	C	1.128591	0.371501	0.372017
C29	C	1.073703	0.304231	0.304956
C30	C	0.963975	0.304245	0.304973
C31	C	0.909145	0.371525	0.372057
C32	C	1.518324	0.779012	0.506151
C33	C	1.518393	0.895789	0.506175
C34	C	1.518467	0.505942	0.780210
C35	C	1.518500	0.505898	0.896986
C36	C	1.792421	0.506062	0.506199
C37	C	1.909197	0.506070	0.506209
C38	C	1.518479	0.232011	0.506224
C39	C	1.518518	0.115234	0.506245
C40	C	1.652835	0.895795	0.371907
C41	C	1.720083	0.950658	0.304785
C42	C	1.720145	1.060380	0.304814
C43	C	1.652953	1.115240	0.371974
C44	C	1.585705	1.060377	0.439095
C45	C	1.585648	0.950653	0.439057
C46	C	1.451270	1.060371	0.573367
C47	C	1.451202	0.950649	0.573334
C48	C	1.384079	1.115231	0.640526
C49	C	1.316823	1.060368	0.707644
C50	C	1.316764	0.950639	0.707612
C51	C	1.383954	0.895786	0.640456
C52	C	1.518369	0.506071	0.233209
C53	C	1.518538	0.505819	0.116432
C54	C	1.652934	0.371535	0.897041
C55	C	1.720166	0.304339	0.951930
C56	C	1.720192	0.304300	1.061651
C57	C	1.652976	0.371464	1.116487
C58	C	1.585744	0.438661	1.061599
C59	C	1.585728	0.438694	0.951875
C60	C	1.451307	0.573016	1.061544
C61	C	1.451285	0.573061	0.951822
C62	C	1.384091	0.640180	1.116380
C63	C	1.316863	0.707384	1.061492
C64	C	1.316841	0.707420	0.951763
C65	C	1.384053	0.640258	0.896934
H66	H	1.218039	0.640590	0.640297
H67	H	1.262006	0.905975	0.762275
H68	H	1.652930	0.371570	0.807700
H69	H	1.653018	1.204581	0.372000
H70	H	1.262082	0.762129	0.907080
O71	O	1.246934	0.371496	0.371989
H72	H	1.275917	0.350346	0.451260
O73	O	1.384130	1.233574	0.640555
H74	H	1.442168	1.262510	0.582590
O75	O	0.790909	0.640637	0.640350
H76	H	0.762000	0.698728	0.698255
H77	H	1.652778	0.806454	0.371863
O78	O	1.132842	0.231667	0.232605
H79	H	1.218359	0.242959	0.243863
H80	H	1.652994	0.371418	1.205828
O81	O	0.905000	0.780442	0.779775
H82	H	0.819482	0.769146	0.768531
O83	O	1.133058	0.780405	0.779749
H84	H	1.183075	0.733422	0.833268
H85	H	1.774909	1.105050	0.250163
O86	O	0.904773	0.231693	0.232642
H87	H	0.961341	0.184906	0.186000
O88	O	0.790803	0.371564	0.372048
H89	H	0.761898	0.429661	0.429948
H90	H	1.262126	1.105043	0.762325
H91	H	1.774792	0.905981	0.250107
O92	O	1.383870	0.777443	0.640428
H93	H	1.463083	0.748420	0.661724
H94	H	1.774890	0.249654	0.907270
H95	H	1.774931	0.249576	1.106341
H96	H	1.384113	0.640140	1.205721
H97	H	1.262136	0.762057	1.106148
O98	O	1.384025	0.640310	0.778591
H99	H	1.362814	0.561076	0.749670
