data_functionalizedCrystal
_audit_creation_method	'MofGen! by Chris Wilmer'
_symmetry_space_group_name_H-M	'P1'
_symmetry_Int_Tables_number	1
_symmetry_cell_setting	triclinic
loop_
_symmetry_equiv_pos_as_xyz
  x,y,z
_cell_length_a	13.033286
_cell_length_b	13.032721
_cell_length_c	12.759393
_cell_angle_alpha	97.147684
_cell_angle_beta	97.172399
_cell_angle_gamma	89.137287
loop_
_atom_site_label
_atom_site_type_symbol
_atom_site_fract_x
_atom_site_fract_y
_atom_site_fract_z
Zn1	Zn	1.520158	-0.608853	-0.477233
Zn2	Zn	1.498195	-0.780849	-0.326311
Zn3	Zn	1.348181	-0.587087	-0.320792
Zn4	Zn	1.326321	-0.758959	-0.521144
O5	O	1.423214	-0.683937	-0.411370
O6	O	1.661147	-0.649938	-0.441145
O7	O	1.478253	-0.755197	-0.178570
O8	O	1.389335	-0.446064	-0.320858
O9	O	1.645011	-0.776303	-0.330264
O10	O	1.515685	-0.462056	-0.435794
O11	O	1.368038	-0.612842	-0.174515
O12	O	1.201379	-0.591616	-0.363437
O13	O	1.352077	-0.738996	-0.662328
O14	O	1.185319	-0.717890	-0.510634
O15	O	1.494488	-0.628713	-0.630067
O16	O	1.457056	-0.921855	-0.372842
O17	O	1.330781	-0.905773	-0.515985
C18	C	1.156036	-0.650017	-0.441202
C19	C	1.041733	-0.635531	-0.453993
C20	C	0.982802	-0.691498	-0.404720
C21	C	0.864664	-0.676527	-0.417939
C22	C	1.389191	-0.951132	-0.449797
C23	C	1.374730	-1.065451	-0.466261
C24	C	1.430816	-1.124347	-0.402818
C25	C	1.415871	-1.242502	-0.419833
C26	C	1.691435	-0.717990	-0.381422
C27	C	1.805735	-0.732502	-0.368660
C28	C	1.423294	-0.683841	-0.685381
C29	C	1.423328	-0.683800	-0.802148
C30	C	1.457398	-0.415702	-0.372813
C31	C	1.471965	-0.301397	-0.356382
C32	C	1.365969	-0.609666	-0.854900
C33	C	1.366004	-0.609640	-0.964616
C34	C	1.480766	-0.757884	-0.968818
C35	C	1.480725	-0.757914	-0.859105
C36	C	1.299715	-0.524076	-0.852474
C37	C	1.299750	-0.524049	-0.962190
C38	C	1.423203	-0.683966	-0.138408
C39	C	1.423405	-0.683743	-0.021577
H40	H	1.019810	-0.750500	-0.352754
H41	H	1.004725	-0.576535	-0.505967
H42	H	1.531056	-1.264353	-0.289468
C43	C	1.294914	-1.115492	-0.556655
H44	H	1.295336	-1.188340	-0.556228
H45	H	1.312135	-1.099773	-0.623063
H46	H	1.228020	-1.089242	-0.546429
C47	C	1.510635	-1.074311	-0.312424
H48	H	1.543890	-1.126585	-0.274831
H49	H	1.476579	-1.027477	-0.265023
H50	H	1.560694	-1.038018	-0.341657
H51	H	1.356789	-1.279548	-0.486753
C52	C	1.543815	-0.839463	-0.801082
H53	H	1.578011	-0.883589	-0.850717
H54	H	1.498751	-0.879285	-0.769114
H55	H	1.593627	-0.805822	-0.747626
C56	C	1.351258	-0.426781	-0.787499
H57	H	1.349478	-0.430123	-0.713792
H58	H	1.315057	-0.367038	-0.807509
H59	H	1.421051	-0.423171	-0.801098
C60	C	0.814684	-0.596818	-0.488151
H61	H	0.741840	-0.597207	-0.487819
H62	H	0.830346	-0.614158	-0.558938
H63	H	0.841023	-0.529905	-0.460992
H64	H	1.527497	-0.818224	-1.015206
H65	H	1.331231	-0.447096	-0.978141
H66	H	0.842736	-0.791513	-0.316695
C67	C	1.188443	-0.539255	-0.828409
H68	H	1.142709	-0.545487	-0.892965
H69	H	1.168908	-0.481401	-0.782176
H70	H	1.185066	-0.600264	-0.795254
H71	H	1.220468	-0.542960	-1.008771
