data_functionalizedCrystal
_audit_creation_method	'MofGen! by Chris Wilmer'
_symmetry_space_group_name_H-M	'P1'
_symmetry_Int_Tables_number	1
_symmetry_cell_setting	triclinic
loop_
_symmetry_equiv_pos_as_xyz
  x,y,z
_cell_length_a	19.805407
_cell_length_b	14.908178
_cell_length_c	19.805399
_cell_angle_alpha	86.674164
_cell_angle_beta	89.982278
_cell_angle_gamma	93.315719
loop_
_atom_site_label
_atom_site_type_symbol
_atom_site_fract_x
_atom_site_fract_y
_atom_site_fract_z
Zn1	Zn	1.019210	-0.359149	-0.367183
Zn2	Zn	1.352543	-0.025816	-0.033849
Zn3	Zn	1.685877	0.307518	0.299484
Zn4	Zn	1.012615	-0.510030	-0.247461
Zn5	Zn	1.345949	-0.176697	0.085873
Zn6	Zn	1.679282	0.156637	0.419206
Zn7	Zn	0.906029	-0.359183	-0.254004
Zn8	Zn	1.239362	-0.025849	0.079329
Zn9	Zn	1.572695	0.307484	0.412663
Zn10	Zn	0.899475	-0.509983	-0.360608
Zn11	Zn	1.232809	-0.176650	-0.027274
Zn12	Zn	1.566142	0.156683	0.306059
O13	O	0.959332	-0.434586	-0.307314
O14	O	1.292666	-0.101253	0.026020
O15	O	1.625999	0.232080	0.359353
O16	O	1.113052	-0.379169	-0.351314
O17	O	1.446385	-0.045836	-0.017981
O18	O	1.779718	0.287498	0.315352
O19	O	0.998459	-0.490053	-0.153611
O20	O	1.331792	-0.156720	0.179723
O21	O	1.665126	0.176613	0.513056
O22	O	0.926545	-0.232924	-0.274507
O23	O	1.259878	0.100410	0.058826
O24	O	1.593212	0.433743	0.392159
O25	O	1.108207	-0.490021	-0.263355
O26	O	1.441540	-0.156687	0.069978
O27	O	1.774873	0.176646	0.403311
O28	O	1.009699	-0.232899	-0.357659
O29	O	1.343032	0.100435	-0.024326
O30	O	1.676365	0.433768	0.309008
O31	O	0.920150	-0.379227	-0.158418
O32	O	1.253484	-0.045893	0.174915
O33	O	1.586817	0.287440	0.508249
O34	O	0.810443	-0.379181	-0.268132
O35	O	1.143776	-0.045848	0.065201
O36	O	1.477110	0.287485	0.398535
O37	O	0.915376	-0.489941	-0.456198
O38	O	1.248709	-0.156608	-0.122865
O39	O	1.582043	0.176725	0.210469
O40	O	0.805628	-0.489974	-0.346453
O41	O	1.138962	-0.156641	-0.013120
O42	O	1.472295	0.176693	0.320213
O43	O	1.003344	-0.379124	-0.461028
O44	O	1.336678	-0.045791	-0.127695
O45	O	1.670011	0.287543	0.205638
O46	O	0.992105	-0.636278	-0.256980
O47	O	1.325438	-0.302945	0.076353
O48	O	1.658771	0.030388	0.409687
O49	O	0.908981	-0.636244	-0.340109
O50	O	1.242315	-0.302911	-0.006775
O51	O	1.575648	0.030422	0.326558
C52	C	0.783477	-0.434577	-0.307290
C53	C	1.116810	-0.101244	0.026044
C54	C	1.450143	0.232090	0.359377
C55	C	0.708244	-0.434595	-0.307295
C56	C	1.041577	-0.101261	0.026039
C57	C	1.374911	0.232072	0.359372
C58	C	0.248975	-0.376974	-0.353202
C59	C	0.582308	-0.043640	-0.019869
C60	C	0.915642	0.289693	0.313465
C61	C	0.319663	-0.376975	-0.353197
C62	C	0.652997	-0.043642	-0.019864
C63	C	0.986330	0.289691	0.313470
C64	C	0.352482	-0.434600	-0.307335
C65	C	0.685815	-0.101267	0.025998
C66	C	1.019149	0.232067	0.359332
C67	C	0.314608	-0.492233	-0.261480
C68	C	0.647942	-0.158900	0.071854
C69	C	0.981275	0.174434	0.405187
C70	C	0.243921	-0.492235	-0.261488
C71	C	0.577254	-0.158902	0.071845
C72	C	0.910588	0.174431	0.405178
C73	C	0.599682	-0.492226	-0.261444
C74	C	0.933015	-0.158893	0.071889
C75	C	1.266349	0.174441	0.405223
C76	C	0.670374	-0.492218	-0.261438
C77	C	1.003708	-0.158884	0.071896
C78	C	1.337041	0.174449	0.405229
C79	C	0.675424	-0.376966	-0.353153
C80	C	1.008758	-0.043633	-0.019819
C81	C	1.342091	0.289700	0.313514
C82	C	0.604737	-0.376969	-0.353161
C83	C	0.938070	-0.043635	-0.019828
C84	C	1.271404	0.289698	0.313505
C85	C	0.566869	-0.434605	-0.307309
C86	C	0.900203	-0.101271	0.026025
C87	C	1.233536	0.232062	0.359358
C88	C	0.490221	-0.434603	-0.307316
C89	C	0.823554	-0.101270	0.026018
C90	C	1.156888	0.232063	0.359351
C91	C	0.429129	-0.434597	-0.307324
C92	C	0.762463	-0.101264	0.026009
C93	C	1.095796	0.232069	0.359342
C94	C	0.949135	-0.668998	-0.297136
C95	C	1.282468	-0.335664	0.036198
C96	C	1.615801	-0.002331	0.369531
C97	C	0.944834	-0.769280	-0.292804
C98	C	1.278167	-0.435947	0.040529
C99	C	1.611501	-0.102613	0.373863
C100	C	1.023275	-0.957545	-0.371343
C101	C	1.356608	-0.624212	-0.038010
C102	C	1.689942	-0.290879	0.295324
C103	C	1.019237	-1.051769	-0.367275
C104	C	1.352570	-0.718436	-0.033942
C105	C	1.685903	-0.385103	0.299391
C106	C	0.932715	-1.051954	-0.280605
C107	C	1.266049	-0.718621	0.052729
C108	C	1.599382	-0.385287	0.386062
C109	C	0.936754	-0.957730	-0.284672
C110	C	1.270087	-0.624397	0.048661
C111	C	1.603421	-0.291063	0.381994
C112	C	0.982036	-0.910529	-0.330042
C113	C	1.315369	-0.577196	0.003291
C114	C	1.648703	-0.243862	0.336624
C115	C	0.986078	-0.816303	-0.334106
C116	C	1.319411	-0.482970	-0.000773
C117	C	1.652744	-0.149636	0.332560
C118	C	0.899553	-0.816489	-0.247439
C119	C	1.232887	-0.483156	0.085894
C120	C	1.566220	-0.149823	0.419227
C121	C	0.895515	-0.910714	-0.243372
C122	C	1.228848	-0.577380	0.089962
C123	C	1.562182	-0.244047	0.423295
C124	C	1.135875	-0.434596	-0.307338
C125	C	1.469208	-0.101263	0.025995
C126	C	1.802541	0.232070	0.359328
C127	C	1.211107	-0.434601	-0.307349
C128	C	1.544440	-0.101267	0.025985
C129	C	1.877773	0.232066	0.359318
C130	C	0.959365	-0.434524	-0.483859
C131	C	1.292698	-0.101190	-0.150526
C132	C	1.626032	0.232143	0.182807
C133	C	0.959379	-0.434497	-0.559092
C134	C	1.292712	-0.101164	-0.225759
C135	C	1.626045	0.232170	0.107574
C136	C	0.969588	-0.199259	-0.317547
C137	C	1.302922	0.134074	0.015787
C138	C	1.636255	0.467407	0.349120
C139	C	0.973959	-0.098977	-0.321907
C140	C	1.307292	0.234356	0.011426
C141	C	1.640626	0.567690	0.344760
C142	C	0.918616	-0.376784	-0.596940
C143	C	1.251949	-0.043451	-0.263606
C144	C	1.585282	0.289883	0.069727
C145	C	0.918626	-0.376767	-0.667629
C146	C	1.251959	-0.043433	-0.334295
C147	C	1.585293	0.289900	-0.000962
C148	C	0.959403	-0.434458	-0.700470
C149	C	1.292736	-0.101125	-0.367136
C150	C	1.626070	0.232209	-0.033803
C151	C	1.000167	-0.492177	-0.662617
C152	C	1.333501	-0.158844	-0.329284
C153	C	1.666834	0.174489	0.004049
C154	C	1.000153	-0.492199	-0.591929
C155	C	1.333487	-0.158865	-0.258596
C156	C	1.666820	0.174468	0.074737
C157	C	1.000225	-0.492093	-0.947695
C158	C	1.333558	-0.158760	-0.614361
C159	C	1.666891	0.174574	-0.281028
C160	C	1.000237	-0.492065	-1.018388
C161	C	1.333571	-0.158732	-0.685055
C162	C	1.666904	0.174602	-0.351721
C163	C	0.918697	-0.376661	-1.023394
C164	C	1.252031	-0.043327	-0.690061
C165	C	1.585364	0.290006	-0.356727
C166	C	0.918683	-0.376682	-0.952706
C167	C	1.252017	-0.043349	-0.619373
C168	C	1.585350	0.289985	-0.286039
C169	C	0.959445	-0.434404	-0.914860
C170	C	1.292778	-0.101071	-0.581526
C171	C	1.626111	0.232262	-0.248193
C172	C	0.959432	-0.434424	-0.838210
C173	C	1.292766	-0.101091	-0.504877
C174	C	1.626099	0.232243	-0.171544
C175	C	0.959419	-0.434435	-0.777118
C176	C	1.292753	-0.101101	-0.443785
C177	C	1.626086	0.232232	-0.110451
C178	C	0.959342	-0.434584	-0.131458
C179	C	1.292675	-0.101250	0.201875
C180	C	1.626009	0.232083	0.535209
C181	C	0.959470	-0.434356	-0.056236
C182	C	1.292804	-0.101023	0.277097
C183	C	1.626137	0.232311	0.610431
H184	H	0.697093	-0.539146	-0.224090
H185	H	1.030426	-0.205813	0.109243
H186	H	1.363760	0.127520	0.442577
H187	H	1.060150	-0.919114	-0.408280
H188	H	1.393484	-0.585780	-0.074947
H189	H	1.726817	-0.252447	0.258386
H190	H	0.885481	-0.329701	-0.925971
H191	H	1.218814	0.003633	-0.592637
H192	H	1.552148	0.336966	-0.259304
C193	C	0.873853	-0.313171	-1.065031
C194	C	1.207186	0.020162	-0.731698
C195	C	1.540520	0.353496	-0.398364
N196	N	0.840078	-0.265351	-1.096391
N197	N	1.173411	0.067983	-0.763057
N198	N	1.506745	0.401316	-0.429724
H199	H	0.865976	-0.778198	-0.213808
H200	H	1.199309	-0.444865	0.119526
H201	H	1.532642	-0.111531	0.452859
C202	C	1.045093	-0.555539	-1.054511
C203	C	1.378426	-0.222206	-0.721178
C204	C	1.711759	0.111128	-0.387844
N205	N	1.078876	-0.603346	-1.081719
N206	N	1.412209	-0.270013	-0.748386
N207	N	1.745542	0.063321	-0.415053
C208	C	0.202266	-0.555627	-0.211045
C209	C	0.535599	-0.222293	0.122289
C210	C	0.868933	0.111040	0.455622
N211	N	0.170892	-0.603377	-0.173050
N212	N	0.504225	-0.270043	0.160284
N213	N	0.837559	0.063290	0.493617
H214	H	1.022950	-0.777873	-0.371047
H215	H	1.356284	-0.444539	-0.037714
H216	H	1.689617	-0.111206	0.295620
C217	C	0.873757	-0.313318	-0.560821
C218	C	1.207090	0.020015	-0.227488
C219	C	1.540424	0.353349	0.105846
N220	N	0.839965	-0.265516	-0.533619
N221	N	1.173299	0.067817	-0.200285
N222	N	1.506632	0.401151	0.133048
H223	H	1.033407	-0.539104	-0.916888
H224	H	1.366741	-0.205770	-0.583555
H225	H	1.700074	0.127563	-0.250221
H226	H	1.052814	-1.090047	-0.400910
H227	H	1.386148	-0.756713	-0.067577
H228	H	1.719481	-0.423380	0.265757
H229	H	0.222260	-0.330044	-0.390544
H230	H	0.555593	0.003290	-0.057211
H231	H	0.888926	0.336623	0.276122
C232	C	0.873791	-0.313268	-0.709258
C233	C	1.207124	0.020065	-0.375925
C234	C	1.540457	0.353398	-0.042591
N235	N	0.840021	-0.265436	-0.740613
N236	N	1.173354	0.067897	-0.407279
N237	N	1.506688	0.401231	-0.073946
H238	H	1.033365	-0.539155	-0.689362
H239	H	1.366698	-0.205822	-0.356029
H240	H	1.700032	0.127511	-0.022695
C241	C	0.882989	-1.103891	-0.230622
C242	C	1.216323	-0.770558	0.102711
C243	C	1.549656	-0.437225	0.436045
N244	N	0.845566	-1.143012	-0.192944
N245	N	1.178899	-0.809678	0.140389
N246	N	1.512232	-0.476345	0.473723
C247	C	0.845750	-0.962645	-0.193425
C248	C	1.179083	-0.629312	0.139908
C249	C	1.512416	-0.295979	0.473242
N250	N	0.808282	-1.001760	-0.155787
N251	N	1.141616	-0.668426	0.177546
N252	N	1.474949	-0.335093	0.510879
H253	H	0.350493	-0.330053	-0.390537
H254	H	0.683826	0.003280	-0.057204
H255	H	1.017160	0.336614	0.276129
C256	C	0.568641	-0.313579	-0.403614
C257	C	0.901974	0.019755	-0.070280
C258	C	1.235307	0.353088	0.263053
N259	N	0.541454	-0.265835	-0.441618
N260	N	0.874787	0.067498	-0.108285
N261	N	1.208120	0.400832	0.225049
H262	H	0.706265	-0.330039	-0.390490
H263	H	1.039598	0.003295	-0.057157
H264	H	1.372931	0.336628	0.276177
C265	C	0.558037	-0.555612	-0.210994
C266	C	0.891370	-0.222279	0.122339
C267	C	1.224704	0.111054	0.455673
N268	N	0.526668	-0.603353	-0.172989
N269	N	0.860001	-0.270020	0.160344
N270	N	1.193335	0.063313	0.493678
C271	C	1.044999	-0.555683	-0.550298
C272	C	1.378332	-0.222350	-0.216965
C273	C	1.711665	0.110983	0.116369
N274	N	1.078777	-0.603503	-0.518942
N275	N	1.412111	-0.270170	-0.185609
N276	N	1.745444	0.063164	0.147725
H277	H	0.341335	-0.539155	-0.224141
H278	H	0.674668	-0.205822	0.109193
H279	H	1.008001	0.127511	0.442526
