data_functionalizedCrystal
_audit_creation_method	'MofGen! by Chris Wilmer'
_symmetry_space_group_name_H-M	'P1'
_symmetry_Int_Tables_number	1
_symmetry_cell_setting	triclinic
loop_
_symmetry_equiv_pos_as_xyz
  x,y,z
_cell_length_a	25.639242
_cell_length_b	19.805405
_cell_length_c	19.805399
_cell_angle_alpha	89.970699
_cell_angle_beta	89.972605
_cell_angle_gamma	90.021937
loop_
_atom_site_label
_atom_site_type_symbol
_atom_site_fract_x
_atom_site_fract_y
_atom_site_fract_z
Zn1	Zn	0.799297	-0.269560	-0.382853
Zn2	Zn	0.799231	-0.382748	-0.269661
Zn3	Zn	0.711865	-0.269569	-0.269662
Zn4	Zn	0.711837	-0.382703	-0.382792
O5	O	0.755557	-0.326145	-0.326242
O6	O	0.872453	-0.284589	-0.367863
O7	O	0.787626	-0.367757	-0.174945
O8	O	0.723502	-0.174852	-0.284703
O9	O	0.872405	-0.367748	-0.284701
O10	O	0.787738	-0.174844	-0.367863
O11	O	0.723439	-0.284606	-0.174945
O12	O	0.638696	-0.284562	-0.284644
O13	O	0.723454	-0.367672	-0.477517
O14	O	0.638675	-0.367681	-0.367760
O15	O	0.787711	-0.284545	-0.477561
O16	O	0.787599	-0.477459	-0.284643
O17	O	0.723391	-0.477426	-0.367760
C18	C	0.755499	-0.502001	-0.326209
C19	C	0.755521	-0.577233	-0.326218
C20	C	0.619715	-0.326118	-0.326196
C21	C	0.561601	-0.326123	-0.326193
C22	C	0.788987	-0.612572	-0.282984
C23	C	0.789009	-0.683260	-0.282999
C24	C	0.755563	-0.718609	-0.326245
C25	C	0.722095	-0.683265	-0.369483
C26	C	0.722076	-0.612578	-0.369471
C27	C	0.722173	-0.968338	-0.369534
C28	C	0.722193	-1.039030	-0.369541
C29	C	0.789105	-1.039021	-0.283061
C30	C	0.789086	-0.968334	-0.283049
C31	C	0.755621	-0.932996	-0.326290
C32	C	0.755598	-0.856348	-0.326274
C33	C	0.755583	-0.795256	-0.326258
C34	C	0.201236	-0.369497	-0.369480
C35	C	0.146631	-0.369502	-0.369490
O36	O	0.118393	-0.406347	-0.406256
N37	N	0.119318	-0.326164	-0.326286
C38	C	0.146612	-0.282814	-0.283073
O39	O	0.118366	-0.245952	-0.246326
C40	C	0.201216	-0.282807	-0.283067
C41	C	0.228526	-0.326152	-0.326269
C42	C	0.228546	-0.412839	-0.412679
C43	C	0.283147	-0.412835	-0.412667
C44	C	0.310437	-0.369491	-0.369456
C45	C	0.283126	-0.326149	-0.326257
C46	C	0.228508	-0.239454	-0.239858
C47	C	0.283116	-0.239451	-0.239855
C48	C	0.310426	-0.282796	-0.283057
C49	C	0.365017	-0.282801	-0.283034
N50	N	0.392330	-0.326139	-0.326239
C51	C	0.365040	-0.369483	-0.369450
C52	C	0.031942	-0.282831	-0.283092
C53	C	-0.022661	-0.282841	-0.283094
C54	C	-0.022638	-0.369528	-0.369513
C55	C	0.031966	-0.369521	-0.369506
C56	C	0.059255	-0.326169	-0.326296
C57	C	0.479705	-0.369473	-0.369421
C58	C	0.534311	-0.369468	-0.369404
C59	C	0.534283	-0.282779	-0.282988
C60	C	0.479682	-0.282787	-0.283003
C61	C	0.452395	-0.326136	-0.326225
O62	O	0.393290	-0.245973	-0.246290
O63	O	0.393293	-0.406333	-0.406197
C64	C	0.891930	-0.326172	-0.326289
C65	C	0.950044	-0.326184	-0.326308
C66	C	0.755587	-0.326102	-0.502785
C67	C	0.755599	-0.326084	-0.578017
C68	C	0.755631	-0.149602	-0.326290
C69	C	0.755662	-0.074370	-0.326310
C70	C	0.789058	-0.282798	-0.613385
C71	C	0.789064	-0.282779	-0.684074
C72	C	0.755612	-0.326049	-0.719393
C73	C	0.722149	-0.369337	-0.684019
C74	C	0.722142	-0.369352	-0.613332
C75	C	0.722179	-0.369274	-0.969093
C76	C	0.722190	-0.369256	-1.039785
C77	C	0.789101	-0.282700	-1.039834
C78	C	0.789093	-0.282716	-0.969147
C79	C	0.755629	-0.326001	-0.933780
C80	C	0.755623	-0.326020	-0.857132
C81	C	0.755621	-0.326033	-0.796040
C82	C	0.755558	-0.326139	-0.150386
C83	C	0.755647	-0.325966	-0.075154
H84	H	0.816220	-0.583796	-0.247766
H85	H	0.816300	-0.247565	-0.584634
F86	F	0.824693	-0.236731	-0.721712
F87	F	0.686546	-0.415386	-0.721610
F88	F	0.686563	-0.415341	-0.931461
F89	F	0.824629	-0.720867	-0.236986
F90	F	0.199510	-0.458976	-0.458675
H91	H	0.694826	-0.583805	-0.404678
H92	H	0.556544	-0.404768	-0.404585
F93	F	0.199454	-0.193316	-0.193878
F94	F	0.061026	-0.415654	-0.415488
F95	F	0.312206	-0.458967	-0.458652
H96	H	0.305332	-0.204144	-0.204671
H97	H	0.816334	-0.247483	-0.940394
F98	F	0.450672	-0.415611	-0.415423
H99	H	-0.044892	-0.247552	-0.247908
F100	F	0.060980	-0.236691	-0.237094
F101	F	-0.051691	-0.415655	-0.415507
H102	H	0.694891	-0.404593	-0.584536
F103	F	0.450616	-0.236664	-0.237013
F104	F	0.824684	-0.930717	-0.237021
H105	H	0.694865	-0.712051	-0.404698
F106	F	0.686556	-0.930738	-0.415554
F107	F	0.824724	-1.076635	-0.237043
F108	F	0.563337	-0.236651	-0.237002
F109	F	0.824715	-0.236629	-1.077480
F110	F	0.686594	-1.076649	-0.415572
F111	F	0.686584	-0.415312	-1.077372
