data_functionalizedCrystal
_audit_creation_method	'MofGen! by Chris Wilmer'
_symmetry_space_group_name_H-M	'P1'
_symmetry_Int_Tables_number	1
_symmetry_cell_setting	triclinic
loop_
_symmetry_equiv_pos_as_xyz
  x,y,z
_cell_length_a	16.120484
_cell_length_b	15.297475
_cell_length_c	15.296720
_cell_angle_alpha	88.382886
_cell_angle_beta	101.986518
_cell_angle_gamma	96.312526
loop_
_atom_site_label
_atom_site_type_symbol
_atom_site_fract_x
_atom_site_fract_y
_atom_site_fract_z
Zn1	Zn	-0.646916	-1.212936	-0.755054
Zn2	Zn	-0.766607	-1.230712	-0.613834
Zn3	Zn	-0.600220	-1.094735	-0.581241
Zn4	Zn	-0.758436	-1.059450	-0.734603
O5	O	-0.693045	-1.149458	-0.671183
O6	O	-0.685755	-1.336436	-0.758520
O7	O	-0.728412	-1.234881	-0.486227
O8	O	-0.490110	-1.117742	-0.599215
O9	O	-0.773691	-1.349496	-0.654766
O10	O	-0.524417	-1.204584	-0.726915
O11	O	-0.606169	-1.134979	-0.462280
O12	O	-0.598246	-0.968913	-0.579385
O13	O	-0.759766	-1.057604	-0.860600
O14	O	-0.714486	-0.942989	-0.692060
O15	O	-0.677833	-1.170370	-0.875625
O16	O	-0.881827	-1.200666	-0.634936
O17	O	-0.875825	-1.074840	-0.723665
C18	C	-0.650413	-0.924540	-0.629967
C19	C	-0.632198	-0.828314	-0.612357
C20	C	-0.908989	-1.135873	-0.680642
C21	C	-1.001390	-1.130135	-0.684732
C22	C	-0.723097	-1.108068	-0.900972
C23	C	-0.735903	-1.090430	-0.998895
C24	C	-1.170572	-1.119661	-0.692219
C25	C	-1.214709	-1.179408	-0.650189
C26	C	-1.308847	-1.173580	-0.654355
C27	C	-1.076425	-1.125488	-0.688054
C28	C	-0.476264	-1.163116	-0.661711
C29	C	-0.383885	-1.168937	-0.657674
C30	C	-0.735844	-1.375255	-0.712560
C31	C	-0.754082	-1.471476	-0.730193
C32	C	-0.823238	-0.503218	-0.797050
C33	C	-0.840358	-0.593627	-0.813594
C34	C	-0.788320	-0.652303	-0.763286
C35	C	-0.719158	-0.620561	-0.696432
C36	C	-0.702040	-0.530143	-0.679882
C37	C	-0.667122	-0.679229	-0.646118
C38	C	-0.597960	-0.647487	-0.579263
C39	C	-0.580845	-0.557078	-0.562717
C40	C	-0.632884	-0.498402	-0.613024
C41	C	-0.684239	-0.769646	-0.662668
C42	C	-0.563041	-0.796572	-0.545499
C43	C	-0.545921	-0.706162	-0.528956
C44	C	-0.601377	-1.275562	-1.306214
C45	C	-0.589347	-1.292140	-1.214212
C46	C	-0.625985	-1.241714	-1.160378
C47	C	-0.674655	-1.174707	-1.198556
C48	C	-0.686691	-1.158133	-1.290568
C49	C	-0.711299	-1.124284	-1.144732
C50	C	-0.759969	-1.057278	-1.182909
C51	C	-0.772003	-1.040706	-1.274912
C52	C	-0.735365	-1.091132	-1.328746
C53	C	-0.699263	-1.140858	-1.052720
C54	C	-0.784577	-1.023429	-1.037073
C55	C	-0.796607	-1.006852	-1.129075
C56	C	-0.663059	-1.190741	-0.442294
C57	C	-0.650051	-1.208562	-0.344393
H58	H	-1.181795	-1.234934	-0.611077
F59	F	-0.507657	-0.859015	-0.491951
H60	H	-0.836234	-0.952294	-1.160172
H61	H	-0.865605	-0.455438	-0.837998
H62	H	-0.618947	-0.424782	-0.599559
H63	H	-0.616187	-1.255215	-1.085467
H64	H	-1.203483	-1.064138	-0.731327
H65	H	-0.549722	-1.346698	-1.183136
H66	H	-0.571557	-1.316617	-1.350055
H67	H	-0.524537	-0.531238	-0.508270
H68	H	-0.745157	-1.077639	-1.403662
F69	F	-0.757844	-0.803418	-0.733817
H70	H	-0.802263	-0.725918	-0.776760
H71	H	-0.814412	-0.982369	-0.993241
F72	F	-0.823816	-0.969404	-1.315543
H73	H	-0.896671	-0.619465	-0.868025
H74	H	-0.489610	-0.680305	-0.474522
H75	H	-0.659634	-1.195415	-1.021645
