data_functionalizedCrystal
_audit_creation_method	'MofGen! by Chris Wilmer'
_symmetry_space_group_name_H-M	'P1'
_symmetry_Int_Tables_number	1
_symmetry_cell_setting	triclinic
loop_
_symmetry_equiv_pos_as_xyz
  x,y,z
_cell_length_a	18.101398
_cell_length_b	21.295416
_cell_length_c	18.101389
_cell_angle_alpha	89.979908
_cell_angle_beta	90.024327
_cell_angle_gamma	89.974402
loop_
_atom_site_label
_atom_site_type_symbol
_atom_site_fract_x
_atom_site_fract_y
_atom_site_fract_z
Zn1	Zn	1.132125	0.250755	0.418830
Zn2	Zn	1.132023	0.356008	0.294985
Zn3	Zn	1.008284	0.250748	0.294991
Zn4	Zn	1.008236	0.355981	0.418774
O5	O	1.070167	0.303373	0.356895
O6	O	1.235744	0.264731	0.402423
O7	O	1.115585	0.342054	0.191353
O8	O	1.024774	0.162660	0.311445
O9	O	1.235669	0.342060	0.311434
O10	O	1.115760	0.162664	0.402429
O11	O	1.024675	0.264720	0.191357
O12	O	0.904645	0.264694	0.311390
O13	O	1.024693	0.342014	0.522414
O14	O	0.904610	0.342008	0.402332
O15	O	1.115714	0.264705	0.522456
O16	O	1.115539	0.444094	0.311379
O17	O	1.024594	0.444074	0.402326
C18	C	0.877756	0.303348	0.356856
C19	C	0.795442	0.303352	0.356857
C20	C	1.070070	0.466925	0.356862
C21	C	1.070097	0.536893	0.356873
C22	C	0.496351	0.303391	0.356920
C23	C	0.527674	0.254504	0.299980
C24	C	0.613292	0.254635	0.299737
C25	C	0.644734	0.303371	0.356889
C26	C	0.613617	0.369679	0.335562
C27	C	0.527972	0.369407	0.335166
C28	C	0.527966	0.286547	0.435320
C29	C	0.613616	0.285070	0.434892
C30	C	0.728593	0.303364	0.356872
C31	C	0.412492	0.303403	0.356934
C32	C	1.117494	0.569749	0.309567
C33	C	1.117529	0.635491	0.309587
C34	C	1.070154	0.668375	0.356905
C35	C	1.022753	0.635511	0.404220
C36	C	1.022725	0.569770	0.404204
N37	N	1.005370	0.771637	0.362543
N38	N	1.005399	0.834089	0.362554
C39	C	1.070237	0.866450	0.356958
N40	N	1.135047	0.834001	0.351335
N41	N	1.135017	0.771543	0.351321
C42	C	1.070179	0.739661	0.356928
C43	C	1.117676	0.970592	0.309671
C44	C	1.117713	1.036335	0.309696
C45	C	1.022930	1.036354	0.404326
C46	C	1.022900	0.970612	0.404304
C47	C	1.070273	0.937734	0.356973
C48	C	1.263329	0.303399	0.356934
C49	C	1.345643	0.303410	0.356951
C50	C	1.070210	0.303357	0.550057
C51	C	1.070228	0.303350	0.632371
C52	C	1.070285	1.139183	0.356957
C53	C	1.070337	1.069215	0.357016
C54	C	1.070167	0.303344	0.164484
C55	C	1.070292	0.303173	0.082171
C56	C	1.070271	0.303232	0.931462
C57	C	1.012806	0.351719	0.900111
C58	C	1.012962	0.351944	0.814493
C59	C	1.070249	0.303291	0.783080
C60	C	1.148275	0.321303	0.814185
C61	C	1.147955	0.321621	0.899830
C62	C	1.050389	0.236626	0.899889
C63	C	1.048653	0.237011	0.814238
C64	C	1.070241	0.303323	0.699220
C65	C	1.070284	0.303202	1.015322
H66	H	0.507103	0.205183	0.313201
H67	H	0.984127	0.543018	0.442727
H68	H	0.634332	0.205465	0.313106
H69	H	1.026088	0.401314	0.794008
C70	C	1.169331	1.071896	0.258378
C71	C	1.242567	1.055791	0.274590
C72	C	1.290153	1.088516	0.227325
H73	H	1.162703	1.115775	0.265096
H74	H	1.158567	1.061131	0.208595
H75	H	1.253328	1.066560	0.324361
H76	H	1.249218	1.011918	0.267867
H77	H	1.279389	1.077751	0.177542
H78	H	1.283519	1.132393	0.234047
H79	H	1.339849	1.077589	0.238313
H80	H	0.506125	0.265512	0.242225
H81	H	0.506393	0.239037	0.454709
C82	C	0.935757	0.336930	0.786587
C83	C	0.888550	0.327568	0.846842
C84	C	0.817419	0.313745	0.821169
H85	H	0.937239	0.299919	0.757349
H86	H	0.918041	0.370922	0.757545
H87	H	0.906262	0.293579	0.875872
H88	H	0.887046	0.364571	0.876086
H89	H	0.799702	0.347737	0.792126
H90	H	0.818909	0.276735	0.791930
H91	H	0.785379	0.307397	0.862047
H92	H	1.156252	0.943822	0.271133
C93	C	0.640808	0.419633	0.389000
C94	C	0.681016	0.465060	0.350162
C95	C	0.706069	0.511091	0.399363
H96	H	0.671629	0.400781	0.425249
H97	H	0.599701	0.438905	0.412463
H98	H	0.722117	0.445790	0.326711
H99	H	0.650210	0.483929	0.313916
H100	H	0.664962	0.530363	0.422826
H101	H	0.736887	0.492233	0.435610
H102	H	0.733346	0.541921	0.373018
C103	C	0.971614	1.072127	0.455747
C104	C	1.013536	1.109827	0.503254
C105	C	0.966290	1.142799	0.550631
H106	H	0.943362	1.043212	0.483988
H107	H	0.939385	1.097847	0.427415
H108	H	1.045751	1.084110	0.531583
H109	H	1.041786	1.138754	0.475033
H110	H	0.934061	1.168519	0.522299
H111	H	0.938041	1.113879	0.578867
H112	H	0.994727	1.168386	0.582866
H113	H	0.633746	0.265769	0.241644
C114	C	1.169099	0.671102	0.258262
C115	C	1.242364	0.655055	0.274425
C116	C	1.289884	0.687842	0.227153
H117	H	1.162421	0.714971	0.265009
H118	H	1.158321	0.660347	0.208479
H119	H	1.253138	0.665813	0.324197
H120	H	1.249065	0.611191	0.267674
H121	H	1.279106	0.677087	0.177370
H122	H	1.283200	0.731710	0.233903
H123	H	1.339599	0.676954	0.238108
H124	H	0.507960	0.383693	0.277852
H125	H	0.507250	0.407065	0.374829
C126	C	1.100286	0.186185	0.785781
C127	C	1.078983	0.128032	0.814902
C128	C	1.126529	0.081197	0.788696
H129	H	1.149451	0.195328	0.800644
H130	H	1.097813	0.184714	0.733382
H131	H	1.081463	0.129504	0.867289
H132	H	1.029826	0.118869	0.800042
H133	H	1.124057	0.079726	0.736297
H134	H	1.175692	0.090346	0.803560
H135	H	1.112078	0.041734	0.808445
H136	H	1.164810	0.370312	0.919811
H137	H	0.954773	0.340562	0.920697
H138	H	0.994481	0.220216	0.921475
C139	C	0.642034	0.389128	0.259938
C140	C	0.582174	0.398464	0.212163
C141	C	0.608329	0.416398	0.142502
H142	H	0.673060	0.357066	0.240745
H143	H	0.669347	0.427034	0.264283
H144	H	0.554873	0.360563	0.207816
H145	H	0.551142	0.430529	0.231332
H146	H	0.635642	0.454304	0.146847
H147	H	0.639355	0.384333	0.123316
H148	H	0.567718	0.422740	0.110080
H149	H	0.984302	0.943858	0.442822
H150	H	1.192221	0.287839	0.920571
H151	H	1.092243	0.200501	0.920166
H152	H	0.633960	0.236275	0.450973
H153	H	1.192240	0.287098	0.793840
H154	H	0.507710	0.322155	0.477745
C155	C	1.171184	0.385574	0.785748
C156	C	1.182183	0.426139	0.845602
C157	C	1.203292	0.485350	0.819437
H158	H	1.133464	0.401938	0.754725
H159	H	1.215775	0.381859	0.758429
H160	H	1.137598	0.429856	0.872909
H161	H	1.219906	0.409796	0.876630
H162	H	1.247883	0.481635	0.792119
H163	H	1.165569	0.501707	0.788414
H164	H	1.210763	0.512879	0.860044
H165	H	0.991233	0.223428	0.793906
H166	H	1.025803	0.400788	0.921635
H167	H	0.635022	0.318083	0.479589
C168	C	1.168892	0.534137	0.258067
C169	C	1.152830	0.550186	0.184783
C170	C	1.200171	0.517399	0.137324
H171	H	1.162139	0.490267	0.264730
H172	H	1.218659	0.544889	0.268917
H173	H	1.103075	0.539430	0.173937
H174	H	1.159588	0.594050	0.178097
H175	H	1.249938	0.528151	0.148173
H176	H	1.193414	0.473531	0.143992
H177	H	1.189284	0.528288	0.087596
C178	C	0.971343	0.671324	0.455514
C179	C	0.981497	0.735931	0.445388
C180	C	0.934146	0.768940	0.492624
H181	H	0.982101	0.660597	0.505311
H182	H	0.921571	0.660625	0.444616
H183	H	1.031258	0.746626	0.456291
H184	H	0.970733	0.746677	0.395601
H185	H	0.884373	0.758241	0.481726
H186	H	0.944908	0.758207	0.542418
H187	H	0.941024	0.812779	0.485756
