data_functionalizedCrystal
_audit_creation_method	'MofGen! by Chris Wilmer'
_symmetry_space_group_name_H-M	'P1'
_symmetry_Int_Tables_number	1
_symmetry_cell_setting	triclinic
loop_
_symmetry_equiv_pos_as_xyz
  x,y,z
_cell_length_a	14.853566
_cell_length_b	19.188924
_cell_length_c	13.930277
_cell_angle_alpha	89.993371
_cell_angle_beta	89.995631
_cell_angle_gamma	83.388189
loop_
_atom_site_label
_atom_site_type_symbol
_atom_site_fract_x
_atom_site_fract_y
_atom_site_fract_z
O1	O	1.195859	0.091151	-0.079772
O2	O	0.933339	0.102011	-0.079788
O3	O	1.072178	-0.005050	-0.079768
O4	O	1.057020	0.198212	-0.079792
O5	O	1.072159	-0.005052	0.079893
O6	O	0.933320	0.102009	0.079873
O7	O	1.195840	0.091149	0.079890
Zn8	Zn	1.064577	0.096578	0.105231
Zn9	Zn	1.064602	0.096581	-0.105130
O10	O	1.057001	0.198209	0.079870
C11	C	0.899743	0.101518	0.000041
C12	C	0.799668	0.100044	0.000035
C13	C	0.376528	0.093810	-0.086979
C14	C	0.376529	0.093808	0.087090
C15	C	0.470555	0.095192	0.087087
C16	C	0.517572	0.095887	0.000049
C17	C	0.470563	0.095197	-0.086985
C18	C	0.517570	0.095890	0.174120
C19	C	0.611602	0.097275	0.174120
C20	C	0.658622	0.097964	0.087082
C21	C	0.611607	0.097273	0.000044
C22	C	0.658624	0.097967	-0.086994
C23	C	0.611612	0.097272	-0.174033
C24	C	0.517583	0.095886	-0.174024
C25	C	0.752651	0.099350	0.087072
C26	C	0.752659	0.099354	-0.087000
C27	C	1.071679	-0.031064	0.000063
C28	C	1.070208	-0.108573	0.000066
C29	C	1.069533	-0.144973	-0.086966
C30	C	1.068138	-0.217801	-0.086973
C31	C	1.067438	-0.254227	0.000056
C32	C	1.068109	-0.217818	0.087099
C33	C	1.069494	-0.144991	0.087104
N34	N	1.116558	-0.373727	0.064833
N35	N	1.115244	-0.442910	0.064823
C36	C	1.063262	-0.473650	0.000047
N37	N	1.012655	-0.432595	-0.064733
N38	N	1.013973	-0.363406	-0.064725
C39	C	1.065935	-0.333195	0.000060
C40	C	1.061073	-0.589018	-0.086999
C41	C	1.059673	-0.661846	-0.087003
C42	C	1.059652	-0.661862	0.087072
C43	C	1.061043	-0.589035	0.087074
C44	C	1.061758	-0.552617	0.000035
C45	C	1.229436	0.091642	0.000059
C46	C	1.329511	0.093116	0.000058
C47	C	1.057500	0.224223	0.000036
C48	C	1.058971	0.301733	0.000027
N49	N	1.064566	0.096576	0.248798
N50	N	1.064620	0.096578	-0.248696
C51	C	1.003122	0.143969	0.701058
C52	C	1.126107	0.049188	0.701045
C53	C	1.126097	0.049186	0.600549
C54	C	1.064599	0.096577	0.550303
C55	C	1.003111	0.143970	0.600553
C56	C	1.187589	0.001799	0.550292
C57	C	1.187581	0.001795	0.449790
C58	C	1.126078	0.049183	0.399542
C59	C	1.064588	0.096577	0.449798
C60	C	1.003090	0.143968	0.399552
C61	C	0.941594	0.191360	0.449806
C62	C	0.941608	0.191358	0.550305
C63	C	1.126064	0.049185	0.299044
C64	C	1.003079	0.143969	0.299047
H65	H	0.479281	0.095329	0.244981
H66	H	1.070040	-0.115354	0.157978
H67	H	0.649872	0.097840	0.244993
H68	H	0.649905	0.097842	-0.244899
H69	H	0.338247	0.093241	-0.157844
C70	C	0.337206	0.153353	0.235451
C71	C	0.324851	0.093048	0.182759
H72	H	0.305295	0.152883	0.294513
H73	H	0.399928	0.154269	0.247901
H74	H	0.314758	0.193805	0.199677
H75	H	0.347305	0.052595	0.218531
H76	H	0.262116	0.092125	0.170312
C77	C	0.820025	0.285053	0.459894
C78	C	0.873999	0.243454	0.394570
H79	H	0.778301	0.317216	0.425788
H80	H	0.787714	0.255944	0.499096
H81	H	0.857456	0.310220	0.499089
H82	H	0.836568	0.218283	0.355379
H83	H	0.906312	0.272567	0.355352
H84	H	1.061649	-0.559364	-0.157871
C85	C	1.145144	-0.248030	0.235477
C86	C	1.067339	-0.257854	0.182765
H87	H	1.144660	-0.272743	0.294541
H88	H	1.197473	-0.265237	0.199722
H89	H	1.146054	-0.199444	0.247930
H90	H	1.066431	-0.306439	0.170306
H91	H	1.014995	-0.240650	0.218528
C92	C	0.743201	0.099211	0.259132
C93	C	0.804327	0.100111	0.182736
H94	H	0.775107	0.099675	0.318193
H95	H	0.699496	0.139353	0.255508
H96	H	0.713558	0.057987	0.255512
H97	H	0.833966	0.141338	0.186351
H98	H	0.848049	0.059965	0.186361
H99	H	1.059075	-0.691519	0.157933
H100	H	1.070112	-0.115326	-0.157840
H101	H	1.237663	-0.036782	0.591206
H102	H	1.067582	-0.247443	-0.157848
H103	H	0.479297	0.095319	-0.244886
C104	C	0.881543	0.237650	0.690960
C105	C	0.935523	0.196058	0.756290
H106	H	0.839805	0.269803	0.725060
H107	H	0.918962	0.262822	0.651759
H108	H	0.849240	0.208531	0.651765
H109	H	0.967831	0.225176	0.795481
H110	H	0.898099	0.170884	0.795508
C111	C	1.146052	-0.045799	0.814079
C112	C	1.193699	-0.002903	0.756278
H113	H	1.187782	-0.077961	0.848176
H114	H	1.109444	-0.017570	0.858381
H115	H	1.108628	-0.070965	0.774875
H116	H	1.231119	0.022268	0.795483
H117	H	1.230323	-0.031135	0.711970
H118	H	1.059118	-0.691481	-0.157878
H119	H	1.061601	-0.559398	0.157945
H120	H	1.237653	-0.036794	0.408880
H121	H	0.891541	0.229943	0.591228
C122	C	1.247636	-0.044497	0.309130
C123	C	1.193652	-0.002903	0.243805
H124	H	1.289359	-0.076659	0.275027
H125	H	1.279947	-0.015385	0.348312
H126	H	1.210210	-0.069665	0.348346
H127	H	1.231077	0.022269	0.204594
H128	H	1.161339	-0.032019	0.204607
H129	H	0.790934	0.099917	-0.157877
C130	C	0.983118	0.238968	0.186020
C131	C	0.935479	0.196064	0.243818
H132	H	0.941383	0.271126	0.151921
H133	H	1.020534	0.264134	0.225219
H134	H	1.019733	0.210739	0.141710
H135	H	0.898868	0.224293	0.288133
H136	H	0.898047	0.170896	0.204616
