data_functionalizedCrystal
_audit_creation_method	'MofGen! by Chris Wilmer'
_symmetry_space_group_name_H-M	'P1'
_symmetry_Int_Tables_number	1
_symmetry_cell_setting	triclinic
loop_
_symmetry_equiv_pos_as_xyz
  x,y,z
_cell_length_a	14.044209
_cell_length_b	9.565339
_cell_length_c	14.044190
_cell_angle_alpha	90.004600
_cell_angle_beta	86.810135
_cell_angle_gamma	90.001629
loop_
_atom_site_label
_atom_site_type_symbol
_atom_site_fract_x
_atom_site_fract_y
_atom_site_fract_z
O1	O	-1.277173	0.116119	0.230151
O2	O	-0.777173	0.616119	0.730151
O3	O	-1.000501	0.116158	0.221848
O4	O	-0.500501	0.616158	0.721848
O5	O	-1.134681	0.116112	0.087663
O6	O	-0.634681	0.616112	0.587663
O7	O	-1.142994	0.116165	0.364336
O8	O	-0.642994	0.616165	0.864336
O9	O	-1.134670	-0.116409	0.087671
O10	O	-0.634670	0.383591	0.587671
O11	O	-1.000491	-0.116362	0.221856
O12	O	-0.500491	0.383638	0.721856
O13	O	-1.277162	-0.116401	0.230159
O14	O	-0.777162	0.383599	0.730159
Zn15	Zn	-1.138825	-0.153299	0.226009
Zn16	Zn	-0.638825	0.346701	0.726009
Zn17	Zn	-1.138839	0.153056	0.225998
Zn18	Zn	-0.638839	0.653056	0.725998
O19	O	-1.142983	-0.116355	0.364344
O20	O	-0.642983	0.383645	0.864344
C21	C	-0.964874	-0.000098	0.218216
C22	C	-0.464874	0.499902	0.718216
C23	C	-0.858731	-0.000084	0.207373
C24	C	-0.358731	0.499916	0.707373
N25	N	-1.138822	-0.362379	0.226016
N26	N	-0.638822	0.137621	0.726016
C27	C	-0.664393	-0.000112	0.187548
C28	C	-0.164393	0.499888	0.687548
C29	C	-0.613265	-0.000102	0.264463
C30	C	-0.113265	0.499898	0.764463
C31	C	-0.505128	-0.000118	0.253432
C32	C	-0.005128	0.499882	0.753432
C33	C	-0.772539	-0.000096	0.198577
C34	C	-0.272539	0.499904	0.698577
C35	C	-1.076746	-0.453560	0.288048
C36	C	-0.576746	0.046440	0.788048
C37	C	-1.164585	-0.546747	0.313867
C38	C	-0.664585	-0.046747	0.813867
C39	C	-1.051021	-0.546747	0.200208
C40	C	-0.551021	-0.046747	0.700208
C41	C	-1.226708	-0.453514	0.251882
C42	C	-0.726708	0.046486	0.751882
C43	C	-1.113084	-0.453506	0.138180
C44	C	-0.613084	0.046494	0.638180
C45	C	-1.200982	-0.546650	0.163968
C46	C	-0.700982	-0.046650	0.663968
C47	C	-0.312790	-0.000138	0.233793
C48	C	0.187210	0.499862	0.733793
C49	C	-0.418932	-0.000131	0.244642
C50	C	0.081068	0.499869	0.744642
C51	C	-1.131039	-0.000152	0.052045
C52	C	-0.631039	0.499848	0.552045
C53	C	-1.120192	-0.000163	-0.054098
C54	C	-0.620192	0.499837	0.445902
N55	N	-1.138849	0.362135	0.225984
N56	N	-0.638849	0.862135	0.725984
C57	C	-1.177292	-0.000116	-0.299557
C58	C	-0.677292	0.499884	0.200443
C59	C	-1.100376	-0.000115	-0.248430
C60	C	-0.600376	0.499885	0.251570
C61	C	-1.111404	-0.000141	-0.140294
C62	C	-0.611404	0.499859	0.359706
C63	C	-1.166265	-0.000089	-0.407703
C64	C	-0.666265	0.499911	0.092297
C65	C	-1.146625	-0.000088	0.399962
C66	C	-0.646625	0.499912	0.899962
C67	C	-1.157472	-0.000068	0.506105
C68	C	-0.657472	0.499932	1.006105
H69	H	-0.626954	-0.000134	0.113420
H70	H	-0.126954	0.499866	0.613420
H71	H	-1.026243	-0.000096	-0.285873
H72	H	-0.526243	0.499904	0.214127
H73	H	-0.650706	-0.000082	0.338596
H74	H	-0.150706	0.499918	0.838596
N75	N	-1.275484	-0.000173	-0.249968
N76	N	-0.775484	0.499827	0.250032
H77	H	-1.311368	0.086013	-0.268999
H78	H	-0.811368	0.586013	0.231001
H79	H	-1.269457	-0.000249	-0.178642
H80	H	-0.769457	0.499751	0.321358
H81	H	-1.253552	-0.587267	0.111498
H82	H	-0.753552	-0.087267	0.611498
H83	H	-1.091271	-0.412517	0.063934
H84	H	-0.591271	0.087483	0.563934
H85	H	-1.024307	-0.412687	0.340563
H86	H	-0.524307	0.087313	0.840563
N87	N	-1.193444	-0.600998	0.412241
N88	N	-0.693444	-0.100998	0.912241
H89	H	-1.140460	-0.660607	0.436213
H90	H	-0.640460	-0.160607	0.936213
H91	H	-1.253290	-0.659020	0.409286
H92	H	-0.753290	-0.159020	0.909286
N93	N	-1.325113	-0.399511	0.280890
N94	N	-0.825113	0.100489	0.780890
H95	H	-1.324490	-0.293926	0.280750
H96	H	-0.824490	0.206074	0.780750
H97	H	-1.344646	-0.434353	0.346998
H98	H	-0.844646	0.065647	0.846998
H99	H	-0.976758	-0.587704	0.178394
H100	H	-0.476758	-0.087704	0.678394
