data_functionalizedCrystal
_audit_creation_method	'MofGen! by Chris Wilmer'
_symmetry_space_group_name_H-M	'P1'
_symmetry_Int_Tables_number	1
_symmetry_cell_setting	triclinic
loop_
_symmetry_equiv_pos_as_xyz
  x,y,z
_cell_length_a	21.395362
_cell_length_b	25.639239
_cell_length_c	25.639233
_cell_angle_alpha	89.981253
_cell_angle_beta	89.967207
_cell_angle_gamma	90.054564
loop_
_atom_site_label
_atom_site_type_symbol
_atom_site_fract_x
_atom_site_fract_y
_atom_site_fract_z
Zn1	Zn	0.957756	-0.207993	-0.295891
Zn2	Zn	1.291089	0.125340	0.037443
Zn3	Zn	1.624422	0.458674	0.370776
Zn4	Zn	0.957664	-0.295412	-0.208455
Zn5	Zn	1.290997	0.037922	0.124878
Zn6	Zn	1.624331	0.371255	0.458212
Zn7	Zn	0.852991	-0.208016	-0.208438
Zn8	Zn	1.186324	0.125317	0.124895
Zn9	Zn	1.519658	0.458650	0.458228
Zn10	Zn	0.852925	-0.295423	-0.295829
Zn11	Zn	1.186259	0.037910	0.037505
Zn12	Zn	1.519592	0.371243	0.370838
O13	O	0.905334	-0.251711	-0.252153
O14	O	1.238667	0.081622	0.081180
O15	O	1.572001	0.414956	0.414514
O16	O	1.045422	-0.219574	-0.284325
O17	O	1.378755	0.113759	0.049008
O18	O	1.712088	0.447092	0.382342
O19	O	0.943768	-0.283823	-0.135287
O20	O	1.277101	0.049510	0.198046
O21	O	1.610435	0.382843	0.531379
O22	O	0.866954	-0.134848	-0.220058
O23	O	1.200288	0.198485	0.113275
O24	O	1.533621	0.531819	0.446608
O25	O	1.045354	-0.283801	-0.220086
O26	O	1.378687	0.049533	0.113247
O27	O	1.712021	0.382866	0.446580
O28	O	0.943924	-0.134831	-0.284309
O29	O	1.277258	0.198503	0.049024
O30	O	1.610591	0.531836	0.382358
O31	O	0.866865	-0.219614	-0.135275
O32	O	1.200199	0.113719	0.198058
O33	O	1.533532	0.447052	0.531391
O34	O	0.765304	-0.219626	-0.219998
O35	O	1.098638	0.113708	0.113335
O36	O	1.431971	0.447041	0.446669
O37	O	0.866842	-0.283821	-0.369002
O38	O	1.200176	0.049513	-0.035669
O39	O	1.533509	0.382846	0.297665
O40	O	0.765256	-0.283843	-0.284203
O41	O	1.098589	0.049490	0.049130
O42	O	1.431923	0.382823	0.382463
O43	O	0.943861	-0.219586	-0.369048
O44	O	1.277194	0.113748	-0.035714
O45	O	1.610527	0.447081	0.297619
O46	O	0.943704	-0.368578	-0.220026
O47	O	1.277038	-0.035245	0.113307
O48	O	1.610371	0.298088	0.446641
O49	O	0.866753	-0.368587	-0.284219
O50	O	1.200087	-0.035254	0.049114
O51	O	1.533420	0.298080	0.382447
C52	C	0.742546	-0.251739	-0.252092
C53	C	1.075880	0.081595	0.081241
C54	C	1.409213	0.414928	0.414574
C55	C	0.672905	-0.251763	-0.252079
C56	C	1.006238	0.081570	0.081254
C57	C	1.339572	0.414904	0.414588
C58	C	0.640183	-0.285245	-0.285460
C59	C	0.973517	0.048088	0.047873
C60	C	1.306850	0.381421	0.381206
C61	C	0.574748	-0.285233	-0.285484
C62	C	0.908081	0.048101	0.047850
C63	C	1.241415	0.381434	0.381183
C64	C	0.542037	-0.251743	-0.252116
C65	C	0.875370	0.081590	0.081217
C66	C	1.208704	0.414924	0.414551
C67	C	0.574767	-0.218254	-0.218732
C68	C	0.908100	0.115079	0.114601
C69	C	1.241433	0.448413	0.447934
C70	C	0.640201	-0.218264	-0.218714
C71	C	0.973534	0.115069	0.114620
C72	C	1.306867	0.448403	0.447953
C73	C	0.438324	-0.247530	-0.205047
C74	C	0.771657	0.085803	0.128286
C75	C	1.104990	0.419136	0.461619
C76	C	0.372891	-0.247524	-0.205065
C77	C	0.706224	0.085809	0.128268
C78	C	1.039558	0.419143	0.461602
C79	C	0.340216	-0.251709	-0.252174
C80	C	0.673550	0.081624	0.081159
C81	C	1.006883	0.414958	0.414493
C82	C	0.372982	-0.255911	-0.299266
C83	C	0.706316	0.077422	0.034067
C84	C	1.039649	0.410756	0.367400
C85	C	0.438417	-0.255921	-0.299248
C86	C	0.771750	0.077412	0.034086
C87	C	1.105083	0.410746	0.367419
C88	C	0.471085	-0.251728	-0.252133
C89	C	0.804418	0.081605	0.081200
C90	C	1.137751	0.414939	0.414534
C91	C	0.236542	-0.285179	-0.285584
C92	C	0.569875	0.048154	0.047750
C93	C	0.903208	0.381488	0.381083
C94	C	0.171105	-0.285163	-0.285608
C95	C	0.504439	0.048171	0.047726
C96	C	0.837772	0.381504	0.381059
C97	C	0.171125	-0.218187	-0.218852
C98	C	0.504459	0.115147	0.114482
C99	C	0.837792	0.448480	0.447815
C100	C	0.236561	-0.218201	-0.218832
C101	C	0.569894	0.115133	0.114501
C102	C	0.903227	0.448466	0.447835
C103	C	0.269265	-0.251699	-0.252197
C104	C	0.602598	0.081634	0.081136
C105	C	0.935932	0.414967	0.414469
C106	C	0.905229	-0.387554	-0.252129
C107	C	1.238562	-0.054220	0.081204
C108	C	1.571895	0.279113	0.414538
C109	C	0.905241	-0.445668	-0.252136
C110	C	1.238574	-0.112334	0.081197
C111	C	1.571908	0.220999	0.414530
C112	C	0.945507	-0.806014	-0.218785
C113	C	1.278840	-0.472680	0.114549
C114	C	1.612174	-0.139347	0.447882
C115	C	0.945531	-0.860618	-0.218792
C116	C	1.278865	-0.527285	0.114542
C117	C	1.612198	-0.193951	0.447875
O118	O	0.979658	-0.888840	-0.190409
O119	O	1.312991	-0.555507	0.142925
O120	O	1.646324	-0.222173	0.476258
N121	N	0.905444	-0.887950	-0.252188
N122	N	1.238778	-0.554617	0.081146
N123	N	1.572111	-0.221283	0.414479
C124	C	0.865335	-0.860675	-0.285583
C125	C	1.198668	-0.527342	0.047751
C126	C	1.532001	-0.194008	0.381084
O127	O	0.831240	-0.888937	-0.313990
O128	O	1.164573	-0.555604	0.019344
O129	O	1.497907	-0.222270	0.352677
C130	C	0.865314	-0.806072	-0.285578
C131	C	1.198647	-0.472738	0.047755
C132	C	1.531981	-0.139405	0.381089
C133	C	0.905399	-0.778742	-0.252176
C134	C	1.238733	-0.445409	0.081157
C135	C	1.572066	-0.112076	0.414491
C136	C	0.985590	-0.778684	-0.185386
C137	C	1.318923	-0.445351	0.147947
C138	C	1.652256	-0.112018	0.481281
C139	C	0.985564	-0.724084	-0.185378
C140	C	1.318898	-0.390750	0.147955
C141	C	1.652231	-0.057417	0.481288
C142	C	0.945457	-0.696813	-0.218770
C143	C	1.278790	-0.363479	0.114564
C144	C	1.612123	-0.030146	0.447897
C145	C	0.905374	-0.724142	-0.252168
C146	C	1.238707	-0.390809	0.081165
C147	C	1.572041	-0.057475	0.414498
C148	C	0.825208	-0.778798	-0.318975
C149	C	1.158541	-0.445464	0.014358
C150	C	1.491875	-0.112131	0.347692
C151	C	0.825191	-0.724191	-0.318968
C152	C	1.158525	-0.390857	0.014366
C153	C	1.491858	-0.057524	0.347699
C154	C	0.865276	-0.696861	-0.285566
C155	C	1.198610	-0.363528	0.047767
C156	C	1.531943	-0.030195	0.381101
C157	C	0.865241	-0.642270	-0.285552
C158	C	1.198574	-0.308937	0.047781
C159	C	1.531908	0.024396	0.381114
N160	N	0.905328	-0.614938	-0.252156
N161	N	1.238661	-0.281605	0.081177
N162	N	1.571995	0.051729	0.414510
C163	C	0.945436	-0.642209	-0.218765
C164	C	1.278769	-0.308876	0.114568
C165	C	1.612103	0.024457	0.447902
C166	C	0.865382	-0.975346	-0.285591
C167	C	1.198715	-0.642012	0.047743
C168	C	1.532049	-0.308679	0.381076
C169	C	0.865399	-1.029948	-0.285593
C170	C	1.198732	-0.696615	0.047740
C171	C	1.532066	-0.363281	0.381073
C172	C	0.945597	-1.029887	-0.218803
C173	C	1.278930	-0.696554	0.114530
C174	C	1.612263	-0.363220	0.447864
C175	C	0.945576	-0.975284	-0.218798
C176	C	1.278909	-0.641950	0.114535
C177	C	1.612243	-0.308617	0.447869
C178	C	0.905469	-0.948014	-0.252195
C179	C	1.238802	-0.614680	0.081139
C180	C	1.572136	-0.281347	0.414472
C181	C	0.945379	-0.527544	-0.218751
C182	C	1.278713	-0.194211	0.114582
C183	C	1.612046	0.139122	0.447915
C184	C	0.945349	-0.472939	-0.218745
C185	C	1.278682	-0.139606	0.114588
C186	C	1.612015	0.193728	0.447922
C187	C	0.865154	-0.473005	-0.285537
C188	C	1.198487	-0.139671	0.047796
C189	C	1.531820	0.193662	0.381129
C190	C	0.865182	-0.527605	-0.285542
C191	C	1.198515	-0.194272	0.047792
C192	C	1.531848	0.139062	0.381125
C193	C	0.905300	-0.554874	-0.252147
C194	C	1.238633	-0.221540	0.081186
C195	C	1.571966	0.111793	0.414520
O196	O	0.831134	-0.614013	-0.313922
O197	O	1.164467	-0.280680	0.019411
O198	O	1.497800	0.052653	0.352744
O199	O	0.979531	-0.613941	-0.190368
O200	O	1.312864	-0.280607	0.142966
O201	O	1.646197	0.052726	0.476299
C202	C	1.068757	-0.251684	-0.252214
C203	C	1.402091	0.081650	0.081119
C204	C	1.735424	0.414983	0.414452
C205	C	1.138399	-0.251672	-0.252240
C206	C	1.471732	0.081661	0.081093
C207	C	1.805065	0.414995	0.414426
C208	C	0.905354	-0.251702	-0.388526
C209	C	1.238688	0.081631	-0.055193
C210	C	1.572021	0.414965	0.278141
C211	C	0.905363	-0.251698	-0.446640
C212	C	1.238696	0.081635	-0.113307
C213	C	1.572030	0.414969	0.220026
C214	C	0.905457	-0.115338	-0.252189
C215	C	1.238790	0.217995	0.081145
C216	C	1.572124	0.551329	0.414478
C217	C	0.905509	-0.057224	-0.252204
C218	C	1.238843	0.276109	0.081130
C219	C	1.572176	0.609443	0.414463
C220	C	0.945517	-0.218152	-0.807033
C221	C	1.278851	0.115182	-0.473699
C222	C	1.612184	0.448515	-0.140366
C223	C	0.945525	-0.218137	-0.861637
C224	C	1.278858	0.115196	-0.528304
C225	C	1.612192	0.448530	-0.194970
O226	O	0.979615	-0.189676	-0.889899
O227	O	1.312948	0.143657	-0.556566
O228	O	1.646282	0.476990	-0.223232
N229	N	0.905432	-0.251575	-0.888923
N230	N	1.238765	0.081758	-0.555590
N231	N	1.572099	0.415091	-0.222256
C232	C	0.865324	-0.285027	-0.861602
C233	C	1.198657	0.048307	-0.528268
C234	C	1.531991	0.381640	-0.194935
O235	O	0.831222	-0.313467	-0.889824
O236	O	1.164555	0.019867	-0.556491
O237	O	1.497889	0.353200	-0.223158
C238	C	0.865314	-0.285038	-0.806998
C239	C	1.198647	0.048295	-0.473665
C240	C	1.531980	0.381629	-0.140332
C241	C	0.905414	-0.251601	-0.779715
C242	C	1.238747	0.081732	-0.446382
C243	C	1.572080	0.415065	-0.113049
C244	C	0.985614	-0.184717	-0.779750
C245	C	1.318947	0.148616	-0.446416
C246	C	1.652280	0.481950	-0.113083
C247	C	0.985607	-0.184732	-0.725149
C248	C	1.318940	0.148601	-0.391816
C249	C	1.652273	0.481934	-0.058483
C250	C	0.945503	-0.218182	-0.697832
C251	C	1.278836	0.115151	-0.364498
C252	C	1.612170	0.448485	-0.031165
C253	C	0.905407	-0.251617	-0.725115
C254	C	1.238740	0.081717	-0.391781
C255	C	1.572073	0.415050	-0.058448
C256	C	0.825203	-0.318486	-0.779678
C257	C	1.158536	0.014847	-0.446344
C258	C	1.491870	0.348181	-0.113011
C259	C	0.825196	-0.318494	-0.725071
C260	C	1.158529	0.014839	-0.391737
C261	C	1.491862	0.348172	-0.058404
C262	C	0.865296	-0.285058	-0.697788
C263	C	1.198629	0.048276	-0.364454
C264	C	1.531963	0.381609	-0.031121
C265	C	0.865296	-0.285082	-0.643197
C266	C	1.198630	0.048252	-0.309863
C267	C	1.531963	0.381585	0.023470
N268	N	0.905389	-0.251643	-0.615911
N269	N	1.238723	0.081690	-0.282577
N270	N	1.572056	0.415023	0.050756
C271	C	0.945493	-0.218194	-0.643228
C272	C	1.278826	0.115140	-0.309895
C273	C	1.612159	0.448473	0.023438
C274	C	0.865348	-0.284999	-0.976272
C275	C	1.198682	0.048334	-0.642939
C276	C	1.532015	0.381667	-0.309606
C277	C	0.865361	-0.284991	-1.030875
C278	C	1.198695	0.048342	-0.697541
C279	C	1.532028	0.381676	-0.364208
C280	C	0.945562	-0.218101	-1.030906
C281	C	1.278895	0.115233	-0.697573
C282	C	1.612228	0.448566	-0.364240
C283	C	0.945551	-0.218112	-0.976303
C284	C	1.278885	0.115221	-0.642970
C285	C	1.612218	0.448555	-0.309636
C286	C	0.905441	-0.251561	-0.948986
C287	C	1.238775	0.081772	-0.615653
C288	C	1.572108	0.415106	-0.282320
C289	C	0.945475	-0.218228	-0.528563
C290	C	1.278809	0.115105	-0.195230
C291	C	1.612142	0.448438	0.138103
C292	C	0.945466	-0.218248	-0.473958
C293	C	1.278800	0.115085	-0.140624
C294	C	1.612133	0.448418	0.192709
C295	C	0.865264	-0.285136	-0.473931
C296	C	1.198597	0.048197	-0.140597
C297	C	1.531931	0.381530	0.192736
C298	C	0.865275	-0.285119	-0.528531
C299	C	1.198608	0.048215	-0.195198
C300	C	1.531942	0.381548	0.138135
C301	C	0.905383	-0.251661	-0.555846
C302	C	1.238716	0.081673	-0.222513
C303	C	1.572049	0.415006	0.110820
O304	O	0.831222	-0.313526	-0.614900
O305	O	1.164555	0.019807	-0.281567
O306	O	1.497888	0.353140	0.051767
O307	O	0.979583	-0.189753	-0.614999
O308	O	1.312916	0.143580	-0.281666
O309	O	1.646250	0.476913	0.051668
C310	C	0.905350	-0.251682	-0.116311
C311	C	1.238683	0.081651	0.217023
C312	C	1.572017	0.414984	0.550356
C313	C	0.905463	-0.251539	-0.058197
C314	C	1.238796	0.081794	0.275136
C315	C	1.572130	0.415128	0.608470
H316	H	0.977991	-0.450689	-0.191543
H317	H	1.311324	-0.117356	0.141790
H318	H	1.644658	0.215978	0.475123
H319	H	0.792526	-0.345728	-0.702832
H320	H	1.125859	-0.012394	-0.369499
H321	H	1.459193	0.320939	-0.036166
O322	O	0.988805	-0.182013	-1.060380
O323	O	1.322139	0.151320	-0.727046
O324	O	1.655472	0.484653	-0.393713
H325	H	1.020660	-0.205400	-1.085274
H326	H	1.353994	0.127934	-0.751941
H327	H	1.687327	0.461267	-0.418608
O328	O	0.822113	-0.321056	-1.060300
O329	O	1.155446	0.012278	-0.726966
O330	O	1.488779	0.345611	-0.393633
H331	H	0.794224	-0.344312	-1.032125
H332	H	1.127557	-0.010979	-0.698792
H333	H	1.460890	0.322354	-0.365458
H334	H	0.666843	-0.190997	-0.191530
H335	H	1.000176	0.142336	0.141803
H336	H	1.333509	0.475670	0.475136
O337	O	0.337753	-0.260421	-0.350083
O338	O	0.671086	0.072913	-0.016750
O339	O	1.004419	0.406246	0.316583
H340	H	0.286748	-0.259700	-0.342188
H341	H	0.620081	0.073633	-0.008855
H342	H	0.953414	0.406966	0.324479
H343	H	0.144493	-0.190916	-0.191685
H344	H	0.477826	0.142417	0.141648
H345	H	0.811159	0.475750	0.474981
H346	H	0.792563	-0.801040	-0.346172
H347	H	1.125897	-0.467707	-0.012839
H348	H	1.459230	-0.134373	0.320495
H349	H	0.832496	-0.450792	-0.312722
H350	H	1.165830	-0.117458	0.020611
H351	H	1.499163	0.215875	0.353944
O352	O	0.675454	-0.321374	-0.321450
O353	O	1.008787	0.011960	0.011883
O354	O	1.342120	0.345293	0.345217
H355	H	0.726453	-0.315760	-0.315827
H356	H	1.059786	0.017573	0.017506
H357	H	1.393119	0.350907	0.350839
H358	H	0.832628	-0.312351	-0.550746
H359	H	1.165961	0.020983	-0.217413
H360	H	1.499295	0.354316	0.115920
H361	H	0.464922	-0.244120	-0.166683
H362	H	0.798255	0.089213	0.166650
H363	H	1.131589	0.422546	0.499984
O364	O	1.028859	-0.808090	-0.149371
O365	O	1.362193	-0.474757	0.183962
O366	O	1.695526	-0.141423	0.517296
H367	H	1.022153	-0.850653	-0.154982
H368	H	1.355487	-0.517319	0.178352
H369	H	1.688820	-0.183986	0.511685
O370	O	0.822006	-0.321210	-0.444463
O371	O	1.155339	0.012123	-0.111129
O372	O	1.488672	0.345457	0.222204
H373	H	0.828735	-0.315594	-0.401911
H374	H	1.162068	0.017739	-0.068577
H375	H	1.495402	0.351072	0.264756
H376	H	0.548100	-0.312498	-0.312669
H377	H	0.881434	0.020835	0.020664
H378	H	1.214767	0.354169	0.353998
H379	H	0.832685	-0.312240	-0.954034
H380	H	1.166019	0.021093	-0.620701
H381	H	1.499352	0.354426	-0.287368
O382	O	0.822107	-0.945940	-0.321608
O383	O	1.155441	-0.612607	0.011725
O384	O	1.488774	-0.279274	0.345059
H385	H	0.850109	-0.921024	-0.348245
H386	H	1.183442	-0.587691	-0.014912
H387	H	1.516775	-0.254358	0.318421
H388	H	0.978217	-0.953035	-0.191600
H389	H	1.311550	-0.619702	0.141734
H390	H	1.644884	-0.286369	0.475067
H391	H	0.978049	-0.549740	-0.191559
H392	H	1.311382	-0.216406	0.141774
H393	H	1.644715	0.116927	0.475107
H394	H	0.465092	-0.259341	-0.337592
H395	H	0.798426	0.073992	-0.004259
H396	H	1.131759	0.407326	0.329075
O397	O	0.781944	-0.354543	-0.809097
O398	O	1.115277	-0.021210	-0.475764
O399	O	1.448610	0.312123	-0.142430
H400	H	0.754052	-0.377795	-0.780919
H401	H	1.087386	-0.044461	-0.447586
H402	H	1.420719	0.288872	-0.114253
O403	O	0.988867	-1.059310	-0.182797
O404	O	1.322200	-0.725977	0.150536
O405	O	1.655534	-0.392644	0.483870
H406	H	0.960861	-1.084237	-0.156174
H407	H	1.294194	-0.750904	0.177160
H408	H	1.627527	-0.417570	0.510493
O409	O	0.271823	-0.321301	-0.321575
O410	O	0.605157	0.012033	0.011759
O411	O	0.938490	0.345366	0.345092
H412	H	0.238073	-0.344575	-0.344799
H413	H	0.571407	-0.011242	-0.011465
H414	H	0.904740	0.322092	0.321868
H415	H	0.832752	-1.052195	-0.312788
H416	H	1.166085	-0.718862	0.020546
H417	H	1.499418	-0.385528	0.353879
O418	O	0.781932	-0.694777	-0.354989
O419	O	1.115265	-0.361443	-0.021655
O420	O	1.448598	-0.028110	0.311678
H421	H	0.750065	-0.669943	-0.331551
H422	H	1.083398	-0.336609	0.001782
H423	H	1.416732	-0.003276	0.335115
H424	H	1.018207	-0.701835	-0.158181
H425	H	1.351540	-0.368502	0.175152
H426	H	1.684874	-0.035169	0.508485
O427	O	0.988733	-0.182136	-0.558011
O428	O	1.322067	0.151198	-0.224678
O429	O	1.655400	0.484531	0.108655
H430	H	0.960719	-0.155525	-0.582872
H431	H	1.294052	0.177809	-0.249539
H432	H	1.627386	0.511142	0.083795
O433	O	0.821947	-0.557087	-0.321565
O434	O	1.155281	-0.223754	0.011768
O435	O	1.488614	0.109579	0.345102
H436	H	0.794056	-0.528948	-0.344784
H437	H	1.127389	-0.195614	-0.011451
H438	H	1.460723	0.137719	0.321882
O439	O	0.988718	-0.182183	-0.444530
O440	O	1.322051	0.151151	-0.111196
O441	O	1.655384	0.484484	0.222137
H442	H	1.016600	-0.158918	-0.472703
H443	H	1.349933	0.174416	-0.139369
H444	H	1.683266	0.507749	0.193964
H445	H	1.018259	-0.157504	-0.702940
H446	H	1.351592	0.175830	-0.369607
H447	H	1.684926	0.509163	-0.036274
H448	H	0.144464	-0.312427	-0.312794
H449	H	0.477797	0.020906	0.020539
H450	H	0.811131	0.354240	0.353872
H451	H	1.018271	-0.157475	-0.801986
H452	H	1.351604	0.175858	-0.468653
H453	H	1.684938	0.509191	-0.135319
H454	H	0.263203	-0.190938	-0.191646
H455	H	0.596536	0.142395	0.141687
H456	H	0.929870	0.475729	0.475020
H457	H	0.978203	-0.190884	-0.954093
H458	H	1.311537	0.142449	-0.620760
H459	H	1.644870	0.475783	-0.287426
H460	H	0.346218	-0.244106	-0.166719
H461	H	0.679551	0.089228	0.166614
H462	H	1.012884	0.422561	0.499947
H463	H	0.548129	-0.190986	-0.191565
H464	H	0.881462	0.142348	0.141768
H465	H	1.214796	0.475681	0.475102
