data_functionalizedCrystal
_audit_creation_method	'MofGen! by Chris Wilmer'
_symmetry_space_group_name_H-M	'P1'
_symmetry_Int_Tables_number	1
_symmetry_cell_setting	triclinic
loop_
_symmetry_equiv_pos_as_xyz
  x,y,z
_cell_length_a	16.625547
_cell_length_b	12.594516
_cell_length_c	16.625539
_cell_angle_alpha	90.021811
_cell_angle_beta	89.978691
_cell_angle_gamma	89.973331
loop_
_atom_site_label
_atom_site_type_symbol
_atom_site_fract_x
_atom_site_fract_y
_atom_site_fract_z
Zn1	Zn	1.232629	0.423762	-0.456027
Zn2	Zn	1.732629	0.923762	0.043973
Zn3	Zn	1.232530	0.601757	-0.321205
Zn4	Zn	1.732530	1.101757	0.178795
Zn5	Zn	1.097799	0.423793	-0.321197
Zn6	Zn	1.597799	0.923793	0.178803
Zn7	Zn	1.097751	0.601698	-0.455985
Zn8	Zn	1.597751	1.101698	0.044015
O9	O	1.165177	0.512752	-0.388603
O10	O	1.665177	1.012752	0.111397
O11	O	1.345448	0.447385	-0.438163
O12	O	1.845448	0.947385	0.061837
O13	O	1.214636	0.578187	-0.208371
O14	O	1.714636	1.078187	0.291629
O15	O	1.115745	0.274843	-0.339097
O16	O	1.615745	0.774843	0.160903
O17	O	1.345376	0.578157	-0.339110
O18	O	1.845376	1.078157	0.160890
O19	O	1.214804	0.274820	-0.438156
O20	O	1.714804	0.774820	0.061844
O21	O	1.115650	0.447438	-0.208366
O22	O	1.615650	0.947438	0.291634
O23	O	0.984960	0.447381	-0.339056
O24	O	1.484960	0.947381	0.160944
O25	O	1.115664	0.578057	-0.568823
O26	O	1.615664	1.078057	-0.068823
O27	O	0.984925	0.578087	-0.438084
O28	O	1.484925	1.078087	0.061916
O29	O	1.214758	0.447328	-0.568854
O30	O	1.714758	0.947328	-0.068854
O31	O	1.214590	0.750695	-0.339069
O32	O	1.714590	1.250695	0.160931
O33	O	1.115568	0.750652	-0.438091
O34	O	1.615568	1.250652	0.061909
C35	C	0.955686	0.512732	-0.388565
C36	C	1.455686	1.012732	0.111435
C37	C	0.866065	0.512749	-0.388568
C38	C	1.366065	1.012749	0.111432
C39	C	0.793283	0.512751	-0.388578
C40	C	1.293283	1.012751	0.111422
C41	C	0.701974	0.512756	-0.388598
C42	C	1.201974	1.012756	0.111402
C43	C	0.629198	0.512766	-0.388619
C44	C	1.129198	1.012766	0.111381
C45	C	0.537884	0.512773	-0.388638
C46	C	1.037884	1.012773	0.111362
C47	C	1.165085	0.789293	-0.388594
C48	C	1.665085	1.289293	0.111406
C49	C	1.165120	0.907599	-0.388617
C50	C	1.665120	1.407599	0.111383
C51	C	1.111247	0.976867	-0.442437
C52	C	1.611247	1.476867	0.057563
C53	C	1.091596	1.047724	-0.368861
C54	C	1.591596	1.547724	0.131139
C55	C	1.184814	1.047541	-0.462205
C56	C	1.684814	1.547541	0.037795
C57	C	1.145430	0.976898	-0.315002
C58	C	1.645430	1.476898	0.184998
C59	C	1.238682	0.976708	-0.408396
C60	C	1.738682	1.476708	0.091604
C61	C	1.219060	1.047533	-0.334769
C62	C	1.719060	1.547533	0.165231
C63	C	1.375486	0.512774	-0.388642
C64	C	1.875486	1.012774	0.111358
C65	C	1.465107	0.512783	-0.388659
C66	C	1.965107	1.012783	0.111341
C67	C	1.165217	0.512682	-0.598912
C68	C	1.665217	1.012682	-0.098912
C69	C	1.165233	0.512652	-0.688534
C70	C	1.665233	1.012652	-0.188534
C71	C	1.165256	1.235132	-0.388629
C72	C	1.665256	1.735132	0.111371
C73	C	1.165199	1.116826	-0.388637
C74	C	1.665199	1.616826	0.111363
C75	C	1.165247	0.512629	-0.761316
C76	C	1.665247	1.012629	-0.261316
C77	C	1.165265	0.512589	-0.852625
C78	C	1.665265	1.012589	-0.352625
C79	C	1.165284	0.512552	-0.925401
C80	C	1.665284	1.012552	-0.425401
C81	C	1.165305	0.512513	-1.016715
C82	C	1.665305	1.012513	-0.516715
C83	C	1.165184	0.512746	-0.179113
C84	C	1.665184	1.012746	0.320887
C85	C	1.165324	0.512476	-0.089492
C86	C	1.665324	1.012476	0.410508
H87	H	1.065619	0.945838	-0.487885
H88	H	1.565619	1.445838	0.012115
N89	N	1.013604	1.086860	-0.347860
N90	N	1.513604	1.586860	0.152140
N91	N	0.983082	1.062988	-0.281573
N92	N	1.483082	1.562988	0.218427
H93	H	0.927998	1.090623	-0.266743
H94	H	1.427998	1.590623	0.233257
H95	H	1.201440	1.078571	-0.524430
H96	H	1.701440	1.578571	-0.024430
H97	H	1.128733	0.945996	-0.252760
H98	H	1.628733	1.445996	0.247240
N99	N	1.276246	1.086243	-0.277620
N100	N	1.776246	1.586243	0.222380
N101	N	1.285934	1.183959	-0.268731
N102	N	1.785934	1.683959	0.231269
H103	H	1.326318	1.211302	-0.228368
H104	H	1.826318	1.711302	0.271632
H105	H	1.300841	0.945493	-0.425144
H106	H	1.800841	1.445493	0.074856
