data_functionalizedCrystal
_audit_creation_method	'MofGen! by Chris Wilmer'
_symmetry_space_group_name_H-M	'P1'
_symmetry_Int_Tables_number	1
_symmetry_cell_setting	triclinic
loop_
_symmetry_equiv_pos_as_xyz
  x,y,z
_cell_length_a	11.804365
_cell_length_b	13.339070
_cell_length_c	13.339070
_cell_angle_alpha	64.370706
_cell_angle_beta	105.124870
_cell_angle_gamma	105.112168
loop_
_atom_site_label
_atom_site_type_symbol
_atom_site_fract_x
_atom_site_fract_y
_atom_site_fract_z
O1	O	-0.099059	0.534576	-1.512774
O2	O	-0.099053	0.462317	-1.197964
O3	O	-0.099052	0.341042	-1.319238
O4	O	-0.099060	0.655850	-1.391499
O5	O	0.099004	0.372924	-1.287299
O6	O	0.099002	0.494199	-1.166024
O7	O	0.098997	0.566458	-1.480834
Cu8	Cu	0.117083	0.533239	-1.320513
Cu9	Cu	-0.117140	0.495535	-1.358285
O10	O	0.098995	0.687732	-1.359560
C11	C	-0.000026	0.315868	-1.291062
C12	C	-0.000030	0.193353	-1.254680
C13	C	-0.000025	0.466052	-1.140878
C14	C	-0.000023	0.429669	-1.018364
N15	N	0.281824	0.559760	-1.293954
N16	N	-0.281880	0.469008	-1.384850
C17	C	0.655774	0.405301	-1.448622
C18	C	0.531113	0.385233	-1.468712
C19	C	0.468784	0.428863	-1.425024
C20	C	0.531130	0.492564	-1.361243
C21	C	0.655803	0.512642	-1.341160
C22	C	0.468814	0.536204	-1.317561
C23	C	0.531159	0.599906	-1.253781
C24	C	0.655820	0.619979	-1.233699
C25	C	0.718149	0.576349	-1.277387
C26	C	0.344140	0.516126	-1.337645
C27	C	0.344169	0.623468	-1.230182
C28	C	0.468830	0.643536	-1.210092
C29	C	-0.000034	-0.092035	-1.537579
C30	C	-0.000023	0.023075	-1.571765
C31	C	-0.000025	0.065650	-1.492497
C32	C	-0.000037	-0.006896	-1.379036
C33	C	-0.000039	-0.122016	-1.344846
C34	C	-0.000030	0.035669	-1.299763
C35	C	-0.000042	-0.036878	-1.186303
C36	C	-0.000044	-0.151986	-1.152118
C37	C	-0.000042	-0.194561	-1.231386
C38	C	-0.000029	0.150789	-1.333954
C39	C	-0.000033	0.120808	-1.141220
C40	C	-0.000044	0.005698	-1.107035
C41	C	-0.000034	0.712906	-1.387736
C42	C	-0.000037	0.835420	-1.424120
C43	C	-0.000034	0.562722	-1.537920
C44	C	-0.000044	0.599104	-1.660436
C45	C	-0.000049	0.712563	-0.732981
C46	C	-0.000055	0.746750	-0.848090
C47	C	-0.000046	0.667483	-0.890664
C48	C	-0.000033	0.554023	-0.818118
C49	C	-0.000037	0.519831	-0.702998
C50	C	-0.000034	0.474750	-0.860682
C51	C	-0.000021	0.361290	-0.788135
C52	C	-0.000023	0.327105	-0.673027
C53	C	-0.000032	0.406372	-0.630453
C54	C	-0.000030	0.508942	-0.975801
C55	C	-0.000018	0.316210	-0.945819
C56	C	-0.000012	0.282023	-0.830709
H57	H	0.293389	0.464261	-1.389575
H58	H	-0.000055	-0.288293	-1.203558
C59	C	0.724335	0.357318	-1.496673
H60	H	0.807510	0.378396	-1.475572
H61	H	0.703888	0.386565	-1.576611
H62	H	0.703918	0.277379	-1.467463
H63	H	-0.000019	0.209846	-1.426334
H64	H	0.367279	0.412520	-1.441383
H65	H	-0.000017	0.159379	-1.520338
C66	C	-0.000055	0.871546	-0.927880
H67	H	-0.000047	0.913861	-0.886039
H68	H	-0.069118	0.877777	-0.984552
H69	H	0.069023	0.900003	-0.962262
H70	H	-0.000044	-0.211050	-1.059730
H71	H	0.819658	0.592684	-1.261027
C72	C	-0.000024	0.102865	-1.696561
H73	H	-0.000036	0.061023	-1.738877
H74	H	0.069041	0.159512	-1.702770
H75	H	-0.069100	0.137273	-1.725041
C76	C	0.537413	0.713579	-1.139912
H77	H	0.482446	0.736676	-1.116750
H78	H	0.586052	0.778235	-1.184388
H79	H	0.586039	0.669014	-1.075275
C80	C	-0.000028	-0.138869	-1.624759
H81	H	-0.000035	-0.217817	-1.588145
H82	H	0.069039	-0.102731	-1.658816
H83	H	-0.069102	-0.124969	-1.681097
H84	H	-0.000026	0.234716	-0.613964
C85	C	0.462542	0.315159	-1.538855
H86	H	0.517514	0.292040	-1.561988
H87	H	0.413895	0.359684	-1.603494
H88	H	0.413923	0.250501	-1.494343
H89	H	0.706582	0.671859	-1.181777
H90	H	0.293422	0.658998	-1.194609
H91	H	-0.000053	-0.053386	-1.014653
H92	H	-0.000029	0.155472	-1.076672
C93	C	-0.000040	0.633737	-1.055593
H94	H	-0.000047	0.642750	-1.130250
H95	H	0.069021	0.678848	-1.031745
H96	H	-0.069121	0.656600	-1.054024
C97	C	-0.000073	0.799744	-0.686155
H98	H	-0.000087	0.872213	-0.745845
H99	H	0.068985	0.801534	-0.630726
H100	H	-0.069156	0.779281	-0.653022
C101	C	-0.000026	0.368769	-0.503832
H102	H	-0.000034	0.432230	-0.488872
H103	H	0.069041	0.336562	-0.461117
H104	H	-0.069100	0.314329	-0.483394
C105	C	-0.000006	0.229010	-0.992637
H106	H	0.000007	0.265624	-1.071582
H107	H	-0.069070	0.172693	-0.978757
H108	H	0.069071	0.194935	-0.956472
H109	H	-0.000054	0.695324	-0.984393
H110	H	-0.000011	0.189640	-0.771627
