data_functionalizedCrystal
_audit_creation_method	'MofGen! by Chris Wilmer'
_symmetry_space_group_name_H-M	'P1'
_symmetry_Int_Tables_number	1
_symmetry_cell_setting	triclinic
loop_
_symmetry_equiv_pos_as_xyz
  x,y,z
_cell_length_a	18.050591
_cell_length_b	19.121063
_cell_length_c	18.050591
_cell_angle_alpha	87.585417
_cell_angle_beta	90.011897
_cell_angle_gamma	92.465257
loop_
_atom_site_label
_atom_site_type_symbol
_atom_site_fract_x
_atom_site_fract_y
_atom_site_fract_z
Zn1	Zn	1.122608	-0.279733	0.432629
Zn2	Zn	1.455941	0.053600	0.765963
Zn3	Zn	1.789275	0.386933	1.099296
Zn4	Zn	1.117241	-0.397178	0.313729
Zn5	Zn	1.450574	-0.063844	0.647062
Zn6	Zn	1.783907	0.269489	0.980395
Zn7	Zn	0.998447	-0.279736	0.308441
Zn8	Zn	1.331780	0.053597	0.641774
Zn9	Zn	1.665113	0.386930	0.975107
Zn10	Zn	0.993079	-0.397140	0.437863
Zn11	Zn	1.326413	-0.063807	0.771196
Zn12	Zn	1.659746	0.269526	1.104529
O13	O	1.057844	-0.338447	0.373165
O14	O	1.391177	-0.005114	0.706499
O15	O	1.724510	0.328220	1.039832
O16	O	1.225820	-0.295327	0.416880
O17	O	1.559153	0.038006	0.750213
O18	O	1.892487	0.371340	1.083547
O19	O	1.101482	-0.381616	0.209104
O20	O	1.434816	-0.048282	0.542437
O21	O	1.768149	0.285051	0.875770
O22	O	1.019410	-0.181451	0.320512
O23	O	1.352743	0.151882	0.653845
O24	O	1.686076	0.485215	0.987178
O25	O	1.221877	-0.381613	0.329524
O26	O	1.555210	-0.048279	0.662858
O27	O	1.888543	0.285054	0.996191
O28	O	1.110630	-0.181449	0.411752
O29	O	1.443964	0.151884	0.745086
O30	O	1.777297	0.485218	1.078419
O31	O	1.014205	-0.295332	0.205218
O32	O	1.347538	0.038001	0.538552
O33	O	1.680872	0.371335	0.871885
O34	O	0.893811	-0.295296	0.325586
O35	O	1.227144	0.038037	0.658919
O36	O	1.560478	0.371371	0.992253
O37	O	1.010262	-0.381549	0.541092
O38	O	1.343595	-0.048216	0.874426
O39	O	1.676928	0.285117	1.207759
O40	O	0.889867	-0.381552	0.420672
O41	O	1.223201	-0.048219	0.754005
O42	O	1.556534	0.285115	1.087338
O43	O	1.105426	-0.295291	0.537247
O44	O	1.438759	0.038042	0.870581
O45	O	1.772093	0.371376	1.203914
O46	O	1.096278	-0.495457	0.334599
O47	O	1.429611	-0.162124	0.667932
O48	O	1.762945	0.171209	1.001265
O49	O	1.005057	-0.495430	0.425799
O50	O	1.338390	-0.162097	0.759132
O51	O	1.671724	0.171237	1.092466
C52	C	0.864893	-0.338421	0.373123
C53	C	1.198226	-0.005087	0.706457
C54	C	1.531559	0.328246	1.039790
C55	C	0.782347	-0.338426	0.373123
C56	C	1.115680	-0.005093	0.706457
C57	C	1.449013	0.328240	1.039790
C58	C	1.049523	-0.520928	0.381357
C59	C	1.382856	-0.187594	0.714690
C60	C	1.716189	0.145739	1.048023
C61	C	1.046031	-0.598994	0.384886
C62	C	1.379364	-0.265661	0.718219
C63	C	1.712698	0.067673	1.051553
C64	C	0.585021	-0.291466	0.321528
C65	C	0.918355	0.041867	0.654861
C66	C	1.251688	0.375201	0.988194
C67	C	0.532715	-0.355526	0.306137
C68	C	0.866048	-0.022193	0.639470
C69	C	1.199382	0.311141	0.972803
C70	C	0.631215	-0.338448	0.373158
C71	C	0.964549	-0.005114	0.706491
C72	C	1.297882	0.328219	1.039825
C73	C	0.536439	-0.274410	0.388548
C74	C	0.869773	0.058923	0.721881
C75	C	1.203106	0.392257	1.055215
C76	C	0.485230	-0.338463	0.373190
C77	C	0.818563	-0.005129	0.706523
C78	C	1.151896	0.328204	1.039856
C79	C	0.579995	-0.402541	0.357733
C80	C	0.913328	-0.069208	0.691066
C81	C	1.246661	0.264125	1.024400
C82	C	0.583725	-0.321382	0.440174
C83	C	0.917058	0.011951	0.773508
C84	C	1.250392	0.345284	1.106841
C85	C	0.531439	-0.385487	0.424811
C86	C	0.864772	-0.052153	0.758144
C87	C	1.198106	0.281180	1.091478
C88	C	0.715314	-0.338438	0.373138
C89	C	1.048647	-0.005105	0.706471
C90	C	1.381981	0.328228	1.039804
C91	C	0.401132	-0.338479	0.373210
C92	C	0.734466	-0.005146	0.706544
C93	C	1.067799	0.328187	1.039877
C94	C	1.091921	-0.635660	0.339100
C95	C	1.425255	-0.302327	0.672433
C96	C	1.758588	0.031006	1.005767
C97	C	1.088642	-0.709012	0.342423
C98	C	1.421975	-0.375678	0.675757
C99	C	1.755308	-0.042345	1.009090
C100	C	1.039467	-0.745695	0.391530
C101	C	1.372801	-0.412362	0.724863
C102	C	1.706134	-0.079029	1.058196
C103	C	0.993575	-0.709024	0.437321
C104	C	1.326909	-0.375690	0.770654
C105	C	1.660242	-0.042357	1.103987
C106	C	0.996859	-0.635674	0.434000
C107	C	1.330192	-0.302340	0.767334
C108	C	1.663526	0.030993	1.100667
C109	C	1.027178	-0.967166	0.403932
C110	C	1.360511	-0.633832	0.737265
C111	C	1.693844	-0.300499	1.070598
C112	C	1.023896	-1.040521	0.407247
C113	C	1.357229	-0.707187	0.740580
C114	C	1.690562	-0.373854	1.073914
C115	C	1.118963	-1.040504	0.312350
C116	C	1.452297	-0.707171	0.645684
C117	C	1.785630	-0.373837	0.979017
C118	C	1.122240	-0.967152	0.309031
C119	C	1.455573	-0.633819	0.642365
C120	C	1.788906	-0.300486	0.975698
C121	C	1.076350	-0.930487	0.354825
C122	C	1.409684	-0.597154	0.688158
C123	C	1.743017	-0.263820	1.021492
C124	C	1.036112	-0.820672	0.394926
C125	C	1.369446	-0.487339	0.728260
C126	C	1.702779	-0.154006	1.061593
C127	C	1.079710	-0.855512	0.351432
C128	C	1.413043	-0.522178	0.684765
C129	C	1.746376	-0.188845	1.018098
C130	C	1.251548	-0.338474	0.373208
C131	C	1.584881	-0.005140	0.706542
C132	C	1.918215	0.328193	1.039875
C133	C	1.334093	-0.338485	0.373227
C134	C	1.667427	-0.005152	0.706560
C135	C	2.000760	0.328182	1.039893
C136	C	1.057844	-0.338416	0.566870
C137	C	1.391177	-0.005082	0.900203
C138	C	1.724510	0.328251	1.233536
C139	C	1.057844	-0.338402	0.649415
C140	C	1.391177	-0.005069	0.982748
C141	C	1.724510	0.328264	1.316081
C142	C	1.066217	-0.155253	0.364958
C143	C	1.399551	0.178080	0.698292
C144	C	1.732884	0.511413	1.031625
C145	C	1.069786	-0.077187	0.361461
C146	C	1.403119	0.256146	0.694794
C147	C	1.736453	0.589479	1.028128
C148	C	1.109607	-0.291517	0.846776
C149	C	1.442941	0.041816	1.180109
C150	C	1.776274	0.375149	1.513442
C151	C	1.042640	-0.274334	0.895389
C152	C	1.375974	0.058999	1.228723
C153	C	1.709307	0.392333	1.562056
C154	C	1.057846	-0.338424	0.800546
C155	C	1.391179	-0.005091	1.133879
C156	C	1.724512	0.328243	1.467213
C157	C	1.124815	-0.355596	0.899013
C158	C	1.458148	-0.022263	1.232347
C159	C	1.791482	0.311071	1.565680
C160	C	1.057854	-0.338444	0.946532
C161	C	1.391187	-0.005111	1.279865
C162	C	1.724520	0.328223	1.613199
C163	C	0.990844	-0.321208	0.848071
C164	C	1.324178	0.012126	1.181405
C165	C	1.657511	0.345459	1.514738
C166	C	1.073063	-0.402499	0.851692
C167	C	1.406397	-0.069166	1.185026
C168	C	1.739730	0.264167	1.518359
C169	C	1.006048	-0.385341	0.900285
C170	C	1.339382	-0.052007	1.233618
C171	C	1.672715	0.281326	1.566951
C172	C	1.057842	-0.338411	0.716447
C173	C	1.391176	-0.005078	1.049781
C174	C	1.724509	0.328256	1.383114
C175	C	1.057850	-0.338457	1.030629
C176	C	1.391183	-0.005124	1.363963
C177	C	1.724516	0.328209	1.697296
C178	C	1.057842	-0.338484	1.180215
C179	C	1.391175	-0.005151	1.513548
C180	C	1.724508	0.328183	1.846882
C181	C	1.057855	-0.338468	1.097668
C182	C	1.391188	-0.005135	1.431002
C183	C	1.724521	0.328199	1.764335
H184	H	0.608476	-0.251778	0.277822
H185	H	0.941809	0.081556	0.611156
H186	H	1.275143	0.414889	0.944489
H187	H	0.983861	-1.070386	0.447248
H188	H	1.317194	-0.737053	0.780581
H189	H	1.650528	-0.403720	1.113915
O190	O	0.510970	-0.202669	0.405785
O191	O	0.844303	0.130664	0.739119
O192	O	1.177637	0.463998	1.072452
H193	H	0.532496	-0.163765	0.362838
H194	H	0.865829	0.169568	0.696171
H195	H	1.199162	0.502901	1.029505
H196	H	0.962230	-0.425017	0.923575
H197	H	1.295563	-0.091684	1.256909
H198	H	1.628897	0.241650	1.590242
O199	O	0.503059	-0.374664	0.231089
O200	O	0.836392	-0.041330	0.564423
O201	O	1.169725	0.292003	0.897756
H202	H	0.524576	-0.335584	0.188312
H203	H	0.857909	-0.002251	0.521646
H204	H	1.191242	0.331083	0.854979
O205	O	1.175270	-0.927583	0.256062
O206	O	1.508603	-0.594250	0.589395
O207	O	1.841937	-0.260916	0.922729
H208	H	1.214520	-0.894110	0.287821
H209	H	1.547853	-0.560777	0.621154
H210	H	1.881187	-0.227443	0.954488
O211	O	1.167523	-0.238941	0.815717
O212	O	1.500857	0.094392	1.149050
O213	O	1.834190	0.427726	1.482384
H214	H	1.167349	-0.239768	0.754270
H215	H	1.500683	0.093565	1.087603
H216	H	1.834016	0.426899	1.420936
H217	H	1.156325	-1.070365	0.275069
H218	H	1.489658	-0.737031	0.608402
H219	H	1.822991	-0.403698	0.941736
O220	O	1.090142	-0.474239	0.826100
O221	O	1.423475	-0.140905	1.159434
O222	O	1.756808	0.192428	1.492767
H223	H	1.145787	-0.488366	0.846479
H224	H	1.479120	-0.155033	1.179812
H225	H	1.812453	0.178300	1.513146
O226	O	1.199830	-0.374824	0.928618
O227	O	1.533163	-0.041490	1.261951
O228	O	1.866496	0.291843	1.595285
H229	H	1.198991	-0.375137	0.990116
H230	H	1.532324	-0.041804	1.323450
H231	H	1.865658	0.291529	1.656783
O232	O	0.977663	-0.927623	0.453298
O233	O	1.310996	-0.594289	0.786631
O234	O	1.644329	-0.260956	1.119964
H235	H	0.942906	-0.965456	0.487988
H236	H	1.276239	-0.632123	0.821321
H237	H	1.609573	-0.298790	1.154654
O238	O	0.605333	-0.474306	0.340409
O239	O	0.938666	-0.140973	0.673742
O240	O	1.272000	0.192361	1.007075
H241	H	0.666847	-0.473728	0.340500
H242	H	1.000180	-0.140395	0.673833
H243	H	1.333514	0.192939	1.007166
H244	H	0.953540	-0.738897	0.477307
H245	H	1.286873	-0.405564	0.810640
H246	H	1.620206	-0.072230	1.143974
H247	H	1.029768	-0.220156	0.914679
H248	H	1.363101	0.113178	1.248012
H249	H	1.696435	0.446511	1.581346
O250	O	0.915811	-0.301887	0.818593
O251	O	1.249145	0.031446	1.151926
O252	O	1.582478	0.364779	1.485260
H253	H	0.916407	-0.302002	0.757110
H254	H	1.249740	0.031331	1.090444
H255	H	1.583073	0.364665	1.423777
O256	O	0.500526	-0.438178	0.482662
O257	O	0.833859	-0.104845	0.815995
O258	O	1.167192	0.228489	1.149328
H259	H	0.517993	-0.491267	0.469719
H260	H	0.851326	-0.157933	0.803053
H261	H	1.184660	0.175400	1.136386
O262	O	0.613407	-0.302226	0.515201
O263	O	0.946740	0.031107	0.848535
O264	O	1.280073	0.364440	1.181868
H265	H	0.596087	-0.249014	0.527837
H266	H	0.929420	0.084319	0.861171
H267	H	1.262753	0.417653	1.194504
H268	H	1.126010	-0.738863	0.305139
H269	H	1.459343	-0.405529	0.638472
H270	H	1.792676	-0.072196	0.971806
O271	O	1.144966	-0.596093	0.286143
O272	O	1.478299	-0.262759	0.619477
O273	O	1.811632	0.070574	0.952810
H274	H	1.131656	-0.610213	0.228480
H275	H	1.464989	-0.276879	0.561814
H276	H	1.798323	0.056454	0.895147
O277	O	0.947356	-0.596120	0.483374
O278	O	1.280689	-0.262787	0.816708
O279	O	1.614022	0.070546	1.150041
H280	H	0.912602	-0.633950	0.518072
H281	H	1.245936	-0.300617	0.851405
H282	H	1.579269	0.032717	1.184739
H283	H	1.119750	-0.825642	0.311452
H284	H	1.453084	-0.492308	0.644785
H285	H	1.786417	-0.158975	0.978119
H286	H	0.996073	-0.850548	0.434907
H287	H	1.329406	-0.517215	0.768241
H288	H	1.662740	-0.183881	1.101574
