data_functionalizedCrystal
_audit_creation_method	'MofGen! by Chris Wilmer'
_symmetry_space_group_name_H-M	'P1'
_symmetry_Int_Tables_number	1
_symmetry_cell_setting	triclinic
loop_
_symmetry_equiv_pos_as_xyz
  x,y,z
_cell_length_a	14.044220
_cell_length_b	12.503572
_cell_length_c	11.792240
_cell_angle_alpha	93.538063
_cell_angle_beta	91.308852
_cell_angle_gamma	93.835250
loop_
_atom_site_label
_atom_site_type_symbol
_atom_site_fract_x
_atom_site_fract_y
_atom_site_fract_z
O1	O	1.264544	0.089247	-0.267759
O2	O	0.988526	0.089273	-0.257878
O3	O	1.133231	0.089227	-0.098279
O4	O	1.119839	0.089294	-0.427358
O5	O	1.122349	-0.089411	-0.110304
O6	O	0.977643	-0.089365	-0.269903
O7	O	1.253662	-0.089391	-0.279784
Cu8	Cu	1.114659	-0.105689	-0.275941
Cu9	Cu	1.127529	0.105571	-0.261721
O10	O	1.108956	-0.089345	-0.439383
C11	C	0.947748	-0.000043	-0.259566
C12	C	0.842456	-0.000035	-0.246666
N13	N	1.105614	-0.254279	-0.285943
C14	C	1.092308	-0.473390	-0.300666
C15	C	1.149884	-0.526735	-0.236991
C16	C	1.142480	-0.648656	-0.245183
C17	C	1.099710	-0.351458	-0.292475
C18	C	0.649672	-0.000061	-0.223086
C19	C	0.592510	-0.000047	-0.314570
C20	C	0.485238	-0.000062	-0.301450
C21	C	0.756954	-0.000047	-0.236205
C22	C	1.294440	-0.000072	-0.278096
C23	C	1.399732	-0.000073	-0.290995
C24	C	1.126948	-0.000098	-0.061922
C25	C	1.124428	-0.000116	0.064327
N26	N	1.136581	0.254161	-0.251711
C27	C	1.119796	-0.000133	0.295473
C28	C	1.122370	-0.000123	0.166847
C29	C	1.115237	-0.000056	0.524258
C30	C	1.117751	-0.000144	0.398001
H31	H	1.037460	-0.519280	-0.361328
N32	N	0.632191	-0.000024	-0.425181
N33	N	0.720541	-0.000013	-0.435823
H34	H	0.748571	0.000005	-0.513939
N35	N	0.609991	-0.000091	-0.112484
N36	N	0.521640	-0.000102	-0.101851
H37	H	0.493604	-0.000120	-0.023739
H38	H	1.204737	-0.480840	-0.176327
