data_functionalizedCrystal
_audit_creation_method	'MofGen! by Chris Wilmer'
_symmetry_space_group_name_H-M	'P1'
_symmetry_Int_Tables_number	1
_symmetry_cell_setting	triclinic
loop_
_symmetry_equiv_pos_as_xyz
  x,y,z
_cell_length_a	17.019365
_cell_length_b	10.540491
_cell_length_c	9.616153
_cell_angle_alpha	89.994755
_cell_angle_beta	93.878165
_cell_angle_gamma	96.052071
loop_
_atom_site_label
_atom_site_type_symbol
_atom_site_fract_x
_atom_site_fract_y
_atom_site_fract_z
O1	O	1.047563	-0.161710	0.240969
O2	O	0.818013	-0.182335	0.213508
O3	O	0.938045	0.012774	0.227863
O4	O	0.927531	-0.356819	0.226614
O5	O	0.938040	0.012788	-0.003429
O6	O	0.818008	-0.182321	-0.017784
O7	O	1.047558	-0.161696	0.009677
Zn8	Zn	0.932782	-0.172007	-0.040776
Zn9	Zn	0.932789	-0.172024	0.263961
O10	O	0.927526	-0.356805	-0.004678
C11	C	0.788618	-0.181546	0.094346
C12	C	0.701035	-0.179202	0.083869
C13	C	0.937262	0.060072	0.112125
C14	C	0.934927	0.200985	0.111851
C15	C	1.076954	-0.162485	0.128842
C16	C	1.164536	-0.164829	0.139328
C17	C	1.205687	-0.165921	0.018184
C18	C	1.287980	-0.168134	0.028048
C19	C	1.329120	-0.169246	0.159059
C20	C	1.287963	-0.168157	0.280213
C21	C	1.205671	-0.165953	0.270347
C22	C	1.577586	-0.175909	0.195156
C23	C	1.659884	-0.178110	0.205014
C24	C	1.659895	-0.178089	-0.047152
C25	C	1.577602	-0.175878	-0.057007
C26	C	1.536452	-0.174796	0.064147
C27	C	1.413236	-0.171504	0.169146
C28	C	1.452336	-0.172547	0.054059
C29	C	1.018316	0.419812	0.121292
C30	C	1.020807	0.273256	0.122122
C31	C	0.890971	0.245015	0.238667
C32	C	0.889089	0.391746	0.238542
C33	C	0.887295	0.391541	-0.024694
C34	C	0.891362	0.245265	-0.025942
N35	N	0.932784	-0.171994	-0.248750
C36	C	0.928319	0.595899	0.111059
C37	C	0.930685	0.454993	0.111328
C38	C	0.997233	-0.067976	-0.461370
C39	C	0.997059	-0.067586	-0.300223
C40	C	0.850326	-0.143216	-0.317146
C41	C	0.850710	-0.142488	-0.478318
C42	C	0.950071	-0.305161	-0.466553
C43	C	0.951931	-0.304259	-0.305102
N44	N	0.932793	-0.172027	0.471936
H45	H	1.321481	-0.169021	-0.070601
H46	H	1.693408	-0.178973	-0.145788
H47	H	1.172196	-0.165022	-0.088500
H48	H	1.446742	-0.172405	0.275816
H49	H	1.172167	-0.165067	0.368996
N50	N	0.887839	-0.407732	-0.524518
H51	H	0.848639	-0.368227	-0.590301
H52	H	0.914028	-0.473232	-0.576474
H53	H	1.544092	-0.175024	0.293809
H54	H	1.008954	-0.332861	-0.500157
N55	N	1.078217	-0.090246	-0.238075
H56	H	1.092161	-0.175491	-0.271157
H57	H	1.118556	-0.020325	-0.268420
N58	N	1.062639	0.476106	0.001125
H59	H	1.026349	0.524968	-0.060940
H60	H	1.109718	0.535706	0.038369
N61	N	0.933715	0.208057	-0.150310
H62	H	0.952235	0.287154	-0.203277
H63	H	0.980893	0.162680	-0.117438
N64	N	1.066342	0.235123	0.002143
H65	H	1.084976	0.313586	-0.051759
H66	H	1.113623	0.192062	0.039422
N67	N	0.785229	-0.240913	-0.274163
H68	H	0.758202	-0.286436	-0.359657
H69	H	0.808678	-0.304838	-0.209761
N70	N	1.533228	-0.174674	-0.198308
H71	H	1.571846	-0.174821	-0.273553
H72	H	1.493499	-0.252860	-0.208975
N73	N	1.704260	-0.179308	0.346325
H74	H	1.665705	-0.178291	0.421579
H75	H	1.732446	-0.258873	0.355187
N76	N	0.928901	0.445678	0.374063
H77	H	0.899744	0.407174	0.454593
H78	H	0.985550	0.424631	0.382926
N79	N	0.923241	0.448342	-0.153012
H80	H	0.918249	0.542964	-0.155475
H81	H	0.981029	0.433771	-0.150382
N82	N	1.332331	-0.169362	0.421520
H83	H	1.390707	-0.170919	0.409391
H84	H	1.323901	-0.090327	0.475562
H85	H	1.418836	-0.171648	-0.052610
H86	H	0.834857	-0.047229	-0.278636
N87	N	1.062392	0.478154	0.251309
H88	H	1.025841	0.527274	0.303785
H89	H	1.081611	0.408296	0.312492
N90	N	1.066630	0.236381	0.253240
H91	H	1.039777	0.263069	0.337397
H92	H	1.068436	0.140918	0.254213
H93	H	0.824859	0.413686	0.236842
N94	N	0.807224	0.180879	0.235168
H95	H	0.796948	0.122524	0.151142
H96	H	0.799852	0.129421	0.322806
H97	H	1.012594	-0.326099	-0.259590
H98	H	0.921501	0.214653	0.340611
N99	N	0.808298	0.178954	-0.046425
H100	H	0.797683	0.118999	0.033684
H101	H	0.769115	0.244671	-0.049973
H102	H	0.822819	0.412632	-0.033297
H103	H	1.058709	-0.084815	-0.492776
N104	N	0.982728	0.062163	-0.516788
H105	H	0.934596	0.054011	-0.584907
H106	H	0.973510	0.119750	-0.436878
H107	H	0.985943	0.031221	-0.263002
H108	H	0.835593	-0.045399	-0.517746
N109	N	0.785239	-0.239056	-0.537868
H110	H	0.794280	-0.326654	-0.501660
H111	H	0.732619	-0.215769	-0.508894
N112	N	0.893865	-0.411616	-0.258713
H113	H	0.854144	-0.375875	-0.200253
H114	H	0.865311	-0.456624	-0.343245
