data_functionalizedCrystal
_audit_creation_method	'MofGen! by Chris Wilmer'
_symmetry_space_group_name_H-M	'P1'
_symmetry_Int_Tables_number	1
_symmetry_cell_setting	triclinic
loop_
_symmetry_equiv_pos_as_xyz
  x,y,z
_cell_length_a	11.792241
_cell_length_b	16.109301
_cell_length_c	15.186229
_cell_angle_alpha	90.005167
_cell_angle_beta	90.000845
_cell_angle_gamma	96.172552
loop_
_atom_site_label
_atom_site_type_symbol
_atom_site_fract_x
_atom_site_fract_y
_atom_site_fract_z
O1	O	1.505908	-0.113953	-0.073146
O2	O	1.839241	0.219380	0.260187
O3	O	2.172574	0.552714	0.593521
O4	O	1.175464	-0.125697	-0.073167
O5	O	1.508797	0.207636	0.260166
O6	O	1.842130	0.540969	0.593500
O7	O	1.349763	0.001163	-0.073147
O8	O	1.683096	0.334496	0.260186
O9	O	2.016430	0.667830	0.593520
O10	O	1.331608	-0.240814	-0.073166
O11	O	1.664941	0.092520	0.260167
O12	O	1.998275	0.425853	0.593501
O13	O	1.349752	0.001165	0.073310
O14	O	1.683085	0.334498	0.406644
O15	O	2.016418	0.667832	0.739977
O16	O	1.175452	-0.125695	0.073290
O17	O	1.508785	0.207638	0.406624
O18	O	1.842119	0.540971	0.739957
O19	O	1.505896	-0.113951	0.073311
O20	O	1.839229	0.219382	0.406644
O21	O	2.172563	0.552715	0.739978
Zn22	Zn	1.340672	-0.119823	0.096554
Zn23	Zn	1.674005	0.213510	0.429887
Zn24	Zn	2.007339	0.546844	0.763221
Zn25	Zn	1.340687	-0.119826	-0.096410
Zn26	Zn	1.674021	0.213508	0.236924
Zn27	Zn	2.007354	0.546841	0.570257
O28	O	1.331596	-0.240812	0.073291
O29	O	1.664930	0.092522	0.406625
O30	O	1.998263	0.425855	0.739958
C31	C	1.133173	-0.124959	0.000059
C32	C	1.466507	0.208375	0.333392
C33	C	1.799840	0.541708	0.666726
C34	C	1.007179	-0.122751	0.000051
C35	C	1.340512	0.210583	0.333385
C36	C	1.673846	0.543916	0.666718
N37	N	1.340670	-0.119821	0.228247
N38	N	1.674003	0.213512	0.561580
N39	N	2.007337	0.546846	0.894913
C40	C	1.349022	0.032142	0.000082
C41	C	1.682355	0.365476	0.333415
C42	C	2.015689	0.698809	0.666749
C43	C	1.346817	0.124448	0.000083
C44	C	1.680150	0.457781	0.333416
C45	C	2.013484	0.791115	0.666750
C46	C	0.776502	-0.118690	0.000077
C47	C	1.109836	0.214643	0.333410
C48	C	1.443169	0.547976	0.666744
C49	C	0.904868	-0.120946	0.000063
C50	C	1.238201	0.212387	0.333396
C51	C	1.571534	0.545720	0.666730
C52	C	1.548186	-0.114690	0.000083
C53	C	1.881520	0.218643	0.333416
C54	C	2.214853	0.551977	0.666750
C55	C	1.674181	-0.116898	0.000085
C56	C	2.007514	0.216435	0.333418
C57	C	2.340847	0.549769	0.666752
C58	C	1.332338	-0.271791	0.000060
C59	C	1.665671	0.061542	0.333394
C60	C	1.999004	0.394876	0.666727
C61	C	1.334542	-0.364097	0.000053
C62	C	1.667876	-0.030763	0.333387
C63	C	2.001209	0.302570	0.666720
C64	C	1.445116	0.346258	0.000075
C65	C	1.778450	0.679591	0.333409
C66	C	2.111783	1.012924	0.666742
C67	C	1.443036	0.432988	0.000068
C68	C	1.776369	0.766321	0.333401
C69	C	2.109703	1.099655	0.666735
C70	C	1.236235	0.414087	0.000058
C71	C	1.569569	0.747420	0.333392
C72	C	1.902902	1.080753	0.666725
C73	C	1.238317	0.327358	0.000060
C74	C	1.571650	0.660692	0.333393
C75	C	1.904984	0.994025	0.666726
C76	C	1.342761	0.293446	0.000072
C77	C	1.676094	0.626780	0.333406
C78	C	2.009428	0.960113	0.666739
C79	C	1.338599	0.466905	0.000064
C80	C	1.671932	0.800238	0.333397
C81	C	2.005265	1.133572	0.666731
C82	C	1.336342	0.560942	0.000056
C83	C	1.669675	0.894275	0.333389
C84	C	2.003009	1.227608	0.666723
C85	C	1.345018	0.199404	0.000079
C86	C	1.678351	0.532737	0.333412
C87	C	2.011685	0.866070	0.666745
N88	N	1.340699	-0.119821	-0.228102
N89	N	1.674032	0.213512	0.105231
N90	N	2.007365	0.546846	0.438564
C91	C	1.417876	-0.063666	0.453978
C92	C	1.751209	0.269667	0.787312
C93	C	2.084543	0.603000	1.120645
C94	C	1.417880	-0.063664	0.546168
C95	C	1.751213	0.269669	0.879501
C96	C	2.084546	0.603002	1.212835
C97	C	1.263484	-0.175978	0.546159
C98	C	1.596818	0.157355	0.879493
C99	C	1.930151	0.490688	1.212826
C100	C	1.263476	-0.175976	0.453971
C101	C	1.596809	0.157358	0.787305
C102	C	1.930143	0.490691	1.120638
C103	C	1.340678	-0.119821	0.407883
C104	C	1.674012	0.213513	0.741217
C105	C	2.007345	0.546846	1.074550
C106	C	1.340690	-0.119821	0.592261
C107	C	1.674023	0.213512	0.925594
C108	C	2.007357	0.546845	1.258928
C109	C	1.340693	-0.119820	0.692217
C110	C	1.674027	0.213514	1.025550
C111	C	2.007360	0.546847	1.358884
C112	C	1.340674	-0.119821	0.307921
C113	C	1.674007	0.213512	0.641254
C114	C	2.007341	0.546846	0.974587
H115	H	1.530161	0.318650	0.000084
H116	H	1.863495	0.651983	0.333417
H117	H	2.196828	0.985316	0.666751
H118	H	1.200629	-0.221700	0.583694
H119	H	1.533963	0.111634	0.917027
H120	H	1.867296	0.444967	1.250360
H121	H	1.200607	-0.221704	0.416438
H122	H	1.533940	0.111630	0.749772
H123	H	1.867274	0.444963	1.083105
O124	O	1.127915	0.270387	0.000066
O125	O	1.461248	0.603720	0.333400
O126	O	1.794582	0.937054	0.666733
H127	H	1.054939	0.308537	0.000073
H128	H	1.388272	0.641870	0.333407
H129	H	1.721605	0.975204	0.666740
H130	H	1.480739	-0.017938	0.583696
H131	H	1.814073	0.315396	0.917029
H132	H	2.147406	0.648729	1.250363
O133	O	1.553432	0.489952	0.000082
O134	O	1.886766	0.823285	0.333416
O135	O	2.220099	1.156619	0.666749
H136	H	1.626403	0.451797	0.000100
H137	H	1.959736	0.785130	0.333433
H138	H	2.293070	1.118464	0.666767
O139	O	1.123587	0.450662	0.000063
O140	O	1.456921	0.783995	0.333397
O141	O	1.790254	1.117329	0.666730
H142	H	1.139333	0.519843	0.000076
H143	H	1.472666	0.853176	0.333409
H144	H	1.806000	1.186509	0.666743
H145	H	1.480737	-0.017940	0.416456
H146	H	1.814071	0.315393	0.749789
H147	H	2.147404	0.648726	1.083122
