data_functionalizedCrystal
_audit_creation_method	'MofGen! by Chris Wilmer'
_symmetry_space_group_name_H-M	'P1'
_symmetry_Int_Tables_number	1
_symmetry_cell_setting	triclinic
loop_
_symmetry_equiv_pos_as_xyz
  x,y,z
_cell_length_a	9.065218
_cell_length_b	8.634740
_cell_length_c	7.540329
_cell_angle_alpha	90.001389
_cell_angle_beta	90.001372
_cell_angle_gamma	92.793096
loop_
_atom_site_label
_atom_site_type_symbol
_atom_site_fract_x
_atom_site_fract_y
_atom_site_fract_z
O1	O	0.481953	2.052786	0.147474
O2	O	0.441539	1.603270	0.147477
O3	O	0.248306	1.837319	0.147472
O4	O	0.675186	1.818736	0.147479
O5	O	0.248303	1.837311	-0.147493
O6	O	0.441536	1.603261	-0.147488
O7	O	0.481950	2.052778	-0.147491
Cu8	Cu	0.461743	1.828019	-0.174422
Cu9	Cu	0.461746	1.828029	0.174408
O10	O	0.675184	1.818728	-0.147486
C11	C	0.432383	1.545687	-0.000005
C12	C	0.405085	1.374123	-0.000004
C13	C	0.193087	1.835529	-0.000008
C14	C	0.028553	1.830189	0.000001
C15	C	0.730403	1.820518	-0.000002
C16	C	0.894937	1.825858	0.000001
C17	C	0.491107	2.110360	-0.000005
C18	C	0.518405	2.281924	0.000006
N19	N	0.461741	1.828023	-0.419770
N20	N	0.461738	1.828036	0.419757
H21	H	0.636306	1.334241	-0.000009
H22	H	0.287176	1.321799	0.000045
