data_functionalizedCrystal
_audit_creation_method	'MofGen! by Chris Wilmer'
_symmetry_space_group_name_H-M	'P1'
_symmetry_Int_Tables_number	1
_symmetry_cell_setting	triclinic
loop_
_symmetry_equiv_pos_as_xyz
  x,y,z
_cell_length_a	17.000371
_cell_length_b	17.019294
_cell_length_c	13.101039
_cell_angle_alpha	89.487532
_cell_angle_beta	86.909647
_cell_angle_gamma	79.505866
loop_
_atom_site_label
_atom_site_type_symbol
_atom_site_fract_x
_atom_site_fract_y
_atom_site_fract_z
O1	O	1.060562	0.023655	-0.087306
O2	O	0.828926	0.052150	-0.089821
O3	O	0.950688	-0.076825	-0.078435
O4	O	0.938800	0.152630	-0.098692
O5	O	0.941952	-0.067557	0.091177
O6	O	0.820190	0.061418	0.079791
O7	O	1.051826	0.032923	0.082306
Zn8	Zn	0.934621	0.048642	0.107978
Zn9	Zn	0.946131	0.036431	-0.115493
O10	O	0.930063	0.161898	0.070920
C11	C	0.794909	0.058314	-0.005150
C12	C	0.706566	0.062865	-0.005552
C13	C	0.945697	-0.101406	0.008948
C14	C	0.943831	-0.188454	0.016626
C15	C	0.674302	-0.007170	0.000633
C16	C	0.591294	-0.002890	0.000248
C17	C	0.540551	0.071427	-0.006315
C18	C	0.572820	0.141468	-0.012504
C19	C	0.655827	0.137186	-0.012126
C20	C	0.289462	0.087966	-0.007782
C21	C	0.206450	0.092242	-0.008157
C22	C	0.224930	-0.052116	0.004593
C23	C	0.307937	-0.056391	0.004976
C24	C	0.340199	0.013649	-0.001218
C25	C	0.455703	0.075805	-0.006706
C26	C	0.425046	0.009271	-0.000834
C27	C	0.947718	-0.234398	-0.072221
C28	C	0.945960	-0.316188	-0.065003
C29	C	0.940320	-0.352035	0.031063
C30	C	0.936430	-0.306085	0.119917
C31	C	0.938183	-0.224295	0.112698
C32	C	0.934784	-0.598734	0.057485
C33	C	0.933034	-0.680530	0.064697
C34	C	0.942562	-0.690628	-0.120224
C35	C	0.944320	-0.608837	-0.127434
C36	C	0.940425	-0.562893	-0.038581
C37	C	0.938525	-0.435638	0.038443
C38	C	0.942215	-0.479290	-0.045962
C39	C	1.085842	0.026758	-0.002367
C40	C	1.174186	0.022207	-0.001972
C41	C	0.935055	0.186478	-0.016465
C42	C	0.936921	0.273526	-0.024150
N43	N	0.926771	0.056975	0.260491
N44	N	0.953987	0.028091	-0.268005
C45	C	0.916091	0.068319	0.468532
C46	C	0.964664	0.016749	0.523960
C47	C	0.958722	0.023062	0.639721
C48	C	0.922032	0.062008	0.352760
H49	H	0.715612	-0.067688	0.005981
C50	C	0.926826	-0.719959	0.170382
N51	N	0.922151	-0.749657	0.249979
H52	H	1.010712	-0.032141	0.484474
H53	H	0.531499	0.201979	-0.017854
C54	C	0.933909	-0.173758	0.210437
N55	N	0.930687	-0.135694	0.284058
C56	C	0.150634	0.174000	-0.015395
N57	N	0.108594	0.235576	-0.020851
H58	H	0.870047	0.117207	0.508013
H59	H	0.349247	-0.116908	0.010325
H60	H	0.945731	-0.728043	-0.192564
C61	C	0.324938	0.165014	-0.014575
N62	N	0.351661	0.223051	-0.019684
H63	H	0.946801	-0.450099	-0.124178
H64	H	0.565030	-0.059920	0.005283
H65	H	0.682094	0.194217	-0.017157
H66	H	0.414379	0.136314	-0.012048
C67	C	0.189434	-0.129156	0.011395
N68	N	0.162700	-0.187186	0.016514
H69	H	0.466365	-0.051238	0.004503
C70	C	0.930220	-0.345518	0.225591
N71	N	0.925544	-0.375218	0.305187
C72	C	0.953923	-0.194975	-0.177902
N73	N	0.958593	-0.165283	-0.257504
H74	H	0.949129	-0.353593	-0.137352
C75	C	0.950524	-0.569412	-0.233114
N76	N	0.955200	-0.539718	-0.312714
C77	C	0.930503	-0.548207	0.155228
N78	N	0.927280	-0.510147	0.228853
H79	H	0.933935	-0.464834	0.116661
