data_functionalizedCrystal
_audit_creation_method	'MofGen! by Chris Wilmer'
_symmetry_space_group_name_H-M	'P1'
_symmetry_Int_Tables_number	1
_symmetry_cell_setting	triclinic
loop_
_symmetry_equiv_pos_as_xyz
  x,y,z
_cell_length_a	15.944551
_cell_length_b	15.944493
_cell_length_c	7.681459
_cell_angle_alpha	95.722469
_cell_angle_beta	95.737013
_cell_angle_gamma	96.513109
loop_
_atom_site_label
_atom_site_type_symbol
_atom_site_fract_x
_atom_site_fract_y
_atom_site_fract_z
O1	O	-0.116050	1.106616	-0.146386
O2	O	-0.129458	0.862059	-0.146392
O3	O	-0.000478	0.991015	-0.146399
O4	O	-0.245030	0.977660	-0.146379
O5	O	0.015431	1.006886	0.146458
O6	O	-0.113549	0.877930	0.146465
O7	O	-0.100141	1.122486	0.146471
Zn8	Zn	-0.104319	1.002728	0.192965
Zn9	Zn	-0.125280	0.981818	-0.192886
O10	O	-0.229121	0.993530	0.146478
C11	C	-0.120955	0.838700	0.000035
C12	C	-0.119313	0.745451	0.000032
C13	C	-0.195233	0.509691	0.000037
C14	C	-0.146448	0.466958	0.144435
C15	C	-0.116268	0.574730	0.000035
C16	C	-0.162114	0.451316	-0.144299
C17	C	-0.113334	0.409820	0.000031
C18	C	-0.067498	0.533232	0.144552
C19	C	-0.083183	0.517586	-0.144311
C20	C	-0.034338	0.474887	0.000122
C21	C	-0.117961	0.669730	0.000039
C22	C	-0.111635	0.314824	0.000039
C23	C	-0.268369	0.986150	0.000052
C24	C	-0.361614	0.987813	0.000060
C25	C	-0.576455	1.071718	0.000035
C26	C	-0.629635	1.040579	0.144430
C27	C	-0.532340	0.990819	0.000044
C28	C	-0.645306	1.024913	-0.144304
C29	C	-0.697254	0.993729	0.000022
C30	C	-0.584286	0.959665	0.144558
C31	C	-0.599957	0.944003	-0.144306
C32	C	-0.653118	0.912808	0.000124
C33	C	-0.437338	0.989145	0.000059
C34	C	-0.792254	0.995397	0.000020
C35	C	0.038770	0.998396	0.000023
C36	C	0.132014	0.996732	0.000004
C37	C	-0.108644	1.145846	0.000040
C38	C	-0.110287	1.239094	0.000032
N39	N	-0.090013	1.017005	0.456299
N40	N	-0.139586	0.967541	0.543780
H41	H	0.033737	0.459426	0.000200
F42	F	-0.532891	1.159497	0.000219
F43	F	-0.048304	0.546784	-0.303888
H44	H	-0.202109	0.415763	-0.266359
H45	H	-0.190184	0.917051	0.468586
F46	F	-0.647247	1.093951	0.303985
F47	F	-0.023881	1.083013	0.554589
F48	F	-0.696467	0.824964	0.000212
F49	F	-0.582322	0.890669	-0.303877
H50	H	-0.557663	0.932097	0.266764
F51	F	-0.680225	1.061010	-0.303854
F52	F	-0.015260	0.579564	0.304278
F53	F	-0.284126	0.530130	0.000222
F54	F	-0.181366	0.437781	0.304003
