data_functionalizedCrystal
_audit_creation_method	'MofGen! by Chris Wilmer'
_symmetry_space_group_name_H-M	'P1'
_symmetry_Int_Tables_number	1
_symmetry_cell_setting	triclinic
loop_
_symmetry_equiv_pos_as_xyz
  x,y,z
_cell_length_a	11.169417
_cell_length_b	18.050590
_cell_length_c	11.169409
_cell_angle_alpha	90.037983
_cell_angle_beta	90.019513
_cell_angle_gamma	90.019802
loop_
_atom_site_label
_atom_site_type_symbol
_atom_site_fract_x
_atom_site_fract_y
_atom_site_fract_z
Zn1	Zn	1.834894	-0.295575	0.678486
Zn2	Zn	2.168227	0.037759	1.011819
Zn3	Zn	2.501560	0.371092	1.345152
Zn4	Zn	1.834754	-0.419790	0.477783
Zn5	Zn	2.168088	-0.086456	0.811116
Zn6	Zn	2.501421	0.246877	1.144449
Zn7	Zn	1.634180	-0.295621	0.477821
Zn8	Zn	1.967513	0.037713	0.811154
Zn9	Zn	2.300846	0.371046	1.144488
Zn10	Zn	1.634158	-0.419730	0.678429
Zn11	Zn	1.967492	-0.086397	1.011762
Zn12	Zn	2.300825	0.246937	1.345095
O13	O	1.734497	-0.357679	0.578130
O14	O	2.067830	-0.024345	0.911463
O15	O	2.401163	0.308988	1.244796
O16	O	2.002825	-0.312058	0.651870
O17	O	2.336158	0.021276	0.985203
O18	O	2.669492	0.354609	1.318536
O19	O	1.808098	-0.403363	0.309838
O20	O	2.141432	-0.070029	0.643171
O21	O	2.474765	0.263304	0.976505
O22	O	1.660872	-0.191690	0.504480
O23	O	1.994205	0.141643	0.837813
O24	O	2.327539	0.474977	1.171146
O25	O	2.002723	-0.403318	0.504414
O26	O	2.336056	-0.069985	0.837748
O27	O	2.669389	0.263349	1.171081
O28	O	1.808336	-0.191656	0.651907
O29	O	2.141669	0.141677	0.985240
O30	O	2.475003	0.475011	1.318574
O31	O	1.660737	-0.312136	0.309866
O32	O	1.994070	0.021197	0.643200
O33	O	2.327404	0.354531	0.976533
O34	O	1.466227	-0.312078	0.504424
O35	O	1.799561	0.021255	0.837758
O36	O	2.132894	0.354588	1.171091
O37	O	1.660836	-0.403216	0.846386
O38	O	1.994169	-0.069883	1.179720
O39	O	2.327503	0.263450	1.513053
O40	O	1.466212	-0.403261	0.651810
O41	O	1.799545	-0.069928	0.985143
O42	O	2.132878	0.263406	1.318477
O43	O	1.808315	-0.312000	0.846428
O44	O	2.141649	0.021334	1.179761
O45	O	2.474982	0.354667	1.513095
O46	O	1.808078	-0.523706	0.504359
O47	O	2.141411	-0.190373	0.837692
O48	O	2.474744	0.142960	1.171026
O49	O	1.660701	-0.523662	0.651773
O50	O	1.994034	-0.190329	0.985106
O51	O	2.327367	0.143004	1.318439
C52	C	1.422672	-0.357669	0.578116
C53	C	1.756005	-0.024335	0.911449
C54	C	2.089339	0.308998	1.244783
C55	C	1.289272	-0.357682	0.578138
C56	C	1.622605	-0.024349	0.911472
C57	C	1.955939	0.308984	1.244805
C58	C	1.734404	-0.550631	0.578082
C59	C	2.067738	-0.217298	0.911415
C60	C	2.401071	0.116036	1.244748
C61	C	1.734475	-0.633177	0.578101
C62	C	2.067808	-0.299843	0.911435
C63	C	2.401141	0.033490	1.244768
C64	C	1.814785	-0.832624	0.498050
C65	C	2.148118	-0.499291	0.831383
C66	C	2.481452	-0.165957	1.164716
C67	C	1.844109	-0.881945	0.607586
C68	C	2.177442	-0.548612	0.940919
C69	C	2.510776	-0.215278	1.274252
C70	C	1.734543	-0.784307	0.578149
C71	C	2.067876	-0.450974	0.911483
C72	C	2.401209	-0.117640	1.244816
C73	C	1.705341	-0.882068	0.468663
C74	C	2.038674	-0.548734	0.801996
C75	C	2.372008	-0.215401	1.135329
C76	C	1.734611	-0.930292	0.578186
C77	C	2.067944	-0.596959	0.911519
C78	C	2.401278	-0.263625	1.244853
C79	C	1.763923	-0.832541	0.687743
C80	C	2.097256	-0.499207	1.021076
C81	C	2.430590	-0.165874	1.354409
C82	C	1.625104	-0.832659	0.548746
C83	C	1.958437	-0.499326	0.882079
C84	C	2.291771	-0.165992	1.215413
C85	C	1.654386	-0.881958	0.658357
C86	C	1.987720	-0.548624	0.991691
C87	C	2.321053	-0.215291	1.325024
C88	C	1.734507	-0.700209	0.578127
C89	C	2.067840	-0.366875	0.911460
C90	C	2.401173	-0.033542	1.244793
C91	C	1.734647	-1.014389	0.578221
C92	C	2.067980	-0.681055	0.911554
C93	C	2.401313	-0.347722	1.244888
C94	C	2.047539	-0.357689	0.578144
C95	C	2.380872	-0.024356	0.911477
C96	C	2.714206	0.308977	1.244811
C97	C	2.180939	-0.357694	0.578150
C98	C	2.514272	-0.024360	0.911484
C99	C	2.847606	0.308973	1.244817
C100	C	1.734589	-0.357596	0.891172
C101	C	2.067922	-0.024263	1.224506
C102	C	2.401255	0.309070	1.557839
C103	C	1.734628	-0.357561	1.024572
C104	C	2.067961	-0.024228	1.357906
C105	C	2.401295	0.309106	1.691239
C106	C	1.734622	-0.163973	0.578204
C107	C	2.067955	0.169360	0.911537
C108	C	2.401289	0.502694	1.244871
C109	C	1.734675	-0.081427	0.578236
C110	C	2.068009	0.251906	0.911569
C111	C	2.401342	0.585239	1.244902
C112	C	1.734474	-0.357707	0.266305
C113	C	2.067807	-0.024374	0.599638
C114	C	2.401141	0.308959	0.932972
C115	C	1.734667	-0.357533	0.132905
C116	C	2.068000	-0.024200	0.466239
C117	C	2.401334	0.309134	0.799572
H118	H	1.882666	-0.810962	0.430382
H119	H	2.215999	-0.477628	0.763715
H120	H	2.549333	-0.144295	1.097049
H121	H	1.936688	-0.903596	0.632479
H122	H	2.270022	-0.570263	0.965812
H123	H	2.603355	-0.236930	1.299145
N124	N	1.564549	-0.910471	0.748214
N125	N	1.897882	-0.577137	1.081547
N126	N	2.231215	-0.243804	1.414881
H127	H	1.564565	-0.966422	0.747256
H128	H	1.897898	-0.633088	1.080590
H129	H	2.231231	-0.299755	1.413923
H130	H	1.482145	-0.891693	0.726686
H131	H	1.815479	-0.558359	1.060019
H132	H	2.148812	-0.225026	1.393352
H133	H	1.532551	-0.810992	0.523820
H134	H	1.865885	-0.477658	0.857154
H135	H	2.199218	-0.144325	1.190487
H136	H	1.788558	-0.810879	0.780429
H137	H	2.121892	-0.477545	1.113762
H138	H	2.455225	-0.144212	1.447096
H139	H	1.680614	-0.903822	0.376056
H140	H	2.013947	-0.570488	0.709390
H141	H	2.347281	-0.237155	1.042723
