data_functionalizedCrystal
_audit_creation_method	'MofGen! by Chris Wilmer'
_symmetry_space_group_name_H-M	'P1'
_symmetry_Int_Tables_number	1
_symmetry_cell_setting	triclinic
loop_
_symmetry_equiv_pos_as_xyz
  x,y,z
_cell_length_a	21.295419
_cell_length_b	12.759400
_cell_length_c	12.759393
_cell_angle_alpha	90.025545
_cell_angle_beta	90.021311
_cell_angle_gamma	90.019606
loop_
_atom_site_label
_atom_site_type_symbol
_atom_site_fract_x
_atom_site_fract_y
_atom_site_fract_z
Zn1	Zn	-0.962451	0.417738	-0.594137
Zn2	Zn	-0.962411	0.593457	-0.418476
Zn3	Zn	-0.857181	0.417844	-0.418465
Zn4	Zn	-0.857194	0.593426	-0.594106
O5	O	-0.909809	0.505616	-0.506296
O6	O	-1.050535	0.441016	-0.570854
O7	O	-0.948430	0.570219	-0.271454
O8	O	-0.871157	0.270809	-0.441776
O9	O	-1.050506	0.570117	-0.441796
O10	O	-0.948498	0.270731	-0.570842
O11	O	-0.871118	0.441197	-0.271445
O12	O	-0.769094	0.441166	-0.441746
O13	O	-0.871178	0.570063	-0.741131
O14	O	-0.769103	0.570166	-0.570789
O15	O	-0.948510	0.440986	-0.741154
O16	O	-0.948442	0.740474	-0.441766
O17	O	-0.871140	0.740451	-0.570800
C18	C	-0.746258	0.505675	-0.506263
C19	C	-0.676290	0.505726	-0.506274
C20	C	-0.643461	0.438614	-0.573577
C21	C	-0.577718	0.438590	-0.573580
C22	C	-0.544807	0.505695	-0.506290
C23	C	-0.577644	0.572810	-0.438974
C24	C	-0.643385	0.572826	-0.438966
N25	N	-0.441558	0.597626	-0.498099
N26	N	-0.379107	0.597609	-0.498113
C27	C	-0.346732	0.505650	-0.506309
N28	N	-0.379169	0.413708	-0.514511
N29	N	-0.441626	0.413727	-0.514503
C30	C	-0.473522	0.505685	-0.506291
C31	C	-0.242618	0.438507	-0.573619
C32	C	-0.176874	0.438480	-0.573614
C33	C	-0.176801	0.572710	-0.439013
C34	C	-0.242544	0.572727	-0.439013
C35	C	-0.275448	0.505627	-0.506321
C36	C	-0.909831	0.231583	-0.506311
C37	C	-0.909840	0.114806	-0.506318
C38	C	-0.869580	0.059983	-0.439124
C39	C	-0.869589	-0.049741	-0.439138
C40	C	-0.950122	-0.049809	-0.573544
C41	C	-0.950110	0.059913	-0.573534
C42	C	-0.829310	0.114876	-0.371907
C43	C	-0.789048	0.060053	-0.304707
C44	C	-0.789057	-0.049671	-0.304721
C45	C	-0.829328	-0.104572	-0.371936
C46	C	-0.074000	0.505571	-0.506324
C47	C	-0.143968	0.505584	-0.506322
C48	C	-0.909805	0.778584	-0.506304
C49	C	-0.909861	0.895360	-0.506342
C50	C	-0.909850	0.505509	-0.780329
C51	C	-0.909868	0.505464	-0.897106
C52	C	-0.869628	0.438269	-0.951970
C53	C	-0.869647	0.438238	-1.061694
C54	C	-0.950150	0.572598	-1.061681
C55	C	-0.950128	0.572634	-0.951959
C56	C	-0.829368	0.371099	-0.897117
C57	C	-0.789126	0.303898	-0.951980
C58	C	-0.789146	0.303867	-1.061705
C59	C	-0.829407	0.371036	-1.116565
C60	C	-0.909805	0.505647	-0.233329
C61	C	-0.909909	0.505397	-0.116553
H62	H	-0.150006	0.627348	-0.384225
N63	N	-0.747911	0.116143	-0.236070
N64	N	-0.747906	0.214109	-0.236067
H65	H	-0.718852	0.253723	-0.187593
H66	H	-0.269410	0.383863	-0.628418
N67	N	-0.676923	0.641370	-0.370203
N68	N	-0.669561	0.634281	-0.273269
H69	H	-0.693248	0.682691	-0.224704
H70	H	-0.756269	-0.094307	-0.250012
N71	N	-0.748000	0.235308	-0.895931
N72	N	-0.747986	0.235345	-0.797966
H73	H	-0.718939	0.186903	-0.758381
N74	N	-0.991260	-0.105871	-0.642202
N75	N	-0.987099	-0.093653	-0.739147
H76	H	-1.016155	-0.133245	-0.787637
N77	N	-0.143348	0.369900	-0.642356
N78	N	-0.172738	0.309992	-0.702436
H79	H	-0.149060	0.261552	-0.750984
N80	N	-0.544029	0.641373	-0.370255
N81	N	-0.551346	0.738328	-0.377068
H82	H	-0.527606	0.786751	-0.328531
H83	H	-0.756375	0.249156	-1.106372
N84	N	-0.544172	0.370040	-0.642333
N85	N	-0.507493	0.303033	-0.605504
H86	H	-0.483804	0.254621	-0.654065
H87	H	-0.269273	0.627381	-0.384211
H88	H	-0.829300	0.204219	-0.371886
H89	H	-0.982885	0.104551	-0.628261
H90	H	-0.829330	-0.193917	-0.371945
H91	H	-0.829350	0.371115	-0.807774
N92	N	-0.991291	0.641189	-1.117700
N93	N	-1.027222	0.701171	-1.068701
H94	H	-1.056283	0.749609	-1.108263
H95	H	-0.982902	0.627336	-0.907288
N96	N	-0.677061	0.370073	-0.642339
N97	N	-0.647736	0.310157	-0.702429
H98	H	-0.671467	0.261749	-0.750994
N99	N	-0.829412	0.371004	-1.228646
N100	N	-0.793476	0.311010	-1.277622
H101	H	-0.793479	0.310984	-1.356778
