data_functionalizedCrystal
_audit_creation_method	'MofGen! by Chris Wilmer'
_symmetry_space_group_name_H-M	'P1'
_symmetry_Int_Tables_number	1
_symmetry_cell_setting	triclinic
loop_
_symmetry_equiv_pos_as_xyz
  x,y,z
_cell_length_a	19.805405
_cell_length_b	12.759401
_cell_length_c	12.759393
_cell_angle_alpha	90.019837
_cell_angle_beta	89.962322
_cell_angle_gamma	89.972065
loop_
_atom_site_label
_atom_site_type_symbol
_atom_site_fract_x
_atom_site_fract_y
_atom_site_fract_z
Zn1	Zn	-0.269395	-1.606169	-0.593976
Zn2	Zn	-0.382600	-1.606028	-0.418277
Zn3	Zn	-0.269434	-1.430472	-0.418311
Zn4	Zn	-0.382551	-1.430424	-0.593915
O5	O	-0.325995	-1.518273	-0.506120
O6	O	-0.284417	-1.753172	-0.570681
O7	O	-0.367625	-1.582701	-0.271261
O8	O	-0.174712	-1.453857	-0.441653
O9	O	-0.367588	-1.753068	-0.441596
O10	O	-0.174684	-1.582942	-0.570713
O11	O	-0.284482	-1.453720	-0.271285
O12	O	-0.284434	-1.283444	-0.441594
O13	O	-0.367504	-1.453777	-0.740944
O14	O	-0.367541	-1.283409	-0.570609
O15	O	-0.284369	-1.582896	-0.740989
O16	O	-0.477310	-1.582655	-0.441536
O17	O	-0.477274	-1.453639	-0.570576
C18	C	-0.325987	-1.245306	-0.506099
C19	C	-0.326000	-1.128529	-0.506115
C20	C	-0.501851	-1.518155	-0.506069
C21	C	-0.577083	-1.518201	-0.506082
C22	C	-0.325927	-1.518347	-0.780153
C23	C	-0.325897	-1.518378	-0.896930
C24	C	-0.612424	-1.585444	-0.438962
C25	C	-0.683112	-1.585489	-0.438985
C26	C	-0.718459	-1.518284	-0.506124
C27	C	-0.683113	-1.451037	-0.573252
C28	C	-0.612426	-1.450999	-0.573234
C29	C	-0.968186	-1.451192	-0.573330
C30	C	-1.038878	-1.451234	-0.573342
C31	C	-1.038872	-1.585682	-0.439081
C32	C	-0.968185	-1.585644	-0.439063
C33	C	-0.932846	-1.518402	-0.506194
C34	C	-0.856198	-1.518355	-0.506170
C35	C	-0.795106	-1.518324	-0.506144
C36	C	-0.149452	-1.518421	-0.506194
C37	C	-0.074220	-1.518483	-0.506225
C38	C	-0.326004	-1.792307	-0.506141
C39	C	-0.326008	-1.909083	-0.506150
C40	C	-0.369339	-1.073677	-0.573187
C41	C	-0.369342	-0.963953	-0.573208
C42	C	-0.282663	-0.963943	-0.439075
C43	C	-0.282658	-1.073666	-0.439060
C44	C	-0.282597	-1.451242	-0.951804
C45	C	-0.282576	-1.451266	-1.061528
C46	C	-0.369158	-1.585572	-1.061494
C47	C	-0.369182	-1.585541	-0.951772
C48	C	-0.326014	-1.518261	-0.233152
C49	C	-0.325853	-1.518433	-0.116376
H50	H	-0.583649	-1.640166	-0.384284
O51	O	-0.578062	-1.385828	-0.638545
C52	C	-0.498154	-1.371585	-0.780315
C53	C	-0.537041	-1.445506	-0.706426
H54	H	-0.464968	-1.419804	-0.835201
H55	H	-0.535525	-1.323573	-0.828383
H56	H	-0.465143	-1.316638	-0.732002
H57	H	-0.570052	-1.500516	-0.754658
H58	H	-0.499633	-1.493444	-0.658354
O59	O	-0.717546	-1.650920	-0.374027
C60	C	-0.826441	-1.710872	-0.314849
C61	C	-0.787530	-1.636635	-0.388388
H62	H	-0.883029	-1.699332	-0.326418
H63	H	-0.812462	-1.795520	-0.333569
H64	H	-0.812630	-1.692669	-0.230053
H65	H	-0.801319	-1.654743	-0.473209
H66	H	-0.801512	-1.552008	-0.369578
H67	H	-0.939418	-1.396439	-0.627989
O68	O	-0.411268	-1.650861	-0.898623
C69	C	-0.497174	-1.784030	-0.910158
C70	C	-0.449535	-1.710137	-0.970480
H71	H	-0.528135	-1.831958	-0.968228
H72	H	-0.466145	-1.839047	-0.858834
H73	H	-0.532543	-1.735727	-0.858741
H74	H	-0.414156	-1.758355	-1.021954
H75	H	-0.480606	-1.655117	-1.021737
H76	H	-0.404632	-0.919297	-0.627827
H77	H	-0.939408	-1.640365	-0.384388
H78	H	-0.404398	-1.640255	-1.106160
O79	O	-1.073185	-1.386065	-0.638722
C80	C	-1.094724	-1.334961	-0.817395
C81	C	-1.055843	-1.408840	-0.743479
H82	H	-1.080707	-1.353333	-0.902106
H83	H	-1.151325	-1.346543	-0.805963
H84	H	-1.080891	-1.250251	-0.798824
H85	H	-1.069620	-1.493578	-0.762005
H86	H	-0.999252	-1.397167	-0.754925
H87	H	-0.247361	-1.118328	-0.384442
H88	H	-1.067654	-1.640438	-0.384424
H89	H	-0.711898	-1.396322	-0.627923
O90	O	-0.411456	-1.126810	-0.638428
C91	C	-0.497452	-1.115233	-0.771436
C92	C	-0.449779	-1.054934	-0.697616
H93	H	-0.528459	-1.057148	-0.819293
H94	H	-0.466447	-1.166619	-0.826522
H95	H	-0.532777	-1.166585	-0.723079
H96	H	-0.414445	-1.003524	-0.745888
H97	H	-0.480826	-1.003614	-0.642527
H98	H	-0.247377	-0.919260	-0.384480
H99	H	-0.247352	-1.396553	-0.907155
H100	H	-0.247317	-1.396597	-1.106202
