data_functionalizedCrystal
_audit_creation_method	'MofGen! by Chris Wilmer'
_symmetry_space_group_name_H-M	'P1'
_symmetry_Int_Tables_number	1
_symmetry_cell_setting	triclinic
loop_
_symmetry_equiv_pos_as_xyz
  x,y,z
_cell_length_a	29.839134
_cell_length_b	29.839131
_cell_length_c	21.395355
_cell_angle_alpha	89.972174
_cell_angle_beta	89.975517
_cell_angle_gamma	90.015800
loop_
_atom_site_label
_atom_site_type_symbol
_atom_site_fract_x
_atom_site_fract_y
_atom_site_fract_z
Zn1	Zn	0.686793	-0.179138	-0.354220
Zn2	Zn	0.686717	-0.254254	-0.249425
Zn3	Zn	0.611660	-0.179113	-0.249456
Zn4	Zn	0.611632	-0.254216	-0.354165
O5	O	0.649201	-0.216680	-0.301817
O6	O	0.749650	-0.189129	-0.340328
O7	O	0.676741	-0.244291	-0.161751
O8	O	0.621670	-0.116249	-0.263389
O9	O	0.749595	-0.244315	-0.263336
O10	O	0.676870	-0.116268	-0.340358
O11	O	0.621597	-0.189085	-0.161774
O12	O	0.548789	-0.189049	-0.263337
O13	O	0.621622	-0.244252	-0.441850
O14	O	0.548769	-0.244228	-0.340266
O15	O	0.676843	-0.189093	-0.441890
O16	O	0.676714	-0.317116	-0.263283
O17	O	0.621549	-0.317089	-0.340236
C18	C	0.532478	-0.216632	-0.301799
C19	C	0.482544	-0.216622	-0.301807
C20	C	0.649132	-0.333403	-0.301764
C21	C	0.649144	-0.383337	-0.301762
C22	C	0.125981	-0.188004	-0.341985
C23	C	0.313655	-0.187968	-0.341971
O24	O	0.337940	-0.163579	-0.376129
N25	N	0.337099	-0.216652	-0.301821
C26	C	0.313622	-0.245348	-0.261676
O27	O	0.337868	-0.269748	-0.227530
C28	C	0.125949	-0.245386	-0.261694
C29	C	0.102508	-0.216698	-0.301841
C30	C	0.102540	-0.159318	-0.382130
C31	C	0.055624	-0.159326	-0.382131
C32	C	0.032151	-0.188020	-0.341987
C33	C	0.055592	-0.216705	-0.301842
C34	C	0.102473	-0.274085	-0.221552
C35	C	0.055552	-0.274093	-0.221561
C36	C	0.032110	-0.245404	-0.261708
C37	C	-0.014797	-0.245407	-0.261699
N38	N	-0.038241	-0.216723	-0.301848
C39	C	-0.014767	-0.188030	-0.341992
C40	C	0.412152	-0.245326	-0.261668
C41	C	0.459070	-0.245316	-0.261663
C42	C	0.459100	-0.187936	-0.341959
C43	C	0.412181	-0.187944	-0.341961
C44	C	0.388708	-0.216642	-0.301817
C45	C	-0.113293	-0.188047	-0.341990
C46	C	-0.160213	-0.188056	-0.341986
C47	C	-0.160238	-0.245437	-0.261692
C48	C	-0.113323	-0.245427	-0.261694
C49	C	-0.089851	-0.216731	-0.301849
O50	O	-0.039112	-0.269787	-0.227563
O51	O	-0.039022	-0.163641	-0.376142
C52	C	0.172897	-0.187997	-0.341984
C53	C	0.196339	-0.216683	-0.301840
C54	C	0.172865	-0.245376	-0.261696
C55	C	0.243256	-0.216673	-0.301834
C56	C	0.266730	-0.187979	-0.341978
C57	C	0.243286	-0.159296	-0.382128
C58	C	0.196371	-0.159303	-0.382128
C59	C	0.196309	-0.274060	-0.221546
C60	C	0.243224	-0.274049	-0.221548
C61	C	0.266698	-0.245356	-0.261692
C62	C	0.677937	-0.692955	-0.341951
C63	C	0.677986	-0.880629	-0.341989
O64	O	0.702400	-0.904872	-0.376120
N65	N	0.649277	-0.904122	-0.301886
C66	C	0.620552	-0.880695	-0.261774
O67	O	0.596131	-0.904984	-0.227669
C68	C	0.620501	-0.693023	-0.261740
C69	C	0.649215	-0.669531	-0.301841
C70	C	0.706648	-0.669464	-0.382050
C71	C	0.706638	-0.622549	-0.382038
C72	C	0.677916	-0.599125	-0.341927
C73	C	0.649204	-0.622616	-0.301829
C74	C	0.591774	-0.669596	-0.221631
C75	C	0.591763	-0.622675	-0.221627
C76	C	0.620477	-0.599184	-0.261728
C77	C	0.620472	-0.552277	-0.261706
N78	N	0.649180	-0.528783	-0.301809
C79	C	0.677902	-0.552207	-0.341919
C80	C	0.620581	-0.979226	-0.261794
C81	C	0.620594	-1.026143	-0.261801
C82	C	0.678028	-1.026074	-0.342018
C83	C	0.678017	-0.979155	-0.342006
C84	C	0.649290	-0.955732	-0.301897
C85	C	0.677878	-0.453681	-0.341890
C86	C	0.677866	-0.406761	-0.341873
C87	C	0.620431	-0.406835	-0.261659
C88	C	0.620444	-0.453751	-0.261674
C89	C	0.649169	-0.477172	-0.301795
O90	O	0.596067	-0.528004	-0.227597
O91	O	0.702313	-0.527909	-0.376029
C92	C	0.677948	-0.739871	-0.341964
C93	C	0.649237	-0.763362	-0.301865
C94	C	0.620515	-0.739938	-0.261755
C95	C	0.649250	-0.810280	-0.301873
C96	C	0.677972	-0.833704	-0.341983
C97	C	0.706681	-0.810210	-0.382086
C98	C	0.706670	-0.763295	-0.382074
C99	C	0.591806	-0.763432	-0.221652
C100	C	0.591819	-0.810348	-0.221667
C101	C	0.620541	-0.833772	-0.261777
C102	C	0.766379	-0.216729	-0.301834
C103	C	0.816313	-0.216750	-0.301842
C104	C	0.649238	-0.216671	-0.465240
C105	C	0.649254	-0.216667	-0.534881
C106	C	0.649282	-0.099502	-0.301883
C107	C	0.649316	-0.049567	-0.301912
C108	C	0.678006	-0.187944	-0.567616
C109	C	0.678005	-0.187925	-0.633052
C110	C	0.649257	-0.216637	-0.665750
C111	C	0.620500	-0.245362	-0.633007
C112	C	0.620498	-0.245377	-0.567573
C113	C	0.645686	-0.257087	-0.769406
C114	C	0.645691	-0.257072	-0.834839
C115	C	0.649260	-0.216589	-0.867570
C116	C	0.652834	-0.176120	-0.834861
C117	C	0.652832	-0.176135	-0.769427
C118	C	0.649256	-0.216623	-0.736702
C119	C	0.678013	-0.187843	-0.971258
C120	C	0.678009	-0.187823	-1.036695
C121	C	0.620506	-0.245263	-1.036649
C122	C	0.620507	-0.245279	-0.971213
C123	C	0.649263	-0.216570	-0.938522
C124	C	0.649189	-0.216657	-0.139029
C125	C	0.649261	-0.216534	-0.069388
H126	H	-0.179297	-0.164692	-0.374679
H127	H	0.642784	-0.290025	-0.861466
H128	H	0.655741	-0.143155	-0.861509
H129	H	0.262407	-0.135931	-0.414812
H130	H	0.478152	-0.268672	-0.228964
O131	O	0.592646	-0.273206	-1.068428
C132	C	0.618205	-0.302216	-1.106295
H133	H	0.653587	-0.305005	-1.086597
H134	H	0.619761	-0.288318	-1.155893
C135	C	0.552774	-0.345486	-1.131465
C136	C	0.596229	-0.348915	-1.107268
H137	H	0.539217	-0.374291	-1.132068
H138	H	0.535553	-0.325940	-1.105956
H139	H	0.554076	-0.333902	-1.172794
H140	H	0.594926	-0.360493	-1.065937
H141	H	0.613449	-0.368463	-1.132771
H142	H	0.701398	-0.960031	-0.374660
O143	O	-0.182976	-0.273325	-0.222642
C144	C	-0.152229	-0.298656	-0.187217
H145	H	-0.118782	-0.280248	-0.185084
H146	H	-0.147234	-0.332796	-0.210077
C147	C	-0.211650	-0.327681	-0.123142
C148	C	-0.170571	-0.305071	-0.120518
H149	H	-0.222965	-0.331640	-0.082000
H150	H	-0.232365	-0.310617	-0.147010
H151	H	-0.207482	-0.356129	-0.142195
H152	H	-0.174741	-0.276622	-0.101473
H153	H	-0.149857	-0.322130	-0.096645
H154	H	0.642660	-0.290044	-0.742762
O155	O	0.592555	-0.273325	-0.535868
C156	C	0.567171	-0.298655	-0.578756
H157	H	0.585570	-0.300205	-0.625411
H158	H	0.533062	-0.282189	-0.585694
C159	C	0.538069	-0.344569	-0.495903
C160	C	0.560668	-0.346476	-0.553205
H161	H	0.534055	-0.374067	-0.480141
H162	H	0.555169	-0.327503	-0.467008
H163	H	0.509647	-0.330845	-0.501693
H164	H	0.589091	-0.360195	-0.547412
H165	H	0.543572	-0.363546	-0.582098
O166	O	0.173580	-0.301946	-0.182487
C167	C	0.204338	-0.327266	-0.147066
H168	H	0.237783	-0.308855	-0.144954
H169	H	0.209331	-0.361410	-0.169915
C170	C	0.144935	-0.356286	-0.082954
C171	C	0.186011	-0.333671	-0.080356
H172	H	0.133630	-0.360239	-0.041805
H173	H	0.124212	-0.339229	-0.106819
H174	H	0.149102	-0.384737	-0.101998
H175	H	0.181843	-0.305219	-0.061320
H176	H	0.206733	-0.350723	-0.056486
O177	O	0.705863	-1.048852	-0.381051
C178	C	0.680270	-1.075995	-0.421471
H179	H	0.644884	-1.061869	-0.425287
H180	H	0.678737	-1.111561	-0.402099
C181	C	0.745651	-1.094032	-0.481952
C182	C	0.702189	-1.076680	-0.486643
H183	H	0.759171	-1.094457	-0.522152
H184	H	0.762893	-1.075747	-0.454719
H185	H	0.744367	-1.123669	-0.465806
H186	H	0.703474	-1.047042	-0.502781
H187	H	0.684947	-1.094960	-0.513880
H188	H	0.597217	-1.045266	-0.229140
H189	H	0.597188	-0.960158	-0.229130
O190	O	-0.090567	-0.160129	-0.381015
C191	C	-0.121326	-0.134823	-0.416454
H192	H	-0.154776	-0.133252	-0.390790
H193	H	-0.126304	-0.151324	-0.463996
C194	C	-0.061929	-0.088943	-0.457134
C195	C	-0.103012	-0.087010	-0.425611
H196	H	-0.050632	-0.059450	-0.462785
H197	H	-0.041205	-0.105993	-0.433260
H198	H	-0.066083	-0.102696	-0.496748
H199	H	-0.098857	-0.073263	-0.385994
H200	H	-0.123735	-0.069956	-0.449478
O201	O	0.389303	-0.273141	-0.222638
C202	C	0.362160	-0.247529	-0.182229
H203	H	0.355136	-0.213509	-0.204419
H204	H	0.380228	-0.242539	-0.135811
C205	C	0.326217	-0.314034	-0.143562
C206	C	0.317587	-0.272251	-0.170819
H207	H	0.298723	-0.329284	-0.136520
H208	H	0.344505	-0.331289	-0.170784
H209	H	0.341275	-0.309869	-0.104883
H210	H	0.302535	-0.276416	-0.209500
H211	H	0.299295	-0.254996	-0.143602
O212	O	0.705773	-0.384012	-0.380890
C213	C	0.731132	-0.414751	-0.416284
H214	H	0.712736	-0.448203	-0.418435
H215	H	0.765261	-0.419735	-0.393386
C216	C	0.760172	-0.355321	-0.480332
C217	C	0.737576	-0.396407	-0.482978
H218	H	0.764150	-0.344006	-0.521471
H219	H	0.743089	-0.334611	-0.456485
H220	H	0.788611	-0.359480	-0.461248
H221	H	0.709136	-0.392247	-0.502055
H222	H	0.754655	-0.417116	-0.506830
H223	H	0.568392	-0.688715	-0.188976
O224	O	0.032821	-0.301985	-0.182505
C225	C	0.063576	-0.327310	-0.147085
H226	H	0.097021	-0.308899	-0.144964
H227	H	0.068571	-0.361451	-0.169942
C228	C	0.004167	-0.356337	-0.082989
C229	C	0.045244	-0.333722	-0.080380
H230	H	-0.007141	-0.360294	-0.041843
H231	H	-0.016553	-0.339277	-0.106853
H232	H	0.008335	-0.384785	-0.102039
H233	H	0.041074	-0.305272	-0.061337
H234	H	0.065964	-0.350778	-0.056511
O235	O	0.705805	-0.476476	-0.380776
C236	C	0.734851	-0.503608	-0.345152
H237	H	0.719025	-0.510676	-0.297654
H238	H	0.768139	-0.485507	-0.338300
C239	C	0.762431	-0.539468	-0.437995
C240	C	0.742992	-0.548152	-0.379658
H241	H	0.767455	-0.566944	-0.459280
H242	H	0.742864	-0.521187	-0.461996
H243	H	0.790169	-0.524383	-0.432276
H244	H	0.715252	-0.563232	-0.385378
H245	H	0.762555	-0.566436	-0.355659
H246	H	0.262307	-0.297410	-0.188849
H247	H	0.730018	-0.603425	-0.414693
O248	O	0.734556	-0.832921	-0.421140
C249	C	0.724702	-0.821444	-0.483572
H250	H	0.707430	-0.787383	-0.484842
H251	H	0.701595	-0.847849	-0.504642
C252	C	0.789694	-0.861082	-0.520030
C253	C	0.768484	-0.819246	-0.521590
H254	H	0.816700	-0.859728	-0.543483
H255	H	0.796332	-0.868816	-0.477969
H256	H	0.770434	-0.883081	-0.537587
H257	H	0.787741	-0.797248	-0.504026
H258	H	0.761849	-0.811508	-0.563649
H259	H	0.701426	-0.164464	-0.944639
O260	O	0.563842	-0.599992	-0.182605
C261	C	0.538495	-0.630791	-0.147230
H262	H	0.556907	-0.664226	-0.145091
H263	H	0.504370	-0.635790	-0.170137
C264	C	0.509418	-0.571452	-0.083161
C265	C	0.532034	-0.612516	-0.080529
H266	H	0.505431	-0.560178	-0.042017
H267	H	0.526493	-0.550701	-0.106995
H268	H	0.480983	-0.575623	-0.102253
H269	H	0.560470	-0.608343	-0.061444
H270	H	0.514964	-0.633265	-0.056690
H271	H	0.597047	-0.387756	-0.228999
O272	O	0.592565	-0.273226	-0.939508
C273	C	0.567181	-0.298555	-0.982397
H274	H	0.585583	-0.300109	-1.029050
H275	H	0.533074	-0.282086	-0.989342
C276	C	0.538069	-0.344463	-0.899543
C277	C	0.560672	-0.346375	-0.956842
H278	H	0.534051	-0.373960	-0.883780
H279	H	0.555169	-0.327397	-0.870648
H280	H	0.509648	-0.330737	-0.905339
H281	H	0.589094	-0.360096	-0.951045
H282	H	0.543576	-0.363444	-0.985736
H283	H	0.036542	-0.135967	-0.414826
O284	O	0.705916	-0.159962	-0.664791
C285	C	0.696128	-0.115183	-0.648824
H286	H	0.678859	-0.114250	-0.601305
H287	H	0.673044	-0.100033	-0.685644
C288	C	0.761158	-0.089142	-0.704201
C289	C	0.739951	-0.087995	-0.645834
H290	H	0.788189	-0.072370	-0.702359
H291	H	0.767752	-0.119310	-0.714960
H292	H	0.741917	-0.076518	-0.734878
H293	H	0.759190	-0.100625	-0.615161
H294	H	0.733361	-0.057828	-0.635070
H295	H	0.121647	-0.135952	-0.414823
O296	O	0.173672	-0.131423	-0.421190
C297	C	0.204460	-0.106091	-0.456606
H298	H	0.237902	-0.124492	-0.458717
H299	H	0.209446	-0.071947	-0.433753
C300	C	0.145106	-0.077087	-0.520720
C301	C	0.186178	-0.099689	-0.523317
H302	H	0.133829	-0.073136	-0.561869
H303	H	0.124363	-0.094152	-0.496858
H304	H	0.149267	-0.048636	-0.501673
H305	H	0.182016	-0.128142	-0.542356
H306	H	0.206920	-0.082629	-0.547183
H307	H	0.730037	-0.688531	-0.414716
O308	O	0.592512	-0.476503	-0.222698
C309	C	0.567169	-0.445765	-0.187279
H310	H	0.565601	-0.412308	-0.212930
H311	H	0.583636	-0.440793	-0.139713
C312	C	0.521287	-0.505193	-0.146691
C313	C	0.519358	-0.464101	-0.178198
H314	H	0.491795	-0.516504	-0.141086
H315	H	0.538362	-0.525902	-0.170551
H316	H	0.535011	-0.501044	-0.107055
H317	H	0.505639	-0.468252	-0.217835
H318	H	0.502279	-0.443393	-0.154344
O319	O	0.734498	-0.740429	-0.421063
C320	C	0.708901	-0.713295	-0.461507
H321	H	0.674862	-0.706288	-0.439363
H322	H	0.703949	-0.731363	-0.507932
C323	C	0.775415	-0.677320	-0.500082
C324	C	0.733609	-0.668711	-0.472882
H325	H	0.790656	-0.649819	-0.507101
H326	H	0.792660	-0.695602	-0.472836
H327	H	0.771283	-0.692377	-0.538766
H328	H	0.737742	-0.653659	-0.434195
H329	H	0.716365	-0.650425	-0.500122
H330	H	-0.094236	-0.268784	-0.228997
O331	O	0.705983	-0.159905	-1.068398
C332	C	0.731354	-0.134563	-1.025509
H333	H	0.732895	-0.152978	-0.978863
H334	H	0.714929	-0.100437	-1.018546
C335	C	0.777280	-0.105490	-1.108368
C336	C	0.779176	-0.128108	-1.051078
H337	H	0.806778	-0.101506	-1.124140
H338	H	0.760186	-0.122561	-1.137264
H339	H	0.763591	-0.077053	-1.102557
H340	H	0.792860	-0.156546	-1.056891
H341	H	0.796273	-0.111041	-1.022183
H342	H	0.478220	-0.164572	-0.374644
H343	H	0.121551	-0.297446	-0.188859
H344	H	0.393098	-0.164583	-0.374652
O345	O	0.563882	-0.833095	-0.182689
C346	C	0.538539	-0.802353	-0.147277
H347	H	0.536973	-0.768898	-0.172932
H348	H	0.555003	-0.797379	-0.099709
C349	C	0.492652	-0.861777	-0.106685
C350	C	0.490726	-0.820687	-0.138198
H351	H	0.463159	-0.873086	-0.101082
H352	H	0.509727	-0.882488	-0.130541
H353	H	0.506374	-0.857626	-0.067049
H354	H	0.477009	-0.824840	-0.177836
H355	H	0.473647	-0.799977	-0.114348
H356	H	0.568416	-0.744364	-0.188990
H357	H	0.597091	-0.268737	-0.659634
O358	O	0.656282	-0.136784	-0.737749
C359	C	0.659445	-0.101048	-0.780664
H360	H	0.644344	-0.111665	-0.827299
H361	H	0.696164	-0.091731	-0.787641
C362	C	0.652243	-0.047216	-0.697839
C363	C	0.633693	-0.060255	-0.755116
H364	H	0.636360	-0.022052	-0.682080
H365	H	0.650114	-0.071292	-0.668927
H366	H	0.682841	-0.039455	-0.703662
H367	H	0.603097	-0.068021	-0.749292
H368	H	0.635816	-0.036179	-0.784028
H369	H	0.701421	-0.164566	-0.541003
