data_functionalizedCrystal
_audit_creation_method	'MofGen! by Chris Wilmer'
_symmetry_space_group_name_H-M	'P1'
_symmetry_Int_Tables_number	1
_symmetry_cell_setting	triclinic
loop_
_symmetry_equiv_pos_as_xyz
  x,y,z
_cell_length_a	10.654550
_cell_length_b	15.186229
_cell_length_c	10.654551
_cell_angle_alpha	90.001981
_cell_angle_beta	84.485180
_cell_angle_gamma	90.000116
loop_
_atom_site_label
_atom_site_type_symbol
_atom_site_fract_x
_atom_site_fract_y
_atom_site_fract_z
O1	O	1.667840	0.073159	0.176397
O2	O	1.302362	0.073175	0.193203
O3	O	1.493503	0.073165	0.002061
O4	O	1.476699	0.073169	0.367539
O5	O	1.493490	-0.073293	0.002058
O6	O	1.302349	-0.073282	0.193201
O7	O	1.667827	-0.073298	0.176394
Zn8	Zn	1.485086	-0.096543	0.184797
Zn9	Zn	1.485103	0.096420	0.184801
O10	O	1.476686	-0.073288	0.367537
C11	C	1.255557	-0.000052	0.191968
C12	C	1.116114	-0.000046	0.188276
C13	C	1.036629	-0.000047	0.300818
C14	C	0.905608	-0.000062	0.297341
C15	C	0.933570	-0.000071	0.068772
C16	C	1.064589	-0.000062	0.072249
N17	N	1.485084	-0.228236	0.184794
C18	C	1.569750	-0.453964	0.100185
C19	C	1.569754	-0.546153	0.100182
C20	C	1.400439	-0.546153	0.269407
C21	C	1.400430	-0.453965	0.269403
C22	C	1.485093	-0.407873	0.184793
C23	C	1.485106	-0.592250	0.184795
C24	C	1.485109	-0.692207	0.184792
C25	C	1.485088	-0.307910	0.184794
C26	C	1.714632	-0.000070	0.177630
C27	C	1.854075	-0.000070	0.181322
C28	C	1.492262	-0.000062	-0.044738
C29	C	1.488570	-0.000058	-0.184181
N30	N	1.485115	0.228113	0.184794
C31	C	1.486844	0.079777	-0.249684
C32	C	1.483364	0.079778	-0.380704
C33	C	1.483341	-0.079898	-0.380709
C34	C	1.486812	-0.079898	-0.249690
C35	C	1.477926	-0.000059	0.414336
C36	C	1.481619	-0.000057	0.553779
H37	H	0.891602	-0.000091	-0.025693
H38	H	1.488211	-0.144913	-0.196356
O39	O	1.651853	-0.409248	0.017792
C40	C	1.630341	-0.431828	-0.106701
H41	H	1.529779	-0.457162	-0.108207
H42	H	1.644239	-0.371222	-0.169638
H43	H	1.699609	-0.485357	-0.142929
O44	O	1.318332	-0.591066	0.351554
C45	C	1.336472	-0.682317	0.333399
H46	H	1.435911	-0.694905	0.287381
H47	H	1.323334	-0.717348	0.428385
H48	H	1.264842	-0.708488	0.269753
O49	O	1.086475	-0.000077	0.413628
C50	C	0.988217	-0.000060	0.512213
H51	H	0.898926	-0.027795	0.476228
H52	H	1.016298	-0.042577	0.593147
H53	H	0.969973	0.070202	0.546984
O54	O	1.141629	-0.000021	-0.037198
C55	C	1.068060	-0.000052	-0.140352
H56	H	0.970563	0.027672	-0.109335
H57	H	1.115694	0.042466	-0.219275
H58	H	1.058434	-0.070318	-0.175858
H59	H	1.638688	-0.583678	0.031285
H60	H	1.331486	-0.416436	0.338302
O61	O	1.481479	-0.157394	-0.444468
C62	C	1.370882	-0.162179	-0.506960
H63	H	1.334165	-0.092861	-0.522158
H64	H	1.392867	-0.195966	-0.602081
H65	H	1.296185	-0.201577	-0.447177
H66	H	1.481956	0.144787	-0.434030
O67	O	1.488308	0.157356	-0.186084
C68	C	1.378896	0.205929	-0.204861
H69	H	1.302054	0.159211	-0.231592
H70	H	1.344728	0.242153	-0.114249
H71	H	1.401430	0.255701	-0.283922
O72	O	0.828270	0.000060	0.406581
C73	C	0.751657	0.075916	0.411417
H74	H	0.744158	0.101194	0.311669
H75	H	0.653612	0.058852	0.457346
H76	H	0.795245	0.129039	0.469145
