data_functionalizedCrystal
_audit_creation_method	'MofGen! by Chris Wilmer'
_symmetry_space_group_name_H-M	'P1'
_symmetry_Int_Tables_number	1
_symmetry_cell_setting	triclinic
loop_
_symmetry_equiv_pos_as_xyz
  x,y,z
_cell_length_a	14.908571
_cell_length_b	14.909351
_cell_length_c	14.908308
_cell_angle_alpha	83.253152
_cell_angle_beta	89.824947
_cell_angle_gamma	83.622639
loop_
_atom_site_label
_atom_site_type_symbol
_atom_site_fract_x
_atom_site_fract_y
_atom_site_fract_z
Zn1	Zn	1.370974	-0.473902	0.616439
Zn2	Zn	1.387337	-0.617538	0.474826
Zn3	Zn	1.228344	-0.456459	0.456375
Zn4	Zn	1.228306	-0.616459	0.616412
O5	O	1.303740	-0.541089	0.541013
O6	O	1.499391	-0.500706	0.605387
O7	O	1.373110	-0.589322	0.346137
O8	O	1.240432	-0.331701	0.469898
O9	O	1.511413	-0.606235	0.501345
O10	O	1.345221	-0.344516	0.587496
O11	O	1.256299	-0.470979	0.332581
O12	O	1.102093	-0.469932	0.469871
O13	O	1.240368	-0.604396	0.742657
O14	O	1.102065	-0.587483	0.587450
O15	O	1.345185	-0.499660	0.742677
O16	O	1.373074	-0.744467	0.501318
O17	O	1.256235	-0.743674	0.605341
C18	C	1.069345	-0.526699	0.526656
C19	C	0.969070	-0.520565	0.520536
C20	C	1.316449	-0.777021	0.555350
C21	C	1.321967	-0.877961	0.561519
C22	C	0.780680	-0.631618	0.631328
C23	C	0.686462	-0.625858	0.625581
C24	C	0.686415	-0.503282	0.503302
C25	C	0.780632	-0.509042	0.509048
C26	C	0.827762	-0.573213	0.573063
C27	C	0.921981	-0.578976	0.578804
C28	C	0.921932	-0.456397	0.456530
C29	C	0.827714	-0.450637	0.450783
C30	C	1.384240	-1.026828	0.631471
C31	C	1.379061	-0.931987	0.625680
C32	C	1.270049	-0.918782	0.503142
C33	C	1.275227	-1.013623	0.508932
C34	C	1.332324	-1.067643	0.573100
C35	C	1.337497	-1.162486	0.578894
C36	C	1.228489	-1.149279	0.456352
C37	C	1.223311	-1.054438	0.450562
C38	C	1.539051	-0.555537	0.555427
C39	C	1.639326	-0.561693	0.561570
C40	C	1.290947	-0.553854	0.776316
C41	C	1.285495	-0.559293	0.876588
C42	C	1.291006	-0.304238	0.526642
C43	C	1.285579	-0.203307	0.520517
C44	C	1.316533	-0.528312	0.306625
C45	C	1.322145	-0.522628	0.206349
C46	C	1.384393	-0.460431	1.065030
C47	C	1.379273	-0.465539	1.159245
C48	C	1.270131	-0.574611	1.159232
C49	C	1.275251	-0.569503	1.065018
C50	C	1.332385	-0.512412	1.017920
C51	C	1.337509	-0.507310	0.923705
C52	C	1.228363	-0.616377	0.923693
C53	C	1.223243	-0.621484	1.017907
H54	H	0.960353	-0.631229	0.630926
H55	H	0.819054	-0.683873	0.683446
H56	H	1.383980	-1.206467	0.631150
H57	H	1.421338	-0.898758	0.673210
Cl58	Cl	0.768457	-0.369967	0.370316
H59	H	1.186210	-1.182520	0.408827
H60	H	1.430715	-1.070812	0.683732
H61	H	1.223569	-0.874787	0.450892
Cl62	Cl	1.151538	-0.986520	0.369897
Cl63	Cl	1.409335	-0.435542	0.864498
H64	H	1.186017	-0.658706	0.885326
Cl65	Cl	1.456226	-0.388673	1.005820
H66	H	1.421621	-0.423208	1.197598
H67	H	0.648131	-0.673416	0.673029
H68	H	1.176725	-0.667964	1.056267
Cl69	Cl	0.627150	-0.422605	0.422847
Cl70	Cl	0.981127	-0.382977	0.383270
H71	H	1.223616	-0.621091	1.197595
