data_functionalizedCrystal
_audit_creation_method	'MofGen! by Chris Wilmer'
_symmetry_space_group_name_H-M	'P1'
_symmetry_Int_Tables_number	1
_symmetry_cell_setting	triclinic
loop_
_symmetry_equiv_pos_as_xyz
  x,y,z
_cell_length_a	23.532407
_cell_length_b	14.044209
_cell_length_c	13.101039
_cell_angle_alpha	86.334262
_cell_angle_beta	86.668910
_cell_angle_gamma	91.981684
loop_
_atom_site_label
_atom_site_type_symbol
_atom_site_fract_x
_atom_site_fract_y
_atom_site_fract_z
O1	O	0.764354	-0.109759	-0.085092
O2	O	0.599394	-0.126398	-0.085122
O3	O	0.679398	0.019883	-0.085093
O4	O	0.684350	-0.256039	-0.085121
O5	O	0.673659	0.009370	0.085335
O6	O	0.593654	-0.136910	0.085305
O7	O	0.758615	-0.120271	0.085336
Zn8	Zn	0.675223	-0.130260	0.112380
Zn9	Zn	0.682785	-0.116409	-0.112166
O10	O	0.678611	-0.266551	0.085307
C11	C	0.575285	-0.131230	0.000088
C12	C	0.512000	-0.129955	0.000076
C13	C	0.674361	0.049920	0.000122
C14	C	0.667895	0.155085	0.000126
C15	C	0.656076	0.347636	0.000115
C16	C	0.701935	0.405701	0.000122
C17	C	0.695358	0.512843	0.000116
C18	C	0.662651	0.240484	0.000121
C19	C	0.117154	-0.208533	0.000115
C20	C	0.057689	-0.207350	0.000121
O21	O	0.024891	-0.280192	0.000151
N22	N	0.030350	-0.120386	0.000128
C23	C	0.062477	-0.034600	0.000140
O24	O	0.033763	0.039479	0.000147
C25	C	0.121941	-0.035784	0.000141
C26	C	0.149277	-0.122753	0.000123
C27	C	0.144491	-0.295495	0.000098
C28	C	0.203951	-0.296678	0.000090
C29	C	0.236075	-0.210898	0.000098
C30	C	0.208738	-0.123936	0.000115
C31	C	0.154067	0.050000	0.000159
C32	C	0.213534	0.048808	0.000161
C33	C	0.240871	-0.038161	0.000143
C34	C	0.300322	-0.039339	0.000114
N35	N	0.327662	-0.126303	0.000107
C36	C	0.295538	-0.212083	0.000099
C37	C	-0.062400	-0.032119	0.000139
C38	C	-0.121861	-0.030933	0.000131
C39	C	-0.126646	-0.203683	0.000115
C40	C	-0.067183	-0.204868	0.000116
C41	C	-0.035060	-0.119083	0.000132
C42	C	0.420410	-0.214560	0.000081
C43	C	0.479876	-0.215735	0.000068
C44	C	0.484655	-0.042985	0.000090
C45	C	0.425194	-0.041809	0.000097
C46	C	0.393073	-0.127605	0.000096
O47	O	0.333157	0.033464	0.000089
O48	O	0.324260	-0.286150	0.000105
C49	C	0.782724	-0.115439	0.000124
C50	C	0.846009	-0.116713	0.000128
N51	N	0.670067	-0.139712	0.265626
C52	C	0.683649	0.703411	0.000097
C53	C	0.690117	0.598246	0.000111
N54	N	0.687946	-0.106949	-0.265413
C55	C	0.663051	-0.152581	0.474666
C56	C	0.694960	-0.094083	0.525554
C57	C	0.691056	-0.101244	0.641871
C58	C	0.666954	-0.145422	0.358339
H59	H	0.746138	0.374949	0.000060
Br60	Br	0.582409	0.398895	0.000094
Br61	Br	0.516972	-0.333771	0.000038
H62	H	0.394263	-0.284423	0.000083
H63	H	0.226203	-0.367497	0.000075
H64	H	0.632805	-0.208037	0.518452
H65	H	0.725209	-0.038625	0.481763
H66	H	0.118341	-0.365351	0.000095
H67	H	-0.044929	-0.275686	0.000107
Br68	Br	-0.170254	-0.320100	0.000106
H69	H	-0.144113	0.039887	0.000129
Br70	Br	0.116984	0.168038	0.000160
Br71	Br	-0.018810	0.084316	0.000153
H72	H	0.239686	0.118666	0.000175
Br73	Br	0.528262	0.073424	0.000104
H74	H	0.402936	0.029009	0.000097
