data_functionalizedCrystal
_audit_creation_method	'MofGen! by Chris Wilmer'
_symmetry_space_group_name_H-M	'P1'
_symmetry_Int_Tables_number	1
_symmetry_cell_setting	triclinic
loop_
_symmetry_equiv_pos_as_xyz
  x,y,z
_cell_length_a	12.759401
_cell_length_b	19.805405
_cell_length_c	12.759393
_cell_angle_alpha	90.037628
_cell_angle_beta	90.018496
_cell_angle_gamma	90.026572
loop_
_atom_site_label
_atom_site_type_symbol
_atom_site_fract_x
_atom_site_fract_y
_atom_site_fract_z
Zn1	Zn	1.606170	-0.269420	0.593937
Zn2	Zn	1.606028	-0.382625	0.418239
Zn3	Zn	1.430472	-0.269456	0.418276
Zn4	Zn	1.430425	-0.382573	0.593880
O5	O	1.518274	-0.326019	0.506083
O6	O	1.753172	-0.284444	0.570638
O7	O	1.582701	-0.367650	0.271222
O8	O	1.453858	-0.174735	0.441618
O9	O	1.753068	-0.367615	0.441553
O10	O	1.582942	-0.174708	0.570675
O11	O	1.453720	-0.284505	0.271250
O12	O	1.283445	-0.284454	0.441563
O13	O	1.453777	-0.367527	0.740909
O14	O	1.283410	-0.367561	0.570578
O15	O	1.582896	-0.284394	0.740951
O16	O	1.582655	-0.477335	0.441498
O17	O	1.453640	-0.477297	0.570541
C18	C	1.245306	-0.326006	0.506069
C19	C	1.128530	-0.326017	0.506088
C20	C	1.073677	-0.369360	0.573155
C21	C	0.963953	-0.369369	0.573166
C22	C	0.963944	-0.282689	0.439034
C23	C	1.073666	-0.282678	0.439029
C24	C	1.073681	-0.419406	0.650592
C25	C	0.963957	-0.419414	0.650603
C26	C	1.518155	-0.501875	0.506032
C27	C	1.518201	-0.577107	0.506046
C28	C	1.585444	-0.612448	0.438923
C29	C	1.585489	-0.683137	0.438946
C30	C	1.518284	-0.718482	0.506088
C31	C	1.451038	-0.683136	0.573217
C32	C	1.450999	-0.612449	0.573199
C33	C	1.451193	-0.968209	0.573295
C34	C	1.451234	-1.038901	0.573306
C35	C	1.585683	-1.038897	0.439043
C36	C	1.585644	-0.968210	0.439024
C37	C	1.518402	-0.932870	0.506157
C38	C	1.518356	-0.856221	0.506133
C39	C	1.518324	-0.795129	0.506108
C40	C	1.792307	-0.326032	0.506098
C41	C	1.909084	-0.326037	0.506104
C42	C	1.518347	-0.325950	0.780117
C43	C	1.518379	-0.325921	0.896893
C44	C	1.518421	-0.149476	0.506157
C45	C	1.518484	-0.074244	0.506189
C46	C	1.518261	-0.326038	0.233116
C47	C	1.518433	-0.325876	0.116340
C48	C	1.585620	-0.282630	0.951779
C49	C	1.585645	-0.282605	1.061503
C50	C	1.451184	-0.369170	1.061446
C51	C	1.451154	-0.369190	0.951724
C52	C	1.663254	-0.232655	0.951812
C53	C	1.663279	-0.232630	1.061537
H54	H	0.934145	-0.471823	0.628662
H55	H	1.396450	-0.404396	1.106103
C56	C	1.616084	-0.118961	0.997027
C57	C	1.633878	-0.161898	0.911644
H58	H	1.597942	-0.075282	0.972225
H59	H	1.677838	-0.116105	1.038383
H60	H	1.560390	-0.136374	1.038367
H61	H	1.689577	-0.144488	0.870307
H62	H	1.572117	-0.164751	0.870270
H63	H	1.640365	-0.939434	0.384348
C64	C	1.309828	-0.888783	0.587742
C65	C	1.377276	-0.929363	0.647074
H66	H	1.264198	-0.864795	0.633293
H67	H	1.269684	-0.916405	0.541949
H68	H	1.349863	-0.857621	0.547760
H69	H	1.337241	-0.960528	0.687051
H70	H	1.417424	-0.901739	0.692886
C71	C	1.436408	-0.762569	0.714541
C72	C	1.377165	-0.721988	0.647019
H73	H	1.390797	-0.786557	0.760097
H74	H	1.482135	-0.734949	0.754761
H75	H	1.476458	-0.793731	0.674555
H76	H	1.337121	-0.690823	0.687006
H77	H	1.331419	-0.749611	0.606795
C78	C	1.174880	-0.453456	0.800162
C79	C	1.113933	-0.400536	0.760488
H80	H	1.199722	-0.441808	0.868009
H81	H	1.232756	-0.461210	0.754937
H82	H	1.133486	-0.493237	0.804462
H83	H	1.155329	-0.360757	0.756181
H84	H	1.056049	-0.392774	0.805725
C85	C	1.718353	-0.619552	0.306211
C86	C	1.659319	-0.573600	0.365118
H87	H	1.763966	-0.595568	0.260652
H88	H	1.672615	-0.647167	0.265994
H89	H	1.758528	-0.647078	0.352041
H90	H	1.619138	-0.546077	0.319288
H91	H	1.705063	-0.545974	0.405338
H92	H	1.640438	-1.067680	0.384384
H93	H	1.740520	-0.251446	0.917773
C94	C	1.727034	-0.762422	0.424707
C95	C	1.659576	-0.721922	0.365256
H96	H	1.772830	-0.786344	0.379239
H97	H	1.687025	-0.793635	0.464601
H98	H	1.767010	-0.734749	0.470589
H99	H	1.619594	-0.749595	0.319379
H100	H	1.699590	-0.690705	0.325344
H101	H	1.396509	-1.067677	0.627989
H102	H	1.107680	-0.469175	0.621299
C103	C	1.399833	-0.483799	0.917875
C104	C	1.377225	-0.416769	0.891397
H105	H	1.354189	-0.513171	0.880627
H106	H	1.390233	-0.489974	0.991061
H107	H	1.470406	-0.493715	0.899878
H108	H	1.306653	-0.406852	0.909402
H109	H	1.386815	-0.410592	0.818194
H110	H	1.634181	-0.182825	1.095593
H111	H	0.929966	-0.400703	0.727958
H112	H	1.396244	-0.583674	0.627858
C113	C	1.839699	-0.263119	1.016384
C114	C	1.773111	-0.251591	1.101744
H115	H	1.907499	-0.274829	1.041209
H116	H	1.844155	-0.223354	0.975052
H117	H	1.812609	-0.299003	0.975011
H118	H	1.800198	-0.215704	1.143113
H119	H	1.768659	-0.291361	1.143093
H120	H	1.118323	-0.247379	0.384423
H121	H	0.919260	-0.247404	0.384438
