data_functionalizedCrystal
_audit_creation_method	'MofGen! by Chris Wilmer'
_symmetry_space_group_name_H-M	'P1'
_symmetry_Int_Tables_number	1
_symmetry_cell_setting	triclinic
loop_
_symmetry_equiv_pos_as_xyz
  x,y,z
_cell_length_a	16.109318
_cell_length_b	10.489716
_cell_length_c	15.186229
_cell_angle_alpha	90.000291
_cell_angle_beta	90.000224
_cell_angle_gamma	83.998849
loop_
_atom_site_label
_atom_site_type_symbol
_atom_site_fract_x
_atom_site_fract_y
_atom_site_fract_z
O1	O	1.104123	0.164054	-0.073147
O2	O	0.862188	0.184434	-0.073164
O3	O	0.988671	-0.011435	-0.073159
O4	O	0.977640	0.359923	-0.073153
O5	O	0.988663	-0.011438	0.073299
O6	O	0.862179	0.184431	0.073293
O7	O	1.104115	0.164051	0.073310
Zn8	Zn	0.983146	0.174241	0.096555
Zn9	Zn	0.983157	0.174245	-0.096409
O10	O	0.977631	0.359921	0.073304
C11	C	0.831204	0.183603	0.000062
C12	C	0.738894	0.181117	0.000055
C13	C	0.439776	0.173087	-0.079763
C14	C	0.526512	0.175415	-0.079768
C15	C	0.526521	0.175394	0.079907
C16	C	0.439788	0.173057	0.079912
C17	C	0.396417	0.171910	0.000074
C18	C	0.569886	0.176575	0.000064
C19	C	0.663928	0.179099	0.000059
C20	C	0.302369	0.169384	0.000079
C21	C	0.987838	-0.058957	0.000067
C22	C	0.985358	-0.200552	0.000059
C23	C	1.062922	-0.299344	0.000073
C24	C	1.021940	-0.376112	-0.072139
C25	C	1.021914	-0.376079	0.072256
C26	C	0.944409	-0.275456	-0.072212
C27	C	0.944394	-0.275417	0.072248
C28	C	0.903355	-0.352136	0.000019
C29	C	1.135099	0.164882	0.000082
C30	C	1.227409	0.167369	0.000083
C31	C	0.978464	0.407442	0.000076
C32	C	0.980944	0.549038	0.000079
N33	N	0.983144	0.174238	0.228247
N34	N	0.983165	0.174238	-0.228102
C35	C	1.039170	0.087536	0.453973
C36	C	1.039173	0.087533	0.546162
C37	C	0.927133	0.260944	0.546167
C38	C	0.927127	0.260940	0.453979
C39	C	0.983150	0.174237	0.407884
C40	C	0.983159	0.174238	0.592262
C41	C	0.983161	0.174236	0.692218
C42	C	0.983147	0.174238	0.307922
H43	H	0.561844	0.176331	0.144908
N44	N	1.096386	-0.001057	0.593232
N45	N	1.094541	-0.118951	0.582923
H46	H	1.134949	-0.181528	0.616163
H47	H	0.911676	-0.231428	0.133297
N48	N	1.147560	-0.269618	-0.000017
N49	N	1.195058	-0.306485	-0.062115
H50	H	1.254833	-0.285491	-0.062182
N51	N	1.063011	-0.431202	0.148837
N52	N	1.138437	-0.419171	0.161687
H53	H	1.167469	-0.458101	0.215769
H54	H	0.561811	0.176371	-0.144780
N55	N	0.395506	0.171843	0.161476
N56	N	0.434236	0.172874	0.232753
H57	H	0.402963	0.172010	0.290356
N58	N	1.096349	-0.001110	0.406901
N59	N	1.146328	-0.078568	0.448068
H60	H	1.186693	-0.141209	0.414827
N61	N	1.063024	-0.431254	-0.148721
N62	N	1.138449	-0.419233	-0.161586
H63	H	1.167470	-0.458171	-0.215671
H64	H	0.835837	-0.375593	-0.000025
H65	H	0.881521	0.331537	0.583706
N66	N	0.869913	0.349530	0.406895
N67	N	0.896760	0.428715	0.355452
H68	H	0.856354	0.491279	0.322199
N69	N	0.395488	0.171887	-0.161320
N70	N	0.412308	0.082293	-0.214776
H71	H	0.381033	0.081440	-0.272379
N72	N	0.903364	-0.220530	-0.148882
N73	N	0.898695	-0.102194	-0.161278
H74	H	0.869710	-0.063399	-0.215426
