data_functionalizedCrystal
_audit_creation_method	'MofGen! by Chris Wilmer'
_symmetry_space_group_name_H-M	'P1'
_symmetry_Int_Tables_number	1
_symmetry_cell_setting	triclinic
loop_
_symmetry_equiv_pos_as_xyz
  x,y,z
_cell_length_a	14.560438
_cell_length_b	14.560438
_cell_length_c	20.875641
_cell_angle_alpha	90.002779
_cell_angle_beta	62.447149
_cell_angle_gamma	60.000939
loop_
_atom_site_label
_atom_site_type_symbol
_atom_site_fract_x
_atom_site_fract_y
_atom_site_fract_z
Zr1	Zr	0.996686	0.889050	-0.081090
O2	O	1.177890	0.747598	-0.179870
O3	O	0.808283	0.932408	-0.050822
O4	O	0.986307	0.939192	-0.179887
O5	O	1.010565	0.735468	0.051019
O6	O	0.986309	1.090330	-0.179885
O7	O	0.999866	0.740814	-0.050805
O8	O	0.667857	1.078195	0.050989
O9	O	1.329017	0.747603	-0.179855
O10	O	0.888445	1.063698	-0.037895
O11	O	0.896427	0.946916	0.038093
O12	O	1.106027	0.954903	-0.113864
O13	O	1.114009	0.838121	-0.037876
Zr14	Zr	1.013754	1.121572	0.081310
Zr15	Zr	0.996691	1.130098	-0.081087
Zr16	Zr	1.013750	0.880524	0.081308
Zr17	Zr	1.237717	0.889058	-0.081066
Zr18	Zr	0.772724	1.121564	0.081286
O19	O	1.202158	1.078214	0.051042
O20	O	1.177896	1.090337	-0.179866
O21	O	1.202151	0.735475	0.051038
O22	O	0.832550	1.263025	0.180090
O23	O	0.808289	1.275147	-0.050818
O24	O	0.832544	0.920285	0.180087
O25	O	0.999876	1.275154	-0.050799
O26	O	1.024134	1.071430	0.180107
O27	O	1.024131	0.920292	0.180106
O28	O	1.010574	1.269808	0.051025
O29	O	1.329020	0.939204	-0.179853
O30	O	0.681420	1.071418	0.180073
O31	O	0.681423	1.263019	0.180075
O32	O	0.667861	1.269796	0.050991
O33	O	1.342580	0.740826	-0.050771
O34	O	1.342583	0.932427	-0.050769
O35	O	0.904413	1.055719	0.114085
O36	O	0.896431	1.172501	0.038096
O37	O	1.114013	1.063706	-0.037873
O38	O	1.121996	0.946924	0.038116
C39	C	0.703728	1.005301	0.000080
C40	C	0.601405	1.005297	0.000070
C41	C	0.630639	0.924984	-0.055997
C42	C	0.534454	0.925000	-0.055959
C43	C	0.379802	1.085646	0.056221
C44	C	0.475986	1.085634	0.056179
C45	C	0.756057	0.844647	-0.112106
C46	C	0.785298	0.764326	-0.168178
C47	C	0.689113	0.764342	-0.168140
C48	C	0.563687	0.844679	-0.112030
C49	C	1.005215	0.703797	0.000107
C50	C	1.005213	0.601466	0.000106
C51	C	0.891639	0.610177	0.039761
C52	C	0.891646	0.514022	0.039767
C53	C	1.118810	0.400447	-0.039541
C54	C	1.118802	0.496601	-0.039543
C55	C	0.778050	0.715042	0.079410
C56	C	0.664467	0.723758	0.119067
C57	C	0.664474	0.627603	0.119074
C58	C	0.778064	0.522731	0.079424
C59	C	1.306712	1.005322	0.000140
C60	C	1.409036	1.005325	0.000150
C61	C	0.983877	1.015976	-0.203024
C62	C	0.976633	1.019595	-0.271966
C63	C	1.005226	1.306825	0.000113
C64	C	1.005228	1.409156	0.000115
C65	C	1.086803	0.964507	-0.344010
C66	C	1.079989	0.967923	-0.408786
C67	C	0.963005	1.026420	-0.401516
C68	C	0.852827	1.081514	-0.329464
C69	C	0.859642	1.078105	-0.264690
C70	C	0.930444	1.042712	-0.590988
C71	C	0.923637	1.046115	-0.655769
C72	C	1.150801	0.932524	-0.735087
C73	C	1.157605	0.929115	-0.670308
C74	C	1.047428	0.984214	-0.598262
N75	N	0.956037	1.029909	-0.467726
N76	N	1.054396	0.980730	-0.532054
C77	C	1.026563	0.994646	0.203245
C78	C	1.033807	0.991027	0.272187
C79	C	0.703734	1.306815	0.000084
C80	C	0.601412	1.409142	0.000075
C81	C	0.725071	0.994636	0.203215
C82	C	0.629992	0.991013	0.272147
C83	C	0.725077	1.296150	0.203218
C84	C	0.629999	1.394858	0.272151
C85	C	1.285363	0.714472	-0.202998
C86	C	1.380441	0.615764	-0.271931
C87	C	1.306707	0.703807	0.000137
C88	C	1.409028	0.601480	0.000146
C89	C	1.285369	1.015986	-0.202994
C90	C	1.380449	1.019609	-0.271926
C91	C	0.589511	1.046105	0.344191
C92	C	0.500187	1.042696	0.408966
C93	C	0.451340	0.984201	0.401695
C94	C	0.491829	0.929102	0.329643
C95	C	0.581158	0.932505	0.264869
C96	C	0.581183	1.502182	0.264857
C97	C	0.491860	1.594938	0.329621
C98	C	0.451348	1.580368	0.401678
C99	C	0.500173	1.473034	0.408970
C100	C	0.589501	1.380280	0.344207
C101	C	1.429269	0.508440	-0.264637
C102	C	1.518622	0.415684	-0.329401
C103	C	1.559139	0.430254	-0.401457
C104	C	1.510308	0.537588	-0.408749
C105	C	1.420963	0.630342	-0.343987
C106	C	1.429268	1.078115	-0.264631
C107	C	1.518594	1.081540	-0.329393
C108	C	1.559105	1.026454	-0.401451
C109	C	1.510276	0.967946	-0.408745
C110	C	1.420945	0.964528	-0.343983
C111	C	0.549169	1.400425	-0.039594
C112	C	0.453034	1.496577	-0.039605
C113	C	0.461391	1.610160	0.039728
C114	C	0.557530	1.514009	0.039734
C115	C	0.593051	1.295558	-0.079253
C116	C	0.540807	1.286836	-0.118924
C117	C	0.444672	1.382988	-0.118935
C118	C	0.400781	1.487861	-0.079274
H119	H	0.485372	0.844703	-0.112015
F120	F	1.553439	0.553077	-0.485444
F121	F	1.239680	0.487330	-0.081747
H122	H	0.452178	1.151031	0.101835
F123	F	0.858432	0.844619	-0.112148
F124	F	1.654229	0.331525	-0.470378
F125	F	0.543585	0.835366	0.161274
H126	H	1.381207	0.717728	-0.349934
H127	H	1.396299	1.122973	-0.205964
F128	F	1.654183	1.030099	-0.470370
F129	F	0.778066	0.420396	0.079439
F130	F	0.695359	1.193220	-0.079240
H131	H	0.887422	0.698925	-0.213863
H132	H	1.558342	1.129181	-0.323440
H133	H	1.543274	0.923097	-0.467423
F134	F	0.778033	0.817383	0.079402
F135	F	0.356267	0.980590	0.470640
F136	F	1.239691	0.288837	-0.081739
H137	H	0.712926	0.698949	-0.213800
H138	H	1.381206	0.916881	-0.349934
H139	H	0.757575	1.129150	-0.323549
F140	F	0.587529	1.175225	-0.161137
H141	H	1.182065	0.916865	-0.349939
H142	H	0.467231	1.087569	0.467628
F143	F	0.624288	1.517713	0.188175
F144	F	0.543592	0.636881	0.161288
H145	H	0.629236	1.292895	0.350156
F146	F	0.813182	1.101317	-0.514319
F147	F	0.742384	1.136747	-0.188013
H148	H	0.402145	1.375881	-0.151243
H149	H	0.425646	1.695553	0.072018
H150	H	0.322507	1.566150	-0.079290
F151	F	0.439907	1.709162	0.321844
H152	H	0.452044	0.881476	0.323734
F153	F	0.246319	1.171137	0.115934
H154	H	1.558367	0.328296	-0.323448
F155	F	1.197248	0.909289	-0.485460
F156	F	1.282117	0.866813	-0.678053
H157	H	0.600068	1.521111	0.072035
H158	H	0.467175	1.461187	0.467647
H159	H	0.828369	1.093749	-0.649842
F160	F	1.268052	0.873889	-0.811765
F161	F	0.641479	1.108371	0.351947
H162	H	1.396286	0.496556	-0.205971
H163	H	0.378610	1.655904	0.454406
F164	F	0.624225	0.873870	0.188196
