data_functionalizedCrystal
_audit_creation_method	'MofGen! by Chris Wilmer'
_symmetry_space_group_name_H-M	'P1'
_symmetry_Int_Tables_number	1
_symmetry_cell_setting	triclinic
loop_
_symmetry_equiv_pos_as_xyz
  x,y,z
_cell_length_a	14.519709
_cell_length_b	17.699077
_cell_length_c	16.176319
_cell_angle_alpha	89.993140
_cell_angle_beta	89.992256
_cell_angle_gamma	83.480361
loop_
_atom_site_label
_atom_site_type_symbol
_atom_site_fract_x
_atom_site_fract_y
_atom_site_fract_z
O1	O	0.116598	1.004415	-0.068737
O2	O	0.616598	1.504415	0.431263
O3	O	0.131777	0.784080	-0.068742
O4	O	0.631777	1.284080	0.431258
O5	O	-0.010076	0.900090	-0.068732
O6	O	0.489924	1.400090	0.431268
O7	O	0.258451	0.888406	-0.068747
O8	O	0.758451	1.388406	0.431253
O9	O	-0.010085	0.900074	0.068761
O10	O	0.489915	1.400074	0.568761
O11	O	0.131768	0.784064	0.068752
O12	O	0.631768	1.284064	0.568752
O13	O	0.116589	1.004399	0.068756
O14	O	0.616589	1.504399	0.568756
Cu15	Cu	0.124178	0.894230	0.081308
Cu16	Cu	0.624178	1.394230	0.581308
Cu17	Cu	0.124188	0.894249	-0.081294
Cu18	Cu	0.624188	1.394249	0.418706
O19	O	0.258442	0.888390	0.068746
O20	O	0.758442	1.388390	0.568746
C21	C	0.131230	0.755873	0.000005
C22	C	0.631230	1.255873	0.500005
C23	C	0.129601	0.671850	0.000003
C24	C	0.629601	1.171850	0.500003
C25	C	0.128828	0.632372	0.074952
C26	C	0.628828	1.132372	0.574952
C27	C	0.127283	0.553425	0.074953
C28	C	0.627283	1.053425	0.574953
C29	C	0.126517	0.513957	0.000004
C30	C	0.626517	1.013957	0.500004
C31	C	0.127287	0.553441	-0.074950
C32	C	0.627287	1.053441	0.425050
C33	C	0.128825	0.632387	-0.074950
C34	C	0.628825	1.132387	0.425050
C35	C	0.121081	0.235060	-0.074951
C36	C	0.621081	0.735060	0.425049
C37	C	0.119545	0.156108	-0.074945
C38	C	0.619545	0.656108	0.425055
C39	C	0.119538	0.156098	0.074951
C40	C	0.619538	0.656098	0.574951
C41	C	0.121077	0.235044	0.074951
C42	C	0.621077	0.735044	0.574951
C43	C	0.121842	0.274522	-0.000002
C44	C	0.621842	0.774522	0.499998
C45	C	0.123515	0.360125	-0.000003
C46	C	0.623515	0.860125	0.499997
C47	C	0.124850	0.428354	0.000003
C48	C	0.624850	0.928354	0.500003
C49	C	-0.044438	0.899537	0.000015
C50	C	0.455562	1.399537	0.500015
C51	C	-0.146812	0.897905	0.000015
C52	C	0.353188	1.397905	0.500015
C53	C	-0.521682	0.891898	-0.000006
C54	C	-0.021682	1.391898	0.499994
C55	C	-0.417381	0.893566	-0.000000
C56	C	0.082619	1.393566	0.500000
C57	C	-0.334250	0.894902	0.000005
C58	C	0.165750	1.394902	0.500005
C59	C	-0.229943	0.896570	0.000010
C60	C	0.270057	1.396570	0.500010
C61	C	0.292804	0.888942	-0.000002
C62	C	0.792804	1.388942	0.499998
C63	C	0.395178	0.890574	-0.000008
C64	C	0.895178	1.390574	0.499992
C65	C	0.117137	1.032606	0.000008
C66	C	0.617137	1.532606	0.500008
C67	C	0.118766	1.116629	0.000004
C68	C	0.618766	1.616629	0.500004
N69	N	0.124170	0.894222	0.195673
N70	N	0.624170	1.394222	0.695673
N71	N	0.124189	0.894263	-0.195659
N72	N	0.624189	1.394263	0.304341
C73	C	0.061383	0.945607	0.238942
C74	C	0.561383	1.445607	0.738942
C75	C	0.061382	0.945611	0.325489
C76	C	0.561382	1.445611	0.825489
C77	C	0.124173	0.894233	0.368766
C78	C	0.624173	1.394233	0.868766
C79	C	0.186963	0.842843	0.325491
C80	C	0.686963	1.342843	0.825491
C81	C	0.186959	0.842836	0.238946
C82	C	0.686959	1.342836	0.738946
C83	C	0.186980	0.842869	0.674519
C84	C	0.686980	1.342869	1.174519
C85	C	0.186981	0.842881	0.761071
C86	C	0.686981	1.342881	1.261071
C87	C	0.061403	0.945644	0.761062
C88	C	0.561403	1.445644	1.261062
C89	C	0.061399	0.945637	0.674517
C90	C	0.561399	1.445637	1.174517
C91	C	0.124185	0.894244	0.631250
C92	C	0.624185	1.394244	1.131250
C93	C	0.124184	0.894240	0.537406
C94	C	0.624184	1.394240	1.037406
C95	C	0.124179	0.894241	0.462608
C96	C	0.624179	1.394241	0.962608
H97	H	0.126656	0.521301	-0.135974
H98	H	0.626656	1.021301	0.364026
H99	H	0.238085	0.801006	0.360732
H100	H	0.738085	1.301006	0.860732
O101	O	0.000364	0.995632	0.802965
O102	O	0.500364	1.495632	1.302965
C103	C	-0.055070	1.040964	0.746208
C104	C	0.444930	1.540964	1.246208
H105	H	-0.017257	1.041866	0.684512
H106	H	0.482743	1.541866	1.184512
H107	H	-0.069239	1.101387	0.771203
H108	H	0.430761	1.601387	1.271203
H109	H	-0.123540	1.016297	0.737013
H110	H	0.376460	1.516297	1.237013
H111	H	0.010256	0.987452	0.360718
H112	H	0.510256	1.487452	0.860718
H113	H	0.238115	0.801040	0.796306
H114	H	0.738115	1.301040	1.296306
H115	H	0.238104	0.801025	0.639298
H116	H	0.738104	1.301025	1.139298
H117	H	0.118920	0.123976	-0.135981
H118	H	0.618920	0.623976	0.364019
H119	H	0.126639	0.521287	0.135983
H120	H	0.626639	1.021287	0.635983
O121	O	0.121777	0.273270	0.147830
O122	O	0.621777	0.773270	0.647830
C123	C	0.120786	0.221493	0.213984
C124	C	0.620786	0.721493	0.713984
H125	H	0.090507	0.168314	0.192014
H126	H	0.590507	0.668314	0.692014
H127	H	0.076468	0.249046	0.266404
H128	H	0.576468	0.749046	0.766404
H129	H	0.194577	0.205252	0.237027
H130	H	0.694577	0.705252	0.737027
H131	H	0.010272	0.987476	0.639284
H132	H	0.510272	1.487476	1.139284
H133	H	0.238085	0.800993	0.203717
H134	H	0.738085	1.300993	0.703717
H135	H	0.129460	0.664500	0.135983
H136	H	0.629460	1.164500	0.635983
H137	H	0.118911	0.123946	0.135982
H138	H	0.618911	0.623946	0.635982
O139	O	0.129417	0.670789	-0.147735
O140	O	0.629417	1.170789	0.352265
C141	C	0.050478	0.724936	-0.152207
C142	C	0.550478	1.224936	0.347793
H143	H	-0.005791	0.707059	-0.109671
H144	H	0.494209	1.207059	0.390329
H145	H	0.023700	0.728679	-0.218495
H146	H	0.523700	1.228679	0.281505
H147	H	0.069693	0.782851	-0.132074
H148	H	0.569693	1.282851	0.367926
O149	O	0.121864	0.273281	-0.147832
O150	O	0.621864	0.773281	0.352168
C151	C	0.120836	0.221516	-0.213980
C152	C	0.620836	0.721516	0.286020
H153	H	0.148930	0.162145	-0.192006
H154	H	0.648930	0.662145	0.307994
H155	H	0.166033	0.239584	-0.266407
H156	H	0.666033	0.739584	0.233593
H157	H	0.046715	0.220960	-0.237015
H158	H	0.546715	0.720960	0.262985
H159	H	0.010255	0.987448	0.203711
H160	H	0.510255	1.487448	0.703711
