data_functionalizedCrystal
_audit_creation_method	'MofGen! by Chris Wilmer'
_symmetry_space_group_name_H-M	'P1'
_symmetry_Int_Tables_number	1
_symmetry_cell_setting	triclinic
loop_
_symmetry_equiv_pos_as_xyz
  x,y,z
_cell_length_a	17.077404
_cell_length_b	19.120786
_cell_length_c	19.121278
_cell_angle_alpha	95.011609
_cell_angle_beta	87.574698
_cell_angle_gamma	92.463145
loop_
_atom_site_label
_atom_site_type_symbol
_atom_site_fract_x
_atom_site_fract_y
_atom_site_fract_z
Zn1	Zn	1.169078	-0.263213	0.385861
Zn2	Zn	1.669078	0.236787	0.885861
Zn3	Zn	1.168984	-0.385909	0.263171
Zn4	Zn	1.668984	0.114091	0.763171
Zn5	Zn	1.043184	-0.268250	0.268211
Zn6	Zn	1.543184	0.231750	0.768211
Zn7	Zn	1.032405	-0.380847	0.380801
Zn8	Zn	1.532405	0.119153	0.880801
O9	O	1.103413	-0.324555	0.324511
O10	O	1.603413	0.175445	0.824511
O11	O	1.278911	-0.279500	0.369594
O12	O	1.778911	0.220500	0.869594
O13	O	1.156768	-0.374528	0.165374
O14	O	1.656768	0.125472	0.665374
O15	O	1.064434	-0.169112	0.288045
O16	O	1.564434	0.330888	0.788045
O17	O	1.278843	-0.369644	0.279454
O18	O	1.778843	0.130356	0.779454
O19	O	1.156928	-0.165411	0.374481
O20	O	1.656928	0.334589	0.874481
O21	O	1.064343	-0.288085	0.169077
O22	O	1.564343	0.211915	0.669077
O23	O	0.931908	-0.283176	0.283138
O24	O	1.431908	0.216824	0.783138
O25	O	1.046063	-0.361016	0.479937
O26	O	1.546063	0.138984	0.979937
O27	O	0.923989	-0.365900	0.365857
O28	O	1.423989	0.134100	0.865857
O29	O	1.146476	-0.274591	0.483655
O30	O	1.646476	0.225409	0.983655
O31	O	1.146316	-0.483708	0.274548
O32	O	1.646316	0.016292	0.774548
O33	O	1.045972	-0.479989	0.360970
O34	O	1.545972	0.020011	0.860970
C35	C	0.899466	-0.324536	0.324496
C36	C	1.399466	0.175464	0.824496
C37	C	0.812216	-0.324544	0.324506
C38	C	1.312216	0.175456	0.824506
C39	C	0.771255	-0.277683	0.371507
C40	C	1.271255	0.222317	0.871507
C41	C	0.689275	-0.277687	0.371510
C42	C	1.189275	0.222313	0.871510
C43	C	0.648255	-0.324556	0.324515
C44	C	1.148255	0.175444	0.824515
C45	C	0.689222	-0.371419	0.277508
C46	C	1.189222	0.128581	0.777508
C47	C	0.771201	-0.371411	0.277503
C48	C	1.271201	0.128589	0.777503
C49	C	0.518350	-0.371435	0.277525
C50	C	1.018350	0.128565	0.777525
C51	C	0.436365	-0.371444	0.277532
C52	C	0.936365	0.128556	0.777532
C53	C	0.436423	-0.277711	0.371532
C54	C	0.936423	0.222289	0.871532
C55	C	0.518403	-0.277702	0.371526
C56	C	1.018403	0.222298	0.871526
C57	C	0.559364	-0.324567	0.324521
C58	C	1.059364	0.175433	0.824521
C59	C	1.094985	-0.507380	0.316678
C60	C	1.594985	-0.007380	0.816678
C61	C	1.091450	-0.585592	0.313351
C62	C	1.591450	-0.085592	0.813351
C63	C	1.137907	-0.620348	0.356827
C64	C	1.637907	-0.120348	0.856827
C65	C	1.134583	-0.693837	0.353702
C66	C	1.634583	-0.193837	0.853702
C67	C	1.084805	-0.732569	0.307096
C68	C	1.584805	-0.232569	0.807096
C69	C	1.038343	-0.697808	0.263618
C70	C	1.538343	-0.197808	0.763618
C71	C	1.041664	-0.624321	0.266748
C72	C	1.541664	-0.124321	0.766748
C73	C	1.072367	-0.954553	0.295398
C74	C	1.572367	-0.454553	0.795398
C75	C	1.069051	-1.028046	0.292271
C76	C	1.569051	-0.528046	0.792271
C77	C	1.165291	-1.024069	0.382356
C78	C	1.665291	-0.524069	0.882356
C79	C	1.168610	-0.950581	0.385478
C80	C	1.668610	-0.450581	0.885478
C81	C	1.122145	-0.915826	0.342002
C82	C	1.622145	-0.415826	0.842002
C83	C	1.081407	-0.807686	0.303899
C84	C	1.581407	-0.307686	0.803899
C85	C	1.125539	-0.840710	0.345203
C86	C	1.625539	-0.340710	0.845203
C87	C	1.308155	-0.324575	0.324526
C88	C	1.808155	0.175425	0.824526
C89	C	1.395404	-0.324583	0.324533
C90	C	1.895404	0.175417	0.824533
C91	C	1.095078	-0.316677	0.508041
C92	C	1.595078	0.183323	1.008041
C93	C	1.091526	-0.313319	0.586250
C94	C	1.591526	0.186681	1.086250
C95	C	1.111894	-0.141015	0.332390
C96	C	1.611894	0.358985	0.832390
C97	C	1.115508	-0.062801	0.335747
C98	C	1.615508	0.437199	0.835747
C99	C	1.111763	-0.332352	0.141697
C100	C	1.611763	0.167648	0.641697
C101	C	1.115476	-0.335511	0.063497
C102	C	1.615476	0.164489	0.563497
C103	C	1.069026	-0.292081	1.028684
C104	C	1.569026	0.207919	1.528684
C105	C	1.072368	-0.295232	0.955198
C106	C	1.572368	0.204768	1.455198
C107	C	1.122154	-0.341818	0.916526
C108	C	1.622154	0.158182	1.416526
C109	C	1.168609	-0.385250	0.951344
C110	C	1.668609	0.114750	1.451344
C111	C	1.165271	-0.382094	1.024829
C112	C	1.665271	0.117906	1.524829
C113	C	1.134643	-0.353595	0.694553
C114	C	1.634643	0.146405	1.194553
C115	C	1.137975	-0.356750	0.621063
C116	C	1.637975	0.143250	1.121063
C117	C	1.041734	-0.266730	0.624922
C118	C	1.541734	0.233270	1.124922
C119	C	1.038398	-0.263582	0.698408
C120	C	1.538398	0.236418	1.198408
C121	C	1.084855	-0.307011	0.733220
C122	C	1.584855	0.192989	1.233220
C123	C	1.125569	-0.345043	0.841411
C124	C	1.625569	0.154957	1.341411
C125	C	1.081444	-0.303782	0.808333
C126	C	1.581444	0.196218	1.308333
H127	H	1.178445	-0.588817	0.394775
H128	H	1.678445	-0.088817	0.894775
C129	C	1.021235	-0.916332	0.247590
C130	C	1.521235	-0.416332	0.747590
N131	N	0.982712	-0.887542	0.211584
N132	N	1.482712	-0.387542	0.711584
C133	C	1.223375	-0.436496	0.908802
C134	C	1.723375	0.063504	1.408802
N135	N	1.264624	-0.475097	0.876760
N136	N	1.764624	0.024903	1.376760
H137	H	1.034543	-0.259868	0.926857
H138	H	1.534543	0.240132	1.426857
H139	H	0.997853	-0.225649	0.729890
H140	H	1.497853	0.274351	1.229890
C141	C	0.983636	-0.740418	0.212309
C142	C	1.483636	-0.240418	0.712309
N143	N	0.942450	-0.772512	0.173644
N144	N	1.442450	-0.272512	0.673644
H145	H	1.172419	-0.722132	0.389100
H146	H	1.672419	-0.222132	0.889100
C147	C	0.990558	-0.586090	0.218920
C148	C	1.490558	-0.086090	0.718920
N149	N	0.952062	-0.557296	0.182895
N150	N	1.452062	-0.057296	0.682895
H151	H	1.203119	-1.052374	0.417752
H152	H	1.703119	-0.552374	0.917752
C153	C	0.644222	-0.226138	0.423217
C154	C	1.144222	0.273862	0.923217
N155	N	0.610289	-0.187310	0.462165
N156	N	1.110289	0.312690	0.962165
H157	H	0.804550	-0.409570	0.239229
H158	H	1.304550	0.090430	0.739229
C159	C	1.180295	-0.798103	0.396467
C160	C	1.680295	-0.298103	0.896467
N161	N	1.221541	-0.766005	0.435075
N162	N	1.721541	-0.266005	0.935075
H163	H	1.003913	-0.231372	0.596571
H164	H	1.503913	0.268628	1.096571
H165	H	1.040911	-0.265850	0.839823
H166	H	1.540911	0.234150	1.339823
H167	H	1.178536	-0.394673	0.589579
H168	H	1.678536	0.105327	1.089579
H169	H	1.040880	-0.839230	0.265951
H170	H	1.540880	-0.339230	0.765951
C171	C	1.185741	-0.401375	0.732836
C172	C	1.685741	0.098625	1.232836
N173	N	1.224229	-0.437367	0.761673
N174	N	1.724229	0.062633	1.261673
H175	H	0.804647	-0.239518	0.409777
H176	H	1.304647	0.260482	0.909777
C177	C	1.014257	-0.240831	1.071216
C178	C	1.514257	0.259169	1.571216
N179	N	0.973007	-0.202226	1.103250
N180	N	1.473007	0.297774	1.603250
C181	C	1.216367	-0.429873	1.063122
C182	C	1.716367	0.070127	1.563122
N183	N	1.254856	-0.465860	1.091964
N184	N	1.754856	0.034140	1.591964
H185	H	0.551798	-0.239541	0.409798
H186	H	1.051798	0.260459	0.909798
C187	C	0.391365	-0.226162	0.423241
C188	C	0.891365	0.273838	0.923241
N189	N	0.357424	-0.187340	0.462190
N190	N	0.857424	0.312660	0.962190
H191	H	0.402969	-0.409610	0.239265
H192	H	0.902969	0.090390	0.739265
H193	H	1.028513	-1.059580	0.254319
H194	H	1.528513	-0.559580	0.754319
C195	C	0.644097	-0.422975	0.225812
C196	C	1.144097	0.077025	0.725812
N197	N	0.610110	-0.461810	0.186875
N198	N	1.110110	0.038190	0.686875
H199	H	0.551698	-0.409595	0.239247
H200	H	1.051698	0.090405	0.739247
H201	H	1.209143	-0.919046	0.423428
H202	H	1.709143	-0.419046	0.923428
H203	H	1.166104	-0.382975	0.809916
H204	H	1.666104	0.117025	1.309916
