data_functionalizedCrystal
_audit_creation_method	'MofGen! by Chris Wilmer'
_symmetry_space_group_name_H-M	'P1'
_symmetry_Int_Tables_number	1
_symmetry_cell_setting	triclinic
loop_
_symmetry_equiv_pos_as_xyz
  x,y,z
_cell_length_a	10.654550
_cell_length_b	9.065218
_cell_length_c	9.130313
_cell_angle_alpha	90.000552
_cell_angle_beta	89.996220
_cell_angle_gamma	84.750394
loop_
_atom_site_label
_atom_site_type_symbol
_atom_site_fract_x
_atom_site_fract_y
_atom_site_fract_z
O1	O	1.668655	0.207228	-0.121914
O2	O	1.303255	0.226972	-0.121889
O3	O	1.493507	0.002416	-0.121899
O4	O	1.478402	0.431784	-0.121904
O5	O	1.493505	0.002422	0.121700
O6	O	1.303252	0.226978	0.121709
O7	O	1.668653	0.207234	0.121685
Cu8	Cu	1.485952	0.217107	0.143940
Cu9	Cu	1.485955	0.217100	-0.144144
O10	O	1.478400	0.431790	0.121695
C11	C	1.256450	0.225525	-0.000087
C12	C	1.116989	0.221188	-0.000078
C13	C	1.038027	0.353403	-0.000101
C14	C	0.906990	0.349319	-0.000126
C15	C	0.933890	0.080793	-0.000112
C16	C	1.064925	0.084879	-0.000076
C17	C	1.022496	0.508434	-0.000115
C18	C	0.891459	0.504350	-0.000141
C19	C	1.492055	-0.052559	-0.000102
C20	C	1.487714	-0.216378	-0.000109
C21	C	1.715457	0.208681	-0.000120
C22	C	1.854918	0.213018	-0.000139
C23	C	1.479852	0.486766	-0.000106
C24	C	1.484193	0.650585	-0.000108
N25	N	1.485959	0.217111	0.346563
N26	N	1.485957	0.217084	-0.346767
C27	C	1.570225	0.117712	0.423210
C28	C	1.570222	0.117694	0.576547
C29	C	1.401682	0.316488	0.576575
C30	C	1.401681	0.316497	0.423241
C31	C	1.667534	0.002944	0.423195
C32	C	1.667531	0.002926	0.576532
H33	H	1.052066	0.569069	0.101835
H34	H	0.891483	-0.030185	-0.000133
H35	H	0.845972	0.551205	0.105027
O36	O	1.319874	0.413232	0.650900
C37	C	1.249218	0.668980	0.697910
C38	C	1.341922	0.559578	0.613627
H39	H	1.267029	0.787325	0.667830
H40	H	1.148387	0.648771	0.667731
H41	H	1.263668	0.651823	0.820662
H42	H	1.327587	0.576671	0.490856
H43	H	1.442719	0.579815	0.643928
H44	H	1.758860	0.038879	0.375630
O45	O	1.065061	0.567421	-0.125641
C46	C	1.010835	0.673876	-0.361648
C47	C	0.962455	0.607141	-0.219549
H48	H	0.927905	0.705979	-0.437625
H49	H	1.060755	0.776424	-0.334349
H50	H	1.079688	0.588522	-0.418211
H51	H	0.893556	0.692385	-0.162916
H52	H	0.912609	0.504565	-0.246943
O53	O	1.641341	-0.132405	0.373780
C54	C	1.593784	-0.379090	0.437796
C55	C	1.623406	-0.225873	0.493958
H56	H	1.579301	-0.454711	0.534931
H57	H	1.504439	-0.366681	0.368493
H58	H	1.675780	-0.429338	0.368368
H59	H	1.541489	-0.175539	0.563447
H60	H	1.712793	-0.238377	0.563181
H61	H	1.636593	-0.104243	0.624083
H62	H	0.849958	0.562761	-0.102095
H63	H	1.333054	0.397423	0.360836
O64	O	1.782826	0.032823	0.626263
C65	C	1.965781	-0.052545	0.768374
C66	C	1.835251	-0.086605	0.712123
H67	H	2.008193	-0.149066	0.837829
H68	H	2.030281	-0.035745	0.671325
H69	H	1.955459	0.052461	0.837698
H70	H	1.845452	-0.191623	0.642823
H71	H	1.770798	-0.103311	0.809237
O72	O	1.141683	-0.043512	0.000216
C73	C	1.305259	-0.194677	0.126430
C74	C	1.218381	-0.049231	0.126299
H75	H	1.367310	-0.199334	0.228342
H76	H	1.245601	-0.292857	0.126516
H77	H	1.367248	-0.199470	0.024455
H78	H	1.156376	-0.044294	0.228257
H79	H	1.278114	0.048881	0.126137
