data_functionalizedCrystal
_audit_creation_method	'MofGen! by Chris Wilmer'
_symmetry_space_group_name_H-M	'P1'
_symmetry_Int_Tables_number	1
_symmetry_cell_setting	triclinic
loop_
_symmetry_equiv_pos_as_xyz
  x,y,z
_cell_length_a	11.169417
_cell_length_b	19.805399
_cell_length_c	11.169416
_cell_angle_alpha	89.978277
_cell_angle_beta	90.011219
_cell_angle_gamma	89.987406
loop_
_atom_site_label
_atom_site_type_symbol
_atom_site_fract_x
_atom_site_fract_y
_atom_site_fract_z
Zn1	Zn	1.834877	-0.382676	-0.477790
Zn2	Zn	2.168210	-0.049343	-0.144457
Zn3	Zn	2.501543	0.283990	0.188876
Zn4	Zn	1.834791	-0.269502	-0.678499
Zn5	Zn	2.168125	0.063831	-0.345165
Zn6	Zn	2.501458	0.397164	-0.011832
Zn7	Zn	1.634188	-0.269509	-0.477831
Zn8	Zn	1.967521	0.063824	-0.144498
Zn9	Zn	2.300855	0.397157	0.188835
Zn10	Zn	1.634170	-0.382658	-0.678433
Zn11	Zn	1.967503	-0.049324	-0.345100
Zn12	Zn	2.300837	0.284009	-0.011766
O13	O	1.734506	-0.326086	-0.578138
O14	O	2.067840	0.007247	-0.244805
O15	O	2.401173	0.340580	0.088528
O16	O	2.002815	-0.367668	-0.504425
O17	O	2.336148	-0.034335	-0.171092
O18	O	2.669482	0.298998	0.162242
O19	O	1.808153	-0.174787	-0.651924
O20	O	2.141486	0.158547	-0.318591
O21	O	2.474819	0.491880	0.014742
O22	O	1.660853	-0.284532	-0.309876
O23	O	1.994186	0.048801	0.023457
O24	O	2.327519	0.382135	0.356791
O25	O	2.002752	-0.284520	-0.651885
O26	O	2.336086	0.048813	-0.318551
O27	O	2.669419	0.382147	0.014782
O28	O	1.808298	-0.367675	-0.309846
O29	O	2.141631	-0.034342	0.023487
O30	O	2.474965	0.298991	0.356821
O31	O	1.660770	-0.174792	-0.504495
O32	O	1.994103	0.158541	-0.171162
O33	O	2.327437	0.491875	0.162172
O34	O	1.466236	-0.284514	-0.504431
O35	O	1.799569	0.048819	-0.171098
O36	O	2.132902	0.382153	0.162235
O37	O	1.660822	-0.477377	-0.651773
O38	O	1.994156	-0.144043	-0.318439
O39	O	2.327489	0.189290	0.014894
O40	O	1.466223	-0.367643	-0.651813
O41	O	1.799556	-0.034310	-0.318479
O42	O	2.132889	0.299023	0.014854
O43	O	1.808281	-0.477390	-0.504361
O44	O	2.141614	-0.144057	-0.171028
O45	O	2.474947	0.189276	0.162305
O46	O	1.808135	-0.284502	-0.846440
O47	O	2.141469	0.048831	-0.513106
O48	O	2.474802	0.382165	-0.179773
O49	O	1.660740	-0.367637	-0.846391
O50	O	1.994073	-0.034303	-0.513058
O51	O	2.327406	0.299030	-0.179725
C52	C	1.422682	-0.326078	-0.578120
C53	C	1.756015	0.007256	-0.244787
C54	C	2.089348	0.340589	0.088547
C55	C	1.289282	-0.326090	-0.578141
C56	C	1.622615	0.007243	-0.244808
C57	C	1.955948	0.340577	0.088525
C58	C	1.734559	-0.502629	-0.578055
C59	C	2.067892	-0.169296	-0.244722
C60	C	2.401226	0.164037	0.088612
C61	C	1.734582	-0.577861	-0.578020
C62	C	2.067915	-0.244528	-0.244686
C63	C	2.401248	0.088805	0.088647
C64	C	1.657861	-0.613208	-0.501246
C65	C	1.991195	-0.279874	-0.167912
C66	C	2.324528	0.053459	0.165421
C67	C	1.657878	-0.683896	-0.501222
C68	C	1.991211	-0.350563	-0.167889
C69	C	2.324544	-0.017229	0.165444
C70	C	1.734622	-0.719237	-0.577968
C71	C	2.067955	-0.385904	-0.244634
C72	C	2.401288	-0.052570	0.088699
C73	C	1.811345	-0.683886	-0.654750
C74	C	2.144678	-0.350552	-0.321417
C75	C	2.478012	-0.017219	0.011917
C76	C	1.811322	-0.613198	-0.654778
C77	C	2.144655	-0.279865	-0.321445
C78	C	2.477988	0.053468	0.011888
C79	C	1.811440	-0.968959	-0.654638
C80	C	2.144774	-0.635626	-0.321304
C81	C	2.478107	-0.302292	0.012029
C82	C	1.811460	-1.039651	-0.654601
C83	C	2.144794	-0.706318	-0.321267
C84	C	2.478127	-0.372985	0.012066
C85	C	1.657996	-1.039657	-0.501082
C86	C	1.991330	-0.706323	-0.167748
C87	C	2.324663	-0.372990	0.165585
C88	C	1.657973	-0.968969	-0.501110
C89	C	1.991306	-0.635636	-0.167777
C90	C	2.324640	-0.302303	0.165556
C91	C	1.734692	-0.933624	-0.577896
C92	C	2.068025	-0.600291	-0.244563
C93	C	2.401358	-0.266958	0.088770
C94	C	1.734671	-0.856976	-0.577922
C95	C	2.068004	-0.523643	-0.244589
C96	C	2.401338	-0.190309	0.088744
C97	C	1.734649	-0.795884	-0.577936
C98	C	2.067982	-0.462551	-0.244603
C99	C	2.401316	-0.129217	0.088730
C100	C	2.047549	-0.326096	-0.578157
C101	C	2.380882	0.007238	-0.244824
C102	C	2.714215	0.340571	0.088509
C103	C	2.180949	-0.326099	-0.578166
C104	C	2.514282	0.007234	-0.244832
C105	C	2.847615	0.340567	0.088501
C106	C	1.734459	-0.326081	-0.889963
C107	C	2.067792	0.007252	-0.556630
C108	C	2.401126	0.340585	-0.223296
C109	C	1.734548	-0.326102	-1.023363
C110	C	2.067882	0.007232	-0.690030
C111	C	2.401215	0.340565	-0.356696
C112	C	1.734523	-0.150230	-0.578135
C113	C	2.067856	0.183103	-0.244801
C114	C	2.401190	0.516436	0.088532
C115	C	1.734733	-0.074999	-0.577832
C116	C	2.068066	0.258335	-0.244499
C117	C	2.401400	0.591668	0.088835
C118	C	1.734587	-0.326106	-0.265096
C119	C	2.067920	0.007227	0.068237
C120	C	2.401254	0.340560	0.401571
C121	C	1.734621	-0.326115	-0.131696
C122	C	2.067955	0.007218	0.201637
C123	C	2.401288	0.340552	0.534971
H124	H	1.595400	-0.712672	-0.438710
H125	H	1.928733	-0.379339	-0.105377
H126	H	2.262067	-0.046005	0.227957
N127	N	1.575216	-0.930852	-0.418320
N128	N	1.908550	-0.597518	-0.084987
N129	N	2.241883	-0.264185	0.248347
H130	H	1.526617	-0.963970	-0.369677
H131	H	1.859950	-0.630637	-0.036344
H132	H	2.193284	-0.297304	0.296990
H133	H	1.519650	-0.901515	-0.467174
H134	H	1.852984	-0.568181	-0.133841
H135	H	2.186317	-0.234848	0.199493
H136	H	1.873896	-0.940190	-0.717175
H137	H	2.207230	-0.606856	-0.383841
H138	H	2.540563	-0.273523	-0.050508
N139	N	1.575091	-0.575099	-0.418456
N140	N	1.908424	-0.241765	-0.085123
N141	N	2.241758	0.091568	0.248210
H142	H	1.489338	-0.587397	-0.437085
H143	H	1.822671	-0.254064	-0.103752
H144	H	2.156005	0.079270	0.229581
H145	H	1.586816	-0.524966	-0.430151
H146	H	1.920150	-0.191633	-0.096818
H147	H	2.253483	0.141701	0.236515
H148	H	1.595525	-1.068443	-0.438562
H149	H	1.928858	-0.735110	-0.105229
H150	H	2.262191	-0.401776	0.228105
N151	N	1.894107	-0.721999	-0.737541
N152	N	2.227440	-0.388666	-0.404208
N153	N	2.560773	-0.055333	-0.070874
H154	H	1.882482	-0.772143	-0.725875
H155	H	2.215815	-0.438810	-0.392541
H156	H	2.549149	-0.105477	-0.059208
H157	H	1.979825	-0.709648	-0.718881
H158	H	2.313159	-0.376314	-0.385547
H159	H	2.646492	-0.042981	-0.052214
N160	N	1.894236	-1.077772	-0.737380
N161	N	2.227570	-0.744438	-0.404047
N162	N	2.560903	-0.411105	-0.070714
H163	H	1.942832	-1.044655	-0.786032
H164	H	2.276165	-0.711322	-0.452698
H165	H	2.609499	-0.377988	-0.119365
H166	H	1.845370	-1.107097	-0.792897
H167	H	2.178704	-0.773763	-0.459564
H168	H	2.512037	-0.440430	-0.126230
N169	N	1.894065	-0.575073	-0.737591
N170	N	2.227399	-0.241740	-0.404257
N171	N	2.560732	0.091593	-0.070924
H172	H	1.942686	-0.608188	-0.786202
H173	H	2.276019	-0.274855	-0.452869
H174	H	2.609352	0.058478	-0.119535
H175	H	1.949613	-0.545748	-0.688758
H176	H	2.282946	-0.212415	-0.355425
H177	H	2.616279	0.120919	-0.022092
