data_functionalizedCrystal
_audit_creation_method	'MofGen! by Chris Wilmer'
_symmetry_space_group_name_H-M	'P1'
_symmetry_Int_Tables_number	1
_symmetry_cell_setting	triclinic
loop_
_symmetry_equiv_pos_as_xyz
  x,y,z
_cell_length_a	6.817900
_cell_length_b	16.305597
_cell_length_c	10.943881
_cell_angle_alpha	93.791282
_cell_angle_beta	108.843448
_cell_angle_gamma	103.455834
loop_
_atom_site_label
_atom_site_type_symbol
_atom_site_fract_x
_atom_site_fract_y
_atom_site_fract_z
V1	V	-4.088168	-0.116692	-0.402995
O2	O	-4.074578	0.005632	-0.394868
O3	O	-4.039202	-0.231405	-0.400677
O4	O	-4.066578	-0.114886	-0.578555
O5	O	-4.047013	-0.111693	-0.215758
V6	V	-4.568396	-0.102062	-0.380547
O7	O	-4.356656	-0.148785	-0.452237
O8	O	-4.750105	-0.069970	-0.331305
O9	O	-4.394155	0.012650	-0.382865
O10	O	-4.699382	-0.224386	-0.388674
O11	O	-4.726948	-0.107062	-0.567783
O12	O	-4.366779	-0.103868	-0.204987
C13	C	-3.883198	-0.259370	-0.394433
C14	C	-3.924628	-0.353148	-0.393708
C15	C	-3.918117	-0.110738	-0.621332
C16	C	-3.981744	-0.110020	-0.764856
C17	C	-4.075359	-0.693907	-0.391135
C18	C	-3.838556	-0.653077	-0.384085
C19	C	-3.795055	-0.555478	-0.384327
C20	C	-4.000579	-0.524853	-0.392412
C21	C	-4.065049	-0.550228	-0.272112
C22	C	-4.106718	-0.647760	-0.271222
C23	C	-4.232918	-0.673078	-0.518139
C24	C	-4.186429	-0.575565	-0.520366
C25	C	-3.958325	-0.429310	-0.393130
C26	C	-4.117615	-0.789449	-0.390408
C27	C	-4.210255	-0.113993	-0.855755
C28	C	-4.113815	-0.041480	-0.921216
C29	C	-4.191508	-0.181204	-0.955116
C30	C	-3.884433	-0.037459	-0.828414
C31	C	-3.962185	-0.177247	-0.862322
C32	C	-3.865578	-0.104713	-0.927736
C33	C	-4.213501	0.040611	-0.389106
C34	C	-4.151311	0.134389	-0.389839
C35	C	-4.178581	-0.108019	-0.162203
C36	C	-4.094192	-0.108732	-0.018677
H37	H	-3.742037	-0.538556	-0.470290
H38	H	-3.897548	-0.234661	-0.835985
H39	H	-4.355263	-0.117834	-0.823900
N40	N	-4.331898	-0.683327	-0.271116
H41	H	-4.403675	-0.635636	-0.271641
H42	H	-4.325010	-0.710716	-0.190251
H43	H	-3.932486	-0.514621	-0.177392
H44	H	-3.805873	-0.683551	-0.469701
N45	N	-3.608399	-0.509851	-0.262653
H46	H	-3.488815	-0.474760	-0.288084
H47	H	-3.554245	-0.553179	-0.208685
N48	N	-4.199547	0.034550	-0.956123
H49	H	-4.330264	0.031013	-0.930164
H50	H	-4.240728	0.034722	-1.053407
H51	H	-3.993041	-0.659266	-0.175670
N52	N	-4.462897	-0.708823	-0.526643
H53	H	-4.465126	-0.738371	-0.448659
H54	H	-4.543588	-0.751139	-0.609545
H55	H	-4.321973	-0.241943	-1.010093
N56	N	-3.680743	-0.670950	-0.262750
H57	H	-3.705079	-0.734638	-0.265127
H58	H	-3.702485	-0.645635	-0.182922
N59	N	-4.264043	-0.523936	-0.273838
H60	H	-4.314435	-0.495253	-0.352807
H61	H	-4.229404	-0.482894	-0.191782
N62	N	-4.214856	-0.716138	-0.638992
H63	H	-4.104345	-0.749590	-0.612632
H64	H	-4.169247	-0.671486	-0.691349
N65	N	-4.126601	-0.554792	-0.638284
H66	H	-3.979731	-0.512706	-0.608958
H67	H	-4.236385	-0.529060	-0.696969
N68	N	-3.711759	0.043072	-0.755775
H69	H	-3.764705	0.075335	-0.696644
H70	H	-3.676810	0.079969	-0.820548
N71	N	-4.390952	-0.549293	-0.538073
H72	H	-4.438400	-0.561020	-0.461066
H73	H	-4.507204	-0.582912	-0.621024
N74	N	-3.673124	-0.099486	-0.969588
H75	H	-3.557850	-0.045190	-0.922769
H76	H	-3.717851	-0.099552	-1.067040
