data_functionalizedCrystal
_audit_creation_method	'MofGen! by Chris Wilmer'
_symmetry_space_group_name_H-M	'P1'
_symmetry_Int_Tables_number	1
_symmetry_cell_setting	triclinic
loop_
_symmetry_equiv_pos_as_xyz
  x,y,z
_cell_length_a	19.188930
_cell_length_b	15.944551
_cell_length_c	14.421503
_cell_angle_alpha	90.010022
_cell_angle_beta	90.014354
_cell_angle_gamma	96.678240
loop_
_atom_site_label
_atom_site_type_symbol
_atom_site_fract_x
_atom_site_fract_y
_atom_site_fract_z
O1	O	0.090054	-1.114174	0.077026
O2	O	0.340054	-0.864174	0.327026
O3	O	0.590054	-0.614174	0.577026
O4	O	0.840054	-0.364174	0.827026
O5	O	0.101156	-0.869583	0.077050
O6	O	0.351156	-0.619583	0.327050
O7	O	0.601156	-0.369583	0.577050
O8	O	0.851156	-0.119583	0.827050
O9	O	-0.006033	-0.998937	0.077019
O10	O	0.243967	-0.748937	0.327019
O11	O	0.493967	-0.498937	0.577019
O12	O	0.743967	-0.248937	0.827019
O13	O	0.197242	-0.984820	0.077057
O14	O	0.447242	-0.734820	0.327057
O15	O	0.697242	-0.484820	0.577057
O16	O	0.947242	-0.234820	0.827057
O17	O	-0.006048	-0.998952	-0.077204
O18	O	0.243952	-0.748952	0.172796
O19	O	0.493952	-0.498952	0.422796
O20	O	0.743952	-0.248952	0.672796
O21	O	0.101141	-0.869598	-0.077173
O22	O	0.351141	-0.619598	0.172827
O23	O	0.601141	-0.369598	0.422827
O24	O	0.851141	-0.119598	0.672827
O25	O	0.090039	-1.114189	-0.077198
O26	O	0.340039	-0.864189	0.172802
O27	O	0.590039	-0.614189	0.422802
O28	O	0.840039	-0.364189	0.672802
Cu29	Cu	0.095588	-0.991895	-0.091267
Cu30	Cu	0.345588	-0.741895	0.158733
Cu31	Cu	0.595588	-0.491895	0.408733
Cu32	Cu	0.845588	-0.241895	0.658733
Cu33	Cu	0.095606	-0.991877	0.091120
Cu34	Cu	0.345606	-0.741877	0.341120
Cu35	Cu	0.595606	-0.491877	0.591120
Cu36	Cu	0.845606	-0.241877	0.841120
O37	O	0.197227	-0.984835	-0.077167
O38	O	0.447227	-0.734835	0.172833
O39	O	0.697227	-0.484835	0.422833
O40	O	0.947227	-0.234835	0.672833
C41	C	0.100687	-0.838298	-0.000059
C42	C	0.350687	-0.588298	0.249941
C43	C	0.600687	-0.338298	0.499941
C44	C	0.850687	-0.088298	0.749941
C45	C	0.099306	-0.745057	-0.000050
C46	C	0.349306	-0.495057	0.249950
C47	C	0.599306	-0.245057	0.499950
C48	C	0.849306	0.004943	0.749950
C49	C	-0.032052	-0.998487	-0.000095
C50	C	0.217948	-0.748487	0.249905
C51	C	0.467948	-0.498487	0.499905
C52	C	0.717948	-0.248487	0.749905
C53	C	-0.109560	-0.997115	-0.000103
C54	C	0.140440	-0.747115	0.249897
C55	C	0.390440	-0.497115	0.499897
C56	C	0.640440	-0.247115	0.749897
N57	N	0.095613	-0.991865	0.219401
N58	N	0.345613	-0.741865	0.469401
N59	N	0.595613	-0.491865	0.719401
N60	N	0.845613	-0.241865	0.969401
C61	C	-0.154288	-1.073016	-0.000115
C62	C	0.095712	-0.823016	0.249885
C63	C	0.345712	-0.573016	0.499885
C64	C	0.595712	-0.323016	0.749885
C65	C	-0.227115	-1.071726	-0.000100
C66	C	0.022885	-0.821726	0.249900
C67	C	0.272885	-0.571726	0.499900
C68	C	0.522885	-0.321726	0.749900
C69	C	-0.255211	-0.994532	-0.000092
C70	C	-0.005211	-0.744532	0.249908
C71	C	0.244789	-0.494532	0.499908
C72	C	0.494789	-0.244532	0.749908
C73	C	-0.210474	-0.918622	-0.000075
C74	C	0.039526	-0.668622	0.249925
C75	C	0.289526	-0.418622	0.499925
C76	C	0.539526	-0.168622	0.749925
C77	C	-0.137648	-0.919913	-0.000080
C78	C	0.112352	-0.669913	0.249920
C79	C	0.362352	-0.419913	0.499920
C80	C	0.612352	-0.169913	0.749920
N81	N	-0.363374	-0.935531	-0.052571
N82	N	-0.113374	-0.685531	0.197429
N83	N	0.136626	-0.435531	0.447429
N84	N	0.386626	-0.185531	0.697429
N85	N	-0.432556	-0.934310	-0.052568
N86	N	-0.182556	-0.684310	0.197432
N87	N	0.067444	-0.434310	0.447432
N88	N	0.317444	-0.184310	0.697432
C89	C	-0.474630	-0.990637	-0.000073
C90	C	-0.224630	-0.740637	0.249927
C91	C	0.025370	-0.490637	0.499927
C92	C	0.275370	-0.240637	0.749927
N93	N	-0.444911	-1.048244	0.052407
N94	N	-0.194911	-0.798244	0.302407
N95	N	0.055089	-0.548244	0.552407
N96	N	0.305089	-0.298244	0.802407
N97	N	-0.375723	-1.049468	0.052400
N98	N	-0.125723	-0.799468	0.302400
N99	N	0.124277	-0.549468	0.552400
N100	N	0.374277	-0.299468	0.802400
C101	C	-0.334178	-0.993123	-0.000085
C102	C	-0.084178	-0.743123	0.249915
C103	C	0.165822	-0.493123	0.499915
C104	C	0.415822	-0.243123	0.749915
C105	C	-0.598326	-1.065145	-0.000067
C106	C	-0.348326	-0.815145	0.249933
C107	C	-0.098326	-0.565145	0.499933
C108	C	0.151674	-0.315145	0.749933
C109	C	-0.671154	-1.063852	-0.000046
C110	C	-0.421154	-0.813852	0.249954
C111	C	-0.171154	-0.563852	0.499954
C112	C	0.078846	-0.313852	0.749954
C113	C	-0.654511	-0.910745	-0.000030
C114	C	-0.404511	-0.660745	0.249970
C115	C	-0.154511	-0.410745	0.499970
C116	C	0.095489	-0.160745	0.749970
C117	C	-0.581685	-0.912040	-0.000041
C118	C	-0.331685	-0.662040	0.249959
C119	C	-0.081685	-0.412040	0.499959
C120	C	0.168315	-0.162040	0.749959
C121	C	-0.553597	-0.989242	-0.000064
C122	C	-0.303597	-0.739242	0.249936
C123	C	-0.053597	-0.489242	0.499936
C124	C	0.196403	-0.239242	0.749936
C125	C	0.223247	-0.985285	-0.000050
C126	C	0.473247	-0.735285	0.249950
C127	C	0.723247	-0.485285	0.499950
C128	C	0.973247	-0.235285	0.749950
C129	C	0.300755	-0.986657	-0.000036
C130	C	0.550755	-0.736657	0.249964
C131	C	0.800755	-0.486657	0.499964
C132	C	1.050755	-0.236657	0.749964
C133	C	0.090507	-1.145474	-0.000087
C134	C	0.340507	-0.895474	0.249913
C135	C	0.590507	-0.645474	0.499913
C136	C	0.840507	-0.395474	0.749913
C137	C	0.091889	-1.238715	-0.000089
C138	C	0.341889	-0.988715	0.249911
C139	C	0.591889	-0.738715	0.499911
C140	C	0.841889	-0.488715	0.749911
C141	C	0.029562	-0.530462	-0.000081
C142	C	0.279562	-0.280462	0.249919
C143	C	0.529562	-0.030462	0.499919
C144	C	0.779562	0.219538	0.749919
C145	C	0.061956	-0.469313	0.075965
C146	C	0.311956	-0.219313	0.325965
C147	C	0.561956	0.030687	0.575965
C148	C	0.811956	0.280687	0.825965
C149	C	0.096806	-0.574341	-0.000062
C150	C	0.346806	-0.324341	0.249938
C151	C	0.596806	-0.074341	0.499938
C152	C	0.846806	0.175659	0.749938
C153	C	0.061957	-0.469350	-0.076087
C154	C	0.311957	-0.219350	0.173913
C155	C	0.561957	0.030650	0.423913
C156	C	0.811957	0.280650	0.673913
C157	C	0.094386	-0.409437	-0.000077
C158	C	0.344386	-0.159437	0.249923
C159	C	0.594386	0.090563	0.499923
C160	C	0.844386	0.340563	0.749923
C161	C	0.129218	-0.514420	0.076047
C162	C	0.379218	-0.264420	0.326047
C163	C	0.629218	-0.014420	0.576047
C164	C	0.879218	0.235580	0.826047
C165	C	0.129210	-0.514464	-0.076073
C166	C	0.379210	-0.264464	0.173927
C167	C	0.629210	-0.014464	0.423927
C168	C	0.879210	0.235536	0.673927
C169	C	0.161652	-0.453332	-0.000008
C170	C	0.411652	-0.203332	0.249992
C171	C	0.661652	0.046668	0.499992
C172	C	0.911652	0.296668	0.749992
C173	C	0.098198	-0.669338	-0.000052
C174	C	0.348198	-0.419338	0.249948
C175	C	0.598198	-0.169338	0.499948
C176	C	0.848198	0.080662	0.749948
C177	C	0.093000	-0.314441	-0.000080
C178	C	0.343000	-0.064441	0.249920
C179	C	0.593000	0.185559	0.499920
C180	C	0.843000	0.435559	0.749920
N181	N	0.095576	-0.991913	-0.219549
N182	N	0.345576	-0.741913	0.030451
N183	N	0.595576	-0.491913	0.280451
N184	N	0.845576	-0.241913	0.530451
C185	C	0.145078	-0.931940	0.469063
C186	C	0.395078	-0.681940	0.719063
C187	C	0.645078	-0.431940	0.969063
C188	C	0.895078	-0.181940	1.219063
C189	C	0.081937	-0.916065	0.530858
C190	C	0.331937	-0.666065	0.780858
C191	C	0.581937	-0.416065	1.030858
C192	C	0.831937	-0.166065	1.280858
C193	C	0.095599	-0.991881	0.408562
C194	C	0.345599	-0.741881	0.658562
C195	C	0.595599	-0.491881	0.908562
C196	C	0.845599	-0.241881	1.158562
C197	C	0.158727	-1.007733	0.530861
C198	C	0.408727	-0.757733	0.780861
C199	C	0.658727	-0.507733	1.030861
C200	C	0.908727	-0.257733	1.280861
C201	C	0.095591	-0.991895	0.591284
C202	C	0.345591	-0.741895	0.841284
C203	C	0.595591	-0.491895	1.091284
C204	C	0.845591	-0.241895	1.341284
C205	C	0.032426	-0.975969	0.468997
C206	C	0.282426	-0.725969	0.718997
C207	C	0.532426	-0.475969	0.968997
C208	C	0.782426	-0.225969	1.218997
C209	C	0.109257	-1.067670	0.468994
C210	C	0.359257	-0.817670	0.718994
C211	C	0.609257	-0.567670	0.968994
C212	C	0.859257	-0.317670	1.218994
C213	C	0.046071	-1.051827	0.530761
C214	C	0.296071	-0.801827	0.780761
C215	C	0.546071	-0.551827	1.030761
C216	C	0.796071	-0.301827	1.280761
C217	C	0.095605	-0.991871	0.303301
C218	C	0.345605	-0.741871	0.553301
C219	C	0.595605	-0.491871	0.803301
C220	C	0.845605	-0.241871	1.053301
C221	C	0.095578	-0.991905	0.696543
C222	C	0.345578	-0.741905	0.946543
C223	C	0.595578	-0.491905	1.196543
C224	C	0.845578	-0.241905	1.446543
H225	H	-0.131424	-1.135880	-0.000131
H226	H	0.118576	-0.885880	0.249869
H227	H	0.368576	-0.635880	0.499869
H228	H	0.618576	-0.385880	0.749869
H229	H	0.157644	-0.534295	0.140409
H230	H	0.407644	-0.284295	0.390409
H231	H	0.657644	-0.034295	0.640409
H232	H	0.907644	0.215705	0.890409
H233	H	0.157621	-0.534495	-0.140358
H234	H	0.407621	-0.284495	0.109642
H235	H	0.657621	-0.034495	0.359642
H236	H	0.907621	0.215505	0.609642
O237	O	0.235652	-0.409137	0.000043
O238	O	0.485652	-0.159137	0.250043
O239	O	0.735652	0.090863	0.500043
O240	O	0.985652	0.340863	0.750043
H241	H	0.263396	-0.427185	0.063225
H242	H	0.513396	-0.177185	0.313225
H243	H	0.763396	0.072815	0.563225
H244	H	1.013396	0.322815	0.813225
H245	H	0.212118	-1.021145	0.558018
H246	H	0.462118	-0.771145	0.808018
H247	H	0.712118	-0.521145	1.058018
H248	H	0.962118	-0.271145	1.308018
H249	H	-0.233354	-0.855769	-0.000066
H250	H	0.016646	-0.605769	0.249934
H251	H	0.266646	-0.355769	0.499934
H252	H	0.516646	-0.105769	0.749934
O253	O	-0.275372	-1.153593	-0.000126
O254	O	-0.025372	-0.903593	0.249874
O255	O	0.224628	-0.653593	0.499874
O256	O	0.474628	-0.403593	0.749874
H257	H	-0.243605	-1.207492	-0.000150
H258	H	0.006395	-0.957492	0.249850
H259	H	0.256395	-0.707492	0.499850
H260	H	0.506395	-0.457492	0.749850
O261	O	-0.038317	-0.958118	0.433177
O262	O	0.211683	-0.708118	0.683177
O263	O	0.461683	-0.458118	0.933177
O264	O	0.711683	-0.208118	1.183177
H265	H	-0.031860	-0.899888	0.390370
H266	H	0.218140	-0.649888	0.640370
H267	H	0.468140	-0.399888	0.890370
H268	H	0.718140	-0.149888	1.140370
O269	O	-0.009413	-1.118986	0.566435
O270	O	0.240587	-0.868986	0.816435
O271	O	0.490587	-0.618986	1.066435
O272	O	0.740587	-0.368986	1.316435
H273	H	-0.061734	-1.105629	0.541523
H274	H	0.188266	-0.855629	0.791523
H275	H	0.438266	-0.605629	1.041523
H276	H	0.688266	-0.355629	1.291523
H277	H	0.033498	-0.449376	-0.140376
H278	H	0.283498	-0.199376	0.109624
H279	H	0.533498	0.050624	0.359624
H280	H	0.783498	0.300624	0.609624
H281	H	-0.575456	-1.128007	-0.000081
H282	H	-0.325456	-0.878007	0.249919
H283	H	-0.075456	-0.628007	0.499919
H284	H	0.174544	-0.378007	0.749919
H285	H	-0.101230	-0.858103	-0.000071
H286	H	0.148770	-0.608103	0.249929
H287	H	0.398770	-0.358103	0.499929
H288	H	0.648770	-0.108103	0.749929
O289	O	0.124586	-1.152534	0.432961
O290	O	0.374586	-0.902534	0.682961
O291	O	0.624586	-0.652534	0.932961
O292	O	0.874586	-0.402534	1.182961
H293	H	0.172645	-1.144190	0.389543
H294	H	0.422645	-0.894190	0.639543
H295	H	0.672645	-0.644190	0.889543
H296	H	0.922645	-0.394190	1.139543
O297	O	-0.719402	-1.145720	-0.000067
O298	O	-0.469402	-0.895720	0.249933
O299	O	-0.219402	-0.645720	0.499933
O300	O	0.030598	-0.395720	0.749933
H301	H	-0.687633	-1.199616	-0.000096
H302	H	-0.437633	-0.949616	0.249904
H303	H	-0.187633	-0.699616	0.499904
H304	H	0.062367	-0.449616	0.749904
O305	O	0.024292	-0.442803	0.161111
O306	O	0.274292	-0.192803	0.411111
O307	O	0.524292	0.057197	0.661111
O308	O	0.774292	0.307197	0.911111
H309	H	0.060689	-0.398651	0.202907
H310	H	0.310689	-0.148651	0.452907
H311	H	0.560689	0.101349	0.702907
H312	H	0.810689	0.351349	0.952907
H313	H	-0.677386	-0.847892	-0.000019
H314	H	-0.427386	-0.597892	0.249981
H315	H	-0.177386	-0.347892	0.499981
H316	H	0.072614	-0.097892	0.749981
H317	H	0.186876	-0.881210	0.441971
H318	H	0.436876	-0.631210	0.691971
H319	H	0.686876	-0.381210	0.941971
H320	H	0.936876	-0.131210	1.191971
H321	H	0.070379	-0.851979	0.558038
H322	H	0.320379	-0.601979	0.808038
H323	H	0.570379	-0.351979	1.058038
H324	H	0.820379	-0.101979	1.308038
H325	H	-0.026244	-0.564003	0.000003
H326	H	0.223756	-0.314003	0.250003
H327	H	0.473756	-0.064003	0.500003
H328	H	0.723756	0.185997	0.750003
O329	O	-0.533435	-0.830175	-0.000052
O330	O	-0.283435	-0.580175	0.249948
O331	O	-0.033435	-0.330175	0.499948
O332	O	0.216565	-0.080175	0.749948
H333	H	-0.565204	-0.776279	-0.000054
H334	H	-0.315204	-0.526279	0.249946
H335	H	-0.065204	-0.276279	0.499946
H336	H	0.184796	-0.026279	0.749946
