data_functionalizedCrystal
_audit_creation_method	'MofGen! by Chris Wilmer'
_symmetry_space_group_name_H-M	'P1'
_symmetry_Int_Tables_number	1
_symmetry_cell_setting	triclinic
loop_
_symmetry_equiv_pos_as_xyz
  x,y,z
_cell_length_a	13.032831
_cell_length_b	16.120484
_cell_length_c	13.032268
_cell_angle_alpha	80.357249
_cell_angle_beta	89.113023
_cell_angle_gamma	86.078521
loop_
_atom_site_label
_atom_site_type_symbol
_atom_site_fract_x
_atom_site_fract_y
_atom_site_fract_z
Zn1	Zn	1.458766	-0.562103	0.811459
Zn2	Zn	1.958766	-0.062103	1.311459
Zn3	Zn	1.471747	-0.686112	0.646236
Zn4	Zn	1.971747	-0.186112	1.146236
Zn5	Zn	1.311081	-0.527333	0.615806
Zn6	Zn	1.811081	-0.027333	1.115806
Zn7	Zn	1.278313	-0.681612	0.796116
Zn8	Zn	1.778313	-0.181612	1.296116
O9	O	1.379976	-0.614290	0.717404
O10	O	1.879976	-0.114290	1.217404
O11	O	1.603247	-0.594988	0.808698
O12	O	2.103247	-0.094988	1.308698
O13	O	1.469580	-0.652382	0.497592
O14	O	1.969580	-0.152382	0.997592
O15	O	1.338953	-0.415480	0.635446
O16	O	1.838953	0.084520	1.135446
O17	O	1.612784	-0.686097	0.687309
O18	O	2.112784	-0.186097	1.187309
O19	O	1.447456	-0.441026	0.779192
O20	O	1.947456	0.058974	1.279192
O21	O	1.351539	-0.535727	0.475236
O22	O	1.851539	-0.035727	0.975236
O23	O	1.163974	-0.531364	0.620568
O24	O	1.663974	-0.031364	1.120568
O25	O	1.283104	-0.678427	0.942758
O26	O	1.783104	-0.178427	1.442758
O27	O	1.139900	-0.644712	0.753041
O28	O	1.639900	-0.144712	1.253041
O29	O	1.415682	-0.590624	0.954031
O30	O	1.915682	-0.090624	1.454031
O31	O	1.437806	-0.801980	0.672431
O32	O	1.937806	-0.301980	1.172431
O33	O	1.295691	-0.798674	0.782547
O34	O	1.795691	-0.298674	1.282547
C35	C	1.114921	-0.583777	0.681838
C36	C	1.614921	-0.083777	1.181838
C37	C	1.001525	-0.570746	0.666648
C38	C	1.501525	-0.070746	1.166648
C39	C	0.939092	-0.621091	0.725332
C40	C	1.439092	-0.121091	1.225332
C41	C	0.821890	-0.607624	0.709634
C42	C	1.321890	-0.107624	1.209634
C43	C	1.364626	-0.830530	0.729153
C44	C	1.864626	-0.330530	1.229153
C45	C	1.358148	-0.923053	0.734226
C46	C	1.858148	-0.423053	1.234226
C47	C	1.346324	-1.092455	0.743510
C48	C	1.846324	-0.592455	1.243510
C49	C	1.413810	-1.135307	0.691340
C50	C	1.913810	-0.635307	1.191340
C51	C	1.407231	-1.229569	0.696506
C52	C	1.907231	-0.729569	1.196506
C53	C	1.352901	-0.998185	0.738345
C54	C	1.852901	-0.498185	1.238345
C55	C	1.646067	-0.644923	0.753110
C56	C	2.146067	-0.144923	1.253110
C57	C	1.759458	-0.657977	0.768325
C58	C	2.259458	-0.157977	1.268325
C59	C	1.344290	-0.637902	0.986938
C60	C	1.844290	-0.137902	1.486938
C61	C	1.329082	-0.647964	1.101797
C62	C	1.829082	-0.147964	1.601797
C63	C	1.395412	-0.397210	0.705636
C64	C	1.895412	0.102790	1.205636
C65	C	1.401989	-0.304704	0.700622
C66	C	1.901989	0.195296	1.200622
C67	C	1.415587	-0.590717	0.448924
C68	C	1.915587	-0.090717	0.948924
C69	C	1.431009	-0.580443	0.334079
C70	C	1.931009	-0.080443	0.834079
C71	C	1.387900	-0.609007	1.158582
C72	C	1.887900	-0.109007	1.658582
C73	C	1.372183	-0.619405	1.277296
C74	C	1.872183	-0.119405	1.777296
H75	H	0.792768	-0.711049	0.830198
H76	H	1.292768	-0.211049	1.330198
H77	H	0.972408	-0.674162	0.787198
H78	H	1.472408	-0.174162	1.287198
H79	H	1.476527	-1.101202	0.642796
H80	H	1.976527	-0.601202	1.142796
O81	O	1.271536	-1.133256	0.801326
O82	O	1.771536	-0.633256	1.301326
C83	C	1.196776	-1.265795	0.859320
C84	C	1.696776	-0.765795	1.359320
C85	C	1.281510	-1.219677	0.793791
C86	C	1.781510	-0.719677	1.293791
H87	H	1.204824	-1.335676	0.853269
H88	H	1.704824	-0.835676	1.353269
H89	H	1.118077	-1.237828	0.829149
H90	H	1.618077	-0.737828	1.329149
H91	H	1.204739	-1.258023	0.944125
H92	H	1.704739	-0.758023	1.444125
H93	H	1.273643	-1.227431	0.708973
H94	H	1.773643	-0.727431	1.208973
H95	H	1.360175	-1.247653	0.824049
H96	H	1.860175	-0.747653	1.324049
H97	H	1.449887	-0.567952	1.119311
H98	H	1.949887	-0.067952	1.619311
O99	O	1.298302	-0.668385	1.324302
O100	O	1.798302	-0.168385	1.824302
C101	C	1.215215	-0.723341	1.485471
C102	C	1.715215	-0.223341	1.985471
C103	C	1.298933	-0.667862	1.432372
C104	C	1.798933	-0.167862	1.932372
H105	H	1.215682	-0.722922	1.572850
H106	H	1.715682	-0.222922	2.072850
H107	H	1.231135	-0.790697	1.470430
H108	H	1.731135	-0.290697	1.970430
H109	H	1.136791	-0.697425	1.452421
H110	H	1.636791	-0.197425	1.952421
H111	H	1.377390	-0.693702	1.465389
H112	H	1.877390	-0.193702	1.965389
H113	H	1.282922	-0.600514	1.447407
H114	H	1.782922	-0.100514	1.947407
O115	O	1.504837	-0.531383	1.287119
O116	O	2.004837	-0.031383	1.787119
C117	C	1.542546	-0.409931	1.160949
C118	C	2.042546	0.090069	1.660949
C119	C	1.458845	-0.465439	1.214026
C120	C	1.958845	0.034561	1.714026
H121	H	1.505391	-0.356592	1.101858
H122	H	2.005391	0.143408	1.601858
H123	H	1.599826	-0.449814	1.119558
H124	H	2.099826	0.050186	1.619558
H125	H	1.584390	-0.382261	1.222203
H126	H	2.084390	0.117739	1.722203
H127	H	1.416924	-0.493120	1.152838
H128	H	1.916924	0.006880	1.652838
H129	H	1.401634	-0.425517	1.255438
H130	H	1.901634	0.074483	1.755438
O131	O	0.781993	-0.544373	0.635832
O132	O	1.281993	-0.044373	1.135832
C133	C	0.628795	-0.473241	0.552957
C134	C	1.128795	0.026759	1.052957
C135	C	0.673843	-0.544909	0.636562
C136	C	1.173843	-0.044909	1.136562
H137	H	0.541349	-0.473639	0.553535
H138	H	1.041349	0.026361	1.053535
H139	H	0.659610	-0.482836	0.473140
H140	H	1.159610	0.017164	0.973140
H141	H	0.652082	-0.410146	0.570353
H142	H	1.152082	0.089854	1.070353
H143	H	0.650574	-0.608035	0.619265
H144	H	1.150574	-0.108035	1.119265
H145	H	0.643031	-0.535240	0.716353
H146	H	1.143031	-0.035240	1.216353
O147	O	0.961622	-0.507499	0.592851
O148	O	1.461622	-0.007499	1.092851
C149	C	0.808424	-0.436366	0.509976
C150	C	1.308424	0.063634	1.009976
C151	C	0.853473	-0.508034	0.593581
C152	C	1.353473	-0.008034	1.093581
H153	H	0.720979	-0.436764	0.510554
H154	H	1.220979	0.063236	1.010554
H155	H	0.839240	-0.445961	0.430159
H156	H	1.339240	0.054039	0.930159
H157	H	0.831712	-0.373271	0.527371
H158	H	1.331712	0.126729	1.027371
H159	H	0.830203	-0.571160	0.576284
H160	H	1.330203	-0.071160	1.076284
H161	H	0.822661	-0.498365	0.673372
H162	H	1.322661	0.001635	1.173372
H163	H	1.267086	-0.689009	1.141066
H164	H	1.767086	-0.189009	1.641066
