data_functionalizedCrystal
_audit_creation_method	'MofGen! by Chris Wilmer'
_symmetry_space_group_name_H-M	'P1'
_symmetry_Int_Tables_number	1
_symmetry_cell_setting	triclinic
loop_
_symmetry_equiv_pos_as_xyz
  x,y,z
_cell_length_a	13.032868
_cell_length_b	13.033304
_cell_length_c	13.032268
_cell_angle_alpha	90.922231
_cell_angle_beta	76.714099
_cell_angle_gamma	105.190463
loop_
_atom_site_label
_atom_site_type_symbol
_atom_site_fract_x
_atom_site_fract_y
_atom_site_fract_z
Zn1	Zn	0.335816	-1.451089	-0.818111
Zn2	Zn	0.490915	-1.450955	-0.663037
Zn3	Zn	0.330113	-1.301754	-0.623661
Zn4	Zn	0.535901	-1.250861	-0.817972
O5	O	0.423186	-1.363665	-0.730695
O6	O	0.339950	-1.597308	-0.814077
O7	O	0.448370	-1.452406	-0.511594
O8	O	0.179837	-1.342919	-0.633035
O9	O	0.453901	-1.597210	-0.700144
O10	O	0.184027	-1.452635	-0.775896
O11	O	0.330230	-1.342789	-0.482665
O12	O	0.373851	-1.148766	-0.632900
O13	O	0.530573	-1.256179	-0.964210
O14	O	0.525043	-1.111375	-0.775660
O15	O	0.383572	-1.403285	-0.964312
O16	O	0.647915	-1.403056	-0.700010
O17	O	0.680966	-1.256048	-0.813841
C18	C	0.453711	-1.092153	-0.699993
C19	C	0.466799	-0.975991	-0.686886
C20	C	0.416370	-0.924223	-0.737523
C21	C	0.429896	-0.804164	-0.723978
C22	C	0.703601	-1.324040	-0.761209
C23	C	0.823559	-1.307179	-0.774309
C24	C	0.860652	-1.372448	-0.723881
C25	C	0.984634	-1.355023	-0.737419
C26	C	1.141679	-1.403436	-0.700073
C27	C	1.021722	-1.420301	-0.686985
C28	C	0.462727	-1.324070	-1.003234
C29	C	0.479577	-1.307197	-1.119374
C30	C	0.392537	-0.636239	-0.761511
C31	C	0.379459	-0.752398	-0.774623
C32	C	0.414355	-1.372460	-1.171203
C33	C	0.431769	-1.355023	-1.291239
C34	C	0.383715	-1.403177	-0.459215
C35	C	0.366539	-1.420295	-0.343066
H36	H	0.363177	-0.968786	-0.790900
N37	N	0.308995	-0.811400	-0.845338
H38	H	0.247696	-0.869908	-0.802576
H39	H	0.354958	-0.843403	-0.903537
N40	N	0.903056	-1.216067	-0.844776
H41	H	0.952015	-1.244937	-0.903096
H42	H	0.949078	-1.167346	-0.801800
N43	N	0.500345	-0.745157	-0.653253
H44	H	0.500019	-0.667756	-0.653598
H45	H	0.577667	-0.750949	-0.679914
N46	N	0.537245	-0.916980	-0.616164
H47	H	0.536918	-0.839579	-0.616509
H48	H	0.614566	-0.922772	-0.642825
H49	H	0.548300	-1.238408	-1.163866
H50	H	0.800625	-1.441232	-0.670690
H51	H	0.961697	-1.489089	-0.633791
H52	H	1.044661	-1.286242	-0.790623
N53	N	0.522823	-1.263909	-1.350164
H54	H	0.563957	-1.222752	-1.299085
H55	H	0.490850	-1.215227	-1.385200
H56	H	0.345622	-1.441240	-1.126708
H57	H	0.297798	-1.489079	-1.298576
