data_functionalizedCrystal
_audit_creation_method	'MofGen! by Chris Wilmer'
_symmetry_space_group_name_H-M	'P1'
_symmetry_Int_Tables_number	1
_symmetry_cell_setting	triclinic
loop_
_symmetry_equiv_pos_as_xyz
  x,y,z
_cell_length_a	16.120566
_cell_length_b	16.120507
_cell_length_c	16.120297
_cell_angle_alpha	95.611825
_cell_angle_beta	90.125018
_cell_angle_gamma	90.176284
loop_
_atom_site_label
_atom_site_type_symbol
_atom_site_fract_x
_atom_site_fract_y
_atom_site_fract_z
Zn1	Zn	-1.224924	0.422253	0.554860
Zn2	Zn	-0.974924	0.672253	0.804860
Zn3	Zn	-0.724924	0.922253	1.054860
Zn4	Zn	-0.474924	1.172253	1.304860
Zn5	Zn	-1.224800	0.554936	0.422159
Zn6	Zn	-0.974800	0.804936	0.672159
Zn7	Zn	-0.724800	1.054936	0.922159
Zn8	Zn	-0.474800	1.304936	1.172159
Zn9	Zn	-1.093665	0.408169	0.408096
Zn10	Zn	-0.843665	0.658169	0.658096
Zn11	Zn	-0.593665	0.908169	0.908096
Zn12	Zn	-0.343665	1.158169	1.158096
Zn13	Zn	-1.078798	0.554170	0.554084
Zn14	Zn	-0.828798	0.804170	0.804084
Zn15	Zn	-0.578798	1.054170	1.054084
Zn16	Zn	-0.328798	1.304170	1.304084
O17	O	-1.155547	0.484882	0.484800
O18	O	-0.905547	0.734882	0.734800
O19	O	-0.655547	0.984882	0.984800
O20	O	-0.405547	1.234882	1.234800
O21	O	-1.340942	0.446068	0.543467
O22	O	-1.090942	0.696068	0.793467
O23	O	-0.840942	0.946068	1.043467
O24	O	-0.590942	1.196068	1.293467
O25	O	-1.213575	0.529894	0.303661
O26	O	-0.963575	0.779894	0.553661
O27	O	-0.713575	1.029894	0.803661
O28	O	-0.463575	1.279894	1.053661
O29	O	-1.117351	0.293408	0.422004
O30	O	-0.867351	0.543408	0.672004
O31	O	-0.617351	0.793408	0.922004
O32	O	-0.367351	1.043408	1.172004
O33	O	-1.340851	0.543550	0.445972
O34	O	-1.090851	0.793550	0.695972
O35	O	-0.840851	1.043550	0.945972
O36	O	-0.590851	1.293550	1.195972
O37	O	-1.213786	0.303754	0.529831
O38	O	-0.963786	0.553754	0.779831
O39	O	-0.713786	0.803754	1.029831
O40	O	-0.463786	1.053754	1.279831
O41	O	-1.117231	0.422065	0.293330
O42	O	-0.867231	0.672065	0.543330
O43	O	-0.617231	0.922065	0.793330
O44	O	-0.367231	1.172065	1.043330
O45	O	-0.975659	0.421322	0.421252
O46	O	-0.725659	0.671322	0.671252
O47	O	-0.475659	0.921322	0.921252
O48	O	-0.225659	1.171322	1.171252
O49	O	-1.092012	0.542244	0.670819
O50	O	-0.842012	0.792244	0.920819
O51	O	-0.592012	1.042244	1.170819
O52	O	-0.342012	1.292244	1.420819
O53	O	-0.964736	0.528588	0.528508
O54	O	-0.714736	0.778588	0.778508
O55	O	-0.464736	1.028588	1.028508
O56	O	-0.214736	1.278588	1.278508
O57	O	-1.199370	0.445325	0.671389
O58	O	-0.949370	0.695325	0.921389
O59	O	-0.699370	0.945325	1.171389
O60	O	-0.449370	1.195325	1.421389
O61	O	-1.199159	0.671464	0.445219
O62	O	-0.949159	0.921464	0.695219
O63	O	-0.699159	1.171464	0.945219
O64	O	-0.449159	1.421464	1.195219
O65	O	-1.091892	0.670901	0.542144
O66	O	-0.841892	0.920901	0.792144
O67	O	-0.591892	1.170901	1.042144
O68	O	-0.341892	1.420901	1.292144
C69	C	-0.940111	0.473344	0.473270
C70	C	-0.690111	0.723344	0.723270
C71	C	-0.440111	0.973344	0.973270
C72	C	-0.190111	1.223344	1.223270
C73	C	-0.847944	0.468429	0.468358
C74	C	-0.597944	0.718429	0.718358
C75	C	-0.347944	0.968429	0.968358
C76	C	-0.097944	1.218429	1.218358
C77	C	-1.143920	0.701426	0.495143
C78	C	-0.893920	0.951426	0.745143
C79	C	-0.643920	1.201426	0.995143
C80	C	-0.393920	1.451426	1.245143
C81	C	-1.139021	0.794069	0.499599
C82	C	-0.889021	1.044069	0.749599
C83	C	-0.639021	1.294069	0.999599
C84	C	-0.389021	1.544069	1.249599
C85	C	-0.679194	0.459437	0.459397
C86	C	-0.429194	0.709437	0.709397
C87	C	-0.179194	0.959437	0.959397
C88	C	0.070806	1.209437	1.209397
C89	C	-0.632736	0.510399	0.510213
C90	C	-0.382736	0.760399	0.760213
C91	C	-0.132736	1.010399	1.010213
C92	C	0.117264	1.260399	1.260213
C93	C	-0.538838	0.505396	0.505226
C94	C	-0.288838	0.755396	0.755226
C95	C	-0.038838	1.005396	1.005226
C96	C	0.211162	1.255396	1.255226
C97	C	-0.773101	0.464439	0.464382
C98	C	-0.523101	0.714439	0.714382
C99	C	-0.273101	0.964439	0.964382
C100	C	-0.023101	1.214439	1.214382
C101	C	-1.144046	0.495270	0.702191
C102	C	-0.894046	0.745270	0.952191
C103	C	-0.644046	0.995270	1.202191
C104	C	-0.394046	1.245270	1.452191
C105	C	-1.139145	0.499696	0.794830
C106	C	-0.889145	0.749696	1.044830
C107	C	-0.639145	0.999696	1.294830
C108	C	-0.389145	1.249696	1.544830
C109	C	-0.371825	0.496467	0.496361
C110	C	-0.121825	0.746467	0.746361
C111	C	0.128175	0.996467	0.996361
C112	C	0.378175	1.246467	1.246361
C113	C	-0.463991	0.501409	0.501254
C114	C	-0.213991	0.751409	0.751254
C115	C	0.036009	1.001409	1.001254
C116	C	0.286009	1.251409	1.251254
C117	C	-1.181032	1.005226	0.461813
C118	C	-0.931032	1.255226	0.711813
C119	C	-0.681032	1.505226	0.961813
C120	C	-0.431032	1.755226	1.211813
C121	C	-1.130090	0.963687	0.507746
C122	C	-0.880090	1.213687	0.757746
C123	C	-0.630090	1.463687	1.007746
C124	C	-0.380090	1.713687	1.257746
C125	C	-1.135061	0.869303	0.503212
C126	C	-0.885061	1.119303	0.753212
C127	C	-0.635061	1.369303	1.003212
C128	C	-0.385061	1.619303	1.253212
C129	C	-1.176063	1.099618	0.466346
C130	C	-0.926063	1.349618	0.716346
C131	C	-0.676063	1.599618	0.966346
C132	C	-0.426063	1.849618	1.216346
C133	C	-1.167209	1.267492	0.474421
C134	C	-0.917209	1.517492	0.724421
C135	C	-0.667209	1.767492	0.974421
C136	C	-0.417209	2.017492	1.224421
C137	C	-1.172099	1.174848	0.469962
C138	C	-0.922099	1.424848	0.719962
C139	C	-0.672099	1.674848	0.969962
C140	C	-0.422099	1.924848	1.219962
C141	C	-1.167054	0.474477	0.268254
C142	C	-0.917054	0.724477	0.518254
C143	C	-0.667054	0.974477	0.768254
C144	C	-0.417054	1.224477	1.018254
C145	C	-1.172128	0.469824	0.175613
C146	C	-0.922128	0.719824	0.425613
C147	C	-0.672128	0.969824	0.675613
C148	C	-0.422128	1.219824	0.925613
C149	C	-1.130167	0.507758	0.964440
C150	C	-0.880167	0.757758	1.214440
C151	C	-0.630167	1.007758	1.464440
C152	C	-0.380167	1.257758	1.714440
C153	C	-1.181103	0.461765	1.006007
C154	C	-0.931103	0.711765	1.256007
C155	C	-0.681103	0.961765	1.506007
C156	C	-0.431103	1.211765	1.756007
C157	C	-1.176108	0.466250	1.100385
C158	C	-0.926108	0.716250	1.350385
C159	C	-0.676108	0.966250	1.600385
C160	C	-0.426108	1.216250	1.850385
C161	C	-1.135161	0.503273	0.870055
C162	C	-0.885161	0.753273	1.120055
C163	C	-0.635161	1.003273	1.370055
C164	C	-0.385161	1.253273	1.620055
H165	H	-0.663482	0.557786	0.557463
H166	H	-0.413482	0.807786	0.807463
H167	H	-0.163482	1.057786	1.057463
H168	H	0.086518	1.307786	1.307463
H169	H	-1.228375	0.969908	0.419086
H170	H	-0.978375	1.219908	0.669086
H171	H	-0.728375	1.469908	0.919086
H172	H	-0.478375	1.719908	1.169086
N173	N	-1.067367	1.010474	0.564334
N174	N	-0.817367	1.260474	0.814334
N175	N	-0.567367	1.510474	1.064334
N176	N	-0.317367	1.760474	1.314334
H177	H	-1.009599	0.991647	0.547454
H178	H	-0.759599	1.241647	0.797454
H179	H	-0.509599	1.491647	1.047454
H180	H	-0.259599	1.741647	1.297454
H181	H	-1.077889	0.998863	0.623853
H182	H	-0.827889	1.248863	0.873853
H183	H	-0.577889	1.498863	1.123853
H184	H	-0.327889	1.748863	1.373853
N185	N	-1.067447	0.564376	1.011195
N186	N	-0.817447	0.814376	1.261195
N187	N	-0.567447	1.064376	1.511195
N188	N	-0.317447	1.314376	1.761195
H189	H	-1.077905	0.623914	0.999644
H190	H	-0.827905	0.873914	1.249644
H191	H	-0.577905	1.123914	1.499644
H192	H	-0.327905	1.373914	1.749644
H193	H	-1.009704	0.547492	0.992290
H194	H	-0.759704	0.797492	1.242290
H195	H	-0.509704	1.047492	1.492290
H196	H	-0.259704	1.297492	1.742290
H197	H	-1.228461	0.419019	0.970715
H198	H	-0.978461	0.669019	1.220715
H199	H	-0.728461	0.919019	1.470715
H200	H	-0.478461	1.169019	1.720715
N201	N	-0.638477	0.396687	0.396793
N202	N	-0.388477	0.646687	0.646793
N203	N	-0.138477	0.896687	0.896793
N204	N	0.111523	1.146687	1.146793
H205	H	-0.576199	0.401976	0.402054
H206	H	-0.326199	0.651976	0.652054
H207	H	-0.076199	0.901976	0.902054
H208	H	0.173801	1.151976	1.152054
H209	H	-0.656014	0.407534	0.338656
H210	H	-0.406014	0.657534	0.588656
H211	H	-0.156014	0.907534	0.838656
H212	H	0.093986	1.157534	1.088656
