data_functionalizedCrystal
_audit_creation_method	'MofGen! by Chris Wilmer'
_symmetry_space_group_name_H-M	'P1'
_symmetry_Int_Tables_number	1
_symmetry_cell_setting	triclinic
loop_
_symmetry_equiv_pos_as_xyz
  x,y,z
_cell_length_a	17.038272
_cell_length_b	19.288840
_cell_length_c	18.366186
_cell_angle_alpha	89.983729
_cell_angle_beta	89.993834
_cell_angle_gamma	87.118786
loop_
_atom_site_label
_atom_site_type_symbol
_atom_site_fract_x
_atom_site_fract_y
_atom_site_fract_z
O1	O	0.097420	0.927391	-0.060673
O2	O	0.110595	0.725943	-0.060648
O3	O	-0.009804	0.825470	-0.060654
O4	O	0.217819	0.827865	-0.060666
O5	O	-0.009810	0.825452	0.060445
O6	O	0.110589	0.725925	0.060452
O7	O	0.097414	0.927373	0.060427
Zn8	Zn	0.104001	0.826646	0.079666
Zn9	Zn	0.104008	0.826670	-0.079887
O10	O	0.217813	0.827846	0.060433
C11	C	0.110171	0.700031	-0.000095
C12	C	0.108909	0.622849	-0.000085
C13	C	0.108305	0.586618	-0.066098
C14	C	0.107110	0.514097	-0.066107
C15	C	0.106502	0.477811	-0.000099
C16	C	0.107110	0.514050	0.065923
C17	C	0.108313	0.586569	0.065930
C18	C	0.058809	0.365525	0.050465
C19	C	0.057601	0.293007	0.050455
C20	C	0.102795	0.254138	-0.000118
C21	C	0.149188	0.287795	-0.050693
C22	C	0.150391	0.360314	-0.050686
C23	C	0.105198	0.399176	-0.000099
C24	C	0.100897	0.139271	-0.066145
C25	C	0.099707	0.066749	-0.066151
C26	C	0.099699	0.066704	0.065880
C27	C	0.100897	0.139225	0.065885
C28	C	0.101493	0.175504	-0.000130
C29	C	-0.038928	0.823283	-0.000105
C30	C	-0.125699	0.816785	-0.000104
C31	C	-0.176012	0.876442	-0.000111
C32	C	-0.257542	0.870332	-0.000117
C33	C	-0.288758	0.804566	-0.000111
C34	C	-0.238439	0.744905	-0.000107
C35	C	-0.156910	0.751015	-0.000106
C36	C	-0.534444	0.782980	-0.000118
C37	C	-0.615979	0.776875	-0.000117
C38	C	-0.635077	0.902303	-0.000129
C39	C	-0.553546	0.908407	-0.000123
C40	C	-0.503234	0.848746	-0.000123
C41	C	-0.372095	0.798320	-0.000115
C42	C	-0.419899	0.854993	-0.000124
C43	C	0.246937	0.830033	-0.000118
C44	C	0.333708	0.836531	-0.000124
C45	C	0.097838	0.953285	-0.000128
C46	C	0.099101	1.030468	-0.000143
N47	N	0.103995	0.826634	0.188557
N48	N	0.104008	0.826687	-0.188779
C49	C	0.050708	0.870722	0.226655
C50	C	0.050705	0.870726	0.302883
C51	C	0.104001	0.826650	0.341010
C52	C	0.157292	0.782554	0.302903
C53	C	0.157289	0.782546	0.226677
C54	C	0.175226	0.821759	0.461767
C55	C	0.175230	0.821771	0.537992
C56	C	0.104011	0.826671	0.576118
C57	C	0.032785	0.831571	0.538008
C58	C	0.032782	0.831563	0.461782
C59	C	0.104010	0.826654	0.423665
C60	C	0.050716	0.870765	0.696870
C61	C	0.050712	0.870764	0.773099
C62	C	0.157306	0.782596	0.773119
C63	C	0.157303	0.782593	0.696891
C64	C	0.104010	0.826681	0.658771
H65	H	0.019821	0.265609	0.091633
H66	H	0.007315	0.906663	0.804119
Br67	Br	0.101710	0.188512	-0.155734
Br68	Br	-0.063877	0.838208	0.410064
Br69	Br	-0.280802	0.655649	-0.000111
Br70	Br	-0.063876	0.838229	0.589740
H71	H	0.233226	0.817785	0.569015
Br72	Br	0.229618	0.722731	0.354645
H73	H	0.007311	0.906628	0.333907
Br74	Br	0.229626	0.722760	0.645181
Br75	Br	0.229629	0.722770	0.824857
Br76	Br	-0.021613	0.930596	0.645134
H77	H	-0.528136	0.961961	-0.000128
Br78	Br	0.271891	0.815179	0.410034
H79	H	0.200682	0.746644	0.195657
H80	H	0.106620	0.484592	-0.119865
Br81	Br	0.109114	0.635851	-0.155689
H82	H	0.188167	0.387715	-0.091865
Br83	Br	0.098898	0.017576	-0.155749
Br84	Br	-0.414466	0.709067	-0.000114
H85	H	0.099209	0.037160	0.119626
H86	H	-0.641391	0.723317	-0.000101
Br87	Br	0.109134	0.635743	0.155526
Br88	Br	0.210530	0.235053	-0.119332
H89	H	-0.676049	0.950875	-0.000131
Br90	Br	-0.088627	0.670050	-0.000102
Br91	Br	-0.021619	0.930551	0.174920
H92	H	0.101384	0.168724	0.119640
Br93	Br	-0.002529	0.418269	0.119108
H94	H	0.106618	0.484501	0.119667
H95	H	-0.298504	0.918911	-0.000121
Br96	Br	-0.133656	0.965700	-0.000108
Br97	Br	-0.377533	0.944245	-0.000138
H98	H	-0.493489	0.734400	-0.000118
