data_functionalizedCrystal
_audit_creation_method	'MofGen! by Chris Wilmer'
_symmetry_space_group_name_H-M	'P1'
_symmetry_Int_Tables_number	1
_symmetry_cell_setting	triclinic
loop_
_symmetry_equiv_pos_as_xyz
  x,y,z
_cell_length_a	11.026607
_cell_length_b	9.065218
_cell_length_c	8.140239
_cell_angle_alpha	90.001686
_cell_angle_beta	89.998635
_cell_angle_gamma	83.199049
loop_
_atom_site_label
_atom_site_type_symbol
_atom_site_fract_x
_atom_site_fract_y
_atom_site_fract_z
O1	O	1.616970	-0.619585	-0.136569
O2	O	1.262889	-0.549033	-0.136580
O3	O	1.447248	-0.371492	-0.136571
O4	O	1.432611	-0.797126	-0.136578
O5	O	1.447238	-0.371487	0.136656
O6	O	1.262878	-0.549028	0.136647
O7	O	1.616960	-0.619580	0.136658
Zn8	Zn	1.439918	-0.584303	0.180033
Zn9	Zn	1.439931	-0.584310	-0.179955
O10	O	1.432600	-0.797121	0.136649
C11	C	1.217530	-0.536015	0.000032
C12	C	1.082389	-0.497214	0.000028
C13	C	1.445836	-0.316152	0.000040
C14	C	1.441630	-0.151260	0.000032
C15	C	1.662319	-0.632598	0.000042
C16	C	1.797460	-0.671399	0.000036
C17	C	1.870088	-0.564265	0.000035
C18	C	2.009763	-0.604364	0.000029
C19	C	1.434012	-0.852461	0.000035
C20	C	1.438219	-1.017353	0.000032
N21	N	1.439917	-0.584300	0.425716
N22	N	1.439941	-0.584304	-0.425638
H23	H	1.828862	-0.442857	0.000065
H24	H	1.838685	-0.792806	0.000041
O25	O	2.033373	-0.352308	-0.000186
C26	C	2.072219	-0.281501	-0.141716
H27	H	2.160760	-0.345078	-0.188900
H28	H	2.088356	-0.162920	-0.109890
H29	H	1.998956	-0.279247	-0.240799
H30	H	2.050983	-0.725780	0.000033
