data_functionalizedCrystal
_audit_creation_method	'MofGen! by Chris Wilmer'
_symmetry_space_group_name_H-M	'P1'
_symmetry_Int_Tables_number	1
_symmetry_cell_setting	triclinic
loop_
_symmetry_equiv_pos_as_xyz
  x,y,z
_cell_length_a	29.839134
_cell_length_b	29.839131
_cell_length_c	29.839125
_cell_angle_alpha	90.017709
_cell_angle_beta	90.021980
_cell_angle_gamma	90.036281
loop_
_atom_site_label
_atom_site_type_symbol
_atom_site_fract_x
_atom_site_fract_y
_atom_site_fract_z
Zn1	Zn	0.686720	-0.178978	0.254125
Zn2	Zn	0.686652	-0.254090	0.178995
Zn3	Zn	0.611602	-0.178968	0.178995
Zn4	Zn	0.611550	-0.254075	0.254083
O5	O	0.649131	-0.216528	0.216549
O6	O	0.749578	-0.188952	0.244176
O7	O	0.676690	-0.244127	0.116128
O8	O	0.621617	-0.116102	0.188978
O9	O	0.749528	-0.244137	0.188979
O10	O	0.676805	-0.116109	0.244176
O11	O	0.621551	-0.188935	0.116127
O12	O	0.548728	-0.188921	0.188938
O13	O	0.621528	-0.244111	0.316956
O14	O	0.548690	-0.244101	0.244105
O15	O	0.676755	-0.188937	0.316987
O16	O	0.676639	-0.316955	0.188938
O17	O	0.621462	-0.316944	0.244105
C18	C	0.532408	-0.216509	0.216517
C19	C	0.482474	-0.216511	0.216514
C20	C	0.649050	-0.333250	0.216527
C21	C	0.649056	-0.383185	0.216533
C22	C	0.172820	-0.245303	0.245240
C23	C	-0.014853	-0.245315	0.245260
O24	O	-0.039127	-0.269774	0.269665
N25	N	-0.038311	-0.216544	0.216583
C26	C	-0.014848	-0.187766	0.187902
O27	O	-0.039107	-0.163291	0.163514
C28	C	0.172824	-0.187751	0.187884
C29	C	0.196280	-0.216527	0.216560
C30	C	0.196276	-0.274076	0.273913
C31	C	0.243191	-0.274075	0.273906
C32	C	0.266651	-0.245299	0.245226
C33	C	0.243195	-0.216526	0.216553
C34	C	0.196286	-0.158971	0.159205
C35	C	0.243207	-0.158969	0.159204
C36	C	0.266663	-0.187745	0.187880
C37	C	0.313570	-0.187749	0.187865
N38	N	0.337029	-0.216520	0.216542
C39	C	0.313569	-0.245295	0.245222
C40	C	-0.113379	-0.187776	0.187912
C41	C	-0.160297	-0.187780	0.187916
C42	C	-0.160298	-0.245329	0.245275
C43	C	-0.113380	-0.245327	0.245269
C44	C	-0.089921	-0.216547	0.216589
C45	C	0.412095	-0.245290	0.245205
C46	C	0.459014	-0.245287	0.245194
C47	C	0.459012	-0.187736	0.187837
C48	C	0.412096	-0.187740	0.187846
C49	C	0.388639	-0.216519	0.216534
O50	O	0.337873	-0.163299	0.163477
O51	O	0.337836	-0.269759	0.269613
C52	C	0.125905	-0.245304	0.245247
C53	C	0.102449	-0.216531	0.216574
C54	C	0.125909	-0.187755	0.187893
C55	C	0.055531	-0.216535	0.216577
C56	C	0.032071	-0.245310	0.245258
C57	C	0.055529	-0.274082	0.273934
C58	C	0.102445	-0.274080	0.273927
C59	C	0.102451	-0.158984	0.159217
C60	C	0.055535	-0.158989	0.159226
C61	C	0.032075	-0.187764	0.187906
C62	C	0.677914	-0.692821	0.187866
C63	C	0.677969	-0.880494	0.187883
O64	O	0.702441	-0.904753	0.163493
N65	N	0.649224	-0.903970	0.216583
C66	C	0.620465	-0.880524	0.245283
O67	O	0.596020	-0.904798	0.269698
C68	C	0.620412	-0.692852	0.245268
C69	C	0.649156	-0.669379	0.216563
C70	C	0.706656	-0.669348	0.159164
C71	C	0.706640	-0.622433	0.159158
C72	C	0.677882	-0.598990	0.187854
C73	C	0.649140	-0.622463	0.216557
C74	C	0.591656	-0.669407	0.273969
C75	C	0.591646	-0.622486	0.273964
C76	C	0.620390	-0.599013	0.245259
C77	C	0.620367	-0.552106	0.245248
N78	N	0.649112	-0.528630	0.216548
C79	C	0.677869	-0.552072	0.187851
C80	C	0.620494	-0.979055	0.245289
C81	C	0.620507	-1.025973	0.245292
C82	C	0.678012	-1.025939	0.187893
C83	C	0.677996	-0.979021	0.187887
C84	C	0.649239	-0.955579	0.216589
C85	C	0.677834	-0.453547	0.187841
C86	C	0.677814	-0.406627	0.187836
C87	C	0.620311	-0.406664	0.245237
C88	C	0.620329	-0.453580	0.245240
C89	C	0.649094	-0.477020	0.216540
O90	O	0.595912	-0.527818	0.269629
O91	O	0.702318	-0.527791	0.163447
C92	C	0.677930	-0.739737	0.187872
C93	C	0.649188	-0.763210	0.216574
C94	C	0.620430	-0.739767	0.245271
C95	C	0.649200	-0.810128	0.216578
C96	C	0.677958	-0.833570	0.187881
C97	C	0.706703	-0.810094	0.159181
C98	C	0.706687	-0.763179	0.159175
C99	C	0.591685	-0.763243	0.273971
C100	C	0.591703	-0.810158	0.273974
C101	C	0.620461	-0.833601	0.245277
C102	C	0.766309	-0.216547	0.216582
C103	C	0.816244	-0.216555	0.216596
C104	C	0.649143	-0.216524	0.333728
C105	C	0.649148	-0.216522	0.383662
C106	C	0.649225	-0.099349	0.216582
C107	C	0.649265	-0.049415	0.216595
C108	C	0.649145	-0.216499	0.099827
C109	C	0.649227	-0.216374	0.049893
C110	C	0.677935	-0.187718	0.693325
C111	C	0.677957	-0.187680	0.880998
O112	O	0.702399	-0.163232	0.905279
N113	N	0.649208	-0.216402	0.904448
C114	C	0.620449	-0.245133	0.880976
O115	O	0.595993	-0.269559	0.905228
C116	C	0.620424	-0.245169	0.693304
C117	C	0.649179	-0.216448	0.669857
C118	C	0.706687	-0.158999	0.669877
C119	C	0.706683	-0.159011	0.622962
C120	C	0.677927	-0.187741	0.599494
C121	C	0.649175	-0.216460	0.622941
C122	C	0.591663	-0.273898	0.669833
C123	C	0.591659	-0.273903	0.622912
C124	C	0.620414	-0.245183	0.599465
C125	C	0.620415	-0.245202	0.552558
N126	N	0.649164	-0.216480	0.529108
C127	C	0.677920	-0.187749	0.552576
C128	C	0.620464	-0.245113	0.979507
C129	C	0.620471	-0.245105	1.026425
C130	C	0.677979	-0.187650	1.026443
C131	C	0.677974	-0.187661	0.979524
C132	C	0.649214	-0.216391	0.956057
C133	C	0.677910	-0.187776	0.454050
C134	C	0.677904	-0.187792	0.407130
C135	C	0.620395	-0.245244	0.407116
C136	C	0.620401	-0.245230	0.454032
C137	C	0.649161	-0.216493	0.477497
O138	O	0.595982	-0.269633	0.528248
O139	O	0.702366	-0.163320	0.528316
C140	C	0.677939	-0.187706	0.740240
C141	C	0.649187	-0.216425	0.763688
C142	C	0.620431	-0.245155	0.740219
C143	C	0.649194	-0.216417	0.810605
C144	C	0.677950	-0.187686	0.834074
C145	C	0.706699	-0.158964	0.810624
C146	C	0.706695	-0.158976	0.763708
C147	C	0.591682	-0.273877	0.763669
C148	C	0.591689	-0.273864	0.810585
C149	C	0.620445	-0.245133	0.834053
H150	H	0.478110	-0.268721	0.268545
C151	C	0.738291	-0.695129	0.127592
C152	C	0.718859	-0.727410	0.092298
C153	C	0.750494	-0.753187	0.060720
C154	C	0.801561	-0.746681	0.064437
C155	C	0.820995	-0.714398	0.099733
C156	C	0.789360	-0.688622	0.131310
H157	H	0.681054	-0.732228	0.089545
H158	H	0.736107	-0.777085	0.034592
H159	H	0.824979	-0.765762	0.041062
H160	H	0.858800	-0.709581	0.102486
H161	H	0.803747	-0.664723	0.157438
H162	H	0.730047	-0.603324	0.135785
H163	H	0.568274	-0.297256	0.829671
H164	H	0.393001	-0.268723	0.268566
H165	H	0.596925	-0.472692	0.268615
C166	C	0.709534	-0.156195	0.381339
C167	C	0.744789	-0.175673	0.349094
C168	C	0.776417	-0.144077	0.323304
C169	C	0.772790	-0.093004	0.329759
C170	C	0.737534	-0.073524	0.362005
C171	C	0.705906	-0.105119	0.387795
H172	H	0.747475	-0.213483	0.344315
H173	H	0.802516	-0.158498	0.299433
H174	H	0.796203	-0.069615	0.310668
H175	H	0.734848	-0.035714	0.366784
H176	H	0.679807	-0.090698	0.411666
C177	C	-0.087580	-0.156121	0.156354
C178	C	-0.094007	-0.105055	0.160105
C179	C	-0.068213	-0.073403	0.128543
C180	C	-0.035990	-0.092816	0.093231
C181	C	-0.029561	-0.143884	0.089479
C182	C	-0.055356	-0.175537	0.121040
H183	H	-0.117862	-0.090682	0.186247
H184	H	-0.072972	-0.035599	0.131321
H185	H	-0.016895	-0.069386	0.069867
H186	H	-0.005707	-0.158257	0.063337
H187	H	-0.050597	-0.213341	0.118263
H188	H	0.568248	-0.688511	0.297342
H189	H	-0.179390	-0.164352	0.164561
H190	H	0.262305	-0.135529	0.135852
C191	C	0.029718	-0.305734	0.305484
C192	C	0.036129	-0.356801	0.301727
C193	C	0.010315	-0.388450	0.333277
C194	C	-0.021911	-0.369031	0.368584
C195	C	-0.028324	-0.317962	0.372342
C196	C	-0.002509	-0.286313	0.340792
H197	H	0.059986	-0.371178	0.275590
H198	H	0.015063	-0.426255	0.330495
H199	H	-0.041020	-0.392459	0.391939
H200	H	-0.052180	-0.303585	0.398479
H201	H	-0.007257	-0.248508	0.343574
H202	H	0.597044	-0.268511	0.960404
C203	C	0.386288	-0.156086	0.156308
C204	C	0.392776	-0.105021	0.160075
C205	C	0.366970	-0.073361	0.128543
C206	C	0.334677	-0.092766	0.093243
C207	C	0.328189	-0.143834	0.089474
C208	C	0.353994	-0.175494	0.121006
H209	H	0.416682	-0.090654	0.186207
H210	H	0.371773	-0.035557	0.131333
H211	H	0.315574	-0.069330	0.069901
H212	H	0.304282	-0.158201	0.063342
H213	H	0.349191	-0.213298	0.118216
C214	C	0.588680	-0.380871	0.276803
C215	C	0.553417	-0.348653	0.257295
C216	C	0.521789	-0.322857	0.288863
C217	C	0.525425	-0.329279	0.339940
C218	C	0.560690	-0.361498	0.359450
C219	C	0.592318	-0.387294	0.327882
H220	H	0.550724	-0.343897	0.219482
H221	H	0.495684	-0.299006	0.274420
H222	H	0.502012	-0.310184	0.363309
H223	H	0.563383	-0.366254	0.397263
H224	H	0.618423	-0.411145	0.342325
C225	C	0.560010	-0.596701	0.305534
C226	C	0.508944	-0.603204	0.301814
C227	C	0.477307	-0.577419	0.333382
C228	C	0.496737	-0.545131	0.368672
C229	C	0.547807	-0.538627	0.372394
C230	C	0.579443	-0.564411	0.340825
H231	H	0.494558	-0.627107	0.275689
H232	H	0.439502	-0.582235	0.330627
H233	H	0.473318	-0.526044	0.392041
H234	H	0.562192	-0.514724	0.398519
H235	H	0.617248	-0.559596	0.343581
H236	H	0.121538	-0.297512	0.297278
C237	C	0.588775	-0.276831	0.479820
C238	C	0.553515	-0.257360	0.512062
C239	C	0.521884	-0.288960	0.537843
C240	C	0.525514	-0.340033	0.531381
C241	C	0.560776	-0.359507	0.499137
C242	C	0.592406	-0.327906	0.473356
H243	H	0.550826	-0.219550	0.516847
H244	H	0.495781	-0.274544	0.561712
H245	H	0.502099	-0.363425	0.550466
H246	H	0.563464	-0.397316	0.494353
H247	H	0.618509	-0.342323	0.449487
C248	C	0.588857	-0.953274	0.276861
C249	C	0.537790	-0.959779	0.273137
C250	C	0.506151	-0.934002	0.304709
C251	C	0.525578	-0.901720	0.340006
C252	C	0.576647	-0.895213	0.343731
C253	C	0.608286	-0.920990	0.312159
H254	H	0.523407	-0.983678	0.247007
H255	H	0.468347	-0.938818	0.301951
H256	H	0.502157	-0.882638	0.363377
H257	H	0.591030	-0.871315	0.369861
H258	H	0.646091	-0.916174	0.314918
H259	H	0.036441	-0.135556	0.135871
C260	C	0.738324	-0.127380	0.737921
C261	C	0.734696	-0.076307	0.744382
C262	C	0.766326	-0.044708	0.718599
C263	C	0.801583	-0.064181	0.686354
C264	C	0.805212	-0.115256	0.679891
C265	C	0.773582	-0.146856	0.705674
H266	H	0.708596	-0.061889	0.768253
H267	H	0.763640	-0.006898	0.723383
H268	H	0.824997	-0.040790	0.667267
H269	H	0.831312	-0.129674	0.656020
H270	H	0.776269	-0.184665	0.700890
C271	C	0.709547	-0.156167	0.479858
C272	C	0.690120	-0.120880	0.512108
C273	C	0.721759	-0.089274	0.537915
C274	C	0.772826	-0.092956	0.531472
C275	C	0.792256	-0.128245	0.499220
C276	C	0.760616	-0.159851	0.473413
H277	H	0.652314	-0.118153	0.516879
H278	H	0.707375	-0.063151	0.561790
H279	H	0.796247	-0.069559	0.550576
H280	H	0.830061	-0.130971	0.494449
H281	H	0.775000	-0.185974	0.449538
H282	H	0.596984	-0.268637	0.388000
H283	H	0.478121	-0.164309	0.164485
H284	H	0.701388	-0.164274	0.960437
H285	H	0.597061	-0.268497	1.045512
C286	C	0.560047	-0.737462	0.305538
C287	C	0.524776	-0.705253	0.286029
C288	C	0.493132	-0.679475	0.317597
C289	C	0.496760	-0.685906	0.368673
C290	C	0.532033	-0.718117	0.388184
C291	C	0.563676	-0.743895	0.356616
H292	H	0.522089	-0.700490	0.248217
H293	H	0.467021	-0.655630	0.303153
H294	H	0.473336	-0.666823	0.392041
H295	H	0.534719	-0.722879	0.425996
H296	H	0.589787	-0.767739	0.371060
C297	C	0.738338	-0.835887	0.127615
C298	C	0.718905	-0.868179	0.092330
C299	C	0.750540	-0.893974	0.060769
C300	C	0.801608	-0.887477	0.064491
C301	C	0.821043	-0.855184	0.099777
C302	C	0.789408	-0.829389	0.131339
H303	H	0.681100	-0.872989	0.089573
H304	H	0.736153	-0.917880	0.034647
H305	H	0.825026	-0.906572	0.041127
H306	H	0.858848	-0.850373	0.102534
H307	H	0.803796	-0.805483	0.157460
H308	H	0.701402	-0.959912	0.164514
C309	C	0.709472	-0.479326	0.156269
C310	C	0.690041	-0.511613	0.120979
C311	C	0.721676	-0.537392	0.089405
C312	C	0.772743	-0.530886	0.093121
C313	C	0.792177	-0.498598	0.128413
C314	C	0.760541	-0.472818	0.159987
H315	H	0.652236	-0.516430	0.118226
H316	H	0.707290	-0.561294	0.063279
H317	H	0.796162	-0.549970	0.069749
H318	H	0.829982	-0.493780	0.131166
H319	H	0.774928	-0.448917	0.186113
C320	C	0.709609	-0.156044	1.052264
C321	C	0.709610	-0.156037	1.103871
C322	C	0.741236	-0.124430	1.129694
C323	C	0.772860	-0.092830	1.103909
C324	C	0.772860	-0.092837	1.052298
C325	C	0.741235	-0.124444	1.026476
H326	H	0.686199	-0.179429	1.122962
H327	H	0.741236	-0.124425	1.167900
H328	H	0.796271	-0.069433	1.123025
H329	H	0.796272	-0.069444	1.033208
H330	H	0.741235	-0.124448	0.988270
C331	C	0.560017	-0.305482	0.695610
C332	C	0.563618	-0.356557	0.689149
C333	C	0.531963	-0.388139	0.714922
C334	C	0.496706	-0.368646	0.747156
C335	C	0.493103	-0.317569	0.753618
C336	C	0.524759	-0.285987	0.727845
H337	H	0.589719	-0.370988	0.665287
H338	H	0.534630	-0.425949	0.710138
H339	H	0.473272	-0.392025	0.766234
H340	H	0.467002	-0.303137	0.777481
H341	H	0.522091	-0.248176	0.732629
H342	H	0.177197	-0.135539	0.135854
H343	H	0.121547	-0.135551	0.135861
H344	H	0.730097	-0.135623	0.603875
C345	C	0.709435	-0.380808	0.156260
C346	C	0.705809	-0.387288	0.105185
C347	C	0.737430	-0.361471	0.073611
C348	C	0.772677	-0.329173	0.093111
C349	C	0.776305	-0.322692	0.144188
C350	C	0.744684	-0.348509	0.175762
H351	H	0.679716	-0.411197	0.090748
H352	H	0.734745	-0.366269	0.035800
H353	H	0.796085	-0.310062	0.069737
H354	H	0.802398	-0.298782	0.158625
H355	H	0.747370	-0.343711	0.213573
H356	H	0.597097	-1.045080	0.268662
C357	C	0.738331	-0.127360	0.836445
C358	C	0.773585	-0.146826	0.868712
C359	C	0.805212	-0.115221	0.894535
C360	C	0.801585	-0.064150	0.888092
C361	C	0.766329	-0.044681	0.855823
C362	C	0.734702	-0.076286	0.830000
H363	H	0.776272	-0.184634	0.873483
H364	H	0.831311	-0.129634	0.918422
H365	H	0.824997	-0.040754	0.907208
H366	H	0.763643	-0.006873	0.851052
H367	H	0.708603	-0.061873	0.806113
H368	H	0.701427	-1.045034	0.164527
H369	H	0.262285	-0.297506	0.297258
H370	H	0.177180	-0.297509	0.297271
H371	H	-0.094285	-0.268759	0.268619
H372	H	-0.179407	-0.268759	0.268628
H373	H	0.730093	-0.744071	0.135801
H374	H	0.568233	-0.297294	0.603808
H375	H	0.568292	-0.829266	0.297349
H376	H	0.730104	-0.135601	0.688980
H377	H	0.568265	-0.297274	0.744566
