data_functionalizedCrystal
_audit_creation_method	'MofGen! by Chris Wilmer'
_symmetry_space_group_name_H-M	'P1'
_symmetry_Int_Tables_number	1
_symmetry_cell_setting	triclinic
loop_
_symmetry_equiv_pos_as_xyz
  x,y,z
_cell_length_a	12.645330
_cell_length_b	12.759395
_cell_length_c	12.759387
_cell_angle_alpha	89.980763
_cell_angle_beta	90.029086
_cell_angle_gamma	89.984831
loop_
_atom_site_label
_atom_site_type_symbol
_atom_site_fract_x
_atom_site_fract_y
_atom_site_fract_z
Zn1	Zn	-0.422058	-1.606232	0.594020
Zn2	Zn	-0.599359	-1.606118	0.418344
Zn3	Zn	-0.422102	-1.430535	0.418356
Zn4	Zn	-0.599272	-1.430513	0.593983
O5	O	-0.510698	-1.518349	0.506176
O6	O	-0.445596	-1.753238	0.570727
O7	O	-0.575901	-1.582787	0.271325
O8	O	-0.273749	-1.453898	0.441679
O9	O	-0.575858	-1.753154	0.441659
O10	O	-0.273717	-1.582982	0.570738
O11	O	-0.445671	-1.453787	0.271333
O12	O	-0.445587	-1.283511	0.441643
O13	O	-0.575710	-1.453862	0.741009
O14	O	-0.575752	-1.283495	0.570675
O15	O	-0.445511	-1.582961	0.741036
O16	O	-0.747695	-1.582767	0.441623
O17	O	-0.747631	-1.453751	0.570664
C18	C	-0.510666	-1.245382	0.506157
C19	C	-0.510677	-1.128605	0.506174
C20	C	-0.375254	-1.128673	0.640789
C21	C	-0.307554	-1.073846	0.708104
C22	C	-0.307568	-0.964125	0.708115
C23	C	-0.375288	-0.909227	0.640801
C24	C	-0.442989	-0.964054	0.573486
C25	C	-0.442969	-1.073778	0.573485
C26	C	-0.578405	-0.963986	0.438867
C27	C	-0.578398	-1.073708	0.438860
C28	C	-0.646125	-0.909089	0.371553
C29	C	-0.713833	-0.963916	0.304242
C30	C	-0.713817	-1.073644	0.304235
C31	C	-0.646098	-1.128535	0.371545
C32	C	-0.786128	-1.518273	0.506161
C33	C	-0.903958	-1.518336	0.506190
C34	C	-1.071526	-1.437507	0.587620
C35	C	-0.948966	-1.437093	0.587358
C36	C	-0.948559	-1.488363	0.395468
C37	C	-1.071157	-1.487870	0.395962
C38	C	-1.071050	-1.629633	0.534584
C39	C	-0.948443	-1.628951	0.537005
C40	C	-0.234193	-1.518455	0.506214
C41	C	-0.116363	-1.518500	0.506230
C42	C	-0.510596	-1.518422	0.780209
C43	C	-0.510552	-1.518453	0.896986
C44	C	-0.510721	-0.792383	0.506190
C45	C	-0.510704	-0.909159	0.506182
C46	C	-0.510724	-1.518338	0.233208
C47	C	-0.510468	-1.518510	0.116432
C48	C	-0.374902	-1.652951	1.116458
C49	C	-0.307134	-1.720153	1.061610
C50	C	-0.307170	-1.720123	0.951888
C51	C	-0.374982	-1.652887	0.897012
C52	C	-0.442749	-1.585685	0.951860
C53	C	-0.442705	-1.585719	1.061584
C54	C	-0.578320	-1.451251	0.951834
C55	C	-0.578281	-1.451273	1.061556
C56	C	-0.646132	-1.384014	0.896958
C57	C	-0.713896	-1.316805	0.951806
C58	C	-0.713857	-1.316837	1.061534
C59	C	-0.646048	-1.384071	1.116404
H60	H	-0.768961	-0.919210	0.249436
H61	H	-0.375014	-1.652877	0.807671
F62	F	-1.108660	-1.381685	0.364566
H63	H	-0.768943	-1.118277	0.249415
F64	F	-1.109964	-1.461788	0.695285
F65	F	-0.785991	-1.245314	1.119899
F66	F	-0.786063	-1.245259	0.893398
F67	F	-0.375245	-1.245449	0.640795
H68	H	-0.252415	-1.118556	0.762908
F69	F	-0.646173	-1.383988	0.780182
F70	F	-1.111931	-1.330494	0.563399
F71	F	-0.645996	-1.384105	1.233180
F72	F	-0.235508	-0.905773	0.779753
F73	F	-0.375288	-0.792452	0.640805
F74	F	-0.910336	-1.658498	0.643513
H75	H	-0.646073	-1.217876	0.371541
H76	H	-0.646129	-0.819748	0.371564
H77	H	-1.101889	-1.656975	0.613950
H78	H	-0.919729	-1.354705	0.568573
F79	F	-0.910459	-1.563023	0.314036
H80	H	-1.100822	-1.544302	0.333252
H81	H	-0.917946	-1.407971	0.371013
F82	F	-0.908383	-1.711983	0.465170
F83	F	-0.909543	-1.461602	0.694669
H84	H	-0.374853	-1.652968	1.205799
H85	H	-1.100045	-1.689974	0.475304
H86	H	-0.251925	-1.774898	1.106302
F87	F	-0.235050	-1.791652	0.893513
