data_functionalizedCrystal
_audit_creation_method	'MofGen! by Chris Wilmer'
_symmetry_space_group_name_H-M	'P1'
_symmetry_Int_Tables_number	1
_symmetry_cell_setting	triclinic
loop_
_symmetry_equiv_pos_as_xyz
  x,y,z
_cell_length_a	12.594516
_cell_length_b	17.640112
_cell_length_c	17.640968
_cell_angle_alpha	87.860920
_cell_angle_beta	78.772174
_cell_angle_gamma	78.759918
loop_
_atom_site_label
_atom_site_type_symbol
_atom_site_fract_x
_atom_site_fract_y
_atom_site_fract_z
Zn1	Zn	-0.030581	-1.247781	-0.195081
Zn2	Zn	-0.250168	-1.222032	-0.068109
Zn3	Zn	-0.099815	-1.095120	-0.093731
Zn4	Zn	-0.236158	-1.120772	-0.220690
O5	O	-0.154181	-1.171426	-0.144403
O6	O	-0.036598	-1.350633	-0.156798
O7	O	-0.265062	-1.183686	0.034764
O8	O	0.058327	-1.115411	-0.107180
O9	O	-0.197928	-1.331715	-0.063512
O10	O	0.109193	-1.227571	-0.181642
O11	O	-0.154598	-1.090444	0.015940
O12	O	-0.141013	-0.992255	-0.132012
O13	O	-0.174050	-1.159131	-0.323565
O14	O	-0.241184	-1.011102	-0.225289
O15	O	-0.023013	-1.252445	-0.304750
O16	O	-0.397268	-1.208559	-0.088344
O17	O	-0.386975	-1.134164	-0.200445
C18	C	-0.197091	-0.974125	-0.184210
C19	C	-0.215468	-0.889722	-0.201258
C20	C	-0.430735	-1.171375	-0.144405
C21	C	-0.549023	-1.171428	-0.144418
C22	C	-0.089246	-1.211522	-0.342483
C23	C	-0.061575	-1.228608	-0.426893
C24	C	-0.612729	-1.130952	-0.205355
C25	C	-0.710300	-1.098441	-0.139790
C26	C	-0.662232	-1.204011	-0.209981
C27	C	-0.645055	-1.138872	-0.078824
C28	C	-0.596959	-1.244484	-0.149055
C29	C	-0.694508	-1.211989	-0.083437
C30	C	0.123463	-1.171502	-0.144413
C31	C	0.241779	-1.171534	-0.144417
C32	C	-0.111103	-1.369498	-0.104440
C33	C	-0.092746	-1.453905	-0.087411
C34	C	-0.014551	-0.563040	-0.014899
C35	C	-0.031838	-0.483733	-0.030928
C36	C	-0.136388	-0.503379	-0.127890
C37	C	-0.119106	-0.582690	-0.111871
C38	C	-0.058188	-0.612514	-0.055374
C39	C	-0.162742	-0.632163	-0.152347
C40	C	-0.145466	-0.711466	-0.136326
C41	C	-0.084554	-0.741296	-0.079830
C42	C	-0.040912	-0.691817	-0.039354
C43	C	-0.223666	-0.602336	-0.208839
C44	C	-0.267303	-0.651810	-0.249315
C45	C	-0.250020	-0.731115	-0.233299
C46	C	-0.189108	-0.760946	-0.176803
C47	C	-0.293662	-0.780595	-0.273775
C48	C	-0.276386	-0.859898	-0.257755
C49	C	-0.171832	-0.840249	-0.160783
C50	C	-0.363754	-1.041915	-0.753480
C51	C	-0.337736	-1.057987	-0.832792
C52	C	-0.180474	-1.155145	-0.813192
C53	C	-0.206477	-1.139080	-0.733876
C54	C	-0.298118	-1.082465	-0.704027
C55	C	-0.140841	-1.179629	-0.684423
C56	C	-0.166845	-1.163567	-0.605114
C57	C	-0.258484	-1.106956	-0.575258
C58	C	-0.324122	-1.066403	-0.624718
C59	C	-0.049204	-1.236247	-0.714274
C60	C	0.016432	-1.276797	-0.664821
C61	C	-0.009567	-1.260731	-0.585511
C62	C	-0.101207	-1.204120	-0.555655
C63	C	0.056071	-1.301285	-0.536051
C64	C	0.030067	-1.285223	-0.456742
C65	C	-0.127210	-1.188059	-0.476346
C66	C	-0.218777	-1.131531	0.052915
C67	C	-0.246116	-1.114592	0.137354
H68	H	-0.577032	-1.096633	-0.256840
H69	H	-0.759408	-1.036709	-0.135873
C70	C	-0.242668	-0.515099	-0.226461
N71	N	-0.256978	-0.449392	-0.239734
H72	H	-0.105862	-1.201243	-0.837506
H73	H	-0.316906	-0.627515	-0.295312
H74	H	-0.122207	-0.864535	-0.114788
H75	H	-0.636769	-1.111287	-0.023376
C76	C	0.026106	-0.724628	0.022793
N77	N	0.076580	-0.749342	0.069601
C78	C	-0.530586	-1.327867	-0.154403
N79	N	-0.480583	-1.390672	-0.158443
C80	C	0.117243	-1.339065	-0.697666
N81	N	0.193180	-1.385962	-0.722405
C82	C	-0.360677	-0.747776	-0.335916
N83	N	-0.411152	-0.723057	-0.382721
C84	C	0.052467	-0.595852	0.047248
N85	N	0.102940	-0.620565	0.094056
C86	C	0.016173	-0.429314	0.013602
N87	N	0.052332	-0.388326	0.047143
C88	C	-0.065547	-0.828534	-0.062210
N89	N	-0.051228	-0.894241	-0.048939
H90	H	-0.279658	-1.093883	-0.510678
C91	C	-0.673626	-1.241182	-0.284885
N92	N	-0.682204	-1.269174	-0.341305
C93	C	-0.324383	-0.914322	-0.302284
N94	N	-0.360536	-0.955315	-0.335823
H95	H	-0.185991	-0.479084	-0.173887
H96	H	-0.201813	-1.141939	-0.452045
H97	H	-0.398725	-1.020283	-0.600417
H98	H	-0.730048	-1.246254	-0.031854
C99	C	-0.464564	-0.979635	-0.720641
N100	N	-0.540494	-0.932729	-0.695906
H101	H	-0.391191	-1.024962	-0.873056
H102	H	0.130679	-1.347386	-0.560366
C103	C	-0.020600	-1.253913	-0.801517
N104	N	0.000944	-1.267217	-0.867229
C105	C	0.102272	-1.329828	-0.402341
N106	N	0.156656	-1.363427	-0.361366
