data_functionalizedCrystal
_audit_creation_method	'MofGen! by Chris Wilmer'
_symmetry_space_group_name_H-M	'P1'
_symmetry_Int_Tables_number	1
_symmetry_cell_setting	triclinic
loop_
_symmetry_equiv_pos_as_xyz
  x,y,z
_cell_length_a	12.594516
_cell_length_b	12.759401
_cell_length_c	12.759393
_cell_angle_alpha	89.979213
_cell_angle_beta	89.971950
_cell_angle_gamma	90.016535
loop_
_atom_site_label
_atom_site_type_symbol
_atom_site_fract_x
_atom_site_fract_y
_atom_site_fract_z
Zn1	Zn	-0.423677	1.606256	-0.594034
Zn2	Zn	-0.601693	1.606143	-0.418361
Zn3	Zn	-0.423730	1.430555	-0.418369
Zn4	Zn	-0.601615	1.430543	-0.593999
O5	O	-0.512679	1.518375	-0.506191
O6	O	-0.447301	1.753263	-0.570742
O7	O	-0.578141	1.582809	-0.271341
O8	O	-0.274777	1.453915	-0.441690
O9	O	-0.578089	1.753179	-0.441676
O10	O	-0.274738	1.583002	-0.570749
O11	O	-0.447392	1.453805	-0.271347
O12	O	-0.447317	1.283533	-0.441656
O13	O	-0.577957	1.453894	-0.741025
O14	O	-0.578008	1.283524	-0.570690
O15	O	-0.447226	1.582990	-0.741050
O16	O	-0.750628	1.582797	-0.441642
O17	O	-0.750571	1.453784	-0.570682
C18	C	-0.512661	1.245407	-0.506171
C19	C	-0.512679	1.128631	-0.506187
C20	C	-0.580687	0.963996	-0.438912
C21	C	-0.580671	1.073720	-0.438892
C22	C	-0.444690	1.073811	-0.573499
C23	C	-0.444701	0.964089	-0.573513
C24	C	-0.618535	1.223603	-0.314904
C25	C	-0.686533	1.278419	-0.247605
C26	C	-0.790374	1.242781	-0.231306
C27	C	-0.826237	1.152329	-0.282322
C28	C	-0.758245	1.097519	-0.349630
C29	C	-0.654390	1.133155	-0.365908
C30	C	-0.406848	0.814204	-0.697501
C31	C	-0.338860	0.759392	-0.764815
C32	C	-0.235018	0.795028	-0.781124
C33	C	-0.199158	0.885484	-0.730127
C34	C	-0.267146	0.940295	-0.662813
C35	C	-0.370987	0.904652	-0.646502
C36	C	-0.789220	1.518306	-0.506181
C37	C	-0.907525	1.518372	-0.506211
C38	C	-0.976786	1.448195	-0.576347
C39	C	-1.047655	1.422594	-0.480480
C40	C	-1.047455	1.544069	-0.602095
C41	C	-0.976836	1.492721	-0.410293
C42	C	-0.976630	1.614240	-0.531973
C43	C	-1.047467	1.588675	-0.436040
C44	C	-0.235058	1.518472	-0.506224
C45	C	-0.116753	1.518514	-0.506238
C46	C	-0.512577	1.518453	-0.780224
C47	C	-0.512533	1.518487	-0.897001
C48	C	-0.512698	1.792408	-0.506212
C49	C	-0.512706	1.909184	-0.506221
C50	C	-0.444451	1.585712	-0.951878
C51	C	-0.444405	1.585730	-1.061602
C52	C	-0.580533	1.451294	-1.061563
C53	C	-0.580573	1.451272	-0.951841
C54	C	-0.318826	1.623345	-1.211575
C55	C	-0.250753	1.690586	-1.266455
C56	C	-0.234434	1.793100	-1.230863
C57	C	-0.286203	1.828392	-1.140392
C58	C	-0.354283	1.761156	-1.085517
C59	C	-0.370583	1.658628	-1.121108
C60	C	-0.706153	1.413668	-0.801866
C61	C	-0.774240	1.346436	-0.746989
C62	C	-0.790570	1.243921	-0.782579
C63	C	-0.738820	1.208632	-0.873054
C64	C	-0.670733	1.275864	-0.927931
C65	C	-0.654401	1.378378	-0.892333
C66	C	-0.512704	1.518357	-0.233223
C67	C	-0.512448	1.518527	-0.116447
H68	H	-0.657332	1.352080	-0.206089
C69	C	-0.934434	1.723644	-0.561452
N70	N	-0.902644	1.806045	-0.583669
H71	H	-0.945750	1.388743	-0.635572
C72	C	-0.756782	1.095860	-0.912206
N73	N	-0.770315	1.010917	-0.941693
C74	C	-0.865474	1.169969	-0.722211
N75	N	-0.921888	1.114267	-0.676743
H76	H	-0.238020	1.014087	-0.621480
C77	C	-0.831171	1.385260	-0.647467
N78	N	-0.874050	1.414502	-0.572507
C79	C	-1.089363	1.573356	-0.711625
N80	N	-1.120923	1.595407	-0.794126
C81	C	-1.089801	1.313151	-0.451050
N82	N	-1.121543	1.230716	-0.428891
H83	H	-0.910800	1.123327	-0.269056
H84	H	-0.692854	1.497142	-0.772874
H85	H	-0.845738	1.287420	-0.176509
H86	H	-0.272917	1.911872	-1.111425
H87	H	-0.389046	1.640440	-0.907231
C88	C	-0.504290	1.262788	-0.332792
N89	N	-0.418235	1.292301	-0.346257
C90	C	-0.411221	1.799969	-0.986000
N91	N	-0.454100	1.829204	-0.911037
C92	C	-0.084925	0.924686	-0.748066
N93	N	0.001117	0.954211	-0.761581
H94	H	-0.389325	1.118528	-0.628287
H95	H	-0.179667	0.750395	-0.835945
H96	H	-0.368069	0.685742	-0.806345
C97	C	-0.159545	1.867060	-1.291232
N98	N	-0.103132	1.922761	-1.336702
C99	C	-0.521083	0.774998	-0.679567
N100	N	-0.607126	0.745469	-0.666066
H101	H	-0.636060	0.919296	-0.384117
H102	H	-0.945943	1.470950	-0.329195
C103	C	-1.089139	1.668928	-0.355837
N104	N	-1.120530	1.729369	-0.295426
H105	H	-0.332099	1.539868	-1.240558
H106	H	-0.208603	1.661842	-1.340118
H107	H	-0.787445	1.023876	-0.391168
C108	C	-0.613801	1.237040	-1.027453
N109	N	-0.570919	1.207798	-1.102411
H110	H	-0.635930	1.396572	-1.106226
