data_functionalizedCrystal
_audit_creation_method	'MofGen! by Chris Wilmer'
_symmetry_space_group_name_H-M	'P1'
_symmetry_Int_Tables_number	1
_symmetry_cell_setting	triclinic
loop_
_symmetry_equiv_pos_as_xyz
  x,y,z
_cell_length_a	16.992694
_cell_length_b	11.295483
_cell_length_c	16.974813
_cell_angle_alpha	89.552613
_cell_angle_beta	87.024634
_cell_angle_gamma	94.379711
loop_
_atom_site_label
_atom_site_type_symbol
_atom_site_fract_x
_atom_site_fract_y
_atom_site_fract_z
O1	O	1.046322	0.114472	0.161880
O2	O	0.818031	0.114330	0.160048
O3	O	0.937953	0.103395	0.046817
O4	O	0.926401	0.125407	0.275111
O5	O	0.927420	-0.093697	0.056746
O6	O	0.807498	-0.082762	0.169977
O7	O	1.035789	-0.082620	0.171809
Cu8	Cu	0.920682	-0.100687	0.171799
Cu9	Cu	0.933139	0.132397	0.160057
O10	O	0.915868	-0.071684	0.285040
C11	C	0.783543	0.015562	0.162657
C12	C	0.696471	0.014898	0.155631
N13	N	0.911927	-0.264626	0.180058
C14	C	0.646506	0.021433	0.223418
C15	C	0.564692	0.020780	0.216813
C16	C	0.532844	0.013600	0.142420
C17	C	0.582816	0.007061	0.074629
C18	C	0.664628	0.007706	0.081235
C19	C	0.289134	0.010928	0.115040
C20	C	0.207315	0.010287	0.108439
C21	C	0.189197	0.024004	0.250623
C22	C	0.271012	0.024656	0.257223
C23	C	0.320976	0.018110	0.189432
N24	N	0.449217	0.012936	0.135667
N25	N	0.404601	0.018766	0.196186
C26	C	1.004928	-0.522391	0.092298
C27	C	0.998317	-0.646451	0.098546
C28	C	0.892090	-0.636809	0.198795
C29	C	0.898701	-0.512749	0.192548
C30	C	0.955123	-0.455544	0.139299
C31	C	0.961737	-0.331481	0.133056
C32	C	0.855507	-0.321842	0.233301
C33	C	0.848896	-0.445902	0.239548
C34	C	1.070278	0.016151	0.169199
C35	C	1.157350	0.016822	0.176225
C36	C	0.932052	0.002022	0.022435
C37	C	0.930150	-0.006401	-0.065009
N38	N	0.941900	0.296335	0.151793
C39	C	0.934999	0.097076	-0.111498
C40	C	0.933207	0.089158	-0.193660
C41	C	0.926571	-0.022238	-0.229333
C42	C	0.921718	-0.125723	-0.182837
C43	C	0.923505	-0.117804	-0.100676
C44	C	0.920606	-0.057443	-0.474478
C45	C	0.918822	-0.065355	-0.556646
C46	C	0.930310	0.149527	-0.567463
C47	C	0.932101	0.157436	-0.485300
C48	C	0.927244	0.053952	-0.438812
N49	N	0.924741	-0.030335	-0.313316
N50	N	0.929068	0.062049	-0.354829
C51	C	0.921769	0.029691	0.309422
C52	C	0.923672	0.038122	0.396865
H53	H	0.672429	0.027281	0.283996
N54	N	0.510767	0.027809	0.289902
H55	H	0.472534	-0.045230	0.293982
H56	H	0.543379	0.032497	0.338012
N57	N	0.305356	0.032379	0.337463
H58	H	0.364766	0.031796	0.331361
H59	H	0.290997	0.108322	0.363674
H60	H	0.329805	0.005597	0.059839
N61	N	1.052041	-0.718548	0.047858
H62	H	1.084142	-0.766901	0.082724
H63	H	1.019137	-0.773501	0.013718
N64	N	0.135304	0.031022	0.323737
H65	H	0.167894	0.035660	0.371866
H66	H	0.104853	0.104111	0.320425
H67	H	0.556878	0.001198	0.014058
N68	N	0.718516	0.000660	0.008119
H69	H	0.756764	0.073680	0.004007
H70	H	0.748911	-0.072487	0.011418
H71	H	0.181389	0.004441	0.047856
H72	H	1.007680	-0.284906	0.089700
H73	H	0.934262	0.233778	-0.605322
N74	N	0.831231	-0.698520	0.256213
H75	H	0.834600	-0.787255	0.253033
H76	H	0.841667	-0.671410	0.311518
H77	H	0.814955	-0.267401	0.271574
N78	N	1.065786	-0.460680	0.034879
H79	H	1.096338	-0.521854	0.006054
H80	H	1.038366	-0.412747	-0.004404
N81	N	0.788041	-0.507605	0.296974
H82	H	0.791408	-0.596341	0.293800
H83	H	0.798485	-0.480485	0.352275
H84	H	0.940408	0.187786	-0.082460
N85	N	0.938551	0.200763	-0.243811
H86	H	0.943069	0.272532	-0.208748
H87	H	0.986654	0.201708	-0.281411
N88	N	0.911666	-0.185509	-0.595124
H89	H	0.908860	-0.249865	-0.553207
H90	H	0.862114	-0.193139	-0.625659
H91	H	0.937506	0.248146	-0.456262
N92	N	0.915377	-0.169054	-0.424344
H93	H	0.910909	-0.240820	-0.459412
H94	H	0.964434	-0.170771	-0.393343
N95	N	0.914568	-0.245874	-0.221308
H96	H	0.914179	-0.235192	-0.280412
H97	H	0.960941	-0.291720	-0.207900
H98	H	0.919545	-0.202066	-0.062824
