data_functionalizedCrystal
_audit_creation_method	'MofGen! by Chris Wilmer'
_symmetry_space_group_name_H-M	'P1'
_symmetry_Int_Tables_number	1
_symmetry_cell_setting	triclinic
loop_
_symmetry_equiv_pos_as_xyz
  x,y,z
_cell_length_a	19.077105
_cell_length_b	21.295417
_cell_length_c	19.076919
_cell_angle_alpha	92.266620
_cell_angle_beta	90.076224
_cell_angle_gamma	87.726672
loop_
_atom_site_label
_atom_site_type_symbol
_atom_site_fract_x
_atom_site_fract_y
_atom_site_fract_z
Zn1	Zn	1.058236	-0.304534	-0.440387
Zn2	Zn	1.062864	-0.405747	-0.322870
Zn3	Zn	0.945454	-0.296102	-0.318181
Zn4	Zn	0.940686	-0.405368	-0.435623
O5	O	1.001810	-0.352938	-0.379265
O6	O	1.157181	-0.321649	-0.428754
O7	O	1.051222	-0.387832	-0.223917
O8	O	0.960474	-0.209134	-0.334424
O9	O	1.160581	-0.396009	-0.342415
O10	O	1.043334	-0.215330	-0.424208
O11	O	0.964962	-0.307276	-0.220472
O12	O	0.846490	-0.306908	-0.329804
O13	O	0.952346	-0.395362	-0.534586
O14	O	0.842987	-0.387185	-0.416088
O15	O	1.038710	-0.321280	-0.538086
O16	O	1.046598	-0.493783	-0.337795
O17	O	0.956834	-0.493504	-0.420634
C18	C	0.819242	-0.346091	-0.371921
C19	C	0.741139	-0.343178	-0.368795
C20	C	0.702642	-0.383663	-0.412179
C21	C	0.629255	-0.380918	-0.409246
C22	C	0.594366	-0.337689	-0.362924
C23	C	0.632868	-0.297199	-0.319538
C24	C	0.706253	-0.299942	-0.322476
C25	C	0.375080	-0.324994	-0.349333
C26	C	0.301690	-0.322256	-0.346397
C27	C	0.298082	-0.405974	-0.436106
C28	C	0.371470	-0.408715	-0.439037
C29	C	0.409965	-0.368223	-0.395653
N30	N	0.519353	-0.334883	-0.359923
N31	N	0.484976	-0.371027	-0.398658
C32	C	1.001719	-0.516485	-0.379223
C33	C	1.001744	-0.586454	-0.379231
C34	C	1.048522	-0.619448	-0.336144
C35	C	1.048554	-0.685192	-0.336161
C36	C	1.001796	-0.717939	-0.379257
C37	C	0.955015	-0.684937	-0.422352
C38	C	0.954989	-0.619195	-0.422339
N39	N	0.940111	-0.819089	-0.382141
N40	N	0.940138	-0.881541	-0.382149
C41	C	1.001873	-0.916018	-0.379300
N42	N	1.063583	-0.885683	-0.376429
N43	N	1.063555	-0.823224	-0.376417
C44	C	1.001820	-0.789226	-0.379276
C45	C	1.048690	-1.020300	-0.336230
C46	C	1.048724	-1.086046	-0.336252
C47	C	0.955178	-1.085789	-0.422439
C48	C	0.955151	-1.020045	-0.422421
C49	C	1.001906	-0.987304	-0.379313
C50	C	1.185090	-0.359812	-0.386639
C51	C	1.263193	-0.362741	-0.389782
C52	C	0.994480	-0.359220	-0.562545
C53	C	0.991356	-0.361897	-0.640648
C54	C	1.001919	-0.188754	-0.379324
C55	C	1.001966	-0.118788	-0.379349
C56	C	1.034851	-0.324586	-0.679164
C57	C	1.031907	-0.327098	-0.752550
C58	C	0.985472	-0.366925	-0.787418
C59	C	0.941972	-0.404238	-0.748896
C60	C	0.944913	-0.401722	-0.675512
C61	C	0.971853	-0.378584	-1.006698
C62	C	0.968917	-0.381099	-1.080087
C63	C	1.058852	-0.303958	-1.083736
C64	C	1.061791	-0.301448	-1.010350
C65	C	1.018289	-0.338758	-0.971835
N66	N	0.982464	-0.369496	-0.862429
N67	N	1.021294	-0.336183	-0.896824
C68	C	1.009152	-0.346637	-0.196700
C69	C	1.012412	-0.343787	-0.118604
H70	H	0.597915	-0.413886	-0.444573
C71	C	0.822059	-0.431209	-0.766687
C72	C	0.890928	-0.448017	-0.787221
H73	H	0.790548	-0.458236	-0.790350
H74	H	0.817589	-0.435051	-0.717475
H75	H	0.811331	-0.388941	-0.778321
H76	H	0.901658	-0.490283	-0.775582
H77	H	0.895400	-0.444180	-0.836443
C78	C	1.143406	-0.548651	-0.330244
C79	C	1.099918	-0.583457	-0.288767
H80	H	1.175133	-0.526427	-0.300995
H81	H	1.169044	-0.576320	-0.361958
H82	H	1.115533	-0.519592	-0.355901
H83	H	1.127791	-0.612519	-0.263114
H84	H	1.074278	-0.555785	-0.257041
H85	H	1.086764	-0.993641	-0.301131
C86	C	1.121108	-0.250606	-0.748785
C87	C	1.079724	-0.286089	-0.794887
H88	H	1.150632	-0.225291	-0.774924
H89	H	1.091659	-0.224397	-0.718940
H90	H	1.149110	-0.278069	-0.721235
H91	H	1.051718	-0.258626	-0.822434
H92	H	1.109176	-0.312300	-0.824745
C93	C	0.913415	-0.518304	-0.460586
C94	C	0.903565	-0.582923	-0.469701
H95	H	0.881669	-0.495912	-0.489829
H96	H	0.905050	-0.505562	-0.412956
H97	H	0.960205	-0.509614	-0.472805
H98	H	0.856776	-0.591613	-0.457477
H99	H	0.911924	-0.595669	-0.517341
C100	C	0.882648	-0.455072	-1.010472
C101	C	0.924027	-0.419586	-0.964367
H102	H	0.853120	-0.480385	-0.984335
H103	H	0.854657	-0.427615	-1.038029
H104	H	0.912106	-0.481288	-1.040312
H105	H	0.894568	-0.393366	-0.934530
H106	H	0.952020	-0.447046	-0.936799
H107	H	0.731044	-0.418867	-0.449897
C108	C	0.916106	-1.108795	-0.540019
C109	C	0.903782	-1.121777	-0.469815
H110	H	0.884379	-1.131018	-0.569268
H111	H	0.909392	-1.064923	-0.546170
H112	H	0.962904	-1.121650	-0.552233
H113	H	0.856985	-1.108917	-0.457599
H114	H	0.910490	-1.165658	-0.463660
H115	H	1.086820	-1.112908	-0.301168
H116	H	0.909487	-0.432098	-0.644152
C117	C	0.733603	-0.265889	-0.204456
C118	C	0.748575	-0.255445	-0.274783
H119	H	0.759735	-0.238419	-0.175014
H120	H	0.684911	-0.258065	-0.196080
H121	H	0.746022	-0.308266	-0.194576
H122	H	0.736151	-0.213069	-0.284663
H123	H	0.797277	-0.263264	-0.283162
H124	H	0.399871	-0.443918	-0.476755
H125	H	0.917057	-0.993179	-0.457503
C126	C	1.074874	-0.214288	-0.928279
C127	C	1.112814	-0.257639	-0.972039
H128	H	1.106371	-0.187238	-0.904630
H129	H	1.043120	-0.190070	-0.955694
H130	H	1.049409	-0.236157	-0.894828
H131	H	1.138275	-0.235770	-1.005494
H132	H	1.144580	-0.281859	-0.944623
H133	H	1.094268	-0.273581	-1.115103
C134	C	0.402410	-0.290929	-0.231316
C135	C	0.417385	-0.280487	-0.301643
H136	H	0.428533	-0.263452	-0.201874
H137	H	0.353716	-0.283114	-0.222945
H138	H	0.414838	-0.333303	-0.221432
H139	H	0.404953	-0.238114	-0.311528
H140	H	0.466090	-0.288298	-0.310017
C141	C	1.079292	-0.286473	-0.568293
C142	C	1.085893	-0.280804	-0.640840
H143	H	1.110806	-0.259444	-0.544637
H144	H	1.032572	-0.275080	-0.554372
H145	H	1.090034	-0.328742	-0.556671
H146	H	1.075146	-0.238537	-0.652463
H147	H	1.132623	-0.292194	-0.654766
C148	C	0.955778	-0.468230	-1.162195
C149	C	0.917866	-0.424873	-1.118419
H150	H	0.924262	-0.495254	-1.185857
H151	H	0.981263	-0.446369	-1.195628
H152	H	0.987514	-0.492480	-1.134783
H153	H	0.886133	-0.400619	-1.145832
H154	H	0.892369	-0.446736	-1.084981
C155	C	0.521976	-0.255821	-0.275203
C156	C	0.594519	-0.249679	-0.268623
H157	H	0.498304	-0.226485	-0.243766
H158	H	0.508079	-0.247845	-0.321949
H159	H	0.510347	-0.297297	-0.264345
H160	H	0.606149	-0.208203	-0.279486
H161	H	0.608420	-0.257650	-0.221866
H162	H	0.266732	-0.438939	-0.471428
H163	H	0.273285	-0.287047	-0.308681
H164	H	1.086649	-0.712061	-0.301075
C165	C	0.941424	-0.761716	-0.516473
C166	C	0.903617	-0.720932	-0.469723
H167	H	0.909692	-0.783939	-0.545717
H168	H	0.970925	-0.738101	-0.544601
H169	H	0.969287	-0.790773	-0.490805
H170	H	0.875758	-0.691871	-0.495391
H171	H	0.874104	-0.744548	-0.441592
