data_functionalizedCrystal
_audit_creation_method	'MofGen! by Chris Wilmer'
_symmetry_space_group_name_H-M	'P1'
_symmetry_Int_Tables_number	1
_symmetry_cell_setting	triclinic
loop_
_symmetry_equiv_pos_as_xyz
  x,y,z
_cell_length_a	6.817900
_cell_length_b	9.582880
_cell_length_c	9.582889
_cell_angle_alpha	89.899755
_cell_angle_beta	111.207298
_cell_angle_gamma	111.207034
loop_
_atom_site_label
_atom_site_type_symbol
_atom_site_fract_x
_atom_site_fract_y
_atom_site_fract_z
V1	V	-4.156354	-0.466328	-0.206425
V2	V	-3.823021	-0.132995	0.126909
V3	V	-3.489688	0.200339	0.460242
O4	O	-4.100353	-0.457733	0.010569
O5	O	-3.767019	-0.124400	0.343903
O6	O	-3.433686	0.208934	0.677236
O7	O	-4.146464	-0.462868	-0.409930
O8	O	-3.813130	-0.129534	-0.076597
O9	O	-3.479797	0.203799	0.256736
O10	O	-4.146462	-0.669834	-0.202964
O11	O	-3.813129	-0.336500	0.130369
O12	O	-3.479796	-0.003167	0.463702
O13	O	-4.100354	-0.249334	-0.197829
O14	O	-3.767021	0.083999	0.135504
O15	O	-3.433687	0.417332	0.468837
V16	V	-4.630003	-0.440407	-0.180503
V17	V	-4.296669	-0.107074	0.152830
V18	V	-3.963336	0.226260	0.486163
O19	O	-4.439274	-0.523189	-0.263285
O20	O	-4.105940	-0.189855	0.070048
O21	O	-3.772607	0.143478	0.403381
O22	O	-4.797280	-0.383546	-0.123643
O23	O	-4.463947	-0.050213	0.209690
O24	O	-4.130614	0.283120	0.543024
O25	O	-4.416687	-0.443867	0.023002
O26	O	-4.083353	-0.110534	0.356336
O27	O	-3.750020	0.222799	0.689669
O28	O	-4.803401	-0.449002	-0.397497
O29	O	-4.470068	-0.115669	-0.064164
O30	O	-4.136735	0.217665	0.269169
O31	O	-4.803400	-0.657401	-0.189099
O32	O	-4.470067	-0.324067	0.144235
O33	O	-4.136733	0.009266	0.477568
O34	O	-4.416688	-0.236901	-0.183964
O35	O	-4.083355	0.096432	0.149370
O36	O	-3.750021	0.429765	0.482703
C37	C	-3.999587	-0.455441	-0.459550
C38	C	-3.666253	-0.122108	-0.126216
C39	C	-3.332920	0.211226	0.207117
C40	C	-4.073043	-0.453968	-0.625916
C41	C	-3.739710	-0.120635	-0.292583
C42	C	-3.406377	0.212698	0.040750
C43	C	-3.999583	-0.719445	-0.195542
C44	C	-3.666250	-0.386112	0.137791
C45	C	-3.332917	-0.052778	0.471125
C46	C	-4.073034	-0.885810	-0.194059
C47	C	-3.739700	-0.552477	0.139274
C48	C	-3.406367	-0.219143	0.472607
C49	C	-4.226906	-0.451290	0.072614
C50	C	-3.893573	-0.117956	0.405947
C51	C	-3.560240	0.215377	0.739280
C52	C	-4.132690	-0.452772	0.238979
C53	C	-3.799357	-0.119439	0.572312
C54	C	-3.466024	0.213894	0.905646
C55	C	-4.226909	-0.187282	-0.191391
C56	C	-3.893575	0.146051	0.141942
C57	C	-3.560242	0.479384	0.475276
C58	C	-4.132695	-0.020916	-0.192866
C59	C	-3.799362	0.312418	0.140467
C60	C	-3.466028	0.645751	0.473801
