data_functionalizedCrystal
_audit_creation_method	'MofGen! by Chris Wilmer'
_symmetry_space_group_name_H-M	'P1'
_symmetry_Int_Tables_number	1
_symmetry_cell_setting	triclinic
loop_
_symmetry_equiv_pos_as_xyz
  x,y,z
_cell_length_a	17.019383
_cell_length_b	23.532407
_cell_length_c	16.098538
_cell_angle_alpha	92.700973
_cell_angle_beta	83.394151
_cell_angle_gamma	83.124684
loop_
_atom_site_label
_atom_site_type_symbol
_atom_site_fract_x
_atom_site_fract_y
_atom_site_fract_z
O1	O	1.053521	0.067272	-0.144746
O2	O	0.822939	0.077123	-0.128228
O3	O	0.945183	-0.010729	-0.136970
O4	O	0.931278	0.155124	-0.136004
O5	O	0.938042	-0.005617	0.002054
O6	O	0.815799	0.082235	0.010795
O7	O	1.046380	0.072384	-0.005722
Zn8	Zn	0.929956	0.078121	0.024610
Zn9	Zn	0.939364	0.071386	-0.158560
O10	O	0.924137	0.160236	0.003019
C11	C	0.789875	0.079404	-0.056603
C12	C	0.701991	0.078580	-0.050307
C13	C	0.941258	-0.029389	-0.067430
C14	C	0.940193	-0.092607	-0.067348
C15	C	0.664588	0.075408	-0.123125
C16	C	0.582009	0.074644	-0.117196
C17	C	0.536836	0.077047	-0.038450
C18	C	0.574244	0.080221	0.034373
C19	C	0.656821	0.080990	0.028444
C20	C	0.287314	0.074869	-0.016757
C21	C	0.204733	0.074098	-0.010833
C22	C	0.212503	0.068522	-0.162403
C23	C	0.295081	0.069288	-0.168325
C24	C	0.332482	0.072465	-0.095502
C25	C	0.452428	0.076263	-0.032388
C26	C	0.416888	0.073252	-0.101565
C27	C	1.005859	-0.491668	-0.072097
C28	C	1.004870	-0.551069	-0.072033
O29	O	1.065743	-0.587775	-0.076424
N30	N	0.932196	-0.573744	-0.066826
C31	C	0.860507	-0.537013	-0.061692
O32	O	0.798601	-0.561754	-0.057259
C33	C	0.861496	-0.477614	-0.061763
C34	C	0.934175	-0.454943	-0.066961
C35	C	1.078531	-0.468997	-0.077296
C36	C	1.079520	-0.409599	-0.077359
C37	C	1.007836	-0.372874	-0.072223
C38	C	0.935163	-0.395546	-0.067024
C39	C	0.789808	-0.440885	-0.056635
C40	C	0.790804	-0.381482	-0.056707
C41	C	0.863482	-0.358811	-0.061905
C42	C	0.864467	-0.299423	-0.061951
N43	N	0.937141	-0.276749	-0.067158
C44	C	1.008825	-0.313474	-0.072294
C45	C	0.858433	-0.661757	-0.061546
C46	C	0.857442	-0.721156	-0.061469
C47	C	1.001806	-0.735208	-0.071812
C48	C	1.002796	-0.675808	-0.071882
C49	C	0.931107	-0.639083	-0.066753
C50	C	1.010896	-0.188735	-0.072425
C51	C	1.011877	-0.129332	-0.072484
C52	C	0.867514	-0.115286	-0.062146
C53	C	0.866531	-0.174684	-0.062083
C54	C	0.938229	-0.211408	-0.067225
O55	O	0.803627	-0.262683	-0.057566
O56	O	1.070722	-0.288726	-0.076738
C57	C	1.079445	0.070102	-0.077349
C58	C	1.167329	0.070926	-0.083651
C59	C	0.928062	0.178896	-0.066522
C60	C	0.929127	0.242113	-0.066610
N61	N	0.923541	0.082717	0.149618
N62	N	0.945785	0.066785	-0.283568
C63	C	0.975444	0.045442	0.189491
C64	C	0.970964	0.048663	0.277000
C65	C	0.914583	0.089161	0.324634
C66	C	0.862674	0.126438	0.284755
C67	C	0.867151	0.123214	0.197248
C68	C	0.898353	0.100838	0.589045
C69	C	0.893882	0.104060	0.676558
C70	C	1.002171	0.026284	0.668797
C71	C	1.006647	0.023066	0.581288
C72	C	0.954735	0.060340	0.541417
C73	C	0.910004	0.092455	0.414083
C74	C	0.959311	0.057043	0.451970
H75	H	0.701362	0.073450	-0.187249
Br76	Br	0.391115	0.079526	0.074480
Br77	Br	1.051971	-0.009519	0.124853
H78	H	1.071063	-0.110877	-0.076715
Br79	Br	0.531250	0.070341	-0.216025
Br80	Br	0.767895	-0.205452	-0.055008
Br81	Br	1.108200	-0.238566	-0.079405
H82	H	0.809150	-0.085373	-0.057962
Br83	Br	0.356383	0.066020	-0.275200
H84	H	0.687273	0.083575	0.087740
H85	H	0.816764	0.159411	0.323544
H86	H	0.864099	0.125431	0.452874
H87	H	1.044435	-0.004064	0.701269
H88	H	0.167951	0.076071	0.053295
H89	H	1.013228	0.018311	0.309465
H90	H	1.138702	-0.391147	-0.081596
H91	H	1.136909	-0.498893	-0.081482
Br92	Br	1.035821	0.002079	0.387324
H93	H	0.317756	0.077452	0.042541
Br94	Br	0.512938	0.083489	0.141245
Br95	Br	0.161742	0.064202	-0.261229
H96	H	0.824885	0.153566	0.164784
Br97	Br	0.758803	-0.751915	-0.054394
Br98	Br	1.101434	-0.645047	-0.078936
Br99	Br	1.099093	-0.785061	-0.078785
Br100	Br	0.761131	-0.611922	-0.054577
Br101	Br	0.817361	0.159029	0.741200
Br102	Br	0.691167	-0.471637	-0.049583
Br103	Br	1.083167	-0.031894	0.516640
H104	H	0.732425	-0.351583	-0.052531
H105	H	0.856086	0.131189	0.556589
H106	H	0.453670	0.071299	-0.165680
