data_functionalizedCrystal
_audit_creation_method	'MofGen! by Chris Wilmer'
_symmetry_space_group_name_H-M	'P1'
_symmetry_Int_Tables_number	1
_symmetry_cell_setting	triclinic
loop_
_symmetry_equiv_pos_as_xyz
  x,y,z
_cell_length_a	6.817900
_cell_length_b	15.300912
_cell_length_c	13.212919
_cell_angle_alpha	89.234514
_cell_angle_beta	106.298290
_cell_angle_gamma	104.173621
loop_
_atom_site_label
_atom_site_type_symbol
_atom_site_fract_x
_atom_site_fract_y
_atom_site_fract_z
V1	V	-4.045439	-0.098197	-0.325776
O2	O	-4.029027	0.032024	-0.319248
O3	O	-4.000260	-0.220969	-0.323861
O4	O	-4.003618	-0.084705	-0.467715
O5	O	-4.025647	-0.105183	-0.174399
V6	V	-4.527797	-0.084037	-0.307632
O7	O	-4.309253	-0.129259	-0.365576
O8	O	-4.714180	-0.052975	-0.267831
O9	O	-4.349768	0.038736	-0.309546
O10	O	-4.661605	-0.214258	-0.314159
O11	O	-4.664985	-0.077050	-0.459009
O12	O	-4.346411	-0.097528	-0.165693
C13	C	-3.845832	-0.251273	-0.318803
C14	C	-3.890224	-0.351564	-0.318183
C15	C	-3.850113	-0.077453	-0.502301
C16	C	-3.897225	-0.067235	-0.618339
C17	C	-4.264004	-0.787721	-0.320737
C18	C	-4.222274	-0.693486	-0.321312
C19	C	-4.018927	-0.642207	-0.316386
C20	C	-3.857296	-0.685168	-0.310873
C21	C	-3.899023	-0.779400	-0.310291
C22	C	-3.770336	-0.488757	-0.312090
C23	C	-3.728605	-0.394518	-0.312674
C24	C	-4.093586	-0.402843	-0.323111
C25	C	-4.135314	-0.497076	-0.322529
C26	C	-3.973680	-0.540029	-0.317018
C27	C	-4.072188	-0.210738	-0.866629
C28	C	-4.116456	-0.201141	-0.975658
C29	C	-4.030044	-0.038445	-0.945428
C30	C	-3.985776	-0.048042	-0.836399
C31	C	-4.006848	-0.134191	-0.797004
C32	C	-3.962565	-0.143787	-0.687973
C33	C	-3.876169	0.018908	-0.657745
C34	C	-3.920437	0.028505	-0.766774
C35	C	-4.167539	0.069035	-0.314602
C36	C	-4.102385	0.169325	-0.315228
C37	C	-4.163257	-0.104783	-0.131101
C38	C	-4.095384	-0.114998	-0.015062
H39	H	-4.429590	-0.829466	-0.324755
H40	H	-4.169658	-0.263474	-1.032344
C41	C	-3.633604	-0.628757	-0.305440
N42	N	-3.465115	-0.586269	-0.301347
H43	H	-4.012916	0.031693	-0.977524
C44	C	-4.095353	-0.305502	-0.823292
N45	N	-4.112805	-0.376879	-0.790652
H46	H	-3.638717	-0.523727	-0.307612
H47	H	-3.822939	0.081239	-0.601043
H48	H	-3.903295	0.098645	-0.798865
H49	H	-4.353886	-0.658517	-0.325802
H50	H	-3.563028	-0.352770	-0.308667
H51	H	-4.300898	-0.538825	-0.326548
C52	C	-3.721230	-0.826649	-0.304233
N53	N	-3.587307	-0.862236	-0.299669
H54	H	-3.979714	-0.213934	-0.655900
C55	C	-4.271382	-0.355592	-0.329166
N56	N	-4.405292	-0.319998	-0.333729
