data_functionalizedCrystal
_audit_creation_method	'MofGen! by Chris Wilmer'
_symmetry_space_group_name_H-M	'P1'
_symmetry_Int_Tables_number	1
_symmetry_cell_setting	triclinic
loop_
_symmetry_equiv_pos_as_xyz
  x,y,z
_cell_length_a	18.101398
_cell_length_b	18.101395
_cell_length_c	18.101389
_cell_angle_alpha	89.983159
_cell_angle_beta	89.975673
_cell_angle_gamma	90.026371
loop_
_atom_site_label
_atom_site_type_symbol
_atom_site_fract_x
_atom_site_fract_y
_atom_site_fract_z
Zn1	Zn	1.132121	-0.295001	-0.418847
Zn2	Zn	1.465454	0.038333	-0.085514
Zn3	Zn	1.798788	0.371666	0.247820
Zn4	Zn	1.132017	-0.418826	-0.295009
Zn5	Zn	1.465350	-0.085493	0.038325
Zn6	Zn	1.798684	0.247840	0.371658
Zn7	Zn	1.008280	-0.294993	-0.295008
Zn8	Zn	1.341613	0.038340	0.038325
Zn9	Zn	1.674947	0.371674	0.371659
Zn10	Zn	1.008231	-0.418795	-0.418797
Zn11	Zn	1.341564	-0.085461	-0.085464
Zn12	Zn	1.674897	0.247872	0.247869
O13	O	1.070162	-0.356904	-0.356915
O14	O	1.403495	-0.023570	-0.023582
O15	O	1.736829	0.309763	0.309751
O16	O	1.235740	-0.311443	-0.402440
O17	O	1.569073	0.021890	-0.069107
O18	O	1.902407	0.355224	0.264226
O19	O	1.115580	-0.402410	-0.191376
O20	O	1.448913	-0.069076	0.141958
O21	O	1.782247	0.264257	0.475291
O22	O	1.024772	-0.191361	-0.311456
O23	O	1.358105	0.141972	0.021877
O24	O	1.691439	0.475305	0.355211
O25	O	1.235664	-0.402417	-0.311457
O26	O	1.568997	-0.069084	0.021876
O27	O	1.902330	0.264249	0.355210
O28	O	1.115757	-0.191367	-0.402440
O29	O	1.449091	0.141966	-0.069106
O30	O	1.782424	0.475300	0.264227
O31	O	1.024671	-0.311430	-0.191375
O32	O	1.358004	0.021903	0.141958
O33	O	1.691338	0.355237	0.475292
O34	O	0.904641	-0.311399	-0.311408
O35	O	1.237974	0.021934	0.021925
O36	O	1.571307	0.355268	0.355259
O37	O	1.024688	-0.402363	-0.522437
O38	O	1.358021	-0.069030	-0.189103
O39	O	1.691355	0.264303	0.144230
O40	O	0.904604	-0.402356	-0.402355
O41	O	1.237938	-0.069022	-0.069022
O42	O	1.571271	0.264311	0.264311
O43	O	1.115710	-0.311412	-0.522473
O44	O	1.449043	0.021921	-0.189140
O45	O	1.782376	0.355254	0.144193
O46	O	1.115532	-0.522455	-0.311409
O47	O	1.448866	-0.189122	0.021924
O48	O	1.782199	0.144212	0.355258
O49	O	1.024587	-0.522432	-0.402356
O50	O	1.357920	-0.189099	-0.069023
O51	O	1.691254	0.144235	0.264311
C52	C	0.877752	-0.356874	-0.356877
C53	C	1.211085	-0.023540	-0.023543
C54	C	1.544418	0.309793	0.309790
C55	C	0.795437	-0.356879	-0.356878
C56	C	1.128771	-0.023545	-0.023544
C57	C	1.462104	0.309788	0.309789
C58	C	0.496347	-0.356925	-0.356940
C59	C	0.829680	-0.023592	-0.023606
C60	C	1.163013	0.309742	0.309727
C61	C	0.527670	-0.299412	-0.299997
C62	C	0.861003	0.033922	0.033336
C63	C	1.194336	0.367255	0.366669
C64	C	0.613288	-0.299566	-0.299754
C65	C	0.946621	0.033768	0.033579
C66	C	1.279955	0.367101	0.366912
C67	C	0.644729	-0.356901	-0.356909
C68	C	0.978062	-0.023568	-0.023576
C69	C	1.311396	0.309765	0.309758
C70	C	0.613611	-0.434909	-0.335587
C71	C	0.946944	-0.101576	-0.002253
C72	C	1.280278	0.231757	0.331080
C73	C	0.527966	-0.434590	-0.335191
C74	C	0.861299	-0.101256	-0.001857
C75	C	1.194632	0.232077	0.331476
C76	C	0.527961	-0.337109	-0.435339
C77	C	0.861294	-0.003775	-0.102005
C78	C	1.194628	0.329558	0.231328
C79	C	0.613612	-0.335371	-0.434911
C80	C	0.946945	-0.002038	-0.101577
C81	C	1.280279	0.331295	0.231756
C82	C	0.728589	-0.356893	-0.356893
C83	C	1.061922	-0.023559	-0.023559
C84	C	1.395255	0.309774	0.309774
C85	C	0.412487	-0.356939	-0.356954
C86	C	0.745820	-0.023605	-0.023621
C87	C	1.079154	0.309728	0.309712
C88	C	1.070063	-0.549314	-0.356893
C89	C	1.403396	-0.215981	-0.023560
C90	C	1.736730	0.117352	0.309773
C91	C	1.070088	-0.631628	-0.356909
C92	C	1.403422	-0.298295	-0.023576
C93	C	1.736755	0.035038	0.309758
C94	C	1.070251	-0.930719	-0.356949
C95	C	1.403584	-0.597386	-0.023615
C96	C	1.736918	-0.264053	0.309718
C97	C	1.013163	-0.899410	-0.414312
C98	C	1.346497	-0.566077	-0.080979
C99	C	1.679830	-0.232744	0.252354
C100	C	1.012892	-0.813792	-0.414133
C101	C	1.346225	-0.480459	-0.080799
C102	C	1.679559	-0.147126	0.252534
C103	C	1.070170	-0.782337	-0.356930
C104	C	1.403504	-0.449003	-0.023596
C105	C	1.736837	-0.115670	0.309737
C106	C	1.049041	-0.813472	-0.278878
C107	C	1.382374	-0.480139	0.054455
C108	C	1.715708	-0.146806	0.387789
C109	C	1.048673	-0.899117	-0.279221
C110	C	1.382006	-0.565784	0.054112
C111	C	1.715340	-0.232451	0.387445
C112	C	1.148593	-0.899073	-0.376950
C113	C	1.481926	-0.565740	-0.043617
C114	C	1.815259	-0.232407	0.289717
C115	C	1.148132	-0.813422	-0.378661
C116	C	1.481465	-0.480089	-0.045328
C117	C	1.814799	-0.146756	0.288005
C118	C	1.070126	-0.698477	-0.356914
C119	C	1.403459	-0.365144	-0.023581
C120	C	1.736793	-0.031811	0.309753
C121	C	1.070293	-1.014579	-0.356959
C122	C	1.403627	-0.681245	-0.023626
C123	C	1.736960	-0.347912	0.309707
C124	C	1.263324	-0.356934	-0.356954
C125	C	1.596657	-0.023601	-0.023621
C126	C	1.929991	0.309732	0.309712
C127	C	1.345638	-0.356948	-0.356971
C128	C	1.678971	-0.023614	-0.023638
C129	C	2.012305	0.309719	0.309696
C130	C	1.070205	-0.356885	-0.550077
C131	C	1.403538	-0.023552	-0.216744
C132	C	1.736872	0.309782	0.116589
C133	C	1.070223	-0.356877	-0.632391
C134	C	1.403556	-0.023544	-0.299058
C135	C	1.736890	0.309790	0.034275
C136	C	1.070282	-0.163742	-0.356953
C137	C	1.403615	0.169591	-0.023620
C138	C	1.736948	0.502925	0.309713
C139	C	1.070333	-0.081428	-0.356970
C140	C	1.403666	0.251906	-0.023636
C141	C	1.736999	0.585239	0.309697
C142	C	1.070266	-0.356738	-0.931482
C143	C	1.403600	-0.023405	-0.598149
C144	C	1.736933	0.309928	-0.264816
C145	C	1.012801	-0.413780	-0.900134
C146	C	1.346134	-0.080447	-0.566801
C147	C	1.679467	0.252887	-0.233468
C148	C	1.012956	-0.414045	-0.814516
C149	C	1.346289	-0.080711	-0.481183
C150	C	1.679623	0.252622	-0.147849
C151	C	1.070244	-0.356807	-0.783100
C152	C	1.403578	-0.023474	-0.449767
C153	C	1.736911	0.309860	-0.116433
C154	C	1.148270	-0.377998	-0.814206
C155	C	1.481603	-0.044664	-0.480873
C156	C	1.814936	0.288669	-0.147539
C157	C	1.147949	-0.378372	-0.899851
C158	C	1.481283	-0.045039	-0.566518
C159	C	1.814616	0.288295	-0.233184
C160	C	1.050385	-0.278379	-0.899905
C161	C	1.383718	0.054954	-0.566571
C162	C	1.717052	0.388288	-0.233238
C163	C	1.048649	-0.278832	-0.814254
C164	C	1.381982	0.054502	-0.480920
C165	C	1.715315	0.387835	-0.147587
C166	C	1.070237	-0.356845	-0.699240
C167	C	1.403570	-0.023511	-0.365907
C168	C	1.736903	0.309822	-0.032574
C169	C	1.070279	-0.356702	-1.015342
C170	C	1.403613	-0.023369	-0.682009
C171	C	1.736946	0.309964	-0.348675
C172	C	1.070162	-0.356869	-0.164505
C173	C	1.403495	-0.023536	0.168829
C174	C	1.736829	0.309798	0.502162
C175	C	1.070287	-0.356668	-0.082191
C176	C	1.403621	-0.023335	0.251142
C177	C	1.736954	0.309998	0.584476
H178	H	0.506120	-0.312363	-0.242242
H179	H	0.839454	0.020971	0.091091
H180	H	1.172787	0.354304	0.424424
H181	H	1.089313	-0.793097	-0.234972
H182	H	1.422646	-0.459764	0.098361
H183	H	1.755980	-0.126431	0.431694
H184	H	0.954768	-0.400655	-0.920720
H185	H	1.288101	-0.067321	-0.587386
H186	H	1.621434	0.266012	-0.254053
N187	N	0.501458	-0.456843	-0.259270
N188	N	0.834791	-0.123509	0.074063
N189	N	1.168125	0.209824	0.407396
H190	H	0.470844	-0.415646	-0.237412
H191	H	0.804177	-0.082313	0.095921
H192	H	1.137511	0.251020	0.429254
H193	H	0.470397	-0.503036	-0.263211
H194	H	0.803731	-0.169703	0.070122
H195	H	1.137064	0.163630	0.403456
H196	H	1.192217	-0.338629	-0.920590
H197	H	1.525550	-0.005296	-0.587257
H198	H	1.858884	0.328038	-0.253924
N199	N	1.207459	-0.785054	-0.327361
N200	N	1.540792	-0.451721	0.005973
N201	N	1.874126	-0.118388	0.339306
H202	H	1.184537	-0.751503	-0.289132
H203	H	1.517870	-0.418170	0.044201
H204	H	1.851204	-0.084836	0.377534
H205	H	1.232132	-0.828133	-0.301911
H206	H	1.565465	-0.494799	0.031422
H207	H	1.898798	-0.161466	0.364756
N208	N	0.935978	-0.786724	-0.396572
N209	N	1.269311	-0.453391	-0.063238
N210	N	1.602644	-0.120057	0.270095
H211	H	0.935481	-0.730930	-0.396383
H212	H	1.268814	-0.397597	-0.063050
H213	H	1.602148	-0.064264	0.270284
H214	H	0.900402	-0.805535	-0.435205
H215	H	1.233735	-0.472202	-0.101872
H216	H	1.567069	-0.138869	0.231461
N217	N	0.972594	-0.257652	-0.787320
N218	N	1.305927	0.075681	-0.453987
N219	N	1.639261	0.409014	-0.120653
H220	H	0.935430	-0.295416	-0.804823
H221	H	1.268763	0.037918	-0.471490
H222	H	1.602096	0.371251	-0.138156
H223	H	0.972454	-0.255890	-0.731554
H224	H	1.305787	0.077443	-0.398221
H225	H	1.639121	0.410776	-0.064887
N226	N	0.640396	-0.316927	-0.222811
N227	N	0.973729	0.016406	0.110522
N228	N	1.307063	0.349740	0.443856
H229	H	0.671387	-0.274516	-0.203986
H230	H	1.004720	0.058817	0.129347
H231	H	1.338054	0.392151	0.462681
H232	H	0.596673	-0.324528	-0.188969
H233	H	0.930006	0.008805	0.144364
H234	H	1.263340	0.342139	0.477697
H235	H	1.026082	-0.472127	-0.794035
H236	H	1.359415	-0.138794	-0.460702
H237	H	1.692749	0.194540	-0.127369
N238	N	1.170274	-0.454245	-0.926331
N239	N	1.503607	-0.120912	-0.592998
N240	N	1.836941	0.212422	-0.259665
H241	H	1.180229	-0.487134	-0.882369
H242	H	1.513562	-0.153800	-0.549036
H243	H	1.846896	0.179533	-0.215702
H244	H	1.129076	-0.476099	-0.956951
H245	H	1.462410	-0.142766	-0.623618
H246	H	1.795743	0.190568	-0.290284
N247	N	1.030394	-0.785897	-0.490792
N248	N	1.363727	-0.452564	-0.157459
N249	N	1.697060	-0.119230	0.175875
H250	H	1.080725	-0.804313	-0.506301
H251	H	1.414058	-0.470980	-0.172967
H252	H	1.747392	-0.137646	0.160366
H253	H	0.991889	-0.804600	-0.526565
H254	H	1.325223	-0.471266	-0.193232
H255	H	1.658556	-0.137933	0.140101
N256	N	1.105822	-0.222085	-0.926769
N257	N	1.439155	0.111248	-0.593436
N258	N	1.772488	0.444582	-0.260102
H259	H	1.079538	-0.182549	-0.956067
H260	H	1.412872	0.150785	-0.622734
H261	H	1.746205	0.484118	-0.289401
H262	H	1.131422	-0.198873	-0.882976
H263	H	1.464755	0.134460	-0.549642
H264	H	1.798089	0.467794	-0.216309
H265	H	0.634329	-0.241719	-0.313119
H266	H	0.967662	0.091614	0.020214
H267	H	1.300995	0.424948	0.353547
H268	H	0.635026	-0.452008	-0.278892
H269	H	0.968359	-0.118675	0.054441
H270	H	1.301692	0.214659	0.387774
H271	H	1.192236	-0.337757	-0.793859
H272	H	1.525569	-0.004423	-0.460526
H273	H	1.858902	0.328910	-0.127192
N274	N	0.936711	-0.927988	-0.396982
N275	N	1.270044	-0.594654	-0.063649
N276	N	1.603377	-0.261321	0.269685
H277	H	0.902671	-0.885016	-0.386655
H278	H	1.236004	-0.551683	-0.053322
H279	H	1.569337	-0.218349	0.280012
H280	H	0.917409	-0.956977	-0.440561
H281	H	1.250742	-0.623644	-0.107228
H282	H	1.584076	-0.290310	0.226106
N283	N	0.976325	-0.252804	-0.928480
N284	N	1.309658	0.080529	-0.595147
N285	N	1.642992	0.413862	-0.261813
H286	H	0.982751	-0.205174	-0.956845
H287	H	1.316085	0.128159	-0.623512
H288	H	1.649418	0.461492	-0.290178
H289	H	0.954948	-0.291803	-0.962162
H290	H	1.288282	0.041530	-0.628829
H291	H	1.621615	0.374863	-0.295496
H292	H	0.507099	-0.241388	-0.313215
H293	H	0.840433	0.091945	0.020118
H294	H	1.173766	0.425278	0.353452
N295	N	0.972815	-0.925661	-0.256790
N296	N	1.306149	-0.592328	0.076543
N297	N	1.639482	-0.258994	0.409877
H298	H	0.971816	-0.981449	-0.256790
H299	H	1.305150	-0.648116	0.076543
H300	H	1.638483	-0.314782	0.409876
H301	H	0.960921	-0.906847	-0.205630
H302	H	1.294254	-0.573513	0.127703
H303	H	1.627587	-0.240180	0.461036
N304	N	0.500509	-0.493268	-0.387731
N305	N	0.833843	-0.159935	-0.054397
N306	N	1.167176	0.173398	0.278936
H307	H	0.544044	-0.519231	-0.411043
H308	H	0.877377	-0.185897	-0.077709
H309	H	1.210710	0.147436	0.255624
H310	H	0.469547	-0.530294	-0.359697
H311	H	0.802881	-0.196961	-0.026364
H312	H	1.136214	0.136372	0.306970
H313	H	1.165415	-0.434671	-0.792765
H314	H	1.498749	-0.101337	-0.459432
H315	H	1.832082	0.231996	-0.126099
H316	H	0.992380	-0.792080	-0.261633
H317	H	1.325714	-0.458746	0.071701
H318	H	1.659047	-0.125413	0.405034
N319	N	1.030491	-0.926647	-0.491223
N320	N	1.363825	-0.593314	-0.157889
N321	N	1.697158	-0.259981	0.175444
H322	H	0.987045	-0.955574	-0.510946
H323	H	1.320378	-0.622241	-0.177612
H324	H	1.653712	-0.288908	0.155721
H325	H	1.040540	-0.883037	-0.524565
H326	H	1.373873	-0.549704	-0.191232
H327	H	1.707206	-0.216370	0.142101
N328	N	1.100043	-0.219541	-0.785935
N329	N	1.433376	0.113792	-0.452601
N330	N	1.766710	0.447125	-0.119268
H331	H	1.097450	-0.217727	-0.730227
H332	H	1.430783	0.115606	-0.396894
H333	H	1.764117	0.448939	-0.063561
H334	H	1.152273	-0.231101	-0.801794
H335	H	1.485606	0.102232	-0.468461
H336	H	1.818939	0.435565	-0.135127
H337	H	0.955097	-0.400784	-0.793483
H338	H	1.288430	-0.067450	-0.460150
H339	H	1.621764	0.265883	-0.126816
H340	H	0.633975	-0.478909	-0.375763
H341	H	0.967309	-0.145575	-0.042430
H342	H	1.300642	0.187758	0.290904
H343	H	1.088449	-0.919830	-0.235023
H344	H	1.421783	-0.586497	0.098310
H345	H	1.755116	-0.253163	0.431643
N346	N	0.499387	-0.263076	-0.461026
N347	N	0.832721	0.070258	-0.127693
N348	N	1.166054	0.403591	0.205641
H349	H	0.465654	-0.241631	-0.422098
H350	H	0.798987	0.091702	-0.088764
H351	H	1.132321	0.425035	0.244569
H352	H	0.542361	-0.228501	-0.469554
H353	H	0.875694	0.104833	-0.136221
H354	H	1.209027	0.438166	0.197112
H355	H	0.633956	-0.277966	-0.450989
H356	H	0.967289	0.055367	-0.117655
H357	H	1.300623	0.388701	0.215678
H358	H	0.635017	-0.374209	-0.479611
H359	H	0.968350	-0.040876	-0.146277
H360	H	1.301684	0.292457	0.187056
N361	N	1.174116	-0.927629	-0.451054
N362	N	1.507449	-0.594295	-0.117721
N363	N	1.840783	-0.260962	0.215613
H364	H	1.135149	-0.961374	-0.472412
H365	H	1.468482	-0.628041	-0.139078
H366	H	1.801815	-0.294707	0.194255
H367	H	1.182549	-0.884648	-0.485638
H368	H	1.515882	-0.551315	-0.152305
H369	H	1.849216	-0.217981	0.181029
N370	N	1.169246	-0.786468	-0.454748
N371	N	1.502579	-0.453134	-0.121414
N372	N	1.835913	-0.119801	0.211919
H373	H	1.128487	-0.754252	-0.475061
H374	H	1.461820	-0.420919	-0.141727
H375	H	1.795154	-0.087586	0.191606
H376	H	1.216483	-0.756925	-0.451572
H377	H	1.549816	-0.423592	-0.118238
H378	H	1.883149	-0.090259	0.215095
H379	H	1.025796	-0.471508	-0.921661
H380	H	1.359130	-0.138174	-0.588328
H381	H	1.692463	0.195159	-0.254995
N382	N	1.204935	-0.925885	-0.321611
N383	N	1.538269	-0.592552	0.011722
N384	N	1.871602	-0.259219	0.345056
H385	H	1.179878	-0.958372	-0.283765
H386	H	1.513211	-0.625038	0.049568
H387	H	1.846544	-0.291705	0.382901
H388	H	1.244441	-0.955111	-0.348021
H389	H	1.577775	-0.621778	-0.014688
H390	H	1.911108	-0.288445	0.318645
H391	H	0.507705	-0.378999	-0.477766
H392	H	0.841038	-0.045666	-0.144433
H393	H	1.174371	0.287667	0.188900
