data_functionalizedCrystal
_audit_creation_method	'MofGen! by Chris Wilmer'
_symmetry_space_group_name_H-M	'P1'
_symmetry_Int_Tables_number	1
_symmetry_cell_setting	triclinic
loop_
_symmetry_equiv_pos_as_xyz
  x,y,z
_cell_length_a	14.519709
_cell_length_b	15.995350
_cell_length_c	13.596369
_cell_angle_alpha	89.996243
_cell_angle_beta	90.000291
_cell_angle_gamma	83.586260
loop_
_atom_site_label
_atom_site_type_symbol
_atom_site_fract_x
_atom_site_fract_y
_atom_site_fract_z
O1	O	1.223669	0.109760	-0.081658
O2	O	0.955169	0.122685	-0.081688
O3	O	1.096759	-0.005654	-0.081671
O4	O	1.082079	0.238099	-0.081675
O5	O	1.096744	-0.005661	0.081912
O6	O	0.955155	0.122679	0.081895
O7	O	1.223655	0.109753	0.081925
Zn8	Zn	1.089403	0.116215	0.107882
Zn9	Zn	1.089421	0.116224	-0.107645
O10	O	1.082065	0.238093	0.081908
C11	C	0.920803	0.122080	0.000100
C12	C	0.818425	0.120275	0.000088
C13	C	0.443541	0.113629	0.000133
C14	C	0.547846	0.115475	0.000120
C15	C	0.630980	0.116952	0.000110
C16	C	0.735291	0.118797	0.000099
C17	C	1.096145	-0.036853	0.000118
C18	C	1.094325	-0.129806	0.000112
C19	C	1.087791	-0.467563	0.000115
C20	C	0.986954	-0.420280	-0.000263
C21	C	0.988773	-0.323587	0.000106
C22	C	1.091032	-0.299998	0.000113
C23	C	1.140761	-0.341005	0.093531
C24	C	1.138228	-0.437644	0.093609
C25	C	1.140327	-0.437992	-0.092415
C26	C	1.140303	-0.341046	-0.093650
C27	C	1.092869	-0.205298	0.000115
C28	C	1.085957	-0.562264	0.000119
C29	C	1.258021	0.110359	0.000135
C30	C	1.360399	0.112164	0.000140
C31	C	1.082679	0.269292	0.000116
C32	C	1.084498	0.362245	0.000116
N33	N	1.089397	0.116208	0.254974
N34	N	1.089434	0.116224	-0.254737
C35	C	1.089420	0.116225	0.656265
C36	C	1.089411	0.116223	0.544614
C37	C	1.089409	0.116217	0.455623
C38	C	1.089399	0.116214	0.343965
H39	H	0.946656	-0.438870	-0.067255
C40	C	1.252409	-0.276813	-0.189148
C41	C	1.240955	-0.320108	-0.101264
H42	H	1.314543	-0.263867	-0.193838
H43	H	1.239050	-0.311007	-0.243276
H44	H	1.211409	-0.226193	-0.189922
H45	H	1.281950	-0.370731	-0.100493
H46	H	1.254324	-0.285912	-0.047121
H47	H	1.214674	-0.469641	-0.093038
H48	H	0.946823	-0.439937	0.066347
C49	C	0.902443	-0.349435	-0.145263
C50	C	0.935991	-0.285286	-0.090286
H51	H	0.869848	-0.325790	-0.201063
H52	H	0.952912	-0.388231	-0.166280
H53	H	0.861803	-0.377782	-0.105733
H54	H	0.976637	-0.256943	-0.129814
H55	H	0.885515	-0.246476	-0.069270
C56	C	1.057919	-0.369032	-0.241009
C57	C	1.091298	-0.304262	-0.186953
H58	H	1.027662	-0.346316	-0.298606
H59	H	1.108209	-0.409237	-0.259070
H60	H	1.015236	-0.395460	-0.202012
H61	H	1.133986	-0.277838	-0.225947
H62	H	1.041002	-0.264043	-0.168894
H63	H	1.212261	-0.469782	0.097852
H64	H	1.107364	-0.458578	-0.163220
H65	H	0.949409	-0.295784	0.067177
H66	H	1.101954	-0.456003	0.163434
C67	C	1.301104	-0.397307	0.096960
C68	C	1.242179	-0.321785	0.098236
H69	H	1.363715	-0.385438	0.099857
H70	H	1.288123	-0.430582	0.152047
H71	H	1.291446	-0.427112	0.038099
H72	H	1.251833	-0.291983	0.157101
H73	H	1.255165	-0.288497	0.043144
H74	H	1.106210	-0.312678	0.163044
