data_functionalizedCrystal
_audit_creation_method	'MofGen! by Chris Wilmer'
_symmetry_space_group_name_H-M	'P1'
_symmetry_Int_Tables_number	1
_symmetry_cell_setting	triclinic
loop_
_symmetry_equiv_pos_as_xyz
  x,y,z
_cell_length_a	16.109302
_cell_length_b	14.044190
_cell_length_c	14.586319
_cell_angle_alpha	89.991348
_cell_angle_beta	89.994552
_cell_angle_gamma	88.326779
loop_
_atom_site_label
_atom_site_type_symbol
_atom_site_fract_x
_atom_site_fract_y
_atom_site_fract_z
O1	O	1.112198	0.121838	-0.076292
O2	O	1.362198	0.371838	0.173708
O3	O	1.612198	0.621838	0.423708
O4	O	1.862198	0.871838	0.673708
O5	O	0.871264	0.136999	-0.076287
O6	O	1.121264	0.386999	0.173713
O7	O	1.371264	0.636999	0.423713
O8	O	1.621264	0.886999	0.673713
O9	O	0.988112	-0.008565	-0.076271
O10	O	1.238112	0.241435	0.173729
O11	O	1.488112	0.491435	0.423729
O12	O	1.738112	0.741435	0.673729
O13	O	0.995351	0.267402	-0.076308
O14	O	1.245351	0.517402	0.173692
O15	O	1.495351	0.767402	0.423692
O16	O	1.745351	1.017402	0.673692
O17	O	0.988103	-0.008567	0.076209
O18	O	1.238103	0.241433	0.326209
O19	O	1.488103	0.491433	0.576209
O20	O	1.738103	0.741433	0.826209
O21	O	0.871255	0.136997	0.076194
O22	O	1.121255	0.386997	0.326194
O23	O	1.371255	0.636997	0.576194
O24	O	1.621255	0.886997	0.826194
O25	O	1.112189	0.121836	0.076188
O26	O	1.362189	0.371836	0.326188
O27	O	1.612189	0.621836	0.576188
O28	O	1.862189	0.871836	0.826188
Cu29	Cu	0.991721	0.129416	0.090114
Cu30	Cu	1.241721	0.379416	0.340114
Cu31	Cu	1.491721	0.629416	0.590114
Cu32	Cu	1.741721	0.879416	0.840114
Cu33	Cu	0.991732	0.129419	-0.090212
Cu34	Cu	1.241732	0.379419	0.159788
Cu35	Cu	1.491732	0.629419	0.409788
Cu36	Cu	1.741732	0.879419	0.659788
O37	O	0.995342	0.267400	0.076173
O38	O	1.245342	0.517400	0.326173
O39	O	1.495342	0.767400	0.576173
O40	O	1.745342	1.017400	0.826173
C41	C	0.840239	0.136384	-0.000045
C42	C	1.090239	0.386384	0.249955
C43	C	1.340239	0.636384	0.499955
C44	C	1.590239	0.886384	0.749955
C45	C	0.747807	0.134543	-0.000042
C46	C	0.997807	0.384543	0.249958
C47	C	1.247807	0.634543	0.499958
C48	C	1.497807	0.884543	0.749958
C49	C	0.535144	0.130283	0.083067
C50	C	0.785144	0.380283	0.333067
C51	C	1.035144	0.630283	0.583067
C52	C	1.285144	0.880283	0.833067
C53	C	0.448295	0.128542	0.083064
C54	C	0.698295	0.378542	0.333064
C55	C	0.948295	0.628542	0.583064
C56	C	1.198295	0.878542	0.833064
C57	C	0.448315	0.128550	-0.083179
C58	C	0.698315	0.378550	0.166821
C59	C	0.948315	0.628550	0.416821
C60	C	1.198315	0.878550	0.666821
C61	C	0.535164	0.130283	-0.083175
C62	C	0.785164	0.380283	0.166825
C63	C	1.035164	0.630283	0.416825
C64	C	1.285164	0.880283	0.666825
C65	C	0.578576	0.131155	-0.000050
C66	C	0.828576	0.381155	0.249950
C67	C	1.078576	0.631155	0.499950
C68	C	1.328576	0.881155	0.749950
C69	C	0.404878	0.127681	-0.000056
C70	C	0.654878	0.377681	0.249944
C71	C	0.904878	0.627681	0.499944
C72	C	1.154878	0.877681	0.749944
C73	C	0.310712	0.125793	-0.000060
C74	C	0.560712	0.375793	0.249940
C75	C	0.810712	0.625793	0.499940
C76	C	1.060712	0.875793	0.749940
C77	C	0.672748	0.133040	-0.000045
C78	C	0.922748	0.383040	0.249955
C79	C	1.172748	0.633040	0.499955
C80	C	1.422748	0.883040	0.749955
C81	C	0.984940	-0.043879	-0.000028
C82	C	1.234940	0.206121	0.249972
C83	C	1.484940	0.456121	0.499972
C84	C	1.734940	0.706121	0.749972
C85	C	0.975494	-0.149103	-0.000020
C86	C	1.225494	0.100897	0.249980
C87	C	1.475494	0.350897	0.499980
C88	C	1.725494	0.600897	0.749980
C89	C	1.025219	-0.399404	-0.000057
C90	C	1.275219	-0.149404	0.249943
C91	C	1.525219	0.100596	0.499943
C92	C	1.775219	0.350596	0.749943
C93	C	0.958238	-0.341755	-0.000049
C94	C	1.208238	-0.091755	0.249951
C95	C	1.458238	0.158245	0.499951
C96	C	1.708238	0.408245	0.749951
C97	C	0.967842	-0.234553	-0.000033
C98	C	1.217842	0.015447	0.249967
C99	C	1.467842	0.265447	0.499967
C100	C	1.717842	0.515447	0.749967
C101	C	1.015617	-0.506616	-0.000073
C102	C	1.265617	-0.256616	0.249927
C103	C	1.515617	-0.006616	0.499927
C104	C	1.765617	0.243384	0.749927
C105	C	1.143214	0.122451	-0.000055
C106	C	1.393214	0.372451	0.249945
C107	C	1.643214	0.622451	0.499945
C108	C	1.893214	0.872451	0.749945
C109	C	1.235646	0.124293	-0.000064
C110	C	1.485646	0.374293	0.249936
C111	C	1.735646	0.624293	0.499936
C112	C	1.985646	0.874293	0.749936
C113	C	0.998513	0.302715	-0.000072
C114	C	1.248513	0.552715	0.249928
C115	C	1.498513	0.802715	0.499928
C116	C	1.748513	1.052715	0.749928
C117	C	1.007959	0.407938	-0.000086
C118	C	1.257959	0.657938	0.249914
C119	C	1.507959	0.907938	0.499914
C120	C	1.757959	1.157938	0.749914
N121	N	0.991720	0.129414	0.216946
N122	N	1.241720	0.379414	0.466946
N123	N	1.491720	0.629414	0.716946
N124	N	1.741720	0.879414	0.966946
N125	N	0.991740	0.129414	-0.217044
N126	N	1.241740	0.379414	0.032956
N127	N	1.491740	0.629414	0.282956
N128	N	1.741740	0.879414	0.532956
C129	C	1.043480	0.064980	0.451959
C130	C	1.293480	0.314980	0.701959
C131	C	1.543480	0.564980	0.951959
C132	C	1.793480	0.814980	1.201959
C133	C	1.043482	0.064977	0.547940
C134	C	1.293482	0.314977	0.797940
C135	C	1.543482	0.564977	1.047940
C136	C	1.793482	0.814977	1.297940
C137	C	0.939973	0.193851	0.547936
C138	C	1.189973	0.443851	0.797936
C139	C	1.439973	0.693851	1.047936
C140	C	1.689973	0.943851	1.297936
C141	C	0.939967	0.193848	0.451957
C142	C	1.189967	0.443848	0.701957
C143	C	1.439967	0.693848	0.951957
C144	C	1.689967	0.943848	1.201957
C145	C	0.991726	0.129414	0.403971
C146	C	1.241726	0.379414	0.653971
C147	C	1.491726	0.629414	0.903971
C148	C	1.741726	0.879414	1.153971
C149	C	0.991734	0.129414	0.595931
C150	C	1.241734	0.379414	0.845931
C151	C	1.491734	0.629414	1.095931
C152	C	1.741734	0.879414	1.345931
C153	C	0.991736	0.129412	0.699998
C154	C	1.241736	0.379412	0.949998
C155	C	1.491736	0.629412	1.199998
C156	C	1.741736	0.879412	1.449998
C157	C	0.991723	0.129414	0.299897
C158	C	1.241723	0.379414	0.549897
C159	C	1.491723	0.629414	0.799897
C160	C	1.741723	0.879414	1.049897
H161	H	0.570488	0.130993	0.150753
H162	H	0.820488	0.380993	0.400753
H163	H	1.070488	0.630993	0.650753
H164	H	1.320488	0.880993	0.900753
F165	F	1.109594	-0.358684	-0.000048
F166	F	1.359594	-0.108684	0.249952
F167	F	1.609594	0.141316	0.499952
F168	F	1.859594	0.391316	0.749952
H169	H	0.893681	-0.372910	-0.000053
H170	H	1.143681	-0.122910	0.249947
H171	H	1.393681	0.127090	0.499947
H172	H	1.643681	0.377090	0.749947
H173	H	1.085623	0.012512	0.412891
H174	H	1.335623	0.262512	0.662891
H175	H	1.585623	0.512512	0.912891
H176	H	1.835623	0.762512	1.162891
H177	H	0.412937	0.127833	0.150745
H178	H	0.662937	0.377833	0.400745
H179	H	0.912937	0.627833	0.650745
H180	H	1.162937	0.877833	0.900745
F181	F	0.402107	0.127603	-0.171642
F182	F	0.652107	0.377603	0.078358
F183	F	0.902107	0.627603	0.328358
F184	F	1.152107	0.877603	0.578358
H185	H	0.570526	0.130991	-0.150863
H186	H	0.820526	0.380991	0.099137
H187	H	1.070526	0.630991	0.349137
H188	H	1.320526	0.880991	0.599137
H189	H	1.085624	0.012508	0.587010
H190	H	1.335624	0.262508	0.837010
H191	H	1.585624	0.512508	1.087010
H192	H	1.835624	0.762508	1.337010
H193	H	0.897834	0.246314	0.587016
H194	H	1.147834	0.496314	0.837016
H195	H	1.397834	0.746314	1.087016
H196	H	1.647834	0.996314	1.337016
F197	F	0.884877	0.262427	0.400880
F198	F	1.134877	0.512427	0.650880
F199	F	1.384877	0.762427	0.900880
F200	F	1.634877	1.012427	1.150880
