data_functionalizedCrystal
_audit_creation_method	'MofGen! by Chris Wilmer'
_symmetry_space_group_name_H-M	'P1'
_symmetry_Int_Tables_number	1
_symmetry_cell_setting	triclinic
loop_
_symmetry_equiv_pos_as_xyz
  x,y,z
_cell_length_a	18.215407
_cell_length_b	18.050589
_cell_length_c	18.215399
_cell_angle_alpha	90.029116
_cell_angle_beta	90.019833
_cell_angle_gamma	90.020982
loop_
_atom_site_label
_atom_site_type_symbol
_atom_site_fract_x
_atom_site_fract_y
_atom_site_fract_z
Zn1	Zn	1.125094	-0.295658	0.416110
Zn2	Zn	1.125012	-0.419853	0.293041
Zn3	Zn	1.002027	-0.295682	0.293057
Zn4	Zn	1.002002	-0.419812	0.416066
O5	O	1.063534	-0.357751	0.354569
O6	O	1.228068	-0.312140	0.399796
O7	O	1.108674	-0.403409	0.190059
O8	O	1.018397	-0.191755	0.309406
O9	O	1.228007	-0.403386	0.309378
O10	O	1.108814	-0.191737	0.399812
O11	O	1.018317	-0.312181	0.190071
O12	O	0.899039	-0.312141	0.309363
O13	O	1.018354	-0.403315	0.519056
O14	O	0.899021	-0.403339	0.399737
O15	O	1.108790	-0.312100	0.519088
O16	O	1.108650	-0.523772	0.309336
O17	O	1.018275	-0.523742	0.399721
C18	C	0.872327	-0.357739	0.354547
C19	C	0.790529	-0.357751	0.354556
C20	C	1.063471	-0.550704	0.354538
C21	C	1.063511	-0.633249	0.354549
C22	C	0.602344	-0.405312	0.401555
C23	C	0.525486	-0.405315	0.401564
C24	C	0.525475	-0.310204	0.307599
C25	C	0.602332	-0.310199	0.307594
C26	C	0.640765	-0.357757	0.354571
C27	C	0.487049	-0.357765	0.354585
C28	C	0.403715	-0.357767	0.354594
C29	C	0.724104	-0.357754	0.354562
C30	C	1.112785	-0.882064	0.305479
C31	C	1.045639	-0.832734	0.287403
C32	C	1.063603	-0.930370	0.354606
C33	C	1.130699	-0.832618	0.372619
C34	C	1.063561	-0.784385	0.354576
C35	C	0.996422	-0.882127	0.336496
C36	C	1.081528	-0.882015	0.421743
C37	C	1.014336	-0.832707	0.403693
C38	C	1.063628	-1.014468	0.354621
C39	C	1.063529	-0.700288	0.354561
C40	C	1.255487	-0.357765	0.354590
C41	C	1.337286	-0.357770	0.354599
C42	C	1.063579	-0.357700	0.546522
C43	C	1.063598	-0.357678	0.628321
C44	C	1.063617	-0.164046	0.354615
C45	C	1.063653	-0.081500	0.354635
C46	C	1.063531	-0.357749	0.163362
C47	C	1.063655	-0.357561	0.081564
C48	C	1.110704	-0.310138	0.816533
C49	C	1.110713	-0.310117	0.893391
C50	C	1.016543	-0.405104	0.893346
C51	C	1.016531	-0.405121	0.816489
C52	C	1.063616	-0.357639	0.778084
C53	C	1.063637	-0.357600	0.931800
C54	C	1.063646	-0.357577	1.015134
C55	C	1.063606	-0.357661	0.694745
H56	H	0.633634	-0.444035	0.439808
O57	O	0.970867	-0.451374	0.779168
C58	C	0.986911	-0.525388	0.797941
H59	H	1.045704	-0.529137	0.819081
H60	H	0.980551	-0.562087	0.747382
H61	H	0.947452	-0.544792	0.842537
H62	H	1.149056	-0.271435	0.924693
O63	O	0.488278	-0.451582	0.447226
C64	C	0.538684	-0.493539	0.488699
H65	H	0.593456	-0.496068	0.458544
H66	H	0.516463	-0.552063	0.496448
H67	H	0.546892	-0.466415	0.544639
H68	H	1.154342	-0.903736	0.263915
H69	H	1.030455	-0.811085	0.230614
H70	H	0.494174	-0.271485	0.269351
O71	O	0.639545	-0.263977	0.261880
C72	C	0.589145	-0.221994	0.220427
H73	H	0.534347	-0.252411	0.217826
H74	H	0.611333	-0.213997	0.162457
H75	H	0.580999	-0.165626	0.247476
O76	O	0.970880	-0.451205	0.930768
C77	C	0.980975	-0.440993	1.006850
H78	H	1.037780	-0.416670	1.017365
H79	H	0.975965	-0.496614	1.036043
H80	H	0.937342	-0.401438	1.028664
O81	O	1.156511	-0.264116	0.779191
C82	C	1.204011	-0.306403	0.734715
H83	H	1.208544	-0.364888	0.757860
H84	H	1.260654	-0.279538	0.733860
H85	H	1.181245	-0.308974	0.676462
O86	O	0.928739	-0.908077	0.318207
C87	C	0.929582	-0.986182	0.318434
H88	H	0.988237	-1.006594	0.310305
H89	H	0.893488	-1.007808	0.271984
H90	H	0.907701	-1.007301	0.373194
O91	O	0.964544	-0.807044	0.453157
C92	C	0.893903	-0.832424	0.433887
H93	H	0.892544	-0.846258	0.372831
H94	H	0.851812	-0.787377	0.446189
H95	H	0.880229	-0.884159	0.467059
H96	H	1.187459	-0.810872	0.387866
O97	O	1.099791	-0.907832	0.489450
C98	C	1.170620	-0.882632	0.508255
H99	H	1.202400	-0.868779	0.456133
H100	H	1.200798	-0.927796	0.539899
H101	H	1.165938	-0.830946	0.543940
