data_functionalizedCrystal
_audit_creation_method	'MofGen! by Chris Wilmer'
_symmetry_space_group_name_H-M	'P1'
_symmetry_Int_Tables_number	1
_symmetry_cell_setting	triclinic
loop_
_symmetry_equiv_pos_as_xyz
  x,y,z
_cell_length_a	16.974800
_cell_length_b	10.489716
_cell_length_c	15.455313
_cell_angle_alpha	92.696181
_cell_angle_beta	90.973911
_cell_angle_gamma	83.958131
loop_
_atom_site_label
_atom_site_type_symbol
_atom_site_fract_x
_atom_site_fract_y
_atom_site_fract_z
O1	O	1.049988	0.162600	0.001611
O2	O	0.820665	0.182079	-0.014494
O3	O	0.940555	-0.013319	-0.006078
O4	O	0.930098	0.357999	-0.006806
O5	O	0.933699	-0.002192	0.137703
O6	O	0.813809	0.193207	0.129287
O7	O	1.043132	0.173728	0.145391
Cu8	Cu	0.927844	0.184483	0.150467
Cu9	Cu	0.935952	0.171324	-0.019570
O10	O	0.923242	0.369126	0.136975
C11	C	0.787872	0.186698	0.055334
C12	C	0.700375	0.183868	0.049189
C13	C	0.655536	0.188601	0.124679
C14	C	0.573324	0.185921	0.118908
C15	C	0.535952	0.178518	0.037645
C16	C	0.580797	0.173781	-0.037850
C17	C	0.663008	0.176451	-0.032078
C18	C	0.290479	0.169872	0.011977
C19	C	0.208262	0.167205	0.006211
C20	C	0.200794	0.179344	0.162969
C21	C	0.283006	0.182022	0.168734
C22	C	0.327845	0.177277	0.093239
N23	N	0.451918	0.175783	0.031744
N24	N	0.411878	0.180004	0.099141
C25	C	0.936341	-0.055279	0.065755
C26	C	0.933991	-0.196884	0.065582
C27	C	1.007511	-0.295387	0.070753
C28	C	0.972041	-0.377795	-0.002865
C29	C	0.965265	-0.366788	0.138891
C30	C	0.898555	-0.277432	-0.008092
C31	C	0.891786	-0.266415	0.133728
C32	C	0.856264	-0.348776	0.060089
C33	C	1.075925	0.169108	0.075561
C34	C	1.163423	0.171938	0.081701
C35	C	0.927456	0.411086	0.065141
C36	C	0.929806	0.552691	0.065308
N37	N	0.922147	0.193738	0.270063
N38	N	0.941656	0.162058	-0.139165
C39	C	0.973099	0.110757	0.319034
C40	C	0.968798	0.117768	0.409540
C41	C	0.913548	0.207768	0.451073
C42	C	0.862591	0.290753	0.402096
C43	C	0.866889	0.283735	0.311591
C44	C	0.894997	0.238026	0.721353
C45	C	0.890704	0.245040	0.811864
C46	C	0.996910	0.072053	0.819302
C47	C	1.001206	0.065048	0.728795
C48	C	0.950247	0.148028	0.679825
N49	N	0.909152	0.214939	0.543585
N50	N	0.954639	0.140850	0.587315
H51	H	0.326977	0.166005	-0.049496
H52	H	0.825398	0.351306	0.271719
H53	H	0.792267	-0.372487	0.055557
H54	H	1.046195	-0.008237	0.694981
C55	C	0.071456	0.180626	0.223729
C56	C	0.151507	0.184539	0.245950
H57	H	0.041031	0.183822	0.274962
H58	H	0.053925	0.252009	0.190198
H59	H	0.065122	0.103380	0.190968
H60	H	0.157841	0.261791	0.278706
H61	H	0.169043	0.113150	0.279496
H62	H	0.845711	0.318334	0.845676
C63	C	1.014455	-0.576048	-0.080585
C64	C	1.017787	-0.443255	-0.080833
H65	H	1.042695	-0.616453	-0.128722
H66	H	1.037645	-0.607840	-0.028456
H67	H	0.960762	-0.593910	-0.084426
H68	H	1.071480	-0.425392	-0.076985
H69	H	0.994599	-0.411453	-0.132975
H70	H	0.817602	0.364028	0.435917
C71	C	0.181066	0.265587	-0.129761
C72	C	0.167177	0.159071	-0.083118
H73	H	0.155704	0.260564	-0.184906
H74	H	0.160469	0.341943	-0.098892
H75	H	0.236447	0.266476	-0.137130
H76	H	0.111796	0.158187	-0.075743
H77	H	0.187771	0.082695	-0.113994
C78	C	0.639889	0.200311	0.279046
C79	C	0.696611	0.196732	0.214006
H80	H	0.665249	0.205319	0.334194
H81	H	0.602388	0.273329	0.273146
H82	H	0.613573	0.124699	0.273915
H83	H	0.722924	0.272349	0.219133
H84	H	0.734127	0.123708	0.219909
C85	C	0.484808	0.080385	0.203943
C86	C	0.524045	0.191110	0.201894
H87	H	0.454392	0.083581	0.255183
H88	H	0.450782	0.075603	0.154733
H89	H	0.522643	0.006877	0.203319
H90	H	0.486209	0.264618	0.202512
H91	H	0.558074	0.195904	0.251118
H92	H	0.857920	-0.217909	0.191485
H93	H	1.010286	0.050197	0.449412
H94	H	0.313429	0.188044	0.234907
C95	C	1.040619	-0.146394	0.850325
C96	C	1.052913	-0.019171	0.873131
H97	H	1.075195	-0.202716	0.883554
H98	H	0.987249	-0.159317	0.861474
H99	H	1.051088	-0.163436	0.790478
H100	H	1.042437	-0.002126	0.932976
H101	H	1.106295	-0.006242	0.861989
H102	H	1.018092	0.037475	0.285224
C103	C	1.082464	-0.393312	0.228152
C104	C	1.003317	-0.419674	0.222744
H105	H	1.105957	-0.425954	0.279920
H106	H	1.110436	-0.432928	0.179614
H107	H	1.084672	-0.303169	0.228605
H108	H	1.001109	-0.509818	0.222284
H109	H	0.975337	-0.380062	0.271295
C110	C	0.789594	0.409729	0.723105
C111	C	0.838989	0.329248	0.667533
H112	H	0.755020	0.466053	0.689875
H113	H	0.759278	0.359241	0.756403
H114	H	0.820988	0.458490	0.760717
H115	H	0.807594	0.280480	0.629925
H116	H	0.869307	0.379741	0.634220
H117	H	0.699515	0.172600	-0.093550
H118	H	1.071464	-0.271437	0.075172
C119	C	0.458090	0.164311	-0.116303
C120	C	0.539720	0.165646	-0.127176
H121	H	0.432733	0.159299	-0.171452
H122	H	0.448680	0.092056	-0.084661
H123	H	0.437497	0.240685	-0.085435
H124	H	0.560315	0.089267	-0.158039
H125	H	0.549136	0.237907	-0.158832
C126	C	0.834899	-0.325892	-0.143828
C127	C	0.860550	-0.224786	-0.092035
H128	H	0.811434	-0.293385	-0.195647
H129	H	0.878862	-0.386687	-0.157733
H130	H	0.796994	-0.366159	-0.113231
H131	H	0.898460	-0.184524	-0.122629
H132	H	0.816581	-0.163969	-0.078130
