data_functionalizedCrystal
_audit_creation_method	'MofGen! by Chris Wilmer'
_symmetry_space_group_name_H-M	'P1'
_symmetry_Int_Tables_number	1
_symmetry_cell_setting	triclinic
loop_
_symmetry_equiv_pos_as_xyz
  x,y,z
_cell_length_a	10.967874
_cell_length_b	10.967829
_cell_length_c	18.366186
_cell_angle_alpha	77.865925
_cell_angle_beta	77.862272
_cell_angle_gamma	82.165976
loop_
_atom_site_label
_atom_site_type_symbol
_atom_site_fract_x
_atom_site_fract_y
_atom_site_fract_z
O1	O	1.657253	0.175044	-0.290450
O2	O	1.294090	0.191795	-0.246987
O3	O	1.484043	0.001840	-0.246983
O4	O	1.467300	0.364999	-0.290455
O5	O	1.484010	0.001831	-0.125878
O6	O	1.294057	0.191786	-0.125882
O7	O	1.657220	0.175035	-0.169346
Zn8	Zn	1.475634	0.183409	-0.128386
Zn9	Zn	1.475677	0.183421	-0.287947
O10	O	1.467267	0.364990	-0.169350
C11	C	1.247572	0.190571	-0.180447
C12	C	1.109014	0.186922	-0.162604
C13	C	1.482806	-0.044665	-0.180443
C14	C	1.479154	-0.183222	-0.162602
C15	C	1.047257	0.185300	-0.217385
C16	C	0.904050	0.181529	-0.198946
C17	C	1.477542	-0.244984	-0.217385
C18	C	1.473768	-0.388190	-0.198946
C19	C	1.703738	0.176259	-0.235887
C20	C	1.842296	0.179908	-0.253735
C21	C	1.468504	0.411495	-0.235891
C22	C	1.472157	0.550052	-0.253737
N23	N	1.475613	0.183399	-0.019491
N24	N	1.475707	0.183421	-0.396841
C25	C	1.559753	0.099329	0.018602
C26	C	1.559760	0.099323	0.094830
C27	C	1.475641	0.183410	0.132957
C28	C	1.391486	0.267486	0.094855
C29	C	1.391472	0.267481	0.018632
C30	C	1.460267	0.296924	0.241401
C31	C	1.460290	0.296931	0.317622
C32	C	1.475677	0.183426	0.368058
C33	C	1.491067	0.069908	0.342260
C34	C	1.491053	0.069903	0.266036
C35	C	1.475646	0.183424	0.215609
C36	C	1.559829	0.099343	0.488806
C37	C	1.559828	0.099335	0.565037
C38	C	1.391560	0.267509	0.565058
C39	C	1.391555	0.267505	0.488832
C40	C	1.475696	0.183424	0.450709
H41	H	1.100405	0.186711	-0.277938
H42	H	1.472345	-0.441327	-0.138390
C43	C	1.474077	-0.378178	-0.335544
H44	H	1.476375	-0.291344	-0.337208
H45	H	1.400883	-0.390555	-0.351952
H46	H	1.546184	-0.408346	-0.367939
H47	H	1.322954	0.335942	-0.012385
H48	H	1.477731	-0.236364	-0.102050
H49	H	0.850905	0.180133	-0.138391
C50	C	1.652291	0.006830	-0.023325
H51	H	1.702395	-0.043249	0.010286
H52	H	1.704615	0.052189	-0.065333
H53	H	1.606941	-0.045539	-0.040784
C54	C	1.443363	0.421790	0.345998
H55	H	1.445590	0.405539	0.398614
H56	H	1.365033	0.465563	0.337851
H57	H	1.509044	0.471291	0.319037
C58	C	1.298961	0.359982	0.136791
H59	H	1.311028	0.347954	0.187641
H60	H	1.215558	0.345667	0.136576
H61	H	1.313230	0.443397	0.112030
C62	C	1.652319	0.006845	0.136741
H63	H	1.702431	-0.043226	0.103119
H64	H	1.606996	-0.045514	0.178747
H65	H	1.704652	0.052232	0.154202
C66	C	0.914070	0.181806	-0.335542
H67	H	0.856750	0.180308	-0.367520
H68	H	0.973757	0.110501	-0.336791
H69	H	0.955965	0.255801	-0.352789
C70	C	1.507983	-0.054955	0.397731
H71	H	1.505771	-0.038700	0.446824
H72	H	1.586304	-0.098743	0.380901
H73	H	1.442289	-0.104446	0.399700
C74	C	1.037205	0.185208	-0.080823
H75	H	0.950365	0.182969	-0.079166
H76	H	1.049644	0.258466	-0.064503
H77	H	1.067290	0.113162	-0.048351
H78	H	1.478952	-0.191840	-0.277936
C79	C	1.652365	0.006846	0.446872
H80	H	1.702466	-0.043239	0.480483
H81	H	1.704693	0.052209	0.404867
H82	H	1.607017	-0.045517	0.429407
H83	H	1.503582	-0.022527	0.245036
H84	H	1.628341	0.030869	0.596054
H85	H	1.323063	0.335969	0.596102
C86	C	1.299014	0.359997	0.446923
H87	H	1.248922	0.410084	0.480544
H88	H	1.246679	0.314632	0.429456
H89	H	1.344354	0.412359	0.404920
H90	H	1.447716	0.389360	0.200343
