data_functionalizedCrystal
_audit_creation_method	'MofGen! by Chris Wilmer'
_symmetry_space_group_name_H-M	'P1'
_symmetry_Int_Tables_number	1
_symmetry_cell_setting	triclinic
loop_
_symmetry_equiv_pos_as_xyz
  x,y,z
_cell_length_a	16.625546
_cell_length_b	19.805407
_cell_length_c	19.805399
_cell_angle_alpha	90.019573
_cell_angle_beta	89.972133
_cell_angle_gamma	89.977532
loop_
_atom_site_label
_atom_site_type_symbol
_atom_site_fract_x
_atom_site_fract_y
_atom_site_fract_z
Zn1	Zn	-0.321020	-1.034754	-0.382718
Zn2	Zn	-0.455857	-1.034677	-0.269529
Zn3	Zn	-0.321043	-0.921569	-0.269543
Zn4	Zn	-0.455815	-0.921540	-0.382676
O5	O	-0.388434	-0.978135	-0.326117
O6	O	-0.338915	-1.129461	-0.367716
O7	O	-0.438001	-1.019652	-0.174815
O8	O	-0.208207	-0.936628	-0.284579
O9	O	-0.437980	-1.129404	-0.284556
O10	O	-0.208191	-1.019784	-0.367729
O11	O	-0.338953	-0.936553	-0.174825
O12	O	-0.338912	-0.826848	-0.284538
O13	O	-0.437907	-0.936579	-0.477398
O14	O	-0.437928	-0.826827	-0.367657
O15	O	-0.338874	-1.019756	-0.477429
O16	O	-0.568684	-1.019625	-0.284515
O17	O	-0.568653	-0.936504	-0.367644
C18	C	-0.388418	-0.802279	-0.326095
C19	C	-0.388431	-0.727047	-0.326102
C20	C	-0.597925	-0.978071	-0.326088
C21	C	-0.687546	-0.978105	-0.326099
C22	C	-0.388383	-0.978173	-0.502660
C23	C	-0.388361	-0.978189	-0.577892
C24	C	-1.015721	-0.978224	-0.326169
C25	C	-0.924413	-0.978189	-0.326152
C26	C	-0.851636	-0.978164	-0.326134
C27	C	-0.760322	-0.978130	-0.326117
C28	C	-0.178125	-0.978218	-0.326160
C29	C	-0.088504	-0.978253	-0.326178
C30	C	-0.388450	-1.154678	-0.326139
C31	C	-0.388457	-1.229910	-0.326149
C32	C	-0.440067	-0.691710	-0.369311
C33	C	-0.440068	-0.621021	-0.369321
C34	C	-0.388437	-0.585671	-0.326117
C35	C	-0.336796	-0.621014	-0.282905
C36	C	-0.336791	-0.691701	-0.282899
C37	C	-0.336814	-0.335941	-0.282927
C38	C	-0.336825	-0.265248	-0.282935
C39	C	-0.440091	-0.265261	-0.369349
C40	C	-0.440086	-0.335948	-0.369343
C41	C	-0.388442	-0.371284	-0.326134
C42	C	-0.388440	-0.447932	-0.326125
C43	C	-0.388443	-0.509024	-0.326122
C44	C	-0.336792	-1.021501	-0.613253
C45	C	-0.336769	-1.021508	-0.683941
C46	C	-0.388319	-0.978206	-0.719267
C47	C	-0.439890	-0.934889	-0.683901
C48	C	-0.439909	-0.934880	-0.613214
C49	C	-0.439815	-0.934928	-0.968974
C50	C	-0.439794	-0.934942	-1.039667
C51	C	-0.336675	-1.021556	-1.039702
C52	C	-0.336694	-1.021546	-0.969015
C53	C	-0.388262	-0.978227	-0.933655
C54	C	-0.388285	-0.978219	-0.857006
C55	C	-0.388300	-0.978217	-0.795914
C56	C	-0.388426	-0.978136	-0.150261
C57	C	-0.388221	-0.978251	-0.075029
H58	H	-0.482116	-0.592253	-0.404506
N59	N	-0.281094	-0.729819	-0.236300
H60	H	-0.248386	-0.696700	-0.208930
H61	H	-0.313859	-0.759128	-0.204924
N62	N	-0.495767	-0.374078	-0.415944
H63	H	-0.533088	-0.403384	-0.388379
H64	H	-0.528425	-0.340925	-0.443313
H65	H	-0.294769	-0.364703	-0.247739
N66	N	-0.495794	-0.227148	-0.415956
H67	H	-0.487964	-0.177004	-0.409408
H68	H	-0.483323	-0.239530	-0.464314
N69	N	-0.281136	-0.227119	-0.236334
H70	H	-0.248417	-0.260229	-0.208961
H71	H	-0.243873	-0.197809	-0.263947
N72	N	-0.281051	-1.068278	-1.077840
H73	H	-0.288856	-1.061715	-1.127981
H74	H	-0.223468	-1.057768	-1.065492
H75	H	-0.294719	-1.056809	-0.940256
H76	H	-0.294754	-0.592226	-0.247730
H77	H	-0.294817	-1.056764	-0.584496
H78	H	-0.294778	-1.056778	-0.712729
H79	H	-0.481774	-0.899678	-1.068427
H80	H	-0.482113	-0.720486	-0.404491
N81	N	-0.495406	-0.888186	-0.930841
H82	H	-0.528051	-0.860752	-0.963948
H83	H	-0.532741	-0.915692	-0.901495
N84	N	-0.495474	-0.888169	-0.721998
H85	H	-0.487635	-0.894744	-0.772145
H86	H	-0.553069	-0.898666	-0.709637
H87	H	-0.481894	-0.899604	-0.584423
