data_functionalizedCrystal
_audit_creation_method	'MofGen! by Chris Wilmer'
_symmetry_space_group_name_H-M	'P1'
_symmetry_Int_Tables_number	1
_symmetry_cell_setting	triclinic
loop_
_symmetry_equiv_pos_as_xyz
  x,y,z
_cell_length_a	27.732064
_cell_length_b	19.188930
_cell_length_c	18.266242
_cell_angle_alpha	90.011475
_cell_angle_beta	89.998592
_cell_angle_gamma	97.102897
loop_
_atom_site_label
_atom_site_type_symbol
_atom_site_fract_x
_atom_site_fract_y
_atom_site_fract_z
O1	O	0.641179	-0.083134	-0.060758
O2	O	0.500425	-0.095754	-0.060790
O3	O	0.574864	0.012237	-0.060759
O4	O	0.566740	-0.191125	-0.060789
O5	O	0.574852	0.012242	0.061003
O6	O	0.500413	-0.095749	0.060972
O7	O	0.641167	-0.083129	0.061004
Zn8	Zn	0.570788	-0.089438	0.080320
Zn9	Zn	0.570804	-0.089445	-0.080106
O10	O	0.566728	-0.191120	0.060973
C11	C	0.482411	-0.095485	0.000088
C12	C	0.428755	-0.094682	0.000076
C13	C	0.051470	-0.025398	0.000128
C14	C	0.253139	-0.028353	0.000109
O15	O	0.284228	0.025409	0.000144
N16	N	0.272463	-0.092390	0.000096
C17	C	0.241365	-0.155692	0.000093
O18	O	0.262428	-0.210227	0.000089
C19	C	0.039697	-0.152736	0.000118
C20	C	0.020376	-0.088695	0.000123
C21	C	0.032149	0.038638	0.000135
C22	C	-0.018265	0.039376	0.000135
C23	C	-0.049359	-0.023921	0.000130
C24	C	-0.030038	-0.087957	0.000124
C25	C	0.008600	-0.216038	0.000120
C26	C	-0.041820	-0.215293	0.000128
C27	C	-0.061140	-0.151252	0.000133
C28	C	-0.111546	-0.150516	0.000119
N29	N	-0.130869	-0.086479	0.000132
C30	C	-0.099776	-0.023182	0.000138
C31	C	0.347244	-0.157240	0.000078
C32	C	0.397661	-0.157979	0.000071
C33	C	0.409432	-0.030640	0.000088
C34	C	0.359014	-0.029901	0.000091
C35	C	0.327921	-0.093203	0.000091
C36	C	-0.205650	-0.021636	0.000139
C37	C	-0.256069	-0.020904	0.000137
C38	C	-0.267836	-0.148243	0.000123
C39	C	-0.217421	-0.148976	0.000121
C40	C	-0.186328	-0.085667	0.000132
O41	O	-0.142663	-0.204250	0.000092
O42	O	-0.120848	0.031345	0.000158
C43	C	0.101884	-0.026136	0.000127
C44	C	0.121205	-0.090171	0.000121
C45	C	0.090112	-0.153469	0.000116
C46	C	0.171622	-0.090911	0.000114
C47	C	0.202716	-0.027613	0.000119
C48	C	0.183392	0.036424	0.000132
C49	C	0.132978	0.037162	0.000133
C50	C	0.109435	-0.217506	0.000103
C51	C	0.159850	-0.218239	0.000101
C52	C	0.190943	-0.154941	0.000107
C53	C	0.574595	0.038249	0.000124
C54	C	0.573805	0.115749	0.000130
C55	C	0.659180	-0.083398	0.000125
C56	C	0.712837	-0.084201	0.000131
C57	C	0.566997	-0.217132	0.000088
C58	C	0.567787	-0.294632	0.000077
N59	N	0.570780	-0.089433	0.189807
C60	C	0.617483	0.160947	0.000144
C61	C	0.616741	0.233767	0.000132
C62	C	0.572319	0.261384	0.000121
C63	C	0.528635	0.216175	0.000104
C64	C	0.529378	0.143357	0.000108
N65	N	0.538359	0.369177	0.041552
N66	N	0.537656	0.438351	0.041549
C67	C	0.570077	0.480778	0.000106
N68	N	0.603235	0.451419	-0.041325
N69	N	0.603940	0.382239	-0.041319
C70	C	0.571508	0.340341	0.000116
C71	C	0.612954	0.604936	0.000105
C72	C	0.612210	0.677756	0.000089
C73	C	0.524102	0.660163	0.000068
C74	C	0.524847	0.587345	0.000078
C75	C	0.569274	0.559736	0.000099
N76	N	0.570816	-0.089445	-0.189593
C77	C	0.603752	-0.041637	0.228130
C78	C	0.603755	-0.041634	0.304775
C79	C	0.570791	-0.089438	0.343094
C80	C	0.537812	-0.137237	0.304762
C81	C	0.537807	-0.137234	0.228119
N82	N	0.564508	-0.151285	0.463416
N83	N	0.564516	-0.151285	0.536225
C84	C	0.570804	-0.089448	0.574017
N85	N	0.577094	-0.027608	0.536250
N86	N	0.577088	-0.027608	0.463435
C87	C	0.570793	-0.089446	0.426201
C88	C	0.603782	-0.041645	0.695446
C89	C	0.603781	-0.041641	0.772093
C90	C	0.537841	-0.137250	0.772079
C91	C	0.537839	-0.137248	0.695434
C92	C	0.570812	-0.089447	0.657122
H93	H	-0.180340	0.029916	0.000147
H94	H	0.630599	-0.002713	0.196939
H95	H	0.487932	0.682648	0.000056
C96	C	0.476800	0.537621	0.000072
C97	C	0.477615	0.457524	0.000076
C98	C	0.429565	0.407800	0.000068
C99	C	0.380700	0.438172	0.000055
C100	C	0.379883	0.518273	0.000051
C101	C	0.427932	0.567998	0.000060
H102	H	0.513790	0.435037	0.000085
H103	H	0.430170	0.348504	0.000071
H104	H	0.345130	0.401364	0.000049
H105	H	0.343708	0.540761	0.000042
H106	H	0.427327	0.627294	0.000057
C107	C	0.640052	0.010937	0.814253
C108	C	0.676330	0.063500	0.772110
C109	C	0.712602	0.116079	0.814272
C110	C	0.712596	0.116094	0.898576
C111	C	0.676317	0.063529	0.940724
C112	C	0.640045	0.010951	0.898562
H113	H	0.676336	0.063490	0.709698
H114	H	0.739458	0.154991	0.783071
H115	H	0.739446	0.155016	0.929787
H116	H	0.676311	0.063539	1.003136
H117	H	0.613189	-0.027961	0.929763
H118	H	0.510956	-0.176156	0.196916
H119	H	0.510998	-0.176170	0.803278
C120	C	0.066347	0.108274	0.000136
C121	C	0.064268	0.160912	0.063364
C122	C	0.098462	0.230552	0.063358
C123	C	0.134734	0.247556	0.000123
C124	C	0.136814	0.194916	-0.063111
C125	C	0.102620	0.125275	-0.063104
H126	H	0.037416	0.148326	0.110179
H127	H	0.096922	0.269519	0.110168
H128	H	0.160046	0.299108	0.000118
H129	H	0.163666	0.207502	-0.109925
H130	H	0.104160	0.086308	-0.109914
C131	C	0.479769	0.246551	0.000092
C132	C	0.467134	0.294204	0.063315
C133	C	0.418267	0.324579	0.063299
C134	C	0.382035	0.307301	0.000059
C135	C	0.394670	0.259646	-0.063168
C136	C	0.443537	0.229271	-0.063152
H137	H	0.493956	0.306996	0.110133
H138	H	0.408915	0.359857	0.110104
H139	H	0.345861	0.329787	0.000047
H140	H	0.367848	0.246854	-0.109986
H141	H	0.452889	0.193993	-0.109957
H142	H	0.630606	-0.002712	0.335983
H143	H	0.652310	0.270574	0.000139
C144	C	0.029840	-0.286488	0.000123
C145	C	0.018041	-0.338891	0.063356
C146	C	0.039277	-0.409347	0.063363
C147	C	0.072313	-0.427400	0.000138
C148	C	0.084114	-0.374996	-0.063100
C149	C	0.062877	-0.304539	-0.063107
H150	H	-0.006416	-0.325528	0.110164
H151	H	0.030541	-0.448140	0.110176
H152	H	0.088033	-0.479556	0.000143
H153	H	0.108570	-0.388358	-0.109908
H154	H	0.071613	-0.265746	-0.109920
C155	C	0.661821	0.574560	0.000123
C156	C	0.709869	0.624283	0.000128
C157	C	0.758736	0.593909	0.000148
C158	C	0.759556	0.513813	0.000162
C159	C	0.711507	0.464086	0.000157
C160	C	0.662639	0.494460	0.000138
H161	H	0.709264	0.683579	0.000118
H162	H	0.794306	0.630721	0.000151
H163	H	0.795731	0.491329	0.000176
H164	H	0.712112	0.404790	0.000168
H165	H	0.627070	0.457648	0.000134
C166	C	0.217602	0.106052	0.000140
C167	C	0.253881	0.123048	0.063371
C168	C	0.288093	0.192672	0.063383
C169	C	0.286025	0.245300	0.000165
C170	C	0.249744	0.228305	-0.063071
C171	C	0.215533	0.158681	-0.063084
H172	H	0.255413	0.084089	0.110173
H173	H	0.314951	0.205253	0.110195
H174	H	0.311351	0.296840	0.000174
H175	H	0.248212	0.267264	-0.109874
H176	H	0.188675	0.146100	-0.109895
H177	H	0.510991	-0.176170	0.664230
C178	C	0.501551	-0.189824	0.346909
C179	C	0.501578	-0.189863	0.431214
C180	C	0.465314	-0.242450	0.473360
C181	C	0.429022	-0.294996	0.431201
C182	C	0.428994	-0.294958	0.346892
C183	C	0.465258	-0.242372	0.304746
H184	H	0.528444	-0.150964	0.462427
H185	H	0.465335	-0.242477	0.535772
H186	H	0.402177	-0.333923	0.462400
H187	H	0.402128	-0.333858	0.315679
H188	H	0.465237	-0.242344	0.242334
C189	C	-0.039511	0.109825	0.000149
C190	C	-0.027713	0.162248	0.063385
C191	C	-0.048954	0.232701	0.063400
C192	C	-0.081993	0.250731	0.000179
C193	C	-0.093793	0.198306	-0.063062
C194	C	-0.072552	0.127853	-0.063077
H195	H	-0.003254	0.148903	0.110189
H196	H	-0.040218	0.271509	0.110216
H197	H	-0.097716	0.302884	0.000190
H198	H	-0.118252	0.211651	-0.109867
H199	H	-0.081287	0.089045	-0.109893
H200	H	0.493809	0.106556	0.000098
H201	H	0.647779	0.714557	0.000096
H202	H	0.653659	0.138474	0.000159
H203	H	-0.271797	0.031248	0.000139
C204	C	0.313046	-0.226879	0.000074
C205	C	0.315126	-0.279506	-0.063165
C206	C	0.280931	-0.349146	-0.063173
C207	C	0.244657	-0.366159	0.000058
C208	C	0.242576	-0.313530	0.063301
C209	C	0.276771	-0.243890	0.063309
H210	H	0.341980	-0.266913	-0.109976
H211	H	0.282472	-0.388105	-0.109990
H212	H	0.219344	-0.417710	0.000052
H213	H	0.215722	-0.326123	0.110112
H214	H	0.275230	-0.204932	0.110126
H215	H	0.630629	-0.002720	0.664252
H216	H	0.343287	0.022247	0.000095
H217	H	0.434757	0.020900	0.000090
H218	H	0.413387	-0.210128	0.000056
H219	H	-0.201690	-0.201123	0.000116
C220	C	-0.076022	-0.284928	0.000125
C221	C	-0.073945	-0.337561	-0.063109
C222	C	-0.108146	-0.407195	-0.063114
C223	C	-0.144424	-0.424195	0.000113
C224	C	-0.146503	-0.371561	0.063351
C225	C	-0.112302	-0.301927	0.063357
H226	H	-0.047088	-0.324977	-0.109918
H227	H	-0.106608	-0.446158	-0.109928
H228	H	-0.169742	-0.475742	0.000109
H229	H	-0.173359	-0.384144	0.110160
H230	H	-0.113840	-0.262964	0.110170
H231	H	-0.293161	-0.199778	0.000115
H232	H	0.117253	0.089310	0.000137
H233	H	0.175575	-0.270392	0.000092
H234	H	0.084123	-0.269051	0.000100
