data_functionalizedCrystal
_audit_creation_method	'MofGen! by Chris Wilmer'
_symmetry_space_group_name_H-M	'P1'
_symmetry_Int_Tables_number	1
_symmetry_cell_setting	triclinic
loop_
_symmetry_equiv_pos_as_xyz
  x,y,z
_cell_length_a	19.805405
_cell_length_b	12.759401
_cell_length_c	12.759393
_cell_angle_alpha	90.020030
_cell_angle_beta	89.962167
_cell_angle_gamma	89.976628
loop_
_atom_site_label
_atom_site_type_symbol
_atom_site_fract_x
_atom_site_fract_y
_atom_site_fract_z
Zn1	Zn	-0.269477	-1.606158	-0.594011
Zn2	Zn	0.230523	-1.106158	-0.094011
Zn3	Zn	-0.382682	-1.606020	-0.418313
Zn4	Zn	0.117318	-1.106020	0.081687
Zn5	Zn	-0.269506	-1.430464	-0.418343
Zn6	Zn	0.230494	-0.930464	0.081657
Zn7	Zn	-0.382623	-1.430413	-0.593946
Zn8	Zn	0.117377	-0.930413	-0.093946
O9	O	-0.326072	-1.518264	-0.506153
O10	O	0.173928	-1.018264	-0.006153
O11	O	-0.284506	-1.753161	-0.570719
O12	O	0.215494	-1.253161	-0.070719
O13	O	-0.367706	-1.582696	-0.271296
O14	O	0.132294	-1.082696	0.228704
O15	O	-0.174786	-1.453849	-0.441685
O16	O	0.325214	-0.953849	0.058315
O17	O	-0.367677	-1.753059	-0.441634
O18	O	0.132323	-1.253059	0.058366
O19	O	-0.174764	-1.582931	-0.570748
O20	O	0.325236	-1.082931	-0.070748
O21	O	-0.284556	-1.453715	-0.271318
O22	O	0.215444	-0.953715	0.228682
O23	O	-0.284499	-1.283436	-0.441622
O24	O	0.215501	-0.783436	0.058378
O25	O	-0.367577	-1.453763	-0.740976
O26	O	0.132423	-0.953763	-0.240976
O27	O	-0.367606	-1.283399	-0.570637
O28	O	0.132394	-0.783399	-0.070637
O29	O	-0.284449	-1.582882	-0.741024
O30	O	0.215551	-1.082882	-0.241024
O31	O	-0.477391	-1.582646	-0.441571
O32	O	0.022609	-1.082646	0.058429
O33	O	-0.477348	-1.453629	-0.570608
O34	O	0.022652	-0.953629	-0.070608
C35	C	-0.326050	-1.245296	-0.506126
C36	C	0.173950	-0.745296	-0.006126
C37	C	-0.326057	-1.128520	-0.506140
C38	C	0.173943	-0.628520	-0.006140
C39	C	-0.282733	-0.963921	-0.439088
C40	C	0.217267	-0.463921	0.060912
C41	C	-0.282724	-1.073646	-0.439079
C42	C	0.217276	-0.573646	0.060921
C43	C	-0.369396	-1.073664	-0.573221
C44	C	0.130604	-0.573664	-0.073221
C45	C	-0.369402	-0.963942	-0.573235
C46	C	0.130598	-0.463942	-0.073235
C47	C	-0.232696	-0.963912	-0.361639
C48	C	0.267304	-0.463912	0.138361
C49	C	-0.232686	-1.073636	-0.361630
C50	C	0.267314	-0.573636	0.138370
C51	C	-0.501928	-1.518146	-0.506102
C52	C	-0.001928	-1.018146	-0.006102
C53	C	-0.577160	-1.518191	-0.506116
C54	C	-0.077160	-1.018191	-0.006116
C55	C	-0.612504	-1.585436	-0.438997
C56	C	-0.112504	-1.085436	0.061003
C57	C	-0.683193	-1.585481	-0.439020
C58	C	-0.183193	-1.085481	0.060980
C59	C	-0.718536	-1.518274	-0.506158
C60	C	-0.218536	-1.018274	-0.006158
C61	C	-0.683186	-1.451027	-0.573284
C62	C	-0.183186	-0.951027	-0.073284
C63	C	-0.612499	-1.450988	-0.573266
C64	C	-0.112499	-0.950988	-0.073266
C65	C	-0.968260	-1.451181	-0.573362
C66	C	-0.468260	-0.951181	-0.073362
C67	C	-1.038952	-1.451223	-0.573374
C68	C	-0.538952	-0.951223	-0.073374
C69	C	-1.038953	-1.585674	-0.439116
C70	C	-0.538953	-1.085674	0.060884
C71	C	-0.968266	-1.585636	-0.439098
C72	C	-0.468266	-1.085636	0.060902
C73	C	-0.932923	-1.518392	-0.506228
C74	C	-0.432923	-1.018392	-0.006228
C75	C	-0.856275	-1.518346	-0.506203
C76	C	-0.356275	-1.018346	-0.006203
C77	C	-0.795183	-1.518314	-0.506178
C78	C	-0.295183	-1.018314	-0.006178
C79	C	-0.149529	-1.518411	-0.506227
C80	C	0.350471	-1.018411	-0.006227
C81	C	-0.074297	-1.518474	-0.506259
C82	C	0.425703	-1.018474	-0.006259
C83	C	-0.326003	-1.518332	-0.780187
C84	C	0.173997	-1.018332	-0.280187
C85	C	-0.325974	-1.518361	-0.896963
C86	C	0.174026	-1.018361	-0.396963
C87	C	-0.326087	-0.792297	-0.506173
C88	C	0.173913	-0.292297	-0.006173
C89	C	-0.326071	-0.909074	-0.506162
C90	C	0.173929	-0.409074	-0.006162
C91	C	-0.282670	-1.451229	-0.951843
C92	C	0.217330	-0.951229	-0.451843
C93	C	-0.282650	-1.451261	-1.061567
C94	C	0.217350	-0.951261	-0.561567
C95	C	-0.369239	-1.585565	-1.061523
C96	C	0.130761	-1.085565	-0.561523
C97	C	-0.369262	-1.585528	-0.951800
C98	C	0.130738	-1.085528	-0.451800
C99	C	-0.232676	-1.373693	-0.951869
C100	C	0.267324	-0.873693	-0.451869
C101	C	-0.232655	-1.373725	-1.061594
C102	C	0.267345	-0.873725	-0.561594
C103	C	-0.326092	-1.518256	-0.233186
C104	C	0.173908	-1.018256	0.266814
C105	C	-0.325931	-1.518431	-0.116410
C106	C	0.174069	-1.018431	0.383590
H107	H	-0.404686	-0.919289	-0.627862
H108	H	0.095314	-0.419289	-0.127862
H109	H	-0.711968	-1.396311	-0.627954
H110	H	-0.211968	-0.896311	-0.127954
F111	F	-0.257187	-1.272693	-1.106065
F112	F	0.242813	-0.772693	-0.606065
H113	H	-0.583723	-1.396232	-0.627922
H114	H	-0.083723	-0.896232	-0.127922
H115	H	-0.404535	-1.640177	-0.907122
H116	H	0.095465	-1.140177	-0.407122
F117	F	-1.076565	-1.379691	-0.644836
F118	F	-0.576565	-0.879691	-0.144836
F119	F	-0.930655	-1.657165	-0.367640
F120	F	-0.430655	-1.157165	0.132360
H121	H	-0.939489	-1.396428	-0.628020
H122	H	-0.439489	-0.896428	-0.128020
F123	F	-0.164109	-1.402145	-1.100558
F124	F	0.335891	-0.902145	-0.600558
F125	F	-0.415511	-1.132069	-0.644598
F126	F	0.084489	-0.632069	-0.144598
F127	F	-0.164201	-0.925036	-0.390318
F128	F	0.335799	-0.425036	0.109682
F129	F	-0.415308	-1.657044	-1.119893
F130	F	0.084692	-1.157044	-0.619893
H131	H	-0.251418	-0.929833	-0.284298
H132	H	0.248582	-0.429833	0.215702
H133	H	-0.246710	-1.292299	-0.922086
H134	H	0.253290	-0.792299	-0.422086
F135	F	-0.167605	-1.411833	-0.907415
F136	F	0.332395	-0.911833	-0.407415
H137	H	-0.182908	-1.107704	-0.390912
H138	H	0.317092	-0.607704	0.109088
H139	H	-0.246666	-1.103370	-0.280217
H140	H	0.253334	-0.603370	0.219783
F141	F	-0.574896	-1.656961	-0.367531
F142	F	-0.074896	-1.156961	0.132469
H143	H	-0.711967	-1.640237	-0.384364
H144	H	-0.211967	-1.140237	0.115636
H145	H	-1.067738	-1.640431	-0.384460
H146	H	-0.567738	-1.140431	0.115540
