data_functionalizedCrystal
_audit_creation_method	'MofGen! by Chris Wilmer'
_symmetry_space_group_name_H-M	'P1'
_symmetry_Int_Tables_number	1
_symmetry_cell_setting	triclinic
loop_
_symmetry_equiv_pos_as_xyz
  x,y,z
_cell_length_a	14.519709
_cell_length_b	14.519731
_cell_length_c	13.596369
_cell_angle_alpha	90.011346
_cell_angle_beta	89.999709
_cell_angle_gamma	83.684500
loop_
_atom_site_label
_atom_site_type_symbol
_atom_site_fract_x
_atom_site_fract_y
_atom_site_fract_z
O1	O	-1.223878	-0.120892	-0.081675
O2	O	-0.890544	0.212442	0.251658
O3	O	-0.557211	0.545775	0.584991
O4	O	-0.955402	-0.135128	-0.081707
O5	O	-0.622069	0.198205	0.251626
O6	O	-0.288735	0.531539	0.584960
O7	O	-1.096748	0.006227	-0.081670
O8	O	-0.763414	0.339561	0.251663
O9	O	-0.430081	0.672894	0.584996
O10	O	-1.082532	-0.262247	-0.081712
O11	O	-0.749198	0.071086	0.251621
O12	O	-0.415865	0.404420	0.584955
O13	O	-1.096734	0.006235	0.081912
O14	O	-0.763400	0.339568	0.415246
O15	O	-0.430067	0.672902	0.748579
O16	O	-0.955388	-0.135120	0.081876
O17	O	-0.622054	0.198213	0.415209
O18	O	-0.288721	0.531546	0.748543
O19	O	-1.223864	-0.120884	0.081908
O20	O	-0.890530	0.212449	0.415241
O21	O	-0.557197	0.545783	0.748574
Zn22	Zn	-1.089623	-0.128001	0.107864
Zn23	Zn	-0.756290	0.205332	0.441197
Zn24	Zn	-0.422957	0.538666	0.774531
Zn25	Zn	-1.089642	-0.128011	-0.107663
Zn26	Zn	-0.756309	0.205322	0.225670
Zn27	Zn	-0.422975	0.538656	0.559003
O28	O	-1.082518	-0.262239	0.081871
O29	O	-0.749184	0.071094	0.415204
O30	O	-0.415851	0.404427	0.748538
C31	C	-0.921035	-0.134461	0.000081
C32	C	-0.587702	0.198873	0.333414
C33	C	-0.254368	0.532206	0.666747
C34	C	-0.818654	-0.132473	0.000070
C35	C	-0.485320	0.200861	0.333403
C36	C	-0.151987	0.534194	0.666736
C37	C	-1.096075	0.040591	0.000124
C38	C	-0.762741	0.373924	0.333457
C39	C	-0.429408	0.707257	0.666791
C40	C	-1.094079	0.142971	0.000133
C41	C	-0.760745	0.476304	0.333466
C42	C	-0.427412	0.809637	0.666799
C43	C	-1.258230	-0.121551	0.000118
C44	C	-0.924897	0.211782	0.333451
C45	C	-0.591564	0.545115	0.666784
C46	C	-1.360612	-0.123539	0.000122
C47	C	-1.027279	0.209794	0.333456
C48	C	-0.693945	0.543127	0.666789
C49	C	-0.443757	-0.125153	0.000116
C50	C	-0.110424	0.208180	0.333449
C51	C	0.222909	0.541514	0.666782
C52	C	-0.548065	-0.127186	0.000102
C53	C	-0.214732	0.206148	0.333436
C54	C	0.118601	0.539481	0.666769
C55	C	-0.631202	-0.128813	0.000092
C56	C	-0.297869	0.204521	0.333425
C57	C	0.035465	0.537854	0.666758
C58	C	-0.735517	-0.130846	0.000080
C59	C	-0.402183	0.202488	0.333414
C60	C	-0.068850	0.535821	0.666747
C61	C	-1.092457	0.226115	0.000137
C62	C	-0.759123	0.559448	0.333470
C63	C	-0.425790	0.892782	0.666804
C64	C	-1.090430	0.330424	0.000138
C65	C	-0.757097	0.663757	0.333471
C66	C	-0.423763	0.997090	0.666804
C67	C	-1.088822	0.413563	0.000138
C68	C	-0.755488	0.746896	0.333471
C69	C	-0.422155	1.080229	0.666805
C70	C	-1.086795	0.517878	0.000141
C71	C	-0.753462	0.851211	0.333474
C72	C	-0.420129	1.184545	0.666807
N73	N	-1.089617	-0.127994	0.254956
N74	N	-0.756284	0.205340	0.588289
N75	N	-0.422951	0.538673	0.921623
C76	C	-1.083191	0.703397	0.000095
C77	C	-0.749858	1.036731	0.333428
C78	C	-0.416524	1.370064	0.666762
C79	C	-1.085187	0.601017	0.000141
C80	C	-0.751854	0.934351	0.333474
C81	C	-0.418520	1.267684	0.666808
N82	N	-1.089655	-0.128011	-0.254755
N83	N	-0.756322	0.205322	0.078578
N84	N	-0.422989	0.538656	0.411911
C85	C	-1.089641	-0.128012	0.656247
C86	C	-0.756307	0.205321	0.989580
C87	C	-0.422974	0.538655	1.322914
C88	C	-1.089632	-0.128010	0.544595
C89	C	-0.756298	0.205323	0.877929
C90	C	-0.422965	0.538657	1.211262
C91	C	-1.089630	-0.128004	0.455605
C92	C	-0.756296	0.205330	0.788938
C93	C	-0.422963	0.538663	1.122272
C94	C	-1.089619	-0.128000	0.343946
C95	C	-0.756286	0.205333	0.677280
C96	C	-0.422953	0.538666	1.010613
