data_functionalizedCrystal
_audit_creation_method	'MofGen! by Chris Wilmer'
_symmetry_space_group_name_H-M	'P1'
_symmetry_Int_Tables_number	1
_symmetry_cell_setting	triclinic
loop_
_symmetry_equiv_pos_as_xyz
  x,y,z
_cell_length_a	23.532407
_cell_length_b	17.699083
_cell_length_c	16.776229
_cell_angle_alpha	90.007545
_cell_angle_beta	89.998190
_cell_angle_gamma	96.934154
loop_
_atom_site_label
_atom_site_type_symbol
_atom_site_fract_x
_atom_site_fract_y
_atom_site_fract_z
O1	O	0.755525	-0.091879	-0.066190
O2	O	1.255525	0.408121	0.433810
O3	O	0.589700	-0.105173	-0.066214
O4	O	1.089700	0.394827	0.433786
O5	O	0.677298	0.011687	-0.066194
O6	O	1.177298	0.511687	0.433806
O7	O	0.667928	-0.208739	-0.066210
O8	O	1.167928	0.291261	0.433790
O9	O	0.677286	0.011694	0.066382
O10	O	1.177286	0.511694	0.566382
O11	O	0.589689	-0.105166	0.066363
O12	O	1.089689	0.394834	0.566363
O13	O	0.755514	-0.091872	0.066386
O14	O	1.255514	0.408128	0.566386
Zn15	Zn	0.672599	-0.098518	0.087424
Zn16	Zn	1.172599	0.401482	0.587424
Zn17	Zn	0.672615	-0.098527	-0.087252
Zn18	Zn	1.172615	0.401473	0.412748
O19	O	0.667916	-0.208732	0.066367
O20	O	1.167916	0.291268	0.566367
C21	C	0.568478	-0.104831	0.000071
C22	C	1.068478	0.395169	0.500071
C23	C	0.505258	-0.103813	0.000063
C24	C	1.005258	0.396187	0.500063
C25	C	0.676956	0.039886	0.000094
C26	C	1.176956	0.539886	0.500094
C27	C	0.675949	0.123899	0.000094
C28	C	1.175949	0.623899	0.500094
C29	C	0.668258	-0.236931	0.000077
C30	C	1.168258	0.263069	0.500077
C31	C	0.669265	-0.320944	0.000071
C32	C	1.169265	0.179056	0.500071
C33	C	0.106335	-0.166585	0.000094
C34	C	0.606335	0.333415	0.500094
C35	C	0.046932	-0.165639	0.000099
C36	C	0.546932	0.334361	0.500099
O37	O	0.010354	-0.223829	0.000124
O38	O	0.510354	0.276171	0.500124
N39	N	0.024106	-0.096166	0.000103
N40	N	0.524106	0.403834	0.500103
C41	C	0.060687	-0.027634	0.000109
C42	C	0.560687	0.472366	0.500109
O43	O	0.035817	0.031545	0.000114
O44	O	0.535817	0.531545	0.500114
C45	C	0.120089	-0.028580	0.000110
C46	C	0.620089	0.471420	0.500110
C47	C	0.142911	-0.098058	0.000099
C48	C	0.642911	0.401942	0.500099
C49	C	0.129158	-0.236057	0.000084
C50	C	0.629158	0.263943	0.500084
C51	C	0.188557	-0.237002	0.000077
C52	C	0.688557	0.262998	0.500077
C53	C	0.225133	-0.168475	0.000081
C54	C	0.725133	0.331525	0.500081
C55	C	0.202310	-0.099003	0.000092
C56	C	0.702310	0.400997	0.500092
C57	C	0.156668	0.039951	0.000123
C58	C	0.656668	0.539951	0.500123
C59	C	0.216073	0.038999	0.000124
C60	C	0.716073	0.538999	0.500124
C61	C	0.238896	-0.030479	0.000112
C62	C	0.738896	0.469521	0.500112
C63	C	0.298285	-0.031421	0.000090
C64	C	0.798285	0.468579	0.500090
N65	N	0.321110	-0.100894	0.000086
N66	N	0.821110	0.399106	0.500086
C67	C	0.284534	-0.169421	0.000082
C68	C	0.784534	0.330579	0.500082
C69	C	-0.064061	-0.025652	0.000109
C70	C	0.435939	0.474348	0.500109
C71	C	-0.123462	-0.024705	0.000103
C72	C	0.376538	0.475295	0.500103
C73	C	-0.137213	-0.162710	0.000094
C74	C	0.362787	0.337290	0.500094
C75	C	-0.077811	-0.163657	0.000095
C76	C	0.422189	0.336343	0.500095
C77	C	-0.041236	-0.095125	0.000106
C78	C	0.458764	0.404875	0.500106
C79	C	0.409277	-0.171401	0.000068
C80	C	0.909277	0.328599	0.500068
C81	C	0.468682	-0.172340	0.000058
C82	C	0.968682	0.327660	0.500058
C83	C	0.482427	-0.034335	0.000071
C84	C	0.982427	0.465665	0.500071
C85	C	0.423028	-0.033395	0.000077
C86	C	0.923028	0.466605	0.500077
C87	C	0.386453	-0.101935	0.000078
C88	C	0.886453	0.398065	0.500078
O89	O	0.334897	0.026738	0.000068
O90	O	0.834897	0.526738	0.500068
O91	O	0.309412	-0.228591	0.000088
O92	O	0.809412	0.271409	0.500088
C93	C	0.776737	-0.092214	0.000099
C94	C	1.276737	0.407786	0.500099
C95	C	0.839957	-0.093232	0.000103
C96	C	1.339957	0.406768	0.500103
N97	N	0.672593	-0.098511	0.206635
N98	N	1.172593	0.401489	0.706635
C99	C	0.727367	0.172781	0.000102
C100	C	1.227367	0.672781	0.500102
C101	C	0.726417	0.251719	0.000095
C102	C	1.226417	0.751719	0.500095
C103	C	0.674049	0.281774	0.000085
C104	C	1.174049	0.781774	0.500085
C105	C	0.622627	0.232886	0.000074
C106	C	1.122627	0.732886	0.500074
C107	C	0.623577	0.153949	0.000076
C108	C	1.123577	0.653949	0.500076
C109	C	0.618793	0.551230	0.000067
C110	C	1.118793	1.051230	0.500067
C111	C	0.617847	0.630173	0.000068
C112	C	1.117847	1.130173	0.500068
C113	C	0.721633	0.649000	0.000087
C114	C	1.221633	1.149000	0.500087
C115	C	0.722583	0.570063	0.000088
C116	C	1.222583	1.070063	0.500088
C117	C	0.671162	0.521181	0.000073
C118	C	1.171162	1.021181	0.500073
C119	C	0.672192	0.435587	0.000079
C120	C	1.172192	0.935587	0.500079
C121	C	0.673018	0.367366	0.000085
C122	C	1.173018	0.867366	0.500085
N123	N	0.672626	-0.098528	-0.206463
N124	N	1.172626	0.401472	0.293537
C125	C	0.711393	-0.046787	0.248361
C126	C	1.211393	0.453213	0.748361
C127	C	0.711396	-0.046786	0.331813
C128	C	1.211396	0.453214	0.831813
C129	C	0.672602	-0.098514	0.373538
C130	C	1.172602	0.401486	0.873538
C131	C	0.633798	-0.150241	0.331806
C132	C	1.133798	0.349759	0.831806
C133	C	0.633792	-0.150237	0.248356
C134	C	1.133792	0.349763	0.748356
C135	C	0.633818	-0.150256	0.668353
C136	C	1.133818	0.349744	1.168353
C137	C	0.633828	-0.150257	0.751810
C138	C	1.133828	0.349743	1.251810
C139	C	0.711422	-0.046804	0.751811
C140	C	1.211422	0.453196	1.251811
C141	C	0.711417	-0.046801	0.668360
C142	C	1.211417	0.453199	1.168360
C143	C	0.672611	-0.098525	0.626636
C144	C	1.172611	0.401475	1.126636
C145	C	0.672607	-0.098524	0.536147
C146	C	1.172607	0.401476	1.036147
C147	C	0.672608	-0.098519	0.464025
C148	C	1.172608	0.401481	0.964025
H149	H	0.379504	-0.227212	0.000071
H150	H	0.879504	0.272788	0.500071
O151	O	0.563335	0.498511	0.000055
O152	O	1.063335	0.998511	0.500055
H153	H	0.561284	0.462097	0.054087
H154	H	1.061284	0.962097	0.554087
O155	O	-0.024614	0.048271	0.000115
O156	O	0.475386	0.548271	0.500115
H157	H	0.002783	0.051141	-0.053917
H158	H	0.502783	0.551141	0.446083
O159	O	0.213169	-0.311938	0.000088
O160	O	0.713169	0.188062	0.500088
H161	H	0.177749	-0.359424	0.000100
H162	H	0.677749	0.140576	0.500100
O163	O	0.753232	0.009022	0.203370
O164	O	1.253232	0.509022	0.703370
H165	H	0.729302	0.045642	0.165366
H166	H	1.229302	0.545642	0.665366
O167	O	0.781874	0.304445	0.000103
O168	O	1.281874	0.804445	0.500103
H169	H	0.783914	0.340873	0.054134
H170	H	1.283914	0.840873	0.554134
H171	H	0.404445	0.023179	0.000074
H172	H	0.904445	0.523179	0.500074
O173	O	0.753257	0.008994	0.376810
O174	O	1.253257	0.508994	0.876810
H175	H	0.746096	0.067952	0.360799
H176	H	1.246096	0.567952	0.860799
H177	H	-0.142038	0.031871	0.000100
H178	H	0.357962	0.531871	0.500100
H179	H	0.245851	0.094807	0.000133
H180	H	0.745851	0.594807	0.500133
O181	O	0.493298	-0.247279	0.000058
O182	O	0.993298	0.252721	0.500058
H183	H	0.457881	-0.294769	0.000069
H184	H	0.957881	0.205231	0.500069
O185	O	0.089711	-0.309974	0.000075
O186	O	0.589711	0.190026	0.500075
H187	H	0.115571	-0.358433	0.000063
H188	H	0.615571	0.141567	0.500063
H189	H	0.743009	-0.004681	0.634390
H190	H	1.243009	0.495319	1.134390
O191	O	0.561360	0.662591	0.000059
O192	O	1.061360	1.162591	0.500059
H193	H	0.558456	0.698108	-0.053972
H194	H	1.058456	1.198108	0.446028
H195	H	0.581708	0.114149	0.000069
H196	H	1.081708	0.614149	0.500069
H197	H	-0.059234	-0.220231	0.000090
H198	H	0.440766	0.279769	0.500090
H199	H	0.763503	0.688809	0.000095
H200	H	1.263503	1.188809	0.500095
H201	H	0.138097	0.096527	0.000133
H202	H	0.638097	0.596527	0.500133
H203	H	0.579988	0.257363	0.000061
H204	H	1.079988	0.757363	0.500061
H205	H	0.602222	-0.192373	0.634388
H206	H	1.102222	0.307627	1.134388
O207	O	0.521882	0.039575	0.000076
O208	O	1.021882	0.539575	0.500076
H209	H	0.513776	0.072844	0.054116
H210	H	1.013776	0.572844	0.554116
H211	H	0.743019	-0.004685	0.785792
H212	H	1.243019	0.495315	1.285792
H213	H	0.770011	0.148316	0.000115
H214	H	1.270011	0.648316	0.500115
H215	H	0.765227	0.545597	0.000100
H216	H	1.265227	1.045597	0.500100
O217	O	0.591992	-0.206063	0.796819
O218	O	1.091992	0.293937	1.296819
H219	H	0.565007	-0.242030	0.753786
H220	H	1.065007	0.257970	1.253786
H221	H	-0.167004	-0.218509	0.000094
H222	H	0.332996	0.281491	0.500094
H223	H	0.602208	-0.192357	0.365784
H224	H	1.102208	0.307643	0.865784
O225	O	0.591947	-0.206029	0.203345
O226	O	1.091947	0.293971	0.703345
H227	H	0.564975	-0.242005	0.246377
H228	H	1.064975	0.257995	0.746377
