data_functionalizedCrystal
_audit_creation_method	'MofGen! by Chris Wilmer'
_symmetry_space_group_name_H-M	'P1'
_symmetry_Int_Tables_number	1
_symmetry_cell_setting	triclinic
loop_
_symmetry_equiv_pos_as_xyz
  x,y,z
_cell_length_a	12.645331
_cell_length_b	12.594516
_cell_length_c	12.645324
_cell_angle_alpha	89.969158
_cell_angle_beta	89.977038
_cell_angle_gamma	90.015032
loop_
_atom_site_label
_atom_site_type_symbol
_atom_site_fract_x
_atom_site_fract_y
_atom_site_fract_z
Zn1	Zn	1.620746	-0.423690	-0.599453
Zn2	Zn	2.120746	0.076310	-0.099453
Zn3	Zn	1.620632	-0.601715	-0.422196
Zn4	Zn	2.120632	-0.101715	0.077804
Zn5	Zn	1.443460	-0.423748	-0.422197
Zn6	Zn	1.943460	0.076252	0.077803
Zn7	Zn	1.443448	-0.601624	-0.599411
Zn8	Zn	1.943448	-0.101624	-0.099411
O9	O	1.532072	-0.512694	-0.510814
O10	O	2.032072	-0.012694	-0.010814
O11	O	1.769078	-0.447320	-0.575956
O12	O	2.269078	0.052680	-0.075956
O13	O	1.597087	-0.578169	-0.273849
O14	O	2.097087	-0.078169	0.226151
O15	O	1.467030	-0.274794	-0.445729
O16	O	1.967030	0.225206	0.054271
O17	O	1.768995	-0.578114	-0.445726
O18	O	2.268995	-0.078114	0.054274
O19	O	1.597282	-0.274752	-0.575958
O20	O	2.097282	0.225248	-0.075958
O21	O	1.466920	-0.447417	-0.273850
O22	O	1.966920	0.052583	0.226150
O23	O	1.295111	-0.447329	-0.445688
O24	O	1.795111	0.052671	0.054312
O25	O	1.467009	-0.577959	-0.747764
O26	O	1.967009	-0.077959	-0.247764
O27	O	1.295102	-0.578014	-0.575887
O28	O	1.795102	-0.078014	-0.075887
O29	O	1.597270	-0.447231	-0.747795
O30	O	2.097270	0.052769	-0.247795
O31	O	1.597075	-0.750649	-0.445686
O32	O	2.097075	-0.250649	0.054314
O33	O	1.466899	-0.750582	-0.575885
O34	O	1.966899	-0.250582	-0.075885
C35	C	1.256642	-0.512669	-0.510784
C36	C	1.756642	-0.012669	-0.010784
C37	C	1.138812	-0.512684	-0.510796
C38	C	1.638812	-0.012684	-0.010796
C39	C	0.971218	-0.430092	-0.429340
C40	C	1.471218	0.069908	0.070660
C41	C	1.093778	-0.430305	-0.428981
C42	C	1.593778	0.069695	0.071019
C43	C	1.094295	-0.624812	-0.480283
C44	C	1.594295	-0.124812	0.019717
C45	C	0.971696	-0.624361	-0.479727
C46	C	1.471696	-0.124361	0.020273
C47	C	0.971662	-0.484215	-0.623079
C48	C	1.471662	0.015785	-0.123079
C49	C	1.094268	-0.481710	-0.622456
C50	C	1.594268	0.018290	-0.122456
C51	C	1.532002	-0.789235	-0.510804
C52	C	2.032002	-0.289235	-0.010804
C53	C	1.532069	-0.907541	-0.510835
C54	C	2.032069	-0.407541	-0.010835
C55	C	1.461259	-0.976796	-0.581601
C56	C	1.961259	-0.476796	-0.081601
C57	C	1.435427	-1.047669	-0.484868
C58	C	1.935427	-0.547669	0.015132
C59	C	1.557998	-1.047467	-0.607585
C60	C	2.057998	-0.547467	-0.107585
C61	C	1.506186	-0.976855	-0.414051
C62	C	2.006186	-0.476855	0.085949
C63	C	1.628802	-0.976647	-0.536833
C64	C	2.128802	-0.476647	-0.036833
C65	C	1.603007	-1.047488	-0.440033
C66	C	2.103007	-0.547488	0.059967
C67	C	1.808577	-0.512720	-0.510846
C68	C	2.308577	-0.012720	-0.010846
C69	C	1.926407	-0.512731	-0.510859
C70	C	2.426407	-0.012731	-0.010859
C71	C	1.532151	-0.512578	-0.787320
C72	C	2.032151	-0.012578	-0.287320
C73	C	1.532185	-0.512529	-0.905150
C74	C	2.032185	-0.012529	-0.405150
C75	C	1.532170	-0.235073	-0.510848
C76	C	2.032170	0.264927	-0.010848
C77	C	1.532212	-0.116768	-0.510862
C78	C	2.032212	0.383232	-0.010862
C79	C	1.614451	-0.430527	-1.072734
C80	C	2.114451	0.069473	-0.572734
C81	C	1.614187	-0.430231	-0.950174
C82	C	2.114187	0.069769	-0.450174
C83	C	1.420502	-0.482047	-0.949628
C84	C	1.920502	0.017953	-0.449628
C85	C	1.421001	-0.481424	-1.072226
C86	C	1.921001	0.018576	-0.572226
C87	C	1.560696	-0.625134	-1.072350
C88	C	2.060696	-0.125134	-0.572350
C89	C	1.563139	-0.624567	-0.949744
C90	C	2.063139	-0.124567	-0.449744
C91	C	1.532053	-0.512733	-0.235385
C92	C	2.032053	-0.012733	0.264615
C93	C	1.532225	-0.512482	-0.117555
C94	C	2.032225	-0.012482	0.382445
H95	H	0.942054	-0.688019	-0.536513
H96	H	1.442054	-0.188019	-0.036513
F97	F	1.338243	-0.557676	-0.911517
F98	F	1.838243	-0.057676	-0.411517
H99	H	0.942685	-0.544406	-0.683818
H100	H	1.442685	-0.044406	-0.183818
H101	H	1.123466	-0.688031	-0.537794
H102	H	1.623466	-0.188031	-0.037794
F103	F	1.665324	-0.661367	-1.112778
F104	F	2.165324	-0.161367	-0.612778
F105	F	1.382853	-0.936222	-0.659709
F106	F	1.882853	-0.436222	-0.159709
F107	F	1.477476	-0.936485	-0.307090
F108	F	1.977476	-0.436485	0.192910
H109	H	1.353689	-1.078888	-0.462901
H110	H	1.853689	-0.578888	0.037099
H111	H	1.710522	-0.945430	-0.558846
H112	H	2.210522	-0.445430	-0.058846
F113	F	1.681359	-1.087804	-0.361741
F114	F	2.181359	-0.587804	0.138259
H115	H	1.124950	-0.649409	-0.399125
H116	H	1.624950	-0.149409	0.100875
F117	F	0.934251	-0.655965	-0.372497
F118	F	1.434251	-0.155965	0.127503
F119	F	0.931279	-0.379207	-0.659351
F120	F	1.431279	0.120793	-0.159351
F121	F	1.132319	-0.373866	-0.652541
F122	F	1.632319	0.126134	-0.152541
H123	H	1.124928	-0.537509	-0.686442
H124	H	1.624928	-0.037509	-0.186442
H125	H	1.123876	-0.347158	-0.448106
H126	H	1.623876	0.152842	0.051894
H127	H	1.507603	-0.688916	-0.919093
H128	H	2.007603	-0.188916	-0.419093
F129	F	1.586587	-1.088013	-0.714513
F130	F	2.086587	-0.588013	-0.214513
F131	F	1.388381	-0.375610	-0.909515
F132	F	1.888381	0.124390	-0.409515
H133	H	1.396868	-0.399077	-1.100834
H134	H	1.896868	0.100923	-0.600834
H135	H	1.357651	-0.538520	-1.101874
H136	H	1.857651	-0.038520	-0.601874
H137	H	1.697002	-0.449321	-0.920103
H138	H	2.197002	0.050679	-0.420103
F139	F	1.723057	-0.455159	-1.111287
F140	F	2.223057	0.044841	-0.611287
H141	H	1.595842	-0.347538	-1.103556
H142	H	2.095842	0.152462	-0.603556
F143	F	1.589547	-0.321156	-0.911852
F144	F	2.089547	0.178844	-0.411852
H145	H	1.645328	-0.647553	-0.920674
H146	H	2.145328	-0.147553	-0.420674
H147	H	0.941752	-0.346694	-0.448260
H148	H	1.441752	0.153306	0.051740
F149	F	0.930880	-0.454438	-0.321286
F150	F	1.430880	0.045562	0.178714
H151	H	1.500811	-0.686199	-1.101343
H152	H	2.000811	-0.186199	-0.601343
H153	H	1.123056	-0.449154	-0.345821
H154	H	1.623056	0.050846	0.154179
