data_functionalizedCrystal
_audit_creation_method	'MofGen! by Chris Wilmer'
_symmetry_space_group_name_H-M	'P1'
_symmetry_Int_Tables_number	1
_symmetry_cell_setting	triclinic
loop_
_symmetry_equiv_pos_as_xyz
  x,y,z
_cell_length_a	25.639239
_cell_length_b	19.077409
_cell_length_c	19.077174
_cell_angle_alpha	89.884052
_cell_angle_beta	92.270789
_cell_angle_gamma	92.340556
loop_
_atom_site_label
_atom_site_type_symbol
_atom_site_fract_x
_atom_site_fract_y
_atom_site_fract_z
Zn1	Zn	-0.186171	1.090118	-0.354303
Zn2	Zn	0.147163	1.423451	-0.020970
Zn3	Zn	0.480496	1.756785	0.312364
Zn4	Zn	-0.270243	1.085290	-0.236796
Zn5	Zn	0.063090	1.418624	0.096537
Zn6	Zn	0.396424	1.751957	0.429870
Zn7	Zn	-0.186471	0.967898	-0.241514
Zn8	Zn	0.146862	1.301232	0.091820
Zn9	Zn	0.480196	1.634565	0.425153
Zn10	Zn	-0.277228	0.972547	-0.358966
Zn11	Zn	0.056105	1.305880	-0.025633
Zn12	Zn	0.389439	1.639213	0.307701
O13	O	-0.230028	1.028963	-0.297895
O14	O	0.103305	1.362297	0.035439
O15	O	0.436639	1.695630	0.368772
O16	O	-0.194274	1.187811	-0.334790
O17	O	0.139059	1.521144	-0.001456
O18	O	0.472392	1.854477	0.331877
O19	O	-0.256333	1.065752	-0.139091
O20	O	0.077000	1.399086	0.194242
O21	O	0.410334	1.732419	0.527576
O22	O	-0.113264	0.984186	-0.256498
O23	O	0.220069	1.317519	0.076835
O24	O	0.553402	1.650853	0.410169
O25	O	-0.256042	1.184264	-0.248458
O26	O	0.077291	1.517597	0.084875
O27	O	0.410625	1.850931	0.418208
O28	O	-0.113044	1.073980	-0.339364
O29	O	0.220290	1.407314	-0.006030
O30	O	0.553623	1.740647	0.327303
O31	O	-0.194786	0.979505	-0.142557
O32	O	0.138547	1.312838	0.190777
O33	O	0.471881	1.646171	0.524110
O34	O	-0.201559	0.870182	-0.261019
O35	O	0.131775	1.203515	0.072314
O36	O	0.465108	1.536848	0.405647
O37	O	-0.267946	0.992108	-0.456678
O38	O	0.065387	1.325442	-0.123345
O39	O	0.398720	1.658775	0.209988
O40	O	-0.268238	0.873597	-0.347311
O41	O	0.065096	1.206930	-0.013978
O42	O	0.398429	1.540264	0.319355
O43	O	-0.201047	1.078488	-0.453253
O44	O	0.132286	1.411821	-0.119919
O45	O	0.465620	1.745154	0.213414
O46	O	-0.344336	1.070260	-0.252980
O47	O	-0.011003	1.403593	0.080354
O48	O	0.322330	1.736926	0.413687
O49	O	-0.349468	0.987427	-0.342737
O50	O	-0.016135	1.320761	-0.009404
O51	O	0.317199	1.654094	0.323929
C52	C	-0.235689	0.846393	-0.305184
C53	C	0.097644	1.179726	0.028150
C54	C	0.430978	1.513059	0.361483
C55	C	-0.238124	0.768289	-0.308319
C56	C	0.095209	1.101622	0.025015
C57	C	0.428543	1.434955	0.358348
C58	C	-0.255547	0.328842	-0.330836
C59	C	0.077787	0.662175	0.002497
C60	C	0.411120	0.995508	0.335830
C61	C	-0.253262	0.402228	-0.327878
C62	C	0.080071	0.735561	0.005456
C63	C	0.413404	1.068895	0.338789
C64	C	-0.217353	0.437123	-0.281545
C65	C	0.115981	0.770456	0.051788
C66	C	0.449314	1.103790	0.385121
C67	C	-0.183728	0.398628	-0.238164
C68	C	0.149605	0.731961	0.095170
C69	C	0.482938	1.065294	0.428503
C70	C	-0.186015	0.325242	-0.241119
C71	C	0.147318	0.658576	0.092214
C72	C	0.480651	0.991909	0.425547
C73	C	-0.206787	0.656408	-0.267893
C74	C	0.126547	0.989742	0.065441
C75	C	0.459880	1.323075	0.398774
C76	C	-0.204501	0.729799	-0.264942
C77	C	0.128832	1.063132	0.068391
C78	C	0.462165	1.396465	0.401725
C79	C	-0.274036	0.733394	-0.354655
C80	C	0.059297	1.066727	-0.021322
C81	C	0.392630	1.400061	0.312012
C82	C	-0.276318	0.660007	-0.357610
C83	C	0.057015	0.993341	-0.024276
C84	C	0.390349	1.326674	0.309057
C85	C	-0.242696	0.621518	-0.314226
C86	C	0.090638	0.954852	0.019108
C87	C	0.423971	1.288185	0.352441
N88	N	-0.215016	0.512136	-0.278521
N89	N	0.118318	0.845469	0.054812
N90	N	0.451651	1.178802	0.388145
N91	N	-0.245035	0.546507	-0.317246
N92	N	0.088298	0.879840	0.016087
N93	N	0.421631	1.213173	0.349420
C94	C	-0.365873	1.028844	-0.297867
C95	C	-0.032540	1.362177	0.035466
C96	C	0.300793	1.695511	0.368799
C97	C	-0.423987	1.028858	-0.297876
C98	C	-0.090654	1.362191	0.035457
C99	C	0.242679	1.695525	0.368790
C100	C	-0.781662	1.072214	-0.251230
C101	C	-0.448328	1.405548	0.082103
C102	C	-0.114995	1.738881	0.415437
C103	C	-0.836265	1.072242	-0.251238
C104	C	-0.502932	1.405575	0.082095
C105	C	-0.169599	1.738909	0.415429
O106	O	-0.862219	1.108981	-0.211547
O107	O	-0.528886	1.442315	0.121786
O108	O	-0.195552	1.775648	0.455120
N109	N	-0.866265	1.029089	-0.297936
N110	N	-0.532931	1.362422	0.035397
N111	N	-0.199598	1.695755	0.368730
C112	C	-0.841657	0.985910	-0.344634
C113	C	-0.508324	1.319243	-0.011301
C114	C	-0.174991	1.652577	0.322033
O115	O	-0.872188	0.949208	-0.384356
O116	O	-0.538855	1.282541	-0.051022
O117	O	-0.205521	1.615874	0.282311
C118	C	-0.787055	0.985887	-0.344629
C119	C	-0.453721	1.319220	-0.011295
C120	C	-0.120388	1.652553	0.322038
C121	C	-0.757058	1.029038	-0.297923
C122	C	-0.423725	1.362371	0.035411
C123	C	-0.090391	1.695704	0.368744
C124	C	-0.751665	1.115363	-0.204528
C125	C	-0.418332	1.448696	0.128805
C126	C	-0.084999	1.782029	0.462139
C127	C	-0.697065	1.115334	-0.204519
C128	C	-0.363732	1.448667	0.128814
C129	C	-0.030399	1.782000	0.462148
C130	C	-0.672462	1.072157	-0.251212
C131	C	-0.339128	1.405490	0.082122
C132	C	-0.005795	1.738824	0.415455
C133	C	-0.702458	1.029009	-0.297914
C134	C	-0.369125	1.362342	0.035420
C135	C	-0.035792	1.695676	0.368753
C136	C	-0.762449	0.942712	-0.391329
C137	C	-0.429115	1.276046	-0.057996
C138	C	-0.095782	1.609379	0.275338
C139	C	-0.707842	0.942693	-0.391320
C140	C	-0.374508	1.276026	-0.057987
C141	C	-0.041175	1.609360	0.275347
C142	C	-0.677845	0.985844	-0.344614
C143	C	-0.344512	1.319177	-0.011281
C144	C	-0.011179	1.652511	0.322053
C145	C	-0.623255	0.985803	-0.344597
C146	C	-0.289921	1.319137	-0.011264
C147	C	0.043412	1.652470	0.322069
N148	N	-0.593255	1.028957	-0.297899
N149	N	-0.259922	1.362290	0.035434
N150	N	0.073411	1.695623	0.368768
C151	C	-0.617859	1.072134	-0.251206
C152	C	-0.284526	1.405467	0.082127
C153	C	0.048808	1.738800	0.415460
C154	C	-0.956327	0.985964	-0.344643
C155	C	-0.622993	1.319297	-0.011309
C156	C	-0.289660	1.652630	0.322024
C157	C	-1.010929	0.985983	-0.344645
C158	C	-0.677595	1.319316	-0.011312
C159	C	-0.344262	1.652649	0.322021
C160	C	-1.005533	1.072316	-0.251250
C161	C	-0.672199	1.405649	0.082083
C162	C	-0.338866	1.738983	0.415417
C163	C	-0.950930	1.072292	-0.251245
C164	C	-0.617597	1.405626	0.082089
C165	C	-0.284263	1.738959	0.415422
C166	C	-0.926328	1.029117	-0.297945
C167	C	-0.592994	1.362450	0.035389
C168	C	-0.259661	1.695784	0.368722
C169	C	-0.503195	1.072070	-0.251191
C170	C	-0.169862	1.405403	0.082143
C171	C	0.163471	1.738736	0.415476
C172	C	-0.448591	1.072035	-0.251184
C173	C	-0.115258	1.405368	0.082150
C174	C	0.218076	1.738701	0.415483
C175	C	-0.453991	0.985705	-0.344581
C176	C	-0.120658	1.319038	-0.011248
C177	C	0.212675	1.652371	0.322086
C178	C	-0.508591	0.985736	-0.344586
C179	C	-0.175258	1.319070	-0.011252
C180	C	0.158075	1.652403	0.322081
C181	C	-0.533192	1.028924	-0.297888
C182	C	-0.199858	1.362258	0.035445
C183	C	0.133475	1.695591	0.368779
O184	O	-0.597265	0.949085	-0.384270
O185	O	-0.263932	1.282418	-0.050937
O186	O	0.069401	1.615752	0.282397
O187	O	-0.587322	1.108836	-0.211498
O188	O	-0.253989	1.442170	0.121836
O189	O	0.079345	1.775503	0.455169
C190	C	-0.093652	1.029103	-0.297937
C191	C	0.239681	1.362436	0.035397
C192	C	0.573015	1.695770	0.368730
C193	C	-0.035537	1.029163	-0.297955
C194	C	0.297796	1.362496	0.035379
C195	C	0.631130	1.695829	0.368712
C196	C	-0.235242	1.036355	-0.481175
C197	C	0.098091	1.369688	-0.147841
C198	C	0.431424	1.703022	0.185492
C199	C	-0.237464	1.039505	-0.559278
C200	C	0.095869	1.372838	-0.225944
C201	C	0.429202	1.706172	0.107389
C202	C	-0.224345	1.212247	-0.290578
C203	C	0.108988	1.545580	0.042756
C204	C	0.442321	1.878914	0.376089
C205	C	-0.221924	1.290351	-0.287460
C206	C	0.111410	1.623685	0.045874
C207	C	0.444743	1.957018	0.379207
C208	C	-0.206465	0.996082	-0.597774
C209	C	0.126869	1.329416	-0.264441
C210	C	0.460202	1.662749	0.068892
C211	C	-0.208557	0.999039	-0.671160
C212	C	0.124777	1.332373	-0.337827
C213	C	0.458110	1.665706	-0.004494
C214	C	-0.241646	1.045423	-0.706048
C215	C	0.091687	1.378756	-0.372715
C216	C	0.425020	1.712090	-0.039382
C217	C	-0.272650	1.088847	-0.667546
C218	C	0.060684	1.422181	-0.334213
C219	C	0.394017	1.755514	-0.000880
C220	C	-0.270560	1.085886	-0.594162
C221	C	0.062773	1.419220	-0.260828
C222	C	0.396107	1.752553	0.072505
C223	C	-0.251335	1.059091	-0.925332
C224	C	0.081998	1.392424	-0.591998
C225	C	0.415331	1.725757	-0.258665
C226	C	-0.253422	1.062050	-0.998721
C227	C	0.079912	1.395383	-0.665388
C228	C	0.413245	1.728716	-0.332055
C229	C	-0.189329	0.972240	-1.002330
C230	C	0.144004	1.305574	-0.668997
C231	C	0.477338	1.638907	-0.335664
C232	C	-0.187240	0.969286	-0.928944
C233	C	0.146093	1.302620	-0.595611
C234	C	0.479427	1.635953	-0.262277
C235	C	-0.218245	1.012708	-0.890449
C236	C	0.115088	1.346041	-0.557115
C237	C	0.448422	1.679375	-0.223782
N238	N	-0.243785	1.048448	-0.781061
N239	N	0.089549	1.381782	-0.447727
N240	N	0.422882	1.715115	-0.114394
N241	N	-0.216109	1.009679	-0.815438
N242	N	0.117224	1.343012	-0.482105
N243	N	0.450557	1.676346	-0.148771
C244	C	-0.224795	1.021641	-0.115326
C245	C	0.108538	1.354974	0.218007
C246	C	0.441871	1.688307	0.551341
C247	C	-0.222422	1.018627	-0.037218
C248	C	0.110912	1.351960	0.296115
C249	C	0.444245	1.685294	0.629449
H250	H	-0.284786	0.300436	-0.368569
H251	H	0.048548	0.633769	-0.035236
H252	H	0.381881	0.967102	0.298098
F253	F	-0.284331	1.105308	-0.884371
F254	F	0.049002	1.438642	-0.551038
F255	F	0.382336	1.771975	-0.217704
H256	H	-0.523218	1.107239	-0.213166
H257	H	-0.189885	1.440572	0.120167
H258	H	0.143448	1.773906	0.453500
F259	F	-0.307870	1.138209	-0.704679
F260	F	0.025464	1.471542	-0.371346
F261	F	0.358797	1.804875	-0.038012
F262	F	-1.042847	0.940047	-0.394349
F263	F	-0.709514	1.273381	-0.061015
F264	F	-0.376181	1.606714	0.272318
F265	F	-0.919010	1.118219	-0.201535
F266	F	-0.585677	1.451553	0.131799
F267	F	-0.252343	1.784886	0.465132
F268	F	-0.289050	0.443189	-0.374044
F269	F	0.044284	0.776522	-0.040711
F270	F	0.377617	1.109855	0.292623
F271	F	-0.314538	0.622875	-0.406923
F272	F	0.018795	0.956208	-0.073590
F273	F	0.352129	1.289541	0.259744
H274	H	-0.160296	0.931514	-0.900544
H275	H	0.173037	1.264847	-0.567210
H276	H	0.506370	1.598181	-0.233877
F277	F	-0.150231	0.284279	-0.194949
F278	F	0.183102	0.617612	0.138384
F279	F	0.516435	0.950945	0.471718
F280	F	-0.309820	0.774362	-0.400820
F281	F	0.023513	1.107695	-0.067486
F282	F	0.356847	1.441028	0.265847
F283	F	-0.427797	0.939757	-0.394274
F284	F	-0.094464	1.273090	-0.060941
F285	F	0.238870	1.606424	0.272393
H286	H	-0.295799	1.121251	-0.562818
H287	H	0.037534	1.454584	-0.229485
H288	H	0.370868	1.787918	0.103848
F289	F	-0.665147	1.161270	-0.154815
F290	F	-0.331814	1.494603	0.178518
F291	F	0.001519	1.827936	0.511851
H292	H	-1.025575	1.107475	-0.213233
H293	H	-0.692241	1.440809	0.120101
H294	H	-0.358908	1.774142	0.453434
F295	F	-0.540517	0.939797	-0.394283
F296	F	-0.207184	1.273131	-0.060949
F297	F	0.126150	1.606464	0.272384
F298	F	-0.166281	0.766935	-0.215624
F299	F	0.167053	1.100268	0.117709
F300	F	0.500386	1.433602	0.451042
H301	H	-0.771691	1.150526	-0.166505
H302	H	-0.438358	1.483859	0.166828
H303	H	-0.105025	1.817193	0.500162
H304	H	-0.424169	1.107173	-0.213148
H305	H	-0.090836	1.440507	0.120186
H306	H	0.242498	1.773840	0.453519
F307	F	-0.170998	0.615455	-0.221725
F308	F	0.162335	0.948788	0.111608
F309	F	0.495668	1.282121	0.444942
H310	H	-0.154492	0.427045	-0.200436
H311	H	0.178841	0.760378	0.132898
H312	H	0.512175	1.093711	0.466231
H313	H	-0.936299	0.950799	-0.382670
H314	H	-0.602965	1.284132	-0.049336
H315	H	-0.269632	1.617466	0.283997
H316	H	-0.786863	0.907571	-0.429359
H317	H	-0.453529	1.240904	-0.096026
H318	H	-0.120196	1.574237	0.237308
F319	F	-0.681662	0.896740	-0.441027
F320	F	-0.348328	1.230073	-0.107694
F321	F	-0.014995	1.563406	0.225639
H322	H	-0.179516	0.958316	-0.569374
H323	H	0.153817	1.291649	-0.236040
H324	H	0.487150	1.624982	0.097293
H325	H	-0.183315	0.963677	-0.702501
H326	H	0.150018	1.297011	-0.369168
H327	H	0.483351	1.630344	-0.035835
H328	H	-0.280368	1.099824	-1.027125
H329	H	0.052966	1.433157	-0.693792
H330	H	0.386299	1.766491	-0.360458
F331	F	-0.156335	0.926029	-1.043305
F332	F	0.176999	1.259363	-0.709972
F333	F	0.510332	1.592696	-0.376638
