data_functionalizedCrystal
_audit_creation_method	'MofGen! by Chris Wilmer'
_symmetry_space_group_name_H-M	'P1'
_symmetry_Int_Tables_number	1
_symmetry_cell_setting	triclinic
loop_
_symmetry_equiv_pos_as_xyz
  x,y,z
_cell_length_a	15.995343
_cell_length_b	10.723024
_cell_length_c	9.198806
_cell_angle_alpha	89.997988
_cell_angle_beta	90.000377
_cell_angle_gamma	83.978527
loop_
_atom_site_label
_atom_site_type_symbol
_atom_site_fract_x
_atom_site_fract_y
_atom_site_fract_z
O1	O	1.111913	0.160793	-0.120743
O2	O	0.868251	0.180665	-0.120777
O3	O	0.995702	-0.010919	-0.120754
O4	O	0.984461	0.352377	-0.120766
O5	O	0.995692	-0.010920	0.121031
O6	O	0.868241	0.180664	0.121008
O7	O	1.111903	0.160792	0.121042
Cu8	Cu	0.990071	0.170728	0.143102
Cu9	Cu	0.990083	0.170729	-0.142837
O10	O	0.984451	0.352376	0.121019
C11	C	0.994879	-0.057409	0.000137
C12	C	0.992432	-0.195932	0.000131
C13	C	0.837046	0.179845	0.000111
C14	C	0.744081	0.177387	0.000098
C15	C	1.063747	-0.271827	0.000140
C16	C	1.061219	-0.414998	0.000134
C17	C	0.573869	0.172926	0.000117
C18	C	0.549729	0.034631	0.000122
C19	C	0.453036	0.032029	0.000679
C20	C	0.406284	0.168531	0.000135
C21	C	0.435769	0.238068	0.137929
C22	C	0.532571	0.239708	0.138036
C23	C	0.532505	0.241733	-0.136928
C24	C	0.435981	0.236628	-0.138731
C25	C	0.311572	0.166055	0.000150
C26	C	0.668581	0.175406	0.000112
C27	C	1.143107	0.161612	0.000151
C28	C	1.236072	0.164070	0.000155
C29	C	0.985274	0.398866	0.000125
C30	C	0.987722	0.537389	0.000121
N31	N	0.990068	0.170727	0.344216
N32	N	0.990092	0.170720	-0.343951
C33	C	1.043581	0.089935	0.416423
C34	C	1.043594	0.089930	0.583835
H35	H	1.122270	-0.480212	0.000147
O36	O	1.104237	-0.001728	0.334158
H37	H	1.094699	0.012647	0.215575
O38	O	0.909073	-0.250250	0.000132
H39	H	0.904435	-0.308858	-0.098410
O40	O	0.929408	0.262373	0.426493
H41	H	0.890208	0.321560	0.348134
H42	H	0.926667	-0.397405	0.000124
H43	H	0.433708	-0.022403	-0.098077
O44	O	0.586471	-0.036415	-0.130689
H45	H	0.622329	0.026077	-0.197112
H46	H	1.126674	-0.230810	0.000157
O47	O	0.587704	-0.035229	0.130823
H48	H	0.623694	0.028119	0.195783
O49	O	0.411013	0.169576	-0.273779
H50	H	0.378057	0.087627	-0.242130
H51	H	0.434284	-0.022149	0.100037
H52	H	0.547727	0.341123	0.143925
H53	H	0.403596	0.336228	-0.147481
O54	O	1.104291	-0.001686	0.666081
H55	H	1.143486	-0.060856	0.587707
H56	H	0.559079	0.192114	0.241435
H57	H	0.404500	0.338529	0.142663
H58	H	0.415399	0.190357	0.240868
H59	H	0.560529	0.198102	-0.241405
H60	H	0.547103	0.343527	-0.138260
H61	H	0.944277	0.239898	0.593964
