data_functionalizedCrystal
_audit_creation_method	'MofGen! by Chris Wilmer'
_symmetry_space_group_name_H-M	'P1'
_symmetry_Int_Tables_number	1
_symmetry_cell_setting	triclinic
loop_
_symmetry_equiv_pos_as_xyz
  x,y,z
_cell_length_a	16.109301
_cell_length_b	16.109301
_cell_length_c	9.730223
_cell_angle_alpha	89.994178
_cell_angle_beta	89.999429
_cell_angle_gamma	83.461481
loop_
_atom_site_label
_atom_site_type_symbol
_atom_site_fract_x
_atom_site_fract_y
_atom_site_fract_z
O1	O	1.103130	0.106867	-0.114207
O2	O	0.861068	0.120166	-0.114230
O3	O	0.988749	-0.007514	-0.114204
O4	O	0.975450	0.234548	-0.114233
O5	O	0.988741	-0.007518	0.114376
O6	O	0.861060	0.120163	0.114350
O7	O	1.103122	0.106863	0.114373
Zn8	Zn	0.982090	0.113513	0.150653
Zn9	Zn	0.982101	0.113517	-0.150511
O10	O	0.975442	0.234544	0.114347
C11	C	0.830090	0.119626	0.000057
C12	C	0.737794	0.118011	0.000049
C13	C	0.988206	-0.038491	0.000087
C14	C	0.986591	-0.130786	0.000088
C15	C	0.515522	0.190018	0.000057
C16	C	0.428801	0.188494	0.000066
C17	C	0.448676	0.037006	0.000078
C18	C	0.535394	0.038530	0.000079
C19	C	0.568815	0.115039	0.000061
C20	C	0.395376	0.111990	0.000069
C21	C	0.301350	0.110337	0.000079
C22	C	0.662847	0.116693	0.000054
C23	C	1.058599	-0.353059	0.000073
C24	C	1.057075	-0.439779	0.000062
C25	C	0.905586	-0.419905	0.000053
C26	C	0.907111	-0.333186	0.000055
C27	C	0.983620	-0.299766	0.000072
C28	C	0.980571	-0.473205	0.000059
C29	C	0.978918	-0.567231	0.000046
C30	C	0.985273	-0.205734	0.000082
C31	C	1.134101	0.107404	0.000082
C32	C	1.226397	0.109019	0.000081
C33	C	0.975984	0.265521	0.000053
C34	C	0.977600	0.357816	0.000042
N35	N	0.982089	0.113509	0.356190
N36	N	0.982109	0.113514	-0.356047
C37	C	1.038645	0.056996	0.428127
C38	C	1.038653	0.056996	0.572010
C39	C	0.925547	0.170030	0.572006
C40	C	0.925535	0.170025	0.428125
H41	H	0.385413	0.249550	0.000065
O42	O	0.831197	-0.452233	-0.000015
C43	C	0.765345	-0.386596	0.000014
H44	H	0.788638	-0.327691	-0.043259
H45	H	0.711932	-0.404698	-0.066352
H46	H	0.742215	-0.374325	0.109674
H47	H	0.421454	-0.025285	0.000101
H48	H	0.879476	0.216045	0.369550
H49	H	1.120897	-0.325851	0.000084
O50	O	0.834294	-0.281377	-0.000190
C51	C	0.830659	-0.230602	-0.118558
H52	H	0.873183	-0.262372	-0.201297
H53	H	0.763687	-0.220824	-0.158302
H54	H	0.852166	-0.167551	-0.091794
H55	H	1.118130	-0.483168	0.000060
H56	H	1.084705	0.010977	0.630578
H57	H	1.084693	0.010976	0.369561
O58	O	0.547849	0.264408	0.000112
C59	C	0.482211	0.330259	0.000078
H60	H	0.423309	0.306963	0.043353
H61	H	0.500316	0.383670	0.066440
H62	H	0.469932	0.353392	-0.109584
O63	O	0.587051	-0.034386	0.000021
C64	C	0.538960	-0.102241	0.000059
H65	H	0.474231	-0.081126	-0.043221
H66	H	0.570970	-0.154772	-0.066298
H67	H	0.532792	-0.125696	0.109722
H68	H	0.879503	0.216046	0.630590
