data_functionalizedCrystal
_audit_creation_method	'MofGen! by Chris Wilmer'
_symmetry_space_group_name_H-M	'P1'
_symmetry_Int_Tables_number	1
_symmetry_cell_setting	triclinic
loop_
_symmetry_equiv_pos_as_xyz
  x,y,z
_cell_length_a	23.532407
_cell_length_b	27.732048
_cell_length_c	22.010155
_cell_angle_alpha	89.999275
_cell_angle_beta	89.996931
_cell_angle_gamma	82.745667
loop_
_atom_site_label
_atom_site_type_symbol
_atom_site_fract_x
_atom_site_fract_y
_atom_site_fract_z
O1	O	0.755138	0.058672	-0.050456
O2	O	1.088472	0.392005	0.282878
O3	O	1.421805	0.725339	0.616211
O4	O	0.589257	0.067162	-0.050475
O5	O	0.922590	0.400496	0.282859
O6	O	1.255924	0.733829	0.616192
O7	O	0.677350	-0.007472	-0.050453
O8	O	1.010683	0.325862	0.282880
O9	O	1.344016	0.659195	0.616214
O10	O	0.667046	0.133306	-0.050477
O11	O	1.000379	0.466639	0.282856
O12	O	1.333712	0.799972	0.616189
O13	O	0.677334	-0.007461	0.050597
O14	O	1.010667	0.325873	0.383931
O15	O	1.344000	0.659206	0.717264
O16	O	0.589241	0.067173	0.050576
O17	O	0.922574	0.400507	0.383909
O18	O	1.255908	0.733840	0.717242
O19	O	0.755122	0.058683	0.050595
O20	O	1.088456	0.392016	0.383928
O21	O	1.421789	0.725350	0.717261
Cu22	Cu	0.672180	0.062929	0.059812
Cu23	Cu	1.005514	0.396263	0.393145
Cu24	Cu	1.338847	0.729596	0.726479
Cu25	Cu	0.672199	0.062916	-0.059692
Cu26	Cu	1.005532	0.396249	0.273641
Cu27	Cu	1.338866	0.729583	0.606975
O28	O	0.667030	0.133317	0.050573
O29	O	1.000363	0.466650	0.383906
O30	O	1.333696	0.799984	0.717240
C31	C	0.568033	0.066952	0.000048
C32	C	0.901367	0.400285	0.333382
C33	C	1.234700	0.733618	0.666715
C34	C	0.504818	0.066302	0.000042
C35	C	0.838151	0.399635	0.333375
C36	C	1.171484	0.732968	0.666708
C37	C	0.105629	0.106391	0.000062
C38	C	0.438962	0.439725	0.333396
C39	C	0.772296	0.773058	0.666729
C40	C	0.046230	0.105787	0.000066
C41	C	0.379563	0.439121	0.333399
C42	C	0.712897	0.772454	0.666733
O43	O	0.009406	0.142951	0.000082
O44	O	0.342739	0.476284	0.333415
O45	O	0.676073	0.809618	0.666748
N46	N	0.023699	0.061418	0.000073
N47	N	0.357032	0.394751	0.333406
N48	N	0.690365	0.728084	0.666739
C49	C	0.060570	0.017649	0.000082
C50	C	0.393903	0.350982	0.333415
C51	C	0.727236	0.684315	0.666748
O52	O	0.035951	-0.020147	0.000088
O53	O	0.369284	0.313187	0.333422
O54	O	0.702617	0.646520	0.666755
C55	C	0.119967	0.018253	0.000082
C56	C	0.453301	0.351586	0.333416
C57	C	0.786634	0.684920	0.666749
C58	C	0.142495	0.062626	0.000070
C59	C	0.475829	0.395959	0.333403
C60	C	0.809162	0.729292	0.666736
C61	C	0.128158	0.150760	0.000050
C62	C	0.461491	0.484094	0.333384
C63	C	0.794824	0.817427	0.666717
C64	C	0.187552	0.151364	0.000045
C65	C	0.520886	0.484697	0.333379
C66	C	0.854219	0.818031	0.666712
C67	C	0.224419	0.107599	0.000052
C68	C	0.557752	0.440932	0.333386
C69	C	0.891085	0.774265	0.666719
C70	C	0.201890	0.063229	0.000065
C71	C	0.535224	0.396563	0.333398
C72	C	0.868557	0.729896	0.666731
C73	C	0.156837	-0.025515	0.000096
C74	C	0.490171	0.307818	0.333429
C75	C	0.823504	0.641151	0.666762
C76	C	0.216239	-0.024907	0.000097
C77	C	0.549572	0.308426	0.333430
C78	C	0.882905	0.641760	0.666763
C79	C	0.238766	0.019466	0.000084
C80	C	0.572100	0.352799	0.333417
C81	C	0.905433	0.686132	0.666751
C82	C	0.298151	0.020068	0.000067
C83	C	0.631485	0.353401	0.333400
C84	C	0.964818	0.686734	0.666733
N85	N	0.320683	0.064437	0.000060
N86	N	0.654016	0.397771	0.333393
N87	N	0.987350	0.731104	0.666727
C88	C	0.283817	0.108203	0.000053
C89	C	0.617150	0.441536	0.333386
C90	C	0.950483	0.774870	0.666720
C91	C	-0.064170	0.016383	0.000082
C92	C	0.269163	0.349716	0.333415
C93	C	0.602497	0.683049	0.666748
C94	C	-0.123567	0.015778	0.000077
C95	C	0.209767	0.349111	0.333410
C96	C	0.543100	0.682445	0.666744
C97	C	-0.137902	0.103917	0.000062
C98	C	0.195431	0.437250	0.333396
C99	C	0.528764	0.770584	0.666729
C100	C	-0.078505	0.104521	0.000063
C101	C	0.254829	0.437855	0.333396
C102	C	0.588162	0.771188	0.666730
C103	C	-0.041639	0.060753	0.000075
C104	C	0.291695	0.394086	0.333408
C105	C	0.625028	0.727419	0.666742
C106	C	0.408551	0.109467	0.000042
C107	C	0.741884	0.442801	0.333375
C108	C	1.075217	0.776134	0.666709
C109	C	0.467951	0.110067	0.000035
C110	C	0.801285	0.443400	0.333368
C111	C	1.134618	0.776734	0.666701
C112	C	0.482282	0.021928	0.000052
C113	C	0.815615	0.355262	0.333386
C114	C	1.148948	0.688595	0.666719
C115	C	0.422886	0.021328	0.000057
C116	C	0.756220	0.354662	0.333390
C117	C	1.089553	0.687995	0.666723
C118	C	0.386021	0.065102	0.000053
C119	C	0.719355	0.398435	0.333387
C120	C	1.052688	0.731768	0.666720
O121	O	0.335010	-0.017077	0.000054
O122	O	0.668343	0.316257	0.333387
O123	O	1.001677	0.649590	0.666720
O124	O	0.308444	0.145992	0.000054
O125	O	0.641777	0.479325	0.333388
O126	O	0.975110	0.812659	0.666721
C127	C	0.677125	-0.025473	0.000074
C128	C	1.010459	0.307860	0.333407
C129	C	1.343792	0.641193	0.666740
C130	C	0.676474	-0.079129	0.000079
C131	C	1.009807	0.254204	0.333412
C132	C	1.343141	0.587537	0.666745
C133	C	0.724431	-0.417871	0.000053
C134	C	1.057764	-0.084537	0.333386
C135	C	1.391097	0.248796	0.666720
C136	C	0.722014	-0.619534	0.000044
C137	C	1.055348	-0.286201	0.333378
C138	C	1.388681	0.047133	0.666711
O139	O	0.765867	-0.650722	0.000023
O140	O	1.099201	-0.317389	0.333356
O141	O	1.432534	0.015945	0.666689
N142	N	0.669779	-0.638738	0.000039
N143	N	1.003112	-0.305405	0.333372
N144	N	1.336446	0.027929	0.666706
C145	C	0.618144	-0.607523	0.000032
C146	C	0.951477	-0.274189	0.333365
C147	C	1.284811	0.059144	0.666698
O148	O	0.573659	-0.628484	0.000021
O149	O	0.906993	-0.295151	0.333354
O150	O	1.240326	0.038182	0.666687
C151	C	0.620561	-0.405860	0.000036
C152	C	0.953895	-0.072527	0.333369
C153	C	1.287228	0.260806	0.666703
C154	C	0.672800	-0.386659	0.000048
C155	C	1.006133	-0.053326	0.333381
C156	C	1.339467	0.280007	0.666714
C157	C	0.776665	-0.398669	0.000064
C158	C	1.109999	-0.065336	0.333397
C159	C	1.443332	0.267998	0.666730
C160	C	0.777269	-0.348256	0.000069
C161	C	1.110602	-0.014923	0.333403
C162	C	1.443935	0.318411	0.666736
C163	C	0.725638	-0.317045	0.000064
C164	C	1.058971	0.016288	0.333397
C165	C	1.392305	0.349622	0.666731
C166	C	0.673403	-0.336247	0.000053
C167	C	1.006737	-0.002913	0.333386
C168	C	1.340070	0.330420	0.666720
C169	C	0.568927	-0.374646	0.000025
C170	C	0.902260	-0.041313	0.333358
C171	C	1.235594	0.292020	0.666691
C172	C	0.569536	-0.324228	0.000024
C173	C	0.902869	0.009105	0.333358
C174	C	1.236203	0.342439	0.666691
C175	C	0.621775	-0.305027	0.000036
C176	C	0.955108	0.028306	0.333369
C177	C	1.288441	0.361640	0.666702
C178	C	0.622376	-0.254622	0.000053
C179	C	0.955709	0.078711	0.333387
C180	C	1.289043	0.412044	0.666720
N181	N	0.674611	-0.235418	0.000059
N182	N	1.007945	0.097915	0.333392
N183	N	1.341278	0.431248	0.666725
C184	C	0.726242	-0.266630	0.000064
C185	C	1.059576	0.066704	0.333397
C186	C	1.392909	0.400037	0.666731
C187	C	0.616879	-0.713399	0.000031
C188	C	0.950212	-0.380066	0.333364
C189	C	1.283546	-0.046732	0.666697
C190	C	0.616274	-0.763814	0.000031
C191	C	0.949608	-0.430481	0.333364
C192	C	1.282941	-0.097148	0.666697
C193	C	0.720145	-0.775822	0.000042
C194	C	1.053478	-0.442489	0.333375
C195	C	1.386812	-0.109155	0.666709
C196	C	0.720749	-0.725406	0.000046
C197	C	1.054082	-0.392072	0.333380
C198	C	1.387415	-0.058739	0.666713
C199	C	0.669114	-0.694195	0.000036
C200	C	1.002447	-0.360861	0.333369
C201	C	1.335781	-0.027528	0.666703
C202	C	0.727506	-0.160758	0.000076
C203	C	1.060839	0.172575	0.333409
C204	C	1.394173	0.505908	0.666743
C205	C	0.728105	-0.110341	0.000084
C206	C	1.061438	0.222993	0.333417
C207	C	1.394772	0.556326	0.666751
C208	C	0.624235	-0.098337	0.000069
C209	C	0.957568	0.234996	0.333403
C210	C	1.290901	0.568329	0.666736
C211	C	0.623635	-0.148751	0.000065
C212	C	0.956969	0.184583	0.333398
C213	C	1.290302	0.517916	0.666731
C214	C	0.675276	-0.179961	0.000066
C215	C	1.008609	0.153373	0.333399
C216	C	1.341942	0.486706	0.666733
O217	O	0.578547	-0.223406	0.000068
O218	O	0.911880	0.109928	0.333401
O219	O	1.245213	0.443261	0.666735
O220	O	0.770721	-0.245659	0.000061
O221	O	1.104054	0.087675	0.333395
O222	O	1.437387	0.421008	0.666728
C223	C	0.723827	-0.468283	0.000047
C224	C	1.057161	-0.134950	0.333381
C225	C	1.390494	0.198383	0.666714
C226	C	0.671593	-0.487485	0.000037
C227	C	1.004926	-0.154152	0.333370
C228	C	1.338259	0.179182	0.666703
C229	C	0.619962	-0.456274	0.000031
C230	C	0.953295	-0.122941	0.333365
C231	C	1.286629	0.210393	0.666698
C232	C	0.670988	-0.537900	0.000037
C233	C	1.004322	-0.204567	0.333370
C234	C	1.337655	0.128766	0.666703
C235	C	0.722619	-0.569112	0.000042
C236	C	1.055953	-0.235778	0.333375
C237	C	1.389286	0.097555	0.666709
C238	C	0.774855	-0.549908	0.000047
C239	C	1.108188	-0.216574	0.333381
C240	C	1.441521	0.116759	0.666714
C241	C	0.775458	-0.499495	0.000053
C242	C	1.108791	-0.166161	0.333386
C243	C	1.442125	0.167172	0.666719
C244	C	0.567727	-0.475478	0.000026
C245	C	0.901060	-0.142145	0.333359
C246	C	1.234393	0.191189	0.666693
C247	C	0.567127	-0.525891	0.000021
C248	C	0.900461	-0.192558	0.333354
C249	C	1.233794	0.140775	0.666688
C250	C	0.618758	-0.557103	0.000026
C251	C	0.952092	-0.223769	0.333360
C252	C	1.285425	0.109564	0.666693
C253	C	0.776346	0.058894	0.000070
C254	C	1.109679	0.392227	0.333404
C255	C	1.443013	0.725560	0.666737
C256	C	0.839562	0.059544	0.000073
C257	C	1.172895	0.392877	0.333406
C258	C	1.506228	0.726210	0.666740
C259	C	0.667254	0.151319	0.000045
C260	C	1.000587	0.484652	0.333378
C261	C	1.333921	0.817985	0.666712
C262	C	0.667905	0.204975	0.000036
C263	C	1.001239	0.538308	0.333369
C264	C	1.334572	0.871641	0.666703
N265	N	0.672171	0.062938	0.143864
N266	N	1.005504	0.396272	0.477198
N267	N	1.338838	0.729605	0.810531
N268	N	0.672213	0.062903	-0.143744
N269	N	1.005546	0.396236	0.189589
N270	N	1.338879	0.729570	0.522922
C271	C	0.711209	0.029873	0.563653
C272	C	1.044542	0.363206	0.896987
C273	C	1.377875	0.696539	1.230320
C274	C	0.711211	0.029869	0.627261
C275	C	1.044545	0.363203	0.960594
C276	C	1.377878	0.696536	1.293928
O277	O	0.744380	0.001762	0.660160
O278	O	1.077713	0.335096	0.993494
O279	O	1.411046	0.668429	1.326827
N280	N	0.672199	0.062906	0.659071
N281	N	1.005532	0.396239	0.992405
N282	N	1.338866	0.729573	1.325738
C283	C	0.633177	0.095945	0.627271
C284	C	0.966511	0.429278	0.960604
C285	C	1.299844	0.762611	1.293938
O286	O	0.599994	0.124044	0.660169
O287	O	0.933327	0.457377	0.993503
O288	O	1.266661	0.790711	1.326836
C289	C	0.633172	0.095945	0.563665
C290	C	0.966506	0.429279	0.896998
C291	C	1.299839	0.762612	1.230331
C292	C	0.672191	0.062910	0.531857
C293	C	1.005525	0.396243	0.865191
C294	C	1.338858	0.729577	1.198524
C295	C	0.750224	-0.003160	0.531846
C296	C	1.083557	0.330173	0.865179
C297	C	1.416891	0.663506	1.198513
C298	C	0.750222	-0.003156	0.468243
C299	C	1.083555	0.330177	0.801576
C300	C	1.416889	0.663510	1.134909
C301	C	0.711205	0.029881	0.436447
C302	C	1.044538	0.363214	0.769780
C303	C	1.377871	0.696548	1.103113
C304	C	0.672189	0.062914	0.468254
C305	C	1.005523	0.396247	0.801588
C306	C	1.338856	0.729581	1.134921
C307	C	0.594148	0.128981	0.531866
C308	C	0.927482	0.462315	0.865199
C309	C	1.260815	0.795648	1.198532
C310	C	0.594147	0.128979	0.468255
C311	C	0.927480	0.462312	0.801588
C312	C	1.260813	0.795645	1.134921
C313	C	0.633166	0.095943	0.436447
C314	C	0.966499	0.429277	0.769781
C315	C	1.299832	0.762610	1.103114
C316	C	0.633170	0.095955	0.372855
C317	C	0.966503	0.429288	0.706188
C318	C	1.299836	0.762622	1.039522
N319	N	0.672182	0.062919	0.341045
N320	N	1.005516	0.396252	0.674378
N321	N	1.338849	0.729585	1.007711
C322	C	0.711200	0.029881	0.372840
C323	C	1.044533	0.363215	0.706174
C324	C	1.377866	0.696548	1.039507
C325	C	0.633190	0.095940	0.760849
C326	C	0.966523	0.429273	1.094182
C327	C	1.299857	0.762607	1.427516
C328	C	0.633197	0.095942	0.824454
C329	C	0.966530	0.429276	1.157788
C330	C	1.299864	0.762609	1.491121
C331	C	0.711231	0.029866	0.824440
C332	C	1.044564	0.363200	1.157773
C333	C	1.377897	0.696533	1.491106
C334	C	0.711226	0.029867	0.760833
C335	C	1.044559	0.363200	1.094166
C336	C	1.377892	0.696534	1.427500
C337	C	0.672202	0.062904	0.729038
C338	C	1.005536	0.396237	1.062372
C339	C	1.338869	0.729570	1.395705
C340	C	0.711193	0.029893	0.239269
C341	C	1.044526	0.363226	0.572602
C342	C	1.377859	0.696559	0.905936
C343	C	0.711189	0.029901	0.175660
C344	C	1.044522	0.363234	0.508994
C345	C	1.377855	0.696568	0.842327
C346	C	0.633153	0.095975	0.175680
C347	C	0.966487	0.429308	0.509014
C348	C	1.299820	0.762642	0.842347
C349	C	0.633159	0.095969	0.239284
C350	C	0.966492	0.429302	0.572617
C351	C	1.299826	0.762635	0.905950
C352	C	0.672181	0.062924	0.271076
C353	C	1.005514	0.396257	0.604410
C354	C	1.338848	0.729590	0.937743
O355	O	0.600017	0.124047	0.339915
O356	O	0.933350	0.457380	0.673248
O357	O	1.266683	0.790713	1.006582
O358	O	0.744372	0.001783	0.339935
O359	O	1.077706	0.335116	0.673268
O360	O	1.411039	0.668449	1.006601
H361	H	-0.141903	-0.020355	0.000078
H362	H	0.191430	0.312979	0.333411
H363	H	0.524763	0.646312	0.666744
Cl364	Cl	0.394565	-0.034455	0.000076
Cl365	Cl	0.727898	0.298878	0.333409
Cl366	Cl	1.061231	0.632212	0.666742
H367	H	0.601414	0.122847	0.734965
H368	H	0.934747	0.456180	1.068298
H369	H	1.268080	0.789513	1.401631
Cl370	Cl	0.545084	0.170513	0.428289
Cl371	Cl	0.878418	0.503846	0.761622
Cl372	Cl	1.211751	0.837180	1.094956
Cl373	Cl	0.584105	0.137506	0.135698
Cl374	Cl	0.917438	0.470840	0.469032
Cl375	Cl	1.250772	0.804173	0.802365
H376	H	0.486290	0.146202	0.000024
H377	H	0.819623	0.479535	0.333357
H378	H	1.152956	0.812869	0.666690
H379	H	0.601392	0.122874	0.265182
H380	H	0.934725	0.456207	0.598515
H381	H	1.268058	0.789540	0.931848
Cl382	Cl	0.559331	-0.059091	0.000061
Cl383	Cl	0.892664	0.274242	0.333395
Cl384	Cl	1.225998	0.607575	0.666728
Cl385	Cl	0.760279	-0.011666	0.720854
Cl386	Cl	1.093612	0.321668	1.054187
Cl387	Cl	1.426945	0.655001	1.387520
Cl388	Cl	0.362215	0.164498	0.000037
Cl389	Cl	0.695549	0.497831	0.333371
Cl390	Cl	1.028882	0.831164	0.666704
H391	H	0.205889	0.187497	0.000035
H392	H	0.539222	0.520830	0.333368
H393	H	0.872555	0.854163	0.666701
Cl394	Cl	0.551960	-0.674169	0.000018
Cl395	Cl	0.885293	-0.340835	0.333352
Cl396	Cl	1.218626	-0.007502	0.666685
H397	H	0.601430	0.122848	0.850347
H398	H	0.934763	0.456181	1.183681
H399	H	1.268097	0.789514	1.517014
Cl400	Cl	0.502812	-0.436248	0.000018
Cl401	Cl	0.836145	-0.102915	0.333351
Cl402	Cl	1.169479	0.230419	0.666685
Cl403	Cl	0.792426	-0.199986	0.000079
Cl404	Cl	1.125759	0.133347	0.333412
Cl405	Cl	1.459093	0.466681	0.666745
H406	H	0.562376	0.155881	0.557754
H407	H	0.895709	0.489215	0.891088
H408	H	1.229042	0.822548	1.224421
Cl409	Cl	0.503251	-0.398772	0.000006
Cl410	Cl	0.836584	-0.065439	0.333340
Cl411	Cl	1.169918	0.267895	0.666673
Cl412	Cl	0.842944	-0.324126	0.000066
Cl413	Cl	1.176277	0.009208	0.333400
Cl414	Cl	1.509611	0.342541	0.666733
H415	H	0.763286	-0.709776	0.000055
H416	H	1.096619	-0.376443	0.333388
H417	H	1.429953	-0.043109	0.666722
H418	H	0.817996	-0.483866	0.000062
H419	H	1.151330	-0.150533	0.333395
H420	H	1.484663	0.182800	0.666729
H421	H	0.742967	0.002984	0.265148
H422	H	1.076300	0.336317	0.598481
H423	H	1.409634	0.669651	0.931814
Cl424	Cl	0.081821	0.205788	0.000040
Cl425	Cl	0.415154	0.539121	0.333373
Cl426	Cl	0.748487	0.872454	0.666706
Cl427	Cl	0.799273	-0.044691	0.428263
Cl428	Cl	1.132606	0.288642	0.761597
Cl429	Cl	1.465939	0.621976	1.094930
H430	H	-0.060167	0.140653	0.000056
H431	H	0.273166	0.473987	0.333389
H432	H	0.606500	0.807320	0.666723
H433	H	0.527488	-0.298818	0.000015
H434	H	0.860821	0.034515	0.333348
H435	H	1.194154	0.367849	0.666682
Cl436	Cl	0.557963	-0.172890	0.000062
Cl437	Cl	0.891297	0.160443	0.333395
Cl438	Cl	1.224630	0.493777	0.666728
H439	H	0.818712	-0.424077	0.000066
H440	H	1.152045	-0.090744	0.333399
H441	H	1.485378	0.242590	0.666733
Cl442	Cl	-0.017829	-0.038646	0.000090
Cl443	Cl	0.315504	0.294687	0.333423
Cl444	Cl	0.648837	0.628020	0.666757
Cl445	Cl	-0.184260	0.158937	0.000057
Cl446	Cl	0.149073	0.492270	0.333390
Cl447	Cl	0.482407	0.825604	0.666723
Cl448	Cl	0.262581	-0.079934	0.000113
Cl449	Cl	0.595914	0.253399	0.333446
Cl450	Cl	0.929248	0.586732	0.666780
Cl451	Cl	0.128532	-0.081302	0.000102
Cl452	Cl	0.461865	0.252032	0.333435
Cl453	Cl	0.795199	0.585365	0.666768
Cl454	Cl	0.793781	-0.086206	0.000097
Cl455	Cl	1.127115	0.247128	0.333431
Cl456	Cl	1.460448	0.580461	0.666764
Cl457	Cl	0.550600	-0.787946	0.000028
Cl458	Cl	0.883934	-0.454613	0.333361
Cl459	Cl	1.217267	-0.121280	0.666694
H460	H	0.512309	-0.013704	0.000056
H461	H	0.845642	0.319629	0.333389
H462	H	1.178975	0.652962	0.666722
H463	H	0.762185	-0.801243	0.000047
H464	H	1.095518	-0.467910	0.333380
H465	H	1.428851	-0.134576	0.666713
Cl466	Cl	0.760280	-0.011667	0.864425
Cl467	Cl	1.093613	0.321666	1.197758
Cl468	Cl	1.426947	0.654999	1.531091
H469	H	0.524585	-0.541520	0.000017
H470	H	0.857918	-0.208186	0.333350
H471	H	1.191252	0.125147	0.666684
Cl472	Cl	0.839761	-0.589154	0.000057
Cl473	Cl	1.173095	-0.255821	0.333390
Cl474	Cl	1.506428	0.077512	0.666723
H475	H	0.742965	0.003000	0.149765
H476	H	1.076298	0.336333	0.483098
H477	H	1.409631	0.669666	0.816431
H478	H	0.781997	-0.030065	0.557728
H479	H	1.115330	0.303268	0.891062
H480	H	1.448664	0.636601	1.224395
