data_functionalizedCrystal
_audit_creation_method	'MofGen! by Chris Wilmer'
_symmetry_space_group_name_H-M	'P1'
_symmetry_Int_Tables_number	1
_symmetry_cell_setting	triclinic
loop_
_symmetry_equiv_pos_as_xyz
  x,y,z
_cell_length_a	18.627243
_cell_length_b	18.627245
_cell_length_c	18.627297
_cell_angle_alpha	90.002039
_cell_angle_beta	59.997824
_cell_angle_gamma	119.999685
loop_
_atom_site_label
_atom_site_type_symbol
_atom_site_fract_x
_atom_site_fract_y
_atom_site_fract_z
O1	O	0.633240	-0.492484	-0.021356
O2	O	0.486232	-0.388088	0.021256
O3	O	0.633235	-0.388087	-0.125751
O4	O	0.486237	-0.492485	0.125650
O5	O	0.513833	-0.507489	-0.125750
O6	O	0.366830	-0.507489	0.021256
O7	O	0.513838	-0.611886	-0.021356
Zn8	Zn	0.421376	-0.578645	-0.000050
Zn9	Zn	0.578694	-0.421328	-0.000051
O10	O	0.366835	-0.611886	0.125650
C11	C	0.356044	-0.256979	0.030935
C12	C	0.406443	-0.162282	0.024836
C13	C	0.269040	-0.300580	0.031539
C14	C	0.356039	-0.386983	0.030943
C15	C	0.406432	-0.431286	0.024852
C16	C	0.269035	-0.430386	0.031548
C17	C	0.226044	-0.386979	0.030935
C18	C	0.137446	-0.431279	0.024835
C19	C	0.398838	-0.300583	0.031548
O20	O	-0.104350	-0.611881	-0.021369
O21	O	0.104442	-0.507482	0.021239
O22	O	0.104453	-0.507489	-0.125766
O23	O	-0.104360	-0.611875	0.125635
O24	O	0.104457	-0.388084	-0.125773
O25	O	0.104446	-0.388078	0.021231
O26	O	-0.104345	-0.492477	-0.021377
Zn27	Zn	0.000051	-0.421319	-0.000074
Zn28	Zn	0.000046	-0.578640	-0.000064
O29	O	-0.104356	-0.492470	0.125628
C30	C	0.644032	-0.386986	-0.387050
C31	C	0.593636	-0.431285	-0.431350
C32	C	0.731038	-0.300587	-0.430453
C33	C	0.644032	-0.386986	-0.257049
C34	C	0.593635	-0.431287	-0.162352
C35	C	0.731037	-0.300588	-0.300650
C36	C	0.774032	-0.256986	-0.387049
C37	C	0.862632	-0.162290	-0.431348
C38	C	0.601235	-0.430390	-0.300651
C39	C	0.774046	-0.612982	-0.031065
C40	C	0.862649	-0.568681	-0.024971
C41	C	0.731054	-0.699380	-0.031674
C42	C	0.644041	-0.612985	-0.031058
C43	C	0.593641	-0.568686	-0.024957
C44	C	0.601246	-0.699383	-0.031667
C45	C	0.644046	-0.742983	-0.031064
C46	C	0.593651	-0.837679	-0.024969
C47	C	0.731049	-0.569580	-0.031668
O48	O	0.513853	0.125721	-0.021375
O49	O	0.366846	-0.125678	0.021232
O50	O	0.513856	0.021315	-0.125772
O51	O	0.366843	-0.021272	0.125629
O52	O	0.633253	0.021311	-0.125765
O53	O	0.486243	-0.125682	0.021240
O54	O	0.633250	0.125717	-0.021368
Zn55	Zn	0.578703	0.000017	-0.000063
Zn56	Zn	0.421393	0.000022	-0.000073
O57	O	0.486240	-0.021275	0.125637
O58	O	1.104430	0.125707	-0.492538
O59	O	0.895633	-0.125690	-0.388147
O60	O	0.895628	0.021307	-0.388137
O61	O	1.104435	-0.021290	-0.492548
O62	O	0.895631	0.021311	-0.507540
O63	O	0.895636	-0.125686	-0.507550
O64	O	1.104433	0.125711	-0.611941
Zn65	Zn	1.000035	0.000013	-0.578704
Zn66	Zn	1.000031	0.000008	-0.421384
O67	O	1.104438	-0.021286	-0.611951
O68	O	0.486231	-0.492490	-0.611948
O69	O	0.633235	-0.388087	-0.507553
O70	O	0.486230	-0.388090	-0.507544
O71	O	0.633237	-0.492487	-0.611956
O72	O	0.366830	-0.507490	-0.388142
O73	O	0.513836	-0.507487	-0.388151
O74	O	0.366832	-0.611890	-0.492545
Zn75	Zn	0.421376	-0.578646	-0.421390
Zn76	Zn	0.578691	-0.421331	-0.578708
O77	O	0.513837	-0.611887	-0.492554
C78	C	0.226037	-0.742989	0.386948
C79	C	0.137437	-0.837686	0.431246
C80	C	0.269030	-0.699389	0.430353
C81	C	0.356038	-0.612988	0.256949
C82	C	0.406435	-0.568687	0.162252
C83	C	0.398834	-0.569585	0.300552
C84	C	0.356036	-0.612990	0.386950
C85	C	0.406432	-0.568691	0.431252
C86	C	0.269032	-0.699387	0.300549
C87	C	0.356073	-0.256995	-0.387073
C88	C	0.406473	-0.162299	-0.431376
C89	C	0.398871	-0.300599	-0.430474
C90	C	0.226065	-0.386990	-0.257069
C91	C	0.137460	-0.431286	-0.162372
C92	C	0.269060	-0.430398	-0.300668
C93	C	0.356070	-0.386997	-0.387067
C94	C	0.406468	-0.431300	-0.431364
C95	C	0.269063	-0.300593	-0.300674
C96	C	-0.355975	-0.612964	0.386929
C97	C	-0.406373	-0.568662	0.431227
C98	C	-0.398774	-0.699362	0.430336
C99	C	-0.225968	-0.612970	0.256931
C100	C	-0.137363	-0.568673	0.162234
C101	C	-0.268966	-0.699367	0.300535
C102	C	-0.355976	-0.742966	0.386934
C103	C	-0.406376	-0.837662	0.431237
C104	C	-0.268964	-0.569563	0.300530
C105	C	0.774043	0.030962	-0.387056
C106	C	0.862639	0.024856	-0.431349
C107	C	0.731051	0.031564	-0.430463
C108	C	0.644049	0.030986	-0.257064
C109	C	0.593654	0.024905	-0.162369
C110	C	0.601253	0.031588	-0.300669
C111	C	0.644048	0.030966	-0.387064
C112	C	0.593653	0.024863	-0.431366
C113	C	0.731051	0.031584	-0.300660
O114	O	0.633303	0.125701	-0.611972
O115	O	0.486281	-0.125700	-0.507577
O116	O	0.633272	0.021288	-0.507558
O117	O	0.486311	-0.021287	-0.611991
O118	O	0.513861	0.021292	-0.388162
O119	O	0.366869	-0.125696	-0.388181
O120	O	0.513891	0.125706	-0.492576
Zn121	Zn	0.421421	0.000006	-0.421421
Zn122	Zn	0.578751	0.000000	-0.578731
O123	O	0.366900	-0.021282	-0.492594
C124	C	0.356047	-0.030927	0.386929
C125	C	0.406443	-0.024826	0.431231
C126	C	0.269046	-0.031525	0.430327
C127	C	0.356047	-0.030947	0.256928
C128	C	0.406442	-0.024866	0.162234
C129	C	0.269045	-0.031545	0.300525
C130	C	0.226053	-0.030923	0.386920
C131	C	0.137458	-0.024816	0.431213
C132	C	0.398842	-0.031549	0.300533
H133	H	0.233059	-0.265571	0.032519
C134	C	0.779634	0.032893	-0.253347
C135	C	0.789537	-0.042399	-0.239690
C136	C	0.838105	-0.041100	-0.192369
C137	C	0.876769	0.035491	-0.158706
C138	C	0.866866	0.110788	-0.172362
C139	C	0.818298	0.109489	-0.219683
H140	H	0.760915	-0.099101	-0.264610
H141	H	0.845435	-0.096841	-0.182260
H142	H	0.912721	0.036452	-0.123676
H143	H	0.895488	0.167490	-0.147442
H144	H	0.810968	0.165230	-0.229792
C145	C	0.779676	-0.253290	-0.526360
C146	C	0.818343	-0.291224	-0.598681
C147	C	0.866992	-0.243925	-0.694586
C148	C	0.876973	-0.158693	-0.718170
C149	C	0.838304	-0.120754	-0.645847
C150	C	0.789656	-0.168053	-0.549942
H151	H	0.810956	-0.354323	-0.581224
H152	H	0.895617	-0.272010	-0.748125
H153	H	0.912985	-0.123679	-0.789165
H154	H	0.845692	-0.057656	-0.663304
H155	H	0.761030	-0.139968	-0.496404
H156	H	0.468845	-0.265576	0.032531
C157	C	0.506655	-0.526289	-0.253363
C158	C	0.510925	-0.598616	-0.219712
C159	C	0.416348	-0.694511	-0.172426
C160	C	0.317503	-0.718080	-0.158791
C161	C	0.313229	-0.645751	-0.192443
C162	C	0.407805	-0.549856	-0.239729
H163	H	0.584100	-0.581171	-0.229804
H164	H	0.419513	-0.748054	-0.147515
H165	H	0.247491	-0.789067	-0.123788
H166	H	0.240054	-0.663196	-0.182351
H167	H	0.404641	-0.496313	-0.264641
C168	C	-0.220332	-0.473662	0.253226
C169	C	-0.281950	-0.450073	0.239571
C170	C	-0.233312	-0.354175	0.192263
C171	C	-0.123056	-0.281866	0.158610
C172	C	-0.061432	-0.305453	0.172263
C173	C	-0.110070	-0.401351	0.219572
H174	H	-0.363573	-0.503602	0.264484
H175	H	-0.278930	-0.336715	0.182156
H176	H	-0.087051	-0.210877	0.123589
H177	H	0.020191	-0.251924	0.147350
H178	H	-0.064452	-0.418811	0.229679
C179	C	0.506678	0.032917	-0.253395
C180	C	0.510940	0.109512	-0.219738
C181	C	0.416367	0.110841	-0.172471
C182	C	0.317533	0.035575	-0.158860
C183	C	0.313266	-0.041025	-0.192518
C184	C	0.407839	-0.042354	-0.239785
H185	H	0.584107	0.165233	-0.229813
H186	H	0.419526	0.167546	-0.147555
H187	H	0.247524	0.036558	-0.123870
H188	H	0.240100	-0.096747	-0.182443
H189	H	0.404680	-0.099059	-0.264700
C190	C	0.779651	-0.746684	-0.032994
C191	C	0.889906	-0.708768	-0.109580
C192	C	0.938492	-0.756078	-0.110897
C193	C	0.876823	-0.841304	-0.035630
C194	C	0.766561	-0.879224	0.040961
C195	C	0.717975	-0.831915	0.042279
H196	H	0.935563	-0.645675	-0.165302
H197	H	1.020115	-0.728006	-0.167596
H198	H	0.912789	-0.876325	-0.036605
H199	H	0.720904	-0.942318	0.096684
H200	H	0.636352	-0.859987	0.098977
H201	H	0.767030	-0.498593	-0.032637
C202	C	0.220457	-0.526296	-0.253382
C203	C	0.181797	-0.598620	-0.291313
C204	C	0.133201	-0.694513	-0.244033
C205	C	0.123264	-0.718082	-0.158821
C206	C	0.161925	-0.645756	-0.120885
C207	C	0.210521	-0.549863	-0.168165
H208	H	0.189152	-0.581174	-0.354396
H209	H	0.104582	-0.748054	-0.272116
H210	H	0.087290	-0.789068	-0.123821
H211	H	0.154570	-0.663202	-0.057802
H212	H	0.239140	-0.496322	-0.140082
C213	C	-0.220362	-0.746668	0.253257
C214	C	-0.210423	-0.760313	0.168046
C215	C	-0.161826	-0.807617	0.120773
C216	C	-0.123169	-0.841274	0.158712
C217	C	-0.133107	-0.827630	0.243927
C218	C	-0.181704	-0.780327	0.291200
H219	H	-0.239040	-0.735397	0.139957
H220	H	-0.154469	-0.817717	0.057691
H221	H	-0.087194	-0.876291	0.123718
H222	H	-0.104490	-0.852546	0.272016
H223	H	-0.189061	-0.770226	0.354282
H224	H	0.233069	-0.032523	0.265512
C225	C	0.779654	0.032875	-0.526362
C226	C	0.717994	-0.042392	-0.549927
C227	C	0.766593	-0.041079	-0.645823
C228	C	0.876852	0.035501	-0.718154
C229	C	0.938518	0.110774	-0.694591
C230	C	0.889919	0.109461	-0.598695
H231	H	0.636368	-0.099087	-0.496382
H232	H	0.720943	-0.096802	-0.663266
H233	H	0.912827	0.036473	-0.789142
H234	H	1.020144	0.167468	-0.748136
H235	H	0.935569	0.165183	-0.581252
C236	C	0.493413	-0.473686	0.253262
C237	C	0.489143	-0.401360	0.291190
C238	C	0.583719	-0.305465	0.243902
C239	C	0.682566	-0.281896	0.158686
C240	C	0.686840	-0.354224	0.120754
C241	C	0.592264	-0.450119	0.168042
H242	H	0.415967	-0.418805	0.354276
H243	H	0.580555	-0.251923	0.271982
H244	H	0.752577	-0.210908	0.123681
H245	H	0.760016	-0.336778	0.057668
H246	H	0.595428	-0.503661	0.139962
H247	H	0.233032	-0.734393	0.501347
H248	H	0.233084	-0.265580	-0.265673
H249	H	0.468895	-0.265589	-0.501459
H250	H	0.531229	-0.734388	-0.032637
C251	C	0.220440	-0.032790	0.526212
C252	C	0.282103	0.042520	0.549740
C253	C	0.233500	0.041274	0.645614
C254	C	0.123235	-0.035283	0.717961
C255	C	0.061566	-0.110600	0.694435
C256	C	0.110169	-0.109353	0.598561
H257	H	0.363733	0.099197	0.496183
H258	H	0.279153	0.097028	0.663029
H259	H	0.087257	-0.036206	0.788933
H260	H	-0.020064	-0.167277	0.747992
H261	H	0.064516	-0.165108	0.581146
H262	H	0.233044	-0.734394	0.265547
C263	C	0.493423	-0.032872	0.253237
C264	C	0.489150	-0.109471	0.219585
C265	C	0.583730	-0.110789	0.172284
C266	C	0.682582	-0.035508	0.158636
C267	C	0.686859	0.041097	0.192289
C268	C	0.592279	0.042415	0.239589
H269	H	0.415970	-0.165204	0.229687
H270	H	0.580563	-0.167498	0.147372
H271	H	0.752596	-0.036484	0.123621
H272	H	0.760039	0.096829	0.182186
H273	H	0.595445	0.099123	0.264501
H274	H	0.233055	-0.501375	0.032526
H275	H	0.767008	-0.265581	-0.265636
C276	C	-0.493365	-0.746661	0.526234
C277	C	-0.489107	-0.780325	0.598564
C278	C	-0.583697	-0.827628	0.694456
C279	C	-0.682543	-0.841268	0.718018
C280	C	-0.686805	-0.807604	0.645687
C281	C	-0.592215	-0.760300	0.549794
H282	H	-0.415931	-0.770228	0.581123
H283	H	-0.580541	-0.852549	0.748001
H284	H	-0.752564	-0.876285	0.789004
H285	H	-0.759980	-0.817700	0.663127
H286	H	-0.595370	-0.735380	0.496250
