data_functionalizedCrystal
_audit_creation_method	'MofGen! by Chris Wilmer'
_symmetry_space_group_name_H-M	'P1'
_symmetry_Int_Tables_number	1
_symmetry_cell_setting	triclinic
loop_
_symmetry_equiv_pos_as_xyz
  x,y,z
_cell_length_a	6.817900
_cell_length_b	17.982959
_cell_length_c	17.110486
_cell_angle_alpha	96.531630
_cell_angle_beta	99.060439
_cell_angle_gamma	102.451857
loop_
_atom_site_label
_atom_site_type_symbol
_atom_site_fract_x
_atom_site_fract_y
_atom_site_fract_z
V1	V	-3.971755	-0.105185	-0.247050
O2	O	-3.965632	0.005288	-0.242007
O3	O	-3.918535	-0.208789	-0.245687
O4	O	-3.901697	-0.103465	-0.354648
O5	O	-3.982586	-0.100766	-0.132292
V6	V	-4.458814	-0.091984	-0.233284
O7	O	-4.225257	-0.134145	-0.277246
O8	O	-4.655509	-0.063024	-0.203088
O9	O	-4.288827	0.011620	-0.234647
O10	O	-4.582334	-0.202457	-0.238327
O11	O	-4.565379	-0.096403	-0.348042
O12	O	-4.305665	-0.093704	-0.125686
C13	C	-3.763064	-0.234049	-0.241874
C14	C	-3.800692	-0.318746	-0.241477
C15	C	-3.741585	-0.099696	-0.380863
C16	C	-3.765556	-0.098975	-0.468827
C17	C	-3.999490	-0.362414	-0.245250
C18	C	-4.034836	-0.441996	-0.244882
C19	C	-3.871380	-0.477908	-0.240735
C20	C	-3.672566	-0.434235	-0.236965
C21	C	-3.637225	-0.354655	-0.237339
C22	C	-3.815090	-0.755172	-0.235457
C23	C	-3.850447	-0.834758	-0.235081
C24	C	-4.212701	-0.842513	-0.243001
C25	C	-4.177360	-0.762933	-0.243375
C26	C	-3.978552	-0.719267	-0.239608
C27	C	-3.940229	-0.632976	-0.240009
C28	C	-3.909698	-0.564198	-0.240329
C29	C	-3.957928	-0.102439	-0.514196
C30	C	-3.980439	-0.101761	-0.596847
C31	C	-3.810580	-0.097625	-0.634129
C32	C	-3.618191	-0.094158	-0.588753
C33	C	-3.595679	-0.094831	-0.506103
C34	C	-3.869488	-0.095399	-0.883477
C35	C	-3.892016	-0.094729	-0.966133
C36	C	-4.254263	-0.102330	-0.974221
C37	C	-4.231736	-0.103007	-0.891569
C38	C	-4.039349	-0.099536	-0.846201
C39	C	-3.833587	-0.096934	-0.718612
C40	C	-4.016341	-0.100222	-0.761718
C41	C	-4.107641	0.036876	-0.238458
C42	C	-4.049249	0.121572	-0.238860
C43	C	-4.129120	-0.097475	-0.099467
C44	C	-4.084388	-0.098192	-0.011502
H45	H	-4.132598	-0.333179	-0.248619
O46	O	-4.227946	-0.484473	-0.248666
C47	C	-4.501898	-0.589148	-0.321678
C48	C	-4.283205	-0.541089	-0.317510
H49	H	-4.546627	-0.634944	-0.377325
H50	H	-4.612786	-0.549863	-0.324747
H51	H	-4.508128	-0.618251	-0.266007
H52	H	-4.276777	-0.511980	-0.373167
H53	H	-4.172416	-0.580412	-0.314402
O54	O	-4.396755	-0.107161	-0.855347
C55	C	-4.614291	-0.178620	-0.777644
C56	C	-4.427391	-0.174012	-0.818642
H57	H	-4.639093	-0.232656	-0.747944
H58	H	-4.755741	-0.181032	-0.824248
H59	H	-4.586312	-0.125544	-0.730338
H60	H	-4.455170	-0.227074	-0.865943
H61	H	-4.286003	-0.171562	-0.771992
H62	H	-4.310465	-0.733697	-0.246747
H63	H	-4.374584	-0.878076	-0.246069
H64	H	-3.717330	-0.863995	-0.231710
O65	O	-3.408963	-0.091579	-0.461965
C66	C	-3.206071	-0.154258	-0.374944
C67	C	-3.417650	-0.158032	-0.424880
H68	H	-3.213012	-0.207986	-0.344962
H69	H	-3.159952	-0.100861	-0.327157
H70	H	-3.088559	-0.151153	-0.415799
H71	H	-3.535304	-0.161166	-0.384090
H72	H	-3.463595	-0.211420	-0.472675
O73	O	-3.682678	-0.091982	-0.839331
C74	C	-3.414310	-0.022242	-0.730250
C75	C	-3.625813	-0.025954	-0.780215
H76	H	-3.368289	0.031128	-0.682433
H77	H	-3.296573	-0.019158	-0.771008
H78	H	-3.421559	-0.075990	-0.700286
H79	H	-3.618764	0.027781	-0.810186
H80	H	-3.743464	-0.029077	-0.739419
O81	O	-3.622023	-0.712667	-0.231681
C82	C	-3.347982	-0.608081	-0.158559
C83	C	-3.566680	-0.656148	-0.162754
H84	H	-3.303154	-0.562386	-0.102828
H85	H	-3.341526	-0.578872	-0.214156
H86	H	-3.237298	-0.647446	-0.155564
H87	H	-3.677492	-0.616837	-0.165724
H88	H	-3.572968	-0.685366	-0.107159
O89	O	-3.444163	-0.312136	-0.233567
C90	C	-3.170136	-0.207535	-0.160466
C91	C	-3.388813	-0.255613	-0.164645
H92	H	-3.125302	-0.161836	-0.104738
H93	H	-3.163724	-0.178330	-0.216067
H94	H	-3.059430	-0.246891	-0.157476
H95	H	-3.499648	-0.216310	-0.167609
H96	H	-3.395058	-0.284827	-0.109045
O97	O	-3.453289	-0.090039	-0.625041
C98	C	-3.235622	-0.018547	-0.702677
C99	C	-3.422441	-0.023124	-0.661635
H100	H	-3.210596	0.035558	-0.732259
H101	H	-3.263560	-0.071564	-0.750057
H102	H	-3.094304	-0.016223	-0.656045
H103	H	-3.563843	-0.025423	-0.708208
H104	H	-3.394328	0.029893	-0.614240
O105	O	-4.167264	-0.105226	-0.641013
C106	C	-4.435783	-0.175200	-0.749929
C107	C	-4.224162	-0.171362	-0.699991
H108	H	-4.481869	-0.228675	-0.797613
H109	H	-4.428974	-0.121551	-0.780041
H110	H	-4.553247	-0.178237	-0.709057
H111	H	-4.106582	-0.168350	-0.740808
H112	H	-4.231140	-0.225010	-0.669870
H113	H	-4.410898	-0.105154	-1.011169
H114	H	-3.539481	-0.463482	-0.233593
O115	O	-3.727107	-0.090606	-1.002426
C116	C	-3.509484	-0.019111	-1.080075
C117	C	-3.696288	-0.023692	-1.039023
H118	H	-3.484482	0.034993	-1.109660
H119	H	-3.537425	-0.072130	-1.127454
H120	H	-3.368152	-0.016783	-1.033448
H121	H	-3.837705	-0.025996	-1.085591
H122	H	-3.668172	0.029325	-0.991629
H123	H	-4.096253	-0.105812	-0.483848
H124	H	-3.695292	-0.093569	-0.748976
H125	H	-4.154638	-0.103587	-0.731360
