data_functionalizedCrystal
_audit_creation_method	'MofGen! by Chris Wilmer'
_symmetry_space_group_name_H-M	'P1'
_symmetry_Int_Tables_number	1
_symmetry_cell_setting	triclinic
loop_
_symmetry_equiv_pos_as_xyz
  x,y,z
_cell_length_a	12.759401
_cell_length_b	17.637651
_cell_length_c	12.759393
_cell_angle_alpha	78.751097
_cell_angle_beta	89.980324
_cell_angle_gamma	101.219778
loop_
_atom_site_label
_atom_site_type_symbol
_atom_site_fract_x
_atom_site_fract_y
_atom_site_fract_z
Zn1	Zn	1.521699	-0.314722	-0.509313
Zn2	Zn	2.021699	0.185278	-0.009313
Zn3	Zn	1.486058	-0.446957	-0.298057
Zn4	Zn	1.986058	0.053043	0.201943
Zn5	Zn	1.345987	-0.314761	-0.333641
Zn6	Zn	1.845987	0.185239	0.166359
Zn7	Zn	1.310473	-0.446900	-0.473713
Zn8	Zn	1.810473	0.053100	0.026287
O9	O	1.416054	-0.380835	-0.403681
O10	O	1.916054	0.119165	0.096319
O11	O	1.663990	-0.332271	-0.481295
O12	O	2.163990	0.167729	0.018705
O13	O	1.467424	-0.429462	-0.155745
O14	O	1.967424	0.070538	0.344255
O15	O	1.399075	-0.204114	-0.386735
O16	O	1.899075	0.295886	0.113265
O17	O	1.637805	-0.429424	-0.326086
O18	O	2.137805	0.070576	0.173914
O19	O	1.528169	-0.204085	-0.515800
O20	O	2.028169	0.295915	-0.015800
O21	O	1.364515	-0.332338	-0.181889
O22	O	1.864515	0.167662	0.318111
O23	O	1.194257	-0.332282	-0.352216
O24	O	1.694257	0.167718	0.147784
O25	O	1.338546	-0.429325	-0.625468
O26	O	1.838546	0.070675	-0.125468
O27	O	1.168165	-0.429363	-0.455126
O28	O	1.668165	0.070637	0.044874
O29	O	1.493733	-0.332214	-0.651623
O30	O	1.993733	0.167786	-0.151623
O31	O	1.432987	-0.557591	-0.291567
O32	O	1.932987	-0.057591	0.208433
O33	O	1.303986	-0.557549	-0.420621
O34	O	1.803986	-0.057549	0.079379
C35	C	1.143091	-0.380821	-0.403670
C36	C	1.643091	0.119179	0.096330
C37	C	1.026310	-0.380834	-0.403685
C38	C	1.526310	0.119166	0.096315
C39	C	0.985059	-0.330338	-0.484581
C40	C	1.485059	0.169662	0.015419
C41	C	0.875333	-0.330346	-0.484586
C42	C	1.375333	0.169654	0.015414
C43	C	0.848117	-0.431354	-0.322793
C44	C	1.348117	0.068646	0.177207
C45	C	0.957842	-0.431341	-0.322785
C46	C	1.457842	0.068659	0.177215
C47	C	1.360794	-0.586258	-0.348392
C48	C	1.860794	-0.086258	0.151608
C49	C	1.337249	-0.674139	-0.324775
C50	C	1.837249	-0.174139	0.175225
C51	C	1.595603	-0.962798	-0.583432
C52	C	2.095603	-0.462798	-0.083432
C53	C	1.573446	-1.045376	-0.561221
C54	C	2.073446	-0.545376	-0.061221
C55	C	1.439109	-1.045513	-0.426696
C56	C	1.939109	-0.545513	0.073304
C57	C	1.461258	-0.962934	-0.448891
C58	C	1.961258	-0.462934	0.051109
C59	C	1.539506	-0.921583	-0.527261
C60	C	2.039506	-0.421583	-0.027261
C61	C	1.405161	-0.921719	-0.392721
C62	C	1.905161	-0.421719	0.107279
C63	C	1.427305	-0.839147	-0.414919
C64	C	1.927305	-0.339147	0.085081
C65	C	1.505547	-0.797790	-0.493288
C66	C	2.005547	-0.297790	0.006712
C67	C	1.561650	-0.839011	-0.549459
C68	C	2.061650	-0.339011	-0.049459
C69	C	1.326909	-0.963072	-0.314357
C70	C	1.826909	-0.463072	0.185643
C71	C	1.270812	-0.921856	-0.258186
C72	C	1.770812	-0.421856	0.241814
C73	C	1.292961	-0.839283	-0.280379
C74	C	1.792961	-0.339283	0.219621
C75	C	1.371202	-0.797926	-0.358747
C76	C	1.871202	-0.297926	0.141253
C77	C	1.236858	-0.798062	-0.224207
C78	C	1.736858	-0.298062	0.275793
C79	C	1.259002	-0.715490	-0.246405
C80	C	1.759002	-0.215490	0.253595
C81	C	1.393346	-0.715354	-0.380945
C82	C	1.893346	-0.215354	0.119055
C83	C	1.690084	-0.380849	-0.403693
C84	C	2.190084	0.119151	0.096307
C85	C	1.806859	-0.380855	-0.403698
C86	C	2.306859	0.119145	0.096302
C87	C	1.416153	-0.380759	-0.677735
C88	C	1.916153	0.119241	-0.177735
C89	C	1.416195	-0.380727	-0.794520
C90	C	1.916195	0.119273	-0.294520
C91	C	1.471559	-0.174609	-0.459208
C92	C	1.971559	0.325391	0.040792
C93	C	1.495212	-0.086729	-0.482871
C94	C	1.995212	0.413271	0.017129
C95	C	1.497009	-0.330153	-0.863005
C96	C	1.997009	0.169847	-0.363005
C97	C	1.497035	-0.330119	-0.972738
C98	C	1.997035	0.169881	-0.472738
C99	C	1.335432	-0.431239	-0.945491
C100	C	1.835432	0.068761	-0.445491
C101	C	1.335401	-0.431268	-0.835761
C102	C	1.835401	0.068732	-0.335761
C103	C	1.416031	-0.380853	-0.130709
C104	C	1.916031	0.119147	0.369291
C105	C	1.416253	-0.380663	-0.013984
C106	C	1.916253	0.119337	0.486016
H107	H	1.457071	-0.681685	-0.444754
H108	H	1.957071	-0.181685	0.055246
Br109	Br	1.013835	-0.499865	-0.212977
Br110	Br	1.513835	0.000135	0.287023
Br111	Br	1.606721	-0.261486	-1.065677
Br112	Br	2.106721	0.238514	-0.565677
H113	H	1.269586	-0.472451	-0.779998
H114	H	1.769586	0.027549	-0.279998
Br115	Br	1.535233	-0.685728	-0.523786
Br116	Br	2.035233	-0.185728	-0.023786
H117	H	1.562794	-0.288997	-0.829432
H118	H	2.062794	0.211003	-0.329432
Br119	Br	1.297028	-1.075135	-0.284057
Br120	Br	1.797028	-0.575135	0.215943
H121	H	1.040804	-0.289210	-0.550452
H122	H	1.540804	0.210790	-0.050452
H123	H	0.841753	-0.289226	-0.550459
H124	H	1.341753	0.210774	-0.050459
Br125	Br	0.755190	-0.499896	-0.213008
Br126	Br	1.255190	0.000104	0.286992
H127	H	1.625375	-0.805341	-0.613268
H128	H	2.125375	-0.305341	-0.113268
Br129	Br	1.701814	-0.906671	-0.689776
Br130	Br	2.201814	-0.406671	-0.189776
H131	H	1.619118	-1.078930	-0.606983
H132	H	2.119118	-0.578930	-0.106983
Br133	Br	1.225791	-0.499831	-1.001466
Br134	Br	1.725791	0.000169	-0.501466
H135	H	1.375397	-1.079193	-0.362890
H136	H	1.875397	-0.579193	0.137110
H137	H	1.207100	-0.955536	-0.194380
H138	H	1.707100	-0.455536	0.305620
Br139	Br	1.182871	-0.659550	-0.170173
Br140	Br	1.682871	-0.159550	0.329827
Br141	Br	1.130649	-0.854191	-0.117872
Br142	Br	1.630649	-0.354191	0.382128
