data_functionalizedCrystal
_audit_creation_method	'MofGen! by Chris Wilmer'
_symmetry_space_group_name_H-M	'P1'
_symmetry_Int_Tables_number	1
_symmetry_cell_setting	triclinic
loop_
_symmetry_equiv_pos_as_xyz
  x,y,z
_cell_length_a	8.597340
_cell_length_b	8.559649
_cell_length_c	8.140239
_cell_angle_alpha	90.001146
_cell_angle_beta	82.299373
_cell_angle_gamma	77.625043
loop_
_atom_site_label
_atom_site_type_symbol
_atom_site_fract_x
_atom_site_fract_y
_atom_site_fract_z
O1	O	2.053717	0.238040	-0.154094
O2	O	1.594587	0.256301	-0.089103
O3	O	1.864602	0.015200	-0.127326
O4	O	1.783702	0.479140	-0.115871
O5	O	1.864594	0.015198	-0.400552
O6	O	1.594580	0.256299	-0.362329
O7	O	2.053709	0.238038	-0.427320
Zn8	Zn	1.824143	0.247168	-0.438205
Zn9	Zn	1.824153	0.247170	-0.078218
O10	O	1.783695	0.479138	-0.389097
C11	C	1.536349	0.254338	-0.217473
C12	C	1.362831	0.248476	-0.192910
C13	C	1.870729	-0.044235	-0.264804
C14	C	1.888978	-0.221330	-0.267378
C15	C	2.111948	0.240000	-0.298947
C16	C	2.285466	0.245863	-0.323499
C17	C	1.777568	0.538573	-0.251616
C18	C	1.759319	0.715668	-0.249031
N19	N	1.824148	0.247166	-0.683888
N20	N	1.824162	0.247160	0.167463
H21	H	1.351980	0.248100	-0.454098
O22	O	1.274738	0.245509	-0.019896
H23	H	1.147697	0.241233	-0.027091
H24	H	1.634351	-0.202787	-0.231347
H25	H	2.013954	-0.302883	-0.285082
