data_functionalizedCrystal
_audit_creation_method	'MofGen! by Chris Wilmer'
_symmetry_space_group_name_H-M	'P1'
_symmetry_Int_Tables_number	1
_symmetry_cell_setting	triclinic
loop_
_symmetry_equiv_pos_as_xyz
  x,y,z
_cell_length_a	16.625548
_cell_length_b	19.121063
_cell_length_c	16.625525
_cell_angle_alpha	92.346297
_cell_angle_beta	89.938871
_cell_angle_gamma	92.470058
loop_
_atom_site_label
_atom_site_type_symbol
_atom_site_fract_x
_atom_site_fract_y
_atom_site_fract_z
Zn1	Zn	1.219314	-0.279135	-0.469556
Zn2	Zn	1.213355	-0.396718	-0.340471
Zn3	Zn	1.084373	-0.279293	-0.334744
Zn4	Zn	1.078688	-0.396546	-0.475253
O5	O	1.148932	-0.337923	-0.405006
O6	O	1.331356	-0.294738	-0.452445
O7	O	1.196130	-0.381280	-0.226885
O8	O	1.107146	-0.180992	-0.347846
O9	O	1.326978	-0.381126	-0.357607
O10	O	1.206286	-0.180876	-0.446892
O11	O	1.101367	-0.295008	-0.222678
O12	O	0.970786	-0.294841	-0.353370
O13	O	1.097457	-0.380833	-0.587323
O14	O	0.966610	-0.380987	-0.456601
O15	O	1.200774	-0.294571	-0.583138
O16	O	1.190618	-0.494975	-0.363131
O17	O	1.091679	-0.494849	-0.462154
C18	C	0.939442	-0.337913	-0.404983
C19	C	0.849820	-0.337926	-0.404993
C20	C	1.139907	-0.520395	-0.413900
C21	C	1.136120	-0.598457	-0.417732
C22	C	0.521644	-0.337930	-0.405028
C23	C	0.612953	-0.337927	-0.405015
C24	C	0.685729	-0.337928	-0.405010
C25	C	0.777044	-0.337924	-0.404999
C26	C	1.185893	-0.635173	-0.368018
C27	C	1.182336	-0.708521	-0.371627
C28	C	1.129001	-0.745152	-0.424945
C29	C	1.079226	-0.708430	-0.474664
C30	C	1.082788	-0.635084	-0.471059
C31	C	1.115672	-0.966608	-0.438411
C32	C	1.112112	-1.039960	-0.442011
C33	C	1.215224	-1.040046	-0.338974
C34	C	1.218777	-0.966698	-0.335370
C35	C	1.169005	-0.929983	-0.385092
C36	C	1.125362	-0.820125	-0.428633
C37	C	1.172649	-0.855011	-0.381408
C38	C	1.359241	-0.337934	-0.405029
C39	C	1.448862	-0.337938	-0.405039
C40	C	1.149146	-0.337666	-0.615303
C41	C	1.149238	-0.337556	-0.704919
C42	C	1.158015	-0.154738	-0.396095
C43	C	1.161885	-0.076676	-0.392297
C44	C	1.148768	-0.338129	-0.195524
C45	C	1.148843	-0.338041	-0.105899
C46	C	1.148917	-0.337958	-0.033113
C47	C	1.149009	-0.337848	0.058201
C48	C	1.149078	-0.337757	0.130981
C49	C	1.149168	-0.337647	0.222301
H50	H	1.222866	-0.738412	-0.331144
H51	H	1.216077	-0.825185	-0.337999
H52	H	1.262207	-0.936875	-0.291954
C53	C	1.269974	-1.080430	-0.284288
H54	H	1.302244	-1.048109	-0.252015
H55	H	1.303725	-1.108969	-0.316565
H56	H	1.237728	-1.109120	-0.250533
H57	H	1.068690	-1.069782	-0.485443
C58	C	1.060910	-0.926231	-0.493089
H59	H	1.028628	-0.958553	-0.525349
H60	H	1.093141	-0.897536	-0.526844
H61	H	1.027158	-0.897698	-0.460798
H62	H	1.042258	-0.605190	-0.511542
C63	C	1.020560	-0.748718	-0.533317
H64	H	0.991433	-0.716344	-0.562414
H65	H	0.984029	-0.777406	-0.503854
H66	H	1.050030	-0.777250	-0.569882
C67	C	1.244563	-0.594887	-0.309369
H68	H	1.273702	-0.627261	-0.280284
H69	H	1.215104	-0.566352	-0.272804
H70	H	1.281096	-0.566201	-0.338842
H71	H	1.081935	-0.849957	-0.472044
