data_functionalizedCrystal
_audit_creation_method	'MofGen! by Chris Wilmer'
_symmetry_space_group_name_H-M	'P1'
_symmetry_Int_Tables_number	1
_symmetry_cell_setting	triclinic
loop_
_symmetry_equiv_pos_as_xyz
  x,y,z
_cell_length_a	42.784876
_cell_length_b	42.784822
_cell_length_c	42.795233
_cell_angle_alpha	90.016530
_cell_angle_beta	59.990139
_cell_angle_gamma	119.999903
loop_
_atom_site_label
_atom_site_type_symbol
_atom_site_fract_x
_atom_site_fract_y
_atom_site_fract_z
O1	O	-0.223712	0.266397	0.009298
O2	O	-0.159709	0.220942	-0.009250
O3	O	-0.223709	0.220957	0.054736
O4	O	-0.159711	0.266382	-0.054689
O5	O	-0.275693	0.168973	0.054736
O6	O	-0.211692	0.168958	-0.009251
O7	O	-0.275695	0.214414	0.009297
Cu8	Cu	-0.248440	0.186939	0.000023
Cu9	Cu	-0.186964	0.248416	0.000024
O10	O	-0.211695	0.214398	-0.054689
C11	C	-0.384404	0.412573	0.028187
C12	C	-0.422284	0.393590	0.028452
C13	C	-0.384402	0.355975	0.028183
C14	C	-0.422282	0.337078	0.028448
C15	C	-0.441002	0.355975	0.028186
C16	C	-0.365770	0.393591	0.028449
C17	C	-0.282481	0.549056	0.017946
C18	C	-0.261644	0.587706	0.015051
C19	C	-0.279531	0.607095	0.013599
C20	C	-0.256936	0.649004	0.010453
C21	C	-0.318258	0.587830	0.015045
C22	C	-0.339094	0.549181	0.017945
C23	C	-0.321204	0.529794	0.019396
C24	C	-0.567244	0.321410	0.017945
C25	C	-0.602999	0.303595	0.015049
C26	C	-0.620933	0.266322	0.013592
C27	C	-0.659696	0.247004	0.010447
C28	C	-0.603113	0.246862	0.015036
C29	C	-0.567364	0.264674	0.017939
C30	C	-0.549430	0.301952	0.019391
C31	C	-0.282472	0.321413	0.017932
C32	C	-0.261630	0.303600	0.015029
C33	C	-0.279515	0.266325	0.013573
C34	C	-0.256918	0.247010	0.010423
C35	C	-0.318238	0.246867	0.015018
C36	C	-0.339077	0.264681	0.017920
C37	C	-0.321192	0.301955	0.019380
C38	C	-0.343799	0.487886	0.022537
C39	C	-0.361809	0.454481	0.025042
C40	C	-0.361805	0.336662	0.025035
C41	C	-0.343792	0.321267	0.022527
C42	C	-0.479765	0.336660	0.025040
C43	C	-0.510664	0.321265	0.022534
O44	O	-0.672388	0.266375	-0.054665
O45	O	-0.763293	0.220950	0.054761
O46	O	-0.763294	0.220933	-0.009222
O47	O	-0.672387	0.266392	0.009318
O48	O	-0.763291	0.168950	-0.009225
O49	O	-0.763290	0.168967	0.054758
O50	O	-0.672385	0.214393	-0.054668
Cu51	Cu	-0.717837	0.186934	0.000045
Cu52	Cu	-0.717841	0.248409	0.000048
O53	O	-0.672384	0.214410	0.009315
C54	C	-0.384405	0.356128	-0.361455
C55	C	-0.422285	0.337240	-0.323848
C56	C	-0.384410	0.412725	-0.361450
C57	C	-0.422290	0.393750	-0.323843
C58	C	-0.441006	0.356140	-0.304867
C59	C	-0.365775	0.393738	-0.380345
C60	C	-0.282473	0.321550	-0.453119
C61	C	-0.261633	0.303733	-0.471058
C62	C	-0.279516	0.266463	-0.451725
C63	C	-0.256918	0.247145	-0.471170
C64	C	-0.318242	0.247011	-0.414453
C65	C	-0.339082	0.264827	-0.396520
C66	C	-0.321195	0.302098	-0.415855
C67	C	-0.567243	0.264494	-0.168414
C68	C	-0.602997	0.246562	-0.129772
C69	C	-0.620935	0.265904	-0.110383
C70	C	-0.659697	0.246468	-0.068483
C71	C	-0.603118	0.303178	-0.129641
C72	C	-0.567370	0.321106	-0.168284
C73	C	-0.549433	0.301760	-0.187668
C74	C	-0.282492	0.549187	-0.453100
C75	C	-0.261654	0.587835	-0.471032
C76	C	-0.279542	0.607228	-0.451694
C77	C	-0.256949	0.649134	-0.471134
C78	C	-0.318265	0.587973	-0.414424
C79	C	-0.339099	0.549326	-0.396494
C80	C	-0.321211	0.529935	-0.415837
C81	C	-0.343794	0.321415	-0.396404
C82	C	-0.361807	0.336812	-0.380902
C83	C	-0.361817	0.454628	-0.380892
C84	C	-0.343808	0.488030	-0.396390
C85	C	-0.479768	0.336701	-0.262967
C86	C	-0.510667	0.321204	-0.229569
C87	C	0.005333	0.079125	-0.028105
C88	C	-0.013386	0.041509	-0.028368
C89	C	-0.051263	0.079127	-0.028109
C90	C	-0.069896	0.041511	-0.028372
C91	C	-0.051265	0.022527	-0.028105
C92	C	-0.013384	0.098023	-0.028372
C93	C	0.131570	0.170806	-0.017858
C94	C	0.167324	0.188747	-0.014960
C95	C	0.185257	0.169407	-0.013503
C96	C	0.224019	0.188855	-0.010354
C97	C	0.167437	0.132126	-0.014948
C98	C	0.131691	0.114190	-0.017851
C99	C	0.113757	0.133532	-0.019306
C100	C	-0.096077	-0.113958	-0.017856
C101	C	-0.116789	-0.152609	-0.014959
C102	C	-0.155517	-0.172000	-0.013504
C103	C	-0.177982	-0.213908	-0.010357
C104	C	-0.173530	-0.152734	-0.014952
C105	C	-0.152815	-0.114083	-0.017856
C106	C	-0.114086	-0.094697	-0.019306
C107	C	-0.096067	0.170811	-0.017872
C108	C	-0.116781	0.188751	-0.014973
C109	C	-0.155509	0.169412	-0.013520
C110	C	-0.177971	0.188861	-0.010375
C111	C	-0.173524	0.132133	-0.014963
C112	C	-0.152810	0.114194	-0.017861
C113	C	-0.114078	0.133538	-0.019318
C114	C	0.074992	0.114079	-0.022450
C115	C	0.044094	0.098575	-0.024958
C116	C	-0.073722	0.098577	-0.024965
C117	C	-0.091623	0.114083	-0.022460
C118	C	-0.073726	-0.019382	-0.024958
C119	C	-0.091629	-0.052787	-0.022451
O120	O	-0.211705	0.772273	-0.009230
O121	O	-0.275710	0.662825	0.009320
O122	O	-0.211705	0.726802	-0.054667
O123	O	-0.275709	0.708295	0.054758
O124	O	-0.159725	0.726801	-0.054661
O125	O	-0.223729	0.662823	0.009326
O126	O	-0.159725	0.772271	-0.009224
Cu127	Cu	-0.186981	0.717547	0.000052
Cu128	Cu	-0.248454	0.717549	0.000045
O129	O	-0.223729	0.708293	0.054763
O130	O	-0.159748	0.772383	-0.548645
O131	O	-0.223743	0.662944	-0.503207
O132	O	-0.159745	0.726943	-0.503207
O133	O	-0.223746	0.708383	-0.548646
O134	O	-0.211730	0.726956	-0.451233
O135	O	-0.275728	0.662956	-0.451234
O136	O	-0.211734	0.772395	-0.496672
Cu137	Cu	-0.248478	0.717677	-0.469207
Cu138	Cu	-0.186999	0.717662	-0.530672
O139	O	-0.275732	0.708395	-0.496672
O140	O	-0.211677	0.169102	-0.496716
O141	O	-0.275690	0.214556	-0.451272
O142	O	-0.211687	0.214564	-0.451271
O143	O	-0.275680	0.169094	-0.496717
O144	O	-0.159706	0.266535	-0.503241
O145	O	-0.223708	0.266527	-0.503242
O146	O	-0.159696	0.221073	-0.548686
Cu147	Cu	-0.186956	0.248546	-0.530709
Cu148	Cu	-0.248430	0.187084	-0.469249
O149	O	-0.223698	0.221065	-0.548687
C150	C	-0.440737	0.022880	0.361516
C151	C	-0.422018	0.041868	0.380408
C152	C	-0.384140	0.079464	0.304932
C153	C	-0.365507	0.098366	0.323910
C154	C	-0.384138	0.079479	0.361516
C155	C	-0.422019	0.041853	0.323910
C156	C	-0.566975	-0.113597	0.396068
C157	C	-0.602729	-0.152244	0.413878
C158	C	-0.620663	-0.171624	0.451143
C159	C	-0.659424	-0.213529	0.470453
C160	C	-0.602843	-0.152353	0.470599
C161	C	-0.567096	-0.113708	0.452791
C162	C	-0.549162	-0.094330	0.415523
C163	C	-0.339327	0.114065	0.453170
C164	C	-0.318615	0.131885	0.471106
C165	C	-0.279886	0.169153	0.451772
C166	C	-0.257422	0.188475	0.471213
C167	C	-0.261873	0.188604	0.414502
C168	C	-0.282589	0.170787	0.396570
C169	C	-0.321317	0.133514	0.415908
C170	C	-0.339335	0.113988	0.168479
C171	C	-0.318621	0.131791	0.129836
C172	C	-0.279893	0.169061	0.110451
C173	C	-0.257430	0.188365	0.068551
C174	C	-0.261878	0.188525	0.129710
C175	C	-0.282592	0.170721	0.168352
C176	C	-0.321324	0.133453	0.187735
C177	C	-0.510397	-0.052426	0.396215
C178	C	-0.479498	-0.019024	0.380824
C179	C	-0.361681	0.098766	0.263033
C180	C	-0.343780	0.114152	0.229635
C181	C	-0.361678	0.098798	0.380960
C182	C	-0.343775	0.114197	0.396460
C183	C	-0.051023	0.356119	-0.361469
C184	C	-0.013144	0.393729	-0.380361
C185	C	-0.051021	0.356135	-0.304885
C186	C	-0.013142	0.393745	-0.323863
C187	C	0.005575	0.412718	-0.361469
C188	C	-0.069655	0.337232	-0.323863
C189	C	-0.152951	0.264430	-0.396019
C190	C	-0.173789	0.246484	-0.413829
C191	C	-0.155905	0.265814	-0.451094
C192	C	-0.178502	0.246361	-0.470404
C193	C	-0.117179	0.303089	-0.470550
C194	C	-0.096341	0.321029	-0.452742
C195	C	-0.114229	0.301698	-0.415475
C196	C	0.131812	0.549180	-0.453125
C197	C	0.167565	0.587827	-0.471061
C198	C	0.185501	0.607223	-0.451727
C199	C	0.224263	0.649127	-0.471168
C200	C	0.167683	0.587968	-0.414457
C201	C	0.131936	0.549321	-0.396525
C202	C	0.114000	0.529929	-0.415863
C203	C	-0.152942	0.264493	-0.168432
C204	C	-0.173781	0.246565	-0.129788
C205	C	-0.155895	0.265911	-0.110404
C206	C	-0.178489	0.246475	-0.068504
C207	C	-0.117173	0.303184	-0.129663
C208	C	-0.096337	0.321110	-0.168306
C209	C	-0.114223	0.301760	-0.187688
C210	C	-0.091632	0.321156	-0.396167
C211	C	-0.073620	0.336664	-0.380777
C212	C	-0.073616	0.336697	-0.262986
C213	C	-0.091626	0.321202	-0.229589
C214	C	0.044337	0.454622	-0.380913
C215	C	0.075235	0.488024	-0.396414
C216	C	-1.051296	0.079210	0.361538
C217	C	-1.069929	0.041598	0.380428
C218	C	-0.994693	0.079198	0.304953
C219	C	-1.013412	0.041586	0.323928
C220	C	-1.051295	0.022611	0.361534
C221	C	-1.013413	0.098099	0.323933
C222	C	-1.096107	0.170896	0.396098
C223	C	-1.116820	0.188840	0.413909
C224	C	-1.155552	0.169508	0.451174
C225	C	-1.178017	0.188959	0.470486
C226	C	-1.173567	0.132232	0.470627
C227	C	-1.152851	0.114293	0.452817
C228	C	-1.114119	0.133627	0.415551
C229	C	-1.153225	-0.113855	0.453180
C230	C	-1.174064	-0.152503	0.471113
C231	C	-1.156180	-0.171898	0.451778
C232	C	-1.178773	-0.213802	0.471216
C233	C	-1.117451	-0.152640	0.414508
C234	C	-1.096609	-0.113992	0.396579
C235	C	-1.114503	-0.094602	0.415919
C236	C	-0.868442	0.170848	0.168504
C237	C	-0.832688	0.188778	0.129861
C238	C	-0.814751	0.169434	0.110474
C239	C	-0.775985	0.188873	0.068574
C240	C	-0.832572	0.132160	0.129731
C241	C	-0.868326	0.114231	0.168373
C242	C	-0.886256	0.133580	0.187757
C243	C	-1.091661	0.114170	0.396241
C244	C	-1.073757	0.098663	0.380848
C245	C	-0.955927	0.098638	0.263055
C246	C	-0.925025	0.114135	0.229657
C247	C	-1.073892	-0.019293	0.380975
C248	C	-1.091903	-0.052696	0.396473
C249	C	0.005334	0.745568	-0.361440
C250	C	-0.013383	0.745826	-0.380334
C251	C	-0.051264	0.745589	-0.304859
C252	C	-0.069895	0.745847	-0.323839
C253	C	-0.051262	0.745569	-0.361445
C254	C	-0.013385	0.745846	-0.323834
C255	C	0.131567	0.735306	-0.395981
C256	C	0.167321	0.732401	-0.413788
C257	C	0.185256	0.730933	-0.451053
C258	C	0.224017	0.727777	-0.470360
C259	C	0.167439	0.732373	-0.470511
C260	C	0.131692	0.735283	-0.452706
C261	C	0.113757	0.736749	-0.415439
C262	C	-0.096064	0.735292	-0.453106
C263	C	-0.116773	0.732389	-0.471044
C264	C	-0.155502	0.730940	-0.451713
C265	C	-0.177963	0.727787	-0.471156
C266	C	-0.173517	0.732400	-0.414443
C267	C	-0.152804	0.735309	-0.396508
C268	C	-0.114075	0.736753	-0.415844
C269	C	-0.096077	0.735391	-0.168404
C270	C	-0.116792	0.732502	-0.129761
C271	C	-0.155521	0.731056	-0.110379
C272	C	-0.177985	0.727922	-0.068479
C273	C	-0.173533	0.732494	-0.129640
C274	C	-0.152817	0.735381	-0.168282
C275	C	-0.114086	0.736832	-0.187662
C276	C	0.074992	0.739900	-0.396134
C277	C	0.044095	0.742413	-0.380745
C278	C	-0.073725	0.742457	-0.262960
C279	C	-0.091628	0.739962	-0.229563
C280	C	-0.073720	0.742416	-0.380891
C281	C	-0.091620	0.739904	-0.396393
O282	O	-0.763016	-0.336781	0.548478
O283	O	-0.672113	-0.227341	0.503040
O284	O	-0.672111	-0.291339	0.503035
O285	O	-0.763019	-0.272783	0.548482
O286	O	-0.672111	-0.291352	0.451064
O287	O	-0.672114	-0.227354	0.451068
O288	O	-0.763016	-0.336793	0.496506
Cu289	Cu	-0.717565	-0.282075	0.469042
Cu290	Cu	-0.717565	-0.282060	0.530504
O291	O	-0.763019	-0.272795	0.496511
C292	C	-0.384420	0.689526	0.361541
C293	C	-0.422298	0.689270	0.380431
C294	C	-0.384417	0.689507	0.304955
C295	C	-0.422295	0.689250	0.323930
C296	C	-0.441015	0.689528	0.361536
C297	C	-0.365786	0.689248	0.323936
C298	C	-0.282502	0.699783	0.396104
C299	C	-0.261667	0.702686	0.413916
C300	C	-0.279553	0.704154	0.451182
C301	C	-0.256960	0.707308	0.470494
C302	C	-0.318278	0.702715	0.470634
C303	C	-0.339113	0.699807	0.452824
C304	C	-0.321224	0.698341	0.415557
C305	C	-0.567251	0.699810	0.453181
C306	C	-0.603004	0.702715	0.471114
C307	C	-0.620937	0.704165	0.451778
C308	C	-0.659698	0.707319	0.471215
C309	C	-0.603117	0.702705	0.414507
C310	C	-0.567370	0.699794	0.396578
C311	C	-0.549438	0.698349	0.415919
C312	C	-0.282489	0.699704	0.168506
C313	C	-0.261647	0.702592	0.129863
C314	C	-0.279531	0.704040	0.110475
C315	C	-0.256934	0.707174	0.068575
C316	C	-0.318252	0.702603	0.129732
C317	C	-0.339091	0.699717	0.168373
C318	C	-0.321207	0.698264	0.187759
C319	C	-0.343817	0.695191	0.396246
C320	C	-0.361826	0.692679	0.380853
C321	C	-0.361820	0.692638	0.263057
C322	C	-0.343808	0.695134	0.229659
C323	C	-0.479776	0.692683	0.380976
C324	C	-0.510673	0.695196	0.396474
H325	H	-0.332819	0.603618	0.013865
O326	O	-0.550101	0.698303	0.360405
C327	C	-0.533974	0.662123	0.319404
C328	C	-0.553552	0.663759	0.360389
H329	H	-0.536749	0.634200	0.319377
H330	H	-0.552937	0.663630	0.308654
H331	H	-0.497710	0.687345	0.299831
H332	H	-0.589813	0.638541	0.379991
H333	H	-0.534556	0.662270	0.371108
O334	O	-0.265076	0.698344	0.359910
C335	C	-0.206714	0.698646	0.305526
C336	C	-0.226406	0.700267	0.346517
H337	H	-0.175441	0.700208	0.294682
H338	H	-0.231839	0.670708	0.305519
H339	H	-0.198270	0.723851	0.286018
H340	H	-0.234848	0.675081	0.366048
H341	H	-0.201269	0.728220	0.346493
O342	O	-0.376736	0.245738	0.019394
C343	C	-0.452293	0.190605	0.053155
C344	C	-0.409676	0.212024	0.051536
H345	H	-0.478934	0.163340	0.079136
H346	H	-0.464151	0.209715	0.055504
H347	H	-0.445331	0.182892	0.026004
H348	H	-0.416603	0.219740	0.078681
H349	H	-0.397831	0.192902	0.049168
H350	H	0.002282	0.026271	-0.028795
O351	O	-1.106284	0.023372	0.417294
C352	C	-1.160017	-0.034582	0.471734
C353	C	-1.118841	-0.013983	0.429989
H354	H	-1.170187	-0.064790	0.482008
H355	H	-1.152113	-0.018084	0.490613
H356	H	-1.188255	-0.036128	0.473475
H357	H	-1.090584	-0.012432	0.428211
H358	H	-1.126781	-0.030488	0.411128
O359	O	-0.376713	0.698305	0.187026
C360	C	-0.430647	0.698640	0.182814
C361	C	-0.388043	0.700233	0.161647
H362	H	-0.439815	0.700205	0.162302
H363	H	-0.458645	0.670710	0.207933
H364	H	-0.425002	0.723854	0.193873
H365	H	-0.393644	0.675038	0.150563
H366	H	-0.360059	0.728178	0.136546
H367	H	-0.370871	0.083642	0.184259
O368	O	0.005374	0.134901	-0.028901
C369	C	0.064065	0.189364	-0.029632
C370	C	0.042873	0.147605	-0.029038
H371	H	0.094381	0.199646	-0.029735
H372	H	0.074363	0.208232	-0.056422
H373	H	0.039115	0.191121	-0.003149
H374	H	0.067799	0.145811	-0.055503
H375	H	0.032565	0.128757	-0.002232
O376	O	-0.211109	0.731161	-0.110820
C377	C	-0.246614	0.760793	-0.075831
C378	C	-0.204032	0.762350	-0.097139
H379	H	-0.240910	0.786002	-0.064757
H380	H	-0.255929	0.762343	-0.096229
H381	H	-0.274541	0.732860	-0.050708
H382	H	-0.176078	0.790279	-0.122261
H383	H	-0.194755	0.760779	-0.076716
H384	H	0.182044	0.116383	-0.013765
H385	H	-0.064542	-0.098177	-0.019038
O386	O	-0.058679	0.357290	-0.187014
C387	C	0.016878	0.399071	-0.207423
C388	C	-0.025738	0.358079	-0.186234
H389	H	0.043519	0.399724	-0.206792
H390	H	0.028737	0.408574	-0.238382
H391	H	0.009915	0.419270	-0.192756
H392	H	-0.018810	0.337852	-0.200869
H393	H	-0.037584	0.348608	-0.155275
H394	H	0.002523	0.408989	-0.308625
H395	H	-0.552591	-0.098020	0.468634
H396	H	-1.065077	-0.098316	0.366234
O397	O	-0.211136	-0.171504	-0.013563
C398	C	-0.265244	-0.167554	-0.013840
C399	C	-0.222646	-0.146248	-0.015428
H400	H	-0.274568	-0.147146	-0.015339
H401	H	-0.259565	-0.178610	-0.039056
H402	H	-0.293153	-0.192692	0.014082
H403	H	-0.194716	-0.121094	-0.043334
H404	H	-0.228361	-0.135220	0.009807
H405	H	-0.370862	0.083718	0.468919
O406	O	-0.335654	0.703943	0.110904
C407	C	-0.365768	0.674325	0.075900
C408	C	-0.346077	0.672756	0.097218
H409	H	-0.374191	0.649118	0.064823
H410	H	-0.397040	0.672778	0.096293
H411	H	-0.340617	0.702260	0.050779
H412	H	-0.371194	0.644826	0.122339
H413	H	-0.314795	0.674325	0.076801
H414	H	-0.230113	0.603389	0.013871
O415	O	-0.170303	-0.095344	-0.019213
C416	C	-0.200681	-0.060507	0.010426
C417	C	-0.180870	-0.081710	0.012000
H418	H	-0.209238	-0.049486	0.035662
H419	H	-0.175597	-0.035361	-0.017483
H420	H	-0.231906	-0.081006	0.011945
H421	H	-0.149650	-0.061242	0.010495
H422	H	-0.205983	-0.106861	0.039906
H423	H	-0.064529	0.736470	-0.468853
O424	O	-0.335592	0.704210	0.506806
C425	C	-0.324103	0.740393	0.547744
C426	C	-0.304444	0.738753	0.506760
H427	H	-0.298926	0.768315	0.547722
H428	H	-0.355345	0.738891	0.558598
H429	H	-0.332584	0.715170	0.567260
H430	H	-0.295935	0.763972	0.487214
H431	H	-0.273218	0.740237	0.495937
O432	O	0.114220	0.189658	-0.019288
C433	C	0.117868	0.247703	-0.018978
C434	C	0.137567	0.226403	-0.017363
H435	H	0.136729	0.277413	-0.017414
H436	H	0.120678	0.250506	-0.046911
H437	H	0.081588	0.230944	0.006225
H438	H	0.173852	0.243144	-0.042546
H439	H	0.134722	0.223596	0.010586
H440	H	-0.102609	0.318936	-0.113878
O441	O	-0.441055	0.411878	-0.305641
C442	C	-0.505988	0.412012	-0.274459
C443	C	-0.484796	0.391440	-0.295058
H444	H	-0.541353	0.395501	-0.265904
H445	H	-0.506215	0.413569	-0.247759
H446	H	-0.486070	0.442214	-0.294493
H447	H	-0.504697	0.361228	-0.275055
H448	H	-0.484563	0.389913	-0.321763
O449	O	-0.994654	0.023462	0.305702
C450	C	-0.935960	0.027677	0.247756
C451	C	-0.957152	0.048249	0.268352
H452	H	-0.905641	0.047705	0.217551
H453	H	-0.925665	0.019099	0.264250
H454	H	-0.960908	0.000980	0.246212
H455	H	-0.932227	0.074959	0.269900
H456	H	-0.967456	0.056798	0.251850
H457	H	-0.267924	0.533401	-0.468852
O458	O	0.114085	0.736722	-0.359779
C459	C	0.058977	0.741239	-0.307218
C460	C	0.078728	0.739630	-0.348213
H461	H	0.030393	0.743599	-0.297857
H462	H	0.046411	0.714100	-0.286946
H463	H	0.085529	0.767240	-0.306510
H464	H	0.052199	0.713646	-0.348958
H465	H	0.091305	0.766787	-0.368467
O466	O	-0.994765	0.134971	0.305819
C467	C	-0.998268	0.189433	0.310046
C468	C	-1.019425	0.147680	0.330608
H469	H	-1.018202	0.199718	0.330077
H470	H	-0.962895	0.208308	0.301471
H471	H	-0.998060	0.191173	0.283354
H472	H	-1.019666	0.145903	0.357314
H473	H	-1.054787	0.128824	0.339156
H474	H	-0.437944	0.306173	0.028870
H475	H	-0.230339	0.218872	0.113924
O476	O	0.114341	0.077987	-0.019275
C477	C	0.059295	0.025252	-0.023711
C478	C	0.078909	0.066258	-0.022113
H479	H	0.030639	0.015754	-0.025998
H480	H	0.085865	0.024561	-0.049714
H481	H	0.046842	0.005073	0.003427
H482	H	0.091359	0.086461	-0.049232
H483	H	0.052325	0.066918	0.003908
O484	O	-0.620495	0.210645	0.013648
C485	C	-0.616823	0.156260	0.013926
C486	C	-0.597102	0.197270	0.015511
H487	H	-0.597913	0.145437	0.015423
H488	H	-0.653093	0.136724	0.039144
H489	H	-0.614044	0.156269	-0.013994
H490	H	-0.599849	0.197298	0.043414
H491	H	-0.560841	0.216789	-0.009727
O492	O	0.184694	0.224981	-0.013619
C493	C	0.249178	0.290169	-0.043220
C494	C	0.229561	0.249153	-0.044790
H495	H	0.285458	0.309722	-0.068414
H496	H	0.230252	0.300940	-0.044781
H497	H	0.246351	0.290203	-0.015282
H498	H	0.232384	0.249087	-0.072724
H499	H	0.248490	0.238400	-0.043209
O500	O	-0.620500	0.322017	-0.110872
C501	C	-0.616828	0.380073	-0.114815
C502	C	-0.597109	0.358778	-0.136120
H503	H	-0.597920	0.409801	-0.135216
H504	H	-0.653100	0.363350	-0.103769
H505	H	-0.614046	0.382841	-0.089675
H506	H	-0.599860	0.356005	-0.161276
H507	H	-0.560847	0.375510	-0.147138
H508	H	-0.230138	0.703856	0.398076
O509	O	-0.815214	0.113307	0.110954
C510	C	-0.818857	0.055265	0.114914
C511	C	-0.838561	0.076569	0.136220
H512	H	-0.837719	0.025562	0.135334
H513	H	-0.821660	0.052447	0.089787
H514	H	-0.782578	0.072030	0.103850
H515	H	-0.874846	0.059822	0.147309
H516	H	-0.835723	0.079391	0.161329
H517	H	-0.370625	0.533498	0.019124
O518	O	-0.224003	0.322454	0.013604
C519	C	-0.166829	0.320143	0.009164
C520	C	-0.209433	0.298751	0.010763
H521	H	-0.155042	0.300986	0.006875
H522	H	-0.140137	0.347390	-0.016838
H523	H	-0.173787	0.327883	0.036303
H524	H	-0.202517	0.290985	-0.016357
H525	H	-0.236111	0.271521	0.036782
O526	O	-0.211162	0.730952	-0.395605
C527	C	-0.286811	0.697175	-0.340636
C528	C	-0.244204	0.698774	-0.361926
H529	H	-0.313539	0.671157	-0.313405
H530	H	-0.279943	0.724306	-0.332892
H531	H	-0.298503	0.694867	-0.359867
H532	H	-0.232489	0.701070	-0.342716
H533	H	-0.251096	0.671643	-0.369674
H534	H	-0.552858	0.248828	0.019115
H535	H	-0.335023	0.129267	0.308670
O536	O	-0.440920	0.688797	0.417285
C537	C	-0.437444	0.688059	0.471746
C538	C	-0.416307	0.688599	0.430009
H539	H	-0.417559	0.687890	0.482049
H540	H	-0.437613	0.714568	0.473504
H541	H	-0.472832	0.661288	0.490592
H542	H	-0.380911	0.715352	0.411138
H543	H	-0.416173	0.662072	0.428281
H544	H	-0.167478	0.083843	-0.019041
O545	O	-0.440917	0.411827	0.028956
C546	C	-0.437466	0.469764	0.029756
C547	C	-0.416309	0.449163	0.029168
H548	H	-0.417585	0.499951	0.029936
H549	H	-0.437651	0.471355	0.003263
H550	H	-0.472849	0.453223	0.056534
H551	H	-0.380917	0.465687	0.002408
H552	H	-0.416159	0.447568	0.055679
H553	H	-0.437679	0.026603	0.308671
H554	H	-0.335287	0.408834	0.028871
O555	O	-0.265023	0.189728	0.360361
C556	C	-0.206573	0.247873	0.306118
C557	C	-0.226414	0.226464	0.347120
H558	H	-0.175359	0.277580	0.295403
H559	H	-0.198013	0.231202	0.286523
H560	H	-0.231680	0.250692	0.306084
H561	H	-0.201328	0.223639	0.347191
H562	H	-0.234984	0.243143	0.366697
H563	H	0.182292	0.603760	-0.398717
H564	H	-0.230102	0.319574	-0.501403
H565	H	-0.230125	0.603511	-0.501378
O566	O	-0.099211	0.224971	-0.013593
C567	C	-0.040753	0.279230	-0.013895
C568	C	-0.060600	0.238215	-0.015466
H569	H	-0.009537	0.289947	-0.015400
H570	H	-0.032194	0.298818	-0.039115
H571	H	-0.065856	0.279278	0.014024
H572	H	-0.035518	0.238130	-0.043368
H573	H	-0.069168	0.218644	0.009773
H574	H	-0.332800	0.216515	0.013831
H575	H	-0.437954	0.306335	-0.308618
O576	O	-0.376709	0.245982	-0.360325
C577	C	-0.433881	0.248306	-0.307601
C578	C	-0.391277	0.269687	-0.348597
H579	H	-0.445667	0.267465	-0.298103
H580	H	-0.460574	0.221053	-0.306918
H581	H	-0.426923	0.240576	-0.287420
H582	H	-0.398193	0.277444	-0.368801
H583	H	-0.364598	0.296923	-0.349248
O584	O	-0.549623	-0.094774	0.359893
C585	C	-0.562777	-0.074157	0.318052
C586	C	-0.582483	-0.095478	0.359037
H587	H	-0.589338	-0.074726	0.317344
H588	H	-0.534178	-0.043215	0.308652
H589	H	-0.550232	-0.088771	0.297810
H590	H	-0.595054	-0.080896	0.379307
H591	H	-0.611063	-0.126420	0.368406
H592	H	-0.370643	0.698635	0.468665
H593	H	-0.552646	0.351762	0.019130
H594	H	-0.333283	0.116045	0.501450
O595	O	-1.170359	0.078105	0.471770
C596	C	-1.191692	0.036329	0.526872
C597	C	-1.171866	0.077328	0.505453
H598	H	-1.192908	0.035689	0.554105
H599	H	-1.226576	0.016120	0.534623
H600	H	-1.170238	0.026829	0.507727
H601	H	-1.193286	0.086863	0.524577
H602	H	-1.136977	0.097512	0.497697
H603	H	0.002286	0.746242	-0.411233
O604	O	-0.265026	0.357630	0.019323
C605	C	-0.206688	0.412018	0.019038
C606	C	-0.226392	0.371007	0.017455
H607	H	-0.175454	0.422843	0.017537
H608	H	-0.198194	0.431553	-0.006179
H609	H	-0.231851	0.412010	0.046959
H610	H	-0.201250	0.370979	-0.010450
H611	H	-0.234896	0.351491	0.042691
O612	O	-0.376723	0.530674	-0.360297
C613	C	-0.430661	0.534893	-0.306035
C614	C	-0.388057	0.556059	-0.347030
H615	H	-0.439833	0.555410	-0.295293
H616	H	-0.458658	0.509769	-0.305976
H617	H	-0.425015	0.523835	-0.286475
H618	H	-0.393660	0.567142	-0.366613
H619	H	-0.360075	0.581165	-0.347058
H620	H	-0.267911	0.533274	0.019128
O621	O	-0.329423	0.411852	-0.417212
C622	C	-0.275681	0.407617	-0.471662
C623	C	-0.316853	0.387056	-0.429916
H624	H	-0.265500	0.387581	-0.481943
H625	H	-0.283596	0.416193	-0.490536
H626	H	-0.247446	0.434313	-0.473405
H627	H	-0.345106	0.360346	-0.428137
H628	H	-0.308902	0.378508	-0.411061
H629	H	-0.437685	0.026635	0.411307
O630	O	-0.224242	0.224799	0.395768
C631	C	-0.167196	0.277396	0.398316
C632	C	-0.209807	0.236401	0.419573
H633	H	-0.155518	0.286791	0.417556
H634	H	-0.140448	0.278123	0.371073
H635	H	-0.174096	0.297633	0.390589
H636	H	-0.202951	0.216139	0.427326
H637	H	-0.236543	0.235705	0.446799
H638	H	0.182070	0.603501	-0.501405
H639	H	0.002524	0.408957	-0.411262
H640	H	-0.100134	0.306329	-0.308628
O641	O	-0.106238	0.746390	-0.305620
C642	C	-0.159959	0.747159	-0.247683
C643	C	-0.118802	0.746546	-0.268269
H644	H	-0.170135	0.747277	-0.217479
H645	H	-0.152028	0.773952	-0.264184
H646	H	-0.188203	0.720672	-0.246139
H647	H	-0.090539	0.773015	-0.269818
H648	H	-0.126769	0.719736	-0.251760
H649	H	-0.267905	0.351898	-0.468866
H650	H	-0.205060	0.116386	-0.013780
O651	O	-1.170651	-0.095072	0.472028
C652	C	-1.229015	-0.099019	0.530057
C653	C	-1.209325	-0.120336	0.508762
H654	H	-1.260291	-0.119439	0.559757
H655	H	-1.203892	-0.073890	0.532872
H656	H	-1.237454	-0.087952	0.513292
H657	H	-1.200887	-0.131429	0.525509
H658	H	-1.234460	-0.145447	0.505942
O659	O	-0.058468	0.736777	-0.187168
C660	C	-0.004362	0.736502	-0.183217
C661	C	-0.046959	0.734921	-0.161917
H662	H	0.004962	0.735010	-0.162813
H663	H	-0.010040	0.711276	-0.194261
H664	H	0.023548	0.764423	-0.208358
H665	H	-0.074889	0.707017	-0.136761
H666	H	-0.041243	0.760167	-0.150901
O667	O	-0.620242	0.322557	0.013634
C668	C	-0.616373	0.380700	0.013975
C669	C	-0.596796	0.359272	0.015571
H670	H	-0.597432	0.410385	0.015548
H671	H	-0.613561	0.383566	-0.013956
H672	H	-0.652648	0.363998	0.039180
H673	H	-0.560517	0.375956	-0.009614
H674	H	-0.599644	0.356402	0.043518
H675	H	-0.102121	-0.168293	-0.013779
O676	O	-0.336186	0.112834	0.111189
C677	C	-0.394634	0.054671	0.115382
C678	C	-0.374795	0.076101	0.136548
H679	H	-0.425847	0.024966	0.135874
H680	H	-0.403193	0.071331	0.104342
H681	H	-0.369525	0.051844	0.090248
H682	H	-0.399882	0.078933	0.161697
H683	H	-0.366225	0.059432	0.147560
O684	O	-0.211351	0.210334	-0.111116
C685	C	-0.245302	0.144370	-0.108129
C686	C	-0.202722	0.185383	-0.129305
H687	H	-0.238343	0.124186	-0.122831
H688	H	-0.257128	0.134851	-0.077183
H689	H	-0.271969	0.143716	-0.108711
H690	H	-0.176026	0.186068	-0.128753
H691	H	-0.190934	0.194884	-0.160240
O692	O	0.184558	0.730986	-0.394826
C693	C	0.180680	0.731337	-0.336693
C694	C	0.161110	0.732935	-0.358121
H695	H	0.161737	0.732920	-0.307016
H696	H	0.177862	0.703399	-0.333819
H697	H	0.216955	0.756541	-0.353396
H698	H	0.124830	0.707751	-0.341437
H699	H	0.163962	0.760890	-0.361000
O700	O	-0.058402	0.189607	-0.019353
C701	C	0.018715	0.214271	-0.055509
C702	C	-0.023904	0.192992	-0.053886
H703	H	0.046616	0.217007	-0.083423
H704	H	0.028070	0.244009	-0.054002
H705	H	0.013000	0.197525	-0.030284
H706	H	-0.018223	0.209706	-0.079106
H707	H	-0.033246	0.163253	-0.055375
H708	H	0.117433	0.533646	-0.366181
O709	O	-0.619967	-0.170963	0.394936
C710	C	-0.606604	-0.191389	0.339804
C711	C	-0.587031	-0.170188	0.361222
H712	H	-0.579982	-0.190763	0.312538
H713	H	-0.635221	-0.222351	0.358906
H714	H	-0.619094	-0.176724	0.332099
H715	H	-0.574516	-0.184821	0.368930
H716	H	-0.558433	-0.139227	0.342108
O717	O	-0.620304	-0.171238	0.506788
C718	C	-0.675446	-0.230818	0.559370
C719	C	-0.655709	-0.209480	0.518380
H720	H	-0.704081	-0.261738	0.568758
H721	H	-0.648931	-0.230318	0.560103
H722	H	-0.687956	-0.216184	0.579607
H723	H	-0.643201	-0.224097	0.498120
H724	H	-0.682239	-0.209977	0.517679
H725	H	-0.332801	0.216666	-0.398717
H726	H	-1.102153	0.219187	0.398065
H727	H	-0.552642	0.248738	-0.184195
O728	O	-0.620234	0.210364	-0.111117
C729	C	-0.616351	0.156096	-0.115327
C730	C	-0.596784	0.197092	-0.136496
H731	H	-0.597406	0.145350	-0.135839
H732	H	-0.613534	0.156048	-0.090211
H733	H	-0.652626	0.136529	-0.104263
H734	H	-0.560503	0.216683	-0.147585
H735	H	-0.599635	0.197110	-0.161594
H736	H	-0.552868	0.351454	-0.183962
H737	H	-0.167505	0.248733	-0.184213
H738	H	-0.102104	0.731199	-0.501387
H739	H	-0.818183	0.219127	0.114184
H740	H	-0.332826	0.603766	-0.398676
O741	O	0.184824	0.730877	-0.506682
C742	C	0.201089	0.694689	-0.547616
C743	C	0.181380	0.696332	-0.506632
H744	H	0.198319	0.666766	-0.547590
H745	H	0.182211	0.696192	-0.558473
H746	H	0.237359	0.719911	-0.567131
H747	H	0.145113	0.671115	-0.487087
H748	H	0.200290	0.694848	-0.495806
O749	O	-0.106249	0.023389	-0.028896
C750	C	-0.159989	0.027612	-0.029615
C751	C	-0.118815	0.048183	-0.029033
H752	H	-0.170167	0.047647	-0.029718
H753	H	-0.152077	0.019021	-0.056401
H754	H	-0.188224	0.000924	-0.003128
H755	H	-0.090562	0.074884	-0.055502
H756	H	-0.126763	0.056746	-0.002230
O757	O	-0.549901	0.698389	0.472030
C758	C	-0.553548	0.698725	0.530060
C759	C	-0.573247	0.700329	0.508764
H760	H	-0.572408	0.700302	0.559760
H761	H	-0.556357	0.670787	0.532875
H762	H	-0.517267	0.723930	0.513296
H763	H	-0.609533	0.675145	0.525510
H764	H	-0.570404	0.728283	0.505945
O765	O	-0.265042	0.189687	0.187005
C766	C	-0.206551	0.247824	0.182794
C767	C	-0.226389	0.226394	0.161627
H768	H	-0.175292	0.277502	0.162283
H769	H	-0.231611	0.250706	0.207916
H770	H	-0.198050	0.231114	0.193849
H771	H	-0.234889	0.243085	0.150547
H772	H	-0.201317	0.223508	0.136524
O773	O	-0.170373	0.245589	-0.359825
C774	C	-0.228731	0.187561	-0.305439
C775	C	-0.209044	0.208848	-0.346430
H776	H	-0.260004	0.157855	-0.294593
H777	H	-0.203604	0.184749	-0.305436
H778	H	-0.237173	0.204334	-0.285932
H779	H	-0.200603	0.192093	-0.365961
H780	H	-0.234183	0.211664	-0.346403
O781	O	-0.620375	0.704125	0.507317
C782	C	-0.675376	0.708640	0.560013
C783	C	-0.655755	0.707037	0.519015
H784	H	-0.703978	0.711003	0.569480
H785	H	-0.687886	0.681498	0.580234
H786	H	-0.648765	0.734637	0.560665
H787	H	-0.682342	0.681057	0.518325
H788	H	-0.643234	0.734198	0.498811
O789	O	-0.211363	0.210255	-0.394974
C790	C	-0.246942	0.145063	-0.394274
C791	C	-0.204358	0.186073	-0.415659
H792	H	-0.241297	0.125502	-0.410993
H793	H	-0.256157	0.134295	-0.364584
H794	H	-0.274912	0.145038	-0.391424
H795	H	-0.176361	0.186131	-0.418538
H796	H	-0.195181	0.196824	-0.445337
H797	H	-0.102620	0.318823	-0.500892
H798	H	-0.064810	0.351377	-0.468586
O799	O	-0.885821	0.189690	0.187273
C800	C	-0.882147	0.247747	0.183331
C801	C	-0.862428	0.226452	0.162026
H802	H	-0.863237	0.277476	0.162930
H803	H	-0.918418	0.231025	0.194375
H804	H	-0.879367	0.250513	0.208473
H805	H	-0.865176	0.223682	0.136869
H806	H	-0.826166	0.243183	0.151010
H807	H	-1.064569	0.186642	0.365755
O808	O	0.114458	0.530395	-0.471971
C809	C	0.118099	0.534338	-0.529998
C810	C	0.137803	0.555657	-0.508705
H811	H	0.136958	0.554756	-0.559699
H812	H	0.120907	0.509207	-0.532811
H813	H	0.081819	0.523273	-0.513233
H814	H	0.174088	0.566748	-0.525453
H815	H	0.134960	0.580770	-0.505888
O816	O	-1.211202	0.113503	0.506816
C817	C	-1.268251	0.116063	0.559400
C818	C	-1.225636	0.137317	0.518411
H819	H	-1.279929	0.135310	0.568789
H820	H	-1.294998	0.088817	0.560130
H821	H	-1.261355	0.108335	0.579636
H822	H	-1.232489	0.145071	0.498150
H823	H	-1.198903	0.164547	0.517711
O824	O	-1.100142	-0.171538	0.395773
C825	C	-1.107139	-0.231130	0.398316
C826	C	-1.126792	-0.209776	0.419575
H827	H	-1.128672	-0.262048	0.417554
H828	H	-1.105902	-0.230635	0.371073
H829	H	-1.072271	-0.216505	0.390590
H830	H	-1.161668	-0.224386	0.427327
H831	H	-1.127996	-0.210269	0.446802
O832	O	-1.211642	-0.171207	0.507336
C833	C	-1.247237	-0.206070	0.572517
C834	C	-1.204648	-0.184890	0.531514
H835	H	-1.241600	-0.217146	0.592075
H836	H	-1.256450	-0.185583	0.583287
H837	H	-1.275205	-0.231187	0.572539
H838	H	-1.176653	-0.159775	0.531460
H839	H	-1.195473	-0.205403	0.520761
O840	O	0.005293	0.746411	-0.305629
C841	C	0.039157	0.780169	-0.274446
C842	C	0.018007	0.779572	-0.295050
H843	H	0.049451	0.806980	-0.265894
H844	H	0.014224	0.753698	-0.247744
H845	H	0.069485	0.780280	-0.294475
H846	H	-0.012316	0.779473	-0.275051
H847	H	0.042969	0.806041	-0.321757
H848	H	-0.882835	0.083881	0.184048
O849	O	-0.099306	0.731153	-0.111024
C850	C	-0.068934	0.760811	-0.076202
C851	C	-0.088743	0.762377	-0.097402
H852	H	-0.060379	0.786057	-0.065190
H853	H	-0.094018	0.732904	-0.051053
H854	H	-0.037707	0.762326	-0.096693
H855	H	-0.119964	0.760878	-0.076941
H856	H	-0.063629	0.790283	-0.122556
O857	O	-0.620577	0.704130	0.395772
C858	C	-0.675720	0.708579	0.398315
C859	C	-0.655983	0.706976	0.419574
H860	H	-0.704355	0.710873	0.417552
H861	H	-0.649205	0.734584	0.371071
H862	H	-0.688230	0.681436	0.390589
H863	H	-0.643475	0.734100	0.427326
H864	H	-0.682513	0.680954	0.446801
O865	O	-0.265126	0.698345	0.187364
C866	C	-0.234975	0.727989	0.222335
C867	C	-0.254639	0.729567	0.200995
H868	H	-0.226482	0.753234	0.233354
H869	H	-0.260121	0.700080	0.247489
H870	H	-0.203731	0.729497	0.201934
H871	H	-0.285877	0.728074	0.221366
H872	H	-0.229464	0.757474	0.175836
H873	H	0.117188	0.736455	-0.468551
H874	H	-0.167472	0.736500	-0.366165
H875	H	-0.167486	0.736552	-0.183963
H876	H	-0.437962	0.688814	0.308692
O877	O	-0.329434	0.688719	0.305821
C878	C	-0.275694	0.688005	0.310047
C879	C	-0.316868	0.688593	0.330611
H880	H	-0.265516	0.687910	0.330078
H881	H	-0.283605	0.661209	0.301468
H882	H	-0.247458	0.714489	0.283357
H883	H	-0.345122	0.662127	0.357314
H884	H	-0.308920	0.715406	0.339161
O885	O	-0.223991	0.704057	0.111123
C886	C	-0.146812	0.740191	0.058843
C887	C	-0.189422	0.738588	0.080034
H888	H	-0.118854	0.768103	0.033698
H889	H	-0.137574	0.738683	0.079313
H890	H	-0.152473	0.714956	0.047815
H891	H	-0.183795	0.763818	0.091063
H892	H	-0.198647	0.740078	0.059549
