data_functionalizedCrystal
_audit_creation_method	'MofGen! by Chris Wilmer'
_symmetry_space_group_name_H-M	'P1'
_symmetry_Int_Tables_number	1
_symmetry_cell_setting	triclinic
loop_
_symmetry_equiv_pos_as_xyz
  x,y,z
_cell_length_a	19.188930
_cell_length_b	19.188930
_cell_length_c	18.266242
_cell_angle_alpha	90.011475
_cell_angle_beta	89.977082
_cell_angle_gamma	96.855221
loop_
_atom_site_label
_atom_site_type_symbol
_atom_site_fract_x
_atom_site_fract_y
_atom_site_fract_z
O1	O	0.926149	-0.087169	-0.061124
O2	O	1.426149	0.412831	0.438876
O3	O	0.722838	-0.098903	-0.061075
O4	O	1.222838	0.401097	0.438925
O5	O	0.830361	0.008620	-0.061087
O6	O	1.330361	0.508620	0.438913
O7	O	0.818627	-0.194691	-0.061113
O8	O	1.318627	0.305309	0.438887
O9	O	0.830343	0.008625	0.060675
O10	O	1.330343	0.508625	0.560675
O11	O	0.722820	-0.098897	0.060687
O12	O	1.222820	0.401103	0.560687
O13	O	0.926131	-0.087163	0.060638
O14	O	1.426131	0.412837	0.560638
Zn15	Zn	0.824473	-0.093029	0.079994
Zn16	Zn	1.324473	0.406971	0.579994
Zn17	Zn	0.824497	-0.093037	-0.080432
Zn18	Zn	1.324497	0.406963	0.419568
O19	O	0.818608	-0.194686	0.060649
O20	O	1.318608	0.305314	0.560649
C21	C	0.696818	-0.098520	-0.000188
C22	C	1.196818	0.401480	0.499812
C23	C	0.619313	-0.097380	-0.000169
C24	C	1.119313	0.402620	0.499831
C25	C	0.574389	-0.160470	-0.000188
C26	C	1.074389	0.339530	0.499812
C27	C	0.501566	-0.159399	-0.000196
C28	C	1.001566	0.340601	0.499804
C29	C	0.473669	-0.095233	-0.000199
C30	C	0.973669	0.404767	0.499801
C31	C	0.518603	-0.032133	-0.000175
C32	C	1.018603	0.467867	0.499825
C33	C	0.591425	-0.033207	-0.000160
C34	C	1.091425	0.466793	0.499840
N35	N	0.365695	-0.046188	-0.041663
N36	N	0.865695	0.453812	0.458337
N37	N	0.296516	-0.045172	-0.041679
N38	N	0.796516	0.454828	0.458321
C39	C	0.254260	-0.091994	-0.000243
C40	C	0.754260	0.408006	0.499757
N41	N	0.283795	-0.139881	0.041200
N42	N	0.783795	0.360119	0.541200
N43	N	0.352980	-0.140899	0.041213
N44	N	0.852980	0.359101	0.541213
C45	C	0.394707	-0.094062	-0.000215
C46	C	0.894707	0.405938	0.499785
C47	C	0.130372	-0.153928	-0.000270
C48	C	0.630372	0.346072	0.499730
C49	C	0.057547	-0.152853	-0.000274
C50	C	0.557547	0.347147	0.499726
C51	C	0.074586	-0.025586	-0.000261
C52	C	0.574586	0.474414	0.499739
C53	C	0.147409	-0.026662	-0.000250
C54	C	0.647409	0.473338	0.499750
C55	C	0.175298	-0.090835	-0.000258
C56	C	0.675298	0.409165	0.499742
C57	C	0.829972	0.034634	-0.000204
C58	C	1.329972	0.534634	0.499796
C59	C	0.828831	0.112138	-0.000197
C60	C	1.328831	0.612138	0.499803
C61	C	0.952151	-0.087546	-0.000252
C62	C	1.452151	0.412454	0.499748
C63	C	1.029656	-0.088687	-0.000276
C64	C	1.529656	0.411313	0.499724
C65	C	0.818997	-0.220700	-0.000236
C66	C	1.318997	0.279300	0.499764
C67	C	0.820138	-0.298204	-0.000247
C68	C	1.320138	0.201796	0.499753
N69	N	0.824461	-0.093024	0.189481
N70	N	1.324461	0.406976	0.689481
C71	C	0.891922	0.157062	-0.000209
C72	C	1.391922	0.657062	0.499791
C73	C	0.890850	0.229886	-0.000220
C74	C	1.390850	0.729886	0.499780
C75	C	0.826684	0.257782	-0.000206
C76	C	1.326684	0.757782	0.499794
C77	C	0.763585	0.212849	-0.000198
C78	C	1.263585	0.712849	0.499802
C79	C	0.764658	0.140026	-0.000194
C80	C	1.264658	0.640026	0.499806
N81	N	0.777631	0.365789	0.041244
N82	N	1.277631	0.865789	0.541244
N83	N	0.776615	0.434968	0.041242
N84	N	1.276615	0.934968	0.541242
C85	C	0.823446	0.477191	-0.000220
C86	C	1.323446	0.977191	0.499780
N87	N	0.871341	0.447624	-0.041669
N88	N	1.371341	0.947624	0.458331
N89	N	0.872359	0.378439	-0.041664
N90	N	1.372359	0.878439	0.458336
C91	C	0.825513	0.336745	-0.000210
C92	C	1.325513	0.836745	0.499790
C93	C	0.885379	0.601079	-0.000245
C94	C	1.385379	1.101079	0.499755
C95	C	0.884305	0.673904	-0.000261
C96	C	1.384305	1.173904	0.499739
C97	C	0.757038	0.656865	-0.000231
C98	C	1.257038	1.156865	0.499769
C99	C	0.758114	0.584042	-0.000222
C100	C	1.258114	1.084042	0.499778
C101	C	0.822287	0.556154	-0.000226
C102	C	1.322287	1.056154	0.499774
N103	N	0.824513	-0.093037	-0.189919
N104	N	1.324513	0.406963	0.310081
C105	C	0.872088	-0.045436	0.227785
C106	C	1.372088	0.454564	0.727785
C107	C	0.872092	-0.045433	0.304430
C108	C	1.372092	0.454567	0.804430
C109	C	0.824477	-0.093030	0.342768
C110	C	1.324477	0.406970	0.842768
C111	C	0.776841	-0.140621	0.304455
C112	C	1.276841	0.359379	0.804455
C113	C	0.776834	-0.140618	0.227812
C114	C	1.276834	0.359382	0.727812
N115	N	0.815401	-0.154837	0.463094
N116	N	1.315401	0.345163	0.963094
N117	N	0.815413	-0.154838	0.535902
N118	N	1.315413	0.345162	1.035902
C119	C	0.824496	-0.093040	0.573691
C120	C	1.324496	0.406960	1.073691
N121	N	0.833582	-0.031239	0.535920
N122	N	1.333582	0.468761	1.035920
N123	N	0.833574	-0.031240	0.463106
N124	N	1.333574	0.468760	0.963106
C125	C	0.824480	-0.093038	0.425875
C126	C	1.324480	0.406962	0.925875
C127	C	0.872131	-0.045444	0.695101
C128	C	1.372131	0.454556	1.195101
C129	C	0.872130	-0.045440	0.771748
C130	C	1.372130	0.454560	1.271748
C131	C	0.776882	-0.140634	0.771772
C132	C	1.276882	0.359366	1.271772
C133	C	0.776879	-0.140632	0.695127
C134	C	1.276879	0.359368	1.195127
C135	C	0.824507	-0.093038	0.656796
C136	C	1.324507	0.406962	1.156796
H137	H	0.153080	-0.206181	-0.000267
H138	H	0.653080	0.293819	0.499733
O139	O	0.918423	0.000825	0.341535
O140	O	1.418423	0.500825	0.841535
C141	C	1.012864	0.095274	0.333429
C142	C	1.512864	0.595274	0.833429
C143	C	0.960447	0.042912	0.291319
C144	C	1.460447	0.542912	0.791319
H145	H	1.046843	0.129324	0.292848
H146	H	1.546843	0.629324	0.792848
H147	H	1.047698	0.065251	0.369267
H148	H	1.547698	0.565251	0.869267
H149	H	0.982815	0.130045	0.369354
H150	H	1.482815	0.630045	0.869354
H151	H	0.990438	0.008127	0.255354
H152	H	1.490438	0.508127	0.755354
H153	H	0.925613	0.072979	0.255527
H154	H	1.425613	0.572979	0.755527
H155	H	0.464982	-0.210776	-0.000210
H156	H	0.964982	0.289224	0.499790
H157	H	0.704792	0.679578	-0.000222
H158	H	1.204792	1.179578	0.499778
O159	O	0.947729	0.574015	-0.000390
O160	O	1.447729	1.074015	0.499610
C161	C	1.056851	0.566307	-0.063483
C162	C	1.556851	1.066307	0.436517
C163	C	0.986259	0.596989	-0.063416
C164	C	1.486259	1.096989	0.436584
H165	H	1.088028	0.584881	-0.114427
H166	H	1.588028	1.084881	0.385573
H167	H	1.046820	0.506539	-0.063521
H168	H	1.546820	1.006539	0.436479
H169	H	1.087987	0.584825	-0.012515
H170	H	1.587987	1.084825	0.487485
H171	H	0.955086	0.578524	-0.114376
H172	H	1.455086	1.078524	0.385624
H173	H	0.996339	0.656754	-0.063340
H174	H	1.496339	1.156754	0.436660
H175	H	0.597091	-0.212725	-0.000196
H176	H	1.097091	0.287275	0.499804
H177	H	0.713281	0.103448	-0.000184
H178	H	1.213281	0.603448	0.499816
O179	O	0.635039	0.028101	-0.000276
O180	O	1.135039	0.528101	0.499724
C181	C	0.671886	0.136560	-0.063321
C182	C	1.171886	0.636560	0.436679
C183	C	0.622463	0.067148	-0.063286
C184	C	1.122463	0.567148	0.436714
H185	H	0.661726	0.168155	-0.114251
H186	H	1.161726	0.668155	0.385749
H187	H	0.728739	0.124812	-0.063360
H188	H	1.228739	0.624812	0.436640
H189	H	0.661748	0.168123	-0.012339
H190	H	1.161748	0.668123	0.487661
H191	H	0.632538	0.035550	-0.114259
H192	H	1.132538	0.535550	0.385741
H193	H	0.565627	0.078945	-0.063208
H194	H	1.065627	0.578945	0.436792
H195	H	0.738100	-0.179386	0.663938
H196	H	1.238100	0.320614	1.163938
H197	H	0.706738	0.547464	-0.000208
H198	H	1.206738	1.047464	0.499792
H199	H	0.910868	-0.006681	0.196579
H200	H	1.410868	0.493319	0.696579
O201	O	0.918415	0.000859	0.657975
O202	O	1.418415	0.500859	1.157975
C203	C	1.012911	0.095251	0.666039
C204	C	1.512911	0.595251	1.166039
C205	C	0.960523	0.042862	0.708172
C206	C	1.460523	0.542862	1.208172
H207	H	1.046980	0.129214	0.706605
H208	H	1.546980	0.629214	1.206605
H209	H	0.982910	0.130104	0.630199
H210	H	1.482910	0.630104	1.130199
H211	H	1.047663	0.065179	0.630113
H212	H	1.547663	0.565179	1.130113
H213	H	0.925759	0.072876	0.744138
H214	H	1.425759	0.572876	1.244138
H215	H	0.990568	0.008009	0.743966
H216	H	1.490568	0.508009	1.243966
O217	O	0.191023	0.034644	-0.000370
O218	O	0.691023	0.534644	0.499630
C219	C	0.227869	0.143103	-0.063414
C220	C	0.727869	0.643103	0.436586
C221	C	0.178449	0.073689	-0.063381
C222	C	0.678449	0.573689	0.436619
H223	H	0.217710	0.174697	-0.114346
H224	H	0.717710	0.674697	0.385654
H225	H	0.284722	0.131357	-0.063451
H226	H	0.784722	0.631357	0.436549
H227	H	0.217727	0.174666	-0.012434
H228	H	0.717727	0.674666	0.487566
H229	H	0.188528	0.042091	-0.114353
H230	H	0.688528	0.542091	0.385647
H231	H	0.121612	0.085484	-0.063307
H232	H	0.621612	0.585484	0.436693
O233	O	0.730560	-0.186761	0.341775
O234	O	1.230560	0.313239	0.841775
C235	C	0.635149	-0.201859	0.428325
C236	C	1.135149	0.298141	0.928325
C237	C	0.687538	-0.149531	0.386120
C238	C	1.187538	0.350469	0.886120
H239	H	0.600342	-0.171779	0.464176
H240	H	1.100342	0.328221	0.964176
H241	H	0.665149	-0.236658	0.464230
H242	H	1.165149	0.263342	0.964230
H243	H	0.601136	-0.235887	0.387767
H244	H	1.101136	0.264113	0.887767
H245	H	0.721564	-0.115456	0.426626
H246	H	1.221564	0.384544	0.926626
H247	H	0.657495	-0.114780	0.350204
H248	H	1.157495	0.385220	0.850204
O249	O	0.730543	-0.186918	0.190713
O250	O	1.230543	0.313082	0.690713
C251	C	0.636044	-0.281307	0.198825
C252	C	1.136044	0.218693	0.698825
C253	C	0.688439	-0.228920	0.240932
C254	C	1.188439	0.271080	0.740932
H255	H	0.601978	-0.315269	0.239408
H256	H	1.101978	0.184731	0.739408
H257	H	0.666040	-0.316161	0.162941
H258	H	1.166040	0.183839	0.662941
H259	H	0.601290	-0.251233	0.162946
H260	H	1.101290	0.248767	0.662946
H261	H	0.723205	-0.258936	0.276851
H262	H	1.223205	0.241064	0.776851
H263	H	0.658399	-0.194066	0.276770
H264	H	1.158399	0.305934	0.776770
O265	O	0.730531	-0.186802	0.808971
O266	O	1.230531	0.313198	1.308971
C267	C	0.609008	-0.228043	0.832437
C268	C	1.109008	0.271957	1.332437
C269	C	0.661428	-0.175710	0.790273
C270	C	1.161428	0.324290	1.290273
H271	H	0.553127	-0.219103	0.817324
H272	H	1.053127	0.280897	1.317324
H273	H	0.617131	-0.219872	0.893805
H274	H	1.117131	0.280128	1.393805
H275	H	0.617967	-0.283937	0.817357
H276	H	1.117967	0.216063	1.317357
H277	H	0.652500	-0.119795	0.805291
H278	H	1.152500	0.380205	1.305291
H279	H	0.653293	-0.183942	0.728915
H280	H	1.153293	0.316058	1.228915
H281	H	0.944176	0.134360	-0.000214
H282	H	1.444176	0.634360	0.499786
H283	H	0.495885	0.020111	-0.000188
H284	H	0.995885	0.520111	0.499812
H285	H	0.020970	-0.204232	-0.000285
H286	H	0.520970	0.295768	0.499715
H287	H	0.051874	0.026659	-0.000309
H288	H	0.551874	0.526659	0.499691
H289	H	0.910911	-0.006685	0.802935
H290	H	1.410911	0.493315	1.302935
H291	H	0.935683	0.710481	-0.000274
H292	H	1.435683	1.210481	0.499726
H293	H	0.942228	0.266470	-0.000233
H294	H	1.442228	0.766470	0.499767
H295	H	0.711340	0.235567	-0.000187
H296	H	1.211340	0.735567	0.499813
