data_functionalizedCrystal
_audit_creation_method	'MofGen! by Chris Wilmer'
_symmetry_space_group_name_H-M	'P1'
_symmetry_Int_Tables_number	1
_symmetry_cell_setting	triclinic
loop_
_symmetry_equiv_pos_as_xyz
  x,y,z
_cell_length_a	23.532355
_cell_length_b	27.732064
_cell_length_c	22.010155
_cell_angle_alpha	90.006488
_cell_angle_beta	89.991030
_cell_angle_gamma	82.738461
loop_
_atom_site_label
_atom_site_type_symbol
_atom_site_fract_x
_atom_site_fract_y
_atom_site_fract_z
O1	O	0.755167	0.058553	-0.050437
O2	O	1.088500	0.391886	0.282896
O3	O	1.421834	0.725219	0.616229
O4	O	0.589282	0.067069	-0.050456
O5	O	0.922615	0.400403	0.282877
O6	O	1.255949	0.733736	0.616211
O7	O	0.677372	-0.007578	-0.050448
O8	O	1.010705	0.325755	0.282885
O9	O	1.344038	0.659089	0.616218
O10	O	0.667077	0.133200	-0.050445
O11	O	1.000411	0.466533	0.282888
O12	O	1.333744	0.799867	0.616222
O13	O	0.677345	-0.007568	0.050602
O14	O	1.010679	0.325765	0.383935
O15	O	1.344012	0.659098	0.717269
O16	O	0.589256	0.067079	0.050594
O17	O	0.922589	0.400412	0.383928
O18	O	1.255922	0.733746	0.717261
O19	O	0.755141	0.058562	0.050613
O20	O	1.088474	0.391896	0.383946
O21	O	1.421807	0.725229	0.717280
Cu22	Cu	0.672196	0.062822	0.059830
Cu23	Cu	1.005529	0.396155	0.393164
Cu24	Cu	1.338862	0.729488	0.726497
Cu25	Cu	0.672227	0.062810	-0.059673
Cu26	Cu	1.005560	0.396143	0.273660
Cu27	Cu	1.338894	0.729477	0.606993
O28	O	0.667051	0.133210	0.050605
O29	O	1.000384	0.466543	0.383939
O30	O	1.333718	0.799876	0.717272
C31	C	0.568053	0.066861	0.000067
C32	C	0.901386	0.400195	0.333400
C33	C	1.234719	0.733528	0.666733
C34	C	0.504835	0.066221	0.000059
C35	C	0.838169	0.399555	0.333393
C36	C	1.171502	0.732888	0.666726
C37	C	0.112815	0.062205	0.055167
C38	C	0.446149	0.395538	0.388501
C39	C	0.779482	0.728872	0.721834
C40	C	0.053417	0.061596	0.055170
C41	C	0.386751	0.394929	0.388503
C42	C	0.720084	0.728263	0.721836
O43	O	0.022687	0.061269	0.102015
O44	O	0.356021	0.394603	0.435348
O45	O	0.689354	0.727936	0.768681
N46	N	0.023724	0.061289	0.000087
N47	N	0.357057	0.394622	0.333421
N48	N	0.690390	0.727955	0.666754
C49	C	0.053432	0.061586	-0.055001
C50	C	0.386766	0.394919	0.278332
C51	C	0.720099	0.728252	0.611666
O52	O	0.022722	0.061268	-0.101853
O53	O	0.356055	0.394601	0.231481
O54	O	0.689388	0.727935	0.564814
C55	C	0.112830	0.062191	-0.055003
C56	C	0.446163	0.395524	0.278331
C57	C	0.779497	0.728858	0.611664
C58	C	0.142520	0.062503	0.000083
C59	C	0.475853	0.395837	0.333417
C60	C	0.809186	0.729170	0.666750
C61	C	0.142505	0.062517	0.110249
C62	C	0.475839	0.395850	0.443582
C63	C	0.809172	0.729183	0.776915
C64	C	0.201899	0.063126	0.110246
C65	C	0.535233	0.396460	0.443580
C66	C	0.868566	0.729793	0.776913
C67	C	0.231603	0.063425	0.055162
C68	C	0.564937	0.396758	0.388496
C69	C	0.898270	0.730091	0.721829
C70	C	0.201914	0.063113	0.000081
C71	C	0.535247	0.396446	0.333414
C72	C	0.868580	0.729780	0.666747
C73	C	0.142538	0.062484	-0.110090
C74	C	0.475871	0.395818	0.223243
C75	C	0.809205	0.729151	0.556576
C76	C	0.201940	0.063089	-0.110087
C77	C	0.535273	0.396423	0.223246
C78	C	0.868606	0.729756	0.556579
C79	C	0.231629	0.063402	-0.055001
C80	C	0.564963	0.396735	0.278332
C81	C	0.898296	0.730068	0.611665
C82	C	0.291012	0.064021	-0.055006
C83	C	0.624345	0.397354	0.278327
C84	C	0.957678	0.730688	0.611661
N85	N	0.320705	0.064328	0.000076
N86	N	0.654038	0.397662	0.333410
N87	N	0.987372	0.730995	0.666743
C88	C	0.291001	0.064030	0.055160
C89	C	0.624334	0.397363	0.388494
C90	C	0.957668	0.730697	0.721827
C91	C	-0.071307	0.060313	-0.054993
C92	C	0.262027	0.393647	0.278340
C93	C	0.595360	0.726980	0.611673
C94	C	-0.130704	0.059711	-0.054992
C95	C	0.202630	0.393045	0.278341
C96	C	0.535963	0.726378	0.611675
C97	C	-0.130714	0.059721	0.055179
C98	C	0.202619	0.393054	0.388512
C99	C	0.535952	0.726388	0.721845
C100	C	-0.071317	0.060326	0.055177
C101	C	0.262017	0.393660	0.388510
C102	C	0.595350	0.726993	0.721844
C103	C	-0.041613	0.060621	0.000089
C104	C	0.291720	0.393954	0.333422
C105	C	0.625054	0.727287	0.666756
C106	C	0.415732	0.065311	0.055151
C107	C	0.749066	0.398644	0.388484
C108	C	1.082399	0.731978	0.721818
C109	C	0.475131	0.065923	0.055143
C110	C	0.808465	0.399256	0.388477
C111	C	1.141798	0.732590	0.721810
C112	C	0.475137	0.065911	-0.055027
C113	C	0.808471	0.399244	0.278306
C114	C	1.141804	0.732577	0.611640
C115	C	0.415743	0.065302	-0.055020
C116	C	0.749076	0.398635	0.278313
C117	C	1.082410	0.731968	0.611647
C118	C	0.386042	0.065000	0.000074
C119	C	0.719376	0.398333	0.333407
C120	C	1.052709	0.731667	0.666741
O121	O	0.321780	0.064346	-0.101827
O122	O	0.655113	0.397680	0.231506
O123	O	0.988446	0.731013	0.564840
O124	O	0.321720	0.064341	0.102004
O125	O	0.655053	0.397675	0.435338
O126	O	0.988387	0.731008	0.768671
C127	C	0.677141	-0.025580	0.000075
C128	C	1.010474	0.307753	0.333408
C129	C	1.343808	0.641086	0.666741
C130	C	0.676486	-0.079236	0.000069
C131	C	1.009819	0.254098	0.333402
C132	C	1.343153	0.587431	0.666736
C133	C	0.619970	-0.456386	0.000060
C134	C	0.953303	-0.123053	0.333394
C135	C	1.286637	0.210280	0.666727
C136	C	0.622381	-0.254723	0.000060
C137	C	0.955714	0.078611	0.333393
C138	C	1.289048	0.411944	0.666727
O139	O	0.578526	-0.223531	0.000031
O140	O	0.911860	0.109803	0.333364
O141	O	1.245193	0.443136	0.666697
N142	N	0.674616	-0.235523	0.000066
N143	N	1.007950	0.097810	0.333399
N144	N	1.341283	0.431143	0.666732
C145	C	0.726253	-0.266743	0.000068
C146	C	1.059586	0.066590	0.333401
C147	C	1.392920	0.399924	0.666734
O148	O	0.770738	-0.245785	0.000066
O149	O	1.104071	0.087548	0.333400
O150	O	1.437405	0.420881	0.666733
C151	C	0.723841	-0.468406	0.000064
C152	C	1.057175	-0.135072	0.333397
C153	C	1.390508	0.198261	0.666730
C154	C	0.671603	-0.487602	0.000064
C155	C	1.004936	-0.154269	0.333397
C156	C	1.338269	0.179064	0.666731
C157	C	0.567735	-0.475583	0.000060
C158	C	0.901069	-0.142250	0.333393
C159	C	1.234402	0.191083	0.666727
C160	C	0.567133	-0.525996	0.000063
C161	C	0.900466	-0.192663	0.333397
C162	C	1.233800	0.140670	0.666730
C163	C	0.618766	-0.557212	0.000067
C164	C	0.952099	-0.223879	0.333401
C165	C	1.285432	0.109454	0.666734
C166	C	0.671000	-0.538015	0.000068
C167	C	1.004334	-0.204682	0.333401
C168	C	1.337667	0.128651	0.666734
C169	C	0.775477	-0.499625	0.000061
C170	C	1.108811	-0.166291	0.333395
C171	C	1.442144	0.167042	0.666728
C172	C	0.774870	-0.550043	0.000059
C173	C	1.108203	-0.216709	0.333392
C174	C	1.441537	0.116624	0.666725
C175	C	0.722631	-0.569239	0.000059
C176	C	1.055964	-0.235906	0.333393
C177	C	1.389298	0.097427	0.666726
C178	C	0.722031	-0.619644	0.000075
C179	C	1.055364	-0.286311	0.333408
C180	C	1.388697	0.047023	0.666741
N181	N	0.669795	-0.638844	0.000069
N182	N	1.003128	-0.305510	0.333402
N183	N	1.336462	0.027823	0.666736
C184	C	0.618163	-0.607628	0.000065
C185	C	0.951496	-0.274294	0.333399
C186	C	1.284829	0.059039	0.666732
C187	C	0.727515	-0.160867	0.000071
C188	C	1.060849	0.172466	0.333404
C189	C	1.394182	0.505800	0.666737
C190	C	0.728118	-0.110451	0.000073
C191	C	1.061452	0.222882	0.333406
C192	C	1.394785	0.556215	0.666739
C193	C	0.624246	-0.098435	0.000064
C194	C	0.957579	0.234899	0.333397
C195	C	1.290913	0.568232	0.666731
C196	C	0.623644	-0.148851	0.000066
C197	C	0.956977	0.184482	0.333400
C198	C	1.290310	0.517816	0.666733
C199	C	0.675280	-0.180066	0.000065
C200	C	1.008613	0.153267	0.333398
C201	C	1.341946	0.486600	0.666732
C202	C	0.616902	-0.713499	0.000073
C203	C	0.950235	-0.380166	0.333406
C204	C	1.283569	-0.046832	0.666740
C205	C	0.616304	-0.763917	0.000079
C206	C	0.949638	-0.430584	0.333412
C207	C	1.282971	-0.097250	0.666746
C208	C	0.720176	-0.775929	0.000085
C209	C	1.053510	-0.442596	0.333418
C210	C	1.386843	-0.109263	0.666751
C211	C	0.720774	-0.725516	0.000082
C212	C	1.054108	-0.392182	0.333415
C213	C	1.387441	-0.058849	0.666748
C214	C	0.669132	-0.694301	0.000074
C215	C	1.002466	-0.360968	0.333407
C216	C	1.335799	-0.027635	0.666741
O217	O	0.765862	-0.650864	0.000097
O218	O	1.099195	-0.317531	0.333430
O219	O	1.432528	0.015802	0.666764
O220	O	0.573684	-0.628595	0.000053
O221	O	0.907018	-0.295261	0.333386
O222	O	1.240351	0.038072	0.666720
C223	C	0.620572	-0.405973	0.000057
C224	C	0.953905	-0.072640	0.333390
C225	C	1.287239	0.260693	0.666724
C226	C	0.672807	-0.386776	0.000057
C227	C	1.006140	-0.053443	0.333391
C228	C	1.339474	0.279890	0.666724
C229	C	0.724439	-0.417992	0.000061
C230	C	1.057773	-0.084659	0.333394
C231	C	1.391106	0.248674	0.666728
C232	C	0.673410	-0.336361	0.000059
C233	C	1.006743	-0.003028	0.333393
C234	C	1.340077	0.330306	0.666726
C235	C	0.621777	-0.305145	0.000056
C236	C	0.955111	0.028188	0.333389
C237	C	1.288444	0.361522	0.666722
C238	C	0.569542	-0.324345	0.000050
C239	C	0.902875	0.008989	0.333383
C240	C	1.236208	0.342322	0.666716
C241	C	0.568940	-0.374758	0.000053
C242	C	0.902273	-0.041424	0.333387
C243	C	1.235606	0.291909	0.666720
C244	C	0.776675	-0.398793	0.000067
C245	C	1.110008	-0.065459	0.333400
C246	C	1.443342	0.267874	0.666733
C247	C	0.777273	-0.348379	0.000064
C248	C	1.110606	-0.015046	0.333397
C249	C	1.443940	0.318288	0.666731
C250	C	0.725640	-0.317163	0.000060
C251	C	1.058974	0.016170	0.333394
C252	C	1.392307	0.349503	0.666727
C253	C	0.776370	0.058770	0.000089
C254	C	1.109703	0.392104	0.333422
C255	C	1.443037	0.725437	0.666756
C256	C	0.839587	0.059410	0.000092
C257	C	1.172921	0.392744	0.333426
C258	C	1.506254	0.726077	0.666759
C259	C	0.667282	0.151212	0.000081
C260	C	1.000615	0.484545	0.333414
C261	C	1.333948	0.817879	0.666748
C262	C	0.667937	0.204867	0.000083
C263	C	1.001270	0.538201	0.333416
C264	C	1.334604	0.871534	0.666749
N265	N	0.672178	0.062829	0.143883
N266	N	1.005511	0.396163	0.477216
N267	N	1.338845	0.729496	0.810550
C268	C	0.637926	0.033648	0.436483
C269	C	0.971259	0.366981	0.769816
C270	C	1.304592	0.700315	1.103150
C271	C	0.637921	0.033649	0.372875
C272	C	0.971255	0.366983	0.706209
C273	C	1.304588	0.700316	1.039542
O274	O	0.608779	0.008836	0.339974
O275	O	0.942113	0.342170	0.673307
O276	O	1.275446	0.675503	1.006640
N277	N	0.672199	0.062816	0.341067
N278	N	1.005532	0.396150	0.674400
N279	N	1.338866	0.729483	1.007734
C280	C	0.706488	0.091980	0.372870
C281	C	1.039821	0.425313	0.706203
C282	C	1.373155	0.758646	1.039536
O283	O	0.735644	0.116788	0.339974
O284	O	1.068977	0.450121	0.673307
O285	O	1.402311	0.783455	1.006640
C286	C	0.706495	0.091975	0.436476
C287	C	1.039828	0.425308	0.769809
C288	C	1.373162	0.758642	1.103143
C289	C	0.672211	0.062810	0.468281
C290	C	1.005544	0.396143	0.801614
C291	C	1.338877	0.729477	1.134948
C292	C	0.603645	0.004485	0.468288
C293	C	0.936978	0.337818	0.801621
C294	C	1.270311	0.671151	1.134955
C295	C	0.603648	0.004484	0.531891
C296	C	0.936982	0.337817	0.865225
C297	C	1.270315	0.671151	1.198558
C298	C	0.637933	0.033646	0.563689
C299	C	0.971267	0.366980	0.897023
C300	C	1.304600	0.700313	1.230356
C301	C	0.672215	0.062809	0.531884
C302	C	1.005548	0.396143	0.865218
C303	C	1.338881	0.729476	1.198551
C304	C	0.740787	0.121136	0.468278
C305	C	1.074120	0.454469	0.801611
C306	C	1.407453	0.787802	1.134944
C307	C	0.740791	0.121128	0.531888
C308	C	1.074125	0.454462	0.865222
C309	C	1.407458	0.787795	1.198555
C310	C	0.706507	0.091963	0.563693
C311	C	1.039840	0.425297	0.897027
C312	C	1.373174	0.758630	1.230360
C313	C	0.706503	0.091971	0.627286
C314	C	1.039837	0.425304	0.960619
C315	C	1.373170	0.758637	1.293952
N316	N	0.672226	0.062804	0.659094
N317	N	1.005559	0.396137	0.992427
N318	N	1.338892	0.729471	1.325761
C319	C	0.637941	0.033642	0.627296
C320	C	0.971274	0.366975	0.960629
C321	C	1.304607	0.700308	1.293962
C322	C	0.706471	0.091986	0.239292
C323	C	1.039804	0.425320	0.572625
C324	C	1.373138	0.758653	0.905959
C325	C	0.706461	0.091994	0.175687
C326	C	1.039794	0.425327	0.509020
C327	C	1.373128	0.758660	0.842353
C328	C	0.637895	0.033663	0.175697
C329	C	0.971228	0.366996	0.509030
C330	C	1.304562	0.700329	0.842363
C331	C	0.637902	0.033658	0.239303
C332	C	0.971236	0.366992	0.572636
C333	C	1.304569	0.700325	0.905970
C334	C	0.672193	0.062820	0.271100
C335	C	1.005526	0.396153	0.604433
C336	C	1.338860	0.729486	0.937767
C337	C	0.637951	0.033643	0.760867
C338	C	0.971284	0.366976	1.094200
C339	C	1.304618	0.700309	1.427534
C340	C	0.637956	0.033646	0.824476
C341	C	0.971289	0.366979	1.157809
C342	C	1.304623	0.700313	1.491143
C343	C	0.706524	0.091975	0.824460
C344	C	1.039857	0.425308	1.157794
C345	C	1.373191	0.758642	1.491127
C346	C	0.706517	0.091974	0.760857
C347	C	1.039850	0.425307	1.094190
C348	C	1.373184	0.758640	1.427524
C349	C	0.672229	0.062804	0.729062
C350	C	1.005562	0.396137	1.062395
C351	C	1.338895	0.729470	1.395729
O352	O	0.735632	0.116770	0.660228
O353	O	1.068966	0.450103	0.993561
O354	O	1.402299	0.783436	1.326894
O355	O	0.608795	0.008833	0.660200
O356	O	0.942129	0.342166	0.993533
O357	O	1.275462	0.675499	1.326866
N358	N	0.672241	0.062808	0.856274
N359	N	1.005574	0.396142	1.189608
N360	N	1.338908	0.729475	1.522941
H361	H	-0.047147	0.060581	0.100033
H362	H	0.286186	0.393914	0.433366
H363	H	0.619519	0.727248	0.766700
H364	H	0.610030	0.009890	0.734987
H365	H	0.943363	0.343223	1.068320
H366	H	1.276697	0.676556	1.401654
C367	C	0.744172	0.124081	0.140708
C368	C	1.077506	0.457415	0.474042
C369	C	1.410839	0.790748	0.807375
N370	N	0.772581	0.148248	0.114365
N371	N	1.105914	0.481581	0.447698
N372	N	1.439247	0.814915	0.781032
H373	H	0.610035	0.009896	0.850369
H374	H	0.943368	0.343230	1.183702
H375	H	1.276702	0.676563	1.517035
H376	H	0.499333	0.066156	-0.099875
H377	H	0.832666	0.399489	0.233458
H378	H	1.165999	0.732822	0.566792
C379	C	0.565935	-0.027602	0.566868
C380	C	0.899268	0.305731	0.900202
C381	C	1.232602	0.639065	1.233535
N382	N	0.537528	-0.051772	0.593209
N383	N	0.870861	0.281561	0.926543
N384	N	1.204195	0.614895	1.259876
H385	H	0.768717	0.144875	0.557774
H386	H	1.102050	0.478208	0.891108
H387	H	1.435383	0.811541	1.224441
C388	C	0.833478	-0.433124	0.000079
C389	C	1.166812	-0.099791	0.333413
C390	C	1.500145	0.233543	0.666746
N391	N	0.876266	-0.458981	0.000094
N392	N	1.209600	-0.125647	0.333428
N393	N	1.542933	0.207686	0.666761
H394	H	0.734393	0.115737	0.265177
H395	H	1.067726	0.449071	0.598511
H396	H	1.401060	0.782404	0.931844
H397	H	0.575725	-0.019265	0.442405
H398	H	0.909059	0.314068	0.775738
H399	H	1.242392	0.647402	1.109071
C400	C	0.600190	0.001572	0.274283
C401	C	0.933524	0.334905	0.607616
C402	C	1.266857	0.668239	0.940949
N403	N	0.571786	-0.022598	0.300626
N404	N	0.905119	0.310735	0.633959
N405	N	1.238452	0.644069	0.967293
C406	C	0.512746	-0.289998	0.000043
C407	C	0.846079	0.043336	0.333377
C408	C	1.179413	0.376669	0.666710
N409	N	0.469970	-0.264125	0.000034
N410	N	0.803303	0.069208	0.333367
N411	N	1.136636	0.402542	0.666701
H412	H	0.770657	-0.094826	0.000082
H413	H	1.103990	0.238507	0.333415
H414	H	1.437323	0.571840	0.666749
H415	H	0.526401	-0.390382	0.000054
H416	H	0.859735	-0.057049	0.333387
H417	H	1.193068	0.276284	0.666721
H418	H	0.581106	-0.164477	0.000069
H419	H	0.914439	0.168856	0.333402
H420	H	1.247773	0.502190	0.666736
H421	H	0.769566	-0.186279	0.000071
H422	H	1.102900	0.147055	0.333404
H423	H	1.436233	0.480388	0.666737
C424	C	0.831675	-0.584377	0.000061
C425	C	1.165009	-0.251044	0.333394
C426	C	1.498342	0.082289	0.666727
N427	N	0.874461	-0.610237	0.000065
N428	N	1.207795	-0.276904	0.333398
N429	N	1.541128	0.056430	0.666731
C430	C	0.509666	-0.547106	0.000056
C431	C	0.842999	-0.213772	0.333390
C432	C	1.176332	0.119561	0.666723
N433	N	0.466378	-0.563001	0.000048
N434	N	0.799711	-0.229668	0.333381
N435	N	1.133045	0.103665	0.666715
C436	C	0.778508	0.153216	0.433306
C437	C	1.111841	0.486549	0.766640
C438	C	1.445175	0.819882	1.099973
N439	N	0.806925	0.177378	0.406967
N440	N	1.140258	0.510712	0.740300
N441	N	1.473591	0.844045	1.073634
C442	C	0.834744	-0.327270	0.000065
C443	C	1.168077	0.006064	0.333398
C444	C	1.501411	0.339397	0.666731
N445	N	0.878030	-0.311371	0.000060
N446	N	1.211363	0.021962	0.333393
N447	N	1.544697	0.355295	0.666726
C448	C	0.234610	0.063415	-0.170690
C449	C	0.567943	0.396748	0.162643
C450	C	0.901277	0.730081	0.495977
N451	N	0.259216	0.063661	-0.216336
N452	N	0.592549	0.396995	0.116997
N453	N	0.925882	0.730328	0.450331
H454	H	0.762214	-0.801354	0.000091
H455	H	1.095547	-0.468021	0.333424
H456	H	1.428881	-0.134687	0.666757
H457	H	0.609978	0.009917	0.149795
H458	H	0.943312	0.343251	0.483128
H459	H	1.276645	0.676584	0.816462
H460	H	0.734426	0.115729	0.734960
H461	H	1.067759	0.449062	1.068294
H462	H	1.401093	0.782396	1.401627
C463	C	0.778239	-0.704399	0.000085
C464	C	1.111573	-0.371066	0.333418
C465	C	1.444906	-0.037732	0.666751
N466	N	0.821523	-0.688497	0.000080
N467	N	1.154857	-0.355164	0.333414
N468	N	1.488190	-0.021831	0.666747
H469	H	0.574850	-0.688090	0.000066
H470	H	0.908183	-0.354756	0.333400
H471	H	1.241517	-0.021423	0.666733
H472	H	0.734437	0.115719	0.850362
H473	H	1.067770	0.449053	1.183695
H474	H	1.401103	0.782386	1.517029
H475	H	0.391556	0.065070	0.100014
H476	H	0.724890	0.398403	0.433347
H477	H	1.058223	0.731737	0.766680
C478	C	0.507787	0.066264	0.115745
C479	C	0.841120	0.399597	0.449078
C480	C	1.174453	0.732931	0.782411
N481	N	0.532381	0.066519	0.161389
N482	N	0.865714	0.399853	0.494722
N483	N	1.199048	0.733186	0.828055
H484	H	0.226068	0.063378	0.155103
H485	H	0.559401	0.396711	0.488436
H486	H	0.892734	0.730044	0.821770
C487	C	0.109894	0.062133	-0.170690
C488	C	0.443227	0.395466	0.162643
C489	C	0.776561	0.728800	0.495976
N490	N	0.085308	0.061865	-0.216338
N491	N	0.418641	0.395198	0.116995
N492	N	0.751975	0.728532	0.450329
H493	H	0.118327	0.062273	0.155107
H494	H	0.451660	0.395606	0.488441
H495	H	0.784993	0.728939	0.821774
C496	C	-0.163400	0.059388	0.115773
C497	C	0.169934	0.392721	0.449106
C498	C	0.503267	0.726054	0.782439
N499	N	-0.188020	0.059136	0.161409
N500	N	0.145314	0.392469	0.494743
N501	N	0.478647	0.725803	0.828076
C502	C	-0.163356	0.059372	-0.115591
C503	C	0.169977	0.392705	0.217742
C504	C	0.503310	0.726039	0.551076
N505	N	-0.187947	0.059112	-0.161236
N506	N	0.145386	0.392446	0.172097
N507	N	0.478719	0.725779	0.505430
C508	C	0.558835	-0.785029	0.000077
C509	C	0.892168	-0.451696	0.333410
C510	C	1.225502	-0.118363	0.666744
N511	N	0.515550	-0.800930	0.000074
N512	N	0.848884	-0.467596	0.333407
N513	N	1.182217	-0.134263	0.666741
H514	H	0.391567	0.065055	-0.099875
H515	H	0.724901	0.398389	0.233458
H516	H	1.058234	0.731722	0.566791
C517	C	0.510930	-0.441253	0.000056
C518	C	0.844263	-0.107920	0.333389
C519	C	1.177597	0.225414	0.666722
N520	N	0.468141	-0.415398	0.000056
N521	N	0.801474	-0.082065	0.333390
N522	N	1.134807	0.251269	0.666723
C523	C	0.567450	-0.064088	0.000055
C524	C	0.900783	0.269245	0.333388
C525	C	1.234117	0.602579	0.666722
N526	N	0.524673	-0.038216	0.000043
N527	N	0.858007	0.295118	0.333376
N528	N	1.191340	0.628451	0.666710
C529	C	-0.038639	0.060643	-0.115598
C530	C	0.294695	0.393976	0.217735
C531	C	0.628028	0.727309	0.551068
N532	N	-0.014036	0.060890	-0.161246
N533	N	0.319297	0.394224	0.172087
N534	N	0.652630	0.727557	0.505421
H535	H	0.818016	-0.484004	0.000061
H536	H	1.151349	-0.150671	0.333394
H537	H	1.484683	0.182663	0.666727
