data_functionalizedCrystal
_audit_creation_method	'MofGen! by Chris Wilmer'
_symmetry_space_group_name_H-M	'P1'
_symmetry_Int_Tables_number	1
_symmetry_cell_setting	triclinic
loop_
_symmetry_equiv_pos_as_xyz
  x,y,z
_cell_length_a	19.121241
_cell_length_b	29.839131
_cell_length_c	19.120904
_cell_angle_alpha	92.401768
_cell_angle_beta	89.875472
_cell_angle_gamma	92.469032
loop_
_atom_site_label
_atom_site_type_symbol
_atom_site_fract_x
_atom_site_fract_y
_atom_site_fract_z
Zn1	Zn	1.054826	-0.162205	-0.442145
Zn2	Zn	1.388159	0.171128	-0.108811
Zn3	Zn	1.721492	0.504462	0.224522
Zn4	Zn	1.059726	-0.234000	-0.324886
Zn5	Zn	1.393060	0.099334	0.008448
Zn6	Zn	1.726393	0.432667	0.341781
Zn7	Zn	0.942592	-0.161938	-0.319914
Zn8	Zn	1.275926	0.171395	0.013419
Zn9	Zn	1.609259	0.504728	0.346752
Zn10	Zn	0.937533	-0.240364	-0.437070
Zn11	Zn	1.270867	0.092969	-0.103737
Zn12	Zn	1.604200	0.426303	0.229596
O13	O	0.998669	-0.199627	-0.381004
O14	O	1.332003	0.133707	-0.047670
O15	O	1.665336	0.467040	0.285663
O16	O	1.153584	-0.169177	-0.430794
O17	O	1.486917	0.164157	-0.097461
O18	O	1.820251	0.497490	0.235873
O19	O	1.048356	-0.221665	-0.226123
O20	O	1.381690	0.111668	0.107211
O21	O	1.715023	0.445001	0.440544
O22	O	0.957546	-0.099106	-0.336171
O23	O	1.290880	0.234227	-0.002838
O24	O	1.624213	0.567561	0.330495
O25	O	1.157184	-0.221924	-0.344644
O26	O	1.490518	0.111409	-0.011311
O27	O	1.823851	0.444743	0.322022
O28	O	1.040004	-0.099302	-0.425973
O29	O	1.373337	0.234032	-0.092640
O30	O	1.706670	0.567365	0.240693
O31	O	0.962298	-0.168722	-0.222470
O32	O	1.295632	0.164611	0.110863
O33	O	1.628965	0.497944	0.444196
O34	O	0.843813	-0.174894	-0.331251
O35	O	1.177146	0.158440	0.002082
O36	O	1.510480	0.491773	0.335415
O37	O	0.948924	-0.232771	-0.535847
O38	O	1.282258	0.100562	-0.202514
O39	O	1.615591	0.433895	0.130820
O40	O	0.840096	-0.232513	-0.417325
O41	O	1.173430	0.100821	-0.083992
O42	O	1.506763	0.434154	0.249341
O43	O	1.035098	-0.175348	-0.539575
O44	O	1.368432	0.157985	-0.206242
O45	O	1.701765	0.491319	0.127092
O46	O	1.043451	-0.297712	-0.339724
O47	O	1.376784	0.035622	-0.006391
O48	O	1.710118	0.368955	0.326942
O49	O	0.953676	-0.302388	-0.422146
O50	O	1.287010	0.030946	-0.088813
O51	O	1.620343	0.364279	0.244521
C52	C	0.816516	-0.204365	-0.373199
C53	C	1.149850	0.128968	-0.039865
C54	C	1.483183	0.462301	0.293468
C55	C	0.738590	-0.206404	-0.369876
C56	C	1.071923	0.126930	-0.036543
C57	C	1.405256	0.460263	0.296791
C58	C	0.700103	-0.179946	-0.413237
C59	C	1.033436	0.153387	-0.079904
C60	C	1.366769	0.486720	0.253430
C61	C	0.626883	-0.181859	-0.410109
C62	C	0.960216	0.151474	-0.076776
C63	C	1.293549	0.484807	0.256557
C64	C	0.592151	-0.210232	-0.363624
C65	C	0.925484	0.123101	-0.030290
C66	C	1.258817	0.456434	0.303043
C67	C	0.630643	-0.236691	-0.320258
C68	C	0.963976	0.096643	0.013076
C69	C	1.297310	0.429976	0.346409
C70	C	0.703862	-0.234775	-0.323383
C71	C	1.037195	0.098558	0.009951
C72	C	1.370529	0.431892	0.343284
C73	C	0.371171	-0.217386	-0.351938
C74	C	0.704504	0.115948	-0.018605
C75	C	1.037838	0.449281	0.314729
C76	C	0.297947	-0.219300	-0.348818
C77	C	0.631280	0.114033	-0.015485
C78	C	0.964613	0.447366	0.317849
C79	C	0.294191	-0.164468	-0.438669
C80	C	0.627525	0.168865	-0.105336
C81	C	0.960858	0.502199	0.227998
C82	C	0.367412	-0.162557	-0.441793
C83	C	0.700745	0.170776	-0.108459
C84	C	1.034078	0.504110	0.224874
C85	C	0.405898	-0.189014	-0.398424
C86	C	0.739231	0.144320	-0.065091
C87	C	1.072564	0.477653	0.268242
C88	C	0.517308	-0.212189	-0.360427
C89	C	0.850641	0.121144	-0.027093
C90	C	1.183975	0.454477	0.306240
C91	C	0.480739	-0.187054	-0.401618
C92	C	0.814073	0.146280	-0.068285
C93	C	1.147406	0.479613	0.265049
C94	C	0.998565	-0.316350	-0.380940
C95	C	1.331898	0.016983	-0.047607
C96	C	1.665232	0.350316	0.285727
C97	C	0.998583	-0.366284	-0.380939
C98	C	1.331917	-0.032951	-0.047606
C99	C	1.665250	0.300382	0.285728
C100	C	1.041592	-0.675996	-0.427827
C101	C	1.374926	-0.342663	-0.094494
C102	C	1.708259	-0.009330	0.238840
C103	C	1.041667	-0.863669	-0.427873
C104	C	1.375000	-0.530335	-0.094539
C105	C	1.708333	-0.197002	0.238794
O106	O	1.078132	-0.887993	-0.467690
O107	O	1.411465	-0.554660	-0.134357
O108	O	1.744798	-0.221326	0.198977
N109	N	0.998785	-0.887068	-0.381087
N110	N	1.332118	-0.553735	-0.047753
N111	N	1.665452	-0.220401	0.285580
C112	C	0.955879	-0.863546	-0.334289
C113	C	1.289212	-0.530213	-0.000956
C114	C	1.622545	-0.196880	0.332378
O115	O	0.919401	-0.887756	-0.294501
O116	O	1.252735	-0.554422	0.038833
O117	O	1.586068	-0.221089	0.372166
C118	C	0.955801	-0.675875	-0.334248
C119	C	1.289134	-0.342542	-0.000914
C120	C	1.622468	-0.009209	0.332419
C121	C	0.998691	-0.652478	-0.381032
C122	C	1.332024	-0.319145	-0.047699
C123	C	1.665357	0.014189	0.285635
C124	C	1.084478	-0.652599	-0.474608
C125	C	1.417811	-0.319266	-0.141275
C126	C	1.751145	0.014068	0.192059
C127	C	1.084462	-0.605684	-0.474594
C128	C	1.417795	-0.272350	-0.141260
C129	C	1.751129	0.060983	0.192073
C130	C	1.041560	-0.582165	-0.427798
C131	C	1.374893	-0.248832	-0.094465
C132	C	1.708227	0.084501	0.238868
C133	C	0.998674	-0.605563	-0.381017
C134	C	1.332008	-0.272229	-0.047684
C135	C	1.665341	0.061104	0.285649
C136	C	0.912891	-0.652355	-0.287454
C137	C	1.246225	-0.319022	0.045879
C138	C	1.579558	0.014312	0.379212
C139	C	0.912874	-0.605434	-0.287449
C140	C	1.246208	-0.272101	0.045884
C141	C	1.579541	0.061232	0.379218
C142	C	0.955764	-0.582037	-0.334233
C143	C	1.289097	-0.248704	-0.000900
C144	C	1.622431	0.084630	0.332433
C145	C	0.955757	-0.535129	-0.334208
C146	C	1.289090	-0.201796	-0.000874
C147	C	1.622423	0.131538	0.332459
N148	N	0.998638	-0.511730	-0.380994
N149	N	1.331971	-0.178396	-0.047660
N150	N	1.665305	0.154937	0.285673
C151	C	1.041540	-0.535248	-0.427789
C152	C	1.374873	-0.201915	-0.094456
C153	C	1.708207	0.131419	0.238878
C154	C	0.955923	-0.962076	-0.334313
C155	C	1.289257	-0.628743	-0.000980
C156	C	1.622590	-0.295410	0.332353
C157	C	0.955943	-1.008994	-0.334323
C158	C	1.289277	-0.675661	-0.000989
C159	C	1.622610	-0.342327	0.332344
C160	C	1.041731	-1.009113	-0.427907
C161	C	1.375064	-0.675780	-0.094574
C162	C	1.708398	-0.342446	0.238760
C163	C	1.041714	-0.962194	-0.427894
C164	C	1.375047	-0.628861	-0.094560
C165	C	1.708381	-0.295528	0.238773
C166	C	0.998805	-0.938677	-0.381099
C167	C	1.332138	-0.605344	-0.047766
C168	C	1.665472	-0.272010	0.285567
C169	C	1.041503	-0.436722	-0.427755
C170	C	1.374836	-0.103389	-0.094421
C171	C	1.708170	0.229944	0.238912
C172	C	1.041485	-0.389803	-0.427734
C173	C	1.374819	-0.056469	-0.094401
C174	C	1.708152	0.276864	0.238932
C175	C	0.955695	-0.389688	-0.334153
C176	C	1.289029	-0.056355	-0.000819
C177	C	1.622362	0.276979	0.332514
C178	C	0.955716	-0.436603	-0.334170
C179	C	1.289049	-0.103270	-0.000837
C180	C	1.622382	0.230063	0.332496
C181	C	0.998622	-0.460119	-0.380977
C182	C	1.331955	-0.126786	-0.047644
C183	C	1.665288	0.206547	0.285689
O184	O	0.919305	-0.510776	-0.294416
O185	O	1.252638	-0.177443	0.038917
O186	O	1.585972	0.155891	0.372250
O187	O	1.078000	-0.511031	-0.467582
O188	O	1.411333	-0.177698	-0.134249
O189	O	1.744667	0.155635	0.199085
C190	C	1.041609	-0.722912	-0.427842
C191	C	1.374942	-0.389578	-0.094508
C192	C	1.708275	-0.056245	0.238825
C193	C	0.998723	-0.746309	-0.381061
C194	C	1.332056	-0.412976	-0.047727
C195	C	1.665390	-0.079642	0.285606
C196	C	0.955821	-0.722791	-0.334265
C197	C	1.289155	-0.389457	-0.000932
C198	C	1.622488	-0.056124	0.332401
C199	C	0.998743	-0.793226	-0.381070
C200	C	1.332077	-0.459893	-0.047737
C201	C	1.665410	-0.126560	0.285597
C202	C	1.041645	-0.816745	-0.427865
C203	C	1.374978	-0.483411	-0.094532
C204	C	1.708312	-0.150078	0.238801
C205	C	1.084527	-0.793345	-0.474651
C206	C	1.417860	-0.460012	-0.141318
C207	C	1.751193	-0.126679	0.192015
C208	C	1.084510	-0.746430	-0.474637
C209	C	1.417844	-0.413097	-0.141303
C210	C	1.751177	-0.079763	0.192030
C211	C	0.912940	-0.746190	-0.287479
C212	C	1.246273	-0.412857	0.045854
C213	C	1.579606	-0.079523	0.379187
C214	C	0.912960	-0.793105	-0.287497
C215	C	1.246293	-0.459772	0.045836
C216	C	1.579627	-0.126439	0.379169
C217	C	0.955862	-0.816624	-0.334292
C218	C	1.289195	-0.483290	-0.000959
C219	C	1.622528	-0.149957	0.332374
C220	C	1.181534	-0.194870	-0.388840
C221	C	1.514867	0.138463	-0.055506
C222	C	1.848200	0.471797	0.277827
C223	C	1.259460	-0.192843	-0.392179
C224	C	1.592793	0.140490	-0.058846
C225	C	1.926126	0.473824	0.274488
C226	C	0.990901	-0.204799	-0.563859
C227	C	1.324234	0.128534	-0.230526
C228	C	1.657567	0.461867	0.102807
C229	C	0.987590	-0.207004	-0.641782
C230	C	1.320923	0.126330	-0.308448
C231	C	1.654257	0.459663	0.024885
C232	C	0.998793	-0.082447	-0.381084
C233	C	1.332126	0.250886	-0.047750
C234	C	1.665459	0.584220	0.285583
C235	C	0.998845	-0.032512	-0.381118
C236	C	1.332179	0.300821	-0.047785
C237	C	1.665512	0.634154	0.285549
C238	C	1.030898	-0.178143	-0.680332
C239	C	1.364232	0.155190	-0.346998
C240	C	1.697565	0.488523	-0.013665
C241	C	1.027779	-0.180213	-0.753547
C242	C	1.361113	0.153120	-0.420214
C243	C	1.694446	0.486454	-0.086881
C244	C	0.981354	-0.211145	-0.788212
C245	C	1.314688	0.122188	-0.454879
C246	C	1.648021	0.455521	-0.121545
C247	C	0.938041	-0.240007	-0.749657
C248	C	1.271375	0.093326	-0.416323
C249	C	1.604708	0.426660	-0.082990
C250	C	0.941157	-0.237935	-0.676442
C251	C	1.274491	0.095399	-0.343109
C252	C	1.607824	0.428732	-0.009775
C253	C	0.969698	-0.218896	-1.009175
C254	C	1.303031	0.114438	-0.675842
C255	C	1.636364	0.447771	-0.342509
C256	C	0.966586	-0.220967	-1.082395
C257	C	1.299920	0.112367	-0.749062
C258	C	1.633253	0.445700	-0.415729
C259	C	1.056324	-0.161172	-1.086281
C260	C	1.389657	0.172161	-0.752948
C261	C	1.722991	0.505495	-0.419614
C262	C	1.059439	-0.159104	-1.013065
C263	C	1.392772	0.174229	-0.679732
C264	C	1.726106	0.507562	-0.346398
C265	C	1.016123	-0.187964	-0.974516
C266	C	1.349456	0.145369	-0.641183
C267	C	1.682790	0.478703	-0.307849
C268	C	0.978167	-0.213263	-0.863050
C269	C	1.311500	0.120071	-0.529717
C270	C	1.644833	0.453404	-0.196384
C271	C	1.019308	-0.185844	-0.899679
C272	C	1.352641	0.147489	-0.566345
C273	C	1.685975	0.480822	-0.233012
C274	C	1.006448	-0.194441	-0.198861
C275	C	1.339782	0.138893	0.134472
C276	C	1.673115	0.472226	0.467805
C277	C	1.009895	-0.192106	-0.120945
C278	C	1.343228	0.141227	0.212388
C279	C	1.676562	0.474560	0.545721
H280	H	0.728376	-0.156843	-0.451093
H281	H	1.061709	0.176490	-0.117759
H282	H	1.395042	0.509824	0.215574
H283	H	1.068705	-0.152956	-0.652113
H284	H	1.402038	0.180377	-0.318780
H285	H	1.735371	0.513710	0.014554
C286	C	0.405611	-0.131340	-0.492924
C287	C	0.738945	0.201993	-0.159591
C288	C	1.072278	0.535327	0.173742
N289	N	0.434384	-0.107827	-0.531437
N290	N	0.767717	0.225507	-0.198104
N291	N	1.101050	0.558840	0.135230
H292	H	0.934437	-0.242402	-0.977798
H293	H	1.267771	0.090932	-0.644465
H294	H	1.601104	0.424265	-0.311131
H295	H	0.735197	-0.256319	-0.288073
H296	H	1.068531	0.077014	0.045260
H297	H	1.401864	0.410347	0.378594
H298	H	1.063047	-0.156713	-0.784932
H299	H	1.396381	0.176620	-0.451598
H300	H	1.729714	0.509954	-0.118265
H301	H	1.097245	-0.133917	-0.984846
H302	H	1.430578	0.199416	-0.651513
H303	H	1.763911	0.532750	-0.318179
C304	C	0.251852	-0.135360	-0.486359
C305	C	0.585185	0.197974	-0.153026
C306	C	0.918518	0.531307	0.180308
N307	N	0.219961	-0.113431	-0.522276
N308	N	0.553294	0.219902	-0.188943
N309	N	0.886628	0.553236	0.144391
C310	C	0.908709	-0.936214	-0.282839
C311	C	1.242043	-0.602881	0.050495
C312	C	1.575376	-0.269547	0.383828
N313	N	0.873146	-0.916736	-0.244069
N314	N	1.206479	-0.583403	0.089264
N315	N	1.539813	-0.250070	0.422598
H316	H	1.091588	-0.137675	-1.117675
H317	H	1.424922	0.195658	-0.784342
H318	H	1.758255	0.528991	-0.451009
H319	H	1.076638	-0.943147	-0.465990
H320	H	1.409971	-0.609814	-0.132656
H321	H	1.743305	-0.276480	0.200677
C322	C	0.908539	-0.462341	-0.282702
C323	C	1.241873	-0.129007	0.050631
C324	C	1.575206	0.204326	0.383965
N325	N	0.873000	-0.481723	-0.243940
N326	N	1.206333	-0.148390	0.089393
N327	N	1.539666	0.184943	0.422727
H328	H	0.877966	-0.671397	-0.249357
H329	H	1.211299	-0.338063	0.083976
H330	H	1.544633	-0.004730	0.417310
C331	C	0.915511	-0.254995	-1.120525
C332	C	1.248844	0.078339	-0.787191
C333	C	1.582178	0.411672	-0.453858
N334	N	0.877044	-0.280624	-1.149244
N335	N	1.210377	0.052710	-0.815910
N336	N	1.543710	0.386043	-0.482577
C337	C	0.865671	-0.579568	-0.235969
C338	C	1.199004	-0.246235	0.097364
C339	C	1.532337	0.087099	0.430698
N340	N	0.830119	-0.560087	-0.197193
N341	N	1.163452	-0.226753	0.136141
N342	N	1.496785	0.106580	0.469474
H343	H	0.509021	-0.163951	-0.439464
H344	H	0.842355	0.169383	-0.106130
H345	H	1.175688	0.502716	0.227203
H346	H	0.920767	-0.370532	-0.296050
H347	H	1.254101	-0.037199	0.037283
H348	H	1.587434	0.296135	0.370616
H349	H	0.489021	-0.235291	-0.322578
H350	H	0.822354	0.098042	0.010755
H351	H	1.155688	0.431376	0.344089
C352	C	0.886966	-0.274029	-0.787790
C353	C	1.220300	0.059304	-0.454457
C354	C	1.553633	0.392638	-0.121123
N355	N	0.848496	-0.299655	-0.816511
N356	N	1.181829	0.033679	-0.483178
N357	N	1.515162	0.367012	-0.149845
H358	H	0.905884	-0.261432	-0.645055
H359	H	1.239217	0.071902	-0.311722
H360	H	1.572550	0.405235	0.021612
C361	C	0.592435	-0.267901	-0.269122
C362	C	0.925769	0.065432	0.064212
C363	C	1.259102	0.398766	0.397545
N364	N	0.563658	-0.291410	-0.230607
N365	N	0.896991	0.041923	0.102727
N366	N	1.230325	0.375256	0.436060
C367	C	1.131647	-0.579953	-0.526058
C368	C	1.464980	-0.246619	-0.192725
C369	C	1.798314	0.086714	0.140609
N370	N	1.167190	-0.560575	-0.564823
N371	N	1.500523	-0.227242	-0.231490
N372	N	1.833856	0.106092	0.101843
H373	H	0.269670	-0.242407	-0.310963
H374	H	0.603004	0.090926	0.022370
H375	H	0.936337	0.424259	0.355703
C376	C	0.413496	-0.246491	-0.304234
C377	C	0.746829	0.086842	0.029099
C378	C	1.080163	0.420175	0.362433
N379	N	0.445378	-0.268415	-0.268302
N380	N	0.778711	0.064918	0.065032
N381	N	1.112044	0.398251	0.398365
H382	H	1.057104	-0.160658	-0.871452
H383	H	1.390437	0.172676	-0.538118
H384	H	1.723770	0.506009	-0.204785
H385	H	1.076414	-0.370754	-0.465832
H386	H	1.409747	-0.037421	-0.132498
H387	H	1.743080	0.295913	0.200835
C388	C	1.088707	-0.462583	-0.479240
C389	C	1.422040	-0.129250	-0.145907
C390	C	1.755373	0.204084	0.187426
N391	N	1.124265	-0.482061	-0.518015
N392	N	1.457598	-0.148727	-0.184682
N393	N	1.790932	0.184606	0.148652
H394	H	1.076664	-1.028269	-0.466009
H395	H	1.409997	-0.694936	-0.132676
H396	H	1.743331	-0.361603	0.200658
H397	H	0.595549	-0.160316	-0.445420
H398	H	0.928883	0.173018	-0.112087
H399	H	1.262216	0.506351	0.221247
C400	C	1.131684	-0.678461	-0.526086
C401	C	1.465017	-0.345128	-0.192752
C402	C	1.798350	-0.011795	0.140581
N403	N	1.167248	-0.697938	-0.564857
N404	N	1.500581	-0.364604	-0.231523
N405	N	1.833915	-0.031271	0.101810
H406	H	0.940371	-0.238450	-0.891283
H407	H	1.273704	0.094883	-0.557949
H408	H	1.607037	0.428217	-0.224616
C409	C	1.131718	-0.819224	-0.526127
C410	C	1.465051	-0.485891	-0.192794
C411	C	1.798384	-0.152558	0.140540
N412	N	1.167257	-0.838719	-0.564900
N413	N	1.500590	-0.505386	-0.231566
N414	N	1.833923	-0.172052	0.101767
C415	C	0.908767	-1.034725	-0.282851
C416	C	1.242101	-0.701392	0.050482
C417	C	1.575434	-0.368059	0.383816
N418	N	0.873229	-1.054105	-0.244084
N419	N	1.206562	-0.720771	0.089249
N420	N	1.539895	-0.387438	0.422583
H421	H	0.878035	-0.812151	-0.249393
H422	H	1.211369	-0.478818	0.083940
H423	H	1.544702	-0.145485	0.417273
C424	C	0.865733	-0.720327	-0.236006
C425	C	1.199067	-0.386994	0.097328
C426	C	1.532400	-0.053660	0.430661
N427	N	0.830173	-0.700849	-0.197233
N428	N	1.163507	-0.367515	0.136100
N429	N	1.496840	-0.034182	0.469434
H430	H	1.119435	-0.727383	-0.512733
H431	H	1.452768	-0.394050	-0.179400
H432	H	1.786102	-0.060717	0.153934
