data_functionalizedCrystal
_audit_creation_method	'MofGen! by Chris Wilmer'
_symmetry_space_group_name_H-M	'P1'
_symmetry_Int_Tables_number	1
_symmetry_cell_setting	triclinic
loop_
_symmetry_equiv_pos_as_xyz
  x,y,z
_cell_length_a	6.817900
_cell_length_b	7.190334
_cell_length_c	10.943632
_cell_angle_alpha	92.181865
_cell_angle_beta	71.161120
_cell_angle_gamma	119.388224
loop_
_atom_site_label
_atom_site_type_symbol
_atom_site_fract_x
_atom_site_fract_y
_atom_site_fract_z
V1	V	4.249948	0.664950	-0.176571
O2	O	4.205109	0.652345	0.010604
O3	O	4.226969	0.660352	-0.352148
O4	O	4.286555	0.954981	-0.172925
O5	O	4.145110	0.355676	-0.169860
V6	V	4.719267	0.627965	-0.154292
O7	O	4.542364	0.746081	-0.225440
O8	O	4.877049	0.546834	-0.105423
O9	O	4.519040	0.632563	0.021285
O10	O	4.881504	0.640570	-0.341467
O11	O	4.941503	0.937239	-0.161003
O12	O	4.459454	0.337934	-0.157938
C13	C	4.075403	0.649849	-0.394979
C14	C	4.138468	0.648022	-0.538510
C15	C	4.151421	1.025675	-0.166356
C16	C	4.264895	1.267232	-0.164501
C17	C	3.980859	0.635876	-0.615700
C18	C	4.024880	0.463699	-0.688880
C19	C	4.206849	0.816967	-0.721079
C20	C	4.181584	0.475723	-0.609786
C21	C	4.363604	0.829149	-0.641991
C22	C	4.407728	0.656937	-0.715133
C23	C	4.333947	0.643060	0.064109
C24	C	4.250125	0.644900	0.207639
H25	H	3.799704	0.626769	-0.572245
O26	O	4.220280	0.988822	-0.779093
C27	C	4.282302	0.985887	-0.914877
H28	H	4.230633	0.814464	-0.935693
H29	H	4.182271	1.043686	-0.953873
H30	H	4.484149	1.097137	-0.964863
H31	H	3.882327	0.309168	-0.710116
O32	O	4.623900	0.667873	-0.766778
C33	C	4.786057	0.855245	-0.859702
H34	H	4.725140	0.978783	-0.838460
H35	H	4.973157	0.926249	-0.854199
H36	H	4.790999	0.812221	-0.961585
O37	O	4.533406	1.013697	-0.616673
C38	C	4.545269	1.193171	-0.673719
H39	H	4.368070	1.141059	-0.688171
H40	H	4.579519	1.322508	-0.606891
H41	H	4.697806	1.261076	-0.772221
H42	H	4.170229	0.331364	-0.561465
