data_functionalizedCrystal
_audit_creation_method	'MofGen! by Chris Wilmer'
_symmetry_space_group_name_H-M	'P1'
_symmetry_Int_Tables_number	1
_symmetry_cell_setting	triclinic
loop_
_symmetry_equiv_pos_as_xyz
  x,y,z
_cell_length_a	19.288859
_cell_length_b	13.262508
_cell_length_c	17.766277
_cell_angle_alpha	105.911986
_cell_angle_beta	89.989768
_cell_angle_gamma	83.810045
loop_
_atom_site_label
_atom_site_type_symbol
_atom_site_fract_x
_atom_site_fract_y
_atom_site_fract_z
O1	O	0.922002	0.130898	-0.035809
O2	O	0.719828	0.148567	-0.032190
O3	O	0.826005	-0.013079	-0.065281
O4	O	0.815824	0.292544	-0.002718
O5	O	0.825986	-0.013087	0.059906
O6	O	0.719809	0.148559	0.092997
O7	O	0.921983	0.130890	0.089378
Cu8	Cu	0.820894	0.139724	0.102618
Cu9	Cu	0.820916	0.139733	-0.045430
O10	O	0.815805	0.292536	0.122469
C11	C	0.693939	0.147995	0.030288
C12	C	0.616827	0.146292	0.029940
C13	C	0.053197	0.229615	0.046996
C14	C	0.125651	0.231225	0.047321
C15	C	0.169890	0.136379	0.027907
C16	C	0.141669	0.039915	0.008146
C17	C	0.069216	0.038308	0.007814
C18	C	0.290805	0.065640	0.057288
C19	C	0.363257	0.067251	0.057626
C20	C	0.393361	0.141331	0.028928
C21	C	0.351003	0.213818	-0.000094
C22	C	0.278549	0.212211	-0.000427
C23	C	0.248455	0.138110	0.028265
C24	C	0.500137	0.239534	0.049035
C25	C	0.572593	0.241139	0.049356
C26	C	0.588609	0.049827	0.010188
C27	C	0.516154	0.048224	0.009860
C28	C	0.471922	0.143080	0.029289
C29	C	0.825427	-0.052183	-0.010693
C30	C	0.823723	-0.168689	-0.034548
C31	C	0.818875	-0.497130	0.171177
C32	C	0.820471	-0.387666	0.193590
C33	C	0.821284	-0.332917	0.136558
C34	C	0.820501	-0.387642	0.057108
C35	C	0.818900	-0.497115	0.034693
C36	C	0.821309	-0.332902	0.000073
C37	C	0.820526	-0.387627	-0.079376
C38	C	0.818926	-0.497090	-0.101788
C39	C	0.818113	-0.551839	-0.044755
C40	C	0.822910	-0.223428	0.022489
C41	C	0.822935	-0.223413	-0.113995
C42	C	0.821340	-0.332877	-0.136409
C43	C	0.947872	0.131461	0.026899
C44	C	1.024984	0.133165	0.027242
C45	C	0.816384	0.331640	0.067880
C46	C	0.818088	0.448146	0.091729
N47	N	0.820884	0.139716	0.206747
N48	N	0.820932	0.139732	-0.149560
C49	C	0.867914	0.068174	0.231488
C50	C	0.867918	0.068169	0.310289
C51	C	0.820898	0.139724	0.364349
C52	C	0.773859	0.211272	0.339599
C53	C	0.773851	0.211267	0.260798
C54	C	0.812071	0.235354	0.508763
C55	C	0.812083	0.235360	0.587563
C56	C	0.820917	0.139737	0.607398
C57	C	0.829753	0.044104	0.548422
C58	C	0.829745	0.044100	0.469621
C59	C	0.820901	0.139736	0.449797
C60	C	0.867955	0.068184	0.717583
C61	C	0.867954	0.068178	0.796385
C62	C	0.773897	0.211289	0.825696
C63	C	0.773895	0.211286	0.746893
C64	C	0.820927	0.139735	0.692842
H65	H	0.148627	0.309769	0.063415
O66	O	0.818255	-0.550392	-0.178942
C67	C	0.876592	-0.686119	-0.285945
C68	C	0.877428	-0.625852	-0.198556
H69	H	0.924436	-0.747126	-0.301834
H70	H	0.827326	-0.727614	-0.297863
H71	H	0.877417	-0.628172	-0.322847
H72	H	0.876629	-0.683729	-0.161596
H73	H	0.926690	-0.584341	-0.186699
H74	H	0.046246	-0.040235	-0.008273
H75	H	0.595562	0.319684	0.065436
H76	H	0.624628	-0.027399	-0.005626
O77	O	0.237508	0.282652	-0.028688
C78	C	0.232988	0.428218	-0.085880
C79	C	0.279550	0.348496	-0.053907
H80	H	0.266959	0.481488	-0.106263
H81	H	0.202742	0.383964	-0.137309
H82	H	0.194782	0.478272	-0.037681
H83	H	0.317795	0.298421	-0.102051
H84	H	0.309747	0.392814	-0.002459
H85	H	0.820702	-0.377450	-0.201098
H86	H	0.493184	-0.030316	-0.006221
H87	H	0.375511	0.274144	-0.023460
H88	H	0.836945	-0.033761	0.564568
H89	H	0.266301	0.005309	0.080657
O90	O	0.822715	-0.226560	0.158293
C91	C	0.764946	-0.057288	0.155462
C92	C	0.763226	-0.177721	0.130808
H93	H	0.716863	-0.017768	0.133236
H94	H	0.765324	-0.027511	0.222042
H95	H	0.813962	-0.037434	0.129313
H96	H	0.714218	-0.197665	0.156903
H97	H	0.762886	-0.207435	0.064224
H98	H	0.397739	0.008233	0.081263
H99	H	0.177693	-0.037309	-0.007663
O100	O	0.728283	0.280938	0.722923
C101	C	0.688074	0.463597	0.736242
C102	C	0.739784	0.384830	0.763443
H103	H	0.697344	0.547610	0.769002
H104	H	0.696143	0.451399	0.670646
H105	H	0.632414	0.450083	0.748979
H106	H	0.795464	0.398296	0.750760
H107	H	0.731654	0.397047	0.829033
O108	O	0.913659	-0.001426	0.665167
C109	C	1.006975	-0.143332	0.644418
C110	C	0.955242	-0.064572	0.703854
H111	H	1.040617	-0.194391	0.675676
H112	H	0.976873	-0.195720	0.596833
H113	H	1.041767	-0.098133	0.616746
H114	H	0.920436	-0.109685	0.731584
H115	H	0.985387	-0.012185	0.751392
H116	H	0.804866	0.313227	0.492624
O117	O	0.457192	0.331698	0.067769
C118	C	0.421370	0.494746	0.036310
C119	C	0.470030	0.390400	0.015000
H120	H	0.431742	0.542246	-0.006332
H121	H	0.364726	0.477091	0.032648
H122	H	0.431652	0.542186	0.098435
H123	H	0.459810	0.342909	-0.047128
H124	H	0.526658	0.408130	0.018716
O125	O	0.728125	0.280695	0.878145
C126	C	0.607533	0.342707	0.914942
C127	C	0.659297	0.264032	0.855491
H128	H	0.551875	0.329277	0.896639
H129	H	0.615553	0.330424	0.975524
H130	H	0.616856	0.426727	0.916647
H131	H	0.650005	0.179981	0.853716
H132	H	0.651265	0.276407	0.794939
O133	O	0.823694	-0.170397	-0.169503
C134	C	0.823590	-0.181934	-0.307242
C135	C	0.822715	-0.242109	-0.244468
H136	H	0.822814	-0.239889	-0.367866
H137	H	0.775779	-0.120873	-0.298203
H138	H	0.872880	-0.140490	-0.302124
H139	H	0.773457	-0.283617	-0.249548
H140	H	0.870560	-0.303111	-0.253526
O141	O	0.803463	0.328345	0.644750
C142	C	0.785970	0.518045	0.675255
C143	C	0.795709	0.412813	0.610415
H144	H	0.779712	0.586365	0.647520
H145	H	0.737429	0.520861	0.712720
H146	H	0.833613	0.524810	0.713535
H147	H	0.748105	0.405979	0.572080
H148	H	0.844277	0.410043	0.573007
O149	O	0.728155	0.280637	0.392165
C150	C	0.633347	0.303346	0.485778
C151	C	0.685082	0.224678	0.426286
H152	H	0.598500	0.258134	0.513370
H153	H	0.663448	0.355653	0.533413
H154	H	0.599761	0.354503	0.454546
H155	H	0.718682	0.173452	0.457449
H156	H	0.654939	0.172445	0.378654
H157	H	0.906209	0.009911	0.187480
O158	O	0.913670	-0.001374	0.334207
C159	C	1.006929	-0.143364	0.296815
C160	C	0.955167	-0.064645	0.269630
H161	H	1.040483	-0.194554	0.244617
H162	H	1.041803	-0.098237	0.342913
H163	H	0.976780	-0.195628	0.323041
H164	H	0.985259	-0.012360	0.243368
H165	H	0.920293	-0.109837	0.223567
H166	H	0.818208	-0.541716	0.217604
O167	O	0.838299	-0.048885	0.412431
C168	C	0.855858	-0.238583	0.381914
C169	C	0.846166	-0.133355	0.446760
H170	H	0.862235	-0.306904	0.409644
H171	H	0.808203	-0.245464	0.343650
H172	H	0.904364	-0.241275	0.344433
H173	H	0.797685	-0.130591	0.484296
H174	H	0.893856	-0.126516	0.484967
O175	O	0.728141	0.280873	0.236900
C176	C	0.634822	0.422773	0.274278
C177	C	0.686561	0.344017	0.301453
H178	H	0.601182	0.473830	0.326452
H179	H	0.664919	0.475162	0.248121
H180	H	0.600028	0.377571	0.228123
H181	H	0.721369	0.389133	0.347632
H182	H	0.656421	0.291628	0.327563
H183	H	0.823541	-0.178880	0.087178
O184	O	0.010331	0.321852	0.065847
C185	C	0.002095	0.511773	0.104782
C186	C	0.050722	0.407395	0.083432
H187	H	0.034731	0.580961	0.119020
H188	H	-0.032203	0.515887	0.053218
H189	H	-0.032252	0.515738	0.157970
H190	H	0.085112	0.403360	0.030265
H191	H	0.084971	0.403324	0.135039
H192	H	0.906250	0.009914	0.816527
H193	H	0.816817	-0.640975	-0.063000
O194	O	0.821148	-0.334615	0.270790
C195	C	0.761513	-0.288925	0.396791
C196	C	0.760660	-0.349068	0.309378
H197	H	0.712607	-0.300570	0.428012
H198	H	0.809714	-0.320313	0.424061
H199	H	0.762833	-0.201293	0.403002
H200	H	0.759316	-0.436709	0.303098
H201	H	0.712465	-0.317593	0.282150
