data_functionalizedCrystal
_audit_creation_method	'MofGen! by Chris Wilmer'
_symmetry_space_group_name_H-M	'P1'
_symmetry_Int_Tables_number	1
_symmetry_cell_setting	triclinic
loop_
_symmetry_equiv_pos_as_xyz
  x,y,z
_cell_length_a	12.837943
_cell_length_b	14.519731
_cell_length_c	11.892095
_cell_angle_alpha	93.895723
_cell_angle_beta	85.689438
_cell_angle_gamma	89.258897
loop_
_atom_site_label
_atom_site_type_symbol
_atom_site_fract_x
_atom_site_fract_y
_atom_site_fract_z
O1	O	1.382536	0.234472	-0.093988
O2	O	1.080707	0.222626	-0.093995
O3	O	1.239612	0.095003	-0.093981
O4	O	1.223631	0.362095	-0.094002
O5	O	1.226363	0.105626	0.094025
O6	O	1.067458	0.233249	0.094012
O7	O	1.369286	0.245094	0.094018
Zn8	Zn	1.216269	0.240858	0.123865
Zn9	Zn	1.233725	0.226862	-0.123842
O10	O	1.210382	0.372718	0.094004
C11	C	1.035455	0.223936	0.000008
C12	C	0.920355	0.212002	0.000006
C13	C	1.232238	0.065890	0.000022
C14	C	1.229994	-0.036684	0.000023
C15	C	0.679674	0.355472	0.000010
C16	C	0.571527	0.344263	0.000009
C17	C	0.595909	0.178376	0.000010
C18	C	0.704057	0.189585	0.000011
C19	C	0.745935	0.278136	0.000010
C20	C	0.854085	0.289344	0.000003
C21	C	0.878465	0.123458	0.000012
C22	C	0.770318	0.112249	0.000011
C23	C	1.228171	-0.119986	0.000020
C24	C	1.225893	-0.224492	0.000012
C25	C	1.224086	-0.307788	0.000004
C26	C	1.221808	-0.412300	-0.000002
C27	C	1.414539	0.243784	0.000013
C28	C	1.529640	0.255718	0.000008
C29	C	1.217756	0.401830	-0.000002
C30	C	1.220000	0.504404	-0.000010
N31	N	1.204363	0.250410	0.292918
N32	N	1.245639	0.217304	-0.292895
C33	C	1.328486	0.150784	0.529576
C34	C	1.320172	0.157468	0.647917
C35	C	1.179415	0.270457	0.647943
C36	C	1.187729	0.263773	0.529602
C37	C	1.262269	0.203935	0.470423
C38	C	1.270587	0.197257	0.352080
C39	C	1.129826	0.310241	0.352108
C40	C	1.121512	0.316925	0.470449
H41	H	0.888180	0.361446	0.000003
H42	H	1.060820	0.365641	0.518646
O43	O	1.400787	0.092540	0.472120
C44	C	1.463842	-0.064502	0.435909
C45	C	1.381881	0.001346	0.501034
H46	H	1.448599	-0.138244	0.459280
H47	H	1.458400	-0.060217	0.341156
H48	H	1.545261	-0.043776	0.459137
H49	H	1.300426	-0.019335	0.477901
H50	H	1.387415	-0.002949	0.595771
O51	O	1.065595	0.362018	0.294700
C52	C	1.007662	0.514997	0.258568
C53	C	1.080467	0.456468	0.323630
H54	H	1.019645	0.591370	0.281952
H55	H	1.026405	0.500028	0.163806
H56	H	0.922974	0.496910	0.281841
H57	H	1.165179	0.474521	0.300452
H58	H	1.061635	0.471443	0.418376
H59	H	1.374091	0.114185	0.696077
O60	O	0.720537	0.441417	-0.000044
C61	C	0.876336	0.532204	0.000023
C62	C	0.830202	0.434818	0.000059
H63	H	0.965004	0.526903	0.000131
H64	H	0.854685	0.566477	-0.078679
H65	H	0.843456	0.575339	0.078682
H66	H	0.863057	0.391608	-0.078546
H67	H	0.851845	0.400618	0.078813
H68	H	0.517580	0.407239	0.000013
H69	H	0.932428	0.060485	0.000004
O70	O	0.555049	0.092428	-0.000026
C71	C	0.399232	0.001658	0.000075
C72	C	0.445370	0.099044	0.000084
H73	H	0.310549	0.006976	0.000188
H74	H	0.431965	-0.041513	-0.078620
H75	H	0.421032	-0.032585	0.078740
H76	H	0.423588	0.133368	-0.078527
H77	H	0.412638	0.142149	0.078832
O78	O	0.729464	0.026298	-0.000039
C79	C	0.573659	-0.064487	0.000028
C80	C	0.619785	0.032905	0.000063
H81	H	0.484976	-0.059177	0.000135
H82	H	0.606402	-0.107645	-0.078673
H83	H	0.595457	-0.098740	0.078688
H84	H	0.598004	0.067238	-0.078543
H85	H	0.587043	0.075996	0.078816
O86	O	1.342881	0.138981	0.294666
C87	C	1.405860	-0.018094	0.258589
C88	C	1.323913	0.047812	0.323639
H89	H	1.390567	-0.091816	0.282008
H90	H	1.400457	-0.013850	0.163825
H91	H	1.487279	0.002611	0.281837
H92	H	1.242456	0.027152	0.300485
H93	H	1.329408	0.043558	0.418387
O94	O	1.106866	0.328461	0.705396
C95	C	0.924151	0.368634	0.741610
C96	C	1.006205	0.302872	0.676490
H97	H	0.842750	0.347981	0.718245
H98	H	0.929496	0.364260	0.836363
H99	H	0.939478	0.442396	0.718370
H100	H	0.990932	0.229081	0.699635
H101	H	1.000840	0.307326	0.581753
