data_functionalizedCrystal
_audit_creation_method	'MofGen! by Chris Wilmer'
_symmetry_space_group_name_H-M	'P1'
_symmetry_Int_Tables_number	1
_symmetry_cell_setting	triclinic
loop_
_symmetry_equiv_pos_as_xyz
  x,y,z
_cell_length_a	16.120444
_cell_length_b	16.120566
_cell_length_c	16.120297
_cell_angle_alpha	89.874982
_cell_angle_beta	84.384883
_cell_angle_gamma	90.169144
loop_
_atom_site_label
_atom_site_type_symbol
_atom_site_fract_x
_atom_site_fract_y
_atom_site_fract_z
Zn1	Zn	0.422256	-1.224976	-0.554884
Zn2	Zn	0.922256	-0.724976	-0.054884
Zn3	Zn	0.554941	-1.224869	-0.422191
Zn4	Zn	1.054941	-0.724869	0.077809
Zn5	Zn	0.408173	-1.093716	-0.408120
Zn6	Zn	0.908173	-0.593716	0.091880
Zn7	Zn	0.554175	-1.078867	-0.554115
Zn8	Zn	1.054175	-0.578867	-0.054115
O9	O	0.484886	-1.155607	-0.484827
O10	O	0.984886	-0.655607	0.015173
O11	O	0.446072	-1.340998	-0.543493
O12	O	0.946072	-0.840998	-0.043493
O13	O	0.529899	-1.213641	-0.303692
O14	O	1.029899	-0.713641	0.196308
O15	O	0.293410	-1.117387	-0.422021
O16	O	0.793410	-0.617387	0.077979
O17	O	0.543555	-1.340919	-0.446003
O18	O	1.043555	-0.840919	0.053997
O19	O	0.303757	-1.213824	-0.529849
O20	O	0.803757	-0.713824	-0.029849
O21	O	0.422069	-1.117284	-0.293354
O22	O	0.922069	-0.617284	0.206646
O23	O	0.421326	-0.975711	-0.421276
O24	O	0.921326	-0.475711	0.078724
O25	O	0.542249	-1.092079	-0.670850
O26	O	1.042249	-0.592079	-0.170850
O27	O	0.528593	-0.964801	-0.528538
O28	O	1.028593	-0.464801	-0.028538
O29	O	0.445329	-1.199425	-0.671415
O30	O	0.945329	-0.699425	-0.171415
O31	O	0.671470	-1.199243	-0.445258
O32	O	1.171470	-0.699243	0.054742
O33	O	0.670907	-1.091975	-0.542182
O34	O	1.170907	-0.591975	-0.042182
C35	C	0.473348	-0.940169	-0.473297
C36	C	0.973348	-0.440169	0.026703
C37	C	0.468433	-0.848002	-0.468385
C38	C	0.968433	-0.348002	0.031615
C39	C	0.459441	-0.679251	-0.459423
C40	C	0.959441	-0.179251	0.040577
C41	C	0.510404	-0.632799	-0.510242
C42	C	1.010404	-0.132799	-0.010242
C43	C	0.505400	-0.538901	-0.505255
C44	C	1.005400	-0.038901	-0.005255
C45	C	0.464443	-0.773159	-0.464409
C46	C	0.964443	-0.273159	0.035591
C47	C	0.701432	-1.144008	-0.495183
C48	C	1.201432	-0.644008	0.004817
C49	C	0.794077	-1.139120	-0.499645
C50	C	1.294077	-0.639120	0.000355
C51	C	0.267497	-1.167274	-0.474451
C52	C	0.767497	-0.667274	0.025549
C53	C	0.174859	-1.172245	-0.470029
C54	C	0.674859	-0.672245	0.029971
C55	C	1.005235	-1.181158	-0.461871
C56	C	1.505235	-0.681158	0.038129
C57	C	0.963695	-1.130210	-0.507801
C58	C	1.463695	-0.630210	-0.007801
C59	C	0.869311	-1.135169	-0.503262
C60	C	1.369311	-0.635169	-0.003262
C61	C	1.099628	-1.176200	-0.466409
C62	C	1.599628	-0.676200	0.033591
C63	C	0.495274	-1.144108	-0.702219
C64	C	0.995274	-0.644108	-0.202219
C65	C	0.499701	-1.139207	-0.794859
C66	C	0.999701	-0.639207	-0.294859
C67	C	0.496472	-0.371887	-0.496390
C68	C	0.996472	0.128113	0.003610
C69	C	0.501414	-0.464054	-0.501283
C70	C	1.001414	0.035946	-0.001283
C71	C	0.507763	-1.130231	-0.964470
C72	C	1.007763	-0.630231	-0.464470
C73	C	0.461769	-1.181161	-1.006034
C74	C	0.961769	-0.681161	-0.506034
C75	C	0.466255	-1.176166	-1.100411
C76	C	0.966255	-0.676166	-0.600411
C77	C	0.503278	-1.135224	-0.870084
C78	C	1.003278	-0.635224	-0.370084
C79	C	0.474481	-1.167113	-0.268281
C80	C	0.974481	-0.667113	0.231719
C81	C	0.469828	-1.172187	-0.175639
C82	C	0.969828	-0.672187	0.324361
H83	H	0.412057	-0.648502	-0.412174
H84	H	0.912057	-0.148502	0.087826
N85	N	0.960927	-1.240527	-0.408249
N86	N	1.460927	-0.740527	0.091751
N87	N	0.966637	-1.238649	-0.331502
N88	N	1.466637	-0.738649	0.168498
H89	H	0.935335	-1.280575	-0.293628
H90	H	1.435335	-0.780575	0.206372
N91	N	1.008012	-1.070822	-0.561403
N92	N	1.508012	-0.570822	-0.061403
N93	N	1.085733	-1.066825	-0.565059
N94	N	1.585733	-0.566825	-0.065059
H95	H	1.117037	-1.024882	-0.602911
H96	H	1.617037	-0.524882	-0.102911
N97	N	0.408145	-1.240559	-0.961751
N98	N	0.908145	-0.740559	-0.461751
N99	N	0.404531	-1.244584	-0.884035
N100	N	0.904531	-0.744584	-0.384035
H101	H	0.366661	-1.286533	-0.852755
H102	H	0.866661	-0.786533	-0.352755
H103	H	0.550505	-1.082881	-0.999763
H104	H	1.050505	-0.582881	-0.499763
H105	H	0.557791	-0.663551	-0.557495
H106	H	1.057791	-0.163551	-0.057495
