data_functionalizedCrystal
_audit_creation_method	'MofGen! by Chris Wilmer'
_symmetry_space_group_name_H-M	'P1'
_symmetry_Int_Tables_number	1
_symmetry_cell_setting	triclinic
loop_
_symmetry_equiv_pos_as_xyz
  x,y,z
_cell_length_a	6.394989
_cell_length_b	16.109301
_cell_length_c	15.186229
_cell_angle_alpha	89.997811
_cell_angle_beta	90.000778
_cell_angle_gamma	95.020353
loop_
_atom_site_label
_atom_site_type_symbol
_atom_site_fract_x
_atom_site_fract_y
_atom_site_fract_z
O1	O	-0.268482	1.105973	-0.073199
O2	O	-0.301894	0.864264	-0.073205
O3	O	0.018878	0.988549	-0.073203
O4	O	-0.589255	0.981688	-0.073201
O5	O	0.018883	0.988541	0.073255
O6	O	-0.301889	0.864256	0.073252
O7	O	-0.268478	1.105964	0.073258
Zn8	Zn	-0.285183	0.985109	0.096509
Zn9	Zn	-0.285189	0.985120	-0.096455
O10	O	-0.589250	0.981679	0.073256
C11	C	-0.300538	0.833271	0.000023
C12	C	-0.296480	0.740933	0.000020
C13	C	0.096701	0.987188	0.000023
C14	C	0.332933	0.983042	0.000022
C15	C	-0.269834	1.136958	0.000029
C16	C	-0.273892	1.229296	0.000026
C17	C	-0.096817	1.536420	0.000028
C18	C	-0.092984	1.449659	0.000027
C19	C	-0.473570	1.433814	0.000015
C20	C	-0.477400	1.520574	0.000010
C21	C	-0.289017	1.571874	0.000021
C22	C	-0.281355	1.398354	0.000025
C23	C	-0.277201	1.304284	0.000023
C24	C	-0.293170	1.665950	0.000021
N25	N	-0.285178	0.985107	0.228201
N26	N	-0.285178	0.985128	-0.228148
C27	C	-0.143187	1.040160	0.453925
C28	C	-0.143182	1.040163	0.546115
C29	C	-0.427175	0.930069	0.546122
C30	C	-0.427168	0.930063	0.453934
C31	C	-0.285177	0.985113	0.407838
C32	C	-0.285178	0.985122	0.592215
C33	C	-0.285174	0.985124	0.692172
C34	C	-0.285178	0.985110	0.307875
H35	H	0.056577	1.578186	0.000034
H36	H	-0.542794	0.885233	0.416407
C37	C	-0.678254	1.378216	0.000148
C38	C	-0.794022	1.394559	0.075480
C39	C	-0.982605	1.343368	0.075628
H40	H	-0.648750	1.321441	0.000199
H41	H	-0.757174	1.389192	-0.050903
H42	H	-0.715118	1.383576	0.126517
H43	H	-0.823581	1.451324	0.075445
H44	H	-1.061525	1.354344	0.024578
H45	H	-0.953080	1.286596	0.075677
H46	H	-1.061185	1.354455	0.126736
H47	H	-0.027567	1.084984	0.416396
C48	C	-0.686034	1.559115	-0.000188
C49	C	-0.699342	1.608436	-0.075557
C50	C	-0.891507	1.643943	-0.075784
H51	H	-0.695672	1.592694	0.050819
H52	H	-0.797733	1.516158	-0.000239
H53	H	-0.587673	1.651388	-0.075499
H54	H	-0.689741	1.574876	-0.126576
H55	H	-1.003207	1.600986	-0.075834
H56	H	-0.901128	1.677518	-0.024774
H57	H	-0.900570	1.677405	-0.126924
H58	H	-0.027560	1.084986	0.583637
C59	C	-0.581253	0.870401	0.596330
C60	C	-0.550914	0.882204	0.686929
C61	C	-0.692840	0.827261	0.733206
H62	H	-0.558671	0.814641	0.581337
H63	H	-0.720705	0.880898	0.581266
H64	H	-0.411495	0.871700	0.701987
H65	H	-0.573513	0.937953	0.701948
H66	H	-0.832292	0.837758	0.718142
H67	H	-0.670246	0.771504	0.718206
H68	H	-0.672287	0.835267	0.794682
H69	H	0.063524	1.420796	0.000031
