data_functionalizedCrystal
_audit_creation_method	'MofGen! by Chris Wilmer'
_symmetry_space_group_name_H-M	'P1'
_symmetry_Int_Tables_number	1
_symmetry_cell_setting	triclinic
loop_
_symmetry_equiv_pos_as_xyz
  x,y,z
_cell_length_a	14.971486
_cell_length_b	14.853567
_cell_length_c	14.048226
_cell_angle_alpha	89.997365
_cell_angle_beta	89.998499
_cell_angle_gamma	83.624529
loop_
_atom_site_label
_atom_site_type_symbol
_atom_site_fract_x
_atom_site_fract_y
_atom_site_fract_z
O1	O	1.186968	0.117488	-0.079043
O2	O	1.686968	0.617488	0.420957
O3	O	0.926571	0.131557	-0.079068
O4	O	1.426571	0.631557	0.420932
O5	O	1.063725	-0.006709	-0.079058
O6	O	1.563725	0.493291	0.420942
O7	O	1.049814	0.255753	-0.079053
O8	O	1.549814	0.755753	0.420947
O9	O	1.063709	-0.006717	0.079264
O10	O	1.563709	0.493283	0.579264
O11	O	0.926554	0.131549	0.079253
O12	O	1.426554	0.631549	0.579253
O13	O	1.186952	0.117479	0.079278
O14	O	1.686952	0.617479	0.579278
Zn15	Zn	1.056750	0.124513	0.104403
Zn16	Zn	1.556750	0.624513	0.604403
Zn17	Zn	1.056772	0.124524	-0.104192
Zn18	Zn	1.556772	0.624524	0.395808
O19	O	1.049797	0.255745	0.079268
O20	O	1.549797	0.755745	0.579268
C21	C	0.893238	0.130924	0.000089
C22	C	1.393238	0.630924	0.500089
C23	C	0.793940	0.129038	0.000080
C24	C	1.293940	0.629038	0.500080
C25	C	0.736730	0.210265	0.000082
C26	C	1.236730	0.710265	0.500082
C27	C	0.643430	0.208488	0.000096
C28	C	1.143430	0.708488	0.500096
C29	C	0.607342	0.125483	0.000101
C30	C	1.107342	0.625483	0.500101
C31	C	0.664560	0.044249	0.000101
C32	C	1.164560	0.544249	0.500101
C33	C	0.757858	0.046027	0.000094
C34	C	1.257858	0.546027	0.500094
C35	C	0.470097	0.040549	0.000114
C36	C	0.970097	0.540549	0.500114
C37	C	0.376793	0.038771	0.000120
C38	C	0.876793	0.538771	0.500120
C39	C	0.355669	0.203010	0.000117
C40	C	0.855669	0.703010	0.500117
C41	C	0.448967	0.204788	0.000110
C42	C	0.948967	0.704788	0.500110
C43	C	0.506178	0.123554	0.000108
C44	C	1.006178	0.623554	0.500108
C45	C	1.063087	-0.040301	0.000100
C46	C	1.563087	0.459699	0.500100
C47	C	1.061198	-0.140385	0.000092
C48	C	1.561198	0.359615	0.500092
C49	C	0.971740	-0.552902	0.000101
C50	C	1.471740	-0.052902	0.500101
C51	C	1.134683	-0.574213	0.000117
C52	C	1.634683	-0.074213	0.500117
C53	C	1.136459	-0.480180	0.000111
C54	C	1.636459	0.019820	0.500111
C55	C	1.055874	-0.422503	0.000102
C56	C	1.555874	0.077497	0.500102
C57	C	0.973514	-0.458860	0.000099
C58	C	1.473514	0.041140	0.500099
C59	C	1.218818	-0.443816	0.000125
C60	C	1.718818	0.056184	0.500125
C61	C	1.220597	-0.349777	0.000120
C62	C	1.720597	0.150223	0.500120
C63	C	1.140012	-0.292099	0.000104
C64	C	1.640012	0.207901	0.500104
C65	C	1.057648	-0.328461	0.000100
C66	C	1.557648	0.171539	0.500100
C67	C	0.977064	-0.270784	0.000091
C68	C	1.477064	0.229216	0.500091
C69	C	0.894699	-0.307144	0.000079
C70	C	1.394699	0.192856	0.500079
C71	C	0.892928	-0.401181	0.000083
C72	C	1.392928	0.098819	0.500083
C73	C	1.141782	-0.198061	0.000101
C74	C	1.641782	0.301939	0.500101
C75	C	0.978837	-0.176741	0.000088
C76	C	1.478837	0.323259	0.500088
C77	C	1.220285	0.118113	0.000119
C78	C	1.720285	0.618113	0.500119
C79	C	1.319582	0.119998	0.000123
C80	C	1.819582	0.619998	0.500123
C81	C	1.050436	0.289338	0.000108
C82	C	1.550436	0.789338	0.500108
C83	C	1.052325	0.389421	0.000110
C84	C	1.552325	0.889421	0.500110
N85	N	1.056742	0.124505	0.246764
N86	N	1.556742	0.624505	0.746764
N87	N	1.056788	0.124524	-0.246553
N88	N	1.556788	0.624524	0.253447
C89	C	1.117493	0.063306	0.296586
C90	C	1.617493	0.563306	0.796586
C91	C	1.117499	0.063306	0.396244
C92	C	1.617499	0.563306	0.896244
C93	C	1.056758	0.124509	0.446077
C94	C	1.556758	0.624509	0.946077
C95	C	0.996000	0.185711	0.396247
C96	C	1.496000	0.685711	0.896247
C97	C	0.995991	0.185706	0.296592
C98	C	1.495991	0.685706	0.796592
C99	C	0.996026	0.185717	0.603962
C100	C	1.496026	0.685717	1.103962
C101	C	0.996036	0.185723	0.703624
C102	C	1.496036	0.685723	1.203624
C103	C	1.117535	0.063317	0.703614
C104	C	1.617535	0.563317	1.203614
C105	C	1.117525	0.063312	0.603958
C106	C	1.617525	0.563312	1.103958
C107	C	1.056768	0.124515	0.554135
C108	C	1.556768	0.624515	1.054135
H109	H	0.804439	-0.020116	0.000091
H110	H	1.304439	0.479884	0.500091
F111	F	1.182148	-0.001832	0.243559
F112	F	1.682148	0.498168	0.743559
F113	F	0.294779	0.289466	0.000120
F114	F	0.794779	0.789466	0.500120
F115	F	0.338388	-0.049572	0.000149
F116	F	0.838388	0.450428	0.500149
F117	F	1.308256	-0.311088	0.000121
F118	F	1.808256	0.188912	0.500121
F119	F	1.229434	-0.159368	0.000128
F120	F	1.729434	0.340632	0.500128
H121	H	0.946539	0.235540	0.436827
H122	H	1.446539	0.735540	0.936827
H123	H	0.635171	-0.023335	0.000119
H124	H	1.135171	0.476665	0.500119
H125	H	0.946520	0.235539	0.256027
H126	H	1.446520	0.735539	0.756027
F127	F	1.182197	-0.001818	0.756643
F128	F	1.682197	0.498182	1.256643
H129	H	1.166967	0.013473	0.436809
H130	H	1.666967	0.513473	0.936809
H131	H	1.284425	-0.490782	0.000141
H132	H	1.784425	0.009218	0.500141
H133	H	0.596852	0.274632	0.000098
H134	H	1.096852	0.774632	0.500098
H135	H	0.516677	-0.025600	0.000114
H136	H	1.016677	0.474400	0.500114
H137	H	0.913214	-0.129786	0.000077
H138	H	1.413214	0.370214	0.500077
F139	F	1.182177	-0.001821	0.550921
F140	F	1.682177	0.498179	1.050921
H141	H	0.478346	0.272378	0.000097
H142	H	0.978346	0.772378	0.500097
H143	H	0.946574	0.235560	0.744194
H144	H	1.446574	0.735560	1.244194
H145	H	0.766104	0.277858	0.000078
H146	H	1.266104	0.777858	0.500078
F147	F	0.805278	-0.439885	0.000068
F148	F	1.305278	0.060115	0.500068
H149	H	0.946548	0.235552	0.563399
H150	H	1.446548	0.735552	1.063399
F151	F	0.808938	-0.245750	0.000077
F152	F	1.308938	0.254250	0.500077
H153	H	0.904681	-0.582511	0.000088
H154	H	1.404681	-0.082511	0.500088
H155	H	1.200291	-0.621179	0.000132
H156	H	1.700291	-0.121179	0.500132
