data_functionalizedCrystal
_audit_creation_method	'MofGen! by Chris Wilmer'
_symmetry_space_group_name_H-M	'P1'
_symmetry_Int_Tables_number	1
_symmetry_cell_setting	triclinic
loop_
_symmetry_equiv_pos_as_xyz
  x,y,z
_cell_length_a	12.970454
_cell_length_b	14.560438
_cell_length_c	14.560438
_cell_angle_alpha	60.005799
_cell_angle_beta	89.997944
_cell_angle_gamma	59.998787
loop_
_atom_site_label
_atom_site_type_symbol
_atom_site_fract_x
_atom_site_fract_y
_atom_site_fract_z
Zr1	Zr	0.993261	1.005198	-0.120406
O2	O	0.828646	1.196784	-0.267022
O3	O	1.043719	0.813613	-0.075480
O4	O	1.043727	1.005201	-0.267056
O5	O	0.828638	1.005194	0.075695
O6	O	1.213393	1.005201	-0.267061
O7	O	0.828637	1.005196	-0.075446
O8	O	1.213378	0.662485	0.075634
O9	O	0.828653	1.347910	-0.267000
O10	O	1.191865	0.892414	-0.056299
O11	O	1.065245	0.892412	0.056499
O12	O	1.065255	1.117982	-0.169057
O13	O	0.938635	1.117980	-0.056259
Zr14	Zr	1.263860	1.005195	0.120639
Zr15	Zr	1.263860	1.005199	-0.120413
Zr16	Zr	0.993261	1.005194	0.120646
Zr17	Zr	0.993272	1.246226	-0.120371
Zr18	Zr	1.263849	0.764167	0.120603
O19	O	1.213402	1.196780	0.075713
O20	O	1.213402	1.196786	-0.267033
O21	O	0.828646	1.196779	0.075723
O22	O	1.428475	0.813608	0.267255
O23	O	1.428475	0.813614	-0.075490
O24	O	1.043719	0.813607	0.267265
O25	O	1.428483	1.005199	-0.075462
O26	O	1.213394	1.005192	0.267289
O27	O	1.043728	1.005191	0.267294
O28	O	1.428484	1.005196	0.075679
O29	O	1.043742	1.347911	-0.267006
O30	O	1.213379	0.662482	0.267239
O31	O	1.428468	0.662483	0.267233
O32	O	1.428468	0.662486	0.075628
O33	O	0.828653	1.347907	-0.075395
O34	O	1.043743	1.347908	-0.075401
O35	O	1.191866	0.892411	0.169290
O36	O	1.318486	0.892413	0.056492
O37	O	1.191876	1.117981	-0.056266
O38	O	1.065255	1.117978	0.056532
C39	C	1.128547	0.703708	0.000072
C40	C	1.128542	0.601385	0.000057
C41	C	1.035079	0.636513	-0.083162
C42	C	1.035099	0.540324	-0.083106
C43	C	1.222051	0.373880	0.083399
C44	C	1.222035	0.470069	0.083337
C45	C	0.927141	0.732607	-0.179289
C46	C	0.927161	0.636418	-0.179233
C47	C	0.790083	1.005195	0.000126
C48	C	0.675207	1.005194	0.000129
C49	C	1.467038	1.005198	0.000107
C50	C	1.581914	1.005198	0.000104
C51	C	1.128560	1.005202	-0.301403
C52	C	1.128560	1.005203	-0.403736
C53	C	1.128574	1.306685	0.000161
C54	C	1.128579	1.409008	0.000176
C55	C	1.062466	1.122945	-0.510671
C56	C	1.062469	1.122939	-0.606820
C57	C	1.194664	0.887439	-0.489085
C58	C	1.194666	0.887446	-0.392939
C59	C	0.986140	1.258910	-0.578645
C60	C	0.986144	1.258903	-0.674794
C61	C	1.128561	1.005191	0.301636
C62	C	1.128561	1.005190	0.403969
C63	C	1.467025	0.703709	0.000063
C64	C	1.581896	0.601387	0.000045
C65	C	1.128547	0.703702	0.301592
C66	C	1.128543	0.601378	0.403910
C67	C	1.467025	0.703704	0.301582
C68	C	1.581897	0.601380	0.403897
C69	C	0.790096	1.306689	-0.301350
C70	C	0.675224	1.409013	-0.403664
C71	C	0.790096	1.306684	0.000170
C72	C	0.675225	1.409006	0.000188
C73	C	1.128574	1.306690	-0.301359
C74	C	1.128578	1.409015	-0.403677
C75	C	1.635839	0.470065	0.083293
C76	C	1.743762	0.373909	0.083280
C77	C	1.797746	0.409078	0.000022
C78	C	1.743794	0.540413	-0.083235
C79	C	1.635867	0.636566	-0.083225
C80	C	1.635846	0.470059	0.451932
C81	C	1.743793	0.373900	0.548057
C82	C	1.797782	0.409065	0.596150
C83	C	1.743827	0.540399	0.548106
C84	C	1.635888	0.636555	0.451978
C85	C	0.621284	1.540334	-0.451708
C86	C	0.513361	1.636492	-0.547854
C87	C	0.459377	1.601327	-0.595950
C88	C	0.513327	1.469993	-0.547902
C89	C	0.621253	1.373837	-0.451762
C90	C	0.621275	1.373796	0.083461
C91	C	0.513352	1.469925	0.083501
C92	C	0.459375	1.601263	0.000262
C93	C	0.513335	1.636472	-0.083015
C94	C	0.621261	1.540344	-0.083049
C95	C	1.194637	0.553300	0.510855
C96	C	1.194623	0.457161	0.606989
C97	C	1.062418	0.457182	0.489220
C98	C	1.062426	0.553326	0.393088
C99	C	1.270969	0.553284	0.578849
C100	C	1.270955	0.457144	0.674983
H101	H	1.298152	0.441456	0.151093
Br102	Br	0.694439	1.195615	-0.386567
H103	H	0.936431	0.795583	-0.261422
H104	H	1.591899	0.441405	0.151095
H105	H	1.248485	0.791565	-0.480307
H106	H	0.665205	1.266860	0.151243
H107	H	1.372014	0.367128	0.727166
H108	H	1.591959	0.743494	-0.151015
H109	H	0.371497	1.679637	-0.674234
Br110	Br	1.070055	1.329242	-0.759682
Br111	Br	1.562678	0.814777	0.386805
Br112	Br	1.817109	0.588101	0.613393
Br113	Br	0.440163	1.814719	-0.613040
H114	H	0.885081	1.311100	-0.726978
H115	H	1.298169	0.266954	0.151203
H116	H	1.787676	0.266977	0.151081
H117	H	0.834984	0.647231	-0.170921
Br118	Br	0.972695	0.618598	0.247947
H119	H	1.008587	0.418047	0.480423
H120	H	0.841297	0.792279	-0.162491
Br121	Br	1.817071	0.588122	-0.196223
H122	H	1.885624	0.330771	0.000025
H123	H	0.665221	1.568991	-0.412558
H124	H	1.248501	0.791569	-0.305870
Br125	Br	1.056893	1.345931	-0.578661
Br126	Br	0.823299	1.329104	-0.564010
H127	H	1.228522	0.643287	0.578881
H128	H	1.591902	0.441402	0.412788
Br129	Br	0.958587	0.636353	-0.306664
Br130	Br	0.440042	1.422290	-0.613185
H131	H	1.220603	0.493271	0.725914
H132	H	1.368688	0.517153	0.570112
Br133	Br	1.816991	0.195674	0.613241
H134	H	1.885672	0.330755	0.674424
Br135	Br	0.440143	1.422112	0.196528
H136	H	0.371494	1.679524	0.000303
H137	H	0.469372	1.743420	-0.150784
H138	H	0.665176	1.569031	-0.150865
