data_functionalizedCrystal
_audit_creation_method	'MofGen! by Chris Wilmer'
_symmetry_space_group_name_H-M	'P1'
_symmetry_Int_Tables_number	1
_symmetry_cell_setting	triclinic
loop_
_symmetry_equiv_pos_as_xyz
  x,y,z
_cell_length_a	23.532407
_cell_length_b	27.732048
_cell_length_c	22.010155
_cell_angle_alpha	89.999275
_cell_angle_beta	89.996931
_cell_angle_gamma	82.745667
loop_
_atom_site_label
_atom_site_type_symbol
_atom_site_fract_x
_atom_site_fract_y
_atom_site_fract_z
O1	O	0.755138	0.058672	-0.050456
O2	O	1.255138	0.558672	0.449544
O3	O	0.589257	0.067162	-0.050475
O4	O	1.089257	0.567162	0.449525
O5	O	0.677350	-0.007472	-0.050453
O6	O	1.177350	0.492528	0.449547
O7	O	0.667046	0.133306	-0.050477
O8	O	1.167046	0.633306	0.449523
O9	O	0.677334	-0.007461	0.050597
O10	O	1.177334	0.492539	0.550597
O11	O	0.589241	0.067173	0.050576
O12	O	1.089241	0.567173	0.550576
O13	O	0.755122	0.058683	0.050595
O14	O	1.255122	0.558683	0.550595
Cu15	Cu	0.672180	0.062929	0.059812
Cu16	Cu	1.172180	0.562929	0.559812
Cu17	Cu	0.672199	0.062916	-0.059692
Cu18	Cu	1.172199	0.562916	0.440308
O19	O	0.667030	0.133317	0.050573
O20	O	1.167030	0.633317	0.550573
C21	C	0.568033	0.066952	0.000048
C22	C	1.068033	0.566952	0.500048
C23	C	0.504818	0.066302	0.000042
C24	C	1.004818	0.566302	0.500042
C25	C	0.105629	0.106391	0.000062
C26	C	0.605629	0.606391	0.500062
C27	C	0.046230	0.105787	0.000066
C28	C	0.546230	0.605787	0.500066
O29	O	0.009406	0.142951	0.000082
O30	O	0.509406	0.642951	0.500082
N31	N	0.023699	0.061418	0.000073
N32	N	0.523699	0.561418	0.500073
C33	C	0.060570	0.017649	0.000082
C34	C	0.560570	0.517649	0.500082
O35	O	0.035951	-0.020147	0.000088
O36	O	0.535951	0.479853	0.500088
C37	C	0.119967	0.018253	0.000082
C38	C	0.619967	0.518253	0.500082
C39	C	0.142495	0.062626	0.000070
C40	C	0.642495	0.562626	0.500070
C41	C	0.128158	0.150760	0.000050
C42	C	0.628158	0.650760	0.500050
C43	C	0.187552	0.151364	0.000045
C44	C	0.687552	0.651364	0.500045
C45	C	0.224419	0.107599	0.000052
C46	C	0.724419	0.607599	0.500052
C47	C	0.201890	0.063229	0.000065
C48	C	0.701890	0.563229	0.500065
C49	C	0.156837	-0.025515	0.000096
C50	C	0.656837	0.474485	0.500096
C51	C	0.216239	-0.024907	0.000097
C52	C	0.716239	0.475093	0.500097
C53	C	0.238766	0.019466	0.000084
C54	C	0.738766	0.519466	0.500084
C55	C	0.298151	0.020068	0.000067
C56	C	0.798151	0.520068	0.500067
N57	N	0.320683	0.064437	0.000060
N58	N	0.820683	0.564437	0.500060
C59	C	0.283817	0.108203	0.000053
C60	C	0.783817	0.608203	0.500053
C61	C	-0.064170	0.016383	0.000082
C62	C	0.435830	0.516383	0.500082
C63	C	-0.123567	0.015778	0.000077
C64	C	0.376433	0.515778	0.500077
C65	C	-0.137902	0.103917	0.000062
C66	C	0.362098	0.603917	0.500062
C67	C	-0.078505	0.104521	0.000063
C68	C	0.421495	0.604521	0.500063
C69	C	-0.041639	0.060753	0.000075
C70	C	0.458361	0.560753	0.500075
C71	C	0.408551	0.109467	0.000042
C72	C	0.908551	0.609467	0.500042
C73	C	0.467951	0.110067	0.000035
C74	C	0.967951	0.610067	0.500035
C75	C	0.482282	0.021928	0.000052
C76	C	0.982282	0.521928	0.500052
C77	C	0.422886	0.021328	0.000057
C78	C	0.922886	0.521328	0.500057
C79	C	0.386021	0.065102	0.000053
C80	C	0.886021	0.565102	0.500053
O81	O	0.335010	-0.017077	0.000054
O82	O	0.835010	0.482923	0.500054
O83	O	0.308444	0.145992	0.000054
O84	O	0.808444	0.645992	0.500054
C85	C	0.677125	-0.025473	0.000074
C86	C	1.177125	0.474527	0.500074
C87	C	0.676474	-0.079129	0.000079
C88	C	1.176474	0.420871	0.500079
C89	C	0.724431	-0.417871	0.000053
C90	C	1.224431	0.082129	0.500053
C91	C	0.722014	-0.619534	0.000044
C92	C	1.222014	-0.119534	0.500044
O93	O	0.765867	-0.650722	0.000023
O94	O	1.265867	-0.150722	0.500023
N95	N	0.669779	-0.638738	0.000039
N96	N	1.169779	-0.138738	0.500039
C97	C	0.618144	-0.607523	0.000032
C98	C	1.118144	-0.107523	0.500032
O99	O	0.573659	-0.628484	0.000021
O100	O	1.073659	-0.128484	0.500021
C101	C	0.620561	-0.405860	0.000036
C102	C	1.120561	0.094140	0.500036
C103	C	0.672800	-0.386659	0.000048
C104	C	1.172800	0.113341	0.500048
C105	C	0.776665	-0.398669	0.000064
C106	C	1.276665	0.101331	0.500064
C107	C	0.777269	-0.348256	0.000069
C108	C	1.277269	0.151744	0.500069
C109	C	0.725638	-0.317045	0.000064
C110	C	1.225638	0.182955	0.500064
C111	C	0.673403	-0.336247	0.000053
C112	C	1.173403	0.163753	0.500053
C113	C	0.568927	-0.374646	0.000025
C114	C	1.068927	0.125354	0.500025
C115	C	0.569536	-0.324228	0.000024
C116	C	1.069536	0.175772	0.500024
C117	C	0.621775	-0.305027	0.000036
C118	C	1.121775	0.194973	0.500036
C119	C	0.622376	-0.254622	0.000053
C120	C	1.122376	0.245378	0.500053
N121	N	0.674611	-0.235418	0.000059
N122	N	1.174611	0.264582	0.500059
C123	C	0.726242	-0.266630	0.000064
C124	C	1.226242	0.233370	0.500064
C125	C	0.616879	-0.713399	0.000031
C126	C	1.116879	-0.213399	0.500031
C127	C	0.616274	-0.763814	0.000031
C128	C	1.116274	-0.263814	0.500031
C129	C	0.720145	-0.775822	0.000042
C130	C	1.220145	-0.275822	0.500042
C131	C	0.720749	-0.725406	0.000046
C132	C	1.220749	-0.225406	0.500046
C133	C	0.669114	-0.694195	0.000036
C134	C	1.169114	-0.194195	0.500036
C135	C	0.727506	-0.160758	0.000076
C136	C	1.227506	0.339242	0.500076
C137	C	0.728105	-0.110341	0.000084
C138	C	1.228105	0.389659	0.500084
C139	C	0.624235	-0.098337	0.000069
C140	C	1.124235	0.401663	0.500069
C141	C	0.623635	-0.148751	0.000065
C142	C	1.123635	0.351249	0.500065
C143	C	0.675276	-0.179961	0.000066
C144	C	1.175276	0.320039	0.500066
O145	O	0.578547	-0.223406	0.000068
O146	O	1.078547	0.276594	0.500068
O147	O	0.770721	-0.245659	0.000061
O148	O	1.270721	0.254341	0.500061
C149	C	0.723827	-0.468283	0.000047
C150	C	1.223827	0.031717	0.500047
C151	C	0.671593	-0.487485	0.000037
C152	C	1.171593	0.012515	0.500037
C153	C	0.619962	-0.456274	0.000031
C154	C	1.119962	0.043726	0.500031
C155	C	0.670988	-0.537900	0.000037
C156	C	1.170988	-0.037900	0.500037
C157	C	0.722619	-0.569112	0.000042
C158	C	1.222619	-0.069112	0.500042
C159	C	0.774855	-0.549908	0.000047
C160	C	1.274855	-0.049908	0.500047
C161	C	0.775458	-0.499495	0.000053
C162	C	1.275458	0.000505	0.500053
C163	C	0.567727	-0.475478	0.000026
C164	C	1.067727	0.024522	0.500026
C165	C	0.567127	-0.525891	0.000021
C166	C	1.067127	-0.025891	0.500021
C167	C	0.618758	-0.557103	0.000026
C168	C	1.118758	-0.057103	0.500026
C169	C	0.776346	0.058894	0.000070
C170	C	1.276346	0.558894	0.500070
C171	C	0.839562	0.059544	0.000073
C172	C	1.339562	0.559544	0.500073
C173	C	0.667254	0.151319	0.000045
C174	C	1.167254	0.651319	0.500045
C175	C	0.667905	0.204975	0.000036
C176	C	1.167905	0.704975	0.500036
N177	N	0.672171	0.062938	0.143864
N178	N	1.172171	0.562938	0.643864
N179	N	0.672213	0.062903	-0.143744
N180	N	1.172213	0.562903	0.356256
C181	C	0.711209	0.029873	0.563653
C182	C	1.211209	0.529873	1.063653
C183	C	0.711211	0.029869	0.627261
C184	C	1.211211	0.529869	1.127261
O185	O	0.744380	0.001762	0.660160
O186	O	1.244380	0.501762	1.160160
N187	N	0.672199	0.062906	0.659071
N188	N	1.172199	0.562906	1.159071
C189	C	0.633177	0.095945	0.627271
C190	C	1.133177	0.595945	1.127271
O191	O	0.599994	0.124044	0.660169
O192	O	1.099994	0.624044	1.160169
C193	C	0.633172	0.095945	0.563665
C194	C	1.133172	0.595945	1.063665
C195	C	0.672191	0.062910	0.531857
C196	C	1.172191	0.562910	1.031857
C197	C	0.750224	-0.003160	0.531846
C198	C	1.250224	0.496840	1.031846
C199	C	0.750222	-0.003156	0.468243
C200	C	1.250222	0.496844	0.968243
C201	C	0.711205	0.029881	0.436447
C202	C	1.211205	0.529881	0.936447
C203	C	0.672189	0.062914	0.468254
C204	C	1.172189	0.562914	0.968254
C205	C	0.594148	0.128981	0.531866
C206	C	1.094148	0.628981	1.031866
C207	C	0.594147	0.128979	0.468255
C208	C	1.094147	0.628979	0.968255
C209	C	0.633166	0.095943	0.436447
C210	C	1.133166	0.595943	0.936447
C211	C	0.633170	0.095955	0.372855
C212	C	1.133170	0.595955	0.872855
N213	N	0.672182	0.062919	0.341045
N214	N	1.172182	0.562919	0.841045
C215	C	0.711200	0.029881	0.372840
C216	C	1.211200	0.529881	0.872840
C217	C	0.633190	0.095940	0.760849
C218	C	1.133190	0.595940	1.260849
C219	C	0.633197	0.095942	0.824454
C220	C	1.133197	0.595942	1.324454
C221	C	0.711231	0.029866	0.824440
C222	C	1.211231	0.529866	1.324440
C223	C	0.711226	0.029867	0.760833
C224	C	1.211226	0.529867	1.260833
C225	C	0.672202	0.062904	0.729038
C226	C	1.172202	0.562904	1.229038
C227	C	0.711193	0.029893	0.239269
C228	C	1.211193	0.529893	0.739269
C229	C	0.711189	0.029901	0.175660
C230	C	1.211189	0.529901	0.675660
C231	C	0.633153	0.095975	0.175680
C232	C	1.133153	0.595975	0.675680
C233	C	0.633159	0.095969	0.239284
C234	C	1.133159	0.595969	0.739284
C235	C	0.672181	0.062924	0.271076
C236	C	1.172181	0.562924	0.771076
O237	O	0.600017	0.124047	0.339915
O238	O	1.100017	0.624047	0.839915
O239	O	0.744372	0.001783	0.339935
O240	O	1.244372	0.501783	0.839935
H241	H	0.098146	0.186402	0.000047
H242	H	0.598146	0.686402	0.500047
C243	C	0.509959	-0.260566	-0.051932
C244	C	1.009959	0.239434	0.448068
C245	C	0.512776	-0.289922	0.000013
C246	C	1.012776	0.210078	0.500013
H247	H	0.474917	-0.239390	-0.051938
H248	H	0.974917	0.260610	0.448062
H249	H	0.541149	-0.241914	-0.051919
H250	H	1.041149	0.258086	0.448081
H251	H	0.511892	-0.280488	-0.087167
H252	H	1.011892	0.219512	0.412833
H253	H	0.510847	-0.270000	0.035249
H254	H	1.010847	0.230000	0.535249
H255	H	0.481577	-0.308576	0.000007
H256	H	0.981577	0.191424	0.500007
H257	H	0.404543	-0.014804	0.000058
H258	H	0.904543	0.485196	0.500058
H259	H	0.562367	0.155881	0.442371
H260	H	1.062367	0.655881	0.942371
H261	H	0.742965	0.003000	0.149765
H262	H	1.242965	0.503000	0.649765
C263	C	0.836271	-0.462326	-0.051875
C264	C	1.336271	0.037674	0.448125
C265	C	0.833426	-0.432970	0.000070
C266	C	1.333426	0.067030	0.500070
H267	H	0.871318	-0.483497	-0.051869
H268	H	1.371318	0.016503	0.448131
H269	H	0.805086	-0.480983	-0.051876
H270	H	1.305086	0.019017	0.448124
H271	H	0.834349	-0.442404	-0.087111
H272	H	1.334349	0.057596	0.412889
H273	H	0.835344	-0.452892	0.035305
H274	H	1.335344	0.047108	0.535305
H275	H	0.864619	-0.414311	0.000076
H276	H	1.364619	0.085689	0.500076
C277	C	0.745414	-0.053965	0.844022
C278	C	1.245414	0.446035	1.344022
C279	C	0.754118	-0.006453	0.859396
C280	C	1.254118	0.493547	1.359396
H281	H	0.771893	-0.076384	0.865601
H282	H	1.271893	0.423616	1.365601
H283	H	0.707457	-0.059046	0.854450
H284	H	1.207457	0.440954	1.354450
H285	H	0.751000	-0.058687	0.801588
H286	H	1.251000	0.441313	1.301588
H287	H	0.748528	-0.001729	0.901830
H288	H	1.248528	0.498271	1.401830
H289	H	0.792085	-0.001371	0.848972
H290	H	1.292085	0.498629	1.348972
H291	H	0.781997	-0.030065	0.557728
H292	H	1.281997	0.469935	1.057728
H293	H	0.581099	-0.164385	0.000072
H294	H	1.081099	0.335615	0.500072
H295	H	0.582198	-0.072916	0.000067
H296	H	1.082198	0.427084	0.500067
C297	C	0.193594	0.226673	-0.051912
C298	C	0.693594	0.726673	0.448088
C299	C	0.212302	0.200144	0.000036
C300	C	0.712302	0.700144	0.500036
H301	H	0.208866	0.256792	-0.051914
H302	H	0.708866	0.756792	0.448086
H303	H	0.206286	0.208666	-0.087142
H304	H	0.706286	0.708666	0.412858
H305	H	0.152941	0.232561	-0.051906
H306	H	0.652941	0.732561	0.448094
H307	H	0.252954	0.194253	0.000027
H308	H	0.752954	0.694253	0.500027
H309	H	0.199613	0.218155	0.035275
H310	H	0.699613	0.718155	0.535275
H311	H	0.574829	-0.687991	0.000022
H312	H	1.074829	-0.187991	0.500022
C313	C	0.724121	-0.036003	0.689352
C314	C	1.224121	0.463997	1.189352
C315	C	0.754094	-0.006479	0.725893
C316	C	1.254094	0.493521	1.225893
H317	H	0.750582	-0.058449	0.667789
H318	H	1.250582	0.441551	1.167789
H319	H	0.700556	-0.053255	0.714186
H320	H	1.200556	0.446745	1.214186
H321	H	0.700905	-0.016326	0.661293
H322	H	1.200905	0.483674	1.161293
H323	H	0.777307	-0.026155	0.753956
H324	H	1.277307	0.473845	1.253956
H325	H	0.777669	0.010774	0.701058
H326	H	1.277669	0.510774	1.201058
H327	H	-0.060167	0.140653	0.000056
H328	H	0.439833	0.640653	0.500056
C329	C	0.556018	0.161287	0.182068
C330	C	1.056018	0.661287	0.682068
C331	C	0.590266	0.132289	0.140723
C332	C	1.090266	0.632289	0.640723
H333	H	0.529542	0.183706	0.160484
H334	H	1.029542	0.683706	0.660484
H335	H	0.535713	0.141253	0.206878
H336	H	1.035713	0.641253	0.706878
H337	H	0.579572	0.178575	0.206876
H338	H	1.079572	0.678575	0.706876
H339	H	0.566712	0.114998	0.115917
H340	H	1.066712	0.614998	0.615917
H341	H	0.610572	0.152325	0.115903
H342	H	1.110572	0.652325	0.615903
H343	H	0.601392	0.122874	0.265182
H344	H	1.101392	0.622874	0.765182
H345	H	0.525681	-0.450070	0.000020
H346	H	1.025681	0.049930	0.500020
C347	C	0.834433	-0.613570	-0.051901
C348	C	1.334433	-0.113570	0.448099
C349	C	0.831609	-0.584221	0.000049
C350	C	1.331609	-0.084221	0.500049
H351	H	0.869471	-0.634752	-0.051904
H352	H	1.369471	-0.134752	0.448096
H353	H	0.803237	-0.632215	-0.051900
H354	H	1.303237	-0.132215	0.448100
H355	H	0.832516	-0.593644	-0.087133
H356	H	1.332516	-0.093644	0.412867
H357	H	0.833522	-0.604146	0.035281
H358	H	1.333522	-0.104146	0.535281
H359	H	0.862814	-0.565574	0.000054
H360	H	1.362814	-0.065574	0.500054
C361	C	0.556064	0.161253	0.818064
C362	C	1.056064	0.661253	1.318064
C363	C	0.590309	0.132258	0.859412
C364	C	1.090309	0.632258	1.359412
H365	H	0.529582	0.183670	0.839645
H366	H	1.029582	0.683670	1.339645
H367	H	0.579616	0.178539	0.793257
H368	H	1.079616	0.678539	1.293257
H369	H	0.535761	0.141214	0.793254
H370	H	1.035761	0.641214	1.293254
H371	H	0.610615	0.152298	0.884220
H372	H	1.110615	0.652298	1.384220
H373	H	0.566754	0.114971	0.884230
H374	H	1.066754	0.614971	1.384230
C375	C	0.466321	-0.357692	-0.000005
C376	C	0.966321	0.142308	0.499995
C377	C	0.511503	-0.395743	0.000006
C378	C	1.011503	0.104257	0.500006
H379	H	0.430868	-0.370716	-0.000021
H380	H	0.930868	0.129284	0.499979
H381	H	0.468711	-0.338282	0.035234
H382	H	0.968711	0.161718	0.535234
H383	H	0.468737	-0.338277	-0.035243
H384	H	0.968737	0.161723	0.464757
H385	H	0.509090	-0.415156	0.035247
H386	H	1.009090	0.084844	0.535247
H387	H	0.509112	-0.415161	-0.035236
H388	H	1.009112	0.084839	0.464764
H389	H	0.817996	-0.483866	0.000062
H390	H	1.317996	0.016134	0.500062
C391	C	0.620242	0.161790	0.689327
C392	C	1.120242	0.661790	1.189327
C393	C	0.590299	0.132264	0.725902
C394	C	1.090299	0.632264	1.225902
H395	H	0.593763	0.184212	0.667753
H396	H	1.093763	0.684212	1.167753
H397	H	0.643794	0.179070	0.714139
H398	H	1.143794	0.679070	1.214139
H399	H	0.643470	0.142112	0.661277
H400	H	1.143470	0.642112	1.161277
H401	H	0.567075	0.151942	0.753955
H402	H	1.067075	0.651942	1.253955
H403	H	0.566738	0.114983	0.701088
H404	H	1.066738	0.614983	1.201088
H405	H	0.486290	0.146202	0.000024
H406	H	0.986290	0.646202	0.500024
H407	H	-0.167930	0.139553	0.000059
H408	H	0.332070	0.639553	0.500059
H409	H	-0.034156	-0.019261	0.000086
H410	H	0.465844	0.480739	0.500086
H411	H	0.770646	-0.094710	0.000095
H412	H	1.270646	0.405290	0.500095
H413	H	0.769556	-0.186164	0.000075
H414	H	1.269556	0.313836	0.500075
H415	H	0.378542	0.145112	0.000041
H416	H	0.878542	0.645112	0.500041
C417	C	0.781689	-0.675682	0.051999
C418	C	1.281689	-0.175682	0.551999
C419	C	0.778171	-0.704303	0.000054
C420	C	1.278171	-0.204303	0.500054
H421	H	0.817142	-0.662660	0.052003
H422	H	1.317142	-0.162660	0.552003
H423	H	0.751033	-0.649877	0.051990
H424	H	1.251033	-0.149877	0.551990
H425	H	0.779285	-0.695103	0.087234
H426	H	1.279285	-0.195103	0.587234
H427	H	0.780571	-0.684882	-0.035182
H428	H	1.280571	-0.184882	0.464818
H429	H	0.808835	-0.730112	0.000058
H430	H	1.308835	-0.230112	0.500058
H431	H	0.762185	-0.801243	0.000047
H432	H	1.262185	-0.301243	0.500047
H433	H	-0.141903	-0.020355	0.000078
H434	H	0.358097	0.479645	0.500078
C435	C	0.176999	-0.112572	0.000133
C436	C	0.676999	0.387428	0.500133
C437	C	0.132086	-0.074292	0.000119
C438	C	0.632086	0.425708	0.500119
H439	H	0.161718	-0.142686	0.000153
H440	H	0.661718	0.357314	0.500153
H441	H	0.199865	-0.110509	-0.035107
H442	H	0.699865	0.389491	0.464893
H443	H	0.199868	-0.110486	0.035370
H444	H	0.699868	0.389514	0.535370
H445	H	0.109219	-0.076377	-0.035121
H446	H	0.609219	0.423623	0.464879
H447	H	0.109210	-0.076356	0.035362
H448	H	0.609210	0.423644	0.535362
C449	C	0.291355	-0.075371	-0.051840
C450	C	0.791355	0.424629	0.448160
C451	C	0.256763	-0.073019	0.000107
C452	C	0.756763	0.426981	0.500107
H453	H	0.316374	-0.105072	-0.051831
H454	H	0.816374	0.394928	0.448169
H455	H	0.267885	-0.073781	-0.087070
H456	H	0.767885	0.426219	0.412930
H457	H	0.313273	-0.048858	-0.051841
H458	H	0.813273	0.451142	0.448159
H459	H	0.234842	-0.099530	0.000106
H460	H	0.734842	0.400470	0.500106
H461	H	0.280236	-0.074614	0.035347
H462	H	0.780236	0.425386	0.535347
H463	H	0.562376	0.155881	0.557754
H464	H	1.062376	0.655881	1.057754
H465	H	0.512309	-0.013704	0.000056
H466	H	1.012309	0.486296	0.500056
H467	H	0.781993	-0.030058	0.442349
H468	H	1.281993	0.469942	0.942349
C469	C	0.879876	-0.365205	0.000074
C470	C	1.379876	0.134795	0.500074
C471	C	0.834692	-0.327155	0.000074
C472	C	1.334692	0.172845	0.500074
H473	H	0.915328	-0.352179	0.000072
H474	H	1.415328	0.147821	0.500072
H475	H	0.877473	-0.384616	0.035310
H476	H	1.377473	0.115384	0.535310
H477	H	0.877475	-0.384618	-0.035167
H478	H	1.377475	0.115382	0.464833
H479	H	0.837091	-0.307743	0.035317
H480	H	1.337091	0.192257	0.535317
H481	H	0.837096	-0.307735	-0.035166
H482	H	1.337096	0.192265	0.464834
H483	H	0.573737	-0.779443	0.000032
H484	H	1.073737	-0.279443	0.500032
C485	C	0.464514	-0.508945	-0.000001
C486	C	0.964514	-0.008945	0.499999
C487	C	0.509701	-0.546993	0.000007
C488	C	1.009701	-0.046993	0.500007
H489	H	0.429064	-0.521973	-0.000018
H490	H	0.929064	-0.021973	0.499982
H491	H	0.466903	-0.489537	0.035240
H492	H	0.966903	0.010463	0.535240
H493	H	0.466928	-0.489528	-0.035237
H494	H	0.966928	0.010472	0.464763
H495	H	0.507290	-0.566409	0.035245
H496	H	1.007290	-0.066409	0.535245
H497	H	0.507311	-0.566410	-0.035238
H498	H	1.007311	-0.066410	0.464762
H499	H	0.742967	0.002984	0.265148
H500	H	1.242967	0.502984	0.765148
