data_functionalizedCrystal
_audit_creation_method	'MofGen! by Chris Wilmer'
_symmetry_space_group_name_H-M	'P1'
_symmetry_Int_Tables_number	1
_symmetry_cell_setting	triclinic
loop_
_symmetry_equiv_pos_as_xyz
  x,y,z
_cell_length_a	10.540539
_cell_length_b	14.519731
_cell_length_c	12.996460
_cell_angle_alpha	89.994327
_cell_angle_beta	89.996006
_cell_angle_gamma	84.107172
loop_
_atom_site_label
_atom_site_type_symbol
_atom_site_fract_x
_atom_site_fract_y
_atom_site_fract_z
O1	O	0.166529	1.224754	-0.085564
O2	O	0.666529	1.724754	0.414436
O3	O	0.186096	0.956385	-0.085565
O4	O	0.686096	1.456385	0.414435
O5	O	-0.008456	1.096692	-0.085563
O6	O	0.491544	1.596692	0.414437
O7	O	0.361081	1.084447	-0.085566
O8	O	0.861081	1.584447	0.414434
O9	O	-0.008467	1.096677	0.085571
O10	O	0.491533	1.596677	0.585571
O11	O	0.186085	0.956370	0.085569
O12	O	0.686085	1.456370	0.585569
O13	O	0.166518	1.224739	0.085570
O14	O	0.666518	1.724739	0.585570
Cu15	Cu	0.176301	1.090553	0.101195
Cu16	Cu	0.676301	1.590553	0.601195
Cu17	Cu	0.176313	1.090571	-0.101190
Cu18	Cu	0.676313	1.590571	0.398810
O19	O	0.361070	1.084432	0.085568
O20	O	0.861070	1.584432	0.585568
C21	C	0.185174	0.922013	0.000002
C22	C	0.685174	1.422013	0.500002
C23	C	0.182426	0.819618	0.000001
C24	C	0.682426	1.319618	0.500001
C25	C	0.180194	0.736462	-0.000003
C26	C	0.680194	1.236462	0.499997
C27	C	0.177405	0.632138	-0.000003
C28	C	0.677405	1.132138	0.499997
C29	C	0.175191	0.548987	-0.000003
C30	C	0.675191	1.048987	0.499997
C31	C	0.172402	0.444657	-0.000006
C32	C	0.672402	0.944657	0.499994
C33	C	-0.055755	1.095766	0.000002
C34	C	0.444245	1.595766	0.500002
C35	C	-0.196675	1.093019	-0.000004
C36	C	0.303325	1.593019	0.499996
C37	C	-0.379038	0.987741	-0.000388
C38	C	0.120962	1.487741	0.499612
C39	C	-0.232449	0.990526	-0.000003
C40	C	0.267551	1.490526	0.499997
C41	C	-0.258837	1.142335	0.097722
C42	C	0.241163	1.642335	0.597722
C43	C	-0.405347	1.138837	0.097805
C44	C	0.094653	1.638837	0.597805
C45	C	-0.405874	1.140938	-0.096807
C46	C	0.094126	1.640938	0.403193
C47	C	-0.258901	1.141882	-0.098099
C48	C	0.241099	1.641882	0.401901
C49	C	0.408369	1.085358	0.000001
C50	C	0.908369	1.585358	0.500001
C51	C	0.549289	1.088105	-0.000001
C52	C	1.049289	1.588105	0.499999
C53	C	0.167440	1.259111	0.000001
C54	C	0.667440	1.759111	0.500001
C55	C	0.170188	1.361506	-0.000005
C56	C	0.670188	1.861506	0.499995
N57	N	0.176291	1.090548	0.243542
N58	N	0.676291	1.590548	0.743542
N59	N	0.176313	1.090584	-0.243538
N60	N	0.676313	1.590584	0.256462
C61	C	0.176315	1.090570	0.663356
C62	C	0.676315	1.590570	1.163356
C63	C	0.176312	1.090561	0.546551
C64	C	0.676312	1.590561	1.046551
C65	C	0.176304	1.090559	0.453453
C66	C	0.676304	1.590559	0.953453
C67	C	0.176299	1.090549	0.336640
C68	C	0.676299	1.590549	0.836640
H69	H	-0.189449	0.951721	-0.070057
H70	H	0.310551	1.451721	0.429943
Br71	Br	-0.457878	1.085652	-0.220263
Br72	Br	0.042122	1.585652	0.279737
H73	H	-0.237244	1.217603	0.101356
H74	H	0.262756	1.717603	0.601356
Br75	Br	-0.451749	1.078066	0.219560
Br76	Br	0.048251	1.578066	0.719560
H77	H	-0.217674	1.105798	-0.170394
H78	H	0.282326	1.605798	0.329606
H79	H	-0.235434	1.216608	-0.104000
H80	H	0.264566	1.716608	0.396000
H81	H	-0.407225	0.947259	-0.070469
H82	H	0.092775	1.447259	0.429531
H83	H	-0.454060	1.212548	0.102238
H84	H	0.045940	1.712548	0.602238
H85	H	-0.215896	1.108065	0.170446
H86	H	0.284104	1.608065	0.670446
H87	H	-0.408843	0.947412	0.069300
H88	H	0.091157	1.447412	0.569300
Br89	Br	-0.162188	0.925368	0.116948
Br90	Br	0.337812	1.425368	0.616948
Br91	Br	-0.485832	1.264326	-0.097904
Br92	Br	0.014168	1.764326	0.402096
