data_functionalizedCrystal
_audit_creation_method	'MofGen! by Chris Wilmer'
_symmetry_space_group_name_H-M	'P1'
_symmetry_Int_Tables_number	1
_symmetry_cell_setting	triclinic
loop_
_symmetry_equiv_pos_as_xyz
  x,y,z
_cell_length_a	16.625547
_cell_length_b	18.050589
_cell_length_c	16.625539
_cell_angle_alpha	90.024622
_cell_angle_beta	89.975178
_cell_angle_gamma	89.965365
loop_
_atom_site_label
_atom_site_type_symbol
_atom_site_fract_x
_atom_site_fract_y
_atom_site_fract_z
Zn1	Zn	1.232612	0.295659	-0.456021
Zn2	Zn	1.565945	0.628993	-0.122688
Zn3	Zn	1.899279	0.962326	0.210645
Zn4	Zn	1.232486	0.419857	-0.321197
Zn5	Zn	1.565820	0.753190	0.012136
Zn6	Zn	1.899153	1.086524	0.345469
Zn7	Zn	1.097774	0.295685	-0.321192
Zn8	Zn	1.431107	0.629019	0.012141
Zn9	Zn	1.764440	0.962352	0.345475
Zn10	Zn	1.097715	0.419812	-0.455977
Zn11	Zn	1.431049	0.753145	-0.122644
Zn12	Zn	1.764382	1.086479	0.210689
O13	O	1.165147	0.357753	-0.388597
O14	O	1.498480	0.691087	-0.055264
O15	O	1.831814	1.024420	0.278070
O16	O	1.345428	0.312142	-0.438158
O17	O	1.678761	0.645476	-0.104824
O18	O	2.012094	0.978809	0.228509
O19	O	1.214588	0.403415	-0.208364
O20	O	1.547922	0.736748	0.124969
O21	O	1.881255	1.070082	0.458302
O22	O	1.115737	0.191757	-0.339094
O23	O	1.449071	0.525090	-0.005760
O24	O	1.782404	0.858424	0.327573
O25	O	1.345335	0.403390	-0.339103
O26	O	1.678669	0.736723	-0.005769
O27	O	2.012002	1.070057	0.327564
O28	O	1.214802	0.191738	-0.438152
O29	O	1.548136	0.525071	-0.104819
O30	O	1.881469	0.858405	0.228514
O31	O	1.115616	0.312187	-0.208360
O32	O	1.448949	0.645520	0.124973
O33	O	1.782282	0.978853	0.458306
O34	O	0.984934	0.312143	-0.339051
O35	O	1.318267	0.645476	-0.005717
O36	O	1.651600	0.978809	0.327616
O37	O	1.115638	0.403313	-0.568816
O38	O	1.448971	0.736646	-0.235482
O39	O	1.782305	1.069980	0.097851
O40	O	0.984891	0.403338	-0.438077
O41	O	1.318224	0.736672	-0.104744
O42	O	1.651557	1.070005	0.228590
O43	O	1.214746	0.312099	-0.568848
O44	O	1.548079	0.645432	-0.235515
O45	O	1.881412	0.978765	0.097819
O46	O	1.214532	0.523776	-0.339060
O47	O	1.547865	0.857109	-0.005727
O48	O	1.881198	1.190442	0.327607
O49	O	1.115516	0.523742	-0.438082
O50	O	1.448849	0.857076	-0.104749
O51	O	1.782183	1.190409	0.228585
C52	C	0.955656	0.357739	-0.388559
C53	C	1.288989	0.691072	-0.055226
C54	C	1.622323	1.024406	0.278108
C55	C	0.866035	0.357751	-0.388562
C56	C	1.199368	0.691084	-0.055228
C57	C	1.532702	1.024417	0.278105
C58	C	0.793253	0.357752	-0.388572
C59	C	1.126586	0.691085	-0.055238
C60	C	1.459919	1.024419	0.278095
C61	C	0.701944	0.357756	-0.388592
C62	C	1.035277	0.691089	-0.055259
C63	C	1.368611	1.024423	0.278075
C64	C	0.629168	0.357763	-0.388612
C65	C	0.962501	0.691096	-0.055279
C66	C	1.295834	1.024429	0.278054
C67	C	0.537853	0.357768	-0.388632
C68	C	0.871187	0.691101	-0.055298
C69	C	1.204520	1.024435	0.278035
C70	C	1.165026	0.550706	-0.388584
C71	C	1.498359	0.884039	-0.055251
C72	C	1.831693	1.217372	0.278082
C73	C	1.165048	0.633251	-0.388606
C74	C	1.498381	0.966585	-0.055273
C75	C	1.831715	1.299918	0.278061
C76	C	1.111232	0.832711	-0.442436
C77	C	1.444565	1.166044	-0.109103
C78	C	1.777898	1.499378	0.224231
C79	C	1.091569	0.882153	-0.368859
C80	C	1.424902	1.215486	-0.035526
C81	C	1.758236	1.548819	0.297808
C82	C	1.165109	0.784382	-0.388617
C83	C	1.498442	1.117715	-0.055284
C84	C	1.831775	1.451048	0.278050
C85	C	1.184793	0.882022	-0.462203
C86	C	1.518126	1.215355	-0.128870
C87	C	1.851459	1.548688	0.204464
C88	C	1.165166	0.930367	-0.388634
C89	C	1.498499	1.263700	-0.055301
C90	C	1.831832	1.597033	0.278033
C91	C	1.145408	0.832736	-0.315001
C92	C	1.478741	1.166070	0.018333
C93	C	1.812074	1.499403	0.351666
C94	C	1.238665	0.832601	-0.408395
C95	C	1.571998	1.165934	-0.075061
C96	C	1.905332	1.499267	0.258272
C97	C	1.219031	0.882020	-0.334767
C98	C	1.552364	1.215354	-0.001433
C99	C	1.885697	1.548687	0.331900
C100	C	1.165074	0.700283	-0.388608
C101	C	1.498407	1.033617	-0.055275
C102	C	1.831740	1.366950	0.278059
C103	C	1.165201	1.014463	-0.388635
C104	C	1.498534	1.347797	-0.055301
C105	C	1.831867	1.681130	0.278032
C106	C	1.375456	0.357768	-0.388636
C107	C	1.708789	0.691102	-0.055302
C108	C	2.042122	1.024435	0.278031
C109	C	1.465077	0.357775	-0.388652
C110	C	1.798410	0.691108	-0.055319
C111	C	2.131744	1.024441	0.278014
C112	C	1.165199	0.357698	-0.598906
C113	C	1.498533	0.691031	-0.265573
C114	C	1.831866	1.024365	0.067761
C115	C	1.165222	0.357674	-0.688527
C116	C	1.498555	0.691008	-0.355194
C117	C	1.831888	1.024341	-0.021860
C118	C	1.165260	1.164048	-0.388628
C119	C	1.498593	1.497381	-0.055295
C120	C	1.831926	1.830714	0.278038
C121	C	1.165229	1.081502	-0.388644
C122	C	1.498562	1.414835	-0.055311
C123	C	1.831895	1.748169	0.278023
C124	C	1.165259	0.357591	-1.016703
C125	C	1.498592	0.690925	-0.683370
C126	C	1.831926	1.024258	-0.350036
C127	C	1.165246	0.357617	-0.925394
C128	C	1.498580	0.690950	-0.592061
C129	C	1.831913	1.024283	-0.258728
C130	C	1.165241	0.357633	-0.852618
C131	C	1.498574	0.690967	-0.519285
C132	C	1.831907	1.024300	-0.185951
C133	C	1.165227	0.357658	-0.761304
C134	C	1.498561	0.690991	-0.427970
C135	C	1.831894	1.024324	-0.094637
C136	C	1.165141	0.357755	-0.179106
C137	C	1.498474	0.691088	0.154227
C138	C	1.831808	1.024422	0.487560
C139	C	1.165275	0.357569	-0.089485
C140	C	1.498608	0.690903	0.243848
C141	C	1.831942	1.024236	0.577181
H142	H	1.065610	0.811059	-0.487884
H143	H	1.398944	1.144392	-0.154551
H144	H	1.732277	1.477726	0.178782
H145	H	1.264617	0.903535	-0.289209
H146	H	1.597950	1.236868	0.044125
H147	H	1.931284	1.570201	0.377458
H148	H	1.300828	0.810821	-0.425143
H149	H	1.634161	1.144154	-0.091809
H150	H	1.967495	1.477488	0.241524
Cl151	Cl	1.119628	0.799454	-0.218904
Cl152	Cl	1.452961	1.132788	0.114430
Cl153	Cl	1.786294	1.466121	0.447763
Cl154	Cl	0.995568	0.915756	-0.343033
Cl155	Cl	1.328902	1.249089	-0.009700
Cl156	Cl	1.662235	1.582422	0.323633
Cl157	Cl	1.210462	0.915450	-0.558270
Cl158	Cl	1.543795	1.248783	-0.224937
Cl159	Cl	1.877129	1.582116	0.108396
