data_functionalizedCrystal
_audit_creation_method	'MofGen! by Chris Wilmer'
_symmetry_space_group_name_H-M	'P1'
_symmetry_Int_Tables_number	1
_symmetry_cell_setting	triclinic
loop_
_symmetry_equiv_pos_as_xyz
  x,y,z
_cell_length_a	10.685661
_cell_length_b	13.897447
_cell_length_c	10.685314
_cell_angle_alpha	94.335458
_cell_angle_beta	90.318062
_cell_angle_gamma	85.641070
loop_
_atom_site_label
_atom_site_type_symbol
_atom_site_fract_x
_atom_site_fract_y
_atom_site_fract_z
Zn1	Zn	1.863535	-0.543425	-0.856028
Zn2	Zn	2.196868	-0.210091	-0.522695
Zn3	Zn	2.530202	0.123242	-0.189361
Zn4	Zn	1.879476	-0.693402	-0.646252
Zn5	Zn	2.212809	-0.360069	-0.312918
Zn6	Zn	2.546142	-0.026736	0.020415
Zn7	Zn	1.669824	-0.518885	-0.630228
Zn8	Zn	2.003158	-0.185552	-0.296895
Zn9	Zn	2.336491	0.147782	0.036438
Zn10	Zn	1.653714	-0.691426	-0.839918
Zn11	Zn	1.987048	-0.358093	-0.506585
Zn12	Zn	2.320381	-0.024760	-0.173252
O13	O	1.766637	-0.611785	-0.743107
O14	O	2.099971	-0.278451	-0.409773
O15	O	2.433304	0.054882	-0.076440
O16	O	2.041200	-0.574417	-0.841648
O17	O	2.374534	-0.241083	-0.508315
O18	O	2.707867	0.092250	-0.174982
O19	O	1.865078	-0.660809	-0.468578
O20	O	2.198412	-0.327476	-0.135245
O21	O	2.531745	0.005857	0.198089
O22	O	1.695592	-0.387165	-0.660217
O23	O	2.028925	-0.053831	-0.326884
O24	O	2.362258	0.279502	0.006450
O25	O	2.052912	-0.684605	-0.687527
O26	O	2.386245	-0.351271	-0.354193
O27	O	2.719578	-0.017938	-0.020860
O28	O	1.837910	-0.405194	-0.826111
O29	O	2.171243	-0.071861	-0.492778
O30	O	2.504577	0.261473	-0.159444
O31	O	1.711049	-0.532592	-0.456806
O32	O	2.044382	-0.199259	-0.123472
O33	O	2.377715	0.134075	0.209861
O34	O	1.492137	-0.530676	-0.644596
O35	O	1.825470	-0.197343	-0.311263
O36	O	2.158803	0.135991	0.022070
O37	O	1.668134	-0.681236	-1.017604
O38	O	2.001467	-0.347903	-0.684270
O39	O	2.334801	-0.014570	-0.350937
O40	O	1.480301	-0.657441	-0.798655
O41	O	1.813634	-0.324108	-0.465322
O42	O	2.146967	0.009225	-0.131988
O43	O	1.822289	-0.572500	-1.029439
O44	O	2.155622	-0.239167	-0.696106
O45	O	2.488955	0.094166	-0.362772
O46	O	1.849457	-0.828116	-0.671906
O47	O	2.182790	-0.494782	-0.338573
O48	O	2.516124	-0.161449	-0.005239
O49	O	1.683591	-0.826664	-0.814192
O50	O	2.016924	-0.493330	-0.480859
O51	O	2.350258	-0.159997	-0.147525
C52	C	1.440700	-0.591182	-0.718139
C53	C	1.774034	-0.257849	-0.384806
C54	C	2.107367	0.075485	-0.051473
C55	C	1.301261	-0.582393	-0.707488
C56	C	1.634594	-0.249060	-0.374155
C57	C	1.967928	0.084274	-0.040822
C58	C	1.766538	-0.862391	-0.743070
C59	C	2.099871	-0.529058	-0.409736
C60	C	2.433204	-0.195724	-0.076403
C61	C	1.766606	-0.969611	-0.743105
C62	C	2.099940	-0.636278	-0.409771
C63	C	2.433273	-0.302944	-0.076438
C64	C	1.766665	-1.056686	-0.743138
C65	C	2.099998	-0.723353	-0.409804
C66	C	2.433332	-0.390019	-0.076471
C67	C	1.766750	-1.165926	-0.743177
C68	C	2.100084	-0.832592	-0.409843
C69	C	2.433417	-0.499259	-0.076510
C70	C	2.093847	-0.632468	-0.768172
C71	C	2.427180	-0.299135	-0.434838
C72	C	2.760514	0.034198	-0.101505
C73	C	2.233284	-0.641283	-0.778853
C74	C	2.566618	-0.307949	-0.445520
C75	C	2.899951	0.025384	-0.112186
C76	C	1.741636	-0.629385	-1.070312
C77	C	2.074969	-0.296052	-0.736978
C78	C	2.408303	0.037281	-0.403645
C79	C	1.730982	-0.636886	-1.209747
C80	C	2.064315	-0.303552	-0.876414
C81	C	2.397649	0.029781	-0.543080
C82	C	1.766770	-0.360203	-0.743174
C83	C	2.100103	-0.026870	-0.409840
C84	C	2.433436	0.306463	-0.076507
C85	C	1.766826	-0.252994	-0.743202
C86	C	2.100159	0.080339	-0.409869
C87	C	2.433493	0.413672	-0.076536
C88	C	1.791614	-0.594187	-0.417180
C89	C	2.124947	-0.260854	-0.083846
C90	C	2.458280	0.072479	0.249487
C91	C	1.802511	-0.586431	-0.277764
C92	C	2.135844	-0.253097	0.055570
C93	C	2.469177	0.080236	0.388903
H94	H	1.281768	-0.698426	-0.848107
H95	H	1.615101	-0.365093	-0.514774
H96	H	1.948435	-0.031760	-0.181441
Cl97	Cl	1.909635	-0.510859	-1.202974
Cl98	Cl	2.242968	-0.177525	-0.869641
Cl99	Cl	2.576302	0.155808	-0.536308
Cl100	Cl	1.623849	-0.712443	-1.284531
Cl101	Cl	1.957182	-0.379109	-0.951198
Cl102	Cl	2.290516	-0.045776	-0.617864
Cl103	Cl	1.226418	-0.494158	-0.600584
Cl104	Cl	1.559751	-0.160825	-0.267251
Cl105	Cl	1.893085	0.172508	0.066083
