data_functionalizedCrystal
_audit_creation_method	'MofGen! by Chris Wilmer'
_symmetry_space_group_name_H-M	'P1'
_symmetry_Int_Tables_number	1
_symmetry_cell_setting	triclinic
loop_
_symmetry_equiv_pos_as_xyz
  x,y,z
_cell_length_a	11.792254
_cell_length_b	15.995350
_cell_length_c	10.268362
_cell_angle_alpha	89.996947
_cell_angle_beta	89.995475
_cell_angle_gamma	83.845486
loop_
_atom_site_label
_atom_site_type_symbol
_atom_site_fract_x
_atom_site_fract_y
_atom_site_fract_z
O1	O	1.505943	0.114814	-0.108292
O2	O	1.175505	0.126630	-0.108294
O3	O	1.349756	-0.001124	-0.108292
O4	O	1.331691	0.242568	-0.108295
O5	O	1.349741	-0.001130	0.108309
O6	O	1.175490	0.126625	0.108306
O7	O	1.505927	0.114809	0.108308
Cu8	Cu	1.340707	0.120716	0.128085
Cu9	Cu	1.340725	0.120723	-0.128071
O10	O	1.331676	0.242563	0.108306
C11	C	1.133213	0.125883	0.000006
C12	C	1.007218	0.123655	0.000005
C13	C	0.904897	0.121845	-0.000001
C14	C	0.776529	0.119581	-0.000002
C15	C	1.349002	-0.032325	0.000006
C16	C	1.346763	-0.125286	-0.000002
C17	C	1.338722	-0.463070	0.000003
C18	C	1.214623	-0.416203	-0.000484
C19	C	1.216863	-0.319503	0.000004
C20	C	1.342710	-0.295491	-0.000000
C21	C	1.403912	-0.336292	0.123688
C22	C	1.400794	-0.432942	0.123791
C23	C	1.403375	-0.433282	-0.122524
C24	C	1.403346	-0.336337	-0.124159
C25	C	1.344971	-0.200783	0.000003
C26	C	1.336465	-0.557778	0.000009
C27	C	1.548220	0.115556	0.000006
C28	C	1.674214	0.117784	-0.000002
C29	C	1.332430	0.273764	0.000005
C30	C	1.334669	0.366725	0.000004
N31	N	1.340703	0.120711	0.308251
N32	N	1.340738	0.120721	-0.308236
C33	C	1.340719	0.120721	0.573921
C34	C	1.340707	0.120718	0.426083
H35	H	1.168754	-0.291299	-0.088660
N36	N	1.518155	-0.472602	-0.123612
N37	N	1.584281	-0.457211	-0.213544
H38	H	1.665341	-0.484985	-0.214307
N39	N	1.347344	-0.302323	-0.238970
N40	N	1.382685	-0.326707	-0.348784
H41	H	1.343144	-0.302671	-0.429871
H42	H	1.491905	-0.464773	0.129400
N43	N	1.352492	-0.459258	-0.240148
N44	N	1.392560	-0.441159	-0.347986
H45	H	1.356614	-0.459503	-0.431054
H46	H	1.496368	-0.321743	0.128284
N47	N	1.152414	-0.439749	-0.111753
N48	N	1.136151	-0.514933	-0.128600
H49	H	1.092219	-0.531568	-0.207190
H50	H	1.495120	-0.320555	-0.131630
H51	H	1.165236	-0.436025	0.087720
H52	H	1.168418	-0.291862	0.088819
N53	N	1.344791	-0.456153	0.239786
N54	N	1.308275	-0.400996	0.320098
H55	H	1.268720	-0.417384	0.402022
H56	H	1.361392	-0.308107	0.215735
