data_functionalizedCrystal
_audit_creation_method	'MofGen! by Chris Wilmer'
_symmetry_space_group_name_H-M	'P1'
_symmetry_Int_Tables_number	1
_symmetry_cell_setting	triclinic
loop_
_symmetry_equiv_pos_as_xyz
  x,y,z
_cell_length_a	18.215407
_cell_length_b	12.759400
_cell_length_c	12.759401
_cell_angle_alpha	90.007629
_cell_angle_beta	90.004507
_cell_angle_gamma	90.015132
loop_
_atom_site_label
_atom_site_type_symbol
_atom_site_fract_x
_atom_site_fract_y
_atom_site_fract_z
Zn1	Zn	1.125013	-0.418440	0.594074
Zn2	Zn	1.124976	-0.594085	0.418395
Zn3	Zn	1.001978	-0.418422	0.418404
Zn4	Zn	1.001933	-0.594079	0.594026
O5	O	1.063475	-0.506257	0.506225
O6	O	1.227992	-0.441750	0.570787
O7	O	1.108664	-0.570779	0.271375
O8	O	1.018333	-0.271404	0.441731
O9	O	1.227965	-0.570796	0.441715
O10	O	1.108726	-0.271417	0.570795
O11	O	1.018298	-0.441720	0.271381
O12	O	0.898988	-0.441714	0.441684
O13	O	1.018256	-0.570784	0.741053
O14	O	0.898955	-0.570768	0.570712
O15	O	1.108682	-0.441743	0.741089
O16	O	1.108620	-0.741106	0.441668
O17	O	1.018221	-0.741101	0.570704
C18	C	0.872269	-0.506239	0.506194
C19	C	0.790470	-0.506256	0.506206
C20	C	0.602278	-0.573560	0.573307
C21	C	0.525419	-0.573564	0.573321
C22	C	0.525424	-0.438972	0.439165
C23	C	0.602281	-0.438964	0.439158
C24	C	0.640706	-0.506264	0.506227
C25	C	0.486990	-0.506275	0.506248
C26	C	0.403657	-0.506279	0.506261
C27	C	0.724045	-0.506260	0.506215
C28	C	1.063431	-0.779224	0.506203
C29	C	1.063480	-0.896001	0.506228
C30	C	1.110603	-0.950830	0.439114
C31	C	1.110648	-1.060554	0.439146
C32	C	1.016441	-1.060609	0.573411
C33	C	1.016400	-0.950887	0.573383
C34	C	1.157683	-0.895944	0.371960
C35	C	1.204809	-0.950773	0.304839
C36	C	1.204854	-1.060497	0.304871
C37	C	1.157773	-1.115392	0.372025
C38	C	1.255428	-0.506275	0.506255
C39	C	1.337227	-0.506283	0.506269
C40	C	1.063469	-0.506265	0.780258
C41	C	1.063466	-0.506269	0.897034
C42	C	1.063539	-0.232223	0.506270
C43	C	1.063566	-0.115447	0.506289
C44	C	1.016386	-0.573451	0.951880
C45	C	1.016391	-0.573457	1.061604
C46	C	1.110559	-0.439090	1.061628
C47	C	1.110556	-0.439090	0.951906
C48	C	0.969295	-0.640630	0.897008
C49	C	0.922211	-0.707817	0.951853
C50	C	0.922217	-0.707823	1.061578
C51	C	0.969306	-0.640642	1.116456
C52	C	1.063475	-0.506273	1.233257
C53	C	1.063474	-0.506275	1.116481
H54	H	0.633561	-0.628358	0.627923
H55	H	1.157649	-0.806601	0.371923
H56	H	0.494134	-0.628361	0.627945
H57	H	1.157820	-1.204736	0.372054
H58	H	0.494129	-0.384180	0.384557
H59	H	0.633571	-0.384157	0.384533
C60	C	0.969284	-0.640628	0.776310
N61	N	0.969276	-0.640625	0.685400
H62	H	1.243145	-0.906073	0.250171
C63	C	1.256695	-1.120807	0.231040
N64	N	1.295739	-1.166230	0.175423
H65	H	0.883883	-0.762537	1.106230
C66	C	0.870417	-0.781713	0.891485
N67	N	0.831403	-0.837373	0.846016
C68	C	1.162345	-0.365184	1.121999
N69	N	1.201348	-0.309512	1.167470
C70	C	0.964551	-0.890571	0.647197
N71	N	0.925496	-0.845141	0.702792
C72	C	0.964649	-1.120997	0.647264
N73	N	0.925634	-1.166482	0.702887
H74	H	1.148892	-0.384382	0.907250
H75	H	0.969312	-0.640659	1.205801
