data_functionalizedCrystal
_audit_creation_method	'MofGen! by Chris Wilmer'
_symmetry_space_group_name_H-M	'P1'
_symmetry_Int_Tables_number	1
_symmetry_cell_setting	triclinic
loop_
_symmetry_equiv_pos_as_xyz
  x,y,z
_cell_length_a	14.519709
_cell_length_b	19.288862
_cell_length_c	18.366186
_cell_angle_alpha	89.974265
_cell_angle_beta	90.006066
_cell_angle_gamma	96.592287
loop_
_atom_site_label
_atom_site_type_symbol
_atom_site_fract_x
_atom_site_fract_y
_atom_site_fract_z
O1	O	0.115033	-0.921768	0.060832
O2	O	0.130555	-0.719563	0.060772
O3	O	-0.011479	-0.826027	0.060797
O4	O	0.257066	-0.815304	0.060807
O5	O	-0.011483	-0.826008	-0.060302
O6	O	0.130551	-0.719544	-0.060327
O7	O	0.115029	-0.921749	-0.060267
Zn8	Zn	0.122789	-0.820644	-0.079524
Zn9	Zn	0.122794	-0.820668	0.080029
O10	O	0.257062	-0.815286	-0.060292
C11	C	0.130054	-0.693675	0.000215
C12	C	0.128555	-0.616566	0.000192
C13	C	-0.045837	-0.825518	0.000247
C14	C	-0.148209	-0.824020	0.000246
N15	N	0.122785	-0.820632	-0.188415
C16	C	-0.523070	-0.818508	0.000264
C17	C	-0.418772	-0.820038	0.000259
C18	C	-0.335643	-0.821264	0.000254
C19	C	-0.231338	-0.822795	0.000251
C20	C	0.291421	-0.815795	0.000259
C21	C	0.393793	-0.817292	0.000265
C22	C	0.211894	-0.572170	0.000204
C23	C	0.210487	-0.499718	0.000208
C24	C	0.125736	-0.471665	0.000215
C25	C	0.042386	-0.516071	0.000198
C26	C	0.043796	-0.588522	0.000187
C27	C	0.059115	-0.363170	0.042658
C28	C	0.057708	-0.290720	0.042674
C29	C	0.121384	-0.248204	0.000247
C30	C	0.186481	-0.278144	-0.042186
C31	C	0.187891	-0.350595	-0.042197
C32	C	0.124198	-0.393106	0.000227
C33	C	0.203202	-0.125246	0.000263
C34	C	0.201791	-0.052792	0.000263
C35	C	0.033688	-0.069148	0.000260
C36	C	0.035102	-0.141599	0.000253
C37	C	0.119861	-0.169644	0.000258
C38	C	0.115533	0.052363	0.000279
C39	C	0.117040	-0.024745	0.000268
C40	C	0.178580	-0.862821	-0.226494
C41	C	0.178578	-0.862832	-0.302722
C42	C	0.122791	-0.820642	-0.340868
C43	C	0.066984	-0.778451	-0.302780
C44	C	0.066981	-0.778446	-0.226554
C45	C	0.120459	-0.758022	-0.461668
C46	C	0.120468	-0.758025	-0.537893
C47	C	0.122794	-0.820658	-0.575976
C48	C	0.125129	-0.883288	-0.537824
C49	C	0.125127	-0.883283	-0.461598
C50	C	0.122787	-0.820643	-0.423523
C51	C	0.178589	-0.862862	-0.696710
C52	C	0.178580	-0.862875	-0.772939
C53	C	0.066992	-0.778487	-0.772995
C54	C	0.066996	-0.778481	-0.696767
C55	C	0.122799	-0.820667	-0.658629
N56	N	0.122791	-0.820685	0.188920
H57	H	0.280912	-0.594999	0.000210
H58	H	0.224027	-0.897213	-0.665656
H59	H	0.224013	-0.897235	-0.803941
C60	C	0.259484	-0.383532	-0.088873
H61	H	0.251205	-0.432769	-0.082798
H62	H	0.251147	-0.372420	-0.138657
H63	H	0.320274	-0.365733	-0.073950
H64	H	0.118572	-0.707028	-0.568950
C65	C	0.302162	-0.450873	0.000233
H66	H	0.352842	-0.477952	0.000241
H67	H	0.305115	-0.422240	-0.041988
H68	H	0.305092	-0.422301	0.042477
H69	H	0.127026	-0.934279	-0.430538
C70	C	0.005627	-0.732079	-0.814947
H71	H	0.013623	-0.738120	-0.865799
H72	H	-0.057517	-0.744905	-0.802453
H73	H	0.022931	-0.684574	-0.802479
C74	C	0.117885	-0.689126	-0.419781
H75	H	0.118204	-0.698093	-0.368920
H76	H	0.170676	-0.657626	-0.432279
H77	H	0.063165	-0.669161	-0.432295
H78	H	0.007260	-0.397782	0.077211
C79	C	-0.047880	-0.637360	0.000182
H80	H	-0.098559	-0.610279	0.000190
H81	H	-0.050828	-0.665944	-0.042049
H82	H	-0.050818	-0.665982	0.042416
H83	H	0.021561	-0.744100	-0.333843
C84	C	0.239954	-0.909230	-0.184546
H85	H	0.273178	-0.934362	-0.218147
H86	H	0.282492	-0.880819	-0.154819
H87	H	0.202047	-0.941152	-0.154800
C88	C	-0.050837	-0.485217	0.000210
H89	H	-0.039741	-0.435709	0.000227
H90	H	-0.085144	-0.500423	-0.042022
H91	H	-0.085135	-0.500476	0.042443
H92	H	0.224016	-0.897187	-0.333732
H93	H	0.127028	-0.934289	-0.568829
C94	C	0.005631	-0.732065	-0.654879
H95	H	-0.027589	-0.706934	-0.688512
H96	H	-0.036910	-0.760471	-0.625130
H97	H	0.043540	-0.700141	-0.625159
C98	C	0.005611	-0.732032	-0.184665
H99	H	-0.027612	-0.706903	-0.218298
H100	H	-0.036927	-0.760438	-0.154914
H101	H	0.043521	-0.700106	-0.154947
H102	H	0.238332	-0.243528	-0.076734
H103	H	0.272218	-0.148080	0.000257
H104	H	0.269658	-0.016645	0.000269
H105	H	-0.035317	-0.046308	0.000311
H106	H	-0.032762	-0.177748	0.000247
C107	C	-0.013898	-0.257792	0.089344
H108	H	-0.051631	-0.293489	0.114599
H109	H	0.017428	-0.226447	0.123469
H110	H	-0.051683	-0.233135	0.058751
