data_functionalizedCrystal
_audit_creation_method	'MofGen! by Chris Wilmer'
_symmetry_space_group_name_H-M	'P1'
_symmetry_Int_Tables_number	1
_symmetry_cell_setting	triclinic
loop_
_symmetry_equiv_pos_as_xyz
  x,y,z
_cell_length_a	19.188930
_cell_length_b	23.532407
_cell_length_c	17.666332
_cell_angle_alpha	89.988854
_cell_angle_beta	89.976766
_cell_angle_gamma	82.996728
loop_
_atom_site_label
_atom_site_type_symbol
_atom_site_fract_x
_atom_site_fract_y
_atom_site_fract_z
O1	O	0.925923	0.071102	-0.063199
O2	O	0.722581	0.080673	-0.063148
O3	O	0.830384	-0.007031	-0.063161
O4	O	0.818120	0.158806	-0.063186
O5	O	0.830365	-0.007036	0.062735
O6	O	0.722562	0.080669	0.062748
O7	O	0.925904	0.071097	0.062697
Cu8	Cu	0.824231	0.075883	0.074218
Cu9	Cu	0.824253	0.075888	-0.074669
O10	O	0.818101	0.158802	0.062711
C11	C	0.696561	0.080361	-0.000193
C12	C	0.619060	0.079431	-0.000173
C13	C	0.573972	0.130893	-0.000193
C14	C	0.501151	0.130019	-0.000201
C15	C	0.473421	0.077680	-0.000205
C16	C	0.518519	0.026211	-0.000181
C17	C	0.591339	0.027086	-0.000165
N18	N	0.365575	0.037674	-0.043078
N19	N	0.296399	0.036846	-0.043094
C20	C	0.254021	0.075038	-0.000251
N21	N	0.283431	0.114099	0.042600
N22	N	0.352613	0.114929	0.042614
C23	C	0.394462	0.076724	-0.000222
C24	C	0.129971	0.125556	-0.000278
C25	C	0.057149	0.124680	-0.000282
C26	C	0.074520	0.020870	-0.000269
C27	C	0.147340	0.021748	-0.000258
C28	C	0.175061	0.074092	-0.000266
C29	C	0.830062	-0.028250	-0.000211
C30	C	0.829123	-0.091469	-0.000205
C31	C	0.887029	-0.490449	-0.000261
C32	C	0.886157	-0.549851	-0.000267
O33	O	0.939837	-0.586482	-0.000308
N34	N	0.822068	-0.572613	-0.000250
C35	C	0.758848	-0.535970	-0.000236
O36	O	0.704255	-0.560786	-0.000223
C37	C	0.759721	-0.476569	-0.000235
C38	C	0.823814	-0.453810	-0.000244
C39	C	0.951117	-0.467690	-0.000271
C40	C	0.951989	-0.408292	-0.000264
C41	C	0.888773	-0.371653	-0.000247
C42	C	0.824685	-0.394412	-0.000237
C43	C	0.696501	-0.439927	-0.000226
C44	C	0.697379	-0.380523	-0.000227
C45	C	0.761472	-0.357764	-0.000236
C46	C	0.762342	-0.298376	-0.000214
N47	N	0.826430	-0.275614	-0.000230
C48	C	0.889646	-0.312252	-0.000247
C49	C	0.757019	-0.660717	-0.000237
C50	C	0.756146	-0.720116	-0.000232
C51	C	0.883455	-0.733993	-0.000264
C52	C	0.884328	-0.674592	-0.000264
C53	C	0.821108	-0.637954	-0.000254
C54	C	0.891472	-0.187512	-0.000232
C55	C	0.892339	-0.128108	-0.000222
C56	C	0.765029	-0.114236	-0.000193
C57	C	0.764163	-0.173634	-0.000199
C58	C	0.827390	-0.210272	-0.000221
O59	O	0.708690	-0.261710	-0.000176
O60	O	0.944230	-0.287428	-0.000270
C61	C	0.951923	0.071410	-0.000259
C62	C	1.029425	0.072340	-0.000284
C63	C	0.818423	0.180021	-0.000241
C64	C	0.819362	0.243240	-0.000252
N65	N	0.824221	0.075878	0.178938
N66	N	0.824270	0.075888	-0.179389
C67	C	0.871971	0.037062	0.218542
C68	C	0.871975	0.037059	0.297789
C69	C	0.824236	0.075883	0.337430
C70	C	0.776476	0.114702	0.297816
C71	C	0.776469	0.114700	0.218570
N72	N	0.814998	0.126298	0.461842
N73	N	0.815010	0.126298	0.537123
C74	C	0.824254	0.075891	0.576194
N75	N	0.833500	0.025481	0.537141
N76	N	0.833493	0.025482	0.461853
C77	C	0.824238	0.075889	0.423359
C78	C	0.872011	0.037068	0.701727
C79	C	0.872010	0.037064	0.780976
C80	C	0.776515	0.114713	0.781002
C81	C	0.776512	0.114711	0.701754
C82	C	0.824264	0.075889	0.662122
H83	H	0.464433	0.171927	-0.000215
H84	H	0.910860	0.005449	0.330041
C85	C	0.952994	-0.774301	-0.000288
H86	H	0.991292	-0.752243	-0.000291
H87	H	0.955301	-0.797755	-0.044193
H88	H	0.955290	-0.797768	0.043618
H89	H	0.152543	0.168178	-0.000274
C90	C	0.007549	0.181289	-0.000304
H91	H	-0.039791	0.173273	-0.000304
H92	H	0.015937	0.202757	-0.044210
H93	H	0.015892	0.202760	0.043601
H94	H	0.645897	-0.350694	-0.000220
C95	C	0.724001	0.157419	0.658184
H96	H	0.730832	0.151857	0.605311
H97	H	0.731324	0.195412	0.671159
H98	H	0.677444	0.151330	0.671194
C99	C	0.044026	-0.036702	-0.000278
H100	H	-0.005801	-0.029854	-0.000296
H101	H	0.059504	-0.057889	0.043627
H102	H	0.059552	-0.057878	-0.044184
C103	C	0.695498	-0.073926	-0.000179
H104	H	0.705202	-0.035291	-0.000186
H105	H	0.669186	-0.080812	0.043725
H106	H	0.669213	-0.080801	-0.044086
C107	C	0.924489	-0.005646	0.174950
H108	H	0.952923	-0.028768	0.209891
H109	H	0.953405	0.014779	0.144010
H110	H	0.899531	-0.029307	0.144062
C111	C	0.924524	-0.005639	0.658125
H112	H	0.917687	-0.000077	0.605256
H113	H	0.917206	-0.043633	0.671127
H114	H	0.971081	0.000452	0.671085
C115	C	1.022491	-0.383265	-0.000288
H116	H	1.060010	-0.413599	-0.000308
H117	H	1.025483	-0.360386	0.043612
H118	H	1.025483	-0.360378	-0.044200
H119	H	0.705535	-0.630888	-0.000222
C120	C	0.196939	-0.034861	-0.000248
H121	H	0.169997	-0.066158	-0.000258
H122	H	0.225685	-0.036680	0.043659
H123	H	0.225728	-0.036673	-0.044152
H124	H	0.910892	0.005452	0.813222
H125	H	0.596537	0.173516	-0.000201
C126	C	0.693663	-0.198671	-0.000191
H127	H	0.656140	-0.168340	-0.000185
H128	H	0.690663	-0.221568	0.043704
H129	H	0.690689	-0.221540	-0.044108
C130	C	0.723966	0.157409	0.341418
H131	H	0.730814	0.151855	0.394286
H132	H	0.677412	0.151318	0.328461
H133	H	0.731286	0.195404	0.328412
H134	H	0.942958	-0.217335	-0.000252
C135	C	0.685644	-0.745145	-0.000216
H136	H	0.648124	-0.714812	-0.000211
H137	H	0.682645	-0.768037	0.043684
H138	H	0.682663	-0.768017	-0.044128
C139	C	0.962842	-0.103074	-0.000231
H140	H	0.954312	-0.062449	-0.000217
H141	H	0.988861	-0.115652	-0.044140
H142	H	0.988842	-0.115671	0.043672
C143	C	1.020661	-0.507984	-0.000283
H144	H	1.058947	-0.485913	-0.000283
H145	H	1.022985	-0.531443	-0.044183
H146	H	1.022960	-0.531447	0.043628
H147	H	0.737642	0.146321	0.813277
C148	C	0.954829	-0.649563	-0.000281
H149	H	0.992350	-0.679896	-0.000295
H150	H	0.957814	-0.626684	0.043619
H151	H	0.957825	-0.626677	-0.044192
C152	C	0.625998	-0.464949	-0.000223
H153	H	0.588480	-0.434613	-0.000223
H154	H	0.622991	-0.487840	0.043676
H155	H	0.623019	-0.487822	-0.044135
C156	C	0.723946	0.157404	0.175004
H157	H	0.695516	0.180529	0.209960
H158	H	0.695026	0.136977	0.144108
H159	H	0.748900	0.181063	0.144074
H160	H	0.628050	-0.014822	-0.000150
C161	C	0.488020	-0.031361	-0.000190
H162	H	0.438193	-0.024512	-0.000210
H163	H	0.503495	-0.052547	0.043718
H164	H	0.503548	-0.052539	-0.044093
