data_functionalizedCrystal
_audit_creation_method	'MofGen! by Chris Wilmer'
_symmetry_space_group_name_H-M	'P1'
_symmetry_Int_Tables_number	1
_symmetry_cell_setting	triclinic
loop_
_symmetry_equiv_pos_as_xyz
  x,y,z
_cell_length_a	13.897449
_cell_length_b	12.759394
_cell_length_c	12.759387
_cell_angle_alpha	90.031405
_cell_angle_beta	89.981540
_cell_angle_gamma	89.983883
loop_
_atom_site_label
_atom_site_type_symbol
_atom_site_fract_x
_atom_site_fract_y
_atom_site_fract_z
Zn1	Zn	1.474700	0.418178	-0.594033
Zn2	Zn	1.974700	0.918178	-0.094033
Zn3	Zn	1.474609	0.593894	-0.418351
Zn4	Zn	1.974609	1.093894	0.081649
Zn5	Zn	1.313396	0.418234	-0.418366
Zn6	Zn	1.813396	0.918234	0.081634
Zn7	Zn	1.313379	0.593819	-0.593986
Zn8	Zn	1.813379	1.093819	-0.093986
O9	O	1.394021	0.506031	-0.506184
O10	O	1.894021	1.006031	-0.006184
O11	O	1.609670	0.441495	-0.570742
O12	O	2.109670	0.941495	-0.070742
O13	O	1.453192	0.570647	-0.271332
O14	O	1.953192	1.070647	0.228668
O15	O	1.334838	0.271205	-0.441695
O16	O	1.834838	0.771205	0.058305
O17	O	1.609602	0.570593	-0.441669
O18	O	2.109602	1.070593	0.058331
O19	O	1.453348	0.271164	-0.570757
O20	O	1.953348	0.771164	-0.070757
O21	O	1.334750	0.441590	-0.271343
O22	O	1.834750	0.941590	0.228657
O23	O	1.178412	0.441517	-0.441650
O24	O	1.678412	0.941517	0.058350
O25	O	1.334810	0.570466	-0.741014
O26	O	1.834810	1.070466	-0.241014
O27	O	1.178400	0.570520	-0.570677
O28	O	1.678400	1.070520	-0.070677
O29	O	1.453332	0.441422	-0.741048
O30	O	1.953332	0.941422	-0.241048
O31	O	1.453176	0.740905	-0.441624
O32	O	1.953176	1.240905	0.058376
O33	O	1.334721	0.740850	-0.570662
O34	O	1.834721	1.240850	-0.070662
C35	C	1.393963	0.778999	-0.506159
C36	C	1.893963	1.278999	-0.006159
C37	C	1.394026	0.895775	-0.506183
C38	C	1.894026	1.395775	-0.006183
C39	C	1.143406	0.506017	-0.506160
C40	C	1.643406	1.006017	-0.006160
C41	C	1.036193	0.506037	-0.506175
C42	C	1.536193	1.006037	-0.006175
C43	C	1.394079	0.505929	-0.780218
C44	C	1.894079	1.005929	-0.280218
C45	C	1.394104	0.505886	-0.896995
C46	C	1.894104	1.005886	-0.396995
C47	C	0.839897	0.506040	-0.506203
C48	C	1.339897	1.006040	-0.006203
C49	C	0.949130	0.506035	-0.506184
C50	C	1.449130	1.006035	-0.006184
C51	C	1.645614	0.506046	-0.506209
C52	C	2.145614	1.006046	-0.006209
C53	C	1.752828	0.506052	-0.506220
C54	C	2.252828	1.006052	-0.006220
C55	C	1.394105	0.231998	-0.506233
C56	C	1.894105	0.731998	-0.006233
C57	C	1.394141	0.115221	-0.506253
C58	C	1.894141	0.615221	-0.006253
C59	C	1.517466	0.895779	-0.371916
C60	C	2.017466	1.395779	0.128084
C61	C	1.579211	0.950642	-0.304795
C62	C	2.079211	1.450642	0.195205
C63	C	1.579267	1.060363	-0.304823
C64	C	2.079267	1.560363	0.195177
C65	C	1.517574	1.115225	-0.371983
C66	C	2.017574	1.615225	0.128017
C67	C	1.455829	1.060362	-0.439104
C68	C	1.955829	1.560362	0.060896
C69	C	1.455778	0.950638	-0.439066
C70	C	1.955778	1.450638	0.060934
C71	C	1.332396	1.060358	-0.573375
C72	C	1.832396	1.560358	-0.073375
C73	C	1.332333	0.950637	-0.573342
C74	C	1.832333	1.450637	-0.073342
C75	C	1.270703	1.115220	-0.640534
C76	C	1.770703	1.615220	-0.140534
C77	C	1.208952	1.060357	-0.707651
C78	C	1.708952	1.560357	-0.207651
C79	C	1.208898	0.950629	-0.707619
C80	C	1.708898	1.450629	-0.207619
C81	C	1.270589	0.895774	-0.640464
C82	C	1.770589	1.395774	-0.140464
C83	C	1.517506	0.640200	-1.116408
C84	C	2.017506	1.140200	-0.616408
C85	C	1.579155	0.707415	-1.061531
C86	C	2.079155	1.207415	-0.561531
C87	C	1.579123	0.707455	-0.951809
C88	C	2.079123	1.207455	-0.451809
C89	C	1.517433	0.640275	-0.896962
C90	C	2.017433	1.140275	-0.396962
C91	C	1.455785	0.573061	-0.951839
C92	C	1.955785	1.073061	-0.451839
C93	C	1.455825	0.573026	-1.061564
C94	C	1.955825	1.073026	-0.561564
C95	C	1.332455	0.438671	-0.951872
C96	C	1.832455	0.938671	-0.451872
C97	C	1.332491	0.438624	-1.061594
C98	C	1.832491	0.938624	-0.561594
C99	C	1.270766	0.371492	-0.897025
C100	C	1.770766	0.871492	-0.397025
C101	C	1.209121	0.304270	-0.951902
C102	C	1.709121	0.804270	-0.451902
C103	C	1.209156	0.304232	-1.061630
C104	C	1.709156	0.804232	-0.561630
C105	C	1.270842	0.371410	-1.116471
C106	C	1.770842	0.871410	-0.616471
C107	C	1.394018	0.506057	-0.233217
C108	C	1.894018	1.006057	0.266783
C109	C	1.394180	0.505804	-0.116441
C110	C	1.894180	1.005804	0.383559
H111	H	1.517414	0.806438	-0.371872
H112	H	2.017414	1.306438	0.128128
H113	H	1.270544	0.806433	-0.640424
H114	H	1.770544	1.306433	-0.140424
F115	F	1.143308	1.118750	-0.779125
F116	F	1.643308	1.618750	-0.279125
F117	F	1.517557	0.640150	-1.233184
F118	F	2.017557	1.140150	-0.733184
F119	F	1.143537	0.232694	-1.120026
F120	F	1.643537	0.732694	-0.620026
F121	F	1.644987	1.118754	-0.233391
F122	F	2.144987	1.618754	0.266609
H123	H	1.629378	0.762115	-1.106200
H124	H	2.129378	1.262115	-0.606200
H125	H	1.517405	0.640323	-0.807621
H126	H	2.017405	1.140323	-0.307621
F127	F	1.270889	0.371370	-1.233246
F128	F	1.770889	0.871370	-0.733246
H129	H	1.270741	0.371533	-0.807683
H130	H	1.770741	0.871533	-0.307683
H131	H	1.517634	1.204566	-0.372009
H132	H	2.017634	1.704566	0.127991
H133	H	1.629443	0.905964	-0.250116
H134	H	2.129443	1.405964	0.249884
H135	H	1.270758	1.204561	-0.640557
H136	H	1.770758	1.704561	-0.140557
H137	H	1.158621	0.905965	-0.762281
H138	H	1.658621	1.405965	-0.262281
F139	F	1.644730	0.778998	-0.893404
F140	F	2.144730	1.278998	-0.393404
H141	H	1.158894	0.249582	-0.907237
H142	H	1.658894	0.749582	-0.407237
