data_functionalizedCrystal
_audit_creation_method	'MofGen! by Chris Wilmer'
_symmetry_space_group_name_H-M	'P1'
_symmetry_Int_Tables_number	1
_symmetry_cell_setting	triclinic
loop_
_symmetry_equiv_pos_as_xyz
  x,y,z
_cell_length_a	16.992694
_cell_length_b	10.723023
_cell_length_c	15.455301
_cell_angle_alpha	92.976057
_cell_angle_beta	92.821270
_cell_angle_gamma	87.567885
loop_
_atom_site_label
_atom_site_type_symbol
_atom_site_fract_x
_atom_site_fract_y
_atom_site_fract_z
O1	O	1.044902	0.269907	0.072019
O2	O	0.816602	0.267004	0.072045
O3	O	0.936018	0.087333	0.072028
O4	O	0.925486	0.449579	0.072036
O5	O	0.929824	0.076960	-0.072234
O6	O	0.810408	0.256631	-0.072217
O7	O	1.038708	0.259534	-0.072243
Cu8	Cu	0.923992	0.257136	-0.085402
Cu9	Cu	0.931317	0.269403	0.085204
O10	O	0.919292	0.439206	-0.072226
C11	C	0.784272	0.258082	-0.000083
C12	C	0.697169	0.246935	-0.000073
C13	C	0.932155	0.035581	-0.000102
C14	C	0.929862	-0.103171	-0.000099
C15	C	0.647507	0.354495	-0.000071
C16	C	0.565663	0.344013	-0.000084
C17	C	0.533484	0.225969	-0.000091
C18	C	0.583152	0.118400	-0.000096
C19	C	0.664994	0.128884	-0.000090
C20	C	0.289651	0.182519	-0.000116
C21	C	0.207803	0.172044	-0.000119
C22	C	0.190320	0.397657	-0.000108
C23	C	0.272164	0.408131	-0.000097
C24	C	0.321825	0.300562	-0.000106
N25	N	0.449827	0.215251	-0.000101
N26	N	0.405480	0.311280	-0.000103
C27	C	0.932049	-0.159651	0.074634
C28	C	0.929679	-0.303058	0.074639
C29	C	1.071037	0.268457	-0.000113
C30	C	1.158141	0.279604	-0.000117
C31	C	0.923155	0.490958	-0.000094
C32	C	0.925448	0.629710	-0.000091
N33	N	0.918846	0.248507	-0.205398
C34	C	0.964886	0.325758	-0.250792
C35	C	0.961004	0.319226	-0.341600
C36	C	0.911079	0.235449	-0.387012
C37	C	0.865038	0.158190	-0.341611
C38	C	0.868924	0.164717	-0.250805
C39	C	0.894315	0.207290	-0.658593
C40	C	0.890430	0.200772	-0.749406
C41	C	0.986398	0.361806	-0.749388
C42	C	0.990277	0.368331	-0.658580
C43	C	0.944239	0.291068	-0.613188
N44	N	0.907108	0.228773	-0.479832
N45	N	0.948214	0.297738	-0.520369
N46	N	0.936470	0.278022	0.205200
H47	H	0.673701	0.450619	-0.000064
H48	H	0.931551	-0.351651	0.138621
Br49	Br	0.922343	-0.289319	-0.106743
H50	H	0.525231	0.431600	-0.000081
H51	H	0.298359	0.504255	-0.000081
H52	H	0.926231	-0.160984	-0.064077
Br53	Br	1.032642	0.439465	-0.189170
H54	H	0.181606	0.075914	-0.000124
Br55	Br	0.122920	0.543635	-0.000097
Br56	Br	0.357038	0.036531	-0.000130
H57	H	0.998496	0.382129	-0.378556
Br58	Br	1.057996	0.482091	-0.596956
Br59	Br	0.797284	0.044486	-0.403241
Br60	Br	0.806451	0.059856	-0.189198
H61	H	1.023880	0.424709	-0.786357
H62	H	0.556944	0.022285	-0.000115
Br63	Br	0.822669	0.087068	-0.811037
H64	H	0.856828	0.144376	-0.621646
H65	H	0.935671	-0.101837	0.138613
Br66	Br	0.732393	-0.017098	-0.000100
