data_functionalizedCrystal
_audit_creation_method	'MofGen! by Chris Wilmer'
_symmetry_space_group_name_H-M	'P1'
_symmetry_Int_Tables_number	1
_symmetry_cell_setting	triclinic
loop_
_symmetry_equiv_pos_as_xyz
  x,y,z
_cell_length_a	12.645330
_cell_length_b	19.077367
_cell_length_c	19.076919
_cell_angle_alpha	85.521998
_cell_angle_beta	92.276250
_cell_angle_gamma	87.683880
loop_
_atom_site_label
_atom_site_type_symbol
_atom_site_fract_x
_atom_site_fract_y
_atom_site_fract_z
Zn1	Zn	-0.379358	-1.061704	-0.355442
Zn2	Zn	-0.549222	-1.066372	-0.237570
Zn3	Zn	-0.379384	-0.948559	-0.242293
Zn4	Zn	-0.563995	-0.943802	-0.360136
O5	O	-0.467990	-1.005109	-0.298860
O6	O	-0.395698	-1.160971	-0.335865
O7	O	-0.520521	-1.054688	-0.139549
O8	O	-0.231032	-0.963606	-0.257314
O9	O	-0.520496	-1.164400	-0.249265
O10	O	-0.231013	-1.046733	-0.340444
O11	O	-0.395742	-0.968132	-0.143019
O12	O	-0.410067	-0.849280	-0.261866
O13	O	-0.545674	-0.955497	-0.458160
O14	O	-0.545699	-0.845785	-0.348445
O15	O	-0.410022	-1.042120	-0.454712
O16	O	-0.699530	-1.050075	-0.253817
O17	O	-0.710384	-0.960023	-0.343865
C18	C	-0.479490	-0.821955	-0.306178
C19	C	-0.484436	-0.743599	-0.309325
C20	C	-0.416045	-0.708584	-0.265801
C21	C	-0.420702	-0.634961	-0.268758
C22	C	-0.493745	-0.596355	-0.315243
C23	C	-0.562143	-0.631375	-0.358769
C24	C	-0.557490	-0.704997	-0.355808
C25	C	-0.515247	-0.375977	-0.328921
C26	C	-0.519892	-0.302350	-0.331881
C27	C	-0.378452	-0.305941	-0.241868
C28	C	-0.373802	-0.379564	-0.238914
C29	C	-0.442203	-0.414578	-0.282438
N30	N	-0.498504	-0.521100	-0.318268
N31	N	-0.437448	-0.489831	-0.279408
C32	C	-0.743422	-1.005058	-0.298852
C33	C	-0.861251	-1.005100	-0.298870
C34	C	-1.035683	-0.948666	-0.355678
C35	C	-0.913130	-0.948396	-0.355514
C36	C	-0.902428	-0.987979	-0.225382
C37	C	-1.025068	-0.987635	-0.225727
C38	C	-1.024843	-1.079011	-0.314933
C39	C	-0.902368	-1.078488	-0.316576
C40	C	-0.191482	-1.005179	-0.298883
C41	C	-0.073650	-1.005209	-0.298892
C42	C	-0.479493	-0.997757	-0.482729
C43	C	-0.484395	-0.994624	-0.561084
C44	C	-0.456439	-0.188979	-0.291507
C45	C	-0.451501	-0.267335	-0.288357
C46	C	-0.416075	-1.038249	-0.596100
C47	C	-0.420678	-1.035297	-0.669723
C48	C	-0.493606	-0.988722	-0.708327
C49	C	-0.561930	-0.945092	-0.673305
C50	C	-0.557321	-0.948041	-0.599684
C51	C	-0.514958	-0.975062	-0.928703
C52	C	-0.519563	-0.972118	-1.002329
C53	C	-0.378309	-1.062322	-0.998741
C54	C	-0.373711	-1.065270	-0.925118
C55	C	-0.442031	-1.021637	-0.890103
N56	N	-0.498315	-0.985705	-0.783581
N57	N	-0.437316	-1.024652	-0.814851
C58	C	-0.456452	-1.012473	-0.115704
C59	C	-0.451243	-1.015743	-0.037345
H60	H	-0.613181	-0.733505	-0.391250
C61	C	-0.335848	-1.089479	-0.553642
H62	H	-0.295811	-1.115032	-0.585044
H63	H	-0.372666	-1.121336	-0.523691
H64	H	-0.289551	-1.063667	-0.526005
C65	C	-0.642487	-0.588910	-0.409903
H66	H	-0.635456	-0.540048	-0.405439
H67	H	-0.712279	-0.601380	-0.399024
H68	H	-0.629275	-0.599097	-0.456801
C69	C	-1.057174	-1.135873	-0.259017
H70	H	-1.027439	-1.180349	-0.268986
H71	H	-1.132186	-1.137520	-0.259747
H72	H	-1.031825	-1.124830	-0.213818
C73	C	-0.876005	-0.962394	-0.429250
H74	H	-0.800884	-0.962249	-0.429247
H75	H	-0.905374	-0.926666	-0.462694
H76	H	-0.898842	-1.006912	-0.441294
H77	H	-1.069255	-0.894231	-0.345434
C78	C	-0.642152	-0.893860	-0.715765
H79	H	-0.682175	-0.868296	-0.684364
H80	H	-0.688447	-0.919663	-0.743404
H81	H	-0.605319	-0.862002	-0.745713
C82	C	-0.590512	-0.414487	-0.376774
H83	H	-0.577304	-0.463864	-0.368343
H84	H	-0.578869	-0.400553	-0.424648
H85	H	-0.661817	-0.402813	-0.366835
C86	C	-0.335697	-0.751048	-0.214669
H87	H	-0.342712	-0.799910	-0.219142
H88	H	-0.348898	-0.740864	-0.167773
H89	H	-0.265904	-0.738574	-0.225556
H90	H	-0.365046	-1.070823	-0.698230
C91	C	-0.599785	-0.920881	-1.044793
H92	H	-0.639809	-0.895313	-1.013396
H93	H	-0.646082	-0.946685	-1.072431
H94	H	-0.562948	-0.889028	-1.074742
C95	C	-0.345449	-0.596443	-0.220900
H96	H	-0.358680	-0.547068	-0.229319
H97	H	-0.274143	-0.608108	-0.230829
H98	H	-0.357107	-0.610384	-0.173026
H99	H	-0.570603	-0.939544	-0.900202
H100	H	-1.067794	-0.958909	-0.410448
C101	C	-0.877252	-0.874406	-0.341466
H102	H	-0.937606	-0.844398	-0.335831
H103	H	-0.838982	-0.855940	-0.380075
H104	H	-0.833045	-0.877231	-0.299809
H105	H	-1.057890	-1.095213	-0.367452
C106	C	-0.632499	-0.900071	-0.561165
H107	H	-0.676606	-0.871919	-0.594699
H108	H	-0.592098	-0.870512	-0.533667
H109	H	-0.675194	-0.928194	-0.531374
H110	H	-1.056172	-0.933774	-0.211792
H111	H	-0.314330	-0.410993	-0.201056
C112	C	-0.293485	-1.116496	-0.882656
H113	H	-0.300531	-1.112008	-0.833794
H114	H	-0.223660	-1.105714	-0.895139
H115	H	-0.306786	-1.163377	-0.892829
H116	H	-0.579371	-0.270918	-0.369739
C117	C	-0.303221	-0.267428	-0.193992
H118	H	-0.259049	-0.300965	-0.165886
H119	H	-0.343590	-0.239925	-0.164387
H120	H	-0.260593	-0.237640	-0.222168
C121	C	-1.058344	-1.041067	-0.166838
H122	H	-1.133452	-1.041222	-0.166654
H123	H	-1.031259	-1.028249	-0.122692
H124	H	-1.030859	-1.086699	-0.174848
C125	C	-0.856219	-1.042021	-0.166836
H126	H	-0.811291	-1.075584	-0.186738
H127	H	-0.912304	-1.065306	-0.144464
H128	H	-0.816531	-1.018512	-0.133193
C129	C	-0.864282	-0.915997	-0.206134
H130	H	-0.823274	-0.896286	-0.242781
H131	H	-0.822217	-0.921913	-0.163542
H132	H	-0.923833	-0.885378	-0.200220
H133	H	-0.875709	-1.091454	-0.370644
H134	H	-0.866712	-1.122594	-0.277990
H135	H	-0.322686	-1.097844	-1.027258
