data_functionalizedCrystal
_audit_creation_method	'MofGen! by Chris Wilmer'
_symmetry_space_group_name_H-M	'P1'
_symmetry_Int_Tables_number	1
_symmetry_cell_setting	triclinic
loop_
_symmetry_equiv_pos_as_xyz
  x,y,z
_cell_length_a	11.026607
_cell_length_b	15.995292
_cell_length_c	10.065875
_cell_angle_alpha	98.790453
_cell_angle_beta	79.302338
_cell_angle_gamma	96.027316
loop_
_atom_site_label
_atom_site_type_symbol
_atom_site_fract_x
_atom_site_fract_y
_atom_site_fract_z
O1	O	1.627812	0.340985	-0.113471
O2	O	1.274519	0.301061	-0.113476
O3	O	1.460860	0.200593	-0.113475
O4	O	1.441471	0.441453	-0.113472
O5	O	1.425327	0.219849	0.113513
O6	O	1.238986	0.320317	0.113513
O7	O	1.592279	0.360241	0.113517
Zn8	Zn	1.409991	0.343336	0.149555
Zn9	Zn	1.456807	0.317966	-0.149513
O10	O	1.405938	0.460709	0.113517
C11	C	1.211544	0.303323	0.000018
C12	C	1.076837	0.281367	0.000016
C13	C	1.442305	0.178906	0.000015
C14	C	1.439941	0.085596	0.000005
C15	C	1.003013	0.341992	0.000016
C16	C	0.863786	0.319300	0.000014
C17	C	1.431242	-0.253452	0.000018
C18	C	1.565658	-0.209824	0.000526
C19	C	1.568295	-0.112807	0.000010
C20	C	1.435558	-0.085246	0.000012
C21	C	1.388607	-0.135479	-0.129606
C22	C	1.387004	-0.232522	-0.129710
C23	C	1.343850	-0.210895	0.128419
C24	C	1.348567	-0.113507	0.130127
C25	C	1.437991	0.009816	0.000005
C26	C	1.428806	-0.348516	0.000016
C27	C	1.655255	0.357979	0.000021
C28	C	1.789963	0.379934	0.000014
C29	C	1.424493	0.482395	0.000023
C30	C	1.426859	0.575705	0.000025
N31	N	1.378049	0.360652	0.353660
N32	N	1.488758	0.300645	-0.353618
C33	C	1.445686	0.323984	0.421439
C34	C	1.421112	0.337318	0.578606
H35	H	0.823926	0.250590	-0.000022
O36	O	1.589560	0.245973	0.569139
H37	H	1.679973	0.273060	0.596468
O38	O	1.320320	0.391994	0.655862
H39	H	1.340296	0.457281	0.628502
O40	O	1.024037	0.190360	0.000028
H41	H	1.069699	0.150903	-0.092481
H42	H	1.606413	-0.077962	0.092923
O43	O	1.379292	-0.228860	0.258562
H44	H	1.371414	-0.298438	0.260428
O45	O	1.615054	-0.226084	0.123675
H46	H	1.544339	-0.265443	0.185831
H47	H	1.631681	-0.238913	-0.091906
H48	H	1.042882	0.410695	0.000025
O49	O	1.277247	0.415319	0.430901
H50	H	1.273772	0.417220	0.542225
H51	H	0.829825	0.448643	0.000024
O52	O	1.657744	-0.088300	-0.123290
H53	H	1.699275	-0.145779	-0.182788
H54	H	1.289309	-0.262435	-0.135581
O55	O	1.469319	-0.269574	-0.257685
H56	H	1.509837	-0.218155	-0.318953
H57	H	1.250457	-0.094477	0.137957
O58	O	1.260228	-0.113311	-0.136014
H59	H	1.228452	-0.066139	-0.046671
H60	H	1.450402	-0.116563	-0.226069
O61	O	1.393517	-0.068360	0.257157
H62	H	1.477460	-0.025965	0.227762
O63	O	1.212533	-0.249099	0.129605
H64	H	1.209455	-0.298157	0.039241
O65	O	1.546458	0.269292	0.344198
H66	H	1.549932	0.267390	0.232874
