data_functionalizedCrystal
_audit_creation_method	'MofGen! by Chris Wilmer'
_symmetry_space_group_name_H-M	'P1'
_symmetry_Int_Tables_number	1
_symmetry_cell_setting	triclinic
loop_
_symmetry_equiv_pos_as_xyz
  x,y,z
_cell_length_a	27.732043
_cell_length_b	11.026607
_cell_length_c	9.482900
_cell_angle_alpha	78.599815
_cell_angle_beta	80.797162
_cell_angle_gamma	84.386594
loop_
_atom_site_label
_atom_site_type_symbol
_atom_site_fract_x
_atom_site_fract_y
_atom_site_fract_z
O1	O	0.659756	-0.125065	-0.120604
O2	O	0.520938	-0.146979	-0.120667
O3	O	0.578842	0.040415	-0.120636
O4	O	0.601852	-0.312459	-0.120636
O5	O	0.567093	0.002199	0.121150
O6	O	0.509190	-0.185195	0.121119
O7	O	0.648008	-0.163280	0.121182
Cu8	Cu	0.577526	-0.177727	0.143227
Cu9	Cu	0.591420	-0.132533	-0.142713
O10	O	0.590104	-0.350674	0.121150
C11	C	0.497016	-0.165627	0.000218
C12	C	0.443238	-0.164239	0.000193
C13	C	0.671930	-0.144633	0.000294
C14	C	0.725709	-0.146018	0.000308
C15	C	0.568723	0.066439	0.000254
C16	C	0.556069	0.200917	0.000243
C17	C	1.065599	-0.133628	-0.131560
C18	C	1.267722	-0.138769	-0.131586
O19	O	1.299301	-0.121665	-0.243675
N20	N	1.286594	-0.160248	0.000211
C21	C	1.254930	-0.180435	0.132023
O22	O	1.275618	-0.198809	0.244123
C23	C	1.052807	-0.175285	0.132047
C24	C	1.033939	-0.153817	0.000242
C25	C	1.046731	-0.112161	-0.263354
C26	C	0.996203	-0.110882	-0.263347
C27	C	0.964543	-0.131072	-0.131545
C28	C	0.983412	-0.152539	0.000249
C29	C	1.021144	-0.195463	0.263857
C30	C	0.970611	-0.194171	0.263852
C31	C	0.951743	-0.172703	0.132047
C32	C	0.901225	-0.171450	0.132059
N33	N	0.882353	-0.149971	0.000263
C34	C	0.914013	-0.129782	-0.131539
C35	C	1.361048	-0.183139	0.132001
C36	C	1.411578	-0.184429	0.131995
C37	C	1.424367	-0.142760	-0.131614
C38	C	1.373836	-0.141480	-0.131607
C39	C	1.342177	-0.161660	0.000204
C40	C	0.807901	-0.127100	-0.131513
C41	C	0.757368	-0.125829	-0.131494
C42	C	0.744583	-0.167491	0.132114
C43	C	0.795112	-0.168769	0.132096
C44	C	0.826769	-0.148567	0.000270
O45	O	0.869618	-0.188530	0.244090
O46	O	0.893314	-0.111383	-0.243623
C47	C	1.116127	-0.134906	-0.131568
C48	C	1.134995	-0.156374	0.000226
C49	C	1.103335	-0.176563	0.132028
C50	C	1.185525	-0.157663	0.000221
C51	C	1.217185	-0.137474	-0.131581
C52	C	1.198314	-0.115995	-0.263378
C53	C	1.147786	-0.114717	-0.263370
C54	C	1.122206	-0.198042	0.263825
C55	C	1.172735	-0.199320	0.263806
C56	C	1.204394	-0.179130	0.132004
C57	C	0.600223	-0.376698	0.000258
C58	C	0.612878	-0.511174	0.000259
N59	N	0.567757	-0.209514	0.344342
C60	C	0.591010	0.275377	0.000256
C61	C	0.577932	0.414367	0.000245
N62	N	0.601191	-0.100736	-0.343828
C63	C	0.588535	-0.141902	0.416553
C64	C	0.580411	-0.168358	0.583966
H65	H	0.742009	-0.108350	-0.238830
C66	C	0.666375	0.435951	0.000285
N67	N	0.706668	0.396123	0.000307
H68	H	1.072503	-0.095715	-0.370689
H69	H	0.612335	-0.064426	0.354437
H70	H	1.096433	-0.214477	0.371156
H71	H	0.516473	0.240068	0.000215
H72	H	0.630605	0.236225	0.000283
H73	H	1.188092	-0.216813	0.371146
C74	C	0.535599	-0.314172	0.428254
N75	N	0.511377	-0.393003	0.491455
H76	H	0.556605	-0.245830	0.646077
H77	H	0.833671	-0.110652	-0.238858
H78	H	0.538333	0.453513	0.000218
C79	C	0.709748	-0.189694	0.277090
N80	N	0.683509	-0.206407	0.386286
C81	C	0.975455	-0.087240	-0.408344
N82	N	0.959830	-0.069421	-0.517564
C83	C	0.633352	0.003926	0.572269
N84	N	0.657577	0.082754	0.509071
H85	H	0.944836	-0.210615	0.371191
H86	H	0.810475	-0.186274	0.239422
H87	H	1.450153	-0.126325	-0.238932
C88	C	1.353086	-0.117850	-0.276601
N89	N	1.337460	-0.100047	-0.385817
H90	H	1.426936	-0.201930	0.239324
H91	H	1.036497	-0.212941	0.371187
C92	C	1.127038	-0.091086	-0.408367
N93	N	1.111414	-0.073280	-0.517587
C94	C	1.326229	-0.205367	0.277013
N95	N	1.300006	-0.222122	0.386238
C96	C	1.233149	-0.093783	-0.408360
N97	N	1.259388	-0.077044	-0.517555
