data_functionalizedCrystal
_audit_creation_method	'MofGen! by Chris Wilmer'
_symmetry_space_group_name_H-M	'P1'
_symmetry_Int_Tables_number	1
_symmetry_cell_setting	triclinic
loop_
_symmetry_equiv_pos_as_xyz
  x,y,z
_cell_length_a	12.759401
_cell_length_b	16.625539
_cell_length_c	12.759400
_cell_angle_alpha	90.025082
_cell_angle_beta	89.983831
_cell_angle_gamma	89.981219
loop_
_atom_site_label
_atom_site_type_symbol
_atom_site_fract_x
_atom_site_fract_y
_atom_site_fract_z
Zn1	Zn	1.606244	-0.455889	0.418222
Zn2	Zn	1.606142	-0.321064	0.593923
Zn3	Zn	1.430550	-0.321074	0.418263
Zn4	Zn	1.430535	-0.455858	0.593864
O5	O	1.518368	-0.388471	0.506068
O6	O	1.753252	-0.438013	0.441536
O7	O	1.582813	-0.208233	0.570663
O8	O	1.453905	-0.338974	0.271237
O9	O	1.753177	-0.338958	0.570623
O10	O	1.582987	-0.438023	0.271206
O11	O	1.453806	-0.208240	0.441607
O12	O	1.283527	-0.338944	0.441550
O13	O	1.453880	-0.568694	0.570523
O14	O	1.283516	-0.437970	0.570563
O15	O	1.582973	-0.568717	0.441479
O16	O	1.582799	-0.338927	0.740936
O17	O	1.453781	-0.437960	0.740893
C18	C	1.245401	-0.388455	0.506055
C19	C	1.128624	-0.388467	0.506075
C20	C	1.518436	-0.598780	0.505990
C21	C	1.518465	-0.688401	0.505956
C22	C	1.073784	-0.439949	0.573354
C23	C	0.964060	-0.439965	0.573358
C24	C	0.964025	-0.337011	0.438801
C25	C	1.073748	-0.337000	0.438792
C26	C	0.814159	-0.535023	0.611067
C27	C	0.759315	-0.586497	0.678363
C28	C	0.794913	-0.598737	0.780895
C29	C	0.885352	-0.559491	0.816152
C30	C	0.940190	-0.508011	0.748862
C31	C	0.904594	-0.495786	0.646315
C32	C	1.223650	-0.241941	0.401094
C33	C	1.278490	-0.190456	0.333809
C34	C	1.242895	-0.178207	0.231275
C35	C	1.152452	-0.217439	0.196021
C36	C	1.097612	-0.268924	0.263307
C37	C	1.133215	-0.281174	0.365840
C38	C	1.518514	-1.016577	0.505839
C39	C	1.518497	-0.925269	0.505875
C40	C	1.518490	-0.852492	0.505898
C41	C	1.518473	-0.761178	0.505933
C42	C	1.792401	-0.388488	0.506082
C43	C	1.909178	-0.388495	0.506087
C44	C	1.518306	-0.388457	0.779035
C45	C	1.518375	-0.388478	0.895812
C46	C	1.518360	-0.178980	0.506070
C47	C	1.518535	-0.089360	0.505807
C48	C	1.518459	-0.388503	0.232035
C49	C	1.518498	-0.388517	0.115258
C50	C	1.585559	-0.440096	0.950568
C51	C	1.585618	-0.440118	1.060292
C52	C	1.451306	-0.336896	1.060494
C53	C	1.451243	-0.336879	0.950772
C54	C	1.623175	-0.535259	1.210130
C55	C	1.690375	-0.586870	1.264890
C56	C	1.792860	-0.599313	1.229181
C57	C	1.828166	-0.560132	1.138713
C58	C	1.760971	-0.508515	1.083959
C59	C	1.658471	-0.496088	1.119667
C60	C	1.413697	-0.241737	0.800932
C61	C	1.346507	-0.190115	0.746175
C62	C	1.244020	-0.177664	0.781883
C63	C	1.208719	-0.216830	0.872354
C64	C	1.275909	-0.268452	0.927110
C65	C	1.378394	-0.280904	0.891395
H66	H	1.118461	-0.481859	0.628137
F67	F	1.379862	-0.281985	1.118996
H68	H	1.013823	-0.476058	0.777568
F69	F	1.514092	-0.522032	1.248132
F70	F	1.522778	-0.254984	0.762923
H71	H	1.247157	-0.300343	1.000777
F72	F	1.937251	-0.573369	1.100723
H73	H	0.785174	-0.525070	0.527574
F74	F	0.905613	-0.282238	0.367199
H75	H	1.287551	-0.136277	0.176495
H76	H	1.023974	-0.300874	0.234591
H77	H	1.847575	-0.641336	1.273774
H78	H	1.252647	-0.251916	0.484583
F79	F	1.114560	-0.204398	0.086895
H80	H	0.914321	-0.569455	0.899649
H81	H	1.352133	-0.158511	0.362521
H82	H	1.640221	-0.482112	0.905822
H83	H	1.661620	-0.618771	1.338549
F84	F	1.099643	-0.203575	0.910365
F85	F	1.172517	-0.122713	0.723609
F86	F	1.798540	-0.466817	0.987684
F87	F	1.384086	-0.148423	0.649894
H88	H	0.685680	-0.618452	0.649646
F89	F	0.736544	-0.653524	0.852512
