data_functionalizedCrystal
_audit_creation_method	'MofGen! by Chris Wilmer'
_symmetry_space_group_name_H-M	'P1'
_symmetry_Int_Tables_number	1
_symmetry_cell_setting	triclinic
loop_
_symmetry_equiv_pos_as_xyz
  x,y,z
_cell_length_a	17.640112
_cell_length_b	18.050590
_cell_length_c	17.640968
_cell_angle_alpha	101.233828
_cell_angle_beta	87.860920
_cell_angle_gamma	101.243844
loop_
_atom_site_label
_atom_site_type_symbol
_atom_site_fract_x
_atom_site_fract_y
_atom_site_fract_z
Zn1	Zn	1.247780	-0.021338	0.195079
Zn2	Zn	1.222020	-0.174557	0.068090
Zn3	Zn	1.095115	-0.069647	0.093723
Zn4	Zn	1.120761	-0.164781	0.220672
O5	O	1.171419	-0.107581	0.144391
O6	O	1.350631	-0.025537	0.156795
O7	O	1.183673	-0.184949	-0.034784
O8	O	1.115414	0.040698	0.107185
O9	O	1.331706	-0.138106	0.063497
O10	O	1.227576	0.076190	0.181651
O11	O	1.090436	-0.107872	-0.015951
O12	O	0.992249	-0.098393	0.132001
O13	O	1.159123	-0.121445	0.323551
O14	O	1.011090	-0.168288	0.225271
O15	O	1.252443	-0.016058	0.304748
O16	O	1.208540	-0.277197	0.088314
O17	O	1.134145	-0.270015	0.200415
C18	C	0.974116	-0.137522	0.184195
C19	C	0.889712	-0.150345	0.201242
C20	C	1.171354	-0.300549	0.144373
C21	C	1.171401	-0.383085	0.144376
C22	C	0.563040	-0.010153	0.014898
C23	C	0.483732	-0.022215	0.030926
C24	C	0.503372	-0.095166	0.127879
C25	C	0.582684	-0.083107	0.111862
C26	C	0.612511	-0.040601	0.055370
C27	C	0.632155	-0.113555	0.152334
C28	C	0.711459	-0.101500	0.136315
C29	C	0.741292	-0.058998	0.079824
C30	C	0.691815	-0.028547	0.039351
C31	C	0.602326	-0.156065	0.208822
C32	C	0.651797	-0.186513	0.249295
C33	C	0.731103	-0.174454	0.233280
C34	C	0.760936	-0.131952	0.176788
C35	C	0.780581	-0.204905	0.273753
C36	C	0.859885	-0.192851	0.257734
C37	C	0.840241	-0.119897	0.160769
C38	C	1.211977	-0.586382	0.083465
C39	C	1.244542	-0.617065	0.149036
C40	C	1.171451	-0.534202	0.144398
C41	C	1.138970	-0.650582	0.078842
C42	C	1.171498	-0.680175	0.144412
C43	C	1.204058	-0.563783	0.209998
C44	C	1.098444	-0.597312	0.139764
C45	C	1.130992	-0.627965	0.205388
C46	C	1.171425	-0.450110	0.144388
C47	C	1.171526	-0.764263	0.144430
C48	C	1.369493	-0.077523	0.104432
C49	C	1.453900	-0.064714	0.087404
C50	C	1.211517	-0.062272	0.342476
C51	C	1.228605	-0.042964	0.426888
C52	C	1.171508	0.086148	0.144422
C53	C	1.171546	0.168703	0.144435
C54	C	1.131520	-0.152653	-0.052932
C55	C	1.114580	-0.171729	-0.137373
C56	C	1.041898	-0.253812	0.753452
C57	C	1.057970	-0.235658	0.832766
C58	C	1.155137	-0.125928	0.813178
C59	C	1.139070	-0.144071	0.733860
C60	C	1.082450	-0.208015	0.704004
C61	C	1.179622	-0.098273	0.684412
C62	C	1.163559	-0.116417	0.605101
C63	C	1.106944	-0.180359	0.575238
C64	C	1.066387	-0.226159	0.624693
C65	C	1.236245	-0.034332	0.714270
C66	C	1.276797	0.011465	0.664822
C67	C	1.260731	-0.006676	0.585510
C68	C	1.204116	-0.070618	0.555647
C69	C	1.301287	0.039124	0.536056
C70	C	1.285224	0.020980	0.456744
C71	C	1.188053	-0.088762	0.476336
H72	H	0.864529	-0.085271	0.114779
H73	H	0.995775	-0.305867	0.729145
Cl74	Cl	1.086753	-0.203174	0.475531
Cl75	Cl	0.502625	-0.171231	0.228951
Cl76	Cl	1.116866	-0.169145	0.438797
Cl77	Cl	0.600544	0.043290	-0.056117
H78	H	0.900166	-0.217643	0.290691
H79	H	1.024944	-0.272957	0.873026
H80	H	0.479075	-0.129777	0.173873
Cl81	Cl	1.078125	-0.656135	0.285028
H82	H	0.756282	-0.239520	0.319743
H83	H	0.716104	0.006080	-0.006639
Cl84	Cl	0.995201	-0.306541	0.587154
H85	H	1.246273	-0.567974	0.031977
Cl86	Cl	1.226315	-0.045546	0.850719
Cl87	Cl	0.840990	-0.043847	0.059680
H88	H	1.111479	-0.688087	0.023396
H89	H	1.306304	-0.626228	0.152968
Cl90	Cl	1.003105	-0.583145	0.133659
Cl91	Cl	1.256441	-0.011525	0.813976
H92	H	1.322899	0.063527	0.689142
Cl93	Cl	1.372471	0.119500	0.573598
Cl94	Cl	1.336207	0.078552	0.394577
H95	H	1.231501	-0.526367	0.265506
H96	H	0.443455	0.002589	-0.002031
H97	H	0.627500	-0.221124	0.295288
