data_functionalizedCrystal
_audit_creation_method	'MofGen! by Chris Wilmer'
_symmetry_space_group_name_H-M	'P1'
_symmetry_Int_Tables_number	1
_symmetry_cell_setting	triclinic
loop_
_symmetry_equiv_pos_as_xyz
  x,y,z
_cell_length_a	11.026660
_cell_length_b	14.044220
_cell_length_c	10.065875
_cell_angle_alpha	99.592716
_cell_angle_beta	79.302288
_cell_angle_gamma	100.886856
loop_
_atom_site_label
_atom_site_type_symbol
_atom_site_fract_x
_atom_site_fract_y
_atom_site_fract_z
O1	O	1.670483	0.393270	-0.113519
O2	O	1.312195	0.347225	-0.113518
O3	O	1.485959	0.231347	-0.113505
O4	O	1.496719	0.509148	-0.113532
O5	O	1.452837	0.253556	0.113481
O6	O	1.279072	0.369435	0.113469
O7	O	1.637361	0.415480	0.113467
Zn8	Zn	1.452958	0.395984	0.149507
Zn9	Zn	1.496598	0.366721	-0.149558
O10	O	1.463597	0.531358	0.113454
C11	C	1.249503	0.349835	-0.000024
C12	C	1.112049	0.324512	-0.000023
C13	C	0.903747	0.368270	-0.000032
C14	C	1.045813	0.394444	-0.000031
C15	C	1.464690	0.206334	-0.000011
C16	C	1.450646	0.098712	-0.000010
C17	C	1.424974	-0.098332	-0.000029
C18	C	1.524578	-0.138971	-0.000034
C19	C	1.510294	-0.248613	-0.000045
C20	C	1.439256	0.011320	-0.000018
C21	C	1.700053	0.412869	-0.000030
C22	C	1.837509	0.438191	-0.000040
C23	C	1.484866	0.556371	-0.000043
C24	C	1.498912	0.663992	-0.000053
N25	N	1.423184	0.415955	0.353610
N26	N	1.526381	0.346743	-0.353661
C27	C	1.486230	0.373662	0.421394
C28	C	1.463325	0.389042	0.578559
H29	H	0.855277	0.289031	-0.000004
N30	N	0.901706	0.543154	-0.000057
H31	H	0.889292	0.568173	-0.084207
H32	H	0.864706	0.584572	0.084137
N33	N	1.297816	-0.161315	-0.000016
H34	H	1.239102	-0.138922	0.084136
H35	H	1.263746	-0.155361	-0.084208
H36	H	1.392382	0.436636	0.636875
H37	H	1.620594	-0.091428	-0.000126
H38	H	1.557159	0.326063	0.363074
H39	H	1.597314	0.299141	0.588023
N40	N	1.329212	0.478994	0.430847
H41	H	1.326168	0.481043	0.532173
H42	H	1.354760	0.547512	0.405935
H43	H	1.094273	0.473691	-0.000030
H44	H	1.063602	0.245257	-0.000106
