data_functionalizedCrystal
_audit_creation_method	'MofGen! by Chris Wilmer'
_symmetry_space_group_name_H-M	'P1'
_symmetry_Int_Tables_number	1
_symmetry_cell_setting	triclinic
loop_
_symmetry_equiv_pos_as_xyz
  x,y,z
_cell_length_a	13.897448
_cell_length_b	13.032831
_cell_length_c	13.032268
_cell_angle_alpha	89.113023
_cell_angle_beta	97.148041
_cell_angle_gamma	97.177601
loop_
_atom_site_label
_atom_site_type_symbol
_atom_site_fract_x
_atom_site_fract_y
_atom_site_fract_z
Zn1	Zn	-0.651422	-1.498483	-0.780818
Zn2	Zn	-0.795137	-1.520226	-0.608835
Zn3	Zn	-0.611127	-1.348341	-0.587060
Zn4	Zn	-0.789922	-1.326474	-0.758960
O5	O	-0.711902	-1.423381	-0.683918
O6	O	-0.689533	-1.645288	-0.776265
O7	O	-0.756047	-1.515676	-0.462030
O8	O	-0.481501	-1.368309	-0.612798
O9	O	-0.795119	-1.661262	-0.649909
O10	O	-0.511106	-1.478618	-0.755151
O11	O	-0.620856	-1.389393	-0.446032
O12	O	-0.615798	-1.201520	-0.591603
O13	O	-0.786231	-1.331040	-0.905776
O14	O	-0.747158	-1.185454	-0.717897
O15	O	-0.684476	-1.457414	-0.921835
O16	O	-0.929417	-1.494472	-0.628714
O17	O	-0.925585	-1.352124	-0.739010
C18	C	-0.676541	-1.156170	-0.650016
C19	C	-0.661439	-1.041852	-0.635536
C20	C	-0.962504	-1.423310	-0.683879
C21	C	-1.069728	-1.423369	-0.683909
C22	C	-0.739266	-1.389363	-0.952165
C23	C	-0.750927	-1.374866	-1.066476
C24	C	-1.266044	-1.423469	-0.683987
C25	C	-1.156800	-1.423410	-0.683946
C26	C	-0.460328	-1.423478	-0.683984
C27	C	-0.353122	-1.423519	-0.684012
C28	C	-0.747403	-1.691635	-0.717954
C29	C	-0.762531	-1.805950	-0.732458
C30	C	-0.719784	-0.982977	-0.691475
C31	C	-0.704177	-0.864824	-0.676511
C32	C	-0.705779	-1.430931	-1.125385
C33	C	-0.717831	-1.415949	-1.243531
C34	C	-0.684583	-1.457326	-0.416723
C35	C	-0.672677	-1.472021	-0.302438
H36	H	-0.781288	-1.020043	-0.750448
H37	H	-0.599929	-1.004785	-0.576571
H38	H	-0.658201	-1.490017	-1.088351
H39	H	-0.798494	-1.315770	-1.103508
Br40	Br	-0.797122	-1.317445	-1.305237
H41	H	-0.642663	-0.827761	-0.617542
Br42	Br	-0.865038	-0.867707	-0.830774
H43	H	-0.625093	-1.531110	-1.265411
