data_functionalizedCrystal
_audit_creation_method	'MofGen! by Chris Wilmer'
_symmetry_space_group_name_H-M	'P1'
_symmetry_Int_Tables_number	1
_symmetry_cell_setting	triclinic
loop_
_symmetry_equiv_pos_as_xyz
  x,y,z
_cell_length_a	12.645331
_cell_length_b	19.121063
_cell_length_c	12.645323
_cell_angle_alpha	92.408124
_cell_angle_beta	89.977324
_cell_angle_gamma	92.467980
loop_
_atom_site_label
_atom_site_type_symbol
_atom_site_fract_x
_atom_site_fract_y
_atom_site_fract_z
Zn1	Zn	1.602654	-0.279627	-0.617388
Zn2	Zn	2.102654	0.220373	-0.117388
Zn3	Zn	1.594942	-0.397086	-0.447665
Zn4	Zn	2.094942	0.102914	0.052335
Zn5	Zn	1.425367	-0.279651	-0.440134
Zn6	Zn	1.925367	0.220349	0.059866
Zn7	Zn	1.417760	-0.397040	-0.624877
Zn8	Zn	1.917760	0.102960	-0.124877
O9	O	1.510181	-0.338351	-0.532516
O10	O	2.010181	0.161649	-0.032516
O11	O	1.749978	-0.295217	-0.594892
O12	O	2.249978	0.204783	-0.094892
O13	O	1.572404	-0.381537	-0.298321
O14	O	2.072404	0.118463	0.201679
O15	O	1.455295	-0.181363	-0.457361
O16	O	1.955295	0.318637	0.042639
O17	O	1.744312	-0.381514	-0.470197
O18	O	2.244312	0.118486	0.029803
O19	O	1.585547	-0.181346	-0.587589
O20	O	2.085547	0.318654	-0.087589
O21	O	1.447818	-0.295258	-0.292788
O22	O	1.947818	0.204742	0.207212
O23	O	1.276011	-0.295213	-0.464623
O24	O	1.776011	0.204787	0.035377
O25	O	1.442330	-0.381436	-0.772230
O26	O	1.942330	0.118564	-0.272230
O27	O	1.270422	-0.381459	-0.600353
O28	O	1.770422	0.118541	-0.100353
O29	O	1.578171	-0.295173	-0.766727
O30	O	2.078171	0.204827	-0.266727
O31	O	1.565027	-0.495364	-0.477459
O32	O	2.065027	0.004636	0.022541
O33	O	1.434852	-0.495330	-0.607656
O34	O	1.934852	0.004670	-0.107656
C35	C	1.234752	-0.338334	-0.532485
C36	C	1.734752	0.161666	-0.032485
C37	C	1.116921	-0.338344	-0.532497
C38	C	1.616921	0.161656	-0.032497
C39	C	0.952854	-0.283838	-0.447545
C40	C	1.452854	0.216162	0.052455
C41	C	1.075405	-0.283979	-0.447195
C42	C	1.575405	0.216021	0.052805
C43	C	1.067618	-0.412331	-0.506730
C44	C	1.567618	0.087669	-0.006730
C45	C	0.945039	-0.412033	-0.506155
C46	C	1.445039	0.087967	-0.006155
C47	C	0.950986	-0.319567	-0.643576
C48	C	1.450986	0.180433	-0.143576
C49	C	1.073698	-0.317914	-0.642847
C50	C	1.573698	0.182086	-0.142847
C51	C	1.498306	-0.520831	-0.544210
C52	C	1.998306	-0.020831	-0.044210
C53	C	1.493323	-0.598897	-0.549248
C54	C	1.993323	-0.098897	-0.049248
C55	C	1.558810	-0.635567	-0.483885
C56	C	2.058810	-0.135567	0.016115
C57	C	1.554130	-0.708918	-0.488629
C58	C	2.054130	-0.208918	0.011371
C59	C	1.483957	-0.745598	-0.558733
C60	C	1.983957	-0.245598	-0.058733
C61	C	1.418467	-0.708923	-0.624104
C62	C	1.918467	-0.208923	-0.124104
C63	C	1.423154	-0.635573	-0.619364
C64	C	1.923154	-0.135573	-0.119364
C65	C	1.466419	-0.967067	-0.576438
C66	C	1.966419	-0.467067	-0.076438
C67	C	1.461736	-1.040422	-0.581171
C68	C	1.961736	-0.540422	-0.081171
C69	C	1.597400	-1.040412	-0.445697
C70	C	2.097400	-0.540412	0.054303
C71	C	1.602076	-0.967061	-0.440959
C72	C	2.102076	-0.467061	0.059041
C73	C	1.536590	-0.930392	-0.506334
C74	C	2.036590	-0.430392	-0.006334
C75	C	1.479169	-0.820575	-0.563582
C76	C	1.979169	-0.320575	-0.063582
C77	C	1.541384	-0.855417	-0.501489
C78	C	2.041384	-0.355417	-0.001489
C79	C	1.786685	-0.338368	-0.532549
C80	C	2.286685	0.161632	-0.032549
C81	C	1.904514	-0.338375	-0.532563
C82	C	2.404514	0.161625	-0.032563
C83	C	1.510262	-0.338296	-0.809018
C84	C	2.010262	0.161704	-0.309018
C85	C	1.510297	-0.338273	-0.926847
C86	C	2.010297	0.161727	-0.426847
C87	C	1.522130	-0.155158	-0.520800
C88	C	2.022130	0.344842	-0.020800
C89	C	1.527222	-0.077092	-0.515807
C90	C	2.027222	0.422908	-0.015807
C91	C	1.424603	-0.392285	-1.097856
C92	C	1.924603	0.107715	-0.597856
C93	C	1.424801	-0.392553	-0.975313
C94	C	1.924801	0.107447	-0.475313
C95	C	1.620698	-0.358362	-0.972656
C96	C	2.120698	0.141638	-0.472656
C97	C	1.620225	-0.358700	-1.095276
C98	C	2.120225	0.141300	-0.595276
C99	C	1.486666	-0.263871	-1.089271
C100	C	1.986666	0.236129	-0.589271
C101	C	1.484145	-0.264317	-0.966693
C102	C	1.984145	0.235683	-0.466693
C103	C	1.510164	-0.338354	-0.257087
C104	C	2.010164	0.161646	0.242913
C105	C	1.510347	-0.338179	-0.139246
C106	C	2.010347	0.161821	0.360754
H107	H	0.923516	-0.266557	-0.667927
H108	H	1.423516	0.233443	-0.167927
H109	H	0.915362	-0.427984	-0.425139
H110	H	1.415362	0.072016	0.074861
H111	H	1.103879	-0.296410	-0.364833
H112	H	1.603879	0.203590	0.135167
H113	H	1.607456	-0.738771	-0.435402
H114	H	2.107456	-0.238771	0.064598
O115	O	0.902158	-0.467683	-0.584931
O116	O	1.402158	0.032317	-0.084931
H117	H	0.855047	-0.442882	-0.646019
H118	H	1.355047	0.057118	-0.146019
O119	O	1.316174	-0.375880	-0.934356
O120	O	1.816174	0.124120	-0.434356
H121	H	1.263025	-0.367558	-1.002099
H122	H	1.763025	0.132442	-0.502099
H123	H	1.598523	-0.825550	-0.444415
H124	H	2.098523	-0.325550	0.055585
H125	H	1.542416	-0.221874	-0.933348
H126	H	2.042416	0.278126	-0.433348
O127	O	1.395788	-0.927515	-0.646933
O128	O	1.895788	-0.427515	-0.146933
H129	H	1.344024	-0.894144	-0.597271
H130	H	1.844024	-0.394144	-0.097271
O131	O	1.315619	-0.375793	-1.135819
O132	O	1.815619	0.124207	-0.635819
H133	H	1.314094	-0.378196	-1.223660
H134	H	1.814094	0.121804	-0.723660
H135	H	1.422032	-0.850448	-0.620658
H136	H	1.922032	-0.350448	-0.120658
O137	O	1.111135	-0.366689	-0.730749
O138	O	1.611135	0.133311	-0.230749
H139	H	1.041620	-0.393292	-0.771111
H140	H	1.541620	0.106708	-0.271111
O141	O	1.382218	-0.239617	-1.128643
O142	O	1.882218	0.260383	-0.628643
H143	H	1.367347	-0.187120	-1.092264
H144	H	1.867347	0.312880	-0.592264
H145	H	1.106322	-0.263468	-0.662363
H146	H	1.606322	0.236532	-0.162363
H147	H	1.549176	-0.223560	-1.115698
H148	H	2.049176	0.276440	-0.615698
O149	O	1.444534	-0.464797	-1.143371
O150	O	1.944534	0.035203	-0.643371
H151	H	1.515250	-0.462470	-1.195335
H152	H	2.015250	0.037530	-0.695335
O153	O	1.647542	-0.430657	-1.137794
O154	O	2.147542	0.069343	-0.637794
H155	H	1.720461	-0.426437	-1.186408
H156	H	2.220461	0.073563	-0.686408
O157	O	0.910956	-0.300136	-0.339082
O158	O	1.410956	0.199864	0.160918
H159	H	0.823449	-0.297457	-0.338832
H160	H	1.323449	0.202543	0.161168
O161	O	1.119989	-0.211301	-0.467831
O162	O	1.619989	0.288699	0.032169
H163	H	1.054010	-0.175737	-0.478149
H164	H	1.554010	0.324263	0.021851
O165	O	1.102678	-0.467603	-0.586444
O166	O	1.602678	0.032397	-0.086444
H167	H	1.155748	-0.442867	-0.645412
H168	H	1.655748	0.057133	-0.145412
H169	H	0.926948	-0.228808	-0.462935
H170	H	1.426948	0.271192	0.037065
O171	O	1.707389	-0.308782	-1.131400
O172	O	2.207389	0.191218	-0.631400
H173	H	1.749697	-0.284511	-1.061291
H174	H	2.249697	0.215489	-0.561291
O175	O	1.444854	-0.465541	-0.941150
O176	O	1.944854	0.034459	-0.441150
H177	H	1.454481	-0.500779	-1.012193
H178	H	1.954481	-0.000779	-0.512193
O179	O	1.106819	-0.433833	-0.400606
O180	O	1.606819	0.066167	0.099394
H181	H	1.083432	-0.394961	-0.338208
H182	H	1.583432	0.105039	0.161792
O183	O	1.707328	-0.307826	-0.930810
O184	O	2.207328	0.192174	-0.430810
H185	H	1.672531	-0.267762	-0.876787
H186	H	2.172531	0.232238	-0.376787
O187	O	1.648632	-0.429560	-0.936573
O188	O	2.148632	0.070440	-0.436573
H189	H	1.726855	-0.443179	-0.969464
H190	H	2.226855	0.056821	-0.469464
H191	H	0.919439	-0.359290	-0.706863
H192	H	1.419439	0.140710	-0.206863
O193	O	1.376567	-0.244241	-0.926841
O194	O	1.876567	0.255759	-0.426841
H195	H	1.315659	-0.283641	-0.956958
H196	H	1.815659	0.216359	-0.456958
O197	O	1.634502	-0.596005	-0.408277
O198	O	2.134502	-0.096005	0.091723
H199	H	1.679261	-0.633830	-0.363632
H200	H	2.179261	-0.133830	0.136368
H201	H	1.659216	-0.937197	-0.383875
H202	H	2.159216	-0.437197	0.116125
O203	O	1.386054	-1.079989	-0.656794
O204	O	1.886054	-0.579989	-0.156794
H205	H	1.341312	-1.042169	-0.701465
H206	H	1.841312	-0.542169	-0.201465
H207	H	1.650716	-1.070275	-0.392474
H208	H	2.150716	-0.570275	0.107526
O209	O	1.342766	-0.748480	-0.699706
O210	O	1.842766	-0.248480	-0.199706
H211	H	1.350495	-0.805646	-0.692010
H212	H	1.850495	-0.305646	-0.192010
O213	O	1.352510	-0.596017	-0.689850
O214	O	1.852510	-0.096017	-0.189850
H215	H	1.302916	-0.633844	-0.739384
H216	H	1.802916	-0.133844	-0.239384
