data_functionalizedCrystal
_audit_creation_method	'MofGen! by Chris Wilmer'
_symmetry_space_group_name_H-M	'P1'
_symmetry_Int_Tables_number	1
_symmetry_cell_setting	triclinic
loop_
_symmetry_equiv_pos_as_xyz
  x,y,z
_cell_length_a	15.297475
_cell_length_b	19.077068
_cell_length_c	19.076919
_cell_angle_alpha	94.470751
_cell_angle_beta	82.980598
_cell_angle_gamma	82.992007
loop_
_atom_site_label
_atom_site_type_symbol
_atom_site_fract_x
_atom_site_fract_y
_atom_site_fract_z
Zn1	Zn	1.323582	-0.483130	-0.595714
Zn2	Zn	1.823582	0.016870	-0.095714
Zn3	Zn	1.323472	-0.596268	-0.482543
Zn4	Zn	1.823472	-0.096268	0.017457
Zn5	Zn	1.181103	-0.458344	-0.457837
Zn6	Zn	1.681103	0.041656	0.042163
Zn7	Zn	1.168604	-0.579149	-0.578640
Zn8	Zn	1.668604	-0.079149	-0.078640
O9	O	1.249190	-0.529223	-0.528684
O10	O	1.749190	-0.029223	-0.028684
O11	O	1.448008	-0.515676	-0.598188
O12	O	1.948008	-0.015676	-0.098188
O13	O	1.309771	-0.574764	-0.381347
O14	O	1.809771	-0.074764	0.118653
O15	O	1.205280	-0.363726	-0.472932
O16	O	1.705280	0.136274	0.027068
O17	O	1.447927	-0.598798	-0.515042
O18	O	1.947927	-0.098798	-0.015042
O19	O	1.309959	-0.381937	-0.574230
O20	O	1.809959	0.118063	-0.074230
O21	O	1.205173	-0.473431	-0.363195
O22	O	1.705173	0.026569	0.136805
O23	O	1.055004	-0.456832	-0.456376
O24	O	1.555004	0.043168	0.043624
O25	O	1.183978	-0.569621	-0.678824
O26	O	1.683978	-0.069621	-0.178824
O27	O	1.045821	-0.545587	-0.545129
O28	O	1.545821	-0.045587	-0.045129
O29	O	1.297839	-0.499076	-0.691368
O30	O	1.797839	0.000924	-0.191368
O31	O	1.297652	-0.691903	-0.498485
O32	O	1.797652	-0.191903	0.001515
O33	O	1.183871	-0.679326	-0.569087
O34	O	1.683871	-0.179326	-0.069087
C35	C	1.239416	-0.711005	-0.534633
C36	C	1.739416	-0.211005	-0.034633
C37	C	1.235315	-0.788784	-0.537212
C38	C	1.735315	-0.288784	-0.037212
C39	C	1.018146	-0.496663	-0.496219
C40	C	1.518146	0.003337	0.003781
C41	C	0.919303	-0.482751	-0.482348
C42	C	1.419303	0.017249	0.017652
C43	C	1.292670	-0.831857	-0.501709
C44	C	1.792670	-0.331857	-0.001709
C45	C	1.288818	-0.904939	-0.504141
C46	C	1.788818	-0.404939	-0.004141
C47	C	1.227606	-0.934946	-0.542071
C48	C	1.727606	-0.434946	-0.042071
C49	C	1.170248	-0.891868	-0.577579
C50	C	1.670248	-0.391868	-0.077579
C51	C	1.174105	-0.818788	-0.575151
C52	C	1.674105	-0.318788	-0.075151
C53	C	1.209717	-1.152812	-0.553273
C54	C	1.709717	-0.652812	-0.053273
C55	C	1.205862	-1.225897	-0.555696
C56	C	1.705862	-0.725897	-0.055696
C57	C	1.324433	-1.238964	-0.482259
C58	C	1.824433	-0.738964	0.017741
C59	C	1.328281	-1.165881	-0.479831
C60	C	1.828281	-0.665881	0.020169
C61	C	1.270927	-1.122810	-0.515341
C62	C	1.770927	-0.622810	-0.015341
N63	N	1.223665	-1.009647	-0.544556
N64	N	1.723665	-0.509647	-0.044556
N65	N	1.274873	-1.048111	-0.512861
N66	N	1.774873	-0.548111	-0.012861
C67	C	0.621655	-0.628660	-0.627826
C68	C	1.121655	-0.128660	-0.127826
C69	C	0.714523	-0.641736	-0.640857
C70	C	1.214523	-0.141736	-0.140857
C71	C	0.765723	-0.601991	-0.601231
C72	C	1.265723	-0.101991	-0.101231
C73	C	0.724045	-0.549167	-0.548571
C74	C	1.224045	-0.049167	-0.048571
C75	C	0.631168	-0.536093	-0.535535
C76	C	1.131168	-0.036093	-0.035535
C77	C	0.775236	-0.509424	-0.508940
C78	C	1.275236	-0.009424	-0.008940
C79	C	0.733558	-0.456601	-0.456281
C80	C	1.233558	0.043399	0.043719
C81	C	0.640690	-0.443529	-0.443247
C82	C	1.140690	0.056471	0.056753
C83	C	0.589490	-0.483274	-0.482873
C84	C	1.089490	0.016726	0.017127
C85	C	0.868113	-0.522498	-0.521976
C86	C	1.368113	-0.022498	-0.021976
C87	C	0.877626	-0.429931	-0.429686
C88	C	1.377626	0.070069	0.070314
C89	C	0.784758	-0.416855	-0.416655
C90	C	1.284758	0.083145	0.083345
C91	C	1.481136	-0.561911	-0.561275
C92	C	1.981136	-0.061911	-0.061275
C93	C	1.579978	-0.575841	-0.575164
C94	C	2.079978	-0.075841	-0.075164
C95	C	1.239526	-0.535204	-0.711195
C96	C	1.739526	-0.035204	-0.211195
C97	C	1.235408	-0.537753	-0.788971
C98	C	1.735408	-0.037753	-0.288971
C99	C	1.259026	-0.346736	-0.522730
C100	C	1.759026	0.153264	-0.022730
C101	C	1.263217	-0.268970	-0.520193
C102	C	1.763217	0.231030	-0.020193
C103	C	1.292752	-0.502223	-0.832042
C104	C	1.792752	-0.002223	-0.332042
C105	C	1.288872	-0.504613	-0.905119
C106	C	1.788872	-0.004613	-0.405119
C107	C	1.227652	-0.542538	-0.935124
C108	C	1.727652	-0.042538	-0.435124
C109	C	1.170302	-0.578069	-0.892047
C110	C	1.670302	-0.078069	-0.392047
C111	C	1.174178	-0.575674	-0.818970
C112	C	1.674178	-0.075674	-0.318970
C113	C	1.209698	-0.553636	-1.152977
C114	C	1.709698	-0.053636	-0.652977
C115	C	1.205827	-0.556030	-1.226059
C116	C	1.705827	-0.056030	-0.726059
C117	C	1.324397	-0.482573	-1.239126
C118	C	1.824397	0.017427	-0.739126
C119	C	1.328272	-0.480185	-1.166048
C120	C	1.828272	0.019815	-0.666048
C121	C	1.270918	-0.515713	-1.122977
C122	C	1.770918	-0.015713	-0.622977
N123	N	1.223686	-0.544985	-1.009820
N124	N	1.723686	-0.044985	-0.509820
N125	N	1.274880	-0.513262	-1.048281
N126	N	1.774880	-0.013262	-0.548281
C127	C	1.258870	-0.523222	-0.346887
C128	C	1.758870	-0.023222	0.153113
C129	C	1.263171	-0.520501	-0.269130
C130	C	1.763171	-0.020501	0.230870
H131	H	1.342512	-0.807430	-0.470819
H132	H	1.842512	-0.307430	0.029181
H133	H	1.163009	-0.582577	-1.117918
H134	H	1.663009	-0.082577	-0.617918
Br135	Br	0.891760	-0.619737	-0.618918
Br136	Br	1.391760	-0.119737	-0.118918
Br137	Br	1.087211	-0.629535	-0.932766
Br138	Br	1.587211	-0.129535	-0.432766
Br139	Br	0.947103	-0.375993	-0.375899
Br140	Br	1.447103	0.124007	0.124101
H141	H	1.163015	-1.117748	-0.582185
H142	H	1.663015	-0.617748	-0.082185
Br143	Br	1.366739	-0.456431	-0.963578
Br144	Br	1.866739	0.043569	-0.463578
H145	H	0.513869	-0.472629	-0.472268
H146	H	1.013869	0.027371	0.027732
H147	H	0.902037	-0.565507	-0.564853
H148	H	1.402037	-0.065507	-0.064853
Br149	Br	1.366666	-0.963395	-0.455961
Br150	Br	1.866666	-0.463395	0.044039
Br151	Br	1.411369	-1.125165	-0.428362
Br152	Br	1.911369	-0.625165	0.071638
Br153	Br	0.771080	-0.713425	-0.712318
Br154	Br	1.271080	-0.213425	-0.212318
Br155	Br	0.552168	-0.682612	-0.681580
Br156	Br	1.052168	-0.182612	-0.181580
H157	H	1.371129	-1.274040	-0.453349
H158	H	1.871129	-0.774040	0.046651
Br159	Br	1.122768	-1.266618	-0.607163
Br160	Br	1.622768	-0.766618	-0.107163
Br161	Br	0.584129	-0.371847	-0.371773
Br162	Br	1.084129	0.128153	0.128227
Br163	Br	1.096346	-0.623890	-0.760514
Br164	Br	1.596346	-0.123890	-0.260514
H165	H	1.378126	-0.449305	-1.141624
H166	H	1.878126	0.050695	-0.641624
Br167	Br	1.402227	-0.434358	-1.297582
Br168	Br	1.902227	0.065642	-0.797582
Br169	Br	1.375848	-0.450757	-0.791330
Br170	Br	1.875848	0.049243	-0.291330
H171	H	0.750810	-0.373846	-0.373778
H172	H	1.250810	0.126154	0.126222
H173	H	1.120412	-0.916306	-0.608466
H174	H	1.620412	-0.416306	-0.108466
H175	H	1.155971	-0.586915	-1.250485
H176	H	1.655971	-0.086915	-0.750485
Br177	Br	1.096269	-0.760331	-0.623341
Br178	Br	1.596269	-0.260331	-0.123341
