data_functionalizedCrystal
_audit_creation_method	'MofGen! by Chris Wilmer'
_symmetry_space_group_name_H-M	'P1'
_symmetry_Int_Tables_number	1
_symmetry_cell_setting	triclinic
loop_
_symmetry_equiv_pos_as_xyz
  x,y,z
_cell_length_a	10.654550
_cell_length_b	14.853567
_cell_length_c	9.730223
_cell_angle_alpha	89.999394
_cell_angle_beta	89.999957
_cell_angle_gamma	84.059930
loop_
_atom_site_label
_atom_site_type_symbol
_atom_site_fract_x
_atom_site_fract_y
_atom_site_fract_z
O1	O	1.666524	0.126626	-0.114175
O2	O	1.300920	0.138690	-0.114199
O3	O	1.493487	0.001480	-0.114190
O4	O	1.473956	0.263835	-0.114183
O5	O	1.493475	0.001477	0.114390
O6	O	1.300907	0.138686	0.114381
O7	O	1.666511	0.126622	0.114405
Zn8	Zn	1.483707	0.132654	0.150685
Zn9	Zn	1.483724	0.132659	-0.150479
O10	O	1.473943	0.263832	0.114397
C11	C	1.254125	0.137802	0.000088
C12	C	1.114709	0.135152	0.000078
C13	C	1.034384	0.215939	0.000084
C14	C	0.903389	0.213443	0.000108
C15	C	0.933057	0.049367	0.000114
C16	C	1.064049	0.051864	0.000100
C17	C	1.492596	-0.032115	0.000096
C18	C	1.489944	-0.132213	0.000084
C19	C	1.364344	-0.545419	0.000102
C20	C	1.593119	-0.565475	0.000116
C21	C	1.595613	-0.471428	0.000109
C22	C	1.482470	-0.414372	0.000099
C23	C	1.366834	-0.451363	0.000098
C24	C	1.711247	-0.434430	0.000124
C25	C	1.713745	-0.340378	0.000118
C26	C	1.600601	-0.283320	0.000098
C27	C	1.484961	-0.320316	0.000095
C28	C	1.371818	-0.263260	0.000086
C29	C	1.256176	-0.300254	0.000073
C30	C	1.253691	-0.394305	0.000079
C31	C	1.603087	-0.189269	0.000093
C32	C	1.374308	-0.169204	0.000082
C33	C	1.713306	0.127510	0.000116
C34	C	1.852722	0.130160	0.000116
C35	C	1.474835	0.297427	0.000108
C36	C	1.477487	0.397525	0.000111
N37	N	1.483705	0.132650	0.356222
N38	N	1.483735	0.132655	-0.356015
C39	C	1.569003	0.071919	0.428151
C40	C	1.569016	0.071919	0.572034
C41	C	1.398429	0.193389	0.572045
C42	C	1.398411	0.193383	0.428165
H43	H	1.129454	-0.013927	0.000099
C44	C	1.131723	-0.237486	0.000065
C45	C	1.101995	-0.170064	-0.118629
C46	C	0.977546	-0.107293	-0.118635
C47	C	0.882824	-0.111942	0.000052
C48	C	0.912550	-0.179367	0.118754
C49	C	1.036999	-0.242139	0.118761
H50	H	1.172116	-0.166620	-0.206496
H51	H	0.955542	-0.057381	-0.206508
H52	H	0.790700	-0.065475	0.000047
H53	H	0.842429	-0.182812	0.206622
H54	H	1.059003	-0.292051	0.206633
C55	C	1.835693	-0.497194	0.000140
C56	C	1.930391	-0.492549	0.118850
C57	C	2.054841	-0.555320	0.118866
C58	C	2.084592	-0.622736	0.000171
C59	C	1.989891	-0.627384	-0.118547
C60	C	1.865441	-0.564613	-0.118563
H61	H	1.908370	-0.442641	0.206723
H62	H	2.124945	-0.551879	0.206750
H63	H	2.176717	-0.669203	0.000183
H64	H	2.011912	-0.677292	-0.206420
H65	H	1.795337	-0.568054	-0.206447
H66	H	1.328985	0.242838	0.630636
H67	H	0.891793	-0.018444	0.000140
H68	H	1.807907	-0.310265	0.000126
H69	H	1.075626	0.283758	0.000077
H70	H	1.282172	-0.122754	0.000069
H71	H	0.837993	0.279228	0.000116
H72	H	1.159541	-0.424435	0.000070
H73	H	1.270191	-0.575544	0.000086
H74	H	1.685234	-0.611935	0.000135
H75	H	1.697240	-0.159152	0.000112
H76	H	1.638453	0.022465	0.369579
H77	H	1.638471	0.022466	0.630596
H78	H	1.328945	0.242838	0.369596
