data_functionalizedCrystal
_audit_creation_method	'MofGen! by Chris Wilmer'
_symmetry_space_group_name_H-M	'P1'
_symmetry_Int_Tables_number	1
_symmetry_cell_setting	triclinic
loop_
_symmetry_equiv_pos_as_xyz
  x,y,z
_cell_length_a	14.519709
_cell_length_b	9.016244
_cell_length_c	14.519709
_cell_angle_alpha	90.003180
_cell_angle_beta	83.680145
_cell_angle_gamma	90.001728
loop_
_atom_site_label
_atom_site_type_symbol
_atom_site_fract_x
_atom_site_fract_y
_atom_site_fract_z
O1	O	1.223872	0.123150	0.120887
O2	O	1.557205	0.456484	0.454221
O3	O	1.890538	0.789817	0.787554
O4	O	0.955395	0.123196	0.135124
O5	O	1.288728	0.456529	0.468457
O6	O	1.622061	0.789863	0.801791
O7	O	1.096752	0.123159	-0.006233
O8	O	1.430085	0.456492	0.327101
O9	O	1.763418	0.789825	0.660434
O10	O	1.082515	0.123188	0.262244
O11	O	1.415848	0.456521	0.595577
O12	O	1.749182	0.789854	0.928911
O13	O	1.096731	-0.123522	-0.006230
O14	O	1.430064	0.209811	0.327104
O15	O	1.763398	0.543145	0.660437
O16	O	0.955374	-0.123485	0.135127
O17	O	1.288707	0.209849	0.468461
O18	O	1.622041	0.543182	0.801794
O19	O	1.223851	-0.123530	0.120891
O20	O	1.557184	0.209803	0.454224
O21	O	1.890518	0.543136	0.787557
Cu22	Cu	1.089611	-0.146031	0.128009
Cu23	Cu	1.422944	0.187302	0.461343
Cu24	Cu	1.756277	0.520635	0.794676
Cu25	Cu	1.089635	0.145697	0.128005
Cu26	Cu	1.422968	0.479030	0.461339
Cu27	Cu	1.756302	0.812364	0.794672
O28	O	1.082494	-0.123493	0.262247
O29	O	1.415828	0.209840	0.595581
O30	O	1.749161	0.543174	0.928914
C31	C	0.921025	-0.000139	0.134462
C32	C	1.254358	0.333195	0.467795
C33	C	1.587691	0.666528	0.801129
C34	C	0.818643	-0.000122	0.132474
C35	C	1.151977	0.333212	0.465807
C36	C	1.485310	0.666545	0.799141
N37	N	1.089600	-0.351218	0.128011
N38	N	1.422934	-0.017884	0.461345
N39	N	1.756267	0.315449	0.794678
C40	C	0.443748	-0.000190	0.125154
C41	C	0.777081	0.333144	0.458488
C42	C	1.110414	0.666477	0.791821
C43	C	0.548056	-0.000170	0.127187
C44	C	0.881389	0.333163	0.460520
C45	C	1.214722	0.666496	0.793854
C46	C	0.631192	-0.000154	0.128814
C47	C	0.964526	0.333179	0.462147
C48	C	1.297859	0.666512	0.795481
C49	C	0.735507	-0.000138	0.130847
C50	C	1.068840	0.333196	0.464180
C51	C	1.402173	0.666529	0.797514
C52	C	1.013755	-0.586230	0.203378
C53	C	1.347089	-0.252897	0.536711
C54	C	1.680422	0.080437	0.870044
C55	C	1.013920	-0.414339	0.203657
C56	C	1.347253	-0.081006	0.536990
C57	C	1.680586	0.252328	0.870323
C58	C	1.185864	-0.413570	0.149189
C59	C	1.519197	-0.080236	0.482522
C60	C	1.852531	0.253097	0.815856
C61	C	1.185449	-0.585515	0.149722
C62	C	1.518782	-0.252181	0.483055
C63	C	1.852116	0.081152	0.816388
C64	C	1.070141	-0.585768	0.031215
C65	C	1.403474	-0.252434	0.364549
C66	C	1.736808	0.080899	0.697882
C67	C	1.067924	-0.413813	0.031860
C68	C	1.401257	-0.080480	0.365193
C69	C	1.734591	0.252854	0.698527
C70	C	1.258221	-0.000192	0.121553
C71	C	1.591554	0.333141	0.454886
C72	C	1.924888	0.666474	0.788219
C73	C	1.360602	-0.000200	0.123541
C74	C	1.693936	0.333134	0.456874
C75	C	2.027269	0.666467	0.790207
C76	C	1.096078	-0.000182	-0.040591
C77	C	1.429411	0.333151	0.292742
C78	C	1.762744	0.666485	0.626076
C79	C	1.094090	-0.000182	-0.142972
C80	C	1.427423	0.333151	0.190361
C81	C	1.760756	0.666484	0.523694
N82	N	1.089653	0.350883	0.127996
N83	N	1.422986	0.684217	0.461329
N84	N	1.756320	1.017550	0.794663
C85	C	1.086770	-0.000143	-0.517868
C86	C	1.420103	0.333191	-0.184535
C87	C	1.753437	0.666524	0.148799
C88	C	1.088803	-0.000154	-0.413560
C89	C	1.422136	0.333179	-0.080227
C90	C	1.755469	0.666513	0.253107
C91	C	1.090430	-0.000164	-0.330423
C92	C	1.423763	0.333170	0.002910
C93	C	1.757096	0.666503	0.336243
C94	C	1.092463	-0.000173	-0.226109
C95	C	1.425796	0.333161	0.107224
C96	C	1.759129	0.666494	0.440558
C97	C	1.083168	-0.000149	0.296606
C98	C	1.416501	0.333184	0.629939
C99	C	1.749835	0.666518	0.963272
C100	C	1.085156	-0.000139	0.398987
C101	C	1.418490	0.333194	0.732320
C102	C	1.751823	0.666528	1.065653
H103	H	0.942371	-0.372184	0.191015
H104	H	1.275704	-0.038851	0.524349
H105	H	1.609037	0.294482	0.857682
Cl106	Cl	1.211955	-0.647409	0.258702
Cl107	Cl	1.545288	-0.314076	0.592035
Cl108	Cl	1.878622	0.019258	0.925368
Cl109	Cl	0.902932	-0.650086	0.184164
Cl110	Cl	1.236265	-0.316752	0.517498
Cl111	Cl	1.569598	0.016581	0.850831
Cl112	Cl	1.032763	-0.652874	0.313637
Cl113	Cl	1.366096	-0.319541	0.646971
Cl114	Cl	1.699429	0.013792	0.980304
Cl115	Cl	1.155589	-0.648554	-0.055397
Cl116	Cl	1.488922	-0.315221	0.277936
Cl117	Cl	1.822256	0.018112	0.611270
Cl118	Cl	1.033137	-0.350793	0.314548
Cl119	Cl	1.366471	-0.017459	0.647881
Cl120	Cl	1.699804	0.315874	0.981215
H121	H	1.243698	-0.627112	0.096991
H122	H	1.577032	-0.293779	0.430324
H123	H	1.910365	0.039555	0.763657
H124	H	0.997111	-0.373061	0.015792
H125	H	1.330444	-0.039728	0.349125
H126	H	1.663777	0.293606	0.682459
Cl127	Cl	1.275150	-0.350449	0.066689
Cl128	Cl	1.608484	-0.017116	0.400023
Cl129	Cl	1.941817	0.316217	0.733356
H130	H	1.203434	-0.370488	0.218973
H131	H	1.536767	-0.037154	0.552307
H132	H	1.870101	0.296179	0.885640
Cl133	Cl	0.964094	-0.652780	-0.000149
Cl134	Cl	1.297427	-0.319447	0.333185
Cl135	Cl	1.630761	0.013887	0.666518
Cl136	Cl	1.147711	-0.347507	-0.058824
Cl137	Cl	1.481044	-0.014174	0.274509
Cl138	Cl	1.814378	0.319159	0.607842
