data_functionalizedCrystal
_audit_creation_method	'MofGen! by Chris Wilmer'
_symmetry_space_group_name_H-M	'P1'
_symmetry_Int_Tables_number	1
_symmetry_cell_setting	triclinic
loop_
_symmetry_equiv_pos_as_xyz
  x,y,z
_cell_length_a	17.038272
_cell_length_b	10.967926
_cell_length_c	10.065875
_cell_angle_alpha	93.120479
_cell_angle_beta	99.426590
_cell_angle_gamma	87.839574
loop_
_atom_site_label
_atom_site_type_symbol
_atom_site_fract_x
_atom_site_fract_y
_atom_site_fract_z
O1	O	0.136749	1.626878	0.269136
O2	O	0.138988	1.277063	0.186859
O3	O	0.023993	1.449890	0.227519
O4	O	0.251744	1.454051	0.228476
O5	O	0.046013	1.416943	0.446756
O6	O	0.161008	1.244116	0.406097
O7	O	0.158769	1.593931	0.488374
Zn8	Zn	0.163385	1.413793	0.482044
Zn9	Zn	0.134372	1.457201	0.193189
O10	O	0.273764	1.421104	0.447714
C11	C	0.148171	1.215609	0.285898
C12	C	0.142719	1.081581	0.254375
C13	C	0.151695	1.004760	0.353893
C14	C	0.146059	0.866235	0.321314
C15	C	0.005764	1.429634	0.336248
C16	C	-0.081360	1.418351	0.333594
C17	C	-0.128434	1.521945	0.357961
C18	C	-0.210297	1.511337	0.355453
C19	C	-0.245084	1.397135	0.328587
C20	C	-0.198004	1.293534	0.304215
C21	C	-0.116143	1.304144	0.306714
C22	C	-0.491944	1.359654	0.319753
C23	C	-0.573810	1.349051	0.317260
C24	C	-0.586098	1.566856	0.368496
C25	C	-0.504235	1.577454	0.371000
C26	C	-0.457163	1.473855	0.346621
C27	C	-0.328761	1.386289	0.326028
C28	C	-0.373488	1.484703	0.349171
C29	C	0.291993	1.441360	0.338982
C30	C	0.379116	1.452644	0.341627
C31	C	0.149585	1.655385	0.389331
C32	C	0.155037	1.789414	0.420846
N33	N	0.183185	1.384177	0.679182
N34	N	0.114566	1.486826	-0.003947
C35	C	0.141256	1.446889	0.761714
C36	C	0.156501	1.424105	0.913522
H37	H	0.163547	1.041545	0.463212
H38	H	0.203684	1.353538	0.955241
H39	H	0.134200	0.829456	0.211988
Cl40	Cl	0.173334	0.846187	0.589641
H41	H	0.130860	1.044797	0.145056
Cl42	Cl	0.068224	1.555537	0.697234
H43	H	0.067377	1.557384	0.954332
H44	H	-0.357093	1.293304	0.304157
H45	H	-0.453627	1.275295	0.299902
Cl46	Cl	-0.617539	1.205470	0.283492
Cl47	Cl	0.256029	1.275232	0.743592
H48	H	-0.100117	1.614939	0.379845
H49	H	-0.226334	1.200549	0.282332
H50	H	-0.077816	1.219787	0.286871
Cl51	Cl	-0.269473	1.641575	0.386091
H52	H	-0.624433	1.651201	0.388342
Cl53	Cl	-0.329756	1.628268	0.382937
Cl54	Cl	-0.460514	1.721036	0.404732
