data_functionalizedCrystal
_audit_creation_method	'MofGen! by Chris Wilmer'
_symmetry_space_group_name_H-M	'P1'
_symmetry_Int_Tables_number	1
_symmetry_cell_setting	triclinic
loop_
_symmetry_equiv_pos_as_xyz
  x,y,z
_cell_length_a	12.827892
_cell_length_b	12.827893
_cell_length_c	18.215399
_cell_angle_alpha	90.019432
_cell_angle_beta	89.976162
_cell_angle_gamma	89.986398
loop_
_atom_site_label
_atom_site_type_symbol
_atom_site_fract_x
_atom_site_fract_y
_atom_site_fract_z
Zn1	Zn	-0.416094	-1.597653	-0.416129
Zn2	Zn	-0.590853	-1.597552	-0.293072
Zn3	Zn	-0.416121	-1.422900	-0.293077
Zn4	Zn	-0.590788	-1.422880	-0.416097
O5	O	-0.503464	-1.510246	-0.354594
O6	O	-0.439292	-1.743876	-0.399816
O7	O	-0.567713	-1.574350	-0.190088
O8	O	-0.269881	-1.446132	-0.309416
O9	O	-0.567686	-1.743802	-0.309406
O10	O	-0.269861	-1.574522	-0.399822
O11	O	-0.439338	-1.446034	-0.190092
O12	O	-0.439275	-1.276661	-0.309385
O13	O	-0.567576	-1.446098	-0.519086
O14	O	-0.567602	-1.276647	-0.399768
O15	O	-0.439229	-1.574504	-0.519109
O16	O	-0.737080	-1.574331	-0.309376
O17	O	-0.737033	-1.446000	-0.399762
C18	C	-0.503435	-1.238736	-0.354574
C19	C	-0.503448	-1.122583	-0.354583
C20	C	-0.439862	-1.070778	-0.309937
C21	C	-0.439874	-0.950728	-0.309945
C22	C	-0.774974	-1.510181	-0.354581
C23	C	-0.891127	-1.510249	-0.354600
C24	C	-0.942901	-1.573826	-0.309923
C25	C	-1.062951	-1.573898	-0.309942
C26	C	-0.230894	-1.510340	-0.354623
C27	C	-0.114741	-1.510381	-0.354635
C28	C	-0.503392	-1.510310	-0.546547
C29	C	-0.503361	-1.510337	-0.628346
C30	C	-0.503485	-0.782816	-0.354608
C31	C	-0.503472	-0.898970	-0.354599
C32	C	-0.436468	-1.577222	-0.816553
C33	C	-0.436438	-1.577234	-0.893412
C34	C	-0.570092	-1.443526	-0.893376
C35	C	-0.570117	-1.443509	-0.816519
C36	C	-0.503306	-1.510363	-0.778109
C37	C	-0.503251	-1.510392	-0.931825
C38	C	-0.503219	-1.510406	-1.015159
C39	C	-0.503337	-1.510349	-0.694770
C40	C	-0.503460	-1.510243	-0.163388
C41	C	-0.503197	-1.510418	-0.081589
H42	H	-0.385419	-1.115303	-0.271705
O43	O	-0.364410	-1.649320	-0.775121
H44	H	-0.282386	-1.631419	-0.789875
H45	H	-0.624489	-1.389099	-0.924659
H46	H	-0.382010	-1.631676	-0.924709
H47	H	-0.557908	-0.943514	-0.392828
O48	O	-1.121914	-1.646023	-0.259285
H49	H	-1.206953	-1.634775	-0.267259
H50	H	-1.070224	-1.455942	-0.392884
O51	O	-0.950132	-1.438206	-0.405279
H52	H	-0.999797	-1.485016	-0.442725
O53	O	-0.642179	-1.371364	-0.775046
H54	H	-0.688632	-1.324879	-0.814665
O55	O	-0.883906	-1.645870	-0.259238
H56	H	-0.904721	-1.727902	-0.271914
H57	H	-0.557899	-1.078059	-0.392810
H58	H	-0.385431	-0.906177	-0.271725
