data_functionalizedCrystal
_audit_creation_method	'MofGen! by Chris Wilmer'
_symmetry_space_group_name_H-M	'P1'
_symmetry_Int_Tables_number	1
_symmetry_cell_setting	triclinic
loop_
_symmetry_equiv_pos_as_xyz
  x,y,z
_cell_length_a	10.686220
_cell_length_b	13.897448
_cell_length_c	10.688615
_cell_angle_alpha	94.355781
_cell_angle_beta	98.316027
_cell_angle_gamma	94.399460
loop_
_atom_site_label
_atom_site_type_symbol
_atom_site_fract_x
_atom_site_fract_y
_atom_site_fract_z
Zn1	Zn	1.885875	-0.306717	-0.568781
Zn2	Zn	2.385875	0.193283	-0.068781
Zn3	Zn	1.901860	-0.454617	-0.356627
Zn4	Zn	2.401860	0.045383	0.143373
Zn5	Zn	1.689747	-0.306750	-0.372892
Zn6	Zn	2.189747	0.193250	0.127108
Zn7	Zn	1.673605	-0.481389	-0.584976
Zn8	Zn	2.173605	0.018611	-0.084976
O9	O	1.787772	-0.387368	-0.470819
O10	O	2.287772	0.112632	0.029181
O11	O	2.065602	-0.315119	-0.527054
O12	O	2.565602	0.184881	-0.027054
O13	O	1.887169	-0.423812	-0.181240
O14	O	2.387169	0.076188	0.318760
O15	O	1.715830	-0.171762	-0.398906
O16	O	2.215830	0.328238	0.101094
O17	O	2.077346	-0.423781	-0.371185
O18	O	2.577346	0.076219	0.128815
O19	O	1.859924	-0.171738	-0.542825
O20	O	2.359924	0.328262	-0.042825
O21	O	1.731330	-0.315174	-0.193189
O22	O	2.231330	0.184826	0.306811
O23	O	1.510000	-0.341134	-0.414610
O24	O	2.010000	0.158866	0.085390
O25	O	1.688317	-0.469409	-0.760372
O26	O	2.188317	0.030591	-0.260372
O27	O	1.498140	-0.469440	-0.570427
O28	O	1.998140	0.030560	-0.070427
O29	O	1.844271	-0.341078	-0.748474
O30	O	2.344271	0.158922	-0.248474
O31	O	1.871516	-0.593153	-0.386888
O32	O	2.371516	-0.093153	0.113112
O33	O	1.703818	-0.612821	-0.554655
O34	O	2.203818	-0.112821	-0.054655
C35	C	1.458019	-0.408196	-0.496041
C36	C	1.958019	0.091804	0.003959
C37	C	1.316947	-0.417132	-0.506862
C38	C	1.816947	0.082868	-0.006862
C39	C	1.787682	-0.637986	-0.470789
C40	C	2.287682	-0.137986	0.029211
C41	C	1.787757	-0.745197	-0.470810
C42	C	2.287757	-0.245197	0.029190
C43	C	1.787884	-0.941489	-0.470879
C44	C	2.287884	-0.441489	0.029121
C45	C	1.787809	-0.832259	-0.470845
C46	C	2.287809	-0.332259	0.029155
C47	C	2.118813	-0.366460	-0.445499
C48	C	2.618813	0.133540	0.054501
C49	C	2.259882	-0.357550	-0.434709
C50	C	2.759882	0.142450	0.065291
C51	C	1.762711	-0.408226	-0.801746
C52	C	2.262711	0.091774	-0.301746
C53	C	1.752031	-0.417115	-0.942767
C54	C	2.252031	0.082885	-0.442767
C55	C	1.787895	-0.135771	-0.470874
C56	C	2.287895	0.364229	0.029126
C57	C	1.787947	-0.028556	-0.470897
C58	C	2.287947	0.471444	0.029103
C59	C	1.812809	-0.366517	-0.141174
C60	C	2.312809	0.133483	0.358826
C61	C	1.823734	-0.357342	-0.000134
C62	C	2.323734	0.142658	0.499866
H63	H	1.257871	-0.474987	-0.576911
H64	H	1.757871	0.025013	-0.076911
N65	N	1.916141	-0.280257	0.077722
N66	N	2.416141	0.219743	0.577722
H67	H	1.911121	-0.284410	0.170820
H68	H	2.411121	0.215590	0.670820
H69	H	2.005135	-0.290541	0.061449
H70	H	2.505135	0.209459	0.561449
N71	N	1.659617	-0.494195	-0.020645
N72	N	2.159617	0.005805	0.479355
H73	H	1.707383	-0.538861	-0.071594
H74	H	2.207383	-0.038861	0.428406
H75	H	1.613337	-0.532709	0.037746
H76	H	2.113337	-0.032709	0.537746
N77	N	1.338114	-0.280925	-0.341910
N78	N	1.838114	0.219075	0.158090
H79	H	1.431182	-0.285187	-0.347075
H80	H	1.931182	0.214813	0.152925
H81	H	1.313521	-0.214758	-0.363565
H82	H	1.813521	0.285242	0.136435
