data_functionalizedCrystal
_audit_creation_method	'MofGen! by Chris Wilmer'
_symmetry_space_group_name_H-M	'P1'
_symmetry_Int_Tables_number	1
_symmetry_cell_setting	triclinic
loop_
_symmetry_equiv_pos_as_xyz
  x,y,z
_cell_length_a	17.639504
_cell_length_b	14.908520
_cell_length_c	14.908308
_cell_angle_alpha	83.639235
_cell_angle_beta	98.635970
_cell_angle_gamma	105.081037
loop_
_atom_site_label
_atom_site_type_symbol
_atom_site_fract_x
_atom_site_fract_y
_atom_site_fract_z
Zn1	Zn	-1.161811	0.136904	-0.786529
Zn2	Zn	-0.661811	0.636904	-0.286529
Zn3	Zn	-1.161721	0.279569	-0.643880
Zn4	Zn	-0.661721	0.779569	-0.143880
Zn5	Zn	-1.037719	0.155226	-0.608062
Zn6	Zn	-0.537719	0.655226	-0.108062
Zn7	Zn	-1.021502	0.318773	-0.764538
Zn8	Zn	-0.521502	0.818773	-0.264538
O9	O	-1.095688	0.222618	-0.700752
O10	O	-0.595688	0.722618	-0.200752
O11	O	-1.272414	0.131754	-0.791800
O12	O	-0.772414	0.631754	-0.291800
O13	O	-1.152021	0.254335	-0.513943
O14	O	-0.652021	0.754335	-0.013943
O15	O	-1.061004	0.024645	-0.625949
O16	O	-0.561004	0.524645	-0.125949
O17	O	-1.272348	0.236569	-0.686996
O18	O	-0.772348	0.736569	-0.186996
O19	O	-1.152174	0.011184	-0.757068
O20	O	-0.652174	0.511184	-0.257068
O21	O	-1.060917	0.162981	-0.487628
O22	O	-0.560917	0.662981	0.012372
O23	O	-0.924952	0.200995	-0.604625
O24	O	-0.424952	0.700995	-0.104625
O25	O	-1.033365	0.303387	-0.892641
O26	O	-0.533365	0.803387	-0.392641
O27	O	-0.913038	0.321153	-0.719588
O28	O	-0.413038	0.821153	-0.219588
O29	O	-1.136449	0.169768	-0.908797
O30	O	-0.636449	0.669768	-0.408797
O31	O	-1.136296	0.412920	-0.665672
O32	O	-0.636296	0.912920	-0.165672
O33	O	-1.033278	0.441723	-0.754319
O34	O	-0.533278	0.941723	-0.254319
C35	C	-0.890314	0.267317	-0.655834
C36	C	-0.390314	0.767317	-0.155834
C37	C	-0.802451	0.286463	-0.636640
C38	C	-0.302451	0.786463	-0.136640
C39	C	-0.513578	0.077095	-0.846769
C40	C	-0.013578	0.577095	-0.346769
C41	C	-0.431017	0.095107	-0.828716
C42	C	0.068983	0.595107	-0.328716
C43	C	-0.430990	0.204046	-0.719410
C44	C	0.069010	0.704046	-0.219410
C45	C	-0.513551	0.186046	-0.737457
C46	C	-0.013551	0.686046	-0.237457
C47	C	-0.554839	0.122569	-0.801137
C48	C	-0.054839	0.622569	-0.301137
C49	C	-0.554813	0.231519	-0.691825
C50	C	-0.054813	0.731519	-0.191825
C51	C	-0.637368	0.213517	-0.709867
C52	C	-0.137368	0.713517	-0.209867
C53	C	-0.678661	0.150041	-0.773542
C54	C	-0.178661	0.650041	-0.273542
C55	C	-0.637394	0.104566	-0.819179
C56	C	-0.137394	0.604566	-0.319179
C57	C	-0.513524	0.294991	-0.628141
C58	C	-0.013524	0.794991	-0.128141
C59	C	-0.554786	0.340465	-0.582509
C60	C	-0.054786	0.840465	-0.082509
C61	C	-0.637341	0.322468	-0.600555
C62	C	-0.137341	0.822468	-0.100555
C63	C	-0.678635	0.258992	-0.664230
C64	C	-0.178635	0.758992	-0.164230
C65	C	-0.678609	0.367943	-0.554918
C66	C	-0.178609	0.867943	-0.054918
C67	C	-0.761164	0.349940	-0.572960
C68	C	-0.261164	0.849940	-0.072960
C69	C	-0.761190	0.240989	-0.682272
C70	C	-0.261190	0.740989	-0.182272
C71	C	-1.083038	0.460546	-0.711520
C72	C	-0.583038	0.960546	-0.211520
C73	C	-1.077697	0.562319	-0.716173
C74	C	-0.577697	1.062319	-0.216173
C75	C	-1.083108	0.238907	-0.934086
C76	C	-0.583108	0.738907	-0.434086
C77	C	-1.077747	0.245848	-1.033518
C78	C	-0.577747	0.745848	-0.533518
C79	C	-0.301865	0.177731	-0.745843
C80	C	0.198135	0.677731	-0.245843
C81	C	-0.389728	0.158568	-0.765048
C82	C	0.110272	0.658568	-0.265048
C83	C	-1.108408	-0.016243	-0.689966
C84	C	-0.608408	0.483757	-0.189966
C85	C	-1.113829	-0.118031	-0.685370
C86	C	-0.613829	0.381969	-0.185370
C87	C	-1.175032	0.723492	-0.632722
C88	C	-0.675032	1.223492	-0.132722
C89	C	-1.170017	0.819116	-0.637091
C90	C	-0.670017	1.319116	-0.137091
C91	C	-1.062654	0.849192	-0.729285
C92	C	-0.562654	1.349192	-0.229285
C93	C	-1.067670	0.753568	-0.724916
C94	C	-0.567670	1.253568	-0.224916
C95	C	-1.123860	0.690721	-0.676632
C96	C	-0.623860	1.190721	-0.176632
C97	C	-1.128871	0.595096	-0.672258
C98	C	-0.628871	1.095096	-0.172258
C99	C	-1.021513	0.625173	-0.764456
C100	C	-0.521513	1.125173	-0.264456
C101	C	-1.016497	0.720797	-0.768826
C102	C	-0.516497	1.220797	-0.268826
C103	C	-1.175014	0.119734	-1.237187
C104	C	-0.675014	0.619734	-0.737187
C105	C	-1.169980	0.126253	-1.330614
C106	C	-0.669980	0.626253	-0.830614
C107	C	-1.062641	0.265399	-1.313798
C108	C	-0.562641	0.765399	-0.813798
C109	C	-1.067675	0.258881	-1.220372
C110	C	-0.567675	0.758881	-0.720372
C111	C	-1.123865	0.186047	-1.182070
C112	C	-0.623865	0.686047	-0.682070
C113	C	-1.128902	0.179533	-1.088643
C114	C	-0.628902	0.679533	-0.588643
C115	C	-1.021560	0.318674	-1.071828
C116	C	-0.521560	0.818674	-0.571828
C117	C	-1.016526	0.325193	-1.165255
C118	C	-0.516526	0.825193	-0.665255
C119	C	-1.108268	0.206316	-0.468333
C120	C	-0.608268	0.706316	0.031667
C121	C	-1.113796	0.199083	-0.368923
C122	C	-0.613796	0.699083	0.131077
H123	H	-0.794808	0.189304	-0.734130
H124	H	-0.294808	0.689304	-0.234130
H125	H	-0.397426	0.058067	-0.865876
H126	H	0.102574	0.558067	-0.365876
H127	H	-1.220780	0.672321	-0.593400
H128	H	-0.720780	1.172321	-0.093400
H129	H	-0.979912	0.372673	-1.026942
H130	H	-0.479912	0.872673	-0.526942
H131	H	-0.970751	0.771980	-0.808140
H132	H	-0.470751	1.271980	-0.308140
H133	H	-1.220770	0.060434	-1.206003
H134	H	-0.720770	0.560434	-0.706003
H135	H	-0.745883	0.135381	-0.788227
H136	H	-0.245883	0.635381	-0.288227
F137	F	-0.387040	0.271597	-0.651637
F138	F	0.112960	0.771597	-0.151637
F139	F	-0.681339	0.037014	-0.886961
F140	F	-0.181339	0.537014	-0.386961
H141	H	-0.547196	0.025409	-0.898627
H142	H	-0.047196	0.525409	-0.398627
F143	F	-1.224483	0.853989	-0.590359
F144	F	-0.724483	1.353989	-0.090359
H145	H	-0.979843	0.598482	-0.800208
H146	H	-0.479843	1.098482	-0.300208
H147	H	-1.211629	0.072252	-1.375487
H148	H	-0.711629	0.572252	-0.875487
F149	F	-0.425661	0.314144	-0.608935
F150	F	0.074339	0.814144	-0.108935
F151	F	-0.510836	0.408016	-0.514736
F152	F	-0.010836	0.908016	-0.014736
F153	F	-1.002840	0.342902	-1.354576
F154	F	-0.502840	0.842902	-0.854576
F155	F	-0.634658	0.435487	-0.487139
F156	F	-0.134658	0.935487	0.012861
H157	H	-0.794759	0.386970	-0.535802
H158	H	-0.294759	0.886970	-0.035802
H159	H	-1.174622	0.543926	-0.632940
H160	H	-0.674622	1.043926	-0.132940
F161	F	-1.188705	0.102020	-1.047882
F162	F	-0.688705	0.602020	-0.547882
F163	F	-1.002866	0.916091	-0.780680
F164	F	-0.502866	1.416091	-0.280680
F165	F	-0.956727	0.402702	-1.206028
F166	F	-0.456727	0.902702	-0.706028
