data_functionalizedCrystal
_audit_creation_method	'MofGen! by Chris Wilmer'
_symmetry_space_group_name_H-M	'P1'
_symmetry_Int_Tables_number	1
_symmetry_cell_setting	triclinic
loop_
_symmetry_equiv_pos_as_xyz
  x,y,z
_cell_length_a	16.120530
_cell_length_b	12.759400
_cell_length_c	12.759393
_cell_angle_alpha	90.025341
_cell_angle_beta	92.919000
_cell_angle_gamma	87.099054
loop_
_atom_site_label
_atom_site_type_symbol
_atom_site_fract_x
_atom_site_fract_y
_atom_site_fract_z
Zn1	Zn	1.274707	-0.499760	0.675485
Zn2	Zn	1.774707	0.000240	1.175485
Zn3	Zn	1.274651	-0.675475	0.499821
Zn4	Zn	1.774651	-0.175475	0.999821
Zn5	Zn	1.135282	-0.490894	0.490915
Zn6	Zn	1.635282	0.009106	0.990915
Zn7	Zn	1.135301	-0.666478	0.666557
Zn8	Zn	1.635301	-0.166478	1.166557
O9	O	1.204985	-0.583152	0.583195
O10	O	1.704985	-0.083152	1.083195
O11	O	1.391367	-0.530545	0.659647
O12	O	1.891367	-0.030545	1.159647
O13	O	1.256132	-0.651045	0.351616
O14	O	1.756132	-0.151045	0.851616
O15	O	1.153792	-0.345050	0.515408
O16	O	1.653792	0.154950	1.015408
O17	O	1.391327	-0.659642	0.530587
O18	O	1.891327	-0.159642	1.030587
O19	O	1.256227	-0.351564	0.651011
O20	O	1.756227	0.148436	1.151011
O21	O	1.153738	-0.515434	0.345073
O22	O	1.653738	-0.015434	0.845073
O23	O	1.018616	-0.506710	0.506751
O24	O	1.518616	-0.006710	1.006751
O25	O	1.153825	-0.644308	0.814765
O26	O	1.653825	-0.144308	1.314765
O27	O	1.018631	-0.635711	0.635795
O28	O	1.518631	-0.135711	1.135795
O29	O	1.256245	-0.521821	0.821324
O30	O	1.756245	-0.021821	1.321324
O31	O	1.256151	-0.821302	0.521930
O32	O	1.756151	-0.321302	1.021930
O33	O	1.153771	-0.814692	0.644430
O34	O	1.653771	-0.314692	1.144430
C35	C	0.988373	-0.569273	0.569338
C36	C	1.488373	-0.069273	1.069338
C37	C	0.895705	-0.563361	0.563435
C38	C	1.395705	-0.063361	1.063435
C39	C	1.204980	-0.856119	0.583202
C40	C	1.704980	-0.356119	1.083202
C41	C	1.205054	-0.972900	0.583245
C42	C	1.705054	-0.472900	1.083245
C43	C	1.205044	-0.583050	0.857232
C44	C	1.705044	-0.083050	1.357232
C45	C	1.205068	-0.583006	0.974010
C46	C	1.705068	-0.083006	1.474010
C47	C	0.726040	-0.552542	0.552667
C48	C	1.226040	-0.052542	1.052667
C49	C	0.684771	-0.613839	0.613799
C50	C	1.184771	-0.113839	1.113799
C51	C	0.590363	-0.607819	0.607808
C52	C	1.090363	-0.107819	1.107808
C53	C	0.820456	-0.558560	0.558657
C54	C	1.320456	-0.058560	1.058657
C55	C	1.422443	-0.597086	0.597106
C56	C	1.922443	-0.097086	1.097106
C57	C	1.515111	-0.603024	0.603034
C58	C	2.015111	-0.103024	1.103034
C59	C	1.205013	-0.309120	0.583212
C60	C	1.705013	0.190880	1.083212
C61	C	1.205025	-0.192344	0.583219
C62	C	1.705025	0.307656	1.083219
C63	C	1.151704	-0.134090	0.512622
C64	C	1.651704	0.365910	1.012622
C65	C	1.151715	-0.024367	0.512637
C66	C	1.651715	0.475633	1.012637
C67	C	1.258378	-0.031162	0.653850
C68	C	1.758378	0.468838	1.153850
C69	C	1.258361	-0.140883	0.653839
C70	C	1.758361	0.359117	1.153839
C71	C	1.098368	-0.185551	0.442002
C72	C	1.598368	0.314449	0.942002
C73	C	1.045042	-0.127297	0.371398
C74	C	1.545042	0.372703	0.871398
C75	C	1.045054	-0.017573	0.371414
C76	C	1.545054	0.482427	0.871414
C77	C	1.098391	0.033895	0.442033
C78	C	1.598391	0.533895	0.942033
C79	C	1.204975	-0.583181	0.310227
C80	C	1.704975	-0.083181	0.810227
C81	C	1.205112	-0.582939	0.193459
C82	C	1.705112	-0.082939	0.693459
C83	C	1.258406	-0.519221	1.032290
C84	C	1.758406	-0.019221	1.532290
C85	C	1.258426	-0.519184	1.142015
C86	C	1.758426	-0.019184	1.642015
C87	C	1.151768	-0.646727	1.135172
C88	C	1.651768	-0.146727	1.635172
C89	C	1.151745	-0.646757	1.025448
C90	C	1.651745	-0.146757	1.525448
C91	C	1.311730	-0.455470	0.980852
C92	C	1.811730	0.044530	1.480852
C93	C	1.365073	-0.391681	1.039132
C94	C	1.865073	0.108319	1.539132
C95	C	1.365092	-0.391644	1.148857
C96	C	1.865092	0.108356	1.648857
C97	C	1.311770	-0.455397	1.200303
C98	C	1.811770	0.044603	1.700303
H99	H	0.690472	-0.495549	0.495834
H100	H	1.190472	0.004451	0.995834
N101	N	0.731888	-0.689350	0.689074
N102	N	1.231888	-0.189350	1.189074
H103	H	0.716778	-0.763450	0.671687
H104	H	1.216778	-0.263450	1.171687
H105	H	0.716808	-0.672099	0.763204
H106	H	1.216808	-0.172099	1.263204
H107	H	1.001612	-0.169209	0.313910
H108	H	1.501612	0.330791	0.813910
H109	H	1.001628	0.029857	0.313933
H110	H	1.501628	0.529857	0.813933
H111	H	1.311722	-0.455495	0.891509
H112	H	1.811722	0.044505	1.391509
N113	N	1.422584	-0.322927	0.983649
N114	N	1.922584	0.177073	1.483649
H115	H	1.456375	-0.282512	1.037221
H116	H	1.956375	0.217488	1.537221
H117	H	1.388647	-0.272146	0.935955
H118	H	1.888647	0.227854	1.435955
H119	H	1.098354	-0.274893	0.441980
H120	H	1.598354	0.225107	0.941980
H121	H	1.098394	0.123240	0.442042
H122	H	1.598394	0.623240	0.942042
N123	N	1.094271	-0.715498	1.190658
N124	N	1.594271	-0.215498	1.690658
H125	H	1.060478	-0.755912	1.137088
H126	H	1.560478	-0.255912	1.637088
H127	H	1.055704	-0.670249	1.233725
H128	H	1.555704	-0.170249	1.733725
N129	N	1.315901	0.024345	0.730014
N130	N	1.815901	0.524345	1.230014
H131	H	1.307821	0.102692	0.719308
H132	H	1.807821	0.602692	1.219308
H133	H	1.375439	0.001342	0.717474
H134	H	1.875439	0.501342	1.217474
H135	H	1.301771	-0.188315	0.711337
H136	H	1.801771	0.311685	1.211337
H137	H	1.408520	-0.339696	1.196306
H138	H	1.908520	0.160304	1.696306
N139	N	1.311781	-0.455349	1.318649
N140	N	1.811781	0.044651	1.818649
H141	H	1.353658	-0.405263	1.347766
H142	H	1.853658	0.094737	1.847766
H143	H	1.327076	-0.528427	1.345970
H144	H	1.827076	-0.028427	1.845970
N145	N	1.094217	-0.715550	0.962580
N146	N	1.594217	-0.215550	1.462580
H147	H	1.060445	-0.755938	1.011813
H148	H	1.560445	-0.255938	1.511813
H149	H	1.128140	-0.766356	0.919217
H150	H	1.628140	-0.266356	1.419217
