data_functionalizedCrystal
_audit_creation_method	'MofGen! by Chris Wilmer'
_symmetry_space_group_name_H-M	'P1'
_symmetry_Int_Tables_number	1
_symmetry_cell_setting	triclinic
loop_
_symmetry_equiv_pos_as_xyz
  x,y,z
_cell_length_a	16.120484
_cell_length_b	16.120542
_cell_length_c	15.296720
_cell_angle_alpha	82.715251
_cell_angle_beta	101.986518
_cell_angle_gamma	89.836765
loop_
_atom_site_label
_atom_site_type_symbol
_atom_site_fract_x
_atom_site_fract_y
_atom_site_fract_z
Zn1	Zn	-0.486515	-1.153843	-0.599991
Zn2	Zn	0.013485	-0.653843	-0.099991
Zn3	Zn	-0.603855	-1.170753	-0.456499
Zn4	Zn	-0.103855	-0.670753	0.043501
Zn5	Zn	-0.455450	-1.041400	-0.441289
Zn6	Zn	0.044550	-0.541400	0.058711
Zn7	Zn	-0.618332	-1.007834	-0.599162
Zn8	Zn	-0.118332	-0.507834	-0.099162
O9	O	-0.541038	-1.093457	-0.524235
O10	O	-0.041038	-0.593457	-0.024235
O11	O	-0.509023	-1.271325	-0.587669
O12	O	-0.009023	-0.771325	-0.087669
O13	O	-0.565109	-1.174718	-0.328359
O14	O	-0.065109	-0.674718	0.171641
O15	O	-0.342298	-1.063286	-0.456322
O16	O	0.157702	-0.563286	0.043678
O17	O	-0.595232	-1.283749	-0.482246
O18	O	-0.095232	-0.783749	0.017754
O19	O	-0.365121	-1.145898	-0.572920
O20	O	0.134879	-0.645898	-0.072920
O21	O	-0.456077	-1.079683	-0.317184
O22	O	0.043923	-0.579683	0.182816
O23	O	-0.470115	-0.921708	-0.455519
O24	O	0.029885	-0.421708	0.044481
O25	O	-0.619906	-1.006078	-0.725395
O26	O	-0.119906	-0.506078	-0.225395
O27	O	-0.589784	-0.897047	-0.571508
O28	O	-0.089784	-0.397047	-0.071508
O29	O	-0.523061	-1.113350	-0.726004
O30	O	-0.023061	-0.613350	-0.226004
O31	O	-0.723049	-1.142170	-0.481442
O32	O	-0.223049	-0.642170	0.018558
O33	O	-0.733686	-1.022475	-0.586256
O34	O	-0.233686	-0.522475	-0.086256
C35	C	-0.528150	-0.879497	-0.511773
C36	C	-0.028150	-0.379497	-0.011773
C37	C	-0.522660	-0.787958	-0.506465
C38	C	-0.022660	-0.287958	-0.006465
C39	C	-0.569485	-0.567398	-0.551723
C40	C	-0.069485	-0.067398	-0.051723
C41	C	-0.512644	-0.620361	-0.496771
C42	C	-0.012644	-0.120361	0.003229
C43	C	-0.518219	-0.713621	-0.502166
C44	C	-0.018219	-0.213621	-0.002166
C45	C	-0.563912	-0.474130	-0.546329
C46	C	-0.063912	0.025870	-0.046329
C47	C	-0.758780	-1.080534	-0.535431
C48	C	-0.258780	-0.580534	-0.035431
C49	C	-0.851939	-1.075076	-0.540255
C50	C	-0.351939	-0.575076	-0.040255
C51	C	-1.022506	-1.065112	-0.549081
C52	C	-0.522506	-0.565112	-0.049081
C53	C	-1.058742	-1.121947	-0.499413
C54	C	-0.558742	-0.621947	0.000587
C55	C	-1.153651	-1.116404	-0.504324
C56	C	-0.653651	-0.616404	-0.004324
C57	C	-0.927588	-1.070655	-0.544171
C58	C	-0.427588	-0.570655	-0.044171
C59	C	-0.322451	-1.106450	-0.513017
C60	C	0.177549	-0.606450	-0.013017
C61	C	-0.229302	-1.111987	-0.508236
C62	C	0.270698	-0.611987	-0.008236
C63	C	-0.576564	-1.054083	-0.759316
C64	C	-0.076564	-0.554083	-0.259316
C65	C	-0.591702	-1.037304	-0.859493
C66	C	-0.091702	-0.537304	-0.359493
C67	C	-0.553971	-0.308256	-0.536734
C68	C	-0.053971	0.191744	-0.036734
C69	C	-0.559466	-0.399796	-0.542027
C70	C	-0.059466	0.100204	-0.042027
C71	C	-0.432694	-1.213418	-1.143146
C72	C	0.067306	-0.713418	-0.643146
C73	C	-0.418472	-1.229187	-1.049024
C74	C	0.081528	-0.729187	-0.549024
C75	C	-0.461778	-1.181218	-1.001637
C76	C	0.038222	-0.681218	-0.501637
C77	C	-0.519309	-1.117476	-1.048380
C78	C	-0.019309	-0.617476	-0.548380
C79	C	-0.533537	-1.101709	-1.142511
C80	C	-0.033537	-0.601709	-0.642511
C81	C	-0.562622	-1.069509	-1.001002
C82	C	-0.062622	-0.569509	-0.501002
C83	C	-0.620153	-1.005768	-1.047745
C84	C	-0.120153	-0.505768	-0.547745
C85	C	-0.634378	-0.990003	-1.141867
C86	C	-0.134378	-0.490003	-0.641867
C87	C	-0.591072	-1.037973	-1.189255
C88	C	-0.091072	-0.537973	-0.689255
C89	C	-0.548393	-1.085276	-0.906871
C90	C	-0.048393	-0.585276	-0.406871
C91	C	-0.649237	-0.973568	-0.906237
C92	C	-0.149237	-0.473568	-0.406237
C93	C	-0.663459	-0.957798	-1.000358
C94	C	-0.163459	-0.457798	-0.500358
C95	C	-0.505594	-1.132729	-0.290069
C96	C	-0.005594	-0.632729	0.209931
C97	C	-0.490228	-1.149681	-0.189889
C98	C	0.009772	-0.649681	0.310111
H99	H	-1.018485	-1.174769	-0.453202
H100	H	-0.518485	-0.674769	0.046798
H101	H	-0.681231	-0.938107	-1.179924
H102	H	-0.181231	-0.438107	-0.679924
C103	C	-1.076877	-0.993755	-0.611501
C104	C	-0.576877	-0.493755	-0.111501
H105	H	-1.041664	-0.958823	-0.642024
H106	H	-0.541664	-0.458823	-0.142024
H107	H	-1.103701	-0.961726	-0.576635
H108	H	-0.603701	-0.461726	-0.076635
H109	H	-1.118811	-1.016697	-0.654366
H110	H	-0.618811	-0.516697	-0.154366
H111	H	-0.501550	-1.137175	-0.868822
H112	H	-0.001550	-0.637175	-0.368822
C113	C	-0.640882	-0.600753	-0.620743
C114	C	-0.140882	-0.100753	-0.120743
H115	H	-0.675814	-0.555260	-0.654518
H116	H	-0.175814	-0.055260	-0.154518
H117	H	-0.674088	-0.637940	-0.589974
H118	H	-0.174088	-0.137940	-0.089974
H119	H	-0.616787	-0.629634	-0.660331
H120	H	-0.116787	-0.129634	-0.160331
H121	H	-0.450195	-1.194061	-0.924999
H122	H	0.049805	-0.694061	-0.424999
C123	C	-0.441245	-0.587003	-0.427746
C124	C	0.058755	-0.087003	0.072254
H125	H	-0.446819	-0.527788	-0.433126
H126	H	0.053181	-0.027788	0.066874
H127	H	-0.387788	-0.602164	-0.438938
H128	H	0.112212	-0.102164	0.061062
H129	H	-0.445094	-0.610465	-0.368585
H130	H	0.054906	-0.110465	0.131415
C131	C	-0.385063	-1.266173	-1.195271
C132	C	0.114937	-0.766173	-0.695271
H133	H	-0.401774	-1.247649	-1.258022
H134	H	0.098226	-0.747649	-0.758022
H135	H	-0.398327	-1.323360	-1.183700
H136	H	0.101673	-0.823360	-0.683700
H137	H	-0.325694	-1.260045	-1.176258
H138	H	0.174306	-0.760045	-0.676258
H139	H	-0.710301	-0.905899	-1.038430
H140	H	-0.210301	-0.405899	-0.538430
C141	C	-0.355192	-1.299294	-0.997613
C142	C	0.144808	-0.799294	-0.497613
H143	H	-0.331432	-1.325600	-1.039313
H144	H	0.168568	-0.825600	-0.539313
H145	H	-0.383863	-1.339419	-0.964630
H146	H	0.116137	-0.839419	-0.464630
H147	H	-0.311225	-1.276110	-0.957187
H148	H	0.188775	-0.776110	-0.457187
C149	C	-0.606715	-1.020628	-1.292789
C150	C	-0.106715	-0.520628	-0.792789
H151	H	-0.572684	-1.058328	-1.314312
H152	H	-0.072684	-0.558328	-0.814312
H153	H	-0.592241	-0.964781	-1.310242
H154	H	-0.092241	-0.464781	-0.810242
H155	H	-0.664874	-1.028094	-1.317689
H156	H	-0.164874	-0.528094	-0.817689
C157	C	-0.696873	-0.920797	-0.854121
C158	C	-0.196873	-0.420797	-0.354121
H159	H	-0.680153	-0.939309	-0.791368
H160	H	-0.180153	-0.439309	-0.291368
H161	H	-0.756239	-0.926915	-0.873133
H162	H	-0.256239	-0.426915	-0.373133
H163	H	-0.683599	-0.863608	-0.865694
H164	H	-0.183599	-0.363608	-0.365694
