data_functionalizedCrystal
_audit_creation_method	'MofGen! by Chris Wilmer'
_symmetry_space_group_name_H-M	'P1'
_symmetry_Int_Tables_number	1
_symmetry_cell_setting	triclinic
loop_
_symmetry_equiv_pos_as_xyz
  x,y,z
_cell_length_a	14.044209
_cell_length_b	11.792241
_cell_length_c	10.868271
_cell_angle_alpha	90.005281
_cell_angle_beta	89.998683
_cell_angle_gamma	88.690684
loop_
_atom_site_label
_atom_site_type_symbol
_atom_site_fract_x
_atom_site_fract_y
_atom_site_fract_z
O1	O	-1.259115	-0.273758	-0.102175
O2	O	-0.759115	0.226242	0.397825
O3	O	-0.983094	-0.263882	-0.102210
O4	O	-0.483094	0.236118	0.397790
O5	O	-1.127803	-0.104278	-0.102183
O6	O	-0.627803	0.395722	0.397817
O7	O	-1.114406	-0.433362	-0.102202
O8	O	-0.614406	0.066638	0.397798
O9	O	-1.127791	-0.104270	0.102462
O10	O	-0.627791	0.395730	0.602462
O11	O	-0.983082	-0.263874	0.102435
O12	O	-0.483082	0.236126	0.602435
O13	O	-1.259103	-0.273750	0.102470
O14	O	-0.759103	0.226250	0.602470
Zn15	Zn	-1.121091	-0.268811	0.134944
Zn16	Zn	-0.621091	0.231189	0.634944
Zn17	Zn	-1.121106	-0.268821	-0.134684
Zn18	Zn	-0.621106	0.231179	0.365316
O19	O	-1.114394	-0.433354	0.102443
O20	O	-0.614394	0.066646	0.602443
C21	C	-0.947752	-0.259554	0.000108
C22	C	-0.447752	0.240446	0.500108
C23	C	-0.842459	-0.246656	0.000095
C24	C	-0.342459	0.253344	0.500095
N25	N	-1.121087	-0.268804	0.318958
N26	N	-0.621087	0.231196	0.818958
C27	C	-1.126955	-0.061905	0.000139
C28	C	-0.626955	0.438095	0.500139
C29	C	-1.124436	0.064346	0.000138
C30	C	-0.624436	0.564346	0.500138
C31	C	-0.649677	-0.223076	0.000118
C32	C	-0.149677	0.276924	0.500118
C33	C	-0.592514	-0.314561	0.000117
C34	C	-0.092514	0.185439	0.500117
C35	C	-0.485243	-0.301441	0.000130
C36	C	0.014757	0.198559	0.500130
C37	C	-0.756958	-0.236194	0.000105
C38	C	-0.256958	0.263806	0.500105
C39	C	-0.294445	-0.278081	0.000146
C40	C	0.205555	0.221919	0.500146
C41	C	-0.399736	-0.290986	0.000140
C42	C	0.100264	0.209014	0.500140
C43	C	-1.115242	-0.475728	0.000119
C44	C	-0.615242	0.024272	0.500119
C45	C	-1.117760	-0.601978	0.000112
C46	C	-0.617760	-0.101978	0.500112
C47	C	-1.119805	0.295493	0.000116
C48	C	-0.619805	0.795493	0.500116
C49	C	-1.122378	0.166866	0.000128
C50	C	-0.622378	0.666866	0.500128
N51	N	-1.121118	-0.268820	-0.318698
N52	N	-0.621118	0.231180	0.181302
C53	C	-1.121101	-0.268819	0.569964
C54	C	-0.621101	0.231181	1.069964
C55	C	-1.121090	-0.268813	0.430287
C56	C	-0.621090	0.231187	0.930287
H57	H	-0.624138	-0.402738	0.000107
H58	H	-0.124138	0.097262	0.500107
Br59	Br	-0.596970	-0.076116	0.000132
Br60	Br	-0.096970	0.423884	0.500132
