data_functionalizedCrystal
_audit_creation_method	'MofGen! by Chris Wilmer'
_symmetry_space_group_name_H-M	'P1'
_symmetry_Int_Tables_number	1
_symmetry_cell_setting	triclinic
loop_
_symmetry_equiv_pos_as_xyz
  x,y,z
_cell_length_a	6.817900
_cell_length_b	9.514063
_cell_length_c	9.170709
_cell_angle_alpha	80.289563
_cell_angle_beta	112.460645
_cell_angle_gamma	118.843314
loop_
_atom_site_label
_atom_site_type_symbol
_atom_site_fract_x
_atom_site_fract_y
_atom_site_fract_z
V1	V	-4.167778	-0.153165	-0.487207
O2	O	-4.065291	0.078225	-0.476666
O3	O	-4.202309	-0.371856	-0.485093
O4	O	-4.142567	-0.119715	-0.699139
O5	O	-4.125446	-0.175662	-0.261138
V6	V	-4.637656	-0.129162	-0.460019
O7	O	-4.458969	-0.205818	-0.546845
O8	O	-4.796662	-0.076510	-0.400381
O9	O	-4.379919	0.089528	-0.462134
O10	O	-4.857540	-0.360552	-0.470560
O11	O	-4.797385	-0.106666	-0.686088
O12	O	-4.439661	-0.162613	-0.248087
C13	C	-4.066734	-0.426139	-0.477721
C14	C	-4.176408	-0.604722	-0.477405
C15	C	-3.990525	-0.104507	-0.750757
C16	C	-4.051744	-0.078605	-0.924020
C17	C	-4.178838	0.143803	-0.469501
C18	C	-4.048404	0.322385	-0.469827
C19	C	-4.255045	-0.177827	-0.196462
C20	C	-4.173062	-0.203721	-0.023197
H21	H	-3.854895	-0.603393	-0.463577
C22	C	-4.172483	-0.368451	-0.793944
C23	C	-4.250063	-0.375091	-0.958893
H24	H	-4.220008	-0.474250	-0.754242
H25	H	-4.241465	-0.317723	-0.762967
H26	H	-4.003353	-0.308895	-0.752756
H27	H	-4.419196	-0.434637	-1.000082
H28	H	-4.181091	-0.425842	-0.989884
C29	C	-4.052299	0.086140	-1.153278
C30	C	-3.974729	0.092775	-0.988328
H31	H	-4.004739	0.191942	-1.192975
H32	H	-4.221408	0.026605	-1.194469
H33	H	-3.983317	0.035395	-1.184253
H34	H	-4.043725	0.143509	-0.957353
H35	H	-3.805587	0.152333	-0.947122
H36	H	-4.369892	-0.678935	-0.483632
