data_functionalizedCrystal
_audit_creation_method	'MofGen! by Chris Wilmer'
_symmetry_space_group_name_H-M	'P1'
_symmetry_Int_Tables_number	1
_symmetry_cell_setting	triclinic
loop_
_symmetry_equiv_pos_as_xyz
  x,y,z
_cell_length_a	17.077404
_cell_length_b	16.625545
_cell_length_c	17.077396
_cell_angle_alpha	89.971239
_cell_angle_beta	89.982756
_cell_angle_gamma	90.025783
loop_
_atom_site_label
_atom_site_type_symbol
_atom_site_fract_x
_atom_site_fract_y
_atom_site_fract_z
Zn1	Zn	1.200023	-0.320990	-0.443846
Zn2	Zn	1.700023	0.179010	0.056154
Zn3	Zn	1.199929	-0.455835	-0.312581
Zn4	Zn	1.699929	0.044165	0.187419
Zn5	Zn	1.068760	-0.321020	-0.312594
Zn6	Zn	1.568760	0.178980	0.187406
Zn7	Zn	1.068716	-0.455785	-0.443805
Zn8	Zn	1.568716	0.044215	0.056195
O9	O	1.134357	-0.388408	-0.378206
O10	O	1.634357	0.111592	0.121794
O11	O	1.309857	-0.338886	-0.426445
O12	O	1.809857	0.161114	0.073555
O13	O	1.182508	-0.437985	-0.202736
O14	O	1.682508	0.062015	0.297264
O15	O	1.086229	-0.208184	-0.330027
O16	O	1.586229	0.291816	0.169973
O17	O	1.309788	-0.437956	-0.330005
O18	O	1.809788	0.062044	0.169995
O19	O	1.182668	-0.208162	-0.426457
O20	O	1.682668	0.291838	0.073543
O21	O	1.086138	-0.338937	-0.202745
O22	O	1.586138	0.161063	0.297255
O23	O	0.958907	-0.338889	-0.329987
O24	O	1.458907	0.161111	0.170013
O25	O	1.086155	-0.437871	-0.553657
O26	O	1.586155	0.062129	-0.053657
O27	O	0.958875	-0.437900	-0.426387
O28	O	1.458875	0.062100	0.073613
O29	O	1.182626	-0.338837	-0.553687
O30	O	1.682626	0.161163	-0.053687
O31	O	1.182466	-0.568661	-0.329966
O32	O	1.682466	-0.068661	0.170034
O33	O	1.086064	-0.568624	-0.426375
O34	O	1.586064	-0.068624	0.073625
C35	C	0.930409	-0.388393	-0.378185
C36	C	1.430409	0.111607	0.121815
C37	C	0.843159	-0.388406	-0.378194
C38	C	1.343159	0.111594	0.121806
C39	C	1.134271	-0.597898	-0.378182
C40	C	1.634271	-0.097898	0.121818
C41	C	1.134307	-0.687520	-0.378197
C42	C	1.634307	-0.187520	0.121803
C43	C	0.802173	-0.440039	-0.428309
C44	C	1.302173	0.059961	0.071691
C45	C	0.720192	-0.440041	-0.428322
C46	C	1.220192	0.059959	0.071678
C47	C	0.679200	-0.388413	-0.378214
C48	C	1.179200	0.111587	0.121786
C49	C	0.720192	-0.336775	-0.328097
C50	C	1.220192	0.163225	0.171903
C51	C	0.802171	-0.336769	-0.328089
C52	C	1.302171	0.163231	0.171911
C53	C	0.549322	-0.336791	-0.328116
C54	C	1.049322	0.163209	0.171884
C55	C	0.467337	-0.336797	-0.328123
C56	C	0.967337	0.163203	0.171877
C57	C	0.467343	-0.440062	-0.428348
C58	C	0.967343	0.059938	0.071652
C59	C	0.549322	-0.440057	-0.428340
C60	C	1.049322	0.059943	0.071660
C61	C	0.590309	-0.388419	-0.378222
C62	C	1.090309	0.111581	0.121778
C63	C	1.134337	-0.760302	-0.378213
C64	C	1.634337	-0.260302	0.121787
C65	C	1.134383	-0.851610	-0.378230
C66	C	1.634383	-0.351610	0.121770
C67	C	1.134424	-0.924387	-0.378240
C68	C	1.634424	-0.424387	0.121760
C69	C	1.134469	-1.015701	-0.378256
C70	C	1.634469	-0.515701	0.121744
C71	C	1.339101	-0.388423	-0.378228
C72	C	1.839101	0.111577	0.121772
C73	C	1.426351	-0.388429	-0.378238
C74	C	1.926351	0.111571	0.121762
C75	C	1.134396	-0.388345	-0.582951
C76	C	1.634396	0.111655	-0.082951
C77	C	1.134413	-0.388319	-0.670200
C78	C	1.634413	0.111681	-0.170200
C79	C	1.134464	-0.178099	-0.378248
C80	C	1.634464	0.321901	0.121752
C81	C	1.134509	-0.088478	-0.378266
C82	C	1.634509	0.411522	0.121734
C83	C	1.084249	-0.336738	-0.711195
C84	C	1.584249	0.163262	-0.211195
C85	C	1.084262	-0.336720	-0.793175
C86	C	1.584262	0.163280	-0.293175
C87	C	1.134443	-0.388278	-0.834160
C88	C	1.634443	0.111722	-0.334160
C89	C	1.184610	-0.439864	-0.793160
C90	C	1.684610	0.060136	-0.293160
C91	C	1.184592	-0.439886	-0.711181
C92	C	1.684592	0.060114	-0.211181
C93	C	1.184644	-0.439814	-0.964030
C94	C	1.684644	0.060186	-0.464030
C95	C	1.184662	-0.439791	-1.046015
C96	C	1.684662	0.060209	-0.546015
C97	C	1.084313	-0.336648	-1.046025
C98	C	1.584313	0.163352	-0.546025
C99	C	1.084296	-0.336670	-0.964046
C100	C	1.584296	0.163330	-0.464046
C101	C	1.134463	-0.388255	-0.923051
C102	C	1.634463	0.111745	-0.423051
C103	C	1.134363	-0.388412	-0.174258
C104	C	1.634363	0.111588	0.325742
C105	C	1.134498	-0.388211	-0.087009
C106	C	1.634498	0.111789	0.412991
H107	H	0.686825	-0.482086	-0.469129
H108	H	1.186825	0.017914	0.030871
H109	H	0.582690	-0.294734	-0.287311
H110	H	1.082690	0.205266	0.212689
H111	H	0.835543	-0.482083	-0.469109
H112	H	1.335543	0.017917	0.030891
N113	N	0.846375	-0.281074	-0.274038
N114	N	1.346375	0.218926	0.225962
H115	H	0.832083	-0.293522	-0.217931
H116	H	1.332083	0.206478	0.282069
H117	H	0.904514	-0.288924	-0.281703
H118	H	1.404514	0.211076	0.218297
H119	H	0.686809	-0.294735	-0.287303
H120	H	1.186809	0.205265	0.212697
H121	H	1.043389	-0.294749	-0.677831
H122	H	1.543389	0.205251	-0.177831
H123	H	0.582697	-0.482101	-0.469138
H124	H	1.082697	0.017899	0.030862
H125	H	1.043437	-0.294682	-0.930678
H126	H	1.543437	0.205318	-0.430678
H127	H	0.433969	-0.482105	-0.469159
H128	H	0.933969	0.017895	0.030841
N129	N	0.423120	-0.281114	-0.274081
N130	N	0.923120	0.218886	0.225919
H131	H	0.461523	-0.248396	-0.242334
H132	H	0.961523	0.251604	0.257666
H133	H	0.389131	-0.243850	-0.306107
H134	H	0.889131	0.256150	0.193893
N135	N	1.030153	-0.281090	-0.837392
N136	N	1.530153	0.218910	-0.337392
H137	H	0.998364	-0.248429	-0.798989
H138	H	1.498364	0.251571	-0.298989
H139	H	1.062132	-0.243772	-0.871420
H140	H	1.562132	0.256228	-0.371420
N141	N	1.030210	-0.281000	-1.090234
N142	N	1.530210	0.219000	-0.590234
H143	H	1.037833	-0.288808	-1.148386
H144	H	1.537833	0.211192	-0.648386
H145	H	0.974136	-0.293538	-1.075897
H146	H	1.474136	0.206462	-0.575897
N147	N	1.238786	-0.495398	-1.090223
N148	N	1.738786	0.004602	-0.590223
H149	H	1.270561	-0.528084	-1.051815
H150	H	1.770561	-0.028084	-0.551815
H151	H	1.206818	-0.532694	-1.124228
H152	H	1.706818	-0.032694	-0.624228
H153	H	1.225464	-0.481848	-0.826536
H154	H	1.725464	0.018152	-0.326536
N155	N	1.238759	-0.495450	-0.919820
N156	N	1.738759	0.004550	-0.419820
H157	H	1.275144	-0.462691	-0.885819
H158	H	1.775144	0.037309	-0.385819
H159	H	1.206782	-0.532816	-0.885839
H160	H	1.706782	-0.032816	-0.385839
N161	N	1.238695	-0.495523	-0.666964
N162	N	1.738695	0.004477	-0.166964
H163	H	1.270487	-0.528181	-0.705367
H164	H	1.770487	-0.028181	-0.205367
H165	H	1.275033	-0.462718	-0.632959
H166	H	1.775033	0.037282	-0.132959
