data_functionalizedCrystal
_audit_creation_method	'MofGen! by Chris Wilmer'
_symmetry_space_group_name_H-M	'P1'
_symmetry_Int_Tables_number	1
_symmetry_cell_setting	triclinic
loop_
_symmetry_equiv_pos_as_xyz
  x,y,z
_cell_length_a	6.817900
_cell_length_b	7.190339
_cell_length_c	12.530034
_cell_angle_alpha	82.934895
_cell_angle_beta	90.001208
_cell_angle_gamma	119.388276
loop_
_atom_site_label
_atom_site_type_symbol
_atom_site_fract_x
_atom_site_fract_y
_atom_site_fract_z
V1	V	3.965248	0.291697	-0.331756
O2	O	3.863916	-0.017521	-0.326217
O3	O	4.003759	0.581757	-0.328741
O4	O	3.850521	0.285673	-0.476787
O5	O	4.018215	0.280612	-0.177146
V6	V	4.446208	0.254893	-0.313354
O7	O	4.232127	0.372431	-0.372123
O8	O	4.629526	0.174159	-0.272988
O9	O	4.184490	-0.035167	-0.316369
O10	O	4.664937	0.564111	-0.318894
O11	O	4.510637	0.265978	-0.467965
O12	O	4.337728	0.260917	-0.168324
C13	C	3.872064	0.652517	-0.323320
C14	C	3.986508	0.894092	-0.321796
C15	C	3.676587	0.274820	-0.512161
C16	C	3.664418	0.271754	-0.632948
C17	C	4.175002	0.271765	-0.132944
C18	C	4.166021	0.274826	-0.012157
V19	V	3.894824	0.291710	0.168248
O20	O	3.830390	0.280622	0.322858
O21	O	4.003310	0.285690	0.023218
O22	O	4.156537	0.581772	0.171264
O23	O	3.676102	-0.017510	0.173787
V24	V	3.375763	0.254892	0.186648
O25	O	3.711502	0.372438	0.127881
O26	O	3.108882	0.174152	0.227013
O27	O	3.490488	0.260918	0.331679
O28	O	3.322799	0.265976	0.032037
O29	O	3.477087	0.564108	0.181109
O30	O	3.337260	-0.035164	0.183633
C31	C	4.361468	0.652525	0.176689
C32	C	4.497063	0.894099	0.178215
