data_functionalizedCrystal
_audit_creation_method	'MofGen! by Chris Wilmer'
_symmetry_space_group_name_H-M	'P1'
_symmetry_Int_Tables_number	1
_symmetry_cell_setting	triclinic
loop_
_symmetry_equiv_pos_as_xyz
  x,y,z
_cell_length_a	12.811438
_cell_length_b	13.262508
_cell_length_c	11.892095
_cell_angle_alpha	109.778227
_cell_angle_beta	80.666371
_cell_angle_gamma	85.740203
loop_
_atom_site_label
_atom_site_type_symbol
_atom_site_fract_x
_atom_site_fract_y
_atom_site_fract_z
O1	O	1.407450	0.127221	-0.199160
O2	O	1.099293	0.145231	-0.162036
O3	O	1.264556	-0.020024	-0.229780
O4	O	1.242187	0.292475	-0.131416
O5	O	1.250777	-0.006266	-0.036131
O6	O	1.085514	0.158988	0.031613
O7	O	1.393671	0.140978	-0.005510
Zn8	Zn	1.237405	0.152167	0.043797
Zn9	Zn	1.255559	0.134041	-0.211344
O10	O	1.228408	0.306233	0.062233
C11	C	1.053022	0.151522	-0.061355
C12	C	0.935676	0.149758	-0.049870
C13	C	0.762772	0.154772	0.071871
C14	C	0.873028	0.156430	0.061084
C15	C	0.888059	0.141431	-0.150043
C16	C	0.777803	0.139773	-0.139257
C17	C	0.715163	0.146442	-0.028296
C18	C	0.604906	0.144777	-0.017513
C19	C	0.619937	0.129786	-0.228638
C20	C	0.730194	0.131444	-0.239424
C21	C	1.257680	-0.053126	-0.145250
C22	C	1.257706	-0.172255	-0.181884
C23	C	1.227731	-0.478076	0.137099
C24	C	1.227698	-0.366147	0.171520
C25	C	1.235200	-0.317669	0.083172
C26	C	1.242735	-0.381130	-0.039603
C27	C	1.242760	-0.493069	-0.074027
C28	C	1.250229	-0.332662	-0.127954
C29	C	1.257765	-0.396123	-0.250729
C30	C	1.257790	-0.508051	-0.285147
C31	C	1.250288	-0.556530	-0.196799
C32	C	1.250205	-0.220723	-0.093530
C33	C	1.265234	-0.235716	-0.304656
C34	C	1.265267	-0.347645	-0.339077
C35	C	1.439943	0.134687	-0.106194
C36	C	1.557289	0.136450	-0.117687
C37	C	1.235284	0.339334	-0.022299
C38	C	1.235258	0.458463	0.014327
N39	N	1.225023	0.164537	0.217923
N40	N	1.267950	0.121663	-0.385474
C41	C	1.354112	0.035526	0.401678
C42	C	1.345464	0.044181	0.523567
C43	C	1.199076	0.190494	0.583591
C44	C	1.207723	0.181840	0.461702
C45	C	1.285245	0.104355	0.370749
C46	C	1.293897	0.095706	0.248859
C47	C	1.147504	0.242014	0.308884
C48	C	1.138857	0.250668	0.430773
H49	H	0.711768	0.160208	0.162221
H50	H	1.091431	0.298061	0.283691
C51	C	1.219481	-0.531404	0.234265
H52	H	1.220581	-0.607156	0.196176
H53	H	1.154623	-0.501614	0.292184
H54	H	1.278167	-0.518355	0.274372
H55	H	0.911786	0.163216	0.142652
H56	H	1.235171	-0.226530	0.111206
H57	H	1.250320	-0.647672	-0.224819
C58	C	1.241920	-0.150923	0.041510
H59	H	1.242970	-0.077316	0.049365
H60	H	1.300602	-0.174558	0.070342
H61	H	1.177060	-0.157822	0.088137
H62	H	0.939078	0.136012	-0.240379
C63	C	1.219421	-0.296349	0.306559
H64	H	1.214969	-0.341251	0.354244
H65	H	1.157333	-0.244002	0.333282
H66	H	1.280877	-0.260746	0.315465
H67	H	0.781209	0.126019	-0.329764
C68	C	0.567566	0.120627	-0.338825
H69	H	0.492928	0.120600	-0.316511
H70	H	0.597898	0.055252	-0.404143
H71	H	0.579547	0.180394	-0.363785
H72	H	1.263916	-0.559718	-0.385117
C73	C	1.273544	-0.417458	-0.474121
H74	H	1.272477	-0.491060	-0.481961
H75	H	1.338393	-0.410565	-0.520761
H76	H	1.214850	-0.393826	-0.502947
C77	C	1.273495	-0.182402	-0.401846
H78	H	1.272414	-0.106653	-0.363763
H79	H	1.214822	-0.195452	-0.441962
H80	H	1.338364	-0.212197	-0.459758
C81	C	1.379161	0.010474	0.148813
H82	H	1.418929	-0.029285	0.184694
H83	H	1.425869	0.045587	0.108643
H84	H	1.345280	-0.037483	0.091389
C85	C	1.439382	-0.049698	0.301629
H86	H	1.479157	-0.089453	0.337507
H87	H	1.486081	-0.014575	0.261463
H88	H	1.405507	-0.097659	0.244203
C89	C	1.421220	-0.031527	0.557586
H90	H	1.468629	-0.078906	0.485959
H91	H	1.380604	-0.072730	0.595258
H92	H	1.461182	0.010351	0.612517
H93	H	1.075737	0.313753	0.504839
C94	C	0.536002	0.152118	0.104538
H95	H	0.580150	0.157328	0.162651
H96	H	0.501848	0.089219	0.092968
H97	H	0.483509	0.214359	0.133306
C98	C	1.113810	0.275716	0.683647
H99	H	1.118529	0.271011	0.760668
H100	H	1.044866	0.262822	0.667372
H101	H	1.125446	0.345899	0.684644
