data_functionalizedCrystal
_audit_creation_method	'MofGen! by Chris Wilmer'
_symmetry_space_group_name_H-M	'P1'
_symmetry_Int_Tables_number	1
_symmetry_cell_setting	triclinic
loop_
_symmetry_equiv_pos_as_xyz
  x,y,z
_cell_length_a	16.109301
_cell_length_b	16.109301
_cell_length_c	15.186229
_cell_angle_alpha	89.994833
_cell_angle_beta	89.999006
_cell_angle_gamma	83.461532
loop_
_atom_site_label
_atom_site_type_symbol
_atom_site_fract_x
_atom_site_fract_y
_atom_site_fract_z
O1	O	1.103130	0.106867	-0.073183
O2	O	1.436464	0.440200	0.260150
O3	O	1.769797	0.773534	0.593484
O4	O	0.861069	0.120166	-0.073196
O5	O	1.194402	0.453499	0.260138
O6	O	1.527735	0.786833	0.593471
O7	O	0.988749	-0.007514	-0.073180
O8	O	1.322083	0.325819	0.260153
O9	O	1.655416	0.659152	0.593487
O10	O	0.975450	0.234548	-0.073199
O11	O	1.308783	0.567881	0.260135
O12	O	1.642117	0.901214	0.593468
O13	O	0.988741	-0.007516	0.073277
O14	O	1.322074	0.325817	0.406611
O15	O	1.655407	0.659150	0.739944
O16	O	0.861060	0.120164	0.073262
O17	O	1.194393	0.453498	0.406595
O18	O	1.527727	0.786831	0.739928
O19	O	1.103122	0.106865	0.073274
O20	O	1.436455	0.440199	0.406608
O21	O	1.769789	0.773532	0.739941
Zn22	Zn	0.982090	0.113515	0.096521
Zn23	Zn	1.315423	0.446848	0.429854
Zn24	Zn	1.648756	0.780181	0.763188
Zn25	Zn	0.982101	0.113517	-0.096443
Zn26	Zn	1.315434	0.446850	0.236891
Zn27	Zn	1.648768	0.780184	0.570224
O28	O	0.975441	0.234546	0.073259
O29	O	1.308775	0.567879	0.406592
O30	O	1.642108	0.901212	0.739925
C31	C	0.830089	0.119627	0.000031
C32	C	1.163423	0.452960	0.333365
C33	C	1.496756	0.786293	0.666698
C34	C	0.737794	0.118011	0.000027
C35	C	1.071127	0.451345	0.333360
C36	C	1.404461	0.784678	0.666693
C37	C	0.428796	0.188494	0.000037
C38	C	0.762129	0.521828	0.333370
C39	C	1.095463	0.855161	0.666703
C40	C	0.515516	0.190020	0.000032
C41	C	0.848849	0.523353	0.333365
C42	C	1.182183	0.856686	0.666698
C43	C	0.535389	0.038531	0.000031
C44	C	0.868723	0.371864	0.333365
C45	C	1.202056	0.705198	0.666698
C46	C	0.448671	0.037007	0.000030
C47	C	0.782004	0.370340	0.333364
C48	C	1.115337	0.703673	0.666697
C49	C	0.395376	0.111991	0.000037
C50	C	0.728709	0.445324	0.333371
C51	C	1.062042	0.778657	0.666704
C52	C	0.568815	0.115041	0.000033
C53	C	0.902148	0.448374	0.333367
C54	C	1.235481	0.781707	0.666700
C55	C	0.662841	0.116694	0.000028
C56	C	0.996174	0.450027	0.333361
C57	C	1.329507	0.783361	0.666694
C58	C	0.301344	0.110338	0.000041
C59	C	0.634677	0.443671	0.333375
C60	C	0.968010	0.777004	0.666708
C61	C	0.988206	-0.038490	0.000049
C62	C	1.321540	0.294843	0.333382
C63	C	1.654873	0.628177	0.666716
C64	C	0.986591	-0.130785	0.000050
C65	C	1.319924	0.202548	0.333384
C66	C	1.653258	0.535881	0.666717
C67	C	1.058599	-0.353058	0.000040
C68	C	1.391932	-0.019724	0.333373
C69	C	1.725265	0.313609	0.666707
C70	C	1.057075	-0.439778	0.000033
C71	C	1.390408	-0.106445	0.333366
C72	C	1.723741	0.226888	0.666699
C73	C	0.905586	-0.419904	0.000028
C74	C	1.238919	-0.086571	0.333361
C75	C	1.572253	0.246763	0.666695
C76	C	0.907111	-0.333185	0.000029
C77	C	1.240444	0.000148	0.333363
C78	C	1.573778	0.333481	0.666696
C79	C	0.983620	-0.299765	0.000040
C80	C	1.316953	0.033569	0.333373
C81	C	1.650286	0.366902	0.666706
C82	C	0.980571	-0.473204	0.000031
C83	C	1.313904	-0.139871	0.333365
C84	C	1.647237	0.193463	0.666698
C85	C	0.978918	-0.567230	0.000023
C86	C	1.312251	-0.233897	0.333357
C87	C	1.645584	0.099437	0.666690
C88	C	0.985273	-0.205733	0.000046
C89	C	1.318607	0.127601	0.333379
C90	C	1.651940	0.460934	0.666713
C91	C	1.134101	0.107405	0.000045
C92	C	1.467434	0.440738	0.333379
C93	C	1.800768	0.774072	0.666712
C94	C	1.226396	0.109020	0.000044
C95	C	1.559730	0.442353	0.333377
C96	C	1.893063	0.775687	0.666711
C97	C	0.975984	0.265522	0.000028
C98	C	1.309318	0.598855	0.333361
C99	C	1.642651	0.932188	0.666694
C100	C	0.977599	0.357817	0.000021
C101	C	1.310933	0.691150	0.333354
C102	C	1.644266	1.024484	0.666687
N103	N	0.982088	0.113512	0.228214
N104	N	1.315421	0.446846	0.561547
N105	N	1.648755	0.780179	0.894880
N106	N	0.982109	0.113512	-0.228135
N107	N	1.315442	0.446846	0.105198
N108	N	1.648776	0.780179	0.438531
C109	C	1.038644	0.056994	0.453944
C110	C	1.371978	0.390328	0.787277
C111	C	1.705311	0.723661	1.120610
C112	C	1.038647	0.056992	0.546133
C113	C	1.371980	0.390326	0.879467
C114	C	1.705314	0.723659	1.212800
C115	C	0.925547	0.170033	0.546128
C116	C	1.258880	0.503366	0.879462
C117	C	1.592213	0.836700	1.212795
C118	C	0.925541	0.170030	0.453940
C119	C	1.258874	0.503364	0.787274
C120	C	1.592208	0.836697	1.120607
C121	C	0.982094	0.113512	0.407850
C122	C	1.315428	0.446845	0.741184
C123	C	1.648761	0.780179	1.074517
C124	C	0.982103	0.113513	0.592228
C125	C	1.315436	0.446846	0.925561
C126	C	1.648769	0.780179	1.258895
C127	C	0.982105	0.113511	0.692184
C128	C	1.315439	0.446844	1.025518
C129	C	1.648772	0.780178	1.358851
C130	C	0.982091	0.113512	0.307888
C131	C	1.315424	0.446846	0.641221
C132	C	1.648758	0.780179	0.974555
H133	H	0.578792	-0.022518	0.000028
H134	H	0.912126	0.310815	0.333361
H135	H	1.245459	0.644148	0.666694
Br136	Br	0.801758	-0.465266	0.000011
Br137	Br	1.135091	-0.131933	0.333345
Br138	Br	1.468424	0.201401	0.666678
Br139	Br	1.158837	-0.512102	0.000028
Br140	Br	1.492170	-0.178769	0.333361
Br141	Br	1.825503	0.154564	0.666695
Br142	Br	1.162431	-0.307704	0.000055
Br143	Br	1.495765	0.025630	0.333388
Br144	Br	1.829098	0.358963	0.666721
Br145	Br	0.805346	-0.260852	0.000017
Br146	Br	1.138679	0.072481	0.333350
Br147	Br	1.472013	0.405814	0.666683
H148	H	0.421461	-0.025296	0.000028
H149	H	0.754794	0.308038	0.333361
H150	H	1.088127	0.641371	0.666695
Br151	Br	0.560868	0.293851	0.000023
Br152	Br	0.894202	0.627184	0.333357
Br153	Br	1.227535	0.960517	0.666690
Br154	Br	0.848800	0.246735	0.608682
Br155	Br	1.182134	0.580069	0.942015
Br156	Br	1.515467	0.913402	1.275349
H157	H	1.084692	0.010973	0.416419
H158	H	1.418026	0.344306	0.749753
H159	H	1.751359	0.677639	1.083086
Br160	Br	0.848783	0.246732	0.391378
Br161	Br	1.182116	0.580065	0.724711
Br162	Br	1.515449	0.913398	1.058045
Br163	Br	0.356470	0.290258	0.000045
Br164	Br	0.689803	0.623591	0.333378
Br165	Br	1.023136	0.956925	0.666711
Br166	Br	1.115392	-0.019717	0.608687
Br167	Br	1.448726	0.313617	0.942020
Br168	Br	1.782059	0.646950	1.275353
