data_functionalizedCrystal
_audit_creation_method	'MofGen! by Chris Wilmer'
_symmetry_space_group_name_H-M	'P1'
_symmetry_Int_Tables_number	1
_symmetry_cell_setting	triclinic
loop_
_symmetry_equiv_pos_as_xyz
  x,y,z
_cell_length_a	12.759401
_cell_length_b	21.295417
_cell_length_c	12.759401
_cell_angle_alpha	90.016105
_cell_angle_beta	90.004060
_cell_angle_gamma	90.029714
loop_
_atom_site_label
_atom_site_type_symbol
_atom_site_fract_x
_atom_site_fract_y
_atom_site_fract_z
Zn1	Zn	1.605986	-0.250709	0.593959
Zn2	Zn	1.605882	-0.355952	0.418259
Zn3	Zn	1.430335	-0.250701	0.418296
Zn4	Zn	1.430231	-0.355944	0.593898
O5	O	1.518109	-0.303326	0.506103
O6	O	1.752993	-0.264676	0.570663
O7	O	1.582595	-0.341991	0.271243
O8	O	1.453723	-0.162613	0.441639
O9	O	1.752917	-0.341998	0.441577
O10	O	1.582773	-0.162618	0.570698
O11	O	1.453622	-0.264663	0.271270
O12	O	1.283301	-0.264655	0.441580
O13	O	1.453545	-0.341984	0.740927
O14	O	1.283224	-0.341977	0.570593
O15	O	1.582672	-0.264668	0.740972
O16	O	1.582494	-0.444041	0.441517
O17	O	1.453444	-0.444034	0.570558
C18	C	1.245141	-0.303314	0.506084
C19	C	1.128365	-0.303324	0.506101
C20	C	0.963765	-0.343657	0.573191
C21	C	1.073489	-0.343649	0.573174
C22	C	1.073510	-0.263010	0.439033
C23	C	0.963788	-0.263022	0.439046
C24	C	0.908896	-0.383980	0.640276
C25	C	0.963743	-0.424295	0.707343
C26	C	1.073467	-0.424287	0.707326
C27	C	1.128344	-0.383964	0.640242
C28	C	1.517975	-0.466878	0.506050
C29	C	1.518014	-0.536846	0.506062
C30	C	1.585171	-0.569659	0.573311
C31	C	1.585209	-0.635401	0.573337
C32	C	1.518099	-0.668329	0.506095
C33	C	1.450928	-0.635508	0.438842
C34	C	1.450885	-0.569767	0.438825
N35	N	1.510185	-0.771577	0.414149
N36	N	1.510231	-0.834028	0.414168
C37	C	1.518221	-0.866403	0.506143
N38	N	1.526184	-0.833968	0.598101
N39	N	1.526143	-0.771511	0.598081
C40	C	1.518137	-0.739614	0.506106
C41	C	1.585423	-0.970501	0.573426
C42	C	1.585453	-1.036245	0.573453
C43	C	1.451178	-1.036351	0.438948
C44	C	1.451142	-0.970608	0.438930
C45	C	1.518271	-0.937688	0.506167
C46	C	1.792142	-0.303339	0.506123
C47	C	1.908919	-0.303344	0.506131
C48	C	1.518109	-0.303326	0.780136
C49	C	1.518109	-0.303326	0.896913
C50	C	1.518272	-0.139136	0.506180
C51	C	1.518341	-0.069168	0.506212
C52	C	1.585339	-0.263076	0.951800
C53	C	1.585335	-0.263079	1.061524
C54	C	1.450866	-0.343586	1.061464
C55	C	1.450866	-0.343580	0.951742
C56	C	1.652582	-0.222822	0.896971
C57	C	1.719819	-0.182570	0.951858
C58	C	1.719815	-0.182573	1.061582
C59	C	1.652573	-0.222827	1.116419
C60	C	1.518102	-0.303339	1.233136
C61	C	1.518104	-0.303335	1.116359
H62	H	1.118200	-0.230180	0.384418
H63	H	0.819553	-0.383990	0.640300
O64	O	1.652734	-0.222771	1.223006
C65	C	1.726472	-0.178601	1.259696
H66	H	1.787863	-0.169783	1.196475
H67	H	1.766321	-0.197602	1.333091
H68	H	1.684859	-0.132699	1.279193
O69	O	1.386037	-1.068261	0.373486
C70	C	1.409086	-1.052228	0.268787
H71	H	1.449444	-1.004475	0.266625
H72	H	1.333296	-1.050034	0.221612
H73	H	1.463152	-1.089210	0.233460
O74	O	1.650261	-0.537710	0.638781
C75	C	1.627246	-0.553776	0.743474
H76	H	1.543321	-0.571890	0.748711
H77	H	1.636232	-0.510526	0.795381
H78	H	1.683574	-0.591901	0.770989
O79	O	0.910603	-0.463521	0.772541
C80	C	0.982544	-0.499089	0.831746
H81	H	1.060745	-0.501228	0.788691
H82	H	0.950810	-0.548698	0.842818
H83	H	0.994252	-0.476105	0.911602
H84	H	1.396461	-0.943891	0.384165
O85	O	1.650296	-0.667317	0.638773
C86	C	1.590449	-0.705373	0.706565
H87	H	1.507689	-0.685599	0.712989
H88	H	1.628389	-0.706088	0.787449
H89	H	1.586875	-0.755204	0.674078
O90	O	1.785070	-0.143383	1.114783
C91	C	1.762160	-0.080641	1.088020
H92	H	1.721772	-0.079333	1.008353
H93	H	1.838015	-0.052421	1.084283
H94	H	1.708169	-0.059435	1.149780
H95	H	1.118120	-0.457118	0.761928
H96	H	1.396121	-0.376359	1.106121
H97	H	0.919131	-0.230192	0.384445
O98	O	1.234930	-0.384022	0.640379
C99	C	1.271577	-0.428267	0.713926
H100	H	1.208360	-0.437141	0.775299
H101	H	1.345011	-0.409308	0.753831
H102	H	1.290993	-0.474128	0.672120
O103	O	1.385687	-0.667560	0.373668
C104	C	1.317791	-0.705599	0.433434
H105	H	1.354790	-0.715407	0.513087
H106	H	1.303776	-0.751846	0.390638
H107	H	1.239906	-0.680303	0.444906
O108	O	1.385615	-0.537987	0.373393
C109	C	1.326364	-0.581143	0.314070
H110	H	1.369425	-0.627985	0.310482
H111	H	1.315211	-0.562177	0.231277
H112	H	1.246545	-0.588165	0.352477
O113	O	1.650647	-0.938615	0.638850
C114	C	1.709939	-0.981677	0.698207
H115	H	1.666934	-1.028563	0.701812
H116	H	1.721055	-0.962655	0.780991
H117	H	1.789774	-0.988635	0.659817
H118	H	1.640140	-1.062960	0.628220
O119	O	1.652686	-0.222719	0.790387
C120	C	1.726470	-0.178573	0.753759
H121	H	1.741224	-0.141797	0.817010
H122	H	1.694798	-0.154682	0.680363
H123	H	1.803050	-0.203541	0.734287
O124	O	1.785275	-0.143498	0.898709
C125	C	1.889974	-0.157271	0.925503
H126	H	1.892126	-0.181472	1.005155
H127	H	1.937130	-0.111842	0.929285
H128	H	1.925330	-0.189635	0.863735
O129	O	1.385548	-0.382750	0.898580
C130	C	1.326197	-0.418280	0.970499
H131	H	1.369214	-0.420454	1.048723
H132	H	1.314972	-0.467879	0.938771
H133	H	1.246413	-0.395239	0.982159
