data_functionalizedCrystal
_audit_creation_method	'MofGen! by Chris Wilmer'
_symmetry_space_group_name_H-M	'P1'
_symmetry_Int_Tables_number	1
_symmetry_cell_setting	triclinic
loop_
_symmetry_equiv_pos_as_xyz
  x,y,z
_cell_length_a	19.805407
_cell_length_b	15.297510
_cell_length_c	19.805399
_cell_angle_alpha	80.348499
_cell_angle_beta	89.982197
_cell_angle_gamma	80.294055
loop_
_atom_site_label
_atom_site_type_symbol
_atom_site_fract_x
_atom_site_fract_y
_atom_site_fract_z
Zn1	Zn	0.988081	0.359251	-0.429324
Zn2	Zn	1.488081	0.859251	0.070676
Zn3	Zn	0.968403	0.510119	-0.335721
Zn4	Zn	1.468403	1.010119	0.164279
Zn5	Zn	0.874893	0.359269	-0.316155
Zn6	Zn	1.374893	0.859269	0.183845
Zn7	Zn	0.855273	0.510064	-0.448864
Zn8	Zn	1.355273	1.010064	0.051136
O9	O	0.921662	0.434676	-0.382516
O10	O	1.421662	0.934676	0.117484
O11	O	1.080185	0.379279	-0.416919
O12	O	1.580185	0.879279	0.083081
O13	O	0.955974	0.490139	-0.238413
O14	O	1.455974	0.990139	0.261587
O15	O	0.906354	0.233019	-0.314801
O16	O	1.406354	0.733019	0.185199
O17	O	1.065727	0.490121	-0.348149
O18	O	1.565727	0.990121	0.151851
O19	O	0.989512	0.233006	-0.397946
O20	O	1.489512	0.733006	0.102054
O21	O	0.887273	0.379310	-0.224037
O22	O	1.387273	0.879310	0.275963
O23	O	0.777576	0.379257	-0.333748
O24	O	1.277576	0.879257	0.166252
O25	O	0.872915	0.490028	-0.540985
O26	O	1.372915	0.990028	-0.040985
O27	O	0.763161	0.490045	-0.431249
O28	O	1.263161	0.990045	0.068751
O29	O	0.970488	0.379226	-0.526629
O30	O	1.470488	0.879226	-0.026629
O31	O	0.936949	0.636359	-0.367096
O32	O	1.436949	1.136359	0.132904
O33	O	0.853834	0.636318	-0.450222
O34	O	1.353834	1.136318	0.049778
C35	C	0.745810	0.434647	-0.382496
C36	C	1.245810	0.934647	0.117504
C37	C	0.670577	0.434657	-0.382506
C38	C	1.170577	0.934657	0.117494
C39	C	0.642748	0.377044	-0.418394
C40	C	1.142748	0.877044	0.081606
C41	C	0.572059	0.377048	-0.418397
C42	C	1.072059	0.877048	0.081603
C43	C	0.529199	0.434672	-0.382516
C44	C	1.029199	0.934672	0.117484
C45	C	0.557033	0.492288	-0.346624
C46	C	1.057033	0.992288	0.153376
C47	C	0.627721	0.492278	-0.346617
C48	C	1.127721	0.992278	0.153383
C49	C	0.271954	0.492328	-0.346650
C50	C	0.771954	0.992328	0.153350
C51	C	0.201261	0.492336	-0.346661
C52	C	0.701261	0.992336	0.153339
C53	C	0.216292	0.377099	-0.418430
C54	C	0.716292	0.877099	0.081570
C55	C	0.286980	0.377089	-0.418423
C56	C	0.786980	0.877089	0.081577
C57	C	0.314808	0.434701	-0.382528
C58	C	0.814808	0.934701	0.117472
C59	C	0.391457	0.434694	-0.382524
C60	C	0.891457	0.934694	0.117476
C61	C	0.452550	0.434684	-0.382524
C62	C	0.952550	0.934684	0.117476
C63	C	0.891146	0.669073	-0.412917
C64	C	1.391146	1.169073	0.087083
C65	C	0.878152	0.769349	-0.425945
C66	C	1.378152	1.269349	0.074055
C67	C	1.014772	1.051969	-0.289670
C68	C	1.514772	1.551969	0.210330
C69	C	1.026980	0.957755	-0.277426
C70	C	1.526980	1.457755	0.222574
C71	C	0.989774	0.910649	-0.314555
C72	C	1.489774	1.410649	0.185445
C73	C	0.940359	0.957766	-0.363930
C74	C	1.440359	1.457766	0.136070
C75	C	0.928146	1.051990	-0.376172
C76	C	1.428146	1.551990	0.123828
C77	C	0.903148	0.910669	-0.401056
C78	C	1.403148	1.410669	0.098944
C79	C	0.853732	0.957787	-0.450431
C80	C	1.353732	1.457787	0.049569
C81	C	0.841523	1.052001	-0.462671
C82	C	1.341523	1.552001	0.037329
C83	C	0.878728	1.099108	-0.425542
C84	C	1.378728	1.599108	0.074458
C85	C	0.915360	0.816446	-0.388815
C86	C	1.415360	1.316446	0.111185
C87	C	0.828734	0.816466	-0.475316
C88	C	1.328734	1.316466	0.024684
C89	C	0.816527	0.910681	-0.487560
C90	C	1.316527	1.410681	0.012440
C91	C	1.098201	0.434705	-0.382537
C92	C	1.598201	0.934705	0.117463
C93	C	1.173432	0.434717	-0.382545
C94	C	1.673432	0.934717	0.117455
C95	C	0.921708	0.434619	-0.559051
C96	C	1.421708	0.934619	-0.059051
C97	C	0.921727	0.434595	-0.634280
C98	C	1.421727	0.934595	-0.134280
C99	C	0.952310	1.199363	-0.352018
C100	C	1.452310	1.699363	0.147982
C101	C	0.965354	1.099087	-0.339041
C102	C	1.465354	1.599087	0.160959
C103	C	0.972535	0.376897	-0.662150
C104	C	1.472535	0.876897	-0.162150
C105	C	0.972545	0.376871	-0.732835
C106	C	1.472545	0.876871	-0.232835
C107	C	0.921750	0.434547	-0.775650
C108	C	1.421750	0.934547	-0.275650
C109	C	0.870937	0.492247	-0.747775
C110	C	1.370937	0.992247	-0.247775
C111	C	0.870925	0.492268	-0.677091
C112	C	1.370925	0.992268	-0.177091
C113	C	0.870986	0.492163	-1.032838
C114	C	1.370986	0.992163	-0.532838
C115	C	0.871004	0.492140	-1.103527
C116	C	1.371004	0.992140	-0.603527
C117	C	0.972607	0.376766	-1.088582
C118	C	1.472607	0.876766	-0.588582
C119	C	0.972594	0.376787	-1.017898
C120	C	1.472594	0.876787	-0.517898
C121	C	0.921780	0.434483	-0.990029
C122	C	1.421780	0.934483	-0.490029
C123	C	0.921768	0.434510	-0.913384
C124	C	1.421768	0.934510	-0.413384
C125	C	0.921763	0.434526	-0.852294
C126	C	1.421763	0.934526	-0.352294
C127	C	0.921665	0.434667	-0.206659
C128	C	1.421665	0.934667	0.293341
C129	C	0.921809	0.434437	-0.131397
C130	C	1.421809	0.934437	0.368603
H131	H	0.522131	0.539201	-0.317406
H132	H	1.022131	1.039201	0.182594
H133	H	0.650378	0.539192	-0.317393
H134	H	1.150378	1.039192	0.182607
H135	H	0.294602	0.539240	-0.317423
H136	H	0.794602	1.039240	0.182577
H137	H	0.829618	0.539156	-1.010158
H138	H	1.329618	1.039156	-0.510158
Cl139	Cl	0.807142	0.564652	-1.157351
Cl140	Cl	1.307142	1.064652	-0.657351
Cl141	Cl	0.977481	0.757224	-0.326746
Cl142	Cl	1.477481	1.257224	0.173254
H143	H	0.999716	0.833935	-0.304582
H144	H	1.499716	1.333935	0.195418
Cl145	Cl	1.036487	0.304229	-1.123621
Cl146	Cl	1.536487	0.804229	-0.623621
Cl147	Cl	1.036398	0.304390	-0.608333
Cl148	Cl	1.536398	0.804390	-0.108333
H149	H	1.067213	0.919395	-0.237225
H150	H	1.567213	1.419395	0.262775
Cl151	Cl	0.807078	0.564752	-0.801599
Cl152	Cl	1.307078	1.064752	-0.301599
H153	H	0.868793	1.175825	-0.435510
H154	H	1.368793	1.675825	0.064490
Cl155	Cl	0.807048	0.564802	-0.642054
Cl156	Cl	1.307048	1.064802	-0.142054
Cl157	Cl	1.061537	1.111192	-0.242999
Cl158	Cl	1.561537	1.611192	0.257001
H159	H	0.801277	1.090362	-0.502867
H160	H	1.301277	1.590362	-0.002867
Cl161	Cl	1.036455	0.304280	-0.964077
Cl162	Cl	1.536455	0.804280	-0.464077
H163	H	0.677640	0.330122	-0.447614
H164	H	1.177640	0.830122	0.052386
Cl165	Cl	0.754406	0.969925	-0.549629
Cl166	Cl	1.254406	1.469925	-0.049629
Cl167	Cl	0.781954	0.757254	-0.521990
Cl168	Cl	1.281954	1.257254	-0.021990
H169	H	0.549404	0.330136	-0.447622
H170	H	1.049404	0.830136	0.052378
Cl171	Cl	0.181305	0.304668	-0.463553
Cl172	Cl	0.681305	0.804668	0.036447
Cl173	Cl	0.147381	0.564780	-0.301549
Cl174	Cl	0.647381	1.064780	0.198451
H175	H	0.321873	0.330169	-0.447643
H176	H	0.821873	0.830169	0.052357
H177	H	1.013919	0.329890	-0.755523
H178	H	1.513919	0.829890	-0.255523
