data_functionalizedCrystal
_audit_creation_method	'MofGen! by Chris Wilmer'
_symmetry_space_group_name_H-M	'P1'
_symmetry_Int_Tables_number	1
_symmetry_cell_setting	triclinic
loop_
_symmetry_equiv_pos_as_xyz
  x,y,z
_cell_length_a	15.297475
_cell_length_b	10.686285
_cell_length_c	10.685884
_cell_angle_alpha	81.615989
_cell_angle_beta	96.069630
_cell_angle_gamma	104.726765
loop_
_atom_site_label
_atom_site_type_symbol
_atom_site_fract_x
_atom_site_fract_y
_atom_site_fract_z
Zn1	Zn	1.366769	0.758383	0.985727
Zn2	Zn	1.391805	0.992497	0.762854
Zn3	Zn	1.228459	0.743480	0.742457
Zn4	Zn	1.228434	0.939409	0.938382
O5	O	1.303867	0.858442	0.857355
O6	O	1.496345	0.817894	0.984513
O7	O	1.380624	0.975445	0.584879
O8	O	1.236339	0.565483	0.786005
O9	O	1.514738	0.989896	0.820769
O10	O	1.337955	0.576432	0.964735
O11	O	1.260615	0.792494	0.569894
O12	O	1.102201	0.741016	0.740096
O13	O	1.236297	0.899415	1.119931
O14	O	1.102183	0.884964	0.884041
O15	O	1.337931	0.766416	1.154715
O16	O	1.380600	1.165429	0.774860
O17	O	1.260572	1.126425	0.903820
C18	C	1.069455	0.805613	0.804718
C19	C	0.969173	0.783040	0.782228
C20	C	1.323323	1.192596	0.836448
C21	C	1.331727	1.335563	0.827565
C22	C	1.284318	0.828656	1.184039
C23	C	1.275988	0.815963	1.323252
C24	C	0.686616	1.019781	1.018098
C25	C	0.780837	1.040998	1.039225
C26	C	0.827926	0.976510	0.974978
C27	C	0.780784	0.890801	0.889600
C28	C	0.686555	0.869589	0.868464
C29	C	0.827864	0.826319	0.825344
C30	C	0.780723	0.740610	0.739966
C31	C	0.686503	0.719401	0.718834
C32	C	0.639414	0.783889	0.783081
C33	C	0.922094	0.847531	0.846480
C34	C	0.922032	0.697340	0.696845
C35	C	0.827811	0.676122	0.675719
C36	C	1.539193	0.911479	0.910197
C37	C	1.639476	0.934080	0.932715
C38	C	1.284357	0.522987	0.878376
C39	C	1.276043	0.380036	0.887334
C40	C	1.323332	0.888140	1.531938
C41	C	1.331655	0.900831	1.392723
H42	H	0.960467	0.917316	0.915996
H43	H	0.789416	0.606338	0.606203
C44	C	0.695907	0.573065	0.573056
C45	C	0.634684	0.625195	0.624982
H46	H	0.663915	0.514900	0.515123
H47	H	0.738783	0.641669	0.529797
H48	H	0.726535	0.527252	0.639037
H49	H	0.604061	0.671016	0.559002
H50	H	0.591792	0.556580	0.668241
C51	C	1.216867	1.309168	1.092032
C52	C	1.203011	1.283796	0.965604
H53	H	1.171776	1.249751	1.140351
H54	H	1.275089	1.299112	1.125381
H55	H	1.213119	1.395843	1.096106
H56	H	1.206766	1.197123	0.961529
H57	H	1.144774	1.293840	0.932247
H58	H	1.385689	0.983191	1.345699
H59	H	1.385826	1.406868	0.769583
C60	C	1.117170	0.715228	1.333381
C61	C	1.203039	0.704761	1.386723
H62	H	1.072136	0.646572	1.372561
H63	H	1.107734	0.796728	1.346389
H64	H	1.113401	0.709458	1.245016
H65	H	1.206810	0.710541	1.475087
H66	H	1.212477	0.623240	1.373725
C67	C	0.962928	1.088662	1.086718
C68	C	0.931494	0.999821	0.998208
H69	H	1.026868	1.103044	1.101069
H70	H	0.947755	1.168801	1.054944
H71	H	0.935487	1.054378	1.164177
H72	H	0.958930	1.034110	0.920746
H73	H	0.946675	0.919667	1.029979
C74	C	1.066440	0.663153	0.662808
C75	C	0.973782	0.626443	0.626221
H76	H	1.098389	0.619383	0.619214
H77	H	1.088014	0.754687	0.642396
H78	H	1.075754	0.640264	0.751629
H79	H	0.964467	0.649341	0.537401
H80	H	0.952201	0.534890	0.646625
H81	H	0.648269	1.072286	1.070391
H82	H	0.562692	0.766615	0.765887
C83	C	0.771426	1.187317	1.185007
C84	C	0.832652	1.135198	1.133073
H85	H	0.803416	1.245468	1.242954
H86	H	0.740801	1.233130	1.119042
H87	H	0.728546	1.118696	1.228264
H88	H	0.875528	1.203819	1.089807
H89	H	0.863291	1.089385	1.199048
