data_functionalizedCrystal
_audit_creation_method	'MofGen! by Chris Wilmer'
_symmetry_space_group_name_H-M	'P1'
_symmetry_Int_Tables_number	1
_symmetry_cell_setting	triclinic
loop_
_symmetry_equiv_pos_as_xyz
  x,y,z
_cell_length_a	12.759395
_cell_length_b	12.759394
_cell_length_c	12.759393
_cell_angle_alpha	89.968780
_cell_angle_beta	89.980721
_cell_angle_gamma	90.014682
loop_
_atom_site_label
_atom_site_type_symbol
_atom_site_fract_x
_atom_site_fract_y
_atom_site_fract_z
Zn1	Zn	1.606266	-0.418220	-0.593968
Zn2	Zn	1.606157	-0.593936	-0.418286
Zn3	Zn	1.430565	-0.418271	-0.418309
Zn4	Zn	1.430556	-0.593857	-0.593929
O5	O	1.518386	-0.506071	-0.506123
O6	O	1.753273	-0.441541	-0.570671
O7	O	1.582822	-0.570687	-0.271268
O8	O	1.453921	-0.271243	-0.441636
O9	O	1.753192	-0.570638	-0.441598
O10	O	1.583008	-0.271206	-0.570693
O11	O	1.453815	-0.441627	-0.271284
O12	O	1.283543	-0.441551	-0.441598
O13	O	1.453907	-0.570504	-0.740955
O14	O	1.283536	-0.570554	-0.570625
O15	O	1.583000	-0.441465	-0.740984
O16	O	1.582814	-0.740946	-0.441560
O17	O	1.453801	-0.740889	-0.570603
C18	C	1.245418	-0.506050	-0.506110
C19	C	1.128642	-0.506066	-0.506129
C20	C	1.128706	-0.371854	-0.640750
C21	C	1.073877	-0.304761	-0.708069
C22	C	0.964156	-0.304780	-0.708082
C23	C	0.909260	-0.371897	-0.640767
C24	C	0.964089	-0.438990	-0.573448
C25	C	1.073813	-0.438966	-0.573444
C26	C	0.964025	-0.573195	-0.438824
C27	C	1.073746	-0.573183	-0.438814
C28	C	0.909129	-0.640312	-0.371508
C29	C	0.963958	-0.707412	-0.304193
C30	C	1.073686	-0.707392	-0.304184
C31	C	1.128575	-0.640277	-0.371495
C32	C	1.518323	-0.779038	-0.506098
C33	C	1.518392	-0.895815	-0.506122
C34	C	1.652834	-0.895822	-0.371849
C35	C	1.720082	-0.950686	-0.304725
C36	C	1.720144	-1.060408	-0.304754
C37	C	1.652952	-1.115267	-0.371916
C38	C	1.585704	-1.060403	-0.439040
C39	C	1.585647	-0.950679	-0.439002
C40	C	1.451269	-1.060397	-0.573316
C41	C	1.451200	-0.950675	-0.573284
C42	C	1.384077	-1.115257	-0.640478
C43	C	1.316822	-1.060392	-0.707598
C44	C	1.316762	-0.950664	-0.707566
C45	C	1.383952	-0.895811	-0.640408
C46	C	1.792419	-0.506093	-0.506137
C47	C	1.909196	-0.506102	-0.506142
C48	C	1.518465	-0.505970	-0.780156
C49	C	1.518498	-0.505927	-0.896933
C50	C	1.518478	-0.232037	-0.506171
C51	C	1.518517	-0.115261	-0.506192
C52	C	1.585722	-0.438725	-0.951812
C53	C	1.585740	-0.438680	-1.061536
C54	C	1.451307	-0.573047	-1.061493
C55	C	1.451285	-0.573087	-0.951771
C56	C	1.518368	-0.506096	-0.233156
C57	C	1.518538	-0.505843	-0.116379
H58	H	0.819919	-0.371897	-0.640775
C59	C	1.793987	-0.890332	-0.230848
N60	N	1.849652	-0.844876	-0.175203
C61	C	1.377326	-0.647014	-0.891400
N62	N	1.321620	-0.702692	-0.845929
H63	H	1.218047	-0.371828	-0.640742
H64	H	0.919515	-0.250140	-0.762893
C65	C	1.134270	-0.230934	-0.782110
N66	N	1.179756	-0.175326	-0.837877
H67	H	0.819788	-0.640320	-0.371521
H68	H	0.919253	-0.762049	-0.249386
C69	C	1.659694	-0.364755	-1.121898
N70	N	1.715400	-0.309071	-1.167362
H71	H	1.118321	-0.762024	-0.249361
H72	H	1.640449	-0.384037	-0.907166
H73	H	1.217916	-0.640248	-0.371489
C74	C	1.377374	-0.646917	-1.121824
N75	N	1.321686	-0.702556	-1.167265
H76	H	1.262004	-0.905999	-0.762230
C77	C	1.794120	-1.120760	-0.230914
N78	N	1.849837	-1.166217	-0.175297
H79	H	1.652777	-0.806481	-0.371806
H80	H	1.383903	-0.806470	-0.640368
H81	H	1.384136	-1.204598	-0.640501
C82	C	1.653029	-1.235964	-0.371948
N83	N	1.653085	-1.326875	-0.371972
H84	H	1.262124	-1.105068	-0.762281
