data_functionalizedCrystal
_audit_creation_method	'MofGen! by Chris Wilmer'
_symmetry_space_group_name_H-M	'P1'
_symmetry_Int_Tables_number	1
_symmetry_cell_setting	triclinic
loop_
_symmetry_equiv_pos_as_xyz
  x,y,z
_cell_length_a	21.395364
_cell_length_b	21.395363
_cell_length_c	21.395355
_cell_angle_alpha	90.004913
_cell_angle_beta	90.024552
_cell_angle_gamma	90.016642
loop_
_atom_site_label
_atom_site_type_symbol
_atom_site_fract_x
_atom_site_fract_y
_atom_site_fract_z
Zn1	Zn	0.957985	-0.249261	0.354321
Zn2	Zn	1.291319	0.084072	0.687654
Zn3	Zn	1.624652	0.417406	1.020987
Zn4	Zn	0.957941	-0.354021	0.249568
Zn5	Zn	1.291274	-0.020688	0.582901
Zn6	Zn	1.624608	0.312646	0.916235
Zn7	Zn	0.853200	-0.249289	0.249557
Zn8	Zn	1.186534	0.084045	0.582891
Zn9	Zn	1.519867	0.417378	0.916224
Zn10	Zn	0.853223	-0.354032	0.354308
Zn11	Zn	1.186556	-0.020699	0.687642
Zn12	Zn	1.519889	0.312635	1.020975
O13	O	0.905587	-0.301651	0.301939
O14	O	1.238921	0.031683	0.635272
O15	O	1.572254	0.365016	0.968605
O16	O	1.045657	-0.263141	0.340435
O17	O	1.378991	0.070192	0.673768
O18	O	1.712324	0.403525	1.007101
O19	O	0.944019	-0.340135	0.161889
O20	O	1.277352	-0.006801	0.495222
O21	O	1.610686	0.326532	0.828555
O22	O	0.867110	-0.161607	0.263455
O23	O	1.200443	0.171726	0.596789
O24	O	1.533776	0.505060	0.930122
O25	O	1.045625	-0.340108	0.263473
O26	O	1.378958	-0.006775	0.596807
O27	O	1.712291	0.326559	0.930140
O28	O	0.944095	-0.161587	0.340424
O29	O	1.277428	0.171747	0.673758
O30	O	1.610761	0.505080	1.007091
O31	O	0.867067	-0.263188	0.161881
O32	O	1.200400	0.070145	0.495214
O33	O	1.533733	0.403478	0.828548
O34	O	0.765526	-0.263199	0.263443
O35	O	1.098859	0.070134	0.596777
O36	O	1.432192	0.403468	0.930110
O37	O	0.867148	-0.340127	0.441988
O38	O	1.200481	-0.006794	0.775321
O39	O	1.533814	0.326540	1.108655
O40	O	0.765542	-0.340154	0.340403
O41	O	1.098875	-0.006820	0.673737
O42	O	1.432209	0.326513	1.007070
O43	O	0.944116	-0.263152	0.441997
O44	O	1.277450	0.070181	0.775330
O45	O	1.610783	0.403514	1.108664
O46	O	0.944041	-0.441700	0.263461
O47	O	1.277374	-0.108367	0.596795
O48	O	1.610707	0.224966	0.930128
O49	O	0.867105	-0.441708	0.340414
O50	O	1.200438	-0.108375	0.673747
O51	O	1.533771	0.224958	1.007080
C52	C	0.742800	-0.301681	0.301921
C53	C	1.076133	0.031652	0.635254
C54	C	1.409466	0.364986	0.968588
C55	C	0.673159	-0.301709	0.301928
C56	C	1.006492	0.031624	0.635262
C57	C	1.339825	0.364957	0.968595
C58	C	0.640485	-0.261698	0.342064
C59	C	0.973818	0.071635	0.675397
C60	C	1.307151	0.404968	1.008731
C61	C	0.575049	-0.261682	0.342067
C62	C	0.908383	0.071652	0.675400
C63	C	1.241716	0.404985	1.008733
C64	C	0.542290	-0.301687	0.301940
C65	C	0.875624	0.031646	0.635273
C66	C	1.208957	0.364980	0.968606
C67	C	0.574972	-0.341701	0.261796
C68	C	0.908305	-0.008367	0.595130
C69	C	1.241639	0.324966	0.928463
C70	C	0.640406	-0.341712	0.261791
C71	C	0.973739	-0.008379	0.595124
C72	C	1.307073	0.324955	0.928457
C73	C	0.438594	-0.358112	0.296916
C74	C	0.771928	-0.024778	0.630249
C75	C	1.105261	0.308555	0.963582
C76	C	0.373162	-0.358102	0.296926
C77	C	0.706495	-0.024768	0.630259
C78	C	1.039828	0.308565	0.963592
C79	C	0.340469	-0.301653	0.301954
C80	C	0.673803	0.031681	0.635287
C81	C	1.007136	0.365014	0.968620
C82	C	0.373218	-0.245212	0.306985
C83	C	0.706552	0.088122	0.640318
C84	C	1.039885	0.421455	0.973651
C85	C	0.438653	-0.245223	0.306979
C86	C	0.771986	0.088111	0.640312
C87	C	1.105319	0.421444	0.973646
C88	C	0.471338	-0.301679	0.301941
C89	C	0.804671	0.031654	0.635275
C90	C	1.138005	0.364987	0.968608
C91	C	0.236843	-0.261620	0.342094
C92	C	0.570177	0.071713	0.675428
C93	C	0.903510	0.405046	1.008761
C94	C	0.171407	-0.261603	0.342092
C95	C	0.504740	0.071731	0.675426
C96	C	0.838073	0.405064	1.008759
C97	C	0.171330	-0.341627	0.261825
C98	C	0.504664	-0.008294	0.595159
C99	C	0.837997	0.325039	0.928492
C100	C	0.236766	-0.341639	0.261824
C101	C	0.570099	-0.008306	0.595157
C102	C	0.903432	0.325027	0.928491
C103	C	0.269518	-0.301637	0.301962
C104	C	0.602852	0.031697	0.635295
C105	C	0.936185	0.365030	0.968628
C106	C	0.905587	-0.464438	0.301951
C107	C	1.238921	-0.131105	0.635284
C108	C	1.572254	0.202228	0.968618
C109	C	0.905644	-0.534079	0.301977
C110	C	1.238978	-0.200746	0.635311
C111	C	1.572311	0.132587	0.968644
C112	C	0.905639	-0.301638	0.465362
C113	C	1.238973	0.031695	0.798695
C114	C	1.572306	0.365029	1.132029
C115	C	0.905662	-0.301633	0.535003
C116	C	1.238995	0.031701	0.868337
C117	C	1.572328	0.365034	1.201670
C118	C	1.069011	-0.301620	0.301957
C119	C	1.402344	0.031713	0.635290
C120	C	1.735677	0.365046	0.968623
C121	C	1.138652	-0.301608	0.301964
C122	C	1.471985	0.031726	0.635298
C123	C	1.805319	0.365059	0.968631
C124	C	0.905605	-0.138227	0.301940
C125	C	1.238938	0.195106	0.635273
C126	C	1.572271	0.528439	0.968607
C127	C	0.905612	-0.068586	0.301941
C128	C	1.238945	0.264747	0.635274
C129	C	1.572279	0.598081	0.968607
C130	C	0.865556	-0.035882	0.342002
C131	C	1.198889	0.297452	0.675335
C132	C	1.532222	0.630785	1.008669
C133	C	0.865562	0.029554	0.342011
C134	C	1.198895	0.362887	0.675344
C135	C	1.532228	0.696220	1.008677
C136	C	0.905617	0.062282	0.301947
C137	C	1.238951	0.395616	0.635280
C138	C	1.572284	0.728949	0.968613
C139	C	0.945682	0.029570	0.261882
C140	C	1.279015	0.362903	0.595216
C141	C	1.612348	0.696237	0.928549
C142	C	0.945679	-0.035864	0.261879
C143	C	1.279012	0.297469	0.595213
C144	C	1.612346	0.630803	0.928546
C145	C	0.910549	0.165949	0.245503
C146	C	1.243882	0.499282	0.578836
C147	C	1.577216	0.832615	0.912169
C148	C	0.910547	0.231382	0.245505
C149	C	1.243880	0.564715	0.578838
C150	C	1.577214	0.898048	0.912171
C151	C	0.905629	0.264103	0.301957
C152	C	1.238963	0.597436	0.635290
C153	C	1.572296	0.930770	0.968623
C154	C	0.900700	0.231383	0.358408
C155	C	1.234033	0.564717	0.691742
C156	C	1.567367	0.898050	1.025075
C157	C	0.900697	0.165949	0.358405
C158	C	1.234031	0.499283	0.691739
C159	C	1.567364	0.832616	1.025072
C160	C	0.905625	0.133235	0.301946
C161	C	1.238958	0.466568	0.635279
C162	C	1.572292	0.799901	0.968613
C163	C	0.865577	0.367760	0.342031
C164	C	1.198911	0.701093	0.675364
C165	C	1.532244	1.034427	1.008698
C166	C	0.865588	0.433197	0.342041
C167	C	1.198921	0.766530	0.675374
C168	C	1.532254	1.099863	1.008708
C169	C	0.945704	0.433212	0.261907
C170	C	1.279037	0.766545	0.595240
C171	C	1.612371	1.099878	0.928574
C172	C	0.945697	0.367776	0.261903
C173	C	1.279030	0.701110	0.595236
C174	C	1.612364	1.034443	0.928569
C175	C	0.905630	0.335054	0.301964
C176	C	1.238964	0.668388	0.635297
C177	C	1.572297	1.001721	0.968631
C178	C	0.905572	-0.301618	0.139151
C179	C	1.238905	0.031715	0.472484
C180	C	1.572238	0.365049	0.805818
C181	C	0.905671	-0.301447	0.069510
C182	C	1.239004	0.031886	0.402843
C183	C	1.572337	0.365220	0.736177
C184	C	0.945737	-0.261550	0.567722
C185	C	1.279071	0.071783	0.901055
C186	C	1.612404	0.405117	1.234389
C187	C	0.945737	-0.261523	0.633158
C188	C	1.279070	0.071810	0.966491
C189	C	1.612403	0.405144	1.299824
C190	C	0.905666	-0.301590	0.665872
C191	C	1.239000	0.031744	0.999205
C192	C	1.572333	0.365077	1.332538
C193	C	0.865583	-0.341675	0.633145
C194	C	1.198916	-0.008342	0.966478
C195	C	1.532249	0.324992	1.299812
C196	C	0.865580	-0.341696	0.567711
C197	C	1.198914	-0.008363	0.901044
C198	C	1.532247	0.324970	1.234377
C199	C	0.900719	-0.358006	0.769551
C200	C	1.234052	-0.024673	1.102884
C201	C	1.567386	0.308660	1.436217
C202	C	0.900726	-0.357986	0.834984
C203	C	1.234059	-0.024653	1.168317
C204	C	1.567393	0.308681	1.501650
C205	C	0.905670	-0.301524	0.867692
C206	C	1.239004	0.031810	1.201026
C207	C	1.572337	0.365143	1.534359
C208	C	0.910621	-0.245080	0.834960
C209	C	1.243954	0.088254	1.168294
C210	C	1.577288	0.421587	1.501627
C211	C	0.910619	-0.245101	0.769526
C212	C	1.243952	0.088232	1.102860
C213	C	1.577285	0.421566	1.436193
C214	C	0.905664	-0.301571	0.736824
C215	C	1.238998	0.031762	1.070157
C216	C	1.572331	0.365096	1.403491
C217	C	0.945747	-0.261409	0.971364
C218	C	1.279081	0.071925	1.304697
C219	C	1.612414	0.405258	1.638031
C220	C	0.945742	-0.261381	1.036801
C221	C	1.279075	0.071953	1.370134
C222	C	1.612409	0.405286	1.703467
C223	C	0.865592	-0.341538	1.036787
C224	C	1.198925	-0.008205	1.370120
C225	C	1.532258	0.325129	1.703453
C226	C	0.865594	-0.341561	0.971351
C227	C	1.198927	-0.008227	1.304685
C228	C	1.532260	0.325106	1.638018
C229	C	0.905675	-0.301497	0.938644
C230	C	1.239008	0.031837	1.271977
C231	C	1.572341	0.365170	1.605310
H232	H	0.346602	-0.199245	0.311079
H233	H	0.679935	0.134088	0.644413
H234	H	1.013269	0.467421	0.977746
Cl235	Cl	0.894508	-0.428944	0.876126
Cl236	Cl	1.227842	-0.095610	1.209459
Cl237	Cl	1.561175	0.237723	1.542792
H238	H	0.832928	-0.062520	0.374621
H239	H	1.166262	0.270813	0.707955
H240	H	1.499595	0.604147	1.041288
H241	H	0.832959	-0.374155	1.063422
H242	H	1.166293	-0.040822	1.396755
H243	H	1.499626	0.292512	1.730088
Cl244	Cl	0.815231	0.474311	0.392413
Cl245	Cl	1.148564	0.807645	0.725747
Cl246	Cl	1.481897	1.140978	1.059080
H247	H	0.465207	-0.404083	0.292821
H248	H	0.798540	-0.070749	0.626154
H249	H	1.131874	0.262584	0.959487
Cl250	Cl	0.278021	-0.211328	0.392547
Cl251	Cl	0.611354	0.122006	0.725880
Cl252	Cl	0.944687	0.455339	1.059214
H253	H	0.832955	-0.374296	0.659785
H254	H	1.166289	-0.040962	0.993118
H255	H	1.499622	0.292371	1.326452
H256	H	0.978376	-0.228737	1.063439
H257	H	1.311709	0.104596	1.396773
H258	H	1.645042	0.437930	1.730106
Cl259	Cl	0.533965	-0.211378	0.392526
Cl260	Cl	0.867298	0.121956	0.725859
Cl261	Cl	1.200632	0.455289	1.059193
Cl262	Cl	0.815212	-0.391956	0.930217
Cl263	Cl	1.148545	-0.058622	1.263550
Cl264	Cl	1.481879	0.274711	1.596883
H265	H	0.144805	-0.229017	0.374774
H266	H	0.478138	0.104316	0.708108
H267	H	0.811471	0.437650	1.041441
H268	H	0.914648	-0.199102	0.861590
H269	H	1.247982	0.134231	1.194924
H270	H	1.581315	0.467564	1.528257
Cl271	Cl	0.894522	-0.428997	0.728438
Cl272	Cl	1.227855	-0.095663	1.061771
Cl273	Cl	1.561188	0.237670	1.395104
H274	H	0.346502	-0.404059	0.292832
H275	H	0.679836	-0.070726	0.626165
H276	H	1.013169	0.262607	0.959499
Cl277	Cl	0.815195	-0.392091	0.526576
Cl278	Cl	1.148529	-0.058757	0.859910
Cl279	Cl	1.481862	0.274576	1.193243
H280	H	0.667148	-0.229125	0.374747
H281	H	1.000481	0.104209	0.708080
H282	H	1.333815	0.437542	1.041414
H283	H	0.667009	-0.374295	0.229106
H284	H	1.000342	-0.040961	0.562440
H285	H	1.333675	0.292372	0.895773
Cl286	Cl	0.479821	-0.174272	0.313300
Cl287	Cl	0.813154	0.159061	0.646633
Cl288	Cl	1.146487	0.492394	0.979967
Cl289	Cl	0.130154	-0.391916	0.211375
Cl290	Cl	0.463487	-0.058583	0.544708
Cl291	Cl	0.796820	0.274751	0.878042
H292	H	0.263369	-0.374223	0.229144
H293	H	0.596702	-0.040890	0.562477
H294	H	0.930036	0.292443	0.895810
Cl295	Cl	0.533790	-0.391991	0.211348
Cl296	Cl	0.867123	-0.058657	0.544682
Cl297	Cl	1.200457	0.274676	0.878015
H298	H	0.978313	0.341148	0.229277
H299	H	1.311646	0.674481	0.562611
H300	H	1.644979	1.007815	0.895944
H301	H	0.832942	0.056186	0.374635
H302	H	1.166275	0.389520	0.707968
H303	H	1.499609	0.722853	1.041302
H304	H	0.896692	0.139312	0.404371
H305	H	1.230025	0.472645	0.737704
H306	H	1.563359	0.805978	1.071037
Cl307	Cl	0.894433	0.272511	0.429374
Cl308	Cl	1.227767	0.605845	0.762708
Cl309	Cl	1.561100	0.939178	1.096041
H310	H	0.832961	0.341116	0.374660
H311	H	1.166294	0.674450	0.707993
H312	H	1.499627	1.007783	1.041326
H313	H	0.978321	0.459859	0.229289
H314	H	1.311654	0.793192	0.562622
H315	H	1.644987	1.126525	0.895955
Cl316	Cl	0.916821	0.272508	0.174545
Cl317	Cl	1.250155	0.605841	0.507878
Cl318	Cl	1.583488	0.939175	0.841212
H319	H	0.978299	-0.062492	0.229256
H320	H	1.311632	0.270842	0.562589
H321	H	1.644966	0.604175	0.895922
H322	H	0.914556	0.139312	0.199530
H323	H	1.247890	0.472646	0.532863
H324	H	1.581223	0.805979	0.866196
Cl325	Cl	0.996040	0.070714	0.211519
Cl326	Cl	1.329374	0.404047	0.544852
Cl327	Cl	1.662707	0.737380	0.878186
H328	H	0.978370	-0.228880	0.659802
H329	H	1.311703	0.104454	0.993136
H330	H	1.645037	0.437787	1.326469
Cl331	Cl	0.996122	-0.211180	0.526608
Cl332	Cl	1.329455	0.122153	0.859941
Cl333	Cl	1.662788	0.455486	1.193274
H334	H	0.914648	-0.199142	0.742878
H335	H	1.247981	0.134191	1.076212
H336	H	1.581315	0.467524	1.409545
Cl337	Cl	0.996131	-0.211040	0.930243
Cl338	Cl	1.329464	0.122293	1.263576
Cl339	Cl	1.662797	0.455626	1.596910
