data_functionalizedCrystal
_audit_creation_method	'MofGen! by Chris Wilmer'
_symmetry_space_group_name_H-M	'P1'
_symmetry_Int_Tables_number	1
_symmetry_cell_setting	triclinic
loop_
_symmetry_equiv_pos_as_xyz
  x,y,z
_cell_length_a	18.215407
_cell_length_b	10.685194
_cell_length_c	18.215399
_cell_angle_alpha	85.603424
_cell_angle_beta	89.982632
_cell_angle_gamma	94.374625
loop_
_atom_site_label
_atom_site_type_symbol
_atom_site_fract_x
_atom_site_fract_y
_atom_site_fract_z
Zn1	Zn	1.102695	-0.502506	-0.393607
Zn2	Zn	1.093205	-0.713548	-0.261107
Zn3	Zn	0.979626	-0.502537	-0.270558
Zn4	Zn	0.970199	-0.713467	-0.384141
O5	O	1.036431	-0.608014	-0.327353
O6	O	1.204419	-0.530523	-0.376036
O7	O	1.078113	-0.685604	-0.159375
O8	O	1.003868	-0.325936	-0.294797
O9	O	1.197448	-0.685574	-0.278690
O10	O	1.094286	-0.325914	-0.385200
O11	O	0.994667	-0.530574	-0.166318
O12	O	0.875392	-0.530495	-0.285619
O13	O	0.987801	-0.685436	-0.488383
O14	O	0.868466	-0.685465	-0.369068
O15	O	1.085145	-0.530444	-0.495337
O16	O	1.068972	-0.890134	-0.269511
O17	O	0.978600	-0.890074	-0.359904
C18	C	0.845227	-0.607976	-0.327342
C19	C	0.763427	-0.607989	-0.327353
C20	C	0.578855	-0.527420	-0.378109
C21	C	0.501996	-0.527431	-0.378111
C22	C	0.494758	-0.688644	-0.276609
C23	C	0.571616	-0.688626	-0.276604
C24	C	0.613663	-0.608016	-0.327358
C25	C	0.459945	-0.608045	-0.327365
C26	C	0.376611	-0.608057	-0.327367
C27	C	0.697002	-0.608001	-0.327356
C28	C	1.021753	-0.935894	-0.312671
C29	C	1.015541	-1.076162	-0.306415
C30	C	1.228383	-0.608054	-0.327365
C31	C	1.310181	-0.608071	-0.327370
C32	C	1.036480	-0.607927	-0.519310
C33	C	1.036501	-0.607890	-0.601111
C34	C	1.051187	-0.278855	-0.342109
C35	C	1.057475	-0.138587	-0.348397
C36	C	1.087208	-0.527111	-0.792930
C37	C	1.087219	-0.527074	-0.869791
C38	C	0.985854	-0.688475	-0.862538
C39	C	0.985841	-0.688504	-0.785679
C40	C	1.036522	-0.607824	-0.750877
C41	C	1.036546	-0.607758	-0.904596
C42	C	1.036557	-0.607719	-0.987932
C43	C	1.036510	-0.607861	-0.667537
C44	C	1.036429	-0.608010	-0.136147
C45	C	1.036567	-0.607692	-0.054363
H46	H	0.613088	-0.461778	-0.419434
H47	H	0.460514	-0.754275	-0.235288
H48	H	0.473660	-0.461800	-0.419436
H49	H	1.128491	-0.461347	-0.904028
H50	H	1.098131	-1.084724	-0.389130
O51	O	0.605314	-0.767042	-0.227274
C52	C	0.551724	-0.838179	-0.182470
H53	H	0.496749	-0.842633	-0.212412
H54	H	0.545599	-0.791847	-0.128696
C55	C	0.643243	-0.966987	-0.128947
C56	C	0.575723	-0.972466	-0.165725
H57	H	0.658047	-1.049820	-0.118614
H58	H	0.679348	-0.919058	-0.159130
H59	H	0.638130	-0.928372	-0.084139
H60	H	0.580839	-1.011066	-0.210536
H61	H	0.539618	-1.020405	-0.135549
H62	H	0.974877	-1.130032	-0.265686
O63	O	1.136462	-0.448614	-0.759243
C64	C	1.181212	-0.377388	-0.812845
H65	H	1.151272	-0.372997	-0.867823
H66	H	1.235036	-0.423603	-0.818955
C67	C	1.234601	-0.248482	-0.721350
C68	C	1.197826	-0.243079	-0.788874
H69	H	1.244853	-0.165635	-0.706563
H70	H	1.204454	-0.296470	-0.685236
H71	H	1.279450	-0.286999	-0.726450
H72	H	1.152974	-0.204577	-0.783770
H73	H	1.227965	-0.195081	-0.824986
O74	O	0.936700	-0.766809	-0.896461
C75	C	0.947568	-0.749457	-0.973318
H76	H	1.006215	-0.708132	-0.985677
H77	H	0.906931	-0.682238	-0.998137
C78	C	0.863076	-0.927884	-0.991869
C79	C	0.935111	-0.877138	-1.007049
H80	H	0.855389	-1.006642	-1.012678
H81	H	0.855752	-0.939572	-0.940090
H82	H	0.829221	-0.871857	-1.012553
H83	H	0.968964	-0.933157	-0.986357
H84	H	0.942441	-0.865462	-1.058826
O85	O	0.936574	-0.767036	-0.744932
C86	C	0.891837	-0.838226	-0.792129
H87	H	0.921791	-0.842584	-0.846725
H88	H	0.838016	-0.792002	-0.802367
C89	C	0.838417	-0.967192	-0.689046
C90	C	0.875210	-0.972553	-0.756100
H91	H	0.828158	-1.050050	-0.666821
H92	H	0.868555	-0.919227	-0.657248
H93	H	0.793571	-0.928667	-0.697587
H94	H	0.920060	-1.011064	-0.747557
H95	H	0.845080	-1.020528	-0.787896
