data_functionalizedCrystal
_audit_creation_method	'MofGen! by Chris Wilmer'
_symmetry_space_group_name_H-M	'P1'
_symmetry_Int_Tables_number	1
_symmetry_cell_setting	triclinic
loop_
_symmetry_equiv_pos_as_xyz
  x,y,z
_cell_length_a	15.995350
_cell_length_b	10.489741
_cell_length_c	14.472310
_cell_angle_alpha	89.999301
_cell_angle_beta	89.990621
_cell_angle_gamma	84.015774
loop_
_atom_site_label
_atom_site_type_symbol
_atom_site_fract_x
_atom_site_fract_y
_atom_site_fract_z
O1	O	1.111988	0.164399	-0.076762
O2	O	0.868335	0.184702	-0.076781
O3	O	0.995706	-0.011125	-0.076766
O4	O	0.984617	0.360226	-0.076777
O5	O	0.995673	-0.011114	0.076916
O6	O	0.868302	0.184713	0.076901
O7	O	1.111955	0.164411	0.076920
Cu8	Cu	0.990125	0.174563	0.090943
Cu9	Cu	0.990164	0.174549	-0.090804
O10	O	0.984584	0.360237	0.076905
C11	C	0.837119	0.183868	0.000058
C12	C	0.744153	0.181352	0.000050
C13	C	0.406351	0.172315	0.000070
C14	C	0.452944	0.032851	0.000417
C15	C	0.549650	0.035368	0.000064
C16	C	0.573939	0.176797	0.000061
C17	C	0.533285	0.245579	-0.087698
C18	C	0.436628	0.242076	-0.087765
C19	C	0.436269	0.244970	0.087001
C20	C	0.533214	0.244937	0.088154
C21	C	0.668651	0.179338	0.000053
C22	C	0.311638	0.169778	0.000072
C23	C	0.994852	-0.058639	0.000075
C24	C	0.992346	-0.200234	0.000073
C25	C	0.911304	-0.267240	0.000060
C26	C	0.949571	-0.359892	0.075836
C27	C	0.949623	-0.359878	-0.075682
C28	C	1.030647	-0.291021	0.075912
C29	C	1.030687	-0.290998	-0.075675
C30	C	1.069013	-0.383624	0.000120
C31	C	1.143171	0.165244	0.000079
C32	C	1.236137	0.167761	0.000080
C33	C	0.985438	0.407752	0.000062
C34	C	0.987944	0.549346	0.000058
N35	N	0.990104	0.174572	0.218774
N36	N	0.990192	0.174531	-0.218635
C37	C	0.990163	0.174544	0.592865
C38	C	0.921777	0.278976	0.553691
C39	C	0.921938	0.279357	0.446603
C40	C	0.990133	0.174558	0.407274
C41	C	1.077673	0.203626	0.446117
C42	C	1.077290	0.204368	0.553238
C43	C	0.971787	0.040735	0.553397
C44	C	0.969789	0.041628	0.446269
C45	C	0.990122	0.174563	0.302386
C46	C	0.990181	0.174542	0.697753
H47	H	0.561385	0.197797	-0.153007
N48	N	1.034328	-0.056777	0.585165
N49	N	1.079410	-0.121961	0.528273
H50	H	1.123582	-0.190822	0.550713
N51	N	0.906537	-0.398223	0.156185
N52	N	0.898274	-0.514007	0.169371
H53	H	0.867877	-0.541077	0.226114
N54	N	0.410155	0.187804	0.170461
N55	N	0.363301	0.252521	0.226005
H56	H	0.344859	0.212138	0.284946
H57	H	0.933757	0.378654	0.420966
H58	H	0.560214	0.194727	0.153077
H59	H	0.434072	-0.022892	0.063353
H60	H	1.016301	-0.039726	0.419501
H61	H	0.549200	0.348073	0.093452
N62	N	0.827712	-0.203794	0.000151
N63	N	0.778787	-0.221790	0.065110
H64	H	0.719751	-0.176981	0.065179
N65	N	1.143088	0.110769	0.414143
N66	N	1.202387	0.145519	0.367380
H67	H	1.248587	0.079938	0.344797
H68	H	0.405128	0.347796	0.087591
N69	N	1.073612	-0.252930	0.156363
N70	N	1.082445	-0.137296	0.169369
H71	H	1.112786	-0.110389	0.226188
H72	H	0.433029	-0.022644	-0.062167
N73	N	1.152673	-0.446811	0.000154
N74	N	1.201902	-0.427732	-0.064285
H75	H	1.260986	-0.472361	-0.064260
H76	H	1.064963	-0.260437	-0.139736
N77	N	0.906596	-0.398147	-0.156039
N78	N	0.831595	-0.355969	-0.169524
H79	H	0.801201	-0.382993	-0.226271
H80	H	0.577739	-0.018699	0.062974
N81	N	0.840228	0.258253	0.413669
N82	N	0.782686	0.243123	0.469799
H83	H	0.724931	0.228457	0.446545
H84	H	0.856524	0.261942	0.579474
N85	N	0.893374	0.005675	0.587296
N86	N	0.868143	-0.098173	0.563243
H87	H	0.812760	-0.122923	0.587183
N88	N	0.936407	0.402837	0.587452
N89	N	0.996981	0.414532	0.640239
H90	H	1.007317	0.502008	0.664085
N91	N	1.097428	0.326789	0.584591
N92	N	1.100779	0.349476	0.669225
H93	H	1.114997	0.435940	0.691366
N94	N	1.143096	0.112573	0.585737
N95	N	1.189163	0.048171	0.529302
H96	H	1.235642	-0.016655	0.552250
H97	H	0.905390	0.019568	0.420883
N98	N	0.584196	-0.032929	-0.078991
N99	N	0.536874	-0.082595	-0.134080
H100	H	0.561272	-0.130831	-0.189918
N101	N	0.413309	0.179118	-0.170052
N102	N	0.442352	0.065881	-0.185624
H103	H	0.425888	0.021411	-0.243741
N104	N	0.396955	0.370527	-0.092763
N105	N	0.440678	0.462472	-0.096197
H106	H	0.412663	0.553191	-0.099731
N107	N	0.551777	0.375933	-0.091796
N108	N	0.528690	0.451647	-0.027847
H109	H	0.541750	0.543711	-0.030740
N110	N	1.098285	0.324649	0.412441
N111	N	1.048650	0.389690	0.359845
H112	H	1.063203	0.475166	0.336061
