data_functionalizedCrystal
_audit_creation_method	'MofGen! by Chris Wilmer'
_symmetry_space_group_name_H-M	'P1'
_symmetry_Int_Tables_number	1
_symmetry_cell_setting	triclinic
loop_
_symmetry_equiv_pos_as_xyz
  x,y,z
_cell_length_a	19.805407
_cell_length_b	19.077068
_cell_length_c	19.805399
_cell_angle_alpha	87.730571
_cell_angle_beta	90.019573
_cell_angle_gamma	92.327086
loop_
_atom_site_label
_atom_site_type_symbol
_atom_site_fract_x
_atom_site_fract_y
_atom_site_fract_z
Zn1	Zn	1.023904	-0.280218	0.393534
Zn2	Zn	1.019269	-0.397917	0.284888
Zn3	Zn	0.910718	-0.280237	0.280359
Zn4	Zn	0.906134	-0.397880	0.398033
O5	O	0.965006	-0.339063	0.339204
O6	O	1.118005	-0.295839	0.379134
O7	O	1.004848	-0.382330	0.189571
O8	O	0.929590	-0.181744	0.291594
O9	O	1.114600	-0.382312	0.299312
O10	O	1.012748	-0.181729	0.374743
O11	O	0.925096	-0.295872	0.186244
O12	O	0.815394	-0.295835	0.295957
O13	O	0.921778	-0.382248	0.492152
O14	O	0.812026	-0.382267	0.382411
O15	O	1.008303	-0.295802	0.488846
O16	O	1.000404	-0.496403	0.303675
O17	O	0.917284	-0.496376	0.386802
C18	C	0.789151	-0.339050	0.339181
C19	C	0.713918	-0.339061	0.339188
C20	C	0.676836	-0.384133	0.384138
C21	C	0.606147	-0.384135	0.384147
C22	C	0.572543	-0.339066	0.339204
C23	C	0.609630	-0.293989	0.294252
C24	C	0.680318	-0.293985	0.294246
C25	C	0.324556	-0.294004	0.294275
C26	C	0.253864	-0.294014	0.294283
C27	C	0.250386	-0.384154	0.384176
C28	C	0.321073	-0.384150	0.384170
C29	C	0.358155	-0.339070	0.339221
C30	C	0.434804	-0.339069	0.339212
C31	C	0.495895	-0.339071	0.339209
C32	C	0.957862	-0.521927	0.346233
C33	C	0.954867	-0.600157	0.349263
C34	C	0.996770	-0.636901	0.307443
C35	C	0.993957	-0.710406	0.310296
C36	C	0.949238	-0.747167	0.354968
C37	C	0.907333	-0.710418	0.396793
C38	C	0.910150	-0.636914	0.393942
C39	C	0.936174	-0.967002	0.368135
C40	C	0.933359	-1.040511	0.370981
C41	C	1.019984	-1.040494	0.284485
C42	C	1.022794	-0.966989	0.281635
C43	C	0.980892	-0.930246	0.323463
N44	N	0.946361	-0.822301	0.357884
N45	N	0.983773	-0.855113	0.320549
C46	C	1.141548	-0.339077	0.339226
C47	C	1.216780	-0.339083	0.339236
C48	C	0.965046	-0.339019	0.515745
C49	C	0.965063	-0.339000	0.590976
C50	C	0.972197	-0.155485	0.332161
C51	C	0.975262	-0.077255	0.329160
C52	C	0.965008	-0.339056	0.163347
C53	C	0.965130	-0.338877	0.088109
C54	C	1.010118	-0.293985	0.624600
C55	C	1.010125	-0.293965	0.695288
C56	C	0.965081	-0.338963	0.732350
C57	C	0.920022	-0.383980	0.698721
C58	C	0.920011	-0.383996	0.628035
C59	C	0.920062	-0.383914	0.983792
C60	C	0.920078	-0.383896	1.054484
C61	C	1.010177	-0.293883	1.051045
C62	C	1.010166	-0.293899	0.980358
C63	C	0.965104	-0.338913	0.946736
C64	C	0.965096	-0.338934	0.870088
C65	C	0.965093	-0.338947	0.808997
H66	H	0.575957	-0.420838	0.420749
C67	C	0.870489	-0.433433	0.946828
C68	C	0.793775	-0.427671	0.956338
C69	C	0.744193	-0.477193	0.919378
C70	C	0.771326	-0.532477	0.872907
C71	C	0.848044	-0.538241	0.863395
C72	C	0.897625	-0.488719	0.900355
H73	H	0.773686	-0.386744	0.990741
H74	H	0.687401	-0.472925	0.926420
H75	H	0.734623	-0.569136	0.845547
H76	H	0.868132	-0.579167	0.828992
H77	H	0.954417	-0.492986	0.893313
H78	H	0.883343	-0.420615	0.728903
C79	C	0.209594	-0.433738	0.433627
C80	C	0.216187	-0.513742	0.431048
C81	C	0.175397	-0.563326	0.480495
C82	C	0.128015	-0.532907	0.532523
C83	C	0.121421	-0.452899	0.535104
C84	C	0.162211	-0.403315	0.485657
H85	H	0.251263	-0.536263	0.392532
H86	H	0.180279	-0.622553	0.478584
H87	H	0.097821	-0.569612	0.569127
H88	H	0.086345	-0.430378	0.573620
H89	H	0.157329	-0.344088	0.487568
H90	H	1.046866	-0.257228	1.078429
C91	C	0.870522	-0.433392	1.095255
C92	C	0.818594	-0.402869	1.142674
C93	C	0.769042	-0.452363	1.183446
C94	C	0.771418	-0.532378	1.176799
C95	C	0.823348	-0.562905	1.129377
C96	C	0.872900	-0.513411	1.088605
H97	H	0.816833	-0.343633	1.147597
H98	H	0.730600	-0.429764	1.218551
H99	H	0.734736	-0.569016	1.206981
H100	H	0.825108	-0.622141	1.124455
H101	H	0.911342	-0.536010	1.053501
C102	C	1.059691	-0.244450	0.732271
C103	C	1.111641	-0.274941	0.782048
C104	C	1.161209	-0.225422	0.819029
C105	C	1.158827	-0.145413	0.806233
C106	C	1.106874	-0.114918	0.756454
C107	C	1.057306	-0.164436	0.719473
H108	H	1.113407	-0.334172	0.791522
H109	H	1.199668	-0.247997	0.855879
H110	H	1.195520	-0.108756	0.833609
H111	H	1.105108	-0.055686	0.746979
H112	H	1.018847	-0.141861	0.682623
H113	H	0.883316	-0.420644	0.600659
H114	H	1.054099	-1.070418	0.250432
H115	H	0.704191	-0.420836	0.420734
H116	H	0.226505	-0.257309	0.257684
H117	H	1.046848	-0.257260	0.950185
H118	H	0.348430	-0.420852	0.420766
C119	C	0.572665	-0.244410	0.244818
C120	C	0.585506	-0.164405	0.247398
C121	C	0.548541	-0.114825	0.197963
C122	C	0.498734	-0.145250	0.145948
C123	C	0.485890	-0.225258	0.143366
C124	C	0.522855	-0.274838	0.192801
H125	H	0.622378	-0.141879	0.285905
H126	H	0.558049	-0.055597	0.199875
H127	H	0.471370	-0.108548	0.109353
H128	H	0.449018	-0.247784	0.104859
H129	H	0.513347	-0.334066	0.190889
H130	H	0.710510	-0.257278	0.257647
C131	C	1.045963	-0.596467	0.258303
C132	C	1.040099	-0.606635	0.181747
C133	C	1.089295	-0.566203	0.132608
C134	C	1.144354	-0.515604	0.160025
C135	C	1.150220	-0.505434	0.236585
C136	C	1.101024	-0.545866	0.285724
H137	H	0.999338	-0.644093	0.161448
H138	H	1.084952	-0.573732	0.075933
H139	H	1.180772	-0.485674	0.123649
H140	H	1.190981	-0.467976	0.256884
H141	H	1.105367	-0.538337	0.342399
C142	C	0.864054	-0.596494	0.439944
C143	C	0.895292	-0.545902	0.491151
C144	C	0.849197	-0.505483	0.537157
C145	C	0.771865	-0.515656	0.531957
C146	C	0.740623	-0.566251	0.480748
C147	C	0.786718	-0.606669	0.434742
H148	H	0.952541	-0.538369	0.495002
H149	H	0.872324	-0.468030	0.575065
H150	H	0.737742	-0.485736	0.566014
H151	H	0.683374	-0.573783	0.476897
H152	H	0.763591	-0.644122	0.396834
H153	H	0.354740	-0.257303	0.257670
C154	C	1.040055	-0.750820	0.264293
C155	C	1.034963	-0.740774	0.186953
C156	C	1.081067	-0.781185	0.140949
C157	C	1.132263	-0.831643	0.172286
C158	C	1.137358	-0.841691	0.249630
C159	C	1.091254	-0.801280	0.295634
H160	H	0.997062	-0.703420	0.163752
H161	H	1.077295	-0.773746	0.083694
H162	H	1.166392	-0.861557	0.138231
H163	H	1.175258	-0.879044	0.272831
H164	H	1.095026	-0.808718	0.352889
C165	C	0.884166	-1.080950	0.420124
C166	C	0.838075	-1.040537	0.466134
C167	C	0.788883	-1.080976	0.515272
C168	C	0.785782	-1.161827	0.518400
C169	C	0.831875	-1.202245	0.472389
C170	C	0.881067	-1.161806	0.423251
H171	H	0.840369	-0.980681	0.463819
H172	H	0.754762	-1.051055	0.549332
H173	H	0.749368	-1.191762	0.554775
H174	H	0.829581	-1.262100	0.474703
H175	H	0.915187	-1.191726	0.389190
C176	C	0.890080	-0.926587	0.414137
C177	C	0.921316	-0.875995	0.465344
C178	C	0.875220	-0.835574	0.511348
C179	C	0.797888	-0.845745	0.506144
C180	C	0.766648	-0.896339	0.454935
C181	C	0.812744	-0.936760	0.408931
H182	H	0.978565	-0.868463	0.469198
H183	H	0.898347	-0.798120	0.549256
H184	H	0.763765	-0.815823	0.540199
H185	H	0.709398	-0.903870	0.451081
H186	H	0.789617	-0.974213	0.371023
H187	H	0.870925	-0.740354	0.433168
H188	H	1.046800	-0.257345	0.594428
H189	H	1.059207	-0.937060	0.245260
