data_functionalizedCrystal
_audit_creation_method	'MofGen! by Chris Wilmer'
_symmetry_space_group_name_H-M	'P1'
_symmetry_Int_Tables_number	1
_symmetry_cell_setting	triclinic
loop_
_symmetry_equiv_pos_as_xyz
  x,y,z
_cell_length_a	6.817900
_cell_length_b	10.943632
_cell_length_c	10.943624
_cell_angle_alpha	91.771060
_cell_angle_beta	108.838799
_cell_angle_gamma	108.838880
loop_
_atom_site_label
_atom_site_type_symbol
_atom_site_fract_x
_atom_site_fract_y
_atom_site_fract_z
V1	V	-4.115495	-0.178596	-0.402520
O2	O	-4.073204	0.008617	-0.394890
O3	O	-4.093445	-0.354159	-0.399737
O4	O	-4.093458	-0.175834	-0.578087
O5	O	-4.073192	-0.170943	-0.215305
V6	V	-4.592293	-0.156205	-0.380131
O7	O	-4.391506	-0.227713	-0.451632
O8	O	-4.766479	-0.107088	-0.331020
O9	O	-4.391136	0.019358	-0.382915
O10	O	-4.751980	-0.343418	-0.387762
O11	O	-4.751993	-0.163858	-0.567347
O12	O	-4.391123	-0.158967	-0.204564
C13	C	-3.944003	-0.396958	-0.393379
C14	C	-4.007438	-0.540484	-0.392273
C15	C	-3.852284	-0.617637	-0.384920
C16	C	-3.931120	-0.690292	-0.280695
C17	C	-4.041658	-0.723567	-0.494542
C18	C	-4.085393	-0.611235	-0.287974
C19	C	-4.195950	-0.644516	-0.501916
C20	C	-4.274895	-0.717134	-0.397670
C21	C	-3.944018	-0.169484	-0.620881
C22	C	-4.007457	-0.168388	-0.764408
C23	C	-3.852287	-0.161001	-0.841556
C24	C	-4.041646	-0.270645	-0.947527
C25	C	-3.931164	-0.056801	-0.914178
C26	C	-4.196026	-0.278134	-0.868502
C27	C	-4.085465	-0.064194	-0.835129
C28	C	-4.274960	-0.173869	-0.941070
C29	C	-4.203920	0.062151	-0.389269
C30	C	-4.119726	0.205675	-0.390383
C31	C	-4.203905	-0.165321	-0.161764
C32	C	-4.119703	-0.166411	-0.018236
H33	H	-3.672971	-0.574154	-0.379408
C34	C	-4.109581	0.052126	-0.770001
C35	C	-4.329418	0.046305	-0.822376
C36	C	-4.351681	0.153454	-0.762411
H37	H	-4.070246	0.050189	-0.678717
H38	H	-4.014911	0.130703	-0.785103
H39	H	-4.424058	-0.032252	-0.807263
H40	H	-4.368801	0.048259	-0.913654
H41	H	-4.257011	0.232031	-0.777513
H42	H	-4.312336	0.151508	-0.671129
H43	H	-4.500835	0.149526	-0.797947
C44	C	-4.344486	-0.403155	-0.841298
C45	C	-4.321539	-0.510878	-0.899735
C46	C	-4.458276	-0.626067	-0.874715
H47	H	-4.303086	-0.403312	-0.749695
H48	H	-4.494227	-0.408072	-0.876314
H49	H	-4.171830	-0.505962	-0.864714
H50	H	-4.362955	-0.510764	-0.991339
H51	H	-4.608017	-0.630985	-0.909731
H52	H	-4.416864	-0.626211	-0.783111
H53	H	-4.442740	-0.699171	-0.914370
H54	H	-3.819816	0.036718	-0.934956
C55	C	-3.782645	-0.718197	-0.156129
C56	C	-3.670926	-0.794344	-0.188047
C57	C	-3.534134	-0.820085	-0.073341
H58	H	-3.678017	-0.638197	-0.104217
H59	H	-3.870281	-0.764031	-0.108588
H60	H	-3.583295	-0.748510	-0.235566
H61	H	-3.775498	-0.874359	-0.239942
H62	H	-3.621771	-0.865919	-0.025800
H63	H	-3.429520	-0.740080	-0.021437
H64	H	-3.458332	-0.871763	-0.094981
H65	H	-4.023784	-0.357924	-0.996461
H66	H	-4.103227	-0.562474	-0.200587
C67	C	-4.513980	-0.181074	-0.998978
C68	C	-4.570740	-0.178856	-1.133582
C69	C	-4.790896	-0.185479	-1.186971
H70	H	-4.608437	-0.259685	-0.983829
H71	H	-4.530351	-0.108438	-0.959048
H72	H	-4.554389	-0.251485	-1.173499
H73	H	-4.476341	-0.100251	-1.148767
H74	H	-4.807268	-0.112843	-1.147040
H75	H	-4.885334	-0.264091	-1.171813
H76	H	-4.829430	-0.183962	-1.278302
C77	C	-4.513913	-0.775043	-0.404871
C78	C	-4.571816	-0.909992	-0.404871
C79	C	-4.791982	-0.963387	-0.411512
H80	H	-4.529813	-0.736215	-0.331478
H81	H	-4.608095	-0.758568	-0.482790
H82	H	-4.477662	-0.926457	-0.326960
H83	H	-4.555968	-0.948856	-0.478259
H84	H	-4.886163	-0.946912	-0.489431
H85	H	-4.807861	-0.924548	-0.338118
H86	H	-4.831303	-1.054955	-0.411525
H87	H	-4.307176	-0.623718	-0.595459
H88	H	-4.023738	-0.772480	-0.581812
H89	H	-3.673087	-0.155706	-0.798109
