data_functionalizedCrystal
_audit_creation_method	'MofGen! by Chris Wilmer'
_symmetry_space_group_name_H-M	'P1'
_symmetry_Int_Tables_number	1
_symmetry_cell_setting	triclinic
loop_
_symmetry_equiv_pos_as_xyz
  x,y,z
_cell_length_a	23.532407
_cell_length_b	23.532407
_cell_length_c	22.610064
_cell_angle_alpha	89.997161
_cell_angle_beta	89.988412
_cell_angle_gamma	97.151323
loop_
_atom_site_label
_atom_site_type_symbol
_atom_site_fract_x
_atom_site_fract_y
_atom_site_fract_z
O1	O	-0.069127	0.755263	-0.049101
O2	O	0.430873	1.255263	0.450899
O3	O	-0.079130	0.589400	-0.049117
O4	O	0.420870	1.089400	0.450883
O5	O	0.008803	0.677333	-0.049116
O6	O	0.508803	1.177333	0.450884
O7	O	-0.157060	0.667330	-0.049102
O8	O	0.342940	1.167330	0.450898
O9	O	0.008790	0.677318	0.049253
O10	O	0.508790	1.177318	0.549253
O11	O	-0.079143	0.589385	0.049252
O12	O	0.420857	1.089385	0.549252
O13	O	-0.069140	0.755248	0.049268
O14	O	0.430860	1.255248	0.549268
Zn15	Zn	-0.074144	0.672314	0.064878
Zn16	Zn	0.425856	1.172314	0.564878
Zn17	Zn	-0.074127	0.672334	-0.064728
Zn18	Zn	0.425873	1.172334	0.435272
O19	O	-0.157073	0.667315	0.049267
O20	O	0.342927	1.167315	0.549267
C21	C	-0.078882	0.568176	0.000065
C22	C	0.421118	1.068176	0.500065
C23	C	-0.078116	0.504959	0.000058
C24	C	0.421884	1.004959	0.500058
C25	C	-0.125350	0.105856	0.000089
C26	C	0.374650	0.605856	0.500089
C27	C	-0.124638	0.046456	0.000093
C28	C	0.375362	0.546456	0.500093
O29	O	-0.168424	0.009711	0.000118
O30	O	0.331576	0.509711	0.500118
N31	N	-0.072362	0.023830	0.000087
N32	N	0.427638	0.523830	0.500087
C33	C	-0.020794	0.060607	0.000084
C34	C	0.479206	0.560607	0.500084
O35	O	0.023737	0.035908	0.000081
O36	O	0.523737	0.535908	0.500081
C37	C	-0.021506	0.120006	0.000085
C38	C	0.478494	0.620006	0.500085
C39	C	-0.073785	0.142629	0.000084
C40	C	0.426215	0.642629	0.500084
C41	C	-0.177625	0.128479	0.000089
C42	C	0.322375	0.628479	0.500089
C43	C	-0.178336	0.187876	0.000084
C44	C	0.321664	0.687876	0.500084
C45	C	-0.126772	0.224649	0.000080
C46	C	0.373228	0.724649	0.500080
C47	C	-0.074497	0.202025	0.000080
C48	C	0.425503	0.702025	0.500080
C49	C	0.030062	0.156783	0.000086
C50	C	0.530062	0.656783	0.500086
C51	C	0.029345	0.216185	0.000087
C52	C	0.529345	0.716185	0.500087
C53	C	-0.022934	0.238808	0.000087
C54	C	0.477066	0.738808	0.500087
C55	C	-0.023643	0.298194	0.000070
C56	C	0.476357	0.798194	0.500070
N57	N	-0.075920	0.320820	0.000076
N58	N	0.424080	0.820820	0.500076
C59	C	-0.127484	0.284048	0.000080
C60	C	0.372516	0.784048	0.500080
C61	C	-0.019302	-0.064135	0.000084
C62	C	0.480698	0.435865	0.500084
C63	C	-0.018589	-0.123533	0.000079
C64	C	0.481411	0.376467	0.500079
C65	C	-0.122434	-0.137680	0.000088
C66	C	0.377566	0.362320	0.500088
C67	C	-0.123146	-0.078281	0.000089
C68	C	0.376854	0.421719	0.500089
C69	C	-0.071578	-0.041509	0.000089
C70	C	0.428422	0.458491	0.500089
C71	C	-0.128974	0.408784	0.000070
C72	C	0.371026	0.908784	0.500070
C73	C	-0.129680	0.468186	0.000063
C74	C	0.370320	0.968186	0.500063
C75	C	-0.025836	0.482329	0.000057
C76	C	0.474164	0.982329	0.500057
C77	C	-0.025129	0.422932	0.000061
C78	C	0.474871	0.922932	0.500061
C79	C	-0.076702	0.386160	0.000069
C80	C	0.423298	0.886160	0.500069
O81	O	0.020119	0.334974	0.000048
O82	O	0.520119	0.834974	0.500048
O83	O	-0.172007	0.308755	0.000092
O84	O	0.327993	0.808755	0.500092
C85	C	-0.178283	0.667577	0.000084
C86	C	0.321717	1.167577	0.500084
C87	C	-0.241500	0.668343	0.000090
C88	C	0.258500	1.168343	0.500090
C89	C	-0.640603	0.621110	0.000055
C90	C	-0.140603	1.121110	0.500055
C91	C	-0.700003	0.621821	0.000051
C92	C	-0.200003	1.121821	0.500051
O93	O	-0.736748	0.578035	0.000025
O94	O	-0.236748	1.078035	0.500025
N95	N	-0.722629	0.674097	0.000057
N96	N	-0.222629	1.174097	0.500057
C97	C	-0.685852	0.725666	0.000061
C98	C	-0.185852	1.225666	0.500061
O99	O	-0.710551	0.770196	0.000065
O100	O	-0.210551	1.270196	0.500065
C101	C	-0.626453	0.724954	0.000060
C102	C	-0.126453	1.224954	0.500060
C103	C	-0.603830	0.672674	0.000061
C104	C	-0.103830	1.172674	0.500061
C105	C	-0.617980	0.568834	0.000054
C106	C	-0.117980	1.068834	0.500054
C107	C	-0.558584	0.568123	0.000060
C108	C	-0.058584	1.068123	0.500060
C109	C	-0.521811	0.619687	0.000065
C110	C	-0.021811	1.119687	0.500065
C111	C	-0.544434	0.671963	0.000066
C112	C	-0.044434	1.171963	0.500066
C113	C	-0.589676	0.776521	0.000060
C114	C	-0.089676	1.276521	0.500060
C115	C	-0.530274	0.775805	0.000059
C116	C	-0.030274	1.275805	0.500059
C117	C	-0.507651	0.723525	0.000060
C118	C	-0.007651	1.223525	0.500060
C119	C	-0.448265	0.722816	0.000077
C120	C	0.051735	1.222816	0.500077
N121	N	-0.425639	0.670539	0.000071
N122	N	0.074361	1.170539	0.500071
C123	C	-0.462412	0.618975	0.000065
C124	C	0.037588	1.118975	0.500065
C125	C	-0.810594	0.727157	0.000060
C126	C	-0.310594	1.227157	0.500060
C127	C	-0.869992	0.727870	0.000064
C128	C	-0.369992	1.227870	0.500064
C129	C	-0.884140	0.624025	0.000053
C130	C	-0.384140	1.124025	0.500053
C131	C	-0.824740	0.623313	0.000053
C132	C	-0.324740	1.123313	0.500053
C133	C	-0.787968	0.674881	0.000054
C134	C	-0.287968	1.174881	0.500054
C135	C	-0.337675	0.617485	0.000076
C136	C	0.162325	1.117485	0.500076
C137	C	-0.278273	0.616779	0.000084
C138	C	0.221727	1.116779	0.500084
C139	C	-0.264131	0.720623	0.000092
C140	C	0.235869	1.220623	0.500092
C141	C	-0.323527	0.721330	0.000087
C142	C	0.176473	1.221330	0.500087
C143	C	-0.360299	0.669757	0.000078
C144	C	0.139701	1.169757	0.500078
O145	O	-0.411486	0.766579	0.000100
O146	O	0.088514	1.266579	0.500100
O147	O	-0.437704	0.574452	0.000053
O148	O	0.062296	1.074452	0.500053
C149	C	0.030013	0.677071	0.000065
C150	C	0.530013	1.177071	0.500065
C151	C	0.093230	0.676305	0.000055
C152	C	0.593230	1.176305	0.500055
C153	C	-0.069388	0.776472	0.000084
C154	C	0.430612	1.276472	0.500084
C155	C	-0.070154	0.839689	0.000087
C156	C	0.429846	1.339689	0.500087
N157	N	-0.074155	0.672304	0.153330
N158	N	0.425845	1.172304	0.653330
N159	N	-0.074111	0.672349	-0.153180
N160	N	0.425889	1.172349	0.346820
C161	C	-0.035196	0.711273	0.561972
C162	C	0.464804	1.211273	1.061972
C163	C	-0.035192	0.711276	0.623892
C164	C	0.464808	1.211276	1.123892
O165	O	-0.002076	0.744384	0.655911
O166	O	0.497924	1.244384	1.155911
N167	N	-0.074115	0.672334	0.654868
N168	N	0.425885	1.172334	1.154868
C169	C	-0.113041	0.633383	0.623920
C170	C	0.386959	1.133383	1.123920
O171	O	-0.146147	0.600259	0.655953
O172	O	0.353853	1.100259	1.155953
C173	C	-0.113042	0.633377	0.562001
C174	C	0.386958	1.133377	1.062001
C175	C	-0.074120	0.672326	0.531029
C176	C	0.425880	1.172326	1.031029
C177	C	0.003724	0.750218	0.531000
C178	C	0.503724	1.250218	1.031000
C179	C	0.003719	0.750215	0.469084
C180	C	0.503719	1.250215	0.969084
C181	C	-0.035206	0.711268	0.438141
C182	C	0.464794	1.211268	0.938141
C183	C	-0.074125	0.672323	0.469113
C184	C	0.425875	1.172323	0.969113
C185	C	-0.151965	0.594424	0.531055
C186	C	0.348035	1.094424	1.031055
C187	C	-0.151962	0.594422	0.469132
C188	C	0.348038	1.094422	0.969132
C189	C	-0.113040	0.633370	0.438159
C190	C	0.386960	1.133370	0.938159
C191	C	-0.113054	0.633374	0.376254
C192	C	0.386946	1.133374	0.876254
N193	N	-0.074131	0.672316	0.345279
N194	N	0.425869	1.172316	0.845279
C195	C	-0.035207	0.711263	0.376222
C196	C	0.464793	1.211263	0.876222
C197	C	-0.113035	0.633396	0.753954
C198	C	0.386965	1.133396	1.253954
C199	C	-0.113037	0.633403	0.815871
C200	C	0.386963	1.133403	1.315871
C201	C	-0.035187	0.711296	0.815839
C202	C	0.464813	1.211296	1.315839
C203	C	-0.035188	0.711291	0.753920
C204	C	0.464812	1.211291	1.253920
C205	C	-0.074112	0.672338	0.722978
C206	C	0.425888	1.172338	1.222978
C207	C	-0.035220	0.711255	0.246195
C208	C	0.464780	1.211255	0.746195
C209	C	-0.035230	0.711251	0.184274
C210	C	0.464770	1.211251	0.684274
C211	C	-0.113078	0.633357	0.184311
C212	C	0.386922	1.133357	0.684311
C213	C	-0.113071	0.633363	0.246227
C214	C	0.386929	1.133363	0.746227
C215	C	-0.074137	0.672314	0.277167
C216	C	0.425863	1.172314	0.777167
O217	O	-0.146152	0.600281	0.344196
O218	O	0.353848	1.100281	0.844196
O219	O	-0.002101	0.744376	0.344182
O220	O	0.497899	1.244376	0.844182
H221	H	0.072634	0.138375	0.000087
H222	H	0.572634	0.638375	0.500087
H223	H	-0.220908	0.206289	0.000084
H224	H	0.279092	0.706289	0.500084
H225	H	-0.608085	0.819093	0.000059
H226	H	-0.108085	1.319093	0.500059
O227	O	0.079493	0.251824	0.000058
O228	O	0.579493	0.751824	0.500058
C229	C	0.125783	0.219114	0.000073
C230	C	0.625783	0.719114	0.500073
H231	H	0.111068	0.174698	-0.018545
H232	H	0.611068	0.674698	0.481455
H233	H	0.161896	0.241221	-0.028490
H234	H	0.661896	0.741221	0.471510
H235	H	0.141816	0.214972	0.047266
H236	H	0.641816	0.714972	0.547266
H237	H	-0.183658	0.562700	0.443941
H238	H	0.316342	1.062700	0.943941
O239	O	0.025704	0.401047	0.000080
O240	O	0.525704	0.901047	0.500080
C241	C	0.071063	0.446245	0.000054
C242	C	0.571063	0.946245	0.500054
H243	H	0.055331	0.486513	0.018673
H244	H	0.555331	0.986513	0.518673
H245	H	0.107580	0.434034	0.028611
H246	H	0.607580	0.934034	0.528611
H247	H	0.086956	0.454735	-0.047142
H248	H	0.586956	0.954735	0.452858
H249	H	-0.165717	-0.059867	0.000092
H250	H	0.334283	0.440133	0.500092
O251	O	-0.179034	0.373013	-0.000004
O252	O	0.320966	0.873013	0.499996
C253	C	-0.181731	0.338243	-0.050957
C254	C	0.318269	0.838243	0.449043
H255	H	-0.136542	0.335480	-0.067941
H256	H	0.363458	0.835480	0.432059
H257	H	-0.203215	0.293481	-0.039498
H258	H	0.296785	0.793481	0.460502
H259	H	-0.207615	0.357650	-0.086633
H260	H	0.292385	0.857650	0.413367
H261	H	0.016146	0.512280	0.000051
H262	H	0.516146	1.012280	0.500051
O263	O	-0.494635	0.825952	0.000087
O264	O	0.005365	1.325952	0.500087
C265	C	-0.527345	0.872242	0.000070
C266	C	-0.027345	1.372242	0.500070
H267	H	-0.571765	0.857523	0.018691
H268	H	-0.071765	1.357523	0.518691
H269	H	-0.505245	0.908349	0.028631
H270	H	-0.005245	1.408349	0.528631
H271	H	-0.531476	0.888286	-0.047122
H272	H	-0.031476	1.388286	0.452878
O273	O	-0.256393	0.565942	0.000056
O274	O	0.243607	1.065942	0.500056
C275	C	-0.301592	0.520584	0.000062
C276	C	0.198408	1.020584	0.500062
H277	H	-0.341853	0.536319	-0.018563
H278	H	0.158147	1.036319	0.481437
H279	H	-0.289372	0.484069	-0.028500
H280	H	0.210628	0.984069	0.471500
H281	H	-0.310099	0.504687	0.047253
H282	H	0.189901	1.004687	0.547253
O283	O	-0.373446	0.567425	0.000149
O284	O	0.126554	1.067425	0.500149
C285	C	-0.408232	0.564711	0.051101
C286	C	0.091768	1.064711	0.551101
H287	H	-0.411000	0.609895	0.068086
H288	H	0.089000	1.109895	0.568086
H289	H	-0.452990	0.543230	0.039640
H290	H	0.047010	1.043230	0.539640
H291	H	-0.388835	0.538816	0.086776
H292	H	0.111165	1.038816	0.586776
O293	O	-0.150900	0.595474	0.276225
O294	O	0.349100	1.095474	0.776225
C295	C	-0.185266	0.561109	0.235633
C296	C	0.314734	1.061109	0.735633
H297	H	-0.161926	0.560606	0.191486
H298	H	0.338074	1.060606	0.691486
H299	H	-0.194176	0.515577	0.253523
H300	H	0.305824	1.015577	0.753523
H301	H	-0.227485	0.579353	0.229065
H302	H	0.272515	1.079353	0.729065
H303	H	-0.780657	0.769152	0.000065
H304	H	-0.280657	1.269152	0.500065
O305	O	-0.227771	0.092844	0.000065
O306	O	0.272229	0.592844	0.500065
C307	C	-0.274056	0.125562	0.000081
C308	C	0.225944	0.625562	0.500081
H309	H	-0.259328	0.169978	-0.018539
H310	H	0.240672	0.669978	0.481461
H311	H	-0.310161	0.103463	-0.028480
H312	H	0.189839	0.603463	0.471520
H313	H	-0.290106	0.129701	0.047274
H314	H	0.209894	0.629701	0.547274
O315	O	-0.172473	-0.173489	0.000122
O316	O	0.327527	0.326511	0.500122
C317	C	-0.160628	-0.230765	0.000108
C318	C	0.339372	0.269235	0.500108
H319	H	-0.115910	-0.232791	0.018727
H320	H	0.384090	0.267209	0.518727
H321	H	-0.193518	-0.257863	0.028671
H322	H	0.306482	0.242137	0.528671
H323	H	-0.162880	-0.247955	-0.047084
H324	H	0.337120	0.252045	0.452916
H325	H	-0.341947	0.763901	0.000096
H326	H	0.158053	1.263901	0.500096
H327	H	-0.540170	0.525551	0.000055
H328	H	-0.040170	1.025551	0.500055
H329	H	-0.144772	0.601648	0.159107
H330	H	0.355228	1.101648	0.659107
O331	O	-0.150879	0.595639	0.723834
O332	O	0.349121	1.095639	1.223834
C333	C	-0.185873	0.625934	0.688036
C334	C	0.314127	1.125934	1.188036
H335	H	-0.162961	0.670623	0.678741
H336	H	0.337039	1.170623	1.178741
H337	H	-0.195014	0.602106	0.644503
H338	H	0.304986	1.102106	1.144503
H339	H	-0.227941	0.629571	0.711914
H340	H	0.272059	1.129571	1.211914
O341	O	-0.180417	0.490256	0.000032
O342	O	0.319583	0.990256	0.500032
C343	C	-0.169994	0.550569	0.000038
C344	C	0.330006	1.050569	0.500038
H345	H	-0.125465	0.564764	-0.018584
H346	H	0.374535	1.064764	0.481416
H347	H	-0.203418	0.568621	-0.028526
H348	H	0.296582	1.068621	0.471474
H349	H	-0.172670	0.567092	0.047228
H350	H	0.327330	1.067092	0.547228
O351	O	0.032245	-0.145410	0.000099
O352	O	0.532245	0.354590	0.500099
C353	C	0.077600	-0.100209	0.000077
C354	C	0.577600	0.399791	0.500077
H355	H	0.061864	-0.059944	0.018699
H356	H	0.561864	0.440056	0.518699
H357	H	0.114118	-0.112418	0.028634
H358	H	0.614118	0.387582	0.528634
H359	H	0.093494	-0.091715	-0.047117
H360	H	0.593494	0.408285	0.452883
H361	H	-0.234180	0.762605	0.000099
H362	H	0.265820	1.262605	0.500099
O363	O	0.002637	0.749108	0.154280
O364	O	0.502637	1.249108	0.654280
C365	C	0.036983	0.783491	0.194874
C366	C	0.536983	1.283491	0.694874
H367	H	0.037509	0.760145	0.239013
H368	H	0.537509	1.260145	0.739013
H369	H	0.082510	0.792438	0.176973
H370	H	0.582510	1.292438	0.676973
H371	H	0.018706	0.825690	0.201462
H372	H	0.518706	1.325690	0.701462
H373	H	-0.183658	0.562709	0.556263
H374	H	0.316342	1.062709	1.056263
O375	O	-0.653615	0.518688	0.000077
O376	O	-0.153615	1.018688	0.500077
C377	C	-0.620897	0.472403	0.000061
C378	C	-0.120897	0.972403	0.500061
H379	H	-0.576486	0.487126	0.018682
H380	H	-0.076486	0.987126	0.518682
H381	H	-0.643005	0.436290	0.028622
H382	H	-0.143005	0.936290	0.528622
H383	H	-0.616745	0.456367	-0.047132
H384	H	-0.116745	0.956367	0.452868
H385	H	-0.144737	0.601694	0.841084
H386	H	0.355263	1.101694	1.341084
O387	O	0.030758	-0.028359	-0.000005
O388	O	0.530758	0.471641	0.499995
C389	C	0.033467	0.006415	-0.050960
C390	C	0.533467	0.506415	0.449040
H391	H	-0.011717	0.009178	-0.067938
H392	H	0.488283	0.509178	0.432062
H393	H	0.054948	0.051176	-0.039507
H394	H	0.554948	0.551176	0.460493
H395	H	0.059363	-0.012989	-0.086638
H396	H	0.559363	0.487011	0.413362
O397	O	-0.802862	0.572479	0.000022
O398	O	-0.302862	1.072479	0.500022
C399	C	-0.848063	0.527124	0.000034
C400	C	-0.348063	1.027124	0.500034
H401	H	-0.888325	0.542861	-0.018585
H402	H	-0.388325	1.042861	0.481415
H403	H	-0.835849	0.490608	-0.028530
H404	H	-0.335849	0.990608	0.471470
H405	H	-0.856565	0.511227	0.047225
H406	H	-0.356565	1.011227	0.547225
H407	H	0.035423	0.781933	0.556189
H408	H	0.535423	1.281933	1.056189
O409	O	-0.919948	0.573986	0.000015
O410	O	-0.419948	1.073986	0.500015
C411	C	-0.977224	0.585831	0.000027
C412	C	-0.477224	1.085831	0.500027
H413	H	-0.979244	0.630556	-0.018588
H414	H	-0.479244	1.130556	0.481412
H415	H	-1.004313	0.552952	-0.028541
H416	H	-0.504313	1.052952	0.471459
H417	H	-0.994430	0.583562	0.047218
H418	H	-0.494430	1.083562	0.547218
O419	O	0.002520	0.749117	0.276308
O420	O	0.502520	1.249117	0.776308
C421	C	-0.027797	0.784092	0.312117
C422	C	0.472203	1.284092	0.812117
H423	H	-0.072475	0.761155	0.321418
H424	H	0.427525	1.261155	0.821418
H425	H	-0.003970	0.793247	0.355646
H426	H	0.496030	1.293247	0.855646
H427	H	-0.031460	0.826153	0.288245
H428	H	0.468540	1.326153	0.788245
O429	O	-0.891869	0.778704	0.000044
O430	O	-0.391869	1.278704	0.500044
C431	C	-0.846668	0.824059	0.000066
C432	C	-0.346668	1.324059	0.500066
H433	H	-0.806398	0.808328	-0.018555
H434	H	-0.306398	1.308328	0.481445
H435	H	-0.858869	0.860585	-0.028491
H436	H	-0.358869	1.360585	0.471509
H437	H	-0.838188	0.839940	0.047261
H438	H	-0.338188	1.339940	0.547261
H439	H	0.035414	0.781929	0.443870
H440	H	0.535414	1.281929	0.943870
H441	H	-0.003494	0.743005	0.728706
H442	H	0.496506	1.243005	1.228706
H443	H	-0.003492	0.743008	0.841045
H444	H	0.496508	1.243008	1.341045
