data_functionalizedCrystal
_audit_creation_method	'MofGen! by Chris Wilmer'
_symmetry_space_group_name_H-M	'P1'
_symmetry_Int_Tables_number	1
_symmetry_cell_setting	triclinic
loop_
_symmetry_equiv_pos_as_xyz
  x,y,z
_cell_length_a	19.805407
_cell_length_b	19.805404
_cell_length_c	12.759393
_cell_angle_alpha	90.035437
_cell_angle_beta	90.020862
_cell_angle_gamma	90.026910
loop_
_atom_site_label
_atom_site_type_symbol
_atom_site_fract_x
_atom_site_fract_y
_atom_site_fract_z
Zn1	Zn	1.034741	-0.269472	0.594019
Zn2	Zn	1.534741	0.230528	1.094019
Zn3	Zn	1.034644	-0.382677	0.418328
Zn4	Zn	1.534644	0.117323	0.918328
Zn5	Zn	0.921550	-0.269502	0.418351
Zn6	Zn	1.421550	0.230498	0.918351
Zn7	Zn	0.921513	-0.382619	0.593962
Zn8	Zn	1.421513	0.117381	1.093962
O9	O	0.978112	-0.326067	0.506165
O10	O	1.478112	0.173933	1.006165
O11	O	1.129445	-0.284500	0.570728
O12	O	1.629445	0.215500	1.070728
O13	O	1.019616	-0.367700	0.271310
O14	O	1.519616	0.132300	0.771310
O15	O	0.936621	-0.174781	0.441688
O16	O	1.436621	0.325219	0.941688
O17	O	1.129373	-0.367671	0.441648
O18	O	1.629373	0.132329	0.941648
O19	O	1.019782	-0.174759	0.570751
O20	O	1.519782	0.325241	1.070751
O21	O	0.936526	-0.284551	0.271327
O22	O	1.436526	0.215449	0.771327
O23	O	0.826828	-0.284495	0.441632
O24	O	1.326828	0.215505	0.941632
O25	O	0.936558	-0.367573	0.740991
O26	O	1.436558	0.132427	1.240991
O27	O	0.826801	-0.367602	0.570653
O28	O	1.326801	0.132398	1.070653
O29	O	1.019747	-0.284444	0.741033
O30	O	1.519747	0.215556	1.241033
O31	O	1.019580	-0.477385	0.441592
O32	O	1.519580	0.022615	0.941592
O33	O	0.936464	-0.477343	0.570629
O34	O	1.436464	0.022657	1.070629
C35	C	0.802256	-0.326046	0.506140
C36	C	1.302256	0.173954	1.006140
C37	C	0.727024	-0.326053	0.506154
C38	C	1.227024	0.173947	1.006154
C39	C	0.978026	-0.501923	0.506125
C40	C	1.478026	-0.001923	1.006125
C41	C	0.978051	-0.577155	0.506142
C42	C	1.478051	-0.077155	1.006142
C43	C	1.021557	-1.038946	0.439122
C44	C	1.521557	-0.538946	0.939122
C45	C	1.021525	-0.968257	0.439102
C46	C	1.521525	-0.468257	0.939102
C47	C	0.978201	-0.932917	0.506221
C48	C	1.478201	-0.432917	1.006221
C49	C	0.934900	-0.968268	0.573357
C50	C	1.434900	-0.468268	1.073357
C51	C	0.934929	-1.038956	0.573372
C52	C	1.434929	-0.538956	1.073372
C53	C	0.934782	-0.683195	0.573299
C54	C	1.434782	-0.183195	1.073299
C55	C	0.934758	-0.612503	0.573282
C56	C	1.434758	-0.112503	1.073282
C57	C	1.021379	-0.612497	0.439030
C58	C	1.521379	-0.112497	0.939030
C59	C	1.021407	-0.683184	0.439044
C60	C	1.521407	-0.183184	0.939044
C61	C	0.978105	-0.718530	0.506176
C62	C	1.478105	-0.218530	1.006176
C63	C	0.978139	-0.795178	0.506196
C64	C	1.478139	-0.295178	1.006196
C65	C	0.978170	-0.856270	0.506207
C66	C	1.478170	-0.356270	1.006207
C67	C	0.691718	-0.282823	0.573468
C68	C	1.191718	0.217177	1.073468
C69	C	0.621029	-0.282826	0.573472
C70	C	1.121029	0.217174	1.073472
C71	C	0.585648	-0.326064	0.506166
C72	C	1.085648	0.173936	1.006166
C73	C	0.620959	-0.369297	0.438845
C74	C	1.120959	0.130703	0.938845
C75	C	0.691647	-0.369289	0.438836
C76	C	1.191647	0.130711	0.938836
C77	C	0.335886	-0.369327	0.438877
C78	C	0.835886	0.130673	0.938877
C79	C	0.265194	-0.369333	0.438893
C80	C	0.765194	0.130667	0.938893
C81	C	0.265269	-0.282864	0.573513
C82	C	0.765269	0.217136	1.073513
C83	C	0.335956	-0.282857	0.573504
C84	C	0.835956	0.217143	1.073504
C85	C	0.371261	-0.326086	0.506179
C86	C	0.871261	0.173914	1.006179
C87	C	0.447909	-0.326081	0.506174
C88	C	0.947909	0.173919	1.006174
C89	C	0.509001	-0.326073	0.506176
C90	C	1.009001	0.173927	1.006176
C91	C	1.154655	-0.326089	0.506191
C92	C	1.654655	0.173911	1.006191
C93	C	1.229887	-0.326098	0.506202
C94	C	1.729887	0.173902	1.006202
C95	C	0.978159	-0.325999	0.780199
C96	C	1.478159	0.174001	1.280199
C97	C	0.978179	-0.325970	0.896975
C98	C	1.478179	0.174030	1.396975
C99	C	0.978217	-0.149524	0.506229
C100	C	1.478217	0.350476	1.006229
C101	C	0.978261	-0.074292	0.506256
C102	C	1.478261	0.425708	1.006256
C103	C	0.978104	-0.326086	0.233198
C104	C	1.478104	0.173914	0.733198
C105	C	0.978215	-0.325925	0.116422
C106	C	1.478215	0.174075	0.616422
C107	C	1.021502	-0.282681	0.951861
C108	C	1.521502	0.217319	1.451861
C109	C	1.021518	-0.282656	1.061585
C110	C	1.521518	0.217344	1.561585
C111	C	0.934888	-0.369216	1.061528
C112	C	1.434888	0.130784	1.561528
C113	C	0.934869	-0.369236	0.951806
C114	C	1.434869	0.130764	1.451806
C115	C	1.071519	-0.232708	0.951895
C116	C	1.571519	0.267292	1.451895
C117	C	1.071535	-0.232683	1.061619
C118	C	1.571535	0.267317	1.561619
H119	H	1.056841	-1.067715	0.384472
H120	H	1.556841	-0.567715	0.884472
C121	C	0.730630	-0.235256	0.647510
C122	C	1.230630	0.264744	1.147510
N123	N	0.759937	-0.199425	0.703277
N124	N	1.259937	0.300575	1.203277
H125	H	1.056689	-0.711955	0.384393
H126	H	1.556689	-0.211955	0.884393
H127	H	1.052792	-0.182877	1.095671
H128	H	1.552792	0.317123	1.595671
C129	C	0.582038	-0.416858	0.364806
C130	C	1.082038	0.083142	0.864806
N131	N	0.552723	-0.452684	0.309041
N132	N	1.052723	0.047316	0.809041
H133	H	0.899621	-0.939490	0.628003
H134	H	1.399621	-0.439490	1.128003
H135	H	1.056636	-0.583711	0.384363
H136	H	1.556636	-0.083711	0.884363
C137	C	1.052586	-0.161896	0.911697
C138	C	1.552586	0.338104	1.411697
N139	N	1.038324	-0.108561	0.881420
N140	N	1.538324	0.391439	1.381420
C141	C	0.887247	-0.416806	1.121852
C142	C	1.387247	0.083194	1.621852
N143	N	0.851364	-0.452651	1.167287
N144	N	1.351364	0.047349	1.667287
H145	H	0.899476	-0.583730	0.627940
H146	H	1.399476	-0.083730	1.127940
C147	C	0.374871	-0.235289	0.647541
C148	C	0.874871	0.264711	1.147541
N149	N	0.404181	-0.199457	0.703303
N150	N	0.904181	0.300543	1.203303
H151	H	0.899518	-0.711965	0.627955
H152	H	1.399518	-0.211965	1.127955
H153	H	0.592286	-0.247625	0.628288
H154	H	1.092286	0.252375	1.128288
H155	H	1.056779	-0.939478	0.384436
H156	H	1.556779	-0.439478	0.884436
H157	H	0.236515	-0.247662	0.628328
H158	H	0.736515	0.252338	1.128328
H159	H	0.899677	-1.067734	0.628044
H160	H	1.399677	-0.567734	1.128044
C161	C	0.226276	-0.416895	0.364839
C162	C	0.726276	0.083105	0.864839
N163	N	0.196964	-0.452715	0.309063
N164	N	0.696964	0.047285	0.809063
H165	H	1.121295	-0.251502	0.917860
H166	H	1.621295	0.248498	1.417860
C167	C	0.374712	-0.416884	0.364822
C168	C	0.874712	0.083116	0.864822
N169	N	0.403959	-0.452707	0.309041
N170	N	0.903959	0.047293	0.809041
C171	C	0.730483	-0.416848	0.364787
C172	C	1.230483	0.083152	0.864787
N173	N	0.759734	-0.452669	0.309010
N174	N	1.259734	0.047331	0.809010
C175	C	0.887201	-0.416848	0.891435
C176	C	1.387201	0.083152	1.391435
N177	N	0.851294	-0.452709	0.845965
N178	N	1.351294	0.047291	1.345965
H179	H	1.123953	-0.246726	1.091399
H180	H	1.623953	0.253274	1.591399
