data_functionalizedCrystal
_audit_creation_method	'MofGen! by Chris Wilmer'
_symmetry_space_group_name_H-M	'P1'
_symmetry_Int_Tables_number	1
_symmetry_cell_setting	triclinic
loop_
_symmetry_equiv_pos_as_xyz
  x,y,z
_cell_length_a	25.639242
_cell_length_b	21.295417
_cell_length_c	21.295411
_cell_angle_alpha	89.978356
_cell_angle_beta	90.033308
_cell_angle_gamma	89.973967
loop_
_atom_site_label
_atom_site_type_symbol
_atom_site_fract_x
_atom_site_fract_y
_atom_site_fract_z
Zn1	Zn	0.799312	0.250756	0.356058
Zn2	Zn	1.299312	0.750756	0.856058
Zn3	Zn	0.799231	0.356008	0.250784
Zn4	Zn	1.299231	0.856008	0.750784
Zn5	Zn	0.711872	0.250748	0.250787
Zn6	Zn	1.211872	0.750748	0.750787
Zn7	Zn	0.711846	0.355983	0.355999
Zn8	Zn	1.211846	0.855983	0.855999
O9	O	0.755565	0.303374	0.303407
O10	O	1.255565	0.803374	0.803407
O11	O	0.872467	0.264731	0.342117
O12	O	1.372467	0.764731	0.842117
O13	O	0.787620	0.342052	0.162695
O14	O	1.287620	0.842052	0.662695
O15	O	0.723515	0.162660	0.264778
O16	O	1.223515	0.662660	0.764778
O17	O	0.872407	0.342060	0.264772
O18	O	1.372407	0.842060	0.764772
O19	O	0.787758	0.162666	0.342120
O20	O	1.287758	0.662666	0.842120
O21	O	0.723437	0.264718	0.162697
O22	O	1.223437	0.764718	0.662697
O23	O	0.638703	0.264694	0.264721
O24	O	1.138703	0.764694	0.764721
O25	O	0.723472	0.342017	0.444097
O26	O	1.223472	0.842017	0.944097
O27	O	0.638684	0.342010	0.342020
O28	O	1.138684	0.842010	0.842020
O29	O	0.787733	0.264707	0.444140
O30	O	1.287733	0.764707	0.944140
O31	O	0.787595	0.444094	0.264715
O32	O	1.287595	0.944094	0.764715
O33	O	0.723393	0.444076	0.342016
O34	O	1.223393	0.944076	0.842016
C35	C	0.619723	0.303349	0.303364
C36	C	1.119723	0.803349	0.803364
C37	C	0.561609	0.303354	0.303361
C38	C	1.061609	0.803354	0.803361
C39	C	0.755497	0.466925	0.303372
C40	C	1.255497	0.966925	0.803372
C41	C	0.755515	0.536894	0.303378
C42	C	1.255515	1.036894	0.803378
C43	C	0.755648	0.139184	0.303456
C44	C	1.255648	0.639184	0.803456
C45	C	0.755684	0.069215	0.303477
C46	C	1.255684	0.569215	0.803477
C47	C	0.201245	0.343699	0.343619
C48	C	0.701245	0.843699	0.843619
C49	C	0.146641	0.343703	0.343628
C50	C	0.646641	0.843703	0.843628
O51	O	0.118403	0.377976	0.377821
O52	O	0.618403	0.877976	0.877821
N53	N	0.119326	0.303391	0.303448
N54	N	0.619326	0.803391	0.803448
C55	C	0.146619	0.263068	0.263260
C56	C	0.646619	0.763068	0.763260
O57	O	0.118372	0.228780	0.229085
O58	O	0.618372	0.728780	0.729085
C59	C	0.201222	0.263062	0.263254
C60	C	0.701222	0.763062	0.763254
C61	C	0.228534	0.303381	0.303432
C62	C	0.728534	0.803381	0.803432
C63	C	0.228556	0.384015	0.383794
C64	C	0.728556	0.884015	0.883794
C65	C	0.283157	0.384011	0.383783
C66	C	0.783157	0.884011	0.883783
C67	C	0.310446	0.343693	0.343597
C68	C	0.810446	0.843693	0.843597
C69	C	0.283134	0.303378	0.303421
C70	C	0.783134	0.803378	0.803421
C71	C	0.228514	0.222736	0.223069
C72	C	0.728514	0.722736	0.723069
C73	C	0.283121	0.222732	0.223067
C74	C	0.783121	0.722732	0.723067
C75	C	0.310433	0.263052	0.263245
C76	C	0.810433	0.763052	0.763245
C77	C	0.365024	0.263056	0.263224
C78	C	0.865024	0.763056	0.763224
N79	N	0.392338	0.303368	0.303404
N80	N	0.892338	0.803368	0.803404
C81	C	0.365049	0.343686	0.343590
C82	C	0.865049	0.843686	0.843590
C83	C	0.031949	0.263084	0.263277
C84	C	0.531949	0.763084	0.763277
C85	C	-0.022654	0.263093	0.263280
C86	C	0.477346	0.763093	0.763280
C87	C	-0.022629	0.343728	0.343649
C88	C	0.477371	0.843728	0.843649
C89	C	0.031975	0.343721	0.343643
C90	C	0.531975	0.843721	0.843643
C91	C	0.059263	0.303396	0.303457
C92	C	0.559263	0.803396	0.803457
C93	C	0.479714	0.343677	0.343564
C94	C	0.979714	0.843677	0.843564
C95	C	0.534320	0.343672	0.343548
C96	C	1.034320	0.843672	0.843548
C97	C	0.534290	0.263036	0.263181
C98	C	1.034290	0.763036	0.763181
C99	C	0.479689	0.263043	0.263195
C100	C	0.979689	0.763043	0.763195
C101	C	0.452403	0.303365	0.303391
C102	C	0.952403	0.803365	0.803391
O103	O	0.393296	0.228799	0.229051
O104	O	0.893296	0.728799	0.729051
O105	O	0.393303	0.377963	0.377766
O106	O	0.893303	0.877963	0.877766
C107	C	0.891938	0.303399	0.303450
C108	C	1.391938	0.803399	0.803450
C109	C	0.950052	0.303410	0.303469
C110	C	1.450052	0.803410	0.803469
C111	C	0.755609	0.303361	0.467597
C112	C	1.255609	0.803361	0.967597
C113	C	0.755627	0.303355	0.537566
C114	C	1.255627	0.803355	1.037566
C115	C	0.788975	0.569749	0.263169
C116	C	1.288975	1.069749	0.763169
C117	C	0.788999	0.635491	0.263183
C118	C	1.288999	1.135491	0.763183
C119	C	0.755555	0.668376	0.303400
C120	C	1.255555	1.168376	0.803400
C121	C	0.722093	0.635513	0.343618
C122	C	1.222093	1.135513	0.843618
C123	C	0.722073	0.569772	0.343607
C124	C	1.222073	1.069772	0.843607
N125	N	0.709817	0.771638	0.308185
N126	N	1.209817	1.271638	0.808185
N127	N	0.709838	0.834090	0.308191
N128	N	1.209838	1.334090	0.808191
C129	C	0.755614	0.866451	0.303436
C130	C	1.255614	1.366451	0.803436
N131	N	0.801369	0.834001	0.298662
N132	N	1.301369	1.334001	0.798662
N133	N	0.801348	0.771544	0.298652
N134	N	1.301348	1.271544	0.798652
C135	C	0.755573	0.739661	0.303417
C136	C	1.255573	1.239661	0.803417
C137	C	0.789102	0.970591	0.263240
C138	C	1.289102	1.470591	0.763240
C139	C	0.789128	1.036335	0.263258
C140	C	1.289128	1.536335	0.763258
C141	C	0.722217	1.036356	0.343690
C142	C	1.222217	1.536356	0.843690
C143	C	0.722196	0.970613	0.343674
C144	C	1.222196	1.470613	0.843674
C145	C	0.755638	0.937735	0.303446
C146	C	1.255638	1.437735	0.803446
C147	C	0.755552	0.303342	0.139856
C148	C	1.255552	0.803342	0.639856
C149	C	0.755635	0.303170	0.069888
C150	C	1.255635	0.803170	0.569888
C151	C	0.789086	0.263098	0.570456
C152	C	1.289086	0.763098	1.070456
C153	C	0.789086	0.263071	0.636198
C154	C	1.289086	0.763071	1.136198
C155	C	0.755631	0.303312	0.669048
C156	C	1.255631	0.803312	1.169048
C157	C	0.722166	0.343571	0.636150
C158	C	1.222166	0.843571	1.136150
C159	C	0.722163	0.343593	0.570409
C160	C	1.222163	0.843593	1.070409
N161	N	0.751597	0.358379	0.772263
N162	N	1.251597	0.858379	1.272263
N163	N	0.751602	0.358357	0.834714
N164	N	1.251602	0.858357	1.334714
C165	C	0.755635	0.303248	0.867123
C166	C	1.255635	0.803248	1.367123
N167	N	0.759672	0.248161	0.834721
N168	N	1.259672	0.748161	1.334721
N169	N	0.759670	0.248184	0.772264
N170	N	1.259670	0.748184	1.272264
C171	C	0.755630	0.303292	0.740334
C172	C	1.255630	0.803292	1.240334
C173	C	0.789095	0.262958	0.971299
C174	C	1.289095	0.762958	1.471299
C175	C	0.789090	0.262929	1.037043
C176	C	1.289090	0.762929	1.537043
C177	C	0.722173	0.343436	1.036993
C178	C	1.222173	0.843436	1.536993
C179	C	0.722175	0.343459	0.971250
C180	C	1.222175	0.843459	1.471250
C181	C	0.755638	0.303220	0.938407
C182	C	1.255638	0.803220	1.438407
H183	H	0.556554	0.376507	0.376266
H184	H	1.056554	0.876507	0.876266
H185	H	0.816336	0.230143	1.063821
H186	H	1.316336	0.730143	1.563821
F187	F	0.824700	0.220270	0.535505
F188	F	1.324700	0.720270	1.035505
H189	H	-0.044886	0.230268	0.230556
H190	H	0.455114	0.730268	0.730556
H191	H	0.054208	0.376552	0.376361
H192	H	0.554208	0.876552	0.876361
H193	H	0.556518	0.230211	0.230460
H194	H	1.056518	0.730211	0.730460
F195	F	0.686501	0.670512	0.386422
F196	F	1.186501	1.170512	0.886422
H197	H	0.694928	0.376194	1.063739
H198	H	1.194928	0.876194	1.563739
H199	H	-0.044857	0.376555	0.376373
H200	H	0.455143	0.876555	0.876373
F201	F	0.686460	0.534804	0.386405
F202	F	1.186460	1.034804	0.886405
H203	H	0.694932	0.376244	0.944471
H204	H	1.194932	0.876244	1.444471
F205	F	0.060986	0.220166	0.220499
F206	F	0.560986	0.720166	0.720499
H207	H	0.816334	0.943821	0.230485
H208	H	1.316334	1.443821	0.730485
F209	F	0.824707	0.220131	0.936342
F210	F	1.324707	0.720131	1.436342
F211	F	0.824612	0.670465	0.220384
F212	F	1.324612	1.170465	0.720384
F213	F	0.824745	1.071302	0.220464
F214	F	1.324745	1.571302	0.720464
F215	F	0.199459	0.179819	0.180308
F216	F	0.699459	0.679819	0.680308
F217	F	0.824690	0.220211	0.671210
F218	F	1.324690	0.720211	1.171210
H219	H	0.457504	0.376510	0.376297
H220	H	0.957504	0.876510	0.876297
H221	H	0.305389	0.416842	0.416502
H222	H	0.805389	0.916842	0.916502
H223	H	0.457451	0.230213	0.230477
H224	H	0.957451	0.730213	0.730477
F225	F	0.199521	0.426930	0.426570
F226	F	0.699521	0.926930	0.926570
H227	H	0.305337	0.189890	0.190346
H228	H	0.805337	0.689890	0.690346
H229	H	0.816206	0.542981	0.230414
H230	H	1.316206	1.042981	0.730414
F231	F	0.686626	1.071350	0.386496
F232	F	1.186626	1.571350	0.886496
F233	F	0.686559	0.386397	0.671112
F234	F	1.186559	0.886397	1.171112
H235	H	0.694948	0.943861	0.376414
H236	H	1.194948	1.443861	0.876414
F237	F	0.686550	0.386442	0.535404
F238	F	1.186550	0.886442	1.035404
