data_functionalizedCrystal
_audit_creation_method	'MofGen! by Chris Wilmer'
_symmetry_space_group_name_H-M	'P1'
_symmetry_Int_Tables_number	1
_symmetry_cell_setting	triclinic
loop_
_symmetry_equiv_pos_as_xyz
  x,y,z
_cell_length_a	16.120530
_cell_length_b	25.639239
_cell_length_c	16.120297
_cell_angle_alpha	92.868703
_cell_angle_beta	90.128140
_cell_angle_gamma	87.134054
loop_
_atom_site_label
_atom_site_type_symbol
_atom_site_fract_x
_atom_site_fract_y
_atom_site_fract_z
Zn1	Zn	1.247330	-0.264883	-0.534536
Zn2	Zn	1.254246	-0.348114	-0.395469
Zn3	Zn	1.115324	-0.256048	-0.388455
Zn4	Zn	1.108202	-0.347633	-0.527439
O5	O	1.181275	-0.304170	-0.461475
O6	O	1.364612	-0.279823	-0.521994
O7	O	1.241692	-0.332406	-0.278174
O8	O	1.132921	-0.184058	-0.407868
O9	O	1.369693	-0.340973	-0.419823
O10	O	1.229905	-0.190549	-0.515193
O11	O	1.139627	-0.264765	-0.273020
O12	O	0.998015	-0.264298	-0.400986
O13	O	1.120783	-0.340152	-0.644745
O14	O	0.992782	-0.331585	-0.503096
O15	O	1.223000	-0.279356	-0.649960
O16	O	1.234787	-0.421212	-0.412941
O17	O	1.127489	-0.420858	-0.509898
C18	C	0.965226	-0.296931	-0.450510
C19	C	0.872799	-0.293847	-0.445839
C20	C	0.703571	-0.288206	-0.437318
C21	C	0.659817	-0.320174	-0.485692
C22	C	0.565653	-0.317035	-0.480951
C23	C	0.797744	-0.291344	-0.442058
C24	C	1.181138	-0.440006	-0.461430
C25	C	1.181153	-0.498121	-0.461442
C26	C	1.237279	-0.858668	-0.411087
C27	C	1.237311	-0.913274	-0.411099
O28	O	1.284889	-0.941661	-0.368236
N29	N	1.181419	-0.940415	-0.461537
C30	C	1.125497	-0.912948	-0.511972
O31	O	1.077960	-0.941048	-0.554875
C32	C	1.125470	-0.858344	-0.511963
C33	C	1.181360	-0.831205	-0.461515
C34	C	1.293166	-0.831529	-0.360644
C35	C	1.293133	-0.776927	-0.360630
C36	C	1.237214	-0.749464	-0.411059
C37	C	1.181327	-0.776603	-0.461502
C38	C	1.069553	-0.830878	-0.562401
C39	C	1.069531	-0.776270	-0.562388
C40	C	1.125421	-0.749131	-0.511941
C41	C	1.125375	-0.694538	-0.511917
N42	N	1.181267	-0.667396	-0.461479
C43	C	1.237187	-0.694860	-0.411050
C44	C	1.125559	-1.027621	-0.511988
C45	C	1.125581	-1.082224	-0.511993
C46	C	1.237397	-1.082546	-0.411121
C47	C	1.237370	-1.027942	-0.411113
C48	C	1.181451	-1.000480	-0.461550
C49	C	1.237113	-0.580191	-0.411025
C50	C	1.237072	-0.525584	-0.411013
C51	C	1.125260	-0.525267	-0.511887
C52	C	1.125297	-0.579869	-0.511896
C53	C	1.181230	-0.607330	-0.461463
O54	O	1.077824	-0.666116	-0.554760
O55	O	1.284723	-0.666754	-0.368163
C56	C	1.398168	-0.311437	-0.472483
C57	C	1.490595	-0.314534	-0.477173
C58	C	1.170326	-0.310686	-0.678368
C59	C	1.165659	-0.313462	-0.770795
C60	C	1.181436	-0.167804	-0.461539
C61	C	1.181504	-0.109693	-0.461567
C62	C	1.157110	-0.318520	-0.940019
C63	C	1.205605	-0.289668	-0.983790
C64	C	1.200848	-0.292482	-1.077952
C65	C	1.161866	-0.315706	-0.845849
C66	C	1.192231	-0.297643	-0.245427
C67	C	1.197058	-0.294724	-0.153009
H68	H	1.282585	-0.503490	-0.369930
H69	H	1.079789	-0.601967	-0.552977
O70	O	1.071024	-0.498505	-0.560850
C71	C	1.021410	-0.414232	-0.605497
C72	C	1.082884	-0.444477	-0.550015
H73	H	1.030966	-0.370545	-0.596744
H74	H	1.032584	-0.427404	-0.673320
H75	H	0.955121	-0.422360	-0.587458
H76	H	1.149197	-0.436364	-0.567981
H77	H	1.071638	-0.431301	-0.482207
H78	H	1.250696	-0.262854	-0.950546
H79	H	0.693077	-0.349899	-0.530667
O80	O	0.663771	-0.252791	-0.383684
C81	C	0.532253	-0.217305	-0.330062
C82	C	0.577235	-0.257442	-0.390826
H83	H	0.462281	-0.221044	-0.335828
H84	H	0.552566	-0.224962	-0.263801
H85	H	0.548620	-0.176166	-0.345615
H86	H	0.560891	-0.298597	-0.375349
H87	H	0.556920	-0.249740	-0.457069
H88	H	1.080017	-1.005264	-0.553057
H89	H	1.338706	-0.853884	-0.319579
H90	H	1.282660	-0.602544	-0.369959
O91	O	1.347513	-0.750652	-0.311612
C92	C	1.458398	-0.756753	-0.211540
C93	C	1.396863	-0.786571	-0.267025
H94	H	1.498302	-0.785780	-0.175464
H95	H	1.499965	-0.733772	-0.251919
H96	H	1.422437	-0.728624	-0.166115
H97	H	1.432756	-0.814726	-0.312459
H98	H	1.355297	-0.809518	-0.226595
H99	H	1.282881	-1.005849	-0.370035
O100	O	1.103394	-0.350499	-0.979804
C101	C	1.049571	-0.382455	-1.111301
C102	C	1.110450	-0.346225	-1.066338
H103	H	1.055242	-0.379004	-1.181269
H104	H	1.064970	-0.424616	-1.095080
H105	H	0.983382	-0.370538	-1.090828
H106	H	1.176660	-0.358095	-1.086785
H107	H	1.094979	-0.304072	-1.082559
H108	H	1.282932	-1.104917	-0.370062
H109	H	1.080062	-1.104316	-0.553064
O110	O	1.015232	-0.857153	-0.611487
C111	C	0.904306	-0.851045	-0.711513
C112	C	0.965795	-0.821226	-0.655973
H113	H	0.864308	-0.822011	-0.747482
H114	H	0.940223	-0.879143	-0.757022
H115	H	0.862826	-0.874061	-0.671101
H116	H	1.007290	-0.798181	-0.696319
H117	H	0.929827	-0.793160	-0.610459
H118	H	1.023996	-0.753913	-0.603463
