data_functionalizedCrystal
_audit_creation_method	'MofGen! by Chris Wilmer'
_symmetry_space_group_name_H-M	'P1'
_symmetry_Int_Tables_number	1
_symmetry_cell_setting	triclinic
loop_
_symmetry_equiv_pos_as_xyz
  x,y,z
_cell_length_a	11.792241
_cell_length_b	16.109301
_cell_length_c	15.186229
_cell_angle_alpha	90.005167
_cell_angle_beta	90.000845
_cell_angle_gamma	96.172552
loop_
_atom_site_label
_atom_site_type_symbol
_atom_site_fract_x
_atom_site_fract_y
_atom_site_fract_z
O1	O	1.505908	-0.113953	-0.073146
O2	O	1.755908	0.136047	0.176854
O3	O	2.005908	0.386047	0.426854
O4	O	2.255908	0.636047	0.676854
O5	O	1.175464	-0.125697	-0.073167
O6	O	1.425464	0.124303	0.176833
O7	O	1.675464	0.374303	0.426833
O8	O	1.925464	0.624303	0.676833
O9	O	1.349763	0.001163	-0.073147
O10	O	1.599763	0.251163	0.176853
O11	O	1.849763	0.501163	0.426853
O12	O	2.099763	0.751163	0.676853
O13	O	1.331608	-0.240814	-0.073166
O14	O	1.581608	0.009186	0.176834
O15	O	1.831608	0.259186	0.426834
O16	O	2.081608	0.509186	0.676834
O17	O	1.349752	0.001165	0.073310
O18	O	1.599752	0.251165	0.323310
O19	O	1.849752	0.501165	0.573310
O20	O	2.099752	0.751165	0.823310
O21	O	1.175452	-0.125695	0.073290
O22	O	1.425452	0.124305	0.323290
O23	O	1.675452	0.374305	0.573290
O24	O	1.925452	0.624305	0.823290
O25	O	1.505896	-0.113951	0.073311
O26	O	1.755896	0.136049	0.323311
O27	O	2.005896	0.386049	0.573311
O28	O	2.255896	0.636049	0.823311
Zn29	Zn	1.340672	-0.119823	0.096554
Zn30	Zn	1.590672	0.130177	0.346554
Zn31	Zn	1.840672	0.380177	0.596554
Zn32	Zn	2.090672	0.630177	0.846554
Zn33	Zn	1.340687	-0.119826	-0.096410
Zn34	Zn	1.590687	0.130174	0.153590
Zn35	Zn	1.840687	0.380174	0.403590
Zn36	Zn	2.090687	0.630174	0.653590
O37	O	1.331596	-0.240812	0.073291
O38	O	1.581596	0.009188	0.323291
O39	O	1.831596	0.259188	0.573291
O40	O	2.081596	0.509188	0.823291
C41	C	1.133173	-0.124959	0.000059
C42	C	1.383173	0.125041	0.250059
C43	C	1.633173	0.375041	0.500059
C44	C	1.883173	0.625041	0.750059
C45	C	1.007179	-0.122751	0.000051
C46	C	1.257179	0.127249	0.250051
C47	C	1.507179	0.377249	0.500051
C48	C	1.757179	0.627249	0.750051
N49	N	1.340670	-0.119821	0.228247
N50	N	1.590670	0.130179	0.478247
N51	N	1.840670	0.380179	0.728247
N52	N	2.090670	0.630179	0.978247
C53	C	1.349022	0.032142	0.000082
C54	C	1.599022	0.282142	0.250082
C55	C	1.849022	0.532142	0.500082
C56	C	2.099022	0.782142	0.750082
C57	C	1.346817	0.124448	0.000083
C58	C	1.596817	0.374448	0.250083
C59	C	1.846817	0.624448	0.500083
C60	C	2.096817	0.874448	0.750083
C61	C	0.776502	-0.118690	0.000077
C62	C	1.026502	0.131310	0.250077
C63	C	1.276502	0.381310	0.500077
C64	C	1.526502	0.631310	0.750077
C65	C	0.904868	-0.120946	0.000063
C66	C	1.154868	0.129054	0.250063
C67	C	1.404868	0.379054	0.500063
C68	C	1.654868	0.629054	0.750063
C69	C	1.548186	-0.114690	0.000083
C70	C	1.798186	0.135310	0.250083
C71	C	2.048186	0.385310	0.500083
C72	C	2.298186	0.635310	0.750083
C73	C	1.674181	-0.116898	0.000085
C74	C	1.924181	0.133102	0.250085
C75	C	2.174181	0.383102	0.500085
C76	C	2.424181	0.633102	0.750085
C77	C	1.332338	-0.271791	0.000060
C78	C	1.582338	-0.021791	0.250060
C79	C	1.832338	0.228209	0.500060
C80	C	2.082338	0.478209	0.750060
C81	C	1.334542	-0.364097	0.000053
C82	C	1.584542	-0.114097	0.250053
C83	C	1.834542	0.135903	0.500053
C84	C	2.084542	0.385903	0.750053
C85	C	1.445116	0.346258	0.000075
C86	C	1.695116	0.596258	0.250075
C87	C	1.945116	0.846258	0.500075
C88	C	2.195116	1.096258	0.750075
C89	C	1.443036	0.432988	0.000068
C90	C	1.693036	0.682988	0.250068
C91	C	1.943036	0.932988	0.500068
C92	C	2.193036	1.182988	0.750068
C93	C	1.236235	0.414087	0.000058
C94	C	1.486235	0.664087	0.250058
C95	C	1.736235	0.914087	0.500058
C96	C	1.986235	1.164087	0.750058
C97	C	1.238317	0.327358	0.000060
C98	C	1.488317	0.577358	0.250060
C99	C	1.738317	0.827358	0.500060
C100	C	1.988317	1.077358	0.750060
C101	C	1.342761	0.293446	0.000072
C102	C	1.592761	0.543446	0.250072
C103	C	1.842761	0.793446	0.500072
C104	C	2.092761	1.043446	0.750072
C105	C	1.338599	0.466905	0.000064
C106	C	1.588599	0.716905	0.250064
C107	C	1.838599	0.966905	0.500064
C108	C	2.088599	1.216905	0.750064
C109	C	1.336342	0.560942	0.000056
C110	C	1.586342	0.810942	0.250056
C111	C	1.836342	1.060942	0.500056
C112	C	2.086342	1.310942	0.750056
C113	C	1.345018	0.199404	0.000079
C114	C	1.595018	0.449404	0.250079
C115	C	1.845018	0.699404	0.500079
C116	C	2.095018	0.949404	0.750079
N117	N	1.340699	-0.119821	-0.228102
N118	N	1.590699	0.130179	0.021898
N119	N	1.840699	0.380179	0.271898
N120	N	2.090699	0.630179	0.521898
C121	C	1.417876	-0.063666	0.453978
C122	C	1.667876	0.186334	0.703978
C123	C	1.917876	0.436334	0.953978
C124	C	2.167876	0.686334	1.203978
C125	C	1.417880	-0.063664	0.546168
C126	C	1.667880	0.186336	0.796168
C127	C	1.917880	0.436336	1.046168
C128	C	2.167880	0.686336	1.296168
C129	C	1.263484	-0.175978	0.546159
C130	C	1.513484	0.074022	0.796159
C131	C	1.763484	0.324022	1.046159
C132	C	2.013484	0.574022	1.296159
C133	C	1.263476	-0.175976	0.453971
C134	C	1.513476	0.074024	0.703971
C135	C	1.763476	0.324024	0.953971
C136	C	2.013476	0.574024	1.203971
C137	C	1.340678	-0.119821	0.407883
C138	C	1.590678	0.130179	0.657883
C139	C	1.840678	0.380179	0.907883
C140	C	2.090678	0.630179	1.157883
C141	C	1.340690	-0.119821	0.592261
C142	C	1.590690	0.130179	0.842261
C143	C	1.840690	0.380179	1.092261
C144	C	2.090690	0.630179	1.342261
C145	C	1.340693	-0.119820	0.692217
C146	C	1.590693	0.130180	0.942217
C147	C	1.840693	0.380180	1.192217
C148	C	2.090693	0.630180	1.442217
C149	C	1.340674	-0.119821	0.307921
C150	C	1.590674	0.130179	0.557921
C151	C	1.840674	0.380179	0.807921
C152	C	2.090674	0.630179	1.057921
H153	H	1.530161	0.318650	0.000084
H154	H	1.780161	0.568650	0.250084
H155	H	2.030161	0.818650	0.500084
H156	H	2.280161	1.068650	0.750084
H157	H	1.200629	-0.221700	0.583694
H158	H	1.450629	0.028300	0.833694
H159	H	1.700629	0.278300	1.083694
H160	H	1.950629	0.528300	1.333694
H161	H	1.200607	-0.221704	0.416438
H162	H	1.450607	0.028296	0.666438
H163	H	1.700607	0.278296	0.916438
H164	H	1.950607	0.528296	1.166438
O165	O	1.127915	0.270387	0.000066
O166	O	1.377915	0.520387	0.250066
O167	O	1.627915	0.770387	0.500066
O168	O	1.877915	1.020387	0.750066
H169	H	1.054939	0.308537	0.000073
H170	H	1.304939	0.558537	0.250073
H171	H	1.554939	0.808537	0.500073
H172	H	1.804939	1.058537	0.750073
H173	H	1.480739	-0.017938	0.583696
H174	H	1.730739	0.232062	0.833696
H175	H	1.980739	0.482062	1.083696
H176	H	2.230739	0.732062	1.333696
O177	O	1.553432	0.489952	0.000082
O178	O	1.803432	0.739952	0.250082
O179	O	2.053432	0.989952	0.500082
O180	O	2.303432	1.239952	0.750082
H181	H	1.626403	0.451797	0.000100
H182	H	1.876403	0.701797	0.250100
H183	H	2.126403	0.951797	0.500100
H184	H	2.376403	1.201797	0.750100
O185	O	1.123587	0.450662	0.000063
O186	O	1.373587	0.700662	0.250063
O187	O	1.623587	0.950662	0.500063
O188	O	1.873587	1.200662	0.750063
H189	H	1.139333	0.519843	0.000076
H190	H	1.389333	0.769843	0.250076
H191	H	1.639333	1.019843	0.500076
H192	H	1.889333	1.269843	0.750076
H193	H	1.480737	-0.017940	0.416456
H194	H	1.730737	0.232060	0.666456
H195	H	1.980737	0.482060	0.916456
H196	H	2.230737	0.732060	1.166456
