data_functionalizedCrystal
_audit_creation_method	'MofGen! by Chris Wilmer'
_symmetry_space_group_name_H-M	'P1'
_symmetry_Int_Tables_number	1
_symmetry_cell_setting	triclinic
loop_
_symmetry_equiv_pos_as_xyz
  x,y,z
_cell_length_a	19.188930
_cell_length_b	11.026607
_cell_length_c	10.065908
_cell_angle_alpha	100.698292
_cell_angle_beta	98.754820
_cell_angle_gamma	84.134601
loop_
_atom_site_label
_atom_site_type_symbol
_atom_site_fract_x
_atom_site_fract_y
_atom_site_fract_z
O1	O	0.284145	-1.626421	-0.113552
O2	O	0.784145	-1.126421	0.386448
O3	O	0.250875	-1.273290	-0.113547
O4	O	0.750875	-0.773290	0.386453
O5	O	0.167155	-1.460042	-0.113523
O6	O	0.667155	-0.960042	0.386477
O7	O	0.367865	-1.439669	-0.113576
O8	O	0.867865	-0.939669	0.386424
O9	O	0.183202	-1.424428	0.113461
O10	O	0.683202	-0.924428	0.613461
O11	O	0.266923	-1.237677	0.113437
O12	O	0.766923	-0.737677	0.613437
O13	O	0.300192	-1.590807	0.113432
O14	O	0.800192	-1.090807	0.613432
Zn15	Zn	0.286105	-1.408587	0.149473
Zn16	Zn	0.786105	-0.908587	0.649473
Zn17	Zn	0.264962	-1.455510	-0.149588
Zn18	Zn	0.764962	-0.955510	0.350412
O19	O	0.383912	-1.404055	0.113408
O20	O	0.883912	-0.904055	0.613408
C21	C	0.252761	-1.210305	-0.000054
C22	C	0.752761	-0.710305	0.499946
C23	C	0.234465	-1.075688	-0.000051
C24	C	0.734465	-0.575688	0.499949
C25	C	0.149084	-1.441574	-0.000027
C26	C	0.649084	-0.941574	0.499973
C27	C	0.071328	-1.439591	-0.000015
C28	C	0.571328	-0.939591	0.499985
C29	C	0.298306	-1.653793	-0.000064
C30	C	0.798306	-1.153793	0.499936
C31	C	0.316602	-1.788412	-0.000076
C32	C	0.816602	-1.288412	0.499924
C33	C	0.040370	-1.549173	-0.000010
C34	C	0.540370	-1.049173	0.499990
C35	C	-0.032693	-1.547315	-0.000032
C36	C	0.467307	-1.047315	0.499968
C37	C	-0.074793	-1.435865	-0.000031
C38	C	0.425207	-0.935865	0.499969
C39	C	-0.043828	-1.326271	-0.000044
C40	C	0.456172	-0.826271	0.499956
C41	C	0.029233	-1.328134	-0.000036
C42	C	0.529233	-0.828134	0.499964
N43	N	-0.188194	-1.338555	0.077217
N44	N	0.311806	-0.838555	0.577217
N45	N	-0.257597	-1.336792	0.077212
N46	N	0.242403	-0.836792	0.577212
C47	C	-0.294920	-1.430245	-0.000059
C48	C	0.205080	-0.930245	0.499941
N49	N	-0.260216	-1.525543	-0.077308
N50	N	0.239784	-1.025543	0.422692
N51	N	-0.190805	-1.527309	-0.077297
N52	N	0.309195	-1.027309	0.422703
C53	C	-0.154015	-1.433832	-0.000041
C54	C	0.345985	-0.933832	0.499959
C55	C	-0.405101	-1.537819	-0.000080
C56	C	0.094899	-1.037819	0.499920
C57	C	-0.478166	-1.535958	-0.000110
C58	C	0.021834	-1.035958	0.499890
C59	C	-0.489298	-1.314909	-0.000108
C60	C	0.010702	-0.814909	0.499892
C61	C	-0.416236	-1.316775	-0.000092
C62	C	0.083764	-0.816775	0.499908
C63	C	-0.374141	-1.428233	-0.000071
C64	C	0.125859	-0.928233	0.499929
C65	C	0.401983	-1.422523	-0.000091
C66	C	0.901983	-0.922523	0.499909
C67	C	0.479739	-1.424508	-0.000112
C68	C	0.979739	-0.924508	0.499888
N69	N	0.300535	-1.376573	0.353575
N70	N	0.800535	-0.876573	0.853575
C71	C	0.284984	-1.001616	-0.000065
C72	C	0.784984	-0.501616	0.499935
C73	C	0.266075	-0.862482	-0.000062
C74	C	0.766075	-0.362482	0.499938
C75	C	0.269980	-1.444359	0.421362
C76	C	0.769980	-0.944359	0.921362
C77	C	0.281092	-1.419729	0.578527
C78	C	0.781092	-0.919729	1.078527
N79	N	0.250532	-1.487524	0.646311
N80	N	0.750532	-0.987524	1.146311
H81	H	-0.057904	-1.636552	-0.000033
H82	H	0.442096	-1.136552	0.499967
C83	C	0.086668	-1.671774	-0.000011
C84	C	0.586668	-1.171774	0.499989
H85	H	0.057761	-1.736773	-0.000026
H86	H	0.557761	-1.236773	0.499974
H87	H	0.120992	-1.664684	0.079141
H88	H	0.620992	-1.164684	0.579141
H89	H	0.109806	-1.689514	-0.079178
H90	H	0.609806	-1.189514	0.420822
H91	H	0.208818	-0.822903	-0.000082
H92	H	0.708818	-0.322903	0.499918
C93	C	-0.358795	-1.660417	-0.000072
C94	C	0.141205	-1.160417	0.499928
H95	H	-0.387701	-1.725419	-0.000093
H96	H	0.112299	-1.225419	0.499907
H97	H	-0.324476	-1.653321	0.079088
H98	H	0.175524	-1.153321	0.579088
H99	H	-0.335651	-1.678157	-0.079231
H100	H	0.164349	-1.178157	0.420769
C101	C	-0.512219	-1.656504	-0.000102
C102	C	-0.012219	-1.156504	0.499898
H103	H	-0.476682	-1.723143	-0.000075
H104	H	0.023318	-1.223143	0.499925
H105	H	-0.546076	-1.672802	-0.079260
H106	H	-0.046076	-1.172802	0.420740
H107	H	-0.534901	-1.647939	0.079059
H108	H	-0.034901	-1.147939	0.579059
H109	H	-0.078110	-1.235528	-0.000047
H110	H	0.421890	-0.735528	0.499953
C111	C	0.204073	-1.590563	0.567556
C112	C	0.704073	-1.090563	1.067556
H113	H	0.186341	-1.629889	0.630468
H114	H	0.686341	-1.129889	1.130468
H115	H	0.231538	-1.649736	0.511790
H116	H	0.731538	-1.149736	1.011790
H117	H	0.165669	-1.555617	0.511838
H118	H	0.665669	-1.055617	1.011838
C119	C	0.362326	-1.055081	-0.000089
C120	C	0.862326	-0.555081	0.499911
H121	H	0.391570	-0.990565	-0.000089
H122	H	0.891570	-0.490565	0.499911
H123	H	0.365967	-1.116243	-0.079244
H124	H	0.865967	-0.616243	0.420756
H125	H	0.377162	-1.091398	0.079075
H126	H	0.877162	-0.591398	0.579075
H127	H	0.373857	-0.827993	-0.000082
H128	H	0.873857	-0.327993	0.499918
C129	C	-0.382176	-1.196237	-0.000088
C130	C	0.117824	-0.696237	0.499912
H131	H	-0.332636	-1.213310	-0.000096
H132	H	0.167364	-0.713310	0.499904
H133	H	-0.390847	-1.138095	0.079061
H134	H	0.109153	-0.638095	0.579061
H135	H	-0.402027	-1.162949	-0.079257
H136	H	0.097973	-0.662949	0.420743
H137	H	0.177212	-1.036103	-0.000071
H138	H	0.677212	-0.536103	0.499929
H139	H	0.235590	-1.520623	0.363048
H140	H	0.735590	-1.020623	0.863048
C141	C	0.327550	-1.316693	0.657290
C142	C	0.827550	-0.816693	1.157290
H143	H	0.328928	-1.313661	0.752589
H144	H	0.828928	-0.813661	1.252589
H145	H	0.308261	-1.239374	0.633962
H146	H	0.808261	-0.739374	1.133962
H147	H	0.374129	-1.333495	0.633926
H148	H	0.874129	-0.833495	1.133926
H149	H	0.054438	-1.238897	-0.000039
H150	H	0.554438	-0.738897	0.499961
C151	C	-0.535600	-1.192317	-0.000112
C152	C	-0.035600	-0.692317	0.499888
H153	H	-0.583546	-1.206899	-0.000110
H154	H	-0.083546	-0.706899	0.499890
H155	H	-0.531500	-1.159631	-0.079264
H156	H	-0.031500	-0.659631	0.420736
H157	H	-0.520326	-1.134792	0.079055
H158	H	-0.020326	-0.634792	0.579055
C159	C	0.346991	-1.273542	0.432344
C160	C	0.846991	-0.773542	0.932344
H161	H	0.348369	-1.270510	0.527643
H162	H	0.848369	-0.770510	1.027643
H163	H	0.327702	-1.196223	0.409016
H164	H	0.827702	-0.696223	0.909016
H165	H	0.393570	-1.290344	0.408979
H166	H	0.893570	-0.790344	0.908979
