data_functionalizedCrystal
_audit_creation_method	'MofGen! by Chris Wilmer'
_symmetry_space_group_name_H-M	'P1'
_symmetry_Int_Tables_number	1
_symmetry_cell_setting	triclinic
loop_
_symmetry_equiv_pos_as_xyz
  x,y,z
_cell_length_a	18.101398
_cell_length_b	12.827893
_cell_length_c	12.827885
_cell_angle_alpha	90.025051
_cell_angle_beta	90.026581
_cell_angle_gamma	89.998777
loop_
_atom_site_label
_atom_site_type_symbol
_atom_site_fract_x
_atom_site_fract_y
_atom_site_fract_z
Zn1	Zn	1.132280	-0.416114	0.591087
Zn2	Zn	1.132230	-0.590892	0.416362
Zn3	Zn	1.008434	-0.416151	0.416338
Zn4	Zn	1.008449	-0.590800	0.591039
O5	O	1.070348	-0.503489	0.503706
O6	O	1.235906	-0.439322	0.567939
O7	O	1.115781	-0.567766	0.270122
O8	O	1.024876	-0.269910	0.439529
O9	O	1.235870	-0.567730	0.439569
O10	O	1.115865	-0.269883	0.567916
O11	O	1.024828	-0.439384	0.270105
O12	O	0.904803	-0.439295	0.439483
O13	O	1.024902	-0.567573	0.737282
O14	O	0.904814	-0.567609	0.567835
O15	O	1.115880	-0.439233	0.737317
O16	O	1.115796	-0.737115	0.439523
O17	O	1.024854	-0.737048	0.567858
C18	C	1.070342	-0.774999	0.503710
C19	C	1.070407	-0.891152	0.503747
C20	C	0.877937	-0.503447	0.503652
C21	C	0.795623	-0.503454	0.503653
C22	C	1.070398	-0.503389	0.776277
C23	C	1.070420	-0.503346	0.892430
C24	C	0.496532	-0.503519	0.503741
C25	C	0.527826	-0.422384	0.423379
C26	C	0.613444	-0.422601	0.423037
C27	C	0.644915	-0.503486	0.503698
C28	C	0.613834	-0.613570	0.473624
C29	C	0.528188	-0.613120	0.473065
C30	C	0.528141	-0.475526	0.614366
C31	C	0.613791	-0.473075	0.613762
C32	C	0.728774	-0.503474	0.503675
C33	C	0.412673	-0.503538	0.503761
C34	C	1.263510	-0.503532	0.503762
C35	C	1.345824	-0.503551	0.503785
C36	C	1.070375	-0.230919	0.503725
C37	C	1.070386	-0.114766	0.503733
C38	C	1.025371	-0.062994	0.440214
C39	C	1.025382	0.057056	0.440220
C40	C	1.070340	-0.503514	0.232197
C41	C	1.070462	-0.503262	0.116044
C42	C	1.115444	-0.439827	0.944232
C43	C	1.115467	-0.439781	1.064282
H44	H	0.507228	-0.340502	0.442021
H45	H	1.108930	-0.070214	0.558124
H46	H	1.031886	-0.557687	0.936957
O47	O	1.161524	-0.374866	1.117258
C48	C	1.203350	-0.315831	1.045813
H49	H	1.205945	-0.358593	0.967979
H50	H	1.261685	-0.304711	1.077446
H51	H	1.176242	-0.236453	1.034242
H52	H	1.153970	-0.385475	0.899705
O53	O	0.979481	0.110114	0.375192
C54	C	0.995611	0.083456	0.271018
H55	H	1.054750	0.053370	0.265726
H56	H	0.989272	0.155264	0.219457
H57	H	0.955855	0.020179	0.243633
H58	H	1.031917	-0.557650	1.071502
H59	H	0.634457	-0.340969	0.441885
H60	H	1.108950	0.064332	0.558128
O61	O	0.502140	-0.444435	0.326198
C62	C	0.455958	-0.532834	0.330523
H63	H	0.470262	-0.580964	0.402439
H64	H	0.464460	-0.582140	0.257550
H65	H	0.395810	-0.506881	0.335077
O66	O	0.637943	-0.444814	0.325321
C67	C	0.681006	-0.536367	0.327865
H68	H	0.703493	-0.548573	0.409981
H69	H	0.728972	-0.528604	0.270836
H70	H	0.645376	-0.605954	0.304833
O71	O	0.504405	-0.641578	0.376586
C72	C	0.530713	-0.742335	0.353095
H73	H	0.581854	-0.759458	0.402076
H74	H	0.545565	-0.746848	0.266858
H75	H	0.485994	-0.802175	0.371355
H76	H	0.634221	-0.675642	0.530324
H77	H	0.507489	-0.675619	0.529046
H78	H	0.635254	-0.637720	0.393626
O79	O	0.504091	-0.545952	0.685931
C80	C	0.532749	-0.520084	0.784835
H81	H	0.584822	-0.471103	0.774946
H82	H	0.546780	-0.594530	0.829125
H83	H	0.489821	-0.473704	0.830410
O84	O	0.502334	-0.381390	0.646819
C85	C	0.455238	-0.339382	0.569998
H86	H	0.468989	-0.375419	0.491110
H87	H	0.463280	-0.251335	0.565981
H88	H	0.395361	-0.357424	0.590784
O89	O	0.638119	-0.376439	0.640684
C90	C	0.683054	-0.336430	0.560361
H91	H	0.706291	-0.403597	0.512273
H92	H	0.730484	-0.289930	0.595850
H93	H	0.648724	-0.283412	0.508010
O94	O	0.639386	-0.538559	0.688889
C95	C	0.686252	-0.613628	0.643370
H96	H	0.672486	-0.621757	0.557020
H97	H	0.677959	-0.691866	0.683820
H98	H	0.746208	-0.587964	0.652460
O99	O	0.979348	-0.116252	0.375472
C100	C	0.931549	-0.179335	0.435008
H101	H	0.957690	-0.195553	0.514226
H102	H	0.921660	-0.256146	0.392506
H103	H	0.876646	-0.137319	0.446435
