data_functionalizedCrystal
_audit_creation_method	'MofGen! by Chris Wilmer'
_symmetry_space_group_name_H-M	'P1'
_symmetry_Int_Tables_number	1
_symmetry_cell_setting	triclinic
loop_
_symmetry_equiv_pos_as_xyz
  x,y,z
_cell_length_a	10.654553
_cell_length_b	16.098524
_cell_length_c	10.654550
_cell_angle_alpha	86.960409
_cell_angle_beta	95.514460
_cell_angle_gamma	93.041257
loop_
_atom_site_label
_atom_site_type_symbol
_atom_site_fract_x
_atom_site_fract_y
_atom_site_fract_z
O1	O	1.672896	0.069264	-0.181474
O2	O	1.307418	0.069263	-0.198276
O3	O	1.498560	0.069260	-0.007136
O4	O	1.481755	0.069267	-0.372615
O5	O	1.488430	-0.069253	0.002983
O6	O	1.297288	-0.069250	-0.188157
O7	O	1.662766	-0.069250	-0.171355
Zn8	Zn	1.478418	-0.091242	-0.178150
Zn9	Zn	1.491766	0.091256	-0.191482
O10	O	1.471624	-0.069247	-0.362496
C11	C	1.255555	0.000006	-0.191982
C12	C	1.116112	0.000006	-0.188289
C13	C	0.914050	-0.075492	-0.177560
C14	C	1.045070	-0.075497	-0.181037
C15	C	1.056125	0.075519	-0.192076
C16	C	0.925106	0.075522	-0.188608
C17	C	0.907669	-0.162679	-0.171181
C18	C	1.038690	-0.162684	-0.174658
N19	N	1.469318	-0.215792	-0.169050
C20	C	1.542966	-0.259372	-0.242751
C21	C	1.536617	-0.346561	-0.236377
C22	C	1.456612	-0.390169	-0.156309
C23	C	1.382962	-0.346583	-0.082600
C24	C	1.389319	-0.259395	-0.088968
C25	C	1.433582	-0.653421	-0.133230
C26	C	1.427228	-0.740615	-0.126871
C27	C	1.580885	-0.740587	-0.280647
C28	C	1.587229	-0.653398	-0.287013
C29	C	1.513584	-0.609819	-0.213299
C30	C	1.450118	-0.479291	-0.149795
C31	C	1.520086	-0.520699	-0.219807
C32	C	1.714629	0.000009	-0.177649
C33	C	1.854073	0.000015	-0.181343
C34	C	1.492261	0.000005	0.044722
C35	C	1.488569	0.000008	0.184165
N36	N	1.500876	0.215805	-0.200571
C37	C	1.477923	0.000011	-0.414353
C38	C	1.481615	0.000013	-0.553797
C39	C	1.601111	0.000005	0.263649
C40	C	1.597634	0.000011	0.394670
C41	C	1.369066	0.000018	0.366708
C42	C	1.372544	0.000018	0.235690
C43	C	1.733073	-0.000002	0.279794
C44	C	1.729597	0.000003	0.410814
H45	H	0.876118	-0.189731	-0.077607
F46	F	1.074754	-0.198047	-0.291800
F47	F	1.310943	-0.213014	-0.010515
F48	F	1.659259	-0.786973	-0.359092
F49	F	1.782263	-0.078179	0.238929
H50	H	1.585229	-0.485190	-0.284994
H51	H	1.113976	0.136994	-0.197993
H52	H	1.082526	-0.196157	-0.085415
F53	F	1.789041	-0.075762	0.470938
F54	F	1.364966	-0.525709	-0.064590
H55	H	0.858937	-0.196155	-0.255525
H56	H	1.596591	-0.382041	-0.296390
F57	F	0.861276	0.155886	-0.192657
H58	H	1.608106	-0.223873	-0.307959
F59	F	1.806077	0.075759	0.235879
F60	F	1.252764	0.000038	0.151099
F61	F	1.672338	-0.606993	-0.372275
H62	H	1.773852	0.059810	0.452088
H63	H	1.362073	-0.776117	-0.061669
H64	H	1.373615	-0.617949	-0.073206
H65	H	1.317827	-0.382095	-0.017400
H66	H	1.274601	0.000027	0.408677
