data_functionalizedCrystal
_audit_creation_method	'MofGen! by Chris Wilmer'
_symmetry_space_group_name_H-M	'P1'
_symmetry_Int_Tables_number	1
_symmetry_cell_setting	triclinic
loop_
_symmetry_equiv_pos_as_xyz
  x,y,z
_cell_length_a	17.038272
_cell_length_b	15.944545
_cell_length_c	14.421503
_cell_angle_alpha	89.995153
_cell_angle_beta	89.989101
_cell_angle_gamma	92.696136
loop_
_atom_site_label
_atom_site_type_symbol
_atom_site_fract_x
_atom_site_fract_y
_atom_site_fract_z
O1	O	-0.100803	1.121730	-0.077039
O2	O	0.149197	1.371730	0.172961
O3	O	0.399197	1.621730	0.422961
O4	O	0.649197	1.871730	0.672961
O5	O	-0.113241	0.878067	-0.077052
O6	O	0.136759	1.128067	0.172948
O7	O	0.386759	1.378067	0.422948
O8	O	0.636759	1.628067	0.672948
O9	O	0.006794	0.998450	-0.077054
O10	O	0.256794	1.248450	0.172946
O11	O	0.506794	1.498450	0.422946
O12	O	0.756794	1.748450	0.672946
O13	O	-0.220838	1.001347	-0.077037
O14	O	0.029162	1.251347	0.172963
O15	O	0.279162	1.501347	0.422963
O16	O	0.529162	1.751347	0.672963
O17	O	0.006776	0.998430	0.077170
O18	O	0.256776	1.248430	0.327170
O19	O	0.506776	1.498430	0.577170
O20	O	0.756776	1.748430	0.827170
O21	O	-0.113258	0.878047	0.077171
O22	O	0.136742	1.128047	0.327171
O23	O	0.386742	1.378047	0.577171
O24	O	0.636742	1.628047	0.827171
O25	O	-0.100821	1.121710	0.077185
O26	O	0.149179	1.371710	0.327185
O27	O	0.399179	1.621710	0.577185
O28	O	0.649179	1.871710	0.827185
Cu29	Cu	-0.107041	0.999877	0.091260
Cu30	Cu	0.142959	1.249877	0.341260
Cu31	Cu	0.392959	1.499877	0.591260
Cu32	Cu	0.642959	1.749877	0.841260
Cu33	Cu	-0.107020	0.999900	-0.091127
Cu34	Cu	0.142980	1.249900	0.158873
Cu35	Cu	0.392980	1.499900	0.408873
Cu36	Cu	0.642980	1.749900	0.658873
O37	O	-0.220856	1.001327	0.077186
O38	O	0.029144	1.251327	0.327186
O39	O	0.279144	1.501327	0.577186
O40	O	0.529144	1.751327	0.827186
C41	C	-0.112734	0.846727	0.000058
C42	C	0.137266	1.096727	0.250058
C43	C	0.387266	1.346727	0.500058
C44	C	0.637266	1.596727	0.750058
C45	C	-0.111189	0.753370	0.000052
C46	C	0.138811	1.003370	0.250052
C47	C	0.388811	1.253370	0.500052
C48	C	0.638811	1.503370	0.750052
C49	C	-0.032168	0.477095	0.000056
C50	C	0.217832	0.727095	0.250056
C51	C	0.467832	0.977095	0.500056
C52	C	0.717832	1.227095	0.750056
C53	C	-0.070274	0.530387	0.076101
C54	C	0.179726	0.780387	0.326101
C55	C	0.429726	1.030387	0.576101
C56	C	0.679726	1.280387	0.826101
C57	C	-0.105678	0.417333	0.000067
C58	C	0.144322	0.667333	0.250067
C59	C	0.394322	0.917333	0.500067
C60	C	0.644322	1.167333	0.750067
C61	C	-0.070276	0.530389	-0.075951
C62	C	0.179724	0.780389	0.174049
C63	C	0.429724	1.030389	0.424049
C64	C	0.679724	1.280389	0.674049
C65	C	-0.108381	0.582439	0.000058
C66	C	0.141619	0.832439	0.250058
C67	C	0.391619	1.082439	0.500058
C68	C	0.641619	1.332439	0.750058
C69	C	-0.143764	0.469395	0.076175
C70	C	0.106236	0.719395	0.326175
C71	C	0.356236	0.969395	0.576175
C72	C	0.606236	1.219395	0.826175
C73	C	-0.143756	0.469392	-0.075945
C74	C	0.106244	0.719392	0.174055
C75	C	0.356244	0.969392	0.424055
C76	C	0.606244	1.219392	0.674055
C77	C	-0.181916	0.522655	0.000119
C78	C	0.068084	0.772655	0.250119
C79	C	0.318084	1.022655	0.500119
C80	C	0.568084	1.272655	0.750119
C81	C	-0.104118	0.322219	0.000073
C82	C	0.145882	0.572219	0.250073
C83	C	0.395882	0.822219	0.500073
C84	C	0.645882	1.072219	0.750073
C85	C	-0.109947	0.677550	0.000059
C86	C	0.140053	0.927550	0.250059
C87	C	0.390053	1.177550	0.500059
C88	C	0.640053	1.427550	0.750059
C89	C	-0.249976	1.003971	0.000077
C90	C	0.000024	1.253971	0.250077
C91	C	0.250024	1.503971	0.500077
C92	C	0.500024	1.753971	0.750077
C93	C	-0.336771	1.011830	0.000083
C94	C	-0.086771	1.261830	0.250083
C95	C	0.163229	1.511830	0.500083
C96	C	0.413229	1.761830	0.750083
C97	C	-0.386865	0.939673	0.000079
C98	C	-0.136865	1.189673	0.250079
C99	C	0.113135	1.439673	0.500079
C100	C	0.363135	1.689673	0.750079
C101	C	-0.468418	0.947062	0.000068
C102	C	-0.218418	1.197062	0.250068
C103	C	0.031582	1.447062	0.500068
C104	C	0.281582	1.697062	0.750068
C105	C	-0.499874	1.026610	0.000067
C106	C	-0.249874	1.276610	0.250067
C107	C	0.000126	1.526610	0.500067
C108	C	0.250126	1.776610	0.750067
C109	C	-0.449774	1.098773	0.000069
C110	C	-0.199774	1.348773	0.250069
C111	C	0.050226	1.598773	0.500069
C112	C	0.300226	1.848773	0.750069
C113	C	-0.368223	1.091383	0.000074
C114	C	-0.118223	1.341383	0.250074
C115	C	0.131777	1.591383	0.500074
C116	C	0.381777	1.841383	0.750074
C117	C	-0.745639	1.052719	0.000048
C118	C	-0.495639	1.302719	0.250048
C119	C	-0.245639	1.552719	0.500048
C120	C	0.004361	1.802719	0.750048
C121	C	-0.827197	1.060104	0.000046
C122	C	-0.577197	1.310104	0.250046
C123	C	-0.327197	1.560104	0.500046
C124	C	-0.077197	1.810104	0.750046
C125	C	-0.845835	0.908393	0.000043
C126	C	-0.595835	1.158393	0.250043
C127	C	-0.345835	1.408393	0.500043
C128	C	-0.095835	1.658393	0.750043
C129	C	-0.764282	0.901009	0.000053
C130	C	-0.514282	1.151009	0.250053
C131	C	-0.264282	1.401009	0.500053
C132	C	-0.014282	1.651009	0.750053
C133	C	-0.714188	0.973172	0.000050
C134	C	-0.464188	1.223172	0.250050
C135	C	-0.214188	1.473172	0.500050
C136	C	0.035812	1.723172	0.750050
C137	C	-0.583234	1.034166	0.000059
C138	C	-0.333234	1.284166	0.250059
C139	C	-0.083234	1.534166	0.500059
C140	C	0.166766	1.784166	0.750059
C141	C	-0.630830	0.965616	0.000051
C142	C	-0.380830	1.215616	0.250051
C143	C	-0.130830	1.465616	0.500051
C144	C	0.119170	1.715616	0.750051
C145	C	0.035914	0.995806	0.000054
C146	C	0.285914	1.245806	0.250054
C147	C	0.535914	1.495806	0.500054
C148	C	0.785914	1.745806	0.750054
C149	C	0.122709	0.987947	0.000041
C150	C	0.372709	1.237947	0.250041
C151	C	0.622709	1.487947	0.500041
C152	C	0.872709	1.737947	0.750041
C153	C	-0.101328	1.153051	0.000073
C154	C	0.148672	1.403051	0.250073
C155	C	0.398672	1.653051	0.500073
C156	C	0.648672	1.903051	0.750073
C157	C	-0.102873	1.246407	0.000073
C158	C	0.147127	1.496407	0.250073
C159	C	0.397127	1.746407	0.500073
C160	C	0.647127	1.996407	0.750073
N161	N	-0.107056	0.999866	0.219541
N162	N	0.142944	1.249866	0.469541
N163	N	0.392944	1.499866	0.719541
N164	N	0.642944	1.749866	0.969541
N165	N	-0.107000	0.999917	-0.219408
N166	N	0.143000	1.249917	0.030592
N167	N	0.393000	1.499917	0.280592
N168	N	0.643000	1.749917	0.530592
C169	C	-0.162535	0.944189	0.469195
C170	C	0.087465	1.194189	0.719195
C171	C	0.337465	1.444189	0.969195
C172	C	0.587465	1.694189	1.219195
C173	C	-0.177712	1.021173	0.531004
C174	C	0.072288	1.271173	0.781004
C175	C	0.322288	1.521173	1.031004
C176	C	0.572288	1.771173	1.281004
C177	C	-0.107037	0.999885	0.408703
C178	C	0.142963	1.249885	0.658703
C179	C	0.392963	1.499885	0.908703
C180	C	0.642963	1.749885	1.158703
C181	C	-0.091878	0.922922	0.530988
C182	C	0.158122	1.172922	0.780988
C183	C	0.408122	1.422922	1.030988
C184	C	0.658122	1.672922	1.280988
C185	C	-0.107021	0.999897	0.591424
C186	C	0.142979	1.249897	0.841424
C187	C	0.392979	1.499897	1.091424
C188	C	0.642979	1.749897	1.341424
C189	C	-0.122250	1.076910	0.469150
C190	C	0.127750	1.326910	0.719150
C191	C	0.377750	1.576910	0.969150
C192	C	0.627750	1.826910	1.219150
C193	C	-0.036385	0.978607	0.469129
C194	C	0.213615	1.228607	0.719129
C195	C	0.463615	1.478607	0.969129
C196	C	0.713615	1.728607	1.219129
C197	C	-0.051532	1.055644	0.530909
C198	C	0.198468	1.305644	0.780909
C199	C	0.448468	1.555644	1.030909
C200	C	0.698468	1.805644	1.280909
C201	C	-0.107049	0.999877	0.303441
C202	C	0.142951	1.249877	0.553441
C203	C	0.392951	1.499877	0.803441
C204	C	0.642951	1.749877	1.053441
C205	C	-0.107009	0.999913	0.696683
C206	C	0.142991	1.249913	0.946683
C207	C	0.392991	1.499913	1.196683
C208	C	0.642991	1.749913	1.446683
H209	H	-0.039237	0.557093	0.140387
H210	H	0.210763	0.807093	0.390387
H211	H	0.460763	1.057093	0.640387
H212	H	0.710763	1.307093	0.890387
H213	H	-0.361260	0.874896	0.000090
H214	H	-0.111260	1.124896	0.250090
H215	H	0.138740	1.374896	0.500090
H216	H	0.388740	1.624896	0.750090
F217	F	-0.139090	1.162016	0.433799
F218	F	0.110910	1.412016	0.683799
F219	F	0.360910	1.662016	0.933799
F220	F	0.610910	1.912016	1.183799
F221	F	-0.255798	1.044712	0.566528
F222	F	-0.005798	1.294712	0.816528
F223	F	0.244202	1.544712	1.066528
F224	F	0.494202	1.794712	1.316528
H225	H	-0.004590	1.102805	0.557837
H226	H	0.245410	1.352805	0.807837
H227	H	0.495410	1.602805	1.057837
H228	H	0.745410	1.852805	1.307837
F229	F	-0.029674	0.565300	-0.159977
F230	F	0.220326	0.815300	0.090023
F231	F	0.470326	1.065300	0.340023
F232	F	0.720326	1.315300	0.590023
F233	F	-0.483254	1.183435	0.000062
F234	F	-0.233254	1.433435	0.250062
F235	F	0.016746	1.683435	0.500062
F236	F	0.266746	1.933435	0.750062
H237	H	0.023338	0.960577	0.441930
H238	H	0.273338	1.210577	0.691930
H239	H	0.523338	1.460577	0.941930
H240	H	0.773338	1.710577	1.191930
H241	H	-0.079064	0.857831	0.558153
H242	H	0.170936	1.107831	0.808153
H243	H	0.420936	1.357831	1.058153
H244	H	0.670936	1.607831	1.308153
H245	H	0.031139	0.456922	0.000125
H246	H	0.281139	0.706922	0.250125
H247	H	0.531139	0.956922	0.500125
H248	H	0.781139	1.206922	0.750125
H249	H	-0.209505	0.897142	0.442098
H250	H	0.040495	1.147142	0.692098
H251	H	0.290495	1.397142	0.942098
H252	H	0.540495	1.647142	1.192098
H253	H	-0.327436	1.150142	0.000073
H254	H	-0.077436	1.400142	0.250073
H255	H	0.172564	1.650142	0.500073
H256	H	0.422564	1.900142	0.750073
H257	H	-0.886630	0.849642	0.000044
H258	H	-0.636630	1.099642	0.250044
H259	H	-0.386630	1.349642	0.500044
H260	H	-0.136630	1.599642	0.750044
H261	H	-0.509202	0.888304	0.000061
H262	H	-0.259202	1.138304	0.250061
H263	H	-0.009202	1.388304	0.500061
H264	H	0.240798	1.638304	0.750061
H265	H	-0.174766	0.442669	-0.140233
H266	H	0.075234	0.692669	0.109767
H267	H	0.325234	0.942669	0.359767
H268	H	0.575234	1.192669	0.609767
H269	H	-0.605215	0.900848	0.000047
H270	H	-0.355215	1.150848	0.250047
H271	H	-0.105215	1.400848	0.500047
H272	H	0.144785	1.650848	0.750047
H273	H	-0.174793	0.442792	0.140534
H274	H	0.075207	0.692792	0.390534
H275	H	0.325207	0.942792	0.640534
H276	H	0.575207	1.192792	0.890534
H277	H	-0.245272	0.542671	0.000168
H278	H	0.004728	0.792671	0.250168
H279	H	0.254728	1.042671	0.500168
H280	H	0.504728	1.292671	0.750168
F281	F	-0.860673	1.144774	0.000066
F282	F	-0.610673	1.394774	0.250066
F283	F	-0.360673	1.644774	0.500066
F284	F	-0.110673	1.894774	0.750066
H285	H	-0.738676	0.836233	0.000042
H286	H	-0.488676	1.086233	0.250042
H287	H	-0.238676	1.336233	0.500042
H288	H	0.011324	1.586233	0.750042
F289	F	-0.616720	1.118825	0.000060
F290	F	-0.366720	1.368825	0.250060
F291	F	-0.116720	1.618825	0.500060
F292	F	0.133280	1.868825	0.750060
H293	H	-0.704862	1.111480	0.000051
H294	H	-0.454862	1.361480	0.250051
H295	H	-0.204862	1.611480	0.500051
H296	H	0.045138	1.861480	0.750051
