data_functionalizedCrystal
_audit_creation_method	'MofGen! by Chris Wilmer'
_symmetry_space_group_name_H-M	'P1'
_symmetry_Int_Tables_number	1
_symmetry_cell_setting	triclinic
loop_
_symmetry_equiv_pos_as_xyz
  x,y,z
_cell_length_a	16.109301
_cell_length_b	12.837942
_cell_length_c	15.186229
_cell_angle_alpha	89.996774
_cell_angle_beta	89.999362
_cell_angle_gamma	89.145211
loop_
_atom_site_label
_atom_site_type_symbol
_atom_site_fract_x
_atom_site_fract_y
_atom_site_fract_z
O1	O	1.113716	0.133240	-0.073172
O2	O	0.872971	0.149822	-0.073186
O3	O	0.988005	-0.009370	-0.073174
O4	O	0.998681	0.292432	-0.073184
O5	O	0.987996	-0.009372	0.073283
O6	O	0.872962	0.149820	0.073271
O7	O	1.113707	0.133238	0.073285
Zn8	Zn	0.993333	0.141528	0.096532
Zn9	Zn	0.993345	0.141531	-0.096432
O10	O	0.998673	0.292430	0.073273
C11	C	0.841938	0.149149	0.000041
C12	C	0.749483	0.147135	0.000036
C13	C	0.534343	0.236914	0.000043
C14	C	0.447471	0.235014	0.000049
C15	C	0.452341	0.046138	0.000051
C16	C	0.539211	0.048040	0.000052
C17	C	0.580209	0.143431	0.000043
C18	C	0.406468	0.139629	0.000048
C19	C	0.312278	0.137568	0.000055
C20	C	0.674405	0.145492	0.000039
C21	C	0.984394	-0.047991	0.000054
C22	C	0.973637	-0.163064	0.000052
C23	C	1.102954	-0.404066	0.000041
C24	C	1.092851	-0.512188	0.000039
C25	C	0.943328	-0.487433	0.000040
C26	C	0.953431	-0.379311	0.000042
C27	C	1.033247	-0.337632	0.000044
C28	C	1.043349	-0.229507	0.000052
C29	C	0.893827	-0.204754	0.000046
C30	C	0.883724	-0.312876	0.000044
C31	C	1.144739	0.133911	0.000056
C32	C	1.237195	0.135924	0.000056
C33	C	1.002284	0.331050	0.000043
C34	C	1.013041	0.446124	0.000040
N35	N	0.993331	0.141526	0.228224
N36	N	0.993352	0.141526	-0.228125
C37	C	1.044289	0.071059	0.453952
C38	C	1.044292	0.071057	0.546142
C39	C	0.942388	0.211996	0.546141
C40	C	0.942382	0.211992	0.453953
C41	C	0.993337	0.141525	0.407861
C42	C	0.993346	0.141526	0.592239
C43	C	0.993348	0.141524	0.692195
C44	C	0.993334	0.141526	0.307898
H45	H	0.576557	-0.028091	0.000055
H46	H	0.410130	0.311138	0.000050
C47	C	1.099525	-0.005402	0.596344
C48	C	1.088610	0.009658	0.686944
C49	C	1.139469	-0.060770	0.733216
H50	H	1.155934	0.005809	0.581338
H51	H	1.085008	-0.074610	0.581289
H52	H	1.103132	0.078850	0.701992
H53	H	1.032211	-0.001561	0.701976
H54	H	1.124952	-0.129979	0.718162
H55	H	1.195875	-0.049554	0.718203
H56	H	1.132064	-0.050569	0.794693
C57	C	0.856609	-0.532496	-0.000021
C58	C	0.797719	-0.451176	-0.000043
C59	C	0.717825	-0.492648	-0.000115
H60	H	0.849437	-0.574159	0.051032
H61	H	0.849529	-0.574119	-0.051121
H62	H	0.804796	-0.409571	0.051052
H63	H	0.804864	-0.409507	-0.051092
H64	H	0.710744	-0.534271	-0.051215
H65	H	0.710661	-0.534310	0.050938
H66	H	0.677858	-0.437479	-0.000138
C67	C	1.099443	-0.005552	0.403820
C68	C	1.050097	-0.069002	0.350915
C69	C	1.100864	-0.139605	0.304725
H70	H	1.129782	-0.047618	0.444395
H71	H	1.137010	0.031667	0.367784
H72	H	1.012545	-0.106218	0.386947
H73	H	1.019758	-0.026964	0.310323
H74	H	1.138431	-0.102386	0.268689
H75	H	1.131201	-0.181664	0.345306
H76	H	1.067391	-0.182657	0.268817
H77	H	0.567721	0.314588	0.000043
C78	C	0.818167	-0.132575	-0.000135
C79	C	0.819586	-0.069786	-0.075491
C80	C	0.749898	-0.003294	-0.075691
H81	H	0.818926	-0.089791	0.050881
H82	H	0.769169	-0.172853	-0.000184
H83	H	0.868572	-0.029512	-0.075434
H84	H	0.818816	-0.112542	-0.126519
H85	H	0.700899	-0.043572	-0.075740
H86	H	0.750663	0.039483	-0.024672
H87	H	0.750847	0.039310	-0.126823
C88	C	1.168504	-0.584368	-0.000143
C89	C	1.167084	-0.647139	-0.075505
C90	C	1.236770	-0.713634	-0.075710
H91	H	1.167744	-0.627165	0.050869
H92	H	1.217504	-0.544092	-0.000190
H93	H	1.118097	-0.687411	-0.075450
H94	H	1.167855	-0.604371	-0.126529
H95	H	1.285770	-0.673358	-0.075757
H96	H	1.236004	-0.756423	-0.024695
H97	H	1.235820	-0.756225	-0.126846
C98	C	0.887164	0.288461	0.596344
C99	C	0.898092	0.273405	0.686945
C100	C	0.847242	0.343839	0.733217
H101	H	0.830752	0.277254	0.581350
H102	H	0.901683	0.357668	0.581278
H103	H	0.883567	0.204214	0.702004
H104	H	0.954492	0.284620	0.701965
H105	H	0.861761	0.413046	0.718151
H106	H	0.790834	0.332626	0.718216
H107	H	0.854655	0.333639	0.794694
H108	H	0.818741	-0.346827	0.000039
H109	H	1.167943	-0.370130	0.000051
C110	C	0.886954	0.288340	0.403855
C111	C	0.831671	0.233099	0.350955
C112	C	0.780593	0.303389	0.304801
H113	H	0.920184	0.331524	0.367814
H114	H	0.856563	0.330300	0.444478
H115	H	0.862060	0.191157	0.310337
H116	H	0.798423	0.189920	0.386974
H117	H	0.750202	0.345349	0.345424
H118	H	0.813830	0.346569	0.268765
H119	H	0.743072	0.265919	0.268909
H120	H	1.108339	-0.195574	0.000057
C121	C	0.407673	-0.057319	0.000008
C122	C	0.321779	-0.038979	-0.000019
C123	C	0.280607	-0.134261	-0.000074
H124	H	0.422810	-0.095894	0.051067
H125	H	0.422865	-0.095815	-0.051086
H126	H	0.306593	-0.000499	0.051069
H127	H	0.306618	-0.000420	-0.051074
H128	H	0.295799	-0.172757	-0.051167
H129	H	0.295750	-0.172828	0.050986
H130	H	0.222324	-0.121830	-0.000100
