data_functionalizedCrystal
_audit_creation_method	'MofGen! by Chris Wilmer'
_symmetry_space_group_name_H-M	'P1'
_symmetry_Int_Tables_number	1
_symmetry_cell_setting	triclinic
loop_
_symmetry_equiv_pos_as_xyz
  x,y,z
_cell_length_a	12.594517
_cell_length_b	12.594516
_cell_length_c	16.625539
_cell_angle_alpha	90.025003
_cell_angle_beta	90.011051
_cell_angle_gamma	90.007702
loop_
_atom_site_label
_atom_site_type_symbol
_atom_site_fract_x
_atom_site_fract_y
_atom_site_fract_z
Zn1	Zn	1.627294	-0.423857	0.455723
Zn2	Zn	2.127294	0.076143	0.955723
Zn3	Zn	1.627199	-0.601858	0.320898
Zn4	Zn	2.127199	-0.101858	0.820898
Zn5	Zn	1.449299	-0.423882	0.320926
Zn6	Zn	1.949299	0.076118	0.820926
Zn7	Zn	1.449293	-0.601781	0.455710
Zn8	Zn	1.949293	-0.101781	0.955710
O9	O	1.538271	-0.512845	0.388314
O10	O	2.038271	-0.012845	0.888314
O11	O	1.776227	-0.447491	0.437832
O12	O	2.276227	0.052509	0.937832
O13	O	1.603563	-0.578292	0.208069
O14	O	2.103563	-0.078292	0.708069
O15	O	1.472952	-0.274933	0.338824
O16	O	1.972952	0.225067	0.838824
O17	O	1.776157	-0.578268	0.338777
O18	O	2.276157	-0.078268	0.838777
O19	O	1.603724	-0.274915	0.437859
O20	O	2.103724	0.225085	0.937859
O21	O	1.472861	-0.447533	0.208090
O22	O	1.972861	0.052467	0.708090
O23	O	1.300352	-0.447458	0.338812
O24	O	1.800352	0.052542	0.838812
O25	O	1.472942	-0.578137	0.568544
O26	O	1.972942	-0.078137	1.068544
O27	O	1.300348	-0.578160	0.437837
O28	O	1.800348	-0.078160	0.937837
O29	O	1.603719	-0.447417	0.568554
O30	O	2.103719	0.052583	1.068554
O31	O	1.603557	-0.750794	0.338764
O32	O	2.103557	-0.250794	0.838764
O33	O	1.472850	-0.750737	0.437810
O34	O	1.972850	-0.250737	0.937810
C35	C	1.261730	-0.512804	0.388327
C36	C	1.761730	-0.012804	0.888327
C37	C	1.143425	-0.512813	0.388351
C38	C	1.643425	-0.012813	0.888351
C39	C	1.074200	-0.584041	0.442107
C40	C	1.574200	-0.084041	0.942107
C41	C	1.003384	-0.486996	0.461937
C42	C	1.503384	0.013004	0.961937
C43	C	1.003442	-0.609938	0.368503
C44	C	1.503442	-0.109938	0.868503
C45	C	1.074167	-0.415716	0.408220
C46	C	1.574167	0.084284	0.908220
C47	C	1.074231	-0.538723	0.314751
C48	C	1.574231	-0.038723	0.814751
C49	C	1.003447	-0.441612	0.334554
C50	C	1.503447	0.058388	0.834554
C51	C	1.538222	-0.789386	0.388300
C52	C	2.038222	-0.289386	0.888300
C53	C	1.538298	-0.907691	0.388321
C54	C	2.038298	-0.407691	0.888321
C55	C	1.609472	-0.976936	0.334508
C56	C	2.109472	-0.476936	0.834508
C57	C	1.635482	-1.047640	0.408099
C58	C	2.135482	-0.547640	0.908099
C59	C	1.512421	-1.047787	0.314777
C60	C	2.012421	-0.547787	0.814777
C61	C	1.564358	-0.976836	0.461951
C62	C	2.064358	-0.476836	0.961951
C63	C	1.441252	-0.976977	0.368580
C64	C	1.941252	-0.476977	0.868580
C65	C	1.467225	-1.047648	0.442222
C66	C	1.967225	-0.547648	0.942222
C67	C	1.815892	-0.512886	0.388302
C68	C	2.315892	-0.012886	0.888302
C69	C	1.934197	-0.512903	0.388297
C70	C	2.434197	-0.012903	0.888297
C71	C	1.538340	-0.512765	0.598623
C72	C	2.038340	-0.012765	1.098623
C73	C	1.538370	-0.512732	0.688244
C74	C	2.038370	-0.012732	1.188244
C75	C	1.538350	-0.235224	0.388346
C76	C	2.038350	0.264776	0.888346
C77	C	1.538383	-0.116918	0.388360
C78	C	2.038383	0.383082	0.888360
C79	C	1.538264	-0.512847	0.178824
C80	C	2.038264	-0.012847	0.678824
C81	C	1.538440	-0.512581	0.089203
C82	C	2.038440	-0.012581	0.589203
C83	C	1.538419	-0.512612	1.016420
C84	C	2.038419	-0.012612	1.516420
C85	C	1.538402	-0.512649	0.925112
C86	C	2.038402	-0.012649	1.425112
C87	C	1.538395	-0.512673	0.852335
C88	C	2.038395	-0.012673	1.352335
C89	C	1.538377	-0.512708	0.761021
C90	C	2.038377	-0.012708	1.261021
H91	H	0.972265	-0.465113	0.524157
H92	H	1.472265	0.034887	1.024157
H93	H	1.586198	-0.945803	0.524216
H94	H	2.086198	-0.445803	1.024216
Cl95	Cl	1.121925	-0.288923	0.434215
Cl96	Cl	1.621925	0.211077	0.934215
H97	H	1.105373	-0.560636	0.252550
H98	H	1.605373	-0.060636	0.752550
Cl99	Cl	0.955779	-0.348570	0.264332
Cl100	Cl	1.455779	0.151430	0.764332
Cl101	Cl	0.955474	-0.736691	0.342616
Cl102	Cl	1.455474	-0.236691	0.842616
Cl103	Cl	1.762251	-1.095542	0.433927
Cl104	Cl	2.262251	-0.595542	0.933927
Cl105	Cl	1.702409	-0.928993	0.264309
Cl106	Cl	2.202409	-0.428993	0.764309
Cl107	Cl	1.374353	-1.095290	0.512586
Cl108	Cl	1.874353	-0.595290	1.012586
Cl109	Cl	1.478575	-1.095904	0.218729
Cl110	Cl	1.978575	-0.595904	0.718729
Cl111	Cl	1.122169	-0.676864	0.512378
Cl112	Cl	1.622169	-0.176864	1.012378
Cl113	Cl	1.314517	-0.929019	0.342736
Cl114	Cl	1.814517	-0.429019	0.842736
