data_functionalizedCrystal
_audit_creation_method	'MofGen! by Chris Wilmer'
_symmetry_space_group_name_H-M	'P1'
_symmetry_Int_Tables_number	1
_symmetry_cell_setting	triclinic
loop_
_symmetry_equiv_pos_as_xyz
  x,y,z
_cell_length_a	10.540510
_cell_length_b	14.044220
_cell_length_c	12.503572
_cell_angle_alpha	86.156832
_cell_angle_beta	86.446316
_cell_angle_gamma	91.148906
loop_
_atom_site_label
_atom_site_type_symbol
_atom_site_fract_x
_atom_site_fract_y
_atom_site_fract_z
O1	O	1.706116	-0.128108	-0.089331
O2	O	2.206116	0.371892	0.410669
O3	O	1.337974	-0.140733	-0.089332
O4	O	1.837974	0.359267	0.410668
O5	O	1.516518	0.003600	-0.089321
O6	O	2.016518	0.503600	0.410679
O7	O	1.527572	-0.272442	-0.089342
O8	O	2.027572	0.227558	0.410658
O9	O	1.503093	-0.007273	0.089321
O10	O	2.003093	0.492727	0.589321
O11	O	1.324549	-0.151606	0.089309
O12	O	1.824549	0.348394	0.589309
O13	O	1.692690	-0.138981	0.089310
O14	O	2.192690	0.361019	0.589310
Cu15	Cu	1.507394	-0.146287	0.105621
Cu16	Cu	2.007394	0.353713	0.605621
Cu17	Cu	1.523271	-0.133428	-0.105643
Cu18	Cu	2.023271	0.366572	0.394357
O19	O	1.514146	-0.283315	0.089299
O20	O	2.014146	0.216685	0.589299
C21	C	1.283863	-0.145229	-0.000011
C22	C	1.783863	0.354771	0.499989
C23	C	1.142628	-0.142414	-0.000011
C24	C	1.642628	0.357586	0.499989
C25	C	0.935341	-0.242657	-0.000429
C26	C	1.435341	0.257343	0.499571
C27	C	1.082210	-0.245684	-0.000020
C28	C	1.582210	0.254316	0.499980
C29	C	1.084857	-0.095759	0.102003
C30	C	1.584857	0.404241	0.602003
C31	C	0.937861	-0.093492	0.102082
C32	C	1.437861	0.406508	0.602082
C33	C	0.953104	-0.078977	-0.101066
C34	C	1.453104	0.421023	0.398934
C35	C	1.100042	-0.083794	-0.102408
C36	C	1.600042	0.416206	0.397592
C37	C	1.504968	0.033510	0.000000
C38	C	2.004968	0.533510	0.500000
C39	C	1.490538	0.138833	0.000002
C40	C	1.990538	0.638833	0.500002
C41	C	1.746802	-0.134486	-0.000012
C42	C	2.246802	0.365514	0.499988
C43	C	1.888037	-0.137300	-0.000019
C44	C	2.388037	0.362700	0.499981
C45	C	1.525697	-0.313225	-0.000024
C46	C	2.025697	0.186775	0.499976
C47	C	1.540127	-0.418547	-0.000032
C48	C	2.040127	0.081453	0.499968
N49	N	1.496236	-0.155330	0.254213
N50	N	1.996236	0.344670	0.754213
C51	C	1.464158	0.331671	-0.000014
C52	C	1.964158	0.831671	0.499986
C53	C	1.566501	0.388620	-0.000017
C54	C	2.066501	0.888620	0.499983
C55	C	1.551823	0.495922	-0.000025
C56	C	2.051823	0.995922	0.499975
C57	C	1.478834	0.224359	-0.000005
C58	C	1.978834	0.724359	0.499995
N59	N	1.534438	-0.124377	-0.254234
N60	N	2.034438	0.375623	0.245766
C61	C	1.479823	-0.168641	0.473327
C62	C	1.979823	0.331359	0.973327
C63	C	1.550847	-0.111069	0.526659
C64	C	2.050847	0.388931	1.026659
C65	C	1.541715	-0.118476	0.648581
C66	C	2.041715	0.381524	1.148581
C67	C	1.488953	-0.161236	0.351393
C68	C	1.988953	0.338764	0.851393
H69	H	1.124275	-0.019964	0.105803
H70	H	1.624275	0.480036	0.605803
H71	H	1.365524	0.363501	-0.000017
H72	H	1.865524	0.863501	0.499983
C73	C	1.118837	-0.307880	0.098950
C74	C	1.618837	0.192120	0.598950
H75	H	1.043910	-0.331387	0.139067
H76	H	1.543910	0.168613	0.639067
H77	H	1.167284	-0.360009	0.076225
H78	H	1.667284	0.139991	0.576225
H79	H	1.167900	-0.270598	0.142639
H80	H	1.667900	0.229402	0.642639
H81	H	1.412163	-0.223489	0.519230
H82	H	1.912163	0.276511	1.019230
C83	C	1.642299	-0.036999	0.464648
C84	C	2.142299	0.463001	0.964648
H85	H	1.636545	-0.041689	0.389649
H86	H	2.136545	0.458311	0.889649
H87	H	1.619882	0.025295	0.483002
H88	H	2.119882	0.525295	0.983002
H89	H	1.726911	-0.048931	0.483022
H90	H	2.226911	0.451069	0.983022
H91	H	1.121233	-0.282590	-0.073151
H92	H	1.621233	0.217410	0.426849
C93	C	1.699761	0.345630	-0.000003
C94	C	2.199761	0.845630	0.499997
H95	H	1.762044	0.395474	-0.000011
H96	H	2.262044	0.895474	0.499989
H97	H	1.705039	0.303666	0.062296
H98	H	2.205039	0.803666	0.562296
H99	H	1.714417	0.311236	-0.062304
H100	H	2.214417	0.811236	0.437696
H101	H	0.902954	-0.278437	-0.073590
H102	H	1.402954	0.221563	0.426410
H103	H	1.113718	-0.137092	0.177917
H104	H	1.613718	0.362908	0.677917
H105	H	0.890412	-0.287086	0.072310
H106	H	1.390412	0.212914	0.572310
H107	H	0.906708	-0.016535	0.106722
H108	H	1.406708	0.483465	0.606722
C109	C	0.880717	-0.148575	0.205082
C110	C	1.380717	0.351425	0.705082
H111	H	0.947382	-0.172128	0.246480
H112	H	1.447382	0.327872	0.746480
H113	H	0.830177	-0.107067	0.245871
H114	H	1.330177	0.392933	0.745871
H115	H	0.829358	-0.200532	0.186433
H116	H	1.329358	0.299468	0.686433
H117	H	0.919660	-0.106838	-0.178387
H118	H	1.419660	0.393162	0.321613
H119	H	1.138220	-0.117664	-0.177878
H120	H	1.638220	0.382336	0.322122
C121	C	1.156638	0.018569	-0.110721
C122	C	1.656638	0.518569	0.389279
H123	H	1.207199	0.026935	-0.051584
H124	H	1.707199	0.526935	0.448416
H125	H	1.207887	0.029038	-0.175827
H126	H	1.707887	0.529038	0.324173
H127	H	1.089732	0.062892	-0.109854
H128	H	1.589732	0.562892	0.390146
H129	H	0.923163	-0.001400	-0.101750
H130	H	1.423163	0.498600	0.398250
