data_functionalizedCrystal
_audit_creation_method	'MofGen! by Chris Wilmer'
_symmetry_space_group_name_H-M	'P1'
_symmetry_Int_Tables_number	1
_symmetry_cell_setting	triclinic
loop_
_symmetry_equiv_pos_as_xyz
  x,y,z
_cell_length_a	14.519731
_cell_length_b	14.519709
_cell_length_c	12.996460
_cell_angle_alpha	89.998766
_cell_angle_beta	89.993690
_cell_angle_gamma	83.684499
loop_
_atom_site_label
_atom_site_type_symbol
_atom_site_fract_x
_atom_site_fract_y
_atom_site_fract_z
O1	O	1.223858	0.120978	-0.085571
O2	O	1.473858	0.370978	0.164429
O3	O	1.723858	0.620978	0.414429
O4	O	1.973858	0.870978	0.664429
O5	O	0.955384	0.135195	-0.085573
O6	O	1.205384	0.385195	0.164427
O7	O	1.455384	0.635195	0.414427
O8	O	1.705384	0.885195	0.664427
O9	O	1.096739	-0.006151	-0.085563
O10	O	1.346739	0.243849	0.164437
O11	O	1.596739	0.493849	0.414437
O12	O	1.846739	0.743849	0.664437
O13	O	1.082503	0.262324	-0.085582
O14	O	1.332503	0.512324	0.164418
O15	O	1.582503	0.762324	0.414418
O16	O	1.832503	1.012324	0.664418
O17	O	1.096721	-0.006143	0.085571
O18	O	1.346721	0.243857	0.335571
O19	O	1.596721	0.493857	0.585571
O20	O	1.846721	0.743857	0.835571
O21	O	0.955366	0.135203	0.085561
O22	O	1.205366	0.385203	0.335561
O23	O	1.455366	0.635203	0.585561
O24	O	1.705366	0.885203	0.835561
O25	O	1.223840	0.120987	0.085563
O26	O	1.473840	0.370987	0.335563
O27	O	1.723840	0.620987	0.585563
O28	O	1.973840	0.870987	0.835563
Cu29	Cu	1.089601	0.128095	0.101187
Cu30	Cu	1.339601	0.378095	0.351187
Cu31	Cu	1.589601	0.628095	0.601187
Cu32	Cu	1.839601	0.878095	0.851187
Cu33	Cu	1.089623	0.128086	-0.101198
Cu34	Cu	1.339623	0.378086	0.148802
Cu35	Cu	1.589623	0.628086	0.398802
Cu36	Cu	1.839623	0.878086	0.648802
O37	O	1.082485	0.262333	0.085552
O38	O	1.332485	0.512333	0.335552
O39	O	1.582485	0.762333	0.585552
O40	O	1.832485	1.012333	0.835552
C41	C	0.921016	0.134532	-0.000006
C42	C	1.171016	0.384532	0.249994
C43	C	1.421016	0.634532	0.499994
C44	C	1.671016	0.884532	0.749994
C45	C	0.818635	0.132536	-0.000007
C46	C	1.068635	0.382536	0.249993
C47	C	1.318635	0.632536	0.499993
C48	C	1.568635	0.882536	0.749993
C49	C	0.735491	0.130915	-0.000011
C50	C	0.985491	0.380915	0.249989
C51	C	1.235491	0.630915	0.499989
C52	C	1.485491	0.880915	0.749989
C53	C	0.631182	0.128888	-0.000011
C54	C	0.881182	0.378888	0.249989
C55	C	1.131182	0.628888	0.499989
C56	C	1.381182	0.878888	0.749989
C57	C	0.548043	0.127280	-0.000011
C58	C	0.798043	0.377280	0.249989
C59	C	1.048043	0.627280	0.499989
C60	C	1.298043	0.877280	0.749989
C61	C	0.443728	0.125253	-0.000013
C62	C	0.693728	0.375253	0.249987
C63	C	0.943728	0.625253	0.499987
C64	C	1.193728	0.875253	0.749987
C65	C	1.096067	-0.040507	0.000004
C66	C	1.346067	0.209493	0.250004
C67	C	1.596067	0.459493	0.500004
C68	C	1.846067	0.709493	0.750004
C69	C	1.094079	-0.142889	0.000005
C70	C	1.344079	0.107111	0.250005
C71	C	1.594079	0.357111	0.500005
C72	C	1.844079	0.607111	0.750005
C73	C	1.086759	-0.517785	-0.000022
C74	C	1.336759	-0.267785	0.249978
C75	C	1.586759	-0.017785	0.499978
C76	C	1.836759	0.232215	0.749978
C77	C	1.088792	-0.413477	-0.000014
C78	C	1.338792	-0.163477	0.249986
C79	C	1.588792	0.086523	0.499986
C80	C	1.838792	0.336523	0.749986
C81	C	1.090419	-0.330340	-0.000008
C82	C	1.340419	-0.080340	0.249992
C83	C	1.590419	0.169660	0.499992
C84	C	1.840419	0.419660	0.749992
C85	C	1.092452	-0.226025	-0.000002
C86	C	1.342452	0.023975	0.249998
C87	C	1.592452	0.273975	0.499998
C88	C	1.842452	0.523975	0.749998
C89	C	1.258209	0.121649	-0.000007
C90	C	1.508209	0.371649	0.249993
C91	C	1.758209	0.621649	0.499993
C92	C	2.008209	0.871649	0.749993
C93	C	1.360589	0.123645	-0.000013
C94	C	1.610589	0.373645	0.249987
C95	C	1.860589	0.623645	0.499987
C96	C	2.110589	0.873645	0.749987
C97	C	1.083157	0.296688	-0.000017
C98	C	1.333157	0.546688	0.249983
C99	C	1.583157	0.796688	0.499983
C100	C	1.833157	1.046688	0.749983
C101	C	1.085146	0.399070	-0.000024
C102	C	1.335146	0.649070	0.249976
C103	C	1.585146	0.899070	0.499976
C104	C	1.835146	1.149070	0.749976
N105	N	1.089593	0.128102	0.243535
N106	N	1.339593	0.378102	0.493535
N107	N	1.589593	0.628102	0.743535
N108	N	1.839593	0.878102	0.993535
N109	N	1.089639	0.128072	-0.243545
N110	N	1.339639	0.378072	0.006455
N111	N	1.589639	0.628072	0.256455
N112	N	1.839639	0.878072	0.506455
C113	C	1.089597	0.128104	0.336640
C114	C	1.339597	0.378104	0.586640
C115	C	1.589597	0.628104	0.836640
C116	C	1.839597	0.878104	1.086640
C117	C	1.089606	0.128098	0.453446
C118	C	1.339606	0.378098	0.703446
C119	C	1.589606	0.628098	0.953446
C120	C	1.839606	0.878098	1.203446
C121	C	1.089617	0.128088	0.546544
C122	C	1.339617	0.378088	0.796544
C123	C	1.589617	0.628088	1.046544
C124	C	1.839617	0.878088	1.296544
C125	C	1.089627	0.128082	0.663356
C126	C	1.339627	0.378082	0.913356
C127	C	1.589627	0.628082	1.163356
C128	C	1.839627	0.878082	1.413356
