data_functionalizedCrystal
_audit_creation_method	'MofGen! by Chris Wilmer'
_symmetry_space_group_name_H-M	'P1'
_symmetry_Int_Tables_number	1
_symmetry_cell_setting	triclinic
loop_
_symmetry_equiv_pos_as_xyz
  x,y,z
_cell_length_a	18.050582
_cell_length_b	17.640112
_cell_length_c	17.640280
_cell_angle_alpha	92.184069
_cell_angle_beta	101.218364
_cell_angle_gamma	78.820489
loop_
_atom_site_label
_atom_site_type_symbol
_atom_site_fract_x
_atom_site_fract_y
_atom_site_fract_z
Zn1	Zn	-0.175390	-1.221954	0.067397
Zn2	Zn	0.324610	-0.721954	0.567397
Zn3	Zn	-0.022254	-1.247567	0.194376
Zn4	Zn	0.477746	-0.747567	0.694376
Zn5	Zn	-0.070415	-1.094991	0.093106
Zn6	Zn	0.429585	-0.594991	0.593106
Zn7	Zn	-0.165607	-1.120634	0.220033
Zn8	Zn	0.334393	-0.620634	0.720033
O9	O	-0.108417	-1.171287	0.143728
O10	O	0.391583	-0.671287	0.643728
O11	O	-0.139015	-1.331608	0.062745
O12	O	0.360985	-0.831608	0.562745
O13	O	0.075284	-1.227315	0.180964
O14	O	0.575284	-0.727315	0.680964
O15	O	-0.108590	-1.090382	-0.016565
O16	O	0.391410	-0.590382	0.483435
O17	O	-0.026506	-1.350426	0.156036
O18	O	0.473494	-0.850426	0.656036
O19	O	-0.185715	-1.183661	-0.035453
O20	O	0.314285	-0.683661	0.464547
O21	O	0.039900	-1.115218	0.106561
O22	O	0.539900	-0.615218	0.606561
O23	O	-0.099104	-0.992137	0.131439
O24	O	0.400896	-0.492137	0.631439
O25	O	-0.270831	-1.134087	0.199765
O26	O	0.229169	-0.634087	0.699765
O27	O	-0.169041	-1.010976	0.224693
O28	O	0.330959	-0.510976	0.724693
O29	O	-0.278019	-1.208526	0.087624
O30	O	0.221981	-0.708526	0.587624
O31	O	-0.017020	-1.252180	0.304040
O32	O	0.482980	-0.752180	0.804040
O33	O	-0.122341	-1.158923	0.322891
O34	O	0.377659	-0.658923	0.822891
C35	C	-0.063406	-1.211134	0.341014
C36	C	0.436594	-0.711134	0.841014
C37	C	-0.044165	-1.228250	0.425399
C38	C	0.455835	-0.728250	0.925399
C39	C	-0.138237	-0.974005	0.183640
C40	C	0.361763	-0.474005	0.683640
C41	C	-0.151008	-0.889611	0.200733
C42	C	0.348992	-0.389611	0.700733
C43	C	-0.302125	-1.171309	0.143688
C44	C	0.197875	-0.671309	0.643688
C45	C	-0.384673	-1.171319	0.143672
C46	C	0.115327	-0.671319	0.643672
C47	C	-0.580225	-1.130864	0.204577
C48	C	-0.080225	-0.630864	0.704577
C49	C	-0.614905	-1.203896	0.209116
C50	C	-0.114905	-0.703896	0.709116
C51	C	-0.535811	-1.171345	0.143606
C52	C	-0.035811	-0.671345	0.643606
C53	C	-0.648211	-1.098347	0.139038
C54	C	-0.148211	-0.598347	0.639038
C55	C	-0.681804	-1.171364	0.143545
C56	C	-0.181804	-0.671364	0.643545
C57	C	-0.569390	-1.244421	0.148174
C58	C	-0.069390	-0.744421	0.648174
C59	C	-0.602706	-1.138818	0.078074
C60	C	-0.102706	-0.638818	0.578074
C61	C	-0.637363	-1.211893	0.082577
C62	C	-0.137363	-0.711893	0.582577
C63	C	-0.451707	-1.171333	0.143643
C64	C	0.048293	-0.671333	0.643643
C65	C	-0.765904	-1.171383	0.143507
C66	C	-0.265904	-0.671383	0.643507
C67	C	0.084533	-1.171296	0.143704
C68	C	0.584533	-0.671296	0.643704
C69	C	0.167053	-1.171390	0.143477
C70	C	0.667053	-0.671390	0.643477
C71	C	-0.078480	-1.369338	0.103661
C72	C	0.421520	-0.869338	0.603661
C73	C	-0.065722	-1.453736	0.086586
C74	C	0.434278	-0.953736	0.586586
C75	C	-0.011407	-0.562830	0.013862
C76	C	0.488593	-0.062830	0.513862
C77	C	-0.023413	-0.483532	0.029938
C78	C	0.476587	0.016468	0.529938
C79	C	-0.096045	-0.503231	0.127177
C80	C	0.403955	-0.003231	0.627177
C81	C	-0.084047	-0.582532	0.111106
C82	C	0.415953	-0.082532	0.611106
C83	C	-0.041727	-0.612325	0.054448
C84	C	0.458273	-0.112325	0.554448
C85	C	-0.114368	-0.632027	0.151692
C86	C	0.385632	-0.132027	0.651692
C87	C	-0.102368	-0.711321	0.135624
C88	C	0.397632	-0.211321	0.635624
C89	C	-0.060047	-0.741121	0.078971
C90	C	0.439953	-0.241121	0.578971
C91	C	-0.029727	-0.691619	0.038380
C92	C	0.470273	-0.191619	0.538380
C93	C	-0.156683	-0.602233	0.208353
C94	C	0.343317	-0.102233	0.708353
C95	C	-0.187004	-0.651728	0.248939
C96	C	0.312996	-0.151728	0.748939
C97	C	-0.175008	-0.731023	0.232868
C98	C	0.324992	-0.231023	0.732868
C99	C	-0.132688	-0.760823	0.176215
C100	C	0.367312	-0.260823	0.676215
C101	C	-0.205329	-0.780524	0.273458
C102	C	0.294671	-0.280524	0.773458
C103	C	-0.193329	-0.859819	0.257391
C104	C	0.306671	-0.359819	0.757391
C105	C	-0.120688	-0.840117	0.160147
C106	C	0.379312	-0.340117	0.660147
C107	C	-0.153616	-1.131304	-0.054332
C108	C	0.346384	-0.631304	0.445668
C109	C	-0.172877	-1.114266	-0.138733
C110	C	0.327123	-0.614266	0.361267
C111	C	-0.254813	-1.041567	0.752183
C112	C	0.245187	-0.541567	1.252183
C113	C	-0.236709	-1.057652	0.831476
C114	C	0.263291	-0.557652	1.331476
C115	C	-0.127125	-1.154821	0.811769
C116	C	0.372875	-0.654821	1.311769
C117	C	-0.145222	-1.138747	0.732473
C118	C	0.354778	-0.638747	1.232473
C119	C	-0.209067	-1.082118	0.702686
C120	C	0.290933	-0.582118	1.202686
C121	C	-0.099476	-1.179298	0.682976
C122	C	0.400524	-0.679298	1.182976
C123	C	-0.117569	-1.163222	0.603687
C124	C	0.382431	-0.663222	1.103687
C125	C	-0.181409	-1.106595	0.573895
C126	C	0.318591	-0.606595	1.073895
C127	C	-0.227160	-1.066043	0.623398
C128	C	0.272840	-0.566043	1.123398
C129	C	-0.035628	-1.235922	0.712765
C130	C	0.464372	-0.735922	1.212765
C131	C	0.010118	-1.276474	0.663268
C132	C	0.510118	-0.776474	1.163268
C133	C	-0.007978	-1.260402	0.583977
C134	C	0.492022	-0.760402	1.083977
C135	C	-0.071818	-1.203775	0.554185
C136	C	0.428182	-0.703775	1.054185
C137	C	0.037773	-1.300955	0.534474
C138	C	0.537773	-0.800955	1.034474
C139	C	0.019679	-1.284879	0.455185
C140	C	0.519679	-0.784879	0.955185
C141	C	-0.089912	-1.187699	0.474896
C142	C	0.410088	-0.687699	0.974896
H143	H	-0.555244	-1.096682	0.256185
H144	H	-0.055244	-0.596682	0.756185
H145	H	0.089759	-1.347056	0.558740
H146	H	0.589759	-0.847056	1.058740
F147	F	0.068373	-1.328032	0.402506
F148	F	0.568373	-0.828032	0.902506
H149	H	-0.239779	-0.756256	0.319594
H150	H	0.260221	-0.256256	0.819594
F151	F	0.078063	-1.336741	0.694978
F152	F	0.578063	-0.836741	1.194978
H153	H	-0.130500	-0.478963	0.173310
H154	H	0.369500	0.021037	0.673310
F155	F	-0.524876	-1.325162	0.153282
F156	F	-0.024876	-0.825162	0.653282
H157	H	-0.273974	-1.024635	0.871773
H158	H	0.226026	-0.524635	1.371773
F159	F	-0.225597	-0.912498	0.300589
F160	F	0.274403	-0.412498	0.800589
F161	F	-0.169444	-0.517841	0.225460
F162	F	0.330556	-0.017841	0.725460
H163	H	-0.086240	-0.864373	0.114000
H164	H	0.413760	-0.364373	0.614000
F165	F	-0.594877	-1.102822	0.005699
F166	F	-0.094877	-0.602822	0.505699
H167	H	0.023041	-0.587087	-0.032286
H168	H	0.523041	-0.087087	0.467714
F169	F	-0.200779	-1.089622	0.489480
F170	F	0.299221	-0.589622	0.989480
F171	F	-0.232033	-0.620013	0.309244
F172	F	0.267967	-0.120013	0.809244
F173	F	-0.622711	-1.239871	0.281516
F174	F	-0.122711	-0.739871	0.781516
F175	F	-0.059181	-1.215088	0.843479
F176	F	0.440819	-0.715088	1.343479
F177	F	-0.669810	-1.256712	0.015137
F178	F	-0.169810	-0.756712	0.515137
H179	H	-0.682343	-1.036605	0.135198
H180	H	-0.182343	-0.536605	0.635198
H181	H	-0.306806	-0.995460	0.727929
H182	H	0.193194	-0.495460	1.227929
H183	H	0.001274	-0.443234	-0.003121
H184	H	0.501274	0.056766	0.496879
H185	H	-0.141905	-1.141592	0.450642
H186	H	0.358095	-0.641592	0.950642
F187	F	-0.016390	-1.253052	0.797148
F188	F	0.483610	-0.753052	1.297148
H189	H	-0.050276	-0.805688	0.065891
H190	H	0.449724	-0.305688	0.565891
F191	F	0.015310	-0.723330	-0.021926
F192	F	0.515310	-0.223330	0.478074
H193	H	-0.279153	-1.019936	0.599144
H194	H	0.220847	-0.519936	1.099144
