data_functionalizedCrystal
_audit_creation_method	'MofGen! by Chris Wilmer'
_symmetry_space_group_name_H-M	'P1'
_symmetry_Int_Tables_number	1
_symmetry_cell_setting	triclinic
loop_
_symmetry_equiv_pos_as_xyz
  x,y,z
_cell_length_a	10.654559
_cell_length_b	8.965430
_cell_length_c	10.654550
_cell_angle_alpha	90.001592
_cell_angle_beta	95.513206
_cell_angle_gamma	90.004060
loop_
_atom_site_label
_atom_site_type_symbol
_atom_site_fract_x
_atom_site_fract_y
_atom_site_fract_z
O1	O	1.667834	0.124043	-0.176445
O2	O	1.302357	0.124044	-0.193239
O3	O	1.493499	0.124038	-0.002103
O4	O	1.476693	0.124049	-0.367581
O5	O	1.493483	-0.124041	-0.002115
O6	O	1.302341	-0.124035	-0.193251
O7	O	1.667818	-0.124035	-0.176457
Cu8	Cu	1.485078	-0.146687	-0.184855
Cu9	Cu	1.485097	0.146695	-0.184840
O10	O	1.476676	-0.124029	-0.367593
C11	C	1.255551	0.000005	-0.192009
C12	C	1.116109	0.000005	-0.188313
C13	C	1.064569	-0.000002	-0.072301
C14	C	0.933547	0.000009	-0.068835
C15	C	0.905614	0.000028	-0.297404
C16	C	1.036634	0.000028	-0.300869
C17	C	1.080694	-0.000020	0.059662
C18	C	0.949672	-0.000009	0.063128
N19	N	1.485074	-0.353036	-0.184865
C20	C	1.396650	-0.450339	-0.273230
C21	C	1.510352	-0.549752	-0.298592
C22	C	1.371419	-0.549750	-0.159514
C23	C	1.598834	-0.450260	-0.210285
C24	C	1.459826	-0.450249	-0.071156
C25	C	1.573610	-0.549618	-0.096471
C26	C	1.714624	0.000007	-0.177686
C27	C	1.854067	0.000017	-0.181383
C28	C	1.492257	0.000001	0.044689
C29	C	1.488565	0.000006	0.184132
N30	N	1.485111	0.353044	-0.184821
C31	C	1.477919	0.000011	-0.414385
C32	C	1.481610	0.000016	-0.553828
C33	C	1.601106	0.000001	0.263614
C34	C	1.597629	0.000012	0.394635
C35	C	1.369061	0.000025	0.366679
C36	C	1.372539	0.000025	0.235661
C37	C	1.733068	-0.000013	0.279756
C38	C	1.729592	-0.000003	0.410777
H39	H	1.321942	-0.406748	-0.348026
O40	O	0.902491	0.141870	0.118822
H41	H	0.835216	0.197993	0.048035
H42	H	1.531733	-0.593458	-0.394734
H43	H	0.920296	-0.103832	0.114724
O44	O	1.726204	-0.392637	-0.238822
H45	H	1.725171	-0.268841	-0.238668
H46	H	1.438410	-0.406509	0.024955
O47	O	1.244089	-0.607642	-0.131119
H48	H	1.170850	-0.567865	-0.204618
O49	O	1.251157	0.000028	0.149928
H50	H	1.169898	0.000022	0.207774
O51	O	1.672780	-0.607029	0.002540
H52	H	1.766990	-0.566970	-0.018792
H53	H	1.274596	0.000042	0.408651
O54	O	0.819889	0.000046	-0.418795
H55	H	0.877743	0.000060	-0.500048
O56	O	1.801428	0.137502	0.240851
H57	H	1.832127	0.204835	0.325709
O58	O	1.788740	-0.141880	0.232538
H59	H	1.815446	-0.217093	0.313461
H60	H	1.769479	0.107111	0.456424
H61	H	1.126329	-0.107138	0.099524
O62	O	1.795453	-0.137500	0.466112
H63	H	1.728111	-0.204811	0.515783
O64	O	1.092218	0.000030	-0.426001
H65	H	1.060372	0.101142	-0.480131
O66	O	1.136021	0.137488	0.125530
H67	H	1.059198	0.204820	0.160514
