data_functionalizedCrystal
_audit_creation_method	'MofGen! by Chris Wilmer'
_symmetry_space_group_name_H-M	'P1'
_symmetry_Int_Tables_number	1
_symmetry_cell_setting	triclinic
loop_
_symmetry_equiv_pos_as_xyz
  x,y,z
_cell_length_a	14.519709
_cell_length_b	10.723024
_cell_length_c	9.798715
_cell_angle_alpha	90.003391
_cell_angle_beta	89.995905
_cell_angle_gamma	95.925993
loop_
_atom_site_label
_atom_site_type_symbol
_atom_site_fract_x
_atom_site_fract_y
_atom_site_fract_z
O1	O	0.129347	-1.655978	-0.113485
O2	O	0.141728	-1.292710	-0.113490
O3	O	0.001349	-1.483975	-0.113475
O4	O	0.269727	-1.464712	-0.113500
O5	O	0.001348	-1.483961	0.113507
O6	O	0.141728	-1.292695	0.113492
O7	O	0.129347	-1.655963	0.113497
Zn8	Zn	0.135537	-1.474327	0.149533
Zn9	Zn	0.135538	-1.474346	-0.149526
O10	O	0.269727	-1.464698	0.113482
C11	C	0.140827	-1.246211	0.000000
C12	C	0.138132	-1.107682	-0.000001
C13	C	-0.033016	-1.483070	0.000016
C14	C	-0.135411	-1.480380	0.000017
C15	C	0.130248	-1.702462	0.000003
C16	C	0.132944	-1.840991	-0.000004
C17	C	-0.510357	-1.470476	-0.000019
C18	C	-0.406035	-1.473227	-0.000009
C19	C	-0.322887	-1.475428	0.000000
C20	C	-0.218559	-1.478179	0.000008
C21	C	0.304091	-1.465603	-0.000012
C22	C	0.406486	-1.468293	-0.000022
N23	N	0.135537	-1.474323	0.353632
C24	C	0.216681	-1.031965	-0.000009
C25	C	0.213896	-0.888788	-0.000011
N26	N	0.135532	-1.474359	-0.353626
C27	C	0.076335	-1.554633	0.421415
C28	C	0.076332	-1.554653	0.578578
H29	H	0.285991	-1.073139	-0.000008
C30	C	0.204010	-1.381464	0.567647
C31	C	0.309011	-1.383501	0.587975
C32	C	0.377489	-1.290606	0.509236
C33	C	0.340968	-1.195675	0.410169
C34	C	0.235962	-1.193634	0.389837
C35	C	0.167484	-1.286529	0.468576
H36	H	0.336051	-1.453779	0.661313
H37	H	0.455221	-1.292118	0.524287
H38	H	0.391660	-1.126908	0.351882
H39	H	0.208922	-1.123357	0.316498
H40	H	0.089752	-1.285018	0.453524
C41	C	0.007862	-1.647506	0.342646
C42	C	0.007873	-1.647238	0.185490
C43	C	-0.060604	-1.740115	0.106727
C44	C	-0.129092	-1.833258	0.185119
C45	C	-0.129105	-1.833529	0.342284
C46	C	-0.060629	-1.740653	0.421048
H47	H	0.058574	-1.578285	0.127451
H48	H	-0.060593	-1.739914	-0.009618
H49	H	-0.179782	-1.902011	0.126814
H50	H	-0.179807	-1.902482	0.400323
H51	H	-0.060640	-1.740854	0.537392
H52	H	0.281141	-0.823726	-0.000024
C53	C	0.007856	-1.647545	0.657314
C54	C	-0.097157	-1.644803	0.637858
C55	C	-0.165636	-1.737697	0.716597
C56	C	-0.129101	-1.833334	0.814792
C57	C	-0.024083	-1.836080	0.834252
C58	C	0.044395	-1.743185	0.755513
H59	H	-0.124206	-1.574003	0.565165
H60	H	-0.243377	-1.735664	0.702191
H61	H	-0.179793	-1.902101	0.873079
H62	H	0.002966	-1.906879	0.906945
H63	H	0.122137	-1.745218	0.769919
C64	C	0.042091	-0.928867	0.000005
C65	C	-0.027507	-0.923200	0.117877
C66	C	-0.118359	-1.011086	0.117886
C67	C	-0.139614	-1.104639	0.000024
C68	C	-0.070015	-1.110310	-0.117857
C69	C	0.020838	-1.022424	-0.117866
H70	H	-0.011774	-0.853942	0.205134
H71	H	-0.169881	-1.006888	0.205150
H72	H	-0.206869	-1.169698	0.000031
H73	H	-0.085748	-1.179567	-0.205114
H74	H	0.072359	-1.026622	-0.205130
H75	H	0.068822	-1.066508	-0.000030
H76	H	0.186216	-1.405577	0.411951
