data_functionalizedCrystal
_audit_creation_method	'MofGen! by Chris Wilmer'
_symmetry_space_group_name_H-M	'P1'
_symmetry_Int_Tables_number	1
_symmetry_cell_setting	triclinic
loop_
_symmetry_equiv_pos_as_xyz
  x,y,z
_cell_length_a	27.732064
_cell_length_b	13.330367
_cell_length_c	14.853567
_cell_angle_alpha	89.991237
_cell_angle_beta	83.142177
_cell_angle_gamma	89.999195
loop_
_atom_site_label
_atom_site_type_symbol
_atom_site_fract_x
_atom_site_fract_y
_atom_site_fract_z
O1	O	0.641426	0.083237	0.107328
O2	O	0.500710	0.083277	0.123623
O3	O	0.574827	0.083259	-0.015815
O4	O	0.567310	0.083255	0.246766
O5	O	0.574816	-0.083588	-0.015793
O6	O	0.500699	-0.083570	0.123645
O7	O	0.641415	-0.083610	0.107350
Cu8	Cu	0.571056	-0.098825	0.115500
Cu9	Cu	0.571069	0.098491	0.115473
O10	O	0.567298	-0.083592	0.246788
C11	C	0.482696	-0.000141	0.123290
C12	C	0.429037	-0.000126	0.122253
N13	N	0.571050	-0.237606	0.115518
C14	C	0.051546	-0.000182	0.032793
C15	C	0.253224	-0.000155	0.036610
O16	O	0.284152	-0.000192	-0.032808
N17	N	0.272738	-0.000152	0.119294
C18	C	0.241829	-0.000162	0.201029
O19	O	0.263055	-0.000169	0.271445
C20	C	0.040152	-0.000195	0.197212
C21	C	0.020641	-0.000188	0.114523
C22	C	0.032034	-0.000176	-0.049890
C23	C	-0.018382	-0.000177	-0.050843
C24	C	-0.049287	-0.000184	0.030887
C25	C	-0.029776	-0.000189	0.113570
C26	C	0.009244	-0.000212	0.278947
C27	C	-0.041178	-0.000223	0.277986
C28	C	-0.060689	-0.000216	0.195296
C29	C	-0.111097	-0.000197	0.194346
N30	N	-0.130611	-0.000201	0.111662
C31	C	-0.099706	-0.000194	0.029932
C32	C	0.347713	-0.000143	0.203028
C33	C	0.398132	-0.000133	0.203982
C34	C	0.409523	-0.000128	0.039562
C35	C	0.359103	-0.000131	0.038608
C36	C	0.328199	-0.000146	0.120344
C37	C	-0.205585	-0.000195	0.027937
C38	C	-0.256007	-0.000192	0.026991
C39	C	-0.267394	-0.000202	0.191411
C40	C	-0.216977	-0.000200	0.192357
C41	C	-0.186073	-0.000200	0.110613
O42	O	-0.142054	-0.000172	0.263727
O43	O	-0.120941	-0.000209	-0.040473
C44	C	0.101962	-0.000180	0.033746
C45	C	0.121474	-0.000186	0.116429
C46	C	0.090569	-0.000193	0.198159
C47	C	0.171893	-0.000176	0.117384
C48	C	0.202798	-0.000169	0.035654
C49	C	0.183284	-0.000173	-0.047030
C50	C	0.132867	-0.000174	-0.047983
C51	C	0.110083	-0.000190	0.280843
C52	C	0.160500	-0.000188	0.281789
C53	C	0.191405	-0.000181	0.200060
C54	C	0.600426	-0.710228	0.169762
C55	C	0.541727	-0.710198	0.061148
C56	C	0.541720	-0.605180	0.061162
C57	C	0.571067	-0.552681	0.115476
C58	C	0.600421	-0.605200	0.169776
C59	C	0.512370	-0.552652	0.006856
C60	C	0.512362	-0.447628	0.006867
C61	C	0.541707	-0.395127	0.061187
C62	C	0.571062	-0.447653	0.115490
C63	C	0.600409	-0.395154	0.169804
C64	C	0.629762	-0.447678	0.224112
C65	C	0.629766	-0.552699	0.224096
C66	C	0.541703	-0.290105	0.061204
C67	C	0.600404	-0.290126	0.169818
C68	C	0.659429	-0.000190	0.107684
C69	C	0.713088	-0.000199	0.108720
C70	C	0.574481	-0.000162	-0.049387
C71	C	0.573460	-0.000153	-0.149454
N72	N	0.571079	0.237273	0.115448
C73	C	0.525118	-0.000158	-0.561207
C74	C	0.613171	-0.000183	-0.583911
C75	C	0.614130	-0.000177	-0.489892
C76	C	0.570583	-0.000164	-0.431527
C77	C	0.526077	-0.000155	-0.467180
C78	C	0.658636	-0.000196	-0.454232
C79	C	0.659598	-0.000191	-0.360209
C80	C	0.616050	-0.000170	-0.301842
C81	C	0.571542	-0.000161	-0.337500
C82	C	0.527995	-0.000147	-0.279134
C83	C	0.483486	-0.000131	-0.314791
C84	C	0.482529	-0.000134	-0.408813
C85	C	0.617007	-0.000166	-0.207820
C86	C	0.528953	-0.000145	-0.185107
C87	C	0.567644	-0.000169	0.280360
C88	C	0.568665	-0.000172	0.380427
H89	H	-0.271890	-0.000184	-0.040348
H90	H	-0.180429	-0.000195	-0.038627
Cl91	Cl	0.308868	-0.000153	0.305792
H92	H	0.488461	-0.404871	-0.037353
Cl93	Cl	0.185022	-0.000190	0.385753
Cl94	Cl	0.667912	-0.000217	-0.657284
Cl95	Cl	0.504815	-0.224080	-0.007081
H96	H	0.414013	-0.000124	0.271316
Cl97	Cl	0.033760	-0.000222	0.382906
H98	H	0.084925	-0.000197	0.347399
H99	H	0.694090	-0.000216	-0.501760
H100	H	0.695840	-0.000203	-0.331186
Cl101	Cl	0.666657	-0.381667	0.292384
Cl102	Cl	0.504837	-0.776197	-0.007130
Cl103	Cl	0.637297	-0.224136	0.238108
H104	H	-0.066338	-0.000240	0.344546
H105	H	0.653664	-0.595474	0.268309
H106	H	0.624323	-0.752998	0.213982
Cl107	Cl	0.474205	-0.000119	-0.111740
H108	H	0.057192	-0.000173	-0.116447
H109	H	0.448030	-0.000126	-0.267257
Cl110	Cl	0.475478	-0.618655	-0.061418
Cl111	Cl	0.426580	-0.000111	-0.453644
H112	H	0.488880	-0.000141	-0.590243
H113	H	-0.034263	-0.000175	-0.118177
Cl114	Cl	0.334580	-0.000127	-0.065348
H115	H	0.434695	-0.000119	-0.026985
Cl116	Cl	-0.192447	-0.000196	0.296311
Cl117	Cl	0.108347	-0.000161	-0.151941
H118	H	0.653246	-0.000186	-0.178792
H119	H	-0.292565	-0.000203	0.257953
H120	H	0.208456	-0.000161	-0.113577
