data_functionalizedCrystal
_audit_creation_method	'MofGen! by Chris Wilmer'
_symmetry_space_group_name_H-M	'P1'
_symmetry_Int_Tables_number	1
_symmetry_cell_setting	triclinic
loop_
_symmetry_equiv_pos_as_xyz
  x,y,z
_cell_length_a	21.295419
_cell_length_b	25.639239
_cell_length_c	21.295411
_cell_angle_alpha	89.980474
_cell_angle_beta	89.975461
_cell_angle_gamma	90.053487
loop_
_atom_site_label
_atom_site_type_symbol
_atom_site_fract_x
_atom_site_fract_y
_atom_site_fract_z
Zn1	Zn	0.962320	-0.208004	-0.355920
Zn2	Zn	1.462320	0.291996	0.144080
Zn3	Zn	0.962207	-0.295424	-0.250650
Zn4	Zn	1.462207	0.204576	0.249350
Zn5	Zn	0.857043	-0.208027	-0.250665
Zn6	Zn	1.357043	0.291973	0.249335
Zn7	Zn	0.856997	-0.295433	-0.355881
Zn8	Zn	1.356997	0.204567	0.144119
O9	O	0.909642	-0.251722	-0.303279
O10	O	1.409642	0.248278	0.196721
O11	O	1.050394	-0.219587	-0.341966
O12	O	1.550394	0.280413	0.158034
O13	O	0.948229	-0.283836	-0.162562
O14	O	1.448229	0.216164	0.337438
O15	O	0.871074	-0.134859	-0.264651
O16	O	1.371074	0.365141	0.235349
O17	O	1.050311	-0.283814	-0.264624
O18	O	1.550311	0.216186	0.235376
O19	O	0.948421	-0.134842	-0.341981
O20	O	1.448421	0.365158	0.158019
O21	O	0.870965	-0.219626	-0.162574
O22	O	1.370965	0.280374	0.337426
O23	O	0.768948	-0.219635	-0.264613
O24	O	1.268948	0.280365	0.235387
O25	O	0.870997	-0.283829	-0.443976
O26	O	1.370997	0.216171	0.056024
O27	O	0.768914	-0.283851	-0.341915
O28	O	1.268914	0.216149	0.158085
O29	O	0.948377	-0.219596	-0.444005
O30	O	1.448377	0.280404	0.055995
O31	O	0.948185	-0.368590	-0.264586
O32	O	1.448185	0.131410	0.235414
O33	O	0.870887	-0.368597	-0.341899
O34	O	1.370887	0.131403	0.158101
C35	C	0.746090	-0.251747	-0.303262
C36	C	1.246090	0.248253	0.196738
C37	C	0.676122	-0.251770	-0.303269
C38	C	1.176122	0.248230	0.196731
C39	C	0.643321	-0.218382	-0.343603
C40	C	1.143321	0.281618	0.156397
C41	C	0.577578	-0.218368	-0.343606
C42	C	1.077578	0.281632	0.156394
C43	C	0.544640	-0.251751	-0.303280
C44	C	1.044640	0.248249	0.196720
C45	C	0.577449	-0.285142	-0.262938
C46	C	1.077449	0.214858	0.237062
C47	C	0.643190	-0.285152	-0.262933
C48	C	1.143190	0.214848	0.237067
N49	N	0.441356	-0.297498	-0.298363
N50	N	0.941356	0.202502	0.201637
N51	N	0.378905	-0.297487	-0.298372
N52	N	0.878905	0.202513	0.201628
C53	C	0.346565	-0.251724	-0.303294
C54	C	0.846565	0.248276	0.196706
N55	N	0.379036	-0.205972	-0.308220
N56	N	0.879036	0.294028	0.191780
N57	N	0.441493	-0.205983	-0.308214
N58	N	0.941493	0.294017	0.191786
C59	C	0.473354	-0.251745	-0.303282
C60	C	0.973354	0.248255	0.196718
C61	C	0.242478	-0.218318	-0.343633
C62	C	0.742478	0.281682	0.156367
C63	C	0.176735	-0.218303	-0.343631
C64	C	0.676735	0.281697	0.156369
C65	C	0.176606	-0.285082	-0.262967
C66	C	0.676606	0.214918	0.237033
C67	C	0.242348	-0.285092	-0.262966
C68	C	0.742348	0.214908	0.237034
C69	C	0.275281	-0.251711	-0.303302
C70	C	0.775281	0.248289	0.196698
C71	C	0.909536	-0.387564	-0.303250
C72	C	1.409536	0.112436	0.196750
C73	C	0.909548	-0.445678	-0.303259
C74	C	1.409548	0.054322	0.196741
C75	C	0.949996	-0.806026	-0.263091
C76	C	1.449996	-0.306026	0.236909
C77	C	0.950020	-0.860630	-0.263099
C78	C	1.450020	-0.360630	0.236901
O79	O	0.984300	-0.888853	-0.228915
O80	O	1.484300	-0.388853	0.271085
N81	N	0.909752	-0.887961	-0.303321
N82	N	1.409752	-0.387961	0.196679
C83	C	0.869462	-0.860685	-0.343541
C84	C	1.369462	-0.360685	0.156459
O85	O	0.835215	-0.888946	-0.377754
O86	O	1.335215	-0.388946	0.122246
C87	C	0.869442	-0.806081	-0.343536
C88	C	1.369442	-0.306081	0.156464
C89	C	0.909707	-0.778753	-0.303307
C90	C	1.409707	-0.278753	0.196693
C91	C	0.990258	-0.778697	-0.222866
C92	C	1.490258	-0.278697	0.277134
C93	C	0.990233	-0.724097	-0.222857
C94	C	1.490233	-0.224097	0.277143
C95	C	0.949945	-0.696824	-0.263073
C96	C	1.449945	-0.196824	0.236927
C97	C	0.909682	-0.724153	-0.303298
C98	C	1.409682	-0.224153	0.196702
C99	C	0.829155	-0.778806	-0.383759
C100	C	1.329155	-0.278806	0.116241
C101	C	0.829138	-0.724199	-0.383750
C102	C	1.329138	-0.224199	0.116250
C103	C	0.869404	-0.696871	-0.343521
C104	C	1.369404	-0.196871	0.156479
C105	C	0.869368	-0.642280	-0.343505
C106	C	1.369368	-0.142280	0.156495
N107	N	0.909636	-0.614949	-0.303283
N108	N	1.409636	-0.114949	0.196717
C109	C	0.949924	-0.642221	-0.263067
C110	C	1.449924	-0.142221	0.236933
C111	C	0.869510	-0.975355	-0.343551
C112	C	1.369510	-0.475355	0.156449
C113	C	0.869527	-1.029958	-0.343554
C114	C	1.369527	-0.529958	0.156446
C115	C	0.950085	-1.029899	-0.263113
C116	C	1.450085	-0.529899	0.236887
C117	C	0.950065	-0.975296	-0.263107
C118	C	1.450065	-0.475296	0.236893
C119	C	0.909777	-0.948024	-0.303329
C120	C	1.409777	-0.448024	0.196671
C121	C	0.949867	-0.527556	-0.263050
C122	C	1.449867	-0.027556	0.236950
C123	C	0.949836	-0.472951	-0.263043
C124	C	1.449836	0.027049	0.236957
C125	C	0.869281	-0.473014	-0.343487
C126	C	1.369281	0.026986	0.156513
C127	C	0.869309	-0.527615	-0.343492
C128	C	1.369309	-0.027615	0.156508
C129	C	0.909607	-0.554884	-0.303272
C130	C	1.409607	-0.054884	0.196728
O131	O	0.835108	-0.614022	-0.377673
O132	O	1.335108	-0.114022	0.122327
O133	O	0.984172	-0.613953	-0.228866
O134	O	1.484172	-0.113953	0.271134
C135	C	1.073832	-0.251697	-0.303297
C136	C	1.573832	0.248303	0.196703
C137	C	1.143800	-0.251686	-0.303305
C138	C	1.643800	0.248314	0.196695
C139	C	0.909694	-0.251711	-0.467470
C140	C	1.409694	0.248289	0.032530
C141	C	0.909716	-0.251706	-0.537438
C142	C	1.409716	0.248294	-0.037438
C143	C	0.909765	-0.115349	-0.303322
C144	C	1.409765	0.384651	0.196678
C145	C	0.909818	-0.057235	-0.303340
C146	C	1.409818	0.442765	0.196660
C147	C	0.950006	-0.218258	-0.570320
C148	C	1.450006	0.281742	-0.070320
C149	C	0.950005	-0.218235	-0.636063
C150	C	1.450005	0.281765	-0.136063
C151	C	0.909721	-0.251670	-0.668920
C152	C	1.409721	0.248330	-0.168920
C153	C	0.869423	-0.285120	-0.636030
C154	C	1.369423	0.214880	-0.136030
C155	C	0.869421	-0.285138	-0.570288
C156	C	1.369421	0.214862	-0.070288
N157	N	0.904857	-0.297409	-0.772138
N158	N	1.404857	0.202591	-0.272138
N159	N	0.904863	-0.297391	-0.834589
N160	N	1.404863	0.202609	-0.334589
C161	C	0.909725	-0.251617	-0.866995
C162	C	1.409725	0.248383	-0.366995
N163	N	0.914594	-0.205862	-0.834590
N164	N	1.414594	0.294138	-0.334590
N165	N	0.914591	-0.205881	-0.772133
N166	N	1.414591	0.294119	-0.272133
C167	C	0.909719	-0.251654	-0.740206
C168	C	1.409719	0.248346	-0.240206
C169	C	0.950016	-0.218142	-0.971163
C170	C	1.450016	0.281858	-0.471163
C171	C	0.950011	-0.218118	-1.036907
C172	C	1.450011	0.281882	-0.536907
C173	C	0.869432	-0.285008	-1.036873
C174	C	1.369432	0.214992	-0.536873
C175	C	0.869434	-0.285027	-0.971130
C176	C	1.369434	0.214973	-0.471130
C177	C	0.909730	-0.251594	-0.938279
C178	C	1.409730	0.248406	-0.438279
C179	C	0.909626	-0.251695	-0.139728
C180	C	1.409626	0.248305	0.360272
C181	C	0.909726	-0.251553	-0.069760
C182	C	1.409726	0.248447	0.430240
H183	H	0.269055	-0.312283	-0.230124
H184	H	0.769055	0.187717	0.269876
C185	C	0.825756	-0.321403	-0.671814
C186	C	1.325756	0.178597	-0.171814
C187	C	0.834395	-0.314240	-0.736426
C188	C	1.334395	0.185760	-0.236426
C189	C	0.794183	-0.347660	-0.769409
C190	C	1.294183	0.152340	-0.269409
H191	H	0.783441	-0.313794	-0.661102
H192	H	1.283441	0.186206	-0.161102
H193	H	0.834944	-0.356545	-0.661077
H194	H	1.334944	0.143455	-0.161077
H195	H	0.825203	-0.279106	-0.747159
H196	H	1.325203	0.220894	-0.247159
H197	H	0.876702	-0.321853	-0.747157
H198	H	1.376702	0.178147	-0.247157
H199	H	0.803370	-0.382802	-0.758672
H200	H	1.303370	0.117198	-0.258672
H201	H	0.751870	-0.340048	-0.758692
H202	H	1.251870	0.159952	-0.258692
H203	H	0.800043	-0.342807	-0.813252
H204	H	1.300043	0.157193	-0.313252
C205	C	0.825781	-0.321489	-0.534502
C206	C	1.325781	0.178511	-0.034502
C207	C	0.861395	-0.354996	-0.496765
C208	C	1.361395	0.145004	0.003235
C209	C	0.821217	-0.388486	-0.463782
C210	C	1.321217	0.111514	0.036218
H211	H	0.801772	-0.341448	-0.563410
H212	H	1.301772	0.158552	-0.063410
H213	H	0.798383	-0.301514	-0.508807
H214	H	1.298383	0.198486	-0.008807
H215	H	0.888783	-0.374969	-0.522458
H216	H	1.388783	0.125031	-0.022458
H217	H	0.885403	-0.335051	-0.467845
H218	H	1.385403	0.164949	0.032155
H219	H	0.793819	-0.368511	-0.438086
H220	H	1.293819	0.131489	0.061914
H221	H	0.797210	-0.408442	-0.492695
H222	H	1.297210	0.091558	0.007305
H223	H	0.845375	-0.411221	-0.438169
H224	H	1.345375	0.088779	0.061831
H225	H	0.149788	-0.312264	-0.230134
H226	H	0.649788	0.187736	0.269866
C227	C	0.825624	-0.321328	-1.072425
C228	C	1.325624	0.178672	-0.572425
C229	C	0.790330	-0.350619	-1.029552
C230	C	1.290330	0.149381	-0.529552
C231	C	0.749958	-0.384077	-1.062282
C232	C	1.249958	0.115923	-0.562282
H233	H	0.849613	-0.344145	-1.098083
H234	H	1.349613	0.155855	-0.598083
H235	H	0.798181	-0.301335	-1.098045
H236	H	1.298181	0.198665	-0.598045
H237	H	0.817769	-0.370610	-1.003943
H238	H	1.317769	0.129390	-0.503943
H239	H	0.766328	-0.327816	-1.003892
H240	H	1.266328	0.172184	-0.503892
H241	H	0.722515	-0.364084	-1.087902
H242	H	1.222515	0.135916	-0.587902
H243	H	0.773952	-0.406890	-1.087940
H244	H	1.273952	0.093110	-0.587940
H245	H	0.726002	-0.403951	-1.033198
H246	H	1.226002	0.096049	-0.533198
C247	C	0.993626	-0.443375	-0.219341
C248	C	1.493626	0.056625	0.280659
C249	C	1.028926	-0.478951	-0.184138
C250	C	1.528926	0.021049	0.315862
C251	C	1.069276	-0.451727	-0.143882
C252	C	1.569276	0.048273	0.356118
H253	H	0.969622	-0.422110	-0.191830
H254	H	1.469622	0.077890	0.308170
H255	H	1.021067	-0.422046	-0.243428
H256	H	1.521067	0.077954	0.256572
H257	H	1.001488	-0.500270	-0.160053
H258	H	1.501488	-0.000270	0.339947
H259	H	1.052943	-0.500217	-0.211632
H260	H	1.552943	-0.000217	0.288368
H261	H	1.096717	-0.430398	-0.167969
H262	H	1.596717	0.069602	0.332031
H263	H	1.045266	-0.430462	-0.116375
H264	H	1.545266	0.069538	0.383625
H265	H	1.093235	-0.475860	-0.119996
H266	H	1.593235	0.024140	0.380004
C267	C	0.993781	-0.181783	-0.935605
C268	C	1.493781	0.318217	-0.435605
C269	C	1.029050	-0.152471	-0.978477
C270	C	1.529050	0.347529	-0.478477
C271	C	1.069366	-0.118967	-0.945746
C272	C	1.569366	0.381033	-0.445746
H273	H	1.021248	-0.201728	-0.909969
H274	H	1.521248	0.298272	-0.409969
H275	H	0.969734	-0.158987	-0.909962
H276	H	1.469734	0.341013	-0.409962
H277	H	1.053096	-0.175265	-1.004109
H278	H	1.553096	0.324735	-0.504109
H279	H	1.001601	-0.132516	-1.004114
H280	H	1.501601	0.367484	-0.504114
H281	H	1.045319	-0.096171	-0.920103
H282	H	1.545319	0.403829	-0.420103
H283	H	1.096829	-0.138916	-0.920111
H284	H	1.596829	0.361084	-0.420111
H285	H	1.093297	-0.099072	-0.974830
H286	H	1.593297	0.400928	-0.474830
H287	H	0.982819	-0.190878	-1.063679
H288	H	1.482819	0.309122	-0.563679
C289	C	0.993757	-1.059510	-0.219370
C290	C	1.493757	-0.559510	0.280630
C291	C	0.980095	-1.046308	-0.157056
C292	C	1.480095	-0.546308	0.342944
C293	C	1.020304	-1.073591	-0.116756
C294	C	1.520304	-0.573591	0.383244
H295	H	1.036067	-1.050544	-0.228546
H296	H	1.536067	-0.550544	0.271454
H297	H	0.987980	-1.095944	-0.225121
H298	H	1.487980	-0.595944	0.274879
H299	H	0.985878	-1.009882	-0.151308
H300	H	1.485878	-0.509882	0.348692
H301	H	0.937792	-1.055275	-0.147860
H302	H	1.437792	-0.555275	0.352140
H303	H	1.014527	-1.110025	-0.122507
H304	H	1.514527	-0.610025	0.377493
H305	H	1.062612	-1.064623	-0.125937
H306	H	1.562612	-0.564623	0.374063
H307	H	1.011037	-1.064641	-0.074471
H308	H	1.511037	-0.564641	0.425529
C309	C	0.993773	-0.181900	-0.534768
C310	C	1.493773	0.318100	-0.034768
C311	C	1.029045	-0.152592	-0.577642
C312	C	1.529045	0.347408	-0.077642
C313	C	1.069362	-0.119087	-0.544913
C314	C	1.569362	0.380913	-0.044913
H315	H	1.021237	-0.201843	-0.509129
H316	H	1.521237	0.298157	-0.009129
H317	H	0.969726	-0.159100	-0.509129
H318	H	1.469726	0.340900	-0.009129
H319	H	1.053091	-0.175389	-0.603271
H320	H	1.553091	0.324611	-0.103271
H321	H	1.001598	-0.132638	-0.603283
H322	H	1.501598	0.367362	-0.103283
H323	H	1.045315	-0.096288	-0.519274
H324	H	1.545315	0.403712	-0.019274
H325	H	1.096822	-0.139035	-0.519275
H326	H	1.596822	0.360965	-0.019275
H327	H	1.093295	-0.099195	-0.573998
H328	H	1.593295	0.400805	-0.073998
C329	C	0.785463	-0.694497	-0.427396
C330	C	1.285463	-0.194497	0.072604
C331	C	0.794066	-0.640827	-0.418795
C332	C	1.294066	-0.140827	0.081205
C333	C	0.753849	-0.613451	-0.458995
C334	C	1.253849	-0.113451	0.041005
H335	H	0.743151	-0.703434	-0.418188
H336	H	1.243151	-0.203434	0.081812
H337	H	0.794668	-0.703390	-0.469714
H338	H	1.294668	-0.203390	0.030286
H339	H	0.784857	-0.631938	-0.376487
H340	H	1.284857	-0.131938	0.123513
H341	H	0.836370	-0.631875	-0.428008
H342	H	1.336370	-0.131875	0.071992
H343	H	0.763053	-0.622344	-0.501313
H344	H	1.263053	-0.122344	-0.001313
H345	H	0.711539	-0.622392	-0.449783
H346	H	1.211539	-0.122392	0.050217
H347	H	0.759684	-0.577033	-0.453169
H348	H	1.259684	-0.077033	0.046831
C349	C	0.993650	-0.181858	-0.671808
C350	C	1.493650	0.318142	-0.171808
C351	C	0.958045	-0.148331	-0.709528
C352	C	1.458045	0.351669	-0.209528
C353	C	0.998229	-0.114810	-0.742458
C354	C	1.498229	0.385190	-0.242458
H355	H	1.021069	-0.201792	-0.697514
H356	H	1.521069	0.298208	-0.197514
H357	H	1.017637	-0.161919	-0.642848
H358	H	1.517637	0.338081	-0.142848
H359	H	0.934068	-0.168268	-0.738485
H360	H	1.434068	0.331732	-0.238485
H361	H	0.930628	-0.128385	-0.683838
H362	H	1.430628	0.371615	-0.183838
H363	H	1.022216	-0.094871	-0.713498
H364	H	1.522216	0.405129	-0.213498
H365	H	1.025645	-0.134749	-0.768160
H366	H	1.525645	0.365251	-0.268160
H367	H	0.974076	-0.092055	-0.768050
H368	H	1.474076	0.407945	-0.268050
C369	C	0.993706	-0.557180	-0.219491
C370	C	1.493706	-0.057180	0.280509
C371	C	1.034067	-0.588454	-0.255177
C372	C	1.534067	-0.088454	0.244823
C373	C	1.074466	-0.615742	-0.215072
C374	C	1.574466	-0.115742	0.284928
H375	H	0.969734	-0.578563	-0.192025
H376	H	1.469734	-0.078563	0.307975
H377	H	1.017714	-0.533090	-0.195553
H378	H	1.517714	-0.033090	0.304447
H379	H	1.010061	-0.612541	-0.279105
H380	H	1.510061	-0.112541	0.220895
H381	H	1.058052	-0.567084	-0.282642
H382	H	1.558052	-0.067084	0.217358
H383	H	1.098474	-0.591652	-0.191134
H384	H	1.598474	-0.091652	0.308866
H385	H	1.050489	-0.637122	-0.187608
H386	H	1.550489	-0.137122	0.312392
H387	H	1.101859	-0.636961	-0.239279
H388	H	1.601859	-0.136961	0.260721
H389	H	0.670130	-0.191200	-0.376448
H390	H	1.170130	0.308800	0.123552
H391	H	1.023022	-0.701849	-0.190101
H392	H	1.523022	-0.201849	0.309899
H393	H	0.836630	-0.312267	-0.944357
H394	H	1.336630	0.187733	-0.444357
C395	C	0.542069	-0.182100	-0.387473
C396	C	1.042069	0.317900	0.112527
C397	C	0.584981	-0.152878	-0.422807
C398	C	1.084981	0.347122	0.077193
C399	C	0.552295	-0.119470	-0.463232
C400	C	1.052295	0.380530	0.036768
H401	H	0.516436	-0.159238	-0.363521
H402	H	1.016436	0.340762	0.136479
H403	H	0.516427	-0.202126	-0.414889
H404	H	1.016427	0.297874	0.085111
H405	H	0.610612	-0.132854	-0.395395
H406	H	1.110612	0.367146	0.104605
H407	H	0.610616	-0.175726	-0.446772
H408	H	1.110616	0.324274	0.053228
H409	H	0.526653	-0.139496	-0.490648
H410	H	1.026653	0.360504	0.009352
H411	H	0.526663	-0.096612	-0.439275
H412	H	1.026663	0.403388	0.060725
H413	H	0.581406	-0.099643	-0.487215
H414	H	1.081406	0.400357	0.012785
C415	C	0.541576	-0.321369	-0.219226
C416	C	1.041576	0.178631	0.280774
C417	C	0.476981	-0.314226	-0.227877
C418	C	0.976981	0.185774	0.272123
C419	C	0.443917	-0.347594	-0.187623
C420	C	0.943917	0.152406	0.312377
H421	H	0.552261	-0.313700	-0.176921
H422	H	1.052261	0.186300	0.323079
H423	H	0.552274	-0.356523	-0.228367
H424	H	1.052274	0.143477	0.271633
H425	H	0.466288	-0.279081	-0.218731
H426	H	0.966288	0.220919	0.281269
H427	H	0.466278	-0.321899	-0.270174
H428	H	0.966278	0.178101	0.229826
H429	H	0.454615	-0.382747	-0.196764
H430	H	0.954615	0.117253	0.303236
H431	H	0.454607	-0.339922	-0.145320
H432	H	0.954607	0.160078	0.354680
H433	H	0.400086	-0.342755	-0.193491
H434	H	0.900086	0.157245	0.306509
C435	C	0.825907	-1.059691	-0.387264
C436	C	1.325907	-0.559691	0.112736
C437	C	0.861541	-1.090993	-0.427642
C438	C	1.361541	-0.590993	0.072358
C439	C	0.821381	-1.118393	-0.467916
C440	C	1.321381	-0.618393	0.032084
H441	H	0.801897	-1.035683	-0.411272
H442	H	1.301897	-0.535683	0.088728
H443	H	0.798508	-1.081061	-0.363183
H444	H	1.298508	-0.581061	0.136817
H445	H	0.888928	-1.069624	-0.451722
H446	H	1.388928	-0.569624	0.048278
H447	H	0.885549	-1.115010	-0.403652
H448	H	1.385549	-0.615010	0.096348
H449	H	0.793982	-1.139764	-0.443834
H450	H	1.293982	-0.639764	0.056166
H451	H	0.797373	-1.094382	-0.491919
H452	H	1.297373	-0.594382	0.008081
H453	H	0.845552	-1.139638	-0.495313
H454	H	1.345552	-0.639638	0.004687
H455	H	0.836523	-0.549867	-0.376252
H456	H	1.336523	-0.049867	0.123748
C457	C	0.678773	-0.321495	-0.219220
C458	C	1.178773	0.178505	0.280780
C459	C	0.662729	-0.373240	-0.232826
C460	C	1.162729	0.126760	0.267174
C461	C	0.695504	-0.406735	-0.192578
C462	C	1.195504	0.093265	0.307422
H463	H	0.668018	-0.313859	-0.176919
H464	H	1.168018	0.186141	0.323081
H465	H	0.722649	-0.316756	-0.225000
H466	H	1.222649	0.183244	0.275000
H467	H	0.618863	-0.377976	-0.227041
H468	H	1.118863	0.122024	0.272959
H469	H	0.673486	-0.380892	-0.275120
H470	H	1.173486	0.119108	0.224880
H471	H	0.739379	-0.401996	-0.198358
H472	H	1.239379	0.098004	0.301642
H473	H	0.684746	-0.399095	-0.150279
H474	H	1.184746	0.100905	0.349721
H475	H	0.684627	-0.441848	-0.201808
H476	H	1.184627	0.058152	0.298192
H477	H	0.269293	-0.191134	-0.376473
H478	H	0.769293	0.308866	0.123527
H479	H	1.023069	-0.800897	-0.190117
H480	H	1.523069	-0.300897	0.309883
H481	H	0.836476	-0.450801	-0.376228
H482	H	1.336476	0.049199	0.123772
H483	H	0.150029	-0.191111	-0.376475
H484	H	0.650029	0.308889	0.123525
C485	C	0.993822	-0.945561	-0.219535
C486	C	1.493822	-0.445561	0.280465
C487	C	1.034133	-0.914151	-0.255208
C488	C	1.534133	-0.414151	0.244792
C489	C	1.074448	-0.886750	-0.215089
C490	C	1.574448	-0.386750	0.284911
H491	H	1.017875	-0.969569	-0.195571
H492	H	1.517875	-0.469569	0.304429
H493	H	0.969766	-0.924264	-0.192091
H494	H	1.469766	-0.424264	0.307909
H495	H	1.058186	-0.935446	-0.282640
H496	H	1.558186	-0.435446	0.217360
H497	H	1.010097	-0.890133	-0.279170
H498	H	1.510097	-0.390133	0.220830
H499	H	1.050393	-0.865453	-0.187646
H500	H	1.550393	-0.365453	0.312354
H501	H	1.098497	-0.910762	-0.191128
H502	H	1.598497	-0.410762	0.308872
H503	H	1.101800	-0.865431	-0.239287
H504	H	1.601800	-0.365431	0.260713
C505	C	0.825691	-0.945843	-0.387242
C506	C	1.325691	-0.445843	0.112758
C507	C	0.790423	-0.981471	-0.422452
C508	C	1.290423	-0.481471	0.077548
C509	C	0.750046	-0.954307	-0.462701
C510	C	1.250046	-0.454307	0.037299
H511	H	0.849674	-0.924505	-0.414749
H512	H	1.349674	-0.424505	0.085251
H513	H	0.798231	-0.924592	-0.363149
H514	H	1.298231	-0.424592	0.136851
H515	H	0.817880	-1.002713	-0.446543
H516	H	1.317880	-0.502713	0.053457
H517	H	0.766427	-1.002810	-0.394962
H518	H	1.266427	-0.502810	0.105038
H519	H	0.722586	-0.933055	-0.438608
H520	H	1.222586	-0.433055	0.061392
H521	H	0.774035	-0.932970	-0.490204
H522	H	1.274035	-0.432970	0.009796
H523	H	0.726108	-0.978476	-0.486591
H524	H	1.226108	-0.478476	0.013409
H525	H	0.796364	-0.801048	-0.416515
H526	H	1.296364	-0.301048	0.083485
