data_functionalizedCrystal
_audit_creation_method	'MofGen! by Chris Wilmer'
_symmetry_space_group_name_H-M	'P1'
_symmetry_Int_Tables_number	1
_symmetry_cell_setting	triclinic
loop_
_symmetry_equiv_pos_as_xyz
  x,y,z
_cell_length_a	18.050589
_cell_length_b	18.050590
_cell_length_c	11.169409
_cell_angle_alpha	89.992504
_cell_angle_beta	89.967150
_cell_angle_gamma	90.017386
loop_
_atom_site_label
_atom_site_type_symbol
_atom_site_fract_x
_atom_site_fract_y
_atom_site_fract_z
Zn1	Zn	-0.295814	1.135353	-0.678143
Zn2	Zn	-0.420029	1.135246	-0.477459
Zn3	Zn	-0.295834	1.011154	-0.477521
Zn4	Zn	-0.419943	1.011120	-0.678147
O5	O	-0.357905	1.073218	-0.577817
O6	O	-0.312319	1.239263	-0.651495
O7	O	-0.403599	1.118754	-0.309517
O8	O	-0.191907	1.027689	-0.504159
O9	O	-0.403579	1.239185	-0.504052
O10	O	-0.191892	1.118937	-0.651555
O11	O	-0.312353	1.027585	-0.309563
O12	O	-0.312270	0.907225	-0.504162
O13	O	-0.403433	1.027631	-0.846096
O14	O	-0.403452	0.907200	-0.651561
O15	O	-0.312236	1.118904	-0.846094
O16	O	-0.523942	1.118721	-0.504055
O17	O	-0.523879	1.027527	-0.651500
C18	C	-0.357854	0.880266	-0.577869
C19	C	-0.357851	0.797720	-0.577920
C20	C	-0.407578	0.598278	-0.657885
C21	C	-0.339858	0.548887	-0.687410
C22	C	-0.357892	0.646590	-0.577861
C23	C	-0.425651	0.548899	-0.548334
C24	C	-0.357938	0.500605	-0.577807
C25	C	-0.290136	0.598287	-0.607444
C26	C	-0.375975	0.598303	-0.468317
C27	C	-0.308208	0.548935	-0.497801
C28	C	-0.357867	0.730688	-0.577895
C29	C	-0.357956	0.416508	-0.577772
C30	C	-0.550857	1.073129	-0.577798
C31	C	-0.633403	1.073158	-0.577829
C32	C	-0.832846	1.023615	-0.657981
C33	C	-0.882294	1.005508	-0.548473
C34	C	-0.784533	1.073231	-0.577845
C35	C	-0.882167	1.091375	-0.687366
C36	C	-0.930519	1.073300	-0.577869
C37	C	-0.832894	1.055088	-0.468278
C38	C	-0.832763	1.140987	-0.607245
C39	C	-0.882188	1.122905	-0.497661
C40	C	-0.700435	1.073190	-0.577832
C41	C	-1.014615	1.073342	-0.577870
C42	C	-0.164200	1.073329	-0.577864
C43	C	-0.081654	1.073376	-0.577883
C44	C	-0.357823	1.073275	-0.890860
C45	C	-0.357788	1.073300	-1.024260
C46	C	-0.357957	1.266924	-0.577766
C47	C	-0.357979	1.349470	-0.577744
C48	C	-0.357934	1.073204	-0.265993
C49	C	-0.357760	1.073324	-0.132593
H50	H	-0.232836	0.619890	-0.632499
C51	C	-0.522383	0.545626	-0.400771
C52	C	-0.502979	0.519611	-0.514644
H53	H	-0.570121	0.527543	-0.379981
H54	H	-0.523033	0.598241	-0.401273
H55	H	-0.487158	0.528726	-0.343827
H56	H	-0.538201	0.536516	-0.571590
H57	H	-0.502335	0.466986	-0.514151
H58	H	-0.904068	0.948241	-0.523628
H59	H	-0.811339	1.039703	-0.375641
C60	C	-0.863418	0.931487	-0.804931
C61	C	-0.803592	0.966893	-0.749336
H62	H	-0.845355	0.896466	-0.861319
H63	H	-0.893047	0.967226	-0.844924
H64	H	-0.892417	0.906746	-0.746252
H65	H	-0.774595	0.991639	-0.808014
H66	H	-0.773950	0.931148	-0.709342
H67	H	-0.810991	1.198241	-0.632143
C68	C	-0.886253	1.160445	-0.291545
C69	C	-0.911261	1.179586	-0.406091
H70	H	-0.904208	1.195434	-0.235013
H71	H	-0.833637	1.160442	-0.290588
H72	H	-0.903968	1.112482	-0.271343
H73	H	-0.893542	1.227547	-0.426296
H74	H	-0.963888	1.179597	-0.407050
H75	H	-0.903811	1.106694	-0.779977
H76	H	-0.449522	0.619946	-0.725634
C77	C	-0.371312	0.544471	-0.896123
C78	C	-0.319234	0.519572	-0.812431
H79	H	-0.358585	0.526369	-0.973304
H80	H	-0.371583	0.597086	-0.897234
H81	H	-0.419087	0.526833	-0.874598
H82	H	-0.271460	0.537215	-0.833952
H83	H	-0.318956	0.466946	-0.811324
H84	H	-0.266162	0.527406	-0.430105
H85	H	-0.391274	0.620025	-0.375727
