data_functionalizedCrystal
_audit_creation_method	'MofGen! by Chris Wilmer'
_symmetry_space_group_name_H-M	'P1'
_symmetry_Int_Tables_number	1
_symmetry_cell_setting	triclinic
loop_
_symmetry_equiv_pos_as_xyz
  x,y,z
_cell_length_a	15.297327
_cell_length_b	15.297621
_cell_length_c	15.296720
_cell_angle_alpha	88.384271
_cell_angle_beta	107.319222
_cell_angle_gamma	88.375711
loop_
_atom_site_label
_atom_site_type_symbol
_atom_site_fract_x
_atom_site_fract_y
_atom_site_fract_z
Zn1	Zn	-0.695117	-1.116329	-0.823160
Zn2	Zn	-0.195117	-0.616329	-0.323160
Zn3	Zn	-0.823718	-1.116234	-0.694534
Zn4	Zn	-0.323718	-0.616234	-0.194534
Zn5	Zn	-0.644940	-1.005101	-0.644430
Zn6	Zn	-0.144940	-0.505101	-0.144430
Zn7	Zn	-0.814934	-0.946193	-0.814438
Zn8	Zn	-0.314934	-0.446193	-0.314438
O9	O	-0.744677	-1.045964	-0.744141
O10	O	-0.244677	-0.545964	-0.244141
O11	O	-0.736851	-1.234028	-0.830717
O12	O	-0.236851	-0.734028	-0.330717
O13	O	-0.782680	-1.126105	-0.562908
O14	O	-0.282680	-0.626105	-0.062908
O15	O	-0.526633	-1.044550	-0.650820
O16	O	-0.026633	-0.544550	-0.150820
O17	O	-0.831334	-1.233958	-0.736216
O18	O	-0.331334	-0.733958	-0.236216
O19	O	-0.563497	-1.126268	-0.782133
O20	O	-0.063497	-0.626268	-0.282133
O21	O	-0.651333	-1.044457	-0.526097
O22	O	-0.151333	-0.544457	-0.026097
O23	O	-0.642815	-0.879575	-0.642363
O24	O	-0.142815	-0.379575	-0.142363
O25	O	-0.816362	-0.944148	-0.940574
O26	O	-0.316362	-0.444148	-0.440574
O27	O	-0.767709	-0.836295	-0.767267
O28	O	-0.267709	-0.336295	-0.267267
O29	O	-0.728333	-1.069147	-0.946983
O30	O	-0.228333	-0.569147	-0.446983
O31	O	-0.947516	-1.068984	-0.727758
O32	O	-0.447516	-0.568984	-0.227758
O33	O	-0.941062	-0.944056	-0.815851
O34	O	-0.441062	-0.444056	-0.315851
C35	C	-0.698864	-0.827414	-0.698432
C36	C	-0.198864	-0.327414	-0.198432
C37	C	-0.679290	-0.733908	-0.678902
C38	C	-0.179290	-0.233908	-0.178902
C39	C	-0.884543	-0.380291	-0.883684
C40	C	-0.384543	0.119709	-0.383684
C41	C	-0.902940	-0.468144	-0.902032
C42	C	-0.402940	0.031856	-0.402032
C43	C	-0.847029	-0.534589	-0.846251
C44	C	-0.347029	-0.034589	-0.346251
C45	C	-0.772718	-0.513174	-0.772119
C46	C	-0.272718	-0.013174	-0.272119
C47	C	-0.754323	-0.425313	-0.753765
C48	C	-0.254323	0.074687	-0.253765
C49	C	-0.716809	-0.579611	-0.716332
C50	C	-0.216809	-0.079611	-0.216332
C51	C	-0.642498	-0.558196	-0.642199
C52	C	-0.142498	-0.058196	-0.142199
C53	C	-0.624106	-0.470343	-0.623849
C54	C	-0.124106	0.029657	-0.123849
C55	C	-0.680017	-0.403898	-0.679630
C56	C	-0.180017	0.096102	-0.179630
C57	C	-0.735204	-0.667471	-0.734686
C58	C	-0.235204	-0.167471	-0.234686
C59	C	-0.604984	-0.712493	-0.604767
C60	C	-0.104984	-0.212493	-0.104767
C61	C	-0.586587	-0.624641	-0.586419
C62	C	-0.086587	-0.124641	-0.086419
C63	C	-0.976698	-1.000136	-0.776320
C64	C	-0.476698	-0.500136	-0.276320
C65	C	-1.075978	-0.980601	-0.790132
C66	C	-0.575978	-0.480601	-0.290132
C67	C	-1.369207	-1.185867	-0.645799
C68	C	-0.869207	-0.685867	-0.145799
C69	C	-1.275928	-1.204221	-0.632817
C70	C	-0.775928	-0.704221	-0.132817
C71	C	-1.225936	-1.148318	-0.672145
C72	C	-0.725936	-0.648318	-0.172145
C73	C	-1.269232	-1.074057	-0.724456
C74	C	-0.769232	-0.574057	-0.224456
C75	C	-1.362518	-1.055697	-0.737434
C76	C	-0.862518	-0.555697	-0.237434
C77	C	-1.219247	-1.018149	-0.763780
C78	C	-0.719247	-0.518149	-0.263780
C79	C	-1.262543	-0.943888	-0.816091
C80	C	-0.762543	-0.443888	-0.316091
C81	C	-1.355821	-0.925532	-0.829067
C82	C	-0.855821	-0.425532	-0.329067
C83	C	-1.405813	-0.981435	-0.789739
C84	C	-0.905813	-0.481435	-0.289739
C85	C	-1.125961	-1.036508	-0.750802
C86	C	-0.625961	-0.536508	-0.250802
C87	C	-1.119272	-0.906339	-0.842437
C88	C	-0.619272	-0.406339	-0.342437
C89	C	-1.212551	-0.887985	-0.855419
C90	C	-0.712551	-0.387985	-0.355419
C91	C	-0.511758	-1.091991	-0.711860
C92	C	-0.011758	-0.591991	-0.211860
C93	C	-0.412501	-1.111604	-0.698104
C94	C	0.087499	-0.611604	-0.198104
C95	C	-0.776965	-1.000087	-0.977090
C96	C	-0.276965	-0.500087	-0.477090
C97	C	-0.790724	-0.980537	-1.076360
C98	C	-0.290724	-0.480537	-0.576360
C99	C	-0.790662	-0.265371	-0.790020
C100	C	-0.290662	0.234629	-0.290020
C101	C	-0.810237	-0.358876	-0.809549
C102	C	-0.310237	0.141124	-0.309549
C103	C	-0.646189	-1.185754	-1.369531
C104	C	-0.146189	-0.685754	-0.869531
C105	C	-0.633264	-1.204127	-1.276264
C106	C	-0.133264	-0.704127	-0.776264
C107	C	-0.672627	-1.148231	-1.226284
C108	C	-0.172627	-0.648231	-0.726284
C109	C	-0.724919	-1.073959	-1.269579
C110	C	-0.224919	-0.573959	-0.769579
C111	C	-0.737851	-1.055587	-1.362857
C112	C	-0.237851	-0.555587	-0.862857
C113	C	-0.764290	-1.018065	-1.219609
C114	C	-0.264290	-0.518065	-0.719609
C115	C	-0.816581	-0.943792	-1.262905
C116	C	-0.316581	-0.443792	-0.762905
C117	C	-0.829510	-0.925424	-1.356173
C118	C	-0.329510	-0.425424	-0.856173
C119	C	-0.790146	-0.981320	-1.406154
C120	C	-0.290146	-0.481320	-0.906154
C121	C	-0.751358	-1.036436	-1.126331
C122	C	-0.251358	-0.536436	-0.626331
C123	C	-0.843020	-0.906269	-1.119657
C124	C	-0.343020	-0.406269	-0.619657
C125	C	-0.855944	-0.887896	-1.212924
C126	C	-0.355944	-0.387896	-0.712924
C127	C	-0.712461	-1.091724	-0.512098
C128	C	-0.212461	-0.591724	-0.012098
C129	C	-0.698484	-1.111487	-0.412829
C130	C	-0.198484	-0.611487	0.087171
H131	H	-0.665040	-0.332359	-0.664696
H132	H	-0.165040	0.167641	-0.164696
H133	H	-0.563604	-0.452911	-0.563478
H134	H	-0.063604	0.047089	-0.063478
C135	C	-0.887037	-0.843725	-1.403797
C136	C	-0.387037	-0.343725	-0.903797
N137	N	-0.930364	-0.782187	-1.439665
N138	N	-0.430364	-0.282187	-0.939665
H139	H	-1.481769	-0.966497	-0.800309
H140	H	-0.981769	-0.466497	-0.300309
H141	H	-1.247816	-0.827521	-0.898011
H142	H	-0.747816	-0.327521	-0.398011
H143	H	-1.149984	-1.163266	-0.661571
H144	H	-0.649984	-0.663266	-0.161571
H145	H	-0.708781	-1.096909	-1.091089
H146	H	-0.208781	-0.596909	-0.591089
H147	H	-0.800667	-0.966364	-1.482100
H148	H	-0.300667	-0.466364	-0.982100
H149	H	-0.526082	-0.607192	-0.526059
H150	H	-0.026082	-0.107192	-0.026059
C151	C	-1.064286	-0.844842	-0.885703
C152	C	-0.564286	-0.344842	-0.385703
N153	N	-1.022864	-0.798527	-0.918287
N154	N	-0.522864	-0.298527	-0.418287
C155	C	-0.913462	-0.806197	-1.260561
C156	C	-0.413462	-0.306197	-0.760561
N157	N	-0.956782	-0.744660	-1.296442
N158	N	-0.456782	-0.244660	-0.796442
C159	C	-0.658399	-1.168440	-1.123684
C160	C	-0.158399	-0.668440	-0.623684
N161	N	-0.647675	-1.183661	-1.046402
N162	N	-0.147675	-0.683661	-0.546402
C163	C	-0.575736	-1.285819	-1.228644
C164	C	-0.075736	-0.785819	-0.728644
N165	N	-0.532399	-1.347351	-1.192774
N166	N	-0.032399	-0.847351	-0.692774
H167	H	-0.559458	-0.766594	-0.559344
H168	H	-0.059458	-0.266594	-0.059344
H169	H	-0.614151	-1.231261	-1.410236
H170	H	-0.114151	-0.731261	-0.910236
H171	H	-1.090718	-1.096972	-0.708210
H172	H	-0.590718	-0.596972	-0.208210
C173	C	-0.816942	-0.691017	-0.816234
C174	C	-0.316942	-0.191017	-0.316234
N175	N	-0.878510	-0.708749	-0.877662
N176	N	-0.378510	-0.208749	-0.377662
H177	H	-0.862013	-0.606121	-0.861195
H178	H	-0.362013	-0.106121	-0.361195
C179	C	-0.984682	-0.491694	-0.983574
C180	C	-0.484682	0.008306	-0.483574
N181	N	-1.046254	-0.509431	-1.044995
N182	N	-0.546254	-0.009431	-0.544995
H183	H	-0.930062	-0.326186	-0.929088
H184	H	-0.430062	0.173814	-0.429088
C185	C	-1.228304	-1.285894	-0.575258
C186	C	-0.728304	-0.785894	-0.075258
N187	N	-1.192432	-1.347411	-0.531895
N188	N	-0.692432	-0.847411	-0.031895
H189	H	-1.409917	-1.231371	-0.613778
H190	H	-0.909917	-0.731371	-0.113778
H191	H	-1.391066	-0.865056	-0.871650
H192	H	-0.891066	-0.365056	-0.371650
C193	C	-0.886321	-0.844778	-1.064681
C194	C	-0.386321	-0.344778	-0.564681
N195	N	-0.918933	-0.798467	-1.023268
N196	N	-0.418933	-0.298467	-0.523268
