data_functionalizedCrystal
_audit_creation_method	'MofGen! by Chris Wilmer'
_symmetry_space_group_name_H-M	'P1'
_symmetry_Int_Tables_number	1
_symmetry_cell_setting	triclinic
loop_
_symmetry_equiv_pos_as_xyz
  x,y,z
_cell_length_a	10.654562
_cell_length_b	10.654551
_cell_length_c	16.176319
_cell_angle_alpha	89.996057
_cell_angle_beta	89.989792
_cell_angle_gamma	84.487733
loop_
_atom_site_label
_atom_site_type_symbol
_atom_site_fract_x
_atom_site_fract_y
_atom_site_fract_z
O1	O	1.667838	0.176478	-0.068795
O2	O	1.302361	0.193267	-0.068785
O3	O	1.493502	0.002134	-0.068791
O4	O	1.476697	0.367611	-0.068789
O5	O	1.493475	0.002121	0.068703
O6	O	1.302335	0.193255	0.068709
O7	O	1.667811	0.176465	0.068698
Cu8	Cu	1.485070	0.184859	0.081257
Cu9	Cu	1.485102	0.184874	-0.081344
O10	O	1.476670	0.367599	0.068704
C11	C	1.255550	0.192025	-0.000037
C12	C	1.116108	0.188327	-0.000033
C13	C	1.050562	0.186595	0.074908
C14	C	0.919540	0.183130	0.074895
C15	C	0.919619	0.183134	-0.075008
C16	C	1.050640	0.186590	-0.074993
C17	C	1.116030	0.188331	0.149869
C18	C	1.050484	0.186601	0.224816
C19	C	0.919462	0.183136	0.224802
C20	C	0.853985	0.181402	0.149841
C21	C	1.492254	-0.044670	-0.000046
C22	C	1.488562	-0.184114	-0.000051
C23	C	1.486844	-0.249619	-0.074997
C24	C	1.483364	-0.380640	-0.074993
C25	C	1.483324	-0.380639	0.074909
C26	C	1.486796	-0.249620	0.074904
C27	C	1.488610	-0.184113	-0.149953
C28	C	1.486894	-0.249619	-0.224905
C29	C	1.483414	-0.380639	-0.224901
C30	C	1.481650	-0.446154	-0.149945
C31	C	1.714622	0.177708	-0.000052
C32	C	1.854064	0.181406	-0.000061
C33	C	1.477918	0.414403	-0.000043
C34	C	1.481610	0.553846	-0.000043
N35	N	1.485057	0.184848	0.195623
N36	N	1.485125	0.184875	-0.195709
C37	C	1.569720	0.100249	0.238884
C38	C	1.569727	0.100248	0.325431
C39	C	1.485075	0.184852	0.368715
C40	C	1.400403	0.269455	0.325448
C41	C	1.400392	0.269449	0.238902
C42	C	1.400446	0.269479	0.674476
C43	C	1.400467	0.269481	0.761028
C44	C	1.569781	0.100277	0.761005
C45	C	1.569770	0.100272	0.674460
C46	C	1.485094	0.184869	0.631200
C47	C	1.485086	0.184868	0.537355
C48	C	1.485088	0.184861	0.462558
H49	H	0.866100	0.181717	0.285828
H50	H	1.491447	-0.077430	-0.149965
N51	N	1.121340	0.188454	-0.155823
H52	H	1.089071	0.265570	-0.188596
H53	H	1.214259	0.190852	-0.144370
N54	N	0.712670	0.177647	0.149824
H55	H	0.681080	0.176806	0.208674
H56	H	0.671726	0.254536	0.120355
N57	N	1.488670	-0.178963	0.155738
H58	H	1.491136	-0.086024	0.144360
H59	H	1.410341	-0.192359	0.188474
N60	N	1.488679	-0.178952	-0.305747
H61	H	1.491112	-0.086008	-0.294379
H62	H	1.565763	-0.211313	-0.338525
N63	N	1.661110	0.009029	0.807667
H64	H	1.612653	-0.047036	0.843586
H65	H	1.714717	-0.044475	0.767060
H66	H	0.866297	0.181725	-0.136038
N67	N	1.481632	-0.451304	-0.305736
H68	H	1.483305	-0.389925	-0.353218
H69	H	1.557937	-0.515138	-0.308960
N70	N	1.661032	0.009003	0.192202
H71	H	1.714664	-0.044591	0.232744
H72	H	1.612469	-0.046972	0.156306
N73	N	1.661085	0.009046	0.372093
H74	H	1.714729	-0.044530	0.331540
H75	H	1.717000	0.057702	0.407972
H76	H	1.481889	-0.433992	0.135935
N77	N	1.477879	-0.587467	-0.149938
H78	H	1.477051	-0.619027	-0.208791
H79	H	1.554755	-0.628436	-0.120474
N80	N	1.309145	0.360721	0.807716
H81	H	1.357615	0.416788	0.843610
H82	H	1.255518	0.414223	0.767128
N83	N	1.257344	0.192076	0.149883
H84	H	1.288874	0.192914	0.208740
H85	H	1.298317	0.115187	0.120426
N86	N	1.121097	0.188460	0.305663
H87	H	1.214044	0.190920	0.294303
H88	H	1.088681	0.265571	0.338389
H89	H	1.638705	0.031383	0.639220
H90	H	1.331502	0.338364	0.639260
N91	N	1.309089	0.360700	0.372128
H92	H	1.321943	0.347871	0.433519
H93	H	1.324362	0.449933	0.356989
N94	N	1.309071	0.360688	0.192237
H95	H	1.255445	0.414287	0.232788
H96	H	1.357619	0.416660	0.156313
