data_functionalizedCrystal
_audit_creation_method	'MofGen! by Chris Wilmer'
_symmetry_space_group_name_H-M	'P1'
_symmetry_Int_Tables_number	1
_symmetry_cell_setting	triclinic
loop_
_symmetry_equiv_pos_as_xyz
  x,y,z
_cell_length_a	21.395362
_cell_length_b	18.215405
_cell_length_c	21.395355
_cell_angle_alpha	89.980149
_cell_angle_beta	89.956060
_cell_angle_gamma	90.040762
loop_
_atom_site_label
_atom_site_type_symbol
_atom_site_fract_x
_atom_site_fract_y
_atom_site_fract_z
Zn1	Zn	0.957885	-0.292758	-0.354580
Zn2	Zn	0.957798	-0.415806	-0.249800
Zn3	Zn	0.853100	-0.292792	-0.249781
Zn4	Zn	0.853080	-0.415821	-0.354505
O5	O	0.905466	-0.354294	-0.302166
O6	O	1.045551	-0.309060	-0.340720
O7	O	0.943882	-0.399496	-0.162119
O8	O	0.867045	-0.189803	-0.263706
O9	O	1.045487	-0.399463	-0.263739
O10	O	0.944030	-0.189778	-0.340702
O11	O	0.866960	-0.309118	-0.162106
O12	O	0.765419	-0.309133	-0.263634
O13	O	0.867010	-0.399488	-0.442193
O14	O	0.765404	-0.399522	-0.340573
O15	O	0.944010	-0.309074	-0.442248
O16	O	0.943862	-0.518792	-0.263666
O17	O	0.866926	-0.518803	-0.340592
C18	C	0.742678	-0.354333	-0.302094
C19	C	0.673037	-0.354367	-0.302077
C20	C	0.640332	-0.401495	-0.342080
C21	C	0.574897	-0.401477	-0.342108
C22	C	0.542168	-0.354339	-0.302122
C23	C	0.574881	-0.307202	-0.262117
C24	C	0.640315	-0.307216	-0.262094
C25	C	0.438443	-0.348410	-0.245717
C26	C	0.373010	-0.348401	-0.245738
C27	C	0.340348	-0.354291	-0.302191
C28	C	0.373126	-0.360205	-0.358625
C29	C	0.438560	-0.360219	-0.358602
C30	C	0.471216	-0.354318	-0.302142
C31	C	0.236691	-0.401402	-0.342228
C32	C	0.171254	-0.401379	-0.342256
C33	C	0.171239	-0.307107	-0.262260
C34	C	0.236675	-0.307127	-0.262236
C35	C	0.269396	-0.354278	-0.302219
C36	C	0.905399	-0.545500	-0.302136
C37	C	0.905428	-0.627299	-0.302144
C38	C	0.945583	-0.815463	-0.262163
C39	C	0.945611	-0.892322	-0.262178
C40	C	0.865428	-0.892373	-0.342215
C41	C	0.865404	-0.815516	-0.342203
C42	C	0.905480	-0.777063	-0.302173
C43	C	0.905533	-0.930779	-0.302200
C44	C	0.905563	-1.014112	-0.302217
C45	C	0.905451	-0.693724	-0.302157
C46	C	1.068889	-0.354256	-0.302240
C47	C	1.138530	-0.354239	-0.302271
C48	C	0.905518	-0.354279	-0.465590
C49	C	0.905540	-0.354273	-0.535231
C50	C	0.905549	-0.162341	-0.302210
C51	C	0.905585	-0.080542	-0.302229
C52	C	0.945632	-0.307192	-0.567974
C53	C	0.945631	-0.307161	-0.633409
C54	C	0.905545	-0.354223	-0.666099
C55	C	0.865445	-0.401307	-0.633349
C56	C	0.865442	-0.401332	-0.567914
C57	C	0.900574	-0.420488	-0.769762
C58	C	0.900581	-0.420465	-0.835195
C59	C	0.905548	-0.354145	-0.867920
C60	C	0.910522	-0.287847	-0.835205
C61	C	0.910520	-0.287872	-0.769770
C62	C	0.905542	-0.354200	-0.737052
C63	C	0.945642	-0.307026	-0.971616
C64	C	0.945637	-0.306993	-1.037052
C65	C	0.865454	-0.401146	-1.036990
C66	C	0.865455	-0.401172	-0.971555
C67	C	0.905553	-0.354113	-0.938872
C68	C	0.905450	-0.354256	-0.139379
C69	C	0.905549	-0.354055	-0.069738
H70	H	0.263334	-0.439792	-0.374787
H71	H	0.832747	-0.784248	-0.374787
C72	C	0.676326	-0.453372	-0.386046
H73	H	0.719981	-0.446642	-0.380297
H74	H	0.665664	-0.442694	-0.428169
H75	H	0.665545	-0.502796	-0.376781
C76	C	0.989716	-0.934562	-0.218161
H77	H	0.983995	-0.985843	-0.223902
H78	H	0.980559	-0.922003	-0.176051
H79	H	1.031809	-0.921908	-0.227381
C80	C	0.821350	-0.453076	-0.669302
H81	H	0.797468	-0.481116	-0.640427
H82	H	0.845304	-0.485127	-0.694844
H83	H	0.794063	-0.424915	-0.694808
H84	H	0.548264	-0.439854	-0.374685
C85	C	0.135279	-0.453233	-0.386253
H86	H	0.164141	-0.481322	-0.410053
H87	H	0.109801	-0.425136	-0.413611
H88	H	0.109706	-0.485246	-0.362230
H89	H	0.144592	-0.268723	-0.229705
C90	C	0.272651	-0.255295	-0.218225
H91	H	0.243789	-0.227222	-0.194410
H92	H	0.298230	-0.223276	-0.242230
H93	H	0.298123	-0.283413	-0.190871
C94	C	0.821344	-0.934671	-0.386243
H95	H	0.797461	-0.900791	-0.410074
H96	H	0.794066	-0.964703	-0.362246
H97	H	0.845311	-0.964603	-0.413580
H98	H	0.978282	-0.268872	-0.541367
H99	H	0.465246	-0.365033	-0.404553
C100	C	0.336957	-0.341948	-0.183663
H101	H	0.293309	-0.342808	-0.191759
H102	H	0.347675	-0.297124	-0.163668
H103	H	0.347638	-0.381959	-0.157266
C104	C	0.989739	-0.255376	-0.669434
H105	H	1.013622	-0.227357	-0.640597
H106	H	0.965792	-0.223304	-0.694947
H107	H	1.017025	-0.283525	-0.694976
H108	H	0.914568	-0.233890	-0.743136
H109	H	0.978217	-0.784156	-0.229569
H110	H	0.914568	-0.233843	-0.861848
C111	C	0.895110	-0.493443	-0.733767
H112	H	0.895815	-0.483963	-0.690112
H113	H	0.929180	-0.524387	-0.744515
H114	H	0.856953	-0.516979	-0.744463
C115	C	0.474366	-0.341891	-0.183618
H116	H	0.445474	-0.338365	-0.150013
H117	H	0.499913	-0.299230	-0.184510
H118	H	0.499865	-0.384055	-0.178017
H119	H	0.978288	-0.268704	-0.945003
H120	H	0.978283	-0.268650	-1.063711
C121	C	0.895108	-0.493387	-0.871176
H122	H	0.892137	-0.532887	-0.842316
H123	H	0.931013	-0.499845	-0.896729
H124	H	0.858787	-0.492422	-0.896675
H125	H	0.832808	-0.439457	-1.063606
C126	C	0.538882	-0.255351	-0.218133
H127	H	0.495228	-0.262097	-0.223871
H128	H	0.549653	-0.205923	-0.227377
H129	H	0.549552	-0.266054	-0.176013
C130	C	0.676291	-0.255377	-0.218086
H131	H	0.647430	-0.227302	-0.194273
H132	H	0.701871	-0.223362	-0.242093
H133	H	0.701762	-0.283494	-0.190731
H134	H	0.832812	-0.439515	-0.944895
H135	H	0.832791	-0.439669	-0.541255
H136	H	0.346534	-0.365000	-0.404594
