data_functionalizedCrystal
_audit_creation_method	'MofGen! by Chris Wilmer'
_symmetry_space_group_name_H-M	'P1'
_symmetry_Int_Tables_number	1
_symmetry_cell_setting	triclinic
loop_
_symmetry_equiv_pos_as_xyz
  x,y,z
_cell_length_a	12.759401
_cell_length_b	25.639239
_cell_length_c	25.639234
_cell_angle_alpha	90.024584
_cell_angle_beta	90.015038
_cell_angle_gamma	90.038847
loop_
_atom_site_label
_atom_site_type_symbol
_atom_site_fract_x
_atom_site_fract_y
_atom_site_fract_z
Zn1	Zn	1.606044	-0.208182	0.295575
Zn2	Zn	1.605876	-0.295610	0.208140
Zn3	Zn	1.430357	-0.208190	0.208158
Zn4	Zn	1.430261	-0.295589	0.295548
O5	O	1.518135	-0.251893	0.251855
O6	O	1.753043	-0.219785	0.283981
O7	O	1.582562	-0.284026	0.134977
O8	O	1.453773	-0.135024	0.219773
O9	O	1.752919	-0.284018	0.219742
O10	O	1.582850	-0.135018	0.283998
O11	O	1.453609	-0.219799	0.134990
O12	O	1.283323	-0.219779	0.219746
O13	O	1.453610	-0.283982	0.368717
O14	O	1.283253	-0.283990	0.283951
O15	O	1.582757	-0.219764	0.368737
O16	O	1.582470	-0.368772	0.219716
O17	O	1.453447	-0.368757	0.283934
C18	C	1.245167	-0.251883	0.251848
C19	C	1.128391	-0.251892	0.251858
C20	C	1.073520	-0.285380	0.285234
C21	C	0.963795	-0.285386	0.285240
C22	C	0.963823	-0.218415	0.218488
C23	C	1.073545	-0.218406	0.218485
C24	C	1.073503	-0.324047	0.323771
C25	C	0.963779	-0.324053	0.323776
C26	C	1.517958	-0.387735	0.251831
C27	C	1.517978	-0.445849	0.251839
C28	C	1.585492	-0.806208	0.218474
C29	C	1.585533	-0.860812	0.218481
O30	O	1.642752	-0.889045	0.190086
N31	N	1.518319	-0.888132	0.251890
C32	C	1.451068	-0.860844	0.285298
O33	O	1.393902	-0.889095	0.313716
C34	C	1.451033	-0.806241	0.285293
C35	C	1.518244	-0.778924	0.251878
C36	C	1.652698	-0.778891	0.185062
C37	C	1.652656	-0.724291	0.185054
C38	C	1.585407	-0.697007	0.218459
C39	C	1.518202	-0.724324	0.251871
C40	C	1.383788	-0.778954	0.318704
C41	C	1.383760	-0.724347	0.318696
C42	C	1.450970	-0.697030	0.285281
C43	C	1.450911	-0.642439	0.285268
N44	N	1.518125	-0.615120	0.251858
C45	C	1.585373	-0.642403	0.218454
C46	C	1.451147	-0.975515	0.285306
C47	C	1.451176	-1.030117	0.285309
C48	C	1.585642	-1.030081	0.218492
C49	C	1.585608	-0.975478	0.218487
C50	C	1.518361	-0.948195	0.251897
C51	C	1.585278	-0.527738	0.218440
C52	C	1.585227	-0.473133	0.218434
C53	C	1.450765	-0.473174	0.285253
C54	C	1.450812	-0.527774	0.285257
C55	C	1.518077	-0.555055	0.251849
O56	O	1.393724	-0.614172	0.313649
O57	O	1.642539	-0.614145	0.190045
C58	C	1.792168	-0.251903	0.251863
C59	C	1.908944	-0.251907	0.251866
C60	C	1.518192	-0.251870	0.388228
C61	C	1.518216	-0.251860	0.446342
C62	C	1.518341	-0.115520	0.251891
C63	C	1.518428	-0.057406	0.251906
C64	C	1.518138	-0.251878	0.116013
C65	C	1.518318	-0.251740	0.057899
C66	C	1.585389	-0.285260	0.697521
C67	C	1.585378	-0.285271	0.642917
O68	O	1.642443	-0.313726	0.614668
N69	N	1.518239	-0.251834	0.615616
C70	C	1.451098	-0.218389	0.642923
O71	O	1.393989	-0.189950	0.614687
C72	C	1.451105	-0.218381	0.697526
C73	C	1.518256	-0.251816	0.724824
C74	C	1.652534	-0.318692	0.724820
C75	C	1.652547	-0.318680	0.779420
C76	C	1.585414	-0.285236	0.806723
C77	C	1.518268	-0.251804	0.779425
C78	C	1.383960	-0.184939	0.724831
C79	C	1.383972	-0.184934	0.779438
C80	C	1.451123	-0.218368	0.806736
C81	C	1.451148	-0.218348	0.861328
N82	N	1.518287	-0.251784	0.888628
C83	C	1.585420	-0.285228	0.861326
C84	C	1.451088	-0.218409	0.528252
C85	C	1.451086	-0.218414	0.473650
C86	C	1.585365	-0.285296	0.473648
C87	C	1.585372	-0.285288	0.528251
C88	C	1.518228	-0.251845	0.555553
C89	C	1.585441	-0.285201	0.975991
C90	C	1.585451	-0.285184	1.030596
C91	C	1.451168	-0.218304	1.030593
C92	C	1.451163	-0.218318	0.975993
C93	C	1.518303	-0.251771	0.948693
O94	O	1.394109	-0.189909	0.889611
O95	O	1.642510	-0.313667	0.889568
H96	H	0.929788	-0.309608	0.362272
F97	F	1.656899	-0.320805	0.946944
H98	H	1.707225	-0.345908	0.801641
F99	F	0.924786	-0.376960	0.309492
F100	F	1.117927	-0.374306	0.304757
F101	F	1.379260	-0.556848	0.320811
F102	F	1.657213	-1.059128	0.182939
F103	F	1.657142	-0.946410	0.182923
H104	H	1.329001	-0.702136	0.345904
F105	F	1.656842	-0.320874	0.557299
H106	H	1.707204	-0.345928	0.702596
H107	H	1.640027	-0.312529	0.451408
F108	F	1.112475	-0.309945	0.376723
H109	H	1.396436	-1.052354	0.312514
H110	H	1.707387	-0.702052	0.157846
H111	H	0.919155	-0.191152	0.191318
F112	F	1.724281	-0.807920	0.149506
H113	H	1.639957	-0.450893	0.191222
F114	F	1.656869	-0.556765	0.182884
F115	F	1.131940	-0.182756	0.182970
H116	H	1.396008	-0.450951	0.312449
H117	H	1.396417	-0.191182	0.451428
H118	H	1.396378	-0.953304	0.312511
F119	F	1.379623	-0.182810	0.557304
F120	F	1.312261	-0.808015	0.354274
H121	H	1.396513	-0.191074	1.052833
H122	H	1.640138	-0.312411	1.052820
F123	F	1.312486	-0.149353	0.695791
H124	H	1.329294	-0.157700	0.801665
H125	H	1.396496	-0.191086	0.953766
