data_functionalizedCrystal
_audit_creation_method	'MofGen! by Chris Wilmer'
_symmetry_space_group_name_H-M	'P1'
_symmetry_Int_Tables_number	1
_symmetry_cell_setting	triclinic
loop_
_symmetry_equiv_pos_as_xyz
  x,y,z
_cell_length_a	12.645330
_cell_length_b	12.759401
_cell_length_c	12.759393
_cell_angle_alpha	89.981680
_cell_angle_beta	89.969748
_cell_angle_gamma	90.017704
loop_
_atom_site_label
_atom_site_type_symbol
_atom_site_fract_x
_atom_site_fract_y
_atom_site_fract_z
Zn1	Zn	-0.421974	1.606222	-0.594019
Zn2	Zn	-0.599279	1.606111	-0.418344
Zn3	Zn	-0.422030	1.430527	-0.418355
Zn4	Zn	-0.599196	1.430503	-0.593982
O5	O	-0.510620	1.518341	-0.506175
O6	O	-0.445506	1.753228	-0.570725
O7	O	-0.575824	1.582782	-0.271324
O8	O	-0.273675	1.453890	-0.441678
O9	O	-0.575770	1.753146	-0.441658
O10	O	-0.273634	1.582972	-0.570737
O11	O	-0.445600	1.453782	-0.271333
O12	O	-0.445520	1.283503	-0.441642
O13	O	-0.575629	1.453849	-0.741008
O14	O	-0.575683	1.283486	-0.570674
O15	O	-0.445425	1.582949	-0.741035
O16	O	-0.747615	1.582759	-0.441622
O17	O	-0.747555	1.453741	-0.570663
C18	C	-0.510600	1.245373	-0.506156
C19	C	-0.510617	1.128597	-0.506173
C20	C	-0.578513	0.964028	-0.573273
C21	C	-0.578499	1.073752	-0.573256
C22	C	-0.442751	1.073712	-0.439096
C23	C	-0.442771	0.963990	-0.439108
C24	C	-0.646392	0.909190	-0.640367
C25	C	-0.714259	0.964067	-0.707443
C26	C	-0.714246	1.073791	-0.707426
C27	C	-0.646365	1.128638	-0.640333
C28	C	-0.786050	1.518264	-0.506160
C29	C	-0.903880	1.518327	-0.506189
C30	C	-1.071450	1.437497	-0.587619
C31	C	-0.948890	1.437084	-0.587357
C32	C	-0.948484	1.488356	-0.395467
C33	C	-1.071083	1.487863	-0.395961
C34	C	-1.070966	1.629624	-0.534583
C35	C	-0.948359	1.628942	-0.537004
C36	C	-0.234115	1.518446	-0.506213
C37	C	-0.116285	1.518491	-0.506229
C38	C	-0.510512	1.518409	-0.780208
C39	C	-0.510466	1.518438	-0.896985
C40	C	-0.510641	1.792374	-0.506194
C41	C	-0.510650	1.909151	-0.506203
C42	C	-0.442646	1.451296	-0.951858
C43	C	-0.442614	1.451328	-1.061582
C44	C	-0.578226	1.585653	-1.061551
C45	C	-0.578262	1.585615	-0.951829
C46	C	-0.374850	1.384120	-0.897014
C47	C	-0.307023	1.316973	-0.951886
C48	C	-0.306992	1.317005	-1.061611
C49	C	-0.374787	1.384183	-1.116462
C50	C	-0.510651	1.518333	-0.233208
C51	C	-0.510398	1.518508	-0.116431
H52	H	-0.646365	1.217982	-0.640319
H53	H	-1.099776	1.406624	-0.371941
H54	H	-0.251771	1.262324	-1.106285
Cl55	Cl	-0.901236	1.364235	-0.357709
H56	H	-0.919332	1.545478	-0.333168
Cl57	Cl	-1.118572	1.671836	-0.657119
H58	H	-0.919201	1.651544	-0.618490
H59	H	-0.633473	1.640302	-0.907151
Cl60	Cl	-0.357417	1.142662	-0.354761
Cl61	Cl	-0.646409	0.771251	-0.640397
H62	H	-0.374758	1.384201	-1.205807
H63	H	-0.769531	0.919404	-0.762063
H64	H	-0.917714	1.692464	-0.482040
Cl65	Cl	-1.119182	1.311093	-0.559011
Cl66	Cl	-0.357463	0.894995	-0.354783
Cl67	Cl	-1.115752	1.722794	-0.443078
H68	H	-0.919657	1.354695	-0.568573
H69	H	-0.918728	1.455835	-0.669457
Cl70	Cl	-0.663444	1.670102	-1.130508
Cl71	Cl	-0.221803	1.232523	-0.882932
H72	H	-0.769514	1.118470	-0.762036
H73	H	-1.100854	1.456076	-0.669988
H74	H	-1.100746	1.544296	-0.333252
H75	H	-0.374866	1.384088	-0.807671
