data_functionalizedCrystal
_audit_creation_method	'MofGen! by Chris Wilmer'
_symmetry_space_group_name_H-M	'P1'
_symmetry_Int_Tables_number	1
_symmetry_cell_setting	triclinic
loop_
_symmetry_equiv_pos_as_xyz
  x,y,z
_cell_length_a	19.288864
_cell_length_b	23.532407
_cell_length_c	17.766277
_cell_angle_alpha	89.988964
_cell_angle_beta	89.976791
_cell_angle_gamma	82.992461
loop_
_atom_site_label
_atom_site_type_symbol
_atom_site_fract_x
_atom_site_fract_y
_atom_site_fract_z
O1	O	0.921134	0.071045	-0.062843
O2	O	0.718844	0.080629	-0.062793
O3	O	0.826089	-0.007082	-0.062806
O4	O	0.813889	0.158756	-0.062830
O5	O	0.826070	-0.007086	0.062383
O6	O	0.718825	0.080625	0.062396
O7	O	0.921115	0.071041	0.062345
Cu8	Cu	0.819968	0.075832	0.073801
Cu9	Cu	0.819991	0.075838	-0.074249
O10	O	0.813870	0.158752	0.062358
C11	C	0.692959	0.080319	-0.000192
C12	C	0.615858	0.079393	-0.000172
C13	C	0.571003	0.130858	-0.000191
C14	C	0.498559	0.129988	-0.000200
C15	C	0.470973	0.077651	-0.000203
C16	C	0.515838	0.026179	-0.000180
C17	C	0.588280	0.027050	-0.000164
C18	C	0.362844	0.036509	-0.044082
C19	C	0.290402	0.035640	-0.044102
C20	C	0.247535	0.074961	-0.000249
C21	C	0.277118	0.115162	0.043616
C22	C	0.349560	0.116033	0.043631
C23	C	0.392422	0.076700	-0.000220
C24	C	0.124127	0.125487	-0.000276
C25	C	0.051682	0.124615	-0.000279
C26	C	0.068962	0.020805	-0.000267
C27	C	0.141406	0.021678	-0.000256
C28	C	0.168984	0.074021	-0.000264
C29	C	0.825769	-0.028301	-0.000209
C30	C	0.824835	-0.091520	-0.000203
C31	C	0.882442	-0.490503	-0.000259
C32	C	0.881574	-0.549905	-0.000264
O33	O	0.934976	-0.586539	-0.000306
N34	N	0.817817	-0.572664	-0.000248
C35	C	0.754923	-0.536017	-0.000234
O36	O	0.700613	-0.560829	-0.000221
C37	C	0.755792	-0.476616	-0.000234
C38	C	0.819553	-0.453861	-0.000242
C39	C	0.946198	-0.467748	-0.000269
C40	C	0.947065	-0.408350	-0.000262
C41	C	0.884177	-0.371707	-0.000245
C42	C	0.820420	-0.394463	-0.000236
C43	C	0.692899	-0.439970	-0.000225
C44	C	0.693773	-0.380565	-0.000225
C45	C	0.757534	-0.357810	-0.000234
C46	C	0.758399	-0.298422	-0.000212
N47	N	0.822156	-0.275664	-0.000229
C48	C	0.885045	-0.312307	-0.000245
C49	C	0.753104	-0.660763	-0.000235
C50	C	0.752235	-0.720163	-0.000230
C51	C	0.878886	-0.734047	-0.000262
C52	C	0.879755	-0.674647	-0.000262
C53	C	0.816861	-0.638005	-0.000252
C54	C	0.886862	-0.187566	-0.000230
C55	C	0.887724	-0.128162	-0.000220
C56	C	0.761073	-0.114283	-0.000192
C57	C	0.760211	-0.173681	-0.000198
C58	C	0.823111	-0.210322	-0.000219
O59	O	0.705025	-0.261754	-0.000174
O60	O	0.939346	-0.287486	-0.000268
C61	C	0.947000	0.071351	-0.000257
C62	C	1.024101	0.072277	-0.000282
C63	C	0.814190	0.179971	-0.000240
C64	C	0.815124	0.243190	-0.000251
N65	N	0.819958	0.075828	0.177932
N66	N	0.820007	0.075837	-0.178379
C67	C	0.867461	0.037009	0.217313
C68	C	0.867465	0.037006	0.296115
C69	C	0.819973	0.075833	0.335532
C70	C	0.772460	0.114655	0.296142
C71	C	0.772453	0.114653	0.217341
C72	C	0.810514	0.127724	0.460364
C73	C	0.810526	0.127727	0.539163
C74	C	0.819991	0.075840	0.578579
C75	C	0.829459	0.023947	0.539186
C76	C	0.829452	0.023945	0.460385
C77	C	0.819975	0.075839	0.420978
C78	C	0.867501	0.037014	0.703406
C79	C	0.867501	0.037011	0.782209
C80	C	0.772499	0.114665	0.782234
C81	C	0.772496	0.114663	0.703433
C82	C	0.820001	0.075839	0.664023
H83	H	0.373643	0.148763	0.079350
N84	N	0.258498	-0.007718	-0.091406
H85	H	0.224984	0.012833	-0.128927
H86	H	0.296687	-0.032488	-0.119127
N87	N	0.189785	-0.033834	-0.000238
H88	H	0.180980	-0.056676	-0.046645
H89	H	0.239843	-0.025297	-0.000197
N90	N	0.800311	0.183694	0.581645
H91	H	0.757312	0.185022	0.614364
H92	H	0.842508	0.186958	0.614271
N93	N	0.486089	-0.030272	-0.000175
H94	H	0.433390	-0.023015	-0.000189
H95	H	0.502550	-0.052787	-0.046575
H96	H	0.146582	0.168107	-0.000271
H97	H	0.397741	0.004488	-0.079797
N98	N	0.839662	-0.032019	0.417897
H99	H	0.801219	-0.055684	0.431633
H100	H	0.838238	-0.024094	0.362012
H101	H	0.701886	-0.630931	-0.000220
H102	H	0.046503	-0.021810	-0.000317
H103	H	0.624802	-0.014860	-0.000149
N104	N	0.800306	0.183691	0.417855
H105	H	0.794317	0.216564	0.454765
H106	H	0.842476	0.186925	0.385138
H107	H	0.733827	0.146276	0.814328
N108	N	0.918702	-0.004862	0.338608
H109	H	0.910991	-0.045269	0.324916
H110	H	0.967927	0.001648	0.324851
H111	H	0.640978	-0.458486	-0.000222
N112	N	0.691442	-0.198229	-0.000178
H113	H	0.651735	-0.166000	-0.000164
H114	H	0.688331	-0.222559	-0.046592
N115	N	0.230894	0.157580	0.090915
H116	H	0.180513	0.150928	0.084254
H117	H	0.244415	0.152407	0.145625
H118	H	0.930094	-0.763893	-0.000279
N119	N	0.683465	-0.744702	-0.000200
H120	H	0.643760	-0.712471	-0.000186
H121	H	0.680344	-0.769037	-0.046609
N122	N	0.918743	-0.004856	0.824691
H123	H	0.949336	0.016854	0.857362
H124	H	0.892334	-0.030009	0.857365
H125	H	0.733790	0.146268	0.328239
N126	N	0.839678	-0.032025	0.581680
H127	H	0.797522	-0.035325	0.614397
H128	H	0.845696	-0.064857	0.544713
N129	N	0.003320	0.180138	-0.000255
H130	H	0.012167	0.202996	-0.046654
H131	H	-0.046745	0.171617	-0.000218
N132	N	0.450166	0.185497	-0.000232
H133	H	0.419695	0.187452	0.046167
H134	H	0.478677	0.218756	-0.000263
N135	N	0.600739	0.187314	-0.000201
H136	H	0.584327	0.209854	0.046198
H137	H	0.653434	0.180016	-0.000219
H138	H	0.938081	-0.217393	-0.000250
H139	H	0.939648	-0.109639	-0.000225
N140	N	0.625936	-0.341044	-0.000218
H141	H	0.585417	-0.364477	-0.000213
H142	H	0.623525	-0.316104	0.046194
H143	H	0.733817	0.146276	0.671366
N144	N	1.015837	-0.383812	-0.000274
H145	H	1.055539	-0.416045	-0.000287
H146	H	1.018966	-0.359462	-0.046683
N147	N	1.014034	-0.507264	-0.000286
H148	H	1.054548	-0.483826	-0.000291
H149	H	1.016426	-0.532216	0.046125
H150	H	0.931675	-0.656124	-0.000270
H151	H	0.709871	-0.084438	-0.000176
N152	N	0.721213	0.156522	0.174860
H153	H	0.691123	0.181118	0.211785
H154	H	0.747623	0.181645	0.142144
H155	H	0.906141	0.005394	0.185228
H156	H	0.906181	0.005399	0.671317
