data_functionalizedCrystal
_audit_creation_method	'MofGen! by Chris Wilmer'
_symmetry_space_group_name_H-M	'P1'
_symmetry_Int_Tables_number	1
_symmetry_cell_setting	triclinic
loop_
_symmetry_equiv_pos_as_xyz
  x,y,z
_cell_length_a	19.188933
_cell_length_b	17.666332
_cell_length_c	8.597304
_cell_angle_alpha	97.706266
_cell_angle_beta	84.246365
_cell_angle_gamma	90.007939
loop_
_atom_site_label
_atom_site_type_symbol
_atom_site_fract_x
_atom_site_fract_y
_atom_site_fract_z
O1	O	0.927754	0.075700	0.195947
O2	O	0.724659	0.077426	0.222320
O3	O	0.830202	0.061659	-0.019362
O4	O	0.822211	0.091467	0.437629
O5	O	0.830183	-0.064239	-0.019375
O6	O	0.724640	-0.048471	0.222307
O7	O	0.927735	-0.050198	0.195934
Cu8	Cu	0.826186	-0.060830	0.209119
Cu9	Cu	0.826208	0.088058	0.209135
O10	O	0.822192	-0.034431	0.437616
C11	C	0.698631	0.014423	0.221459
C12	C	0.621106	0.014258	0.218893
C13	C	0.067711	0.081682	0.200592
C14	C	0.140555	0.081842	0.202993
C15	C	0.176971	0.013294	0.204194
C16	C	0.140540	-0.055421	0.202953
C17	C	0.067698	-0.055580	0.200536
N18	N	0.286746	-0.031715	0.297287
N19	N	0.355943	-0.031560	0.299586
C20	C	0.396440	0.013768	0.211472
N21	N	0.365125	0.058946	0.120991
N22	N	0.295922	0.058793	0.118699
C23	C	0.255956	0.013458	0.206813
C24	C	0.511848	0.082650	0.215304
C25	C	0.584694	0.082806	0.217695
C26	C	0.584677	-0.054457	0.217671
C27	C	0.511834	-0.054612	0.215264
C28	C	0.475423	0.013944	0.214088
N29	N	0.826175	-0.165550	0.209108
C30	C	0.872925	-0.212138	0.102143
C31	C	0.872929	-0.291386	0.102136
C32	C	0.826190	-0.324042	0.209120
C33	C	0.779431	-0.277444	0.316092
C34	C	0.779424	-0.198198	0.316086
N35	N	0.818252	-0.439399	0.348046
N36	N	0.818263	-0.514679	0.348047
C37	C	0.826208	-0.562804	0.209142
N38	N	0.834156	-0.532806	0.070231
N39	N	0.834148	-0.457518	0.070232
C40	C	0.826193	-0.409970	0.209137
C41	C	0.872966	-0.695323	0.102160
C42	C	0.872965	-0.774572	0.102150
C43	C	0.779470	-0.760627	0.316121
C44	C	0.779467	-0.681380	0.316117
C45	C	0.826219	-0.648732	0.209138
C46	C	0.953762	0.012807	0.196795
C47	C	1.031288	0.012977	0.199361
C48	C	0.829333	-0.005102	-0.077834
C49	C	0.826765	-0.016460	-0.252044
N50	N	0.826224	0.192778	0.209134
C51	C	0.823061	0.032331	0.496088
C52	C	0.825628	0.043694	0.670298
H53	H	0.614349	0.138756	0.218686
O54	O	0.733969	-0.792314	0.419891
C55	C	0.613205	-0.810502	0.512589
C56	C	0.664661	-0.774586	0.394959
H57	H	0.557159	-0.796169	0.492494
H58	H	0.621177	-0.875153	0.494223
H59	H	0.623193	-0.786726	0.638224
H60	H	0.654704	-0.798302	0.269277
H61	H	0.656678	-0.709936	0.413462
H62	H	0.741374	-0.304036	0.403198
H63	H	0.741353	-0.160264	0.403191
O64	O	0.620130	-0.121012	0.218624
C65	C	0.709310	-0.209382	0.085342
C66	C	0.669221	-0.133983	0.084098
H67	H	0.748998	-0.219901	-0.023428
H68	H	0.737825	-0.205599	0.196199
H69	H	0.670742	-0.258498	0.084129
H70	H	0.707741	-0.084828	0.085253
H71	H	0.640695	-0.137831	-0.026751
H72	H	0.825766	-0.076658	-0.318840
H73	H	0.482202	0.138473	0.214342
O74	O	0.733992	-0.636097	0.419825
C75	C	0.638902	-0.544392	0.453773
C76	C	0.690353	-0.595653	0.336147
H77	H	0.603617	-0.511668	0.386167
H78	H	0.605445	-0.581306	0.530224
H79	H	0.669595	-0.502211	0.532026
H80	H	0.659717	-0.637842	0.257792
H81	H	0.723811	-0.558691	0.259806
H82	H	0.911031	-0.668741	0.015047
H83	H	0.170216	0.137792	0.204004
O84	O	0.826781	0.115561	-0.250268
C85	C	0.826596	0.250610	-0.267192
C86	C	0.825271	0.169263	-0.357352
H87	H	0.825391	0.294050	-0.353735
H88	H	0.778985	0.260005	-0.175889
H89	H	0.876447	0.257994	-0.205204
H90	H	0.775451	0.161822	-0.419435
H91	H	0.872916	0.159906	-0.448566
H92	H	0.038070	0.137506	0.199628
H93	H	0.910991	-0.185560	0.015032
O94	O	0.175999	-0.121973	0.203915
C95	C	0.265187	-0.210339	0.070651
C96	C	0.225095	-0.134942	0.069397
H97	H	0.304880	-0.220856	-0.038112
H98	H	0.293698	-0.206553	0.181515
H99	H	0.226622	-0.259457	0.069432
H100	H	0.263613	-0.085785	0.070558
H101	H	0.196573	-0.138793	-0.041458
O102	O	0.032417	-0.122386	0.199423
C103	C	0.040093	-0.258520	0.199552
C104	C	0.080135	-0.182915	0.200849
H105	H	0.078656	-0.307480	0.200671
H106	H	0.000369	-0.254915	0.308255
H107	H	0.011607	-0.269140	0.088645
H108	H	0.108662	-0.172248	0.311683
H109	H	0.119818	-0.186556	0.092072
H110	H	0.482177	-0.110559	0.214267
H111	H	0.911032	-0.812506	0.015039
H112	H	0.911000	-0.329325	0.015029
