data_functionalizedCrystal
_audit_creation_method	'MofGen! by Chris Wilmer'
_symmetry_space_group_name_H-M	'P1'
_symmetry_Int_Tables_number	1
_symmetry_cell_setting	triclinic
loop_
_symmetry_equiv_pos_as_xyz
  x,y,z
_cell_length_a	14.560438
_cell_length_b	14.809374
_cell_length_c	14.809374
_cell_angle_alpha	60.797835
_cell_angle_beta	90.001286
_cell_angle_gamma	67.427478
loop_
_atom_site_label
_atom_site_type_symbol
_atom_site_fract_x
_atom_site_fract_y
_atom_site_fract_z
Zr1	Zr	1.014447	0.955221	-0.203661
O2	O	0.901944	1.113140	-0.350821
O3	O	1.033008	0.777455	-0.145584
O4	O	1.070576	0.926603	-0.332123
O5	O	0.852859	0.993487	-0.031884
O6	O	1.221715	0.926606	-0.332121
O7	O	0.864376	0.963991	-0.164282
O8	O	1.154512	0.659807	0.001564
O9	O	0.920062	1.260286	-0.365569
O10	O	1.172960	0.857926	-0.136476
O11	O	1.051573	0.879936	-0.037671
O12	O	1.095804	1.055539	-0.257297
O13	O	0.974417	1.077549	-0.158491
Zr14	Zr	1.237129	1.002268	0.007502
Zr15	Zr	1.255496	0.955226	-0.203658
Zr16	Zr	0.996080	1.002263	0.007499
Zr17	Zr	1.043344	1.189903	-0.227182
Zr18	Zr	1.208232	0.767587	0.031022
O19	O	1.218568	1.180034	-0.050576
O20	O	1.244683	1.113147	-0.350817
O21	O	0.875828	1.180027	-0.050580
O22	O	1.349632	0.844349	0.154662
O23	O	1.375748	0.777462	-0.145579
O24	O	1.006893	0.844342	0.154658
O25	O	1.398716	0.964002	-0.164275
O26	O	1.181000	1.030886	0.135964
O27	O	1.029861	1.030883	0.135962
O28	O	1.387200	0.993498	-0.031877
O29	O	1.111663	1.260290	-0.365567
O30	O	1.139913	0.697199	0.169407
O31	O	1.331514	0.697203	0.169410
O32	O	1.346113	0.659811	0.001566
O33	O	0.905463	1.297678	-0.197725
O34	O	1.097064	1.297682	-0.197723
O35	O	1.155771	0.901950	0.061138
O36	O	1.277159	0.879940	-0.037668
O37	O	1.200003	1.077553	-0.158488
O38	O	1.078616	1.099563	-0.059683
C39	C	1.089643	0.685194	-0.068659
C40	C	1.077376	0.585566	-0.058673
C41	C	1.132123	0.530230	-0.103236
C42	C	1.119445	0.427258	-0.092917
C43	C	0.824273	0.978739	-0.098083
C44	C	0.721942	0.978737	-0.098085
C45	C	0.714138	0.875587	-0.035018
C46	C	0.617983	0.875595	-0.035010
C47	C	0.537441	1.081911	-0.161144
C48	C	0.633594	1.081903	-0.161145
C49	C	0.802486	0.772420	0.028043
C50	C	0.794686	0.669262	0.091114
C51	C	0.698531	0.669270	0.091122
C52	C	0.610176	0.772436	0.028059
C53	C	1.427303	0.978750	-0.098076
C54	C	1.529634	0.978753	-0.098075
C55	C	1.148762	0.919902	-0.362208
C56	C	1.156560	0.899932	-0.451850
C57	C	1.161933	1.272295	-0.127500
C58	C	1.174200	1.371923	-0.137486
C59	C	1.121761	0.989058	-0.551751
C60	C	1.129819	0.968419	-0.644403
C61	C	1.102814	1.037587	0.166049
C62	C	1.095016	1.057557	0.255691
C63	C	1.391158	0.685200	-0.068655
C64	C	1.481222	0.585574	-0.058668
C65	C	1.066669	0.744036	0.195470
C66	C	1.046604	0.664378	0.295097
C67	C	1.368183	0.744042	0.195473
C68	C	1.450450	0.664386	0.295103
C69	C	0.883393	1.213447	-0.391632
C70	C	0.801126	1.293103	-0.491262
C71	C	0.860418	1.272289	-0.127504
C72	C	0.770354	1.371915	-0.137491
C73	C	1.184907	1.213453	-0.391629
C74	C	1.204972	1.293111	-0.491257
C75	C	1.469127	0.527295	-0.105565
C76	C	1.553746	0.433694	-0.096202
C77	C	1.650457	0.398368	-0.039937
C78	C	1.662551	0.456657	0.006960
C79	C	1.577934	0.550261	-0.002409
C80	C	1.091571	0.638463	0.393470
C81	C	1.072715	0.563631	0.487087
C82	C	1.008897	0.514709	0.482331
C83	C	0.963925	0.540631	0.383948
C84	C	0.982776	0.615468	0.290332
C85	C	1.552456	0.615490	0.290314
C86	C	1.629766	0.540656	0.383917
C87	C	1.605067	0.514714	0.482308
C88	C	1.503051	0.563619	0.487093
C89	C	1.425744	0.638457	0.393491
C90	C	0.699121	1.342010	-0.486474
C91	C	0.621815	1.416873	-0.580080
C92	C	0.646515	1.442821	-0.678471
C93	C	0.748530	1.393910	-0.683256
C94	C	0.825835	1.319055	-0.589652
C95	C	0.782451	1.430202	-0.090604
C96	C	0.697837	1.523824	-0.099992
C97	C	0.601127	1.559152	-0.156261
C98	C	0.589032	1.500860	-0.203153
C99	C	0.673646	1.407245	-0.193771
C100	C	1.268795	1.342010	-0.486466
C101	C	1.287667	1.416847	-0.580068
C102	C	1.242710	1.442788	-0.678459
C103	C	1.178884	1.393880	-0.683247
C104	C	1.160018	1.319039	-0.589646
H105	H	0.880785	0.772402	0.028041
H106	H	1.059259	1.149148	-0.761254
Cl107	Cl	1.171806	0.699949	0.399477
H108	H	1.339636	1.456663	-0.576149
H109	H	1.482954	0.542485	0.567216
Cl110	Cl	1.297507	0.699912	0.399530
Cl111	Cl	1.583535	0.648095	0.166634
Cl112	Cl	1.266434	1.536882	-0.796122
H113	H	1.021121	0.556706	-0.012880
H114	H	1.188384	0.559081	-0.149023
H115	H	0.866628	0.585270	0.142463
Cl116	Cl	0.688725	0.539591	0.170421
H117	H	1.142284	1.415013	-0.763371
Cl118	Cl	0.668043	1.309407	-0.362794
Cl119	Cl	1.079768	1.257584	-0.595688
Cl120	Cl	0.493576	1.478342	-0.574039
Cl121	Cl	1.325327	1.309414	-0.362785
Cl122	Cl	1.211776	0.758529	-0.425692
H123	H	1.719349	0.322147	-0.032315
H124	H	1.063187	0.398403	-0.047120
H125	H	0.583558	1.503774	-0.754682
Cl126	Cl	1.066559	1.130460	-0.577910
Cl127	Cl	1.185038	0.827010	-0.618237
Cl128	Cl	0.643408	1.211580	-0.240428
Cl129	Cl	1.758005	0.479184	0.377876
H130	H	0.768630	1.415046	-0.763378
Cl131	Cl	1.347558	0.571686	-0.176310
H132	H	1.668025	0.453773	0.558517
H133	H	1.543879	0.386245	-0.134393
Cl134	Cl	1.784137	0.412229	0.077696
H135	H	1.587795	0.597702	0.035787
Cl136	Cl	0.489295	0.772444	0.028080
H137	H	0.908891	1.279232	-0.593562
H138	H	1.109345	0.542536	0.567185
Cl139	Cl	1.261073	0.416454	-0.208180
Cl140	Cl	0.494763	1.676841	-0.168043
Cl141	Cl	0.904022	1.385816	-0.019866
H142	H	0.707704	1.571272	-0.061801
Cl143	Cl	0.467444	1.545282	-0.273882
Cl144	Cl	0.985212	0.420627	0.600032
H145	H	0.465497	1.165903	-0.212488
H146	H	0.911963	0.500788	0.380092
H147	H	0.946159	0.636556	0.210238
H148	H	0.663782	1.359790	-0.231950
