data_functionalizedCrystal
_audit_creation_method	'MofGen! by Chris Wilmer'
_symmetry_space_group_name_H-M	'P1'
_symmetry_Int_Tables_number	1
_symmetry_cell_setting	triclinic
loop_
_symmetry_equiv_pos_as_xyz
  x,y,z
_cell_length_a	13.897449
_cell_length_b	11.169416
_cell_length_c	11.169409
_cell_angle_alpha	89.971992
_cell_angle_beta	89.977985
_cell_angle_gamma	90.006344
loop_
_atom_site_label
_atom_site_type_symbol
_atom_site_fract_x
_atom_site_fract_y
_atom_site_fract_z
Zn1	Zn	1.474799	-0.477669	-0.678649
Zn2	Zn	1.974799	0.022331	-0.178649
Zn3	Zn	1.474725	-0.678409	-0.477981
Zn4	Zn	1.974725	-0.178409	0.022019
Zn5	Zn	1.313485	-0.477743	-0.477976
Zn6	Zn	1.813485	0.022257	0.022024
Zn7	Zn	1.313506	-0.678313	-0.678618
Zn8	Zn	1.813506	-0.178313	-0.178618
O9	O	1.394129	-0.578034	-0.578306
O10	O	1.894129	-0.078034	-0.078306
O11	O	1.609771	-0.504307	-0.652045
O12	O	2.109771	-0.004307	-0.152045
O13	O	1.453297	-0.651862	-0.310031
O14	O	1.953297	-0.151862	0.189969
O15	O	1.334906	-0.309784	-0.504606
O16	O	1.834906	0.190216	-0.004606
O17	O	1.609717	-0.651790	-0.504615
O18	O	2.109717	-0.151790	-0.004615
O19	O	1.453423	-0.309729	-0.652040
O20	O	1.953423	0.190271	-0.152040
O21	O	1.334834	-0.504434	-0.310027
O22	O	1.834834	-0.004434	0.189973
O23	O	1.178506	-0.504340	-0.504576
O24	O	1.678506	-0.004340	-0.004576
O25	O	1.334942	-0.651626	-0.846572
O26	O	1.834942	-0.151626	-0.346572
O27	O	1.178521	-0.651698	-0.651988
O28	O	1.678521	-0.151698	-0.151988
O29	O	1.453443	-0.504213	-0.846595
O30	O	1.953443	-0.004213	-0.346595
O31	O	1.453317	-0.846346	-0.504585
O32	O	1.953317	-0.346346	-0.004585
O33	O	1.334870	-0.846276	-0.651993
O34	O	1.834870	-0.346276	-0.151993
C35	C	1.143515	-0.578018	-0.578279
C36	C	1.643515	-0.078018	-0.078279
C37	C	1.036301	-0.578040	-0.578295
C38	C	1.536301	-0.078040	-0.078295
C39	C	1.394114	-0.889858	-0.578313
C40	C	1.894114	-0.389858	-0.078313
C41	C	1.394196	-1.023258	-0.578355
C42	C	1.894196	-0.523258	-0.078355
C43	C	1.394203	-0.577900	-0.891349
C44	C	1.894203	-0.077900	-0.391349
C45	C	1.394235	-0.577844	-1.024749
C46	C	1.894235	-0.077844	-0.524749
C47	C	0.840006	-0.578044	-0.578327
C48	C	1.340006	-0.078044	-0.078327
C49	C	0.949238	-0.578038	-0.578306
C50	C	1.449238	-0.078038	-0.078306
C51	C	1.645722	-0.578051	-0.578334
C52	C	2.145722	-0.078051	-0.078334
C53	C	1.752936	-0.578058	-0.578346
C54	C	2.252936	-0.078058	-0.078346
C55	C	1.394170	-0.264991	-0.578326
C56	C	1.894170	0.235009	-0.078326
C57	C	1.394188	-0.131591	-0.578334
C58	C	1.894188	0.368409	-0.078334
C59	C	1.394111	-0.578080	-0.266481
C60	C	1.894111	-0.078080	0.233519
C61	C	1.394266	-0.577799	-0.133082
C62	C	1.894266	-0.077799	0.366918
