data_functionalizedCrystal
_audit_creation_method	'MofGen! by Chris Wilmer'
_symmetry_space_group_name_H-M	'P1'
_symmetry_Int_Tables_number	1
_symmetry_cell_setting	triclinic
loop_
_symmetry_equiv_pos_as_xyz
  x,y,z
_cell_length_a	9.065215
_cell_length_b	11.804499
_cell_length_c	9.065218
_cell_angle_alpha	103.134236
_cell_angle_beta	85.015291
_cell_angle_gamma	103.127647
loop_
_atom_site_label
_atom_site_type_symbol
_atom_site_fract_x
_atom_site_fract_y
_atom_site_fract_z
O1	O	1.987335	0.099007	0.243286
O2	O	1.558051	0.099012	0.261038
O3	O	1.781566	0.099007	0.037519
O4	O	1.763821	0.099012	0.466805
O5	O	1.727673	-0.099046	-0.016398
O6	O	1.504158	-0.099041	0.207121
O7	O	1.933442	-0.099046	0.189369
Cu8	Cu	1.713880	-0.117127	0.193322
Cu9	Cu	1.777614	0.117093	0.257085
O10	O	1.709928	-0.099041	0.412888
C11	C	1.476118	-0.000014	0.232375
C12	C	1.312276	-0.000012	0.227278
N13	N	1.669063	-0.281865	0.148474
C14	C	1.930075	-0.655828	0.409643
C15	C	1.963972	-0.531169	0.443591
C16	C	1.890248	-0.468837	0.369814
C17	C	1.782621	-0.531177	0.262084
C18	C	1.748712	-0.655849	0.228140
C19	C	1.708885	-0.468857	0.188312
C20	C	1.601257	-0.531197	0.080582
C21	C	1.567355	-0.655857	0.046643
C22	C	1.641079	-0.718189	0.120420
C23	C	1.742793	-0.344185	0.222255
C24	C	1.561430	-0.344205	0.040753
C25	C	1.527533	-0.468865	0.006805
C26	C	2.015376	-0.000017	0.218033
C27	C	2.179221	-0.000011	0.223133
C28	C	1.752914	-0.000017	-0.044426
C29	C	1.747816	-0.000012	-0.208267
N30	N	1.822443	0.281832	0.301922
C31	C	1.738580	-0.000014	0.494834
C32	C	1.743680	-0.000011	0.658677
H33	H	1.830421	-0.293440	0.309972
H34	H	1.501392	-0.293455	-0.019318
C35	C	1.448973	-0.724428	-0.071860
H36	H	1.409933	-0.669455	-0.110952
H37	H	1.368638	-0.773071	-0.025597
H38	H	1.495334	-0.773048	-0.152165
C39	C	1.927587	-0.331714	0.407102
H40	H	2.002267	-0.303514	0.481804
H41	H	1.838459	-0.303478	0.444544
H42	H	1.965121	-0.303552	0.317942
H43	H	1.990083	-0.706591	0.469707
C44	C	2.082358	-0.462598	0.562074
H45	H	2.091984	-0.379426	0.571732
H46	H	2.177394	-0.483020	0.530508
H47	H	2.050718	-0.483031	0.657095
C48	C	1.603792	-0.855316	0.083082
H49	H	1.663114	-0.883504	0.142454
H50	H	1.625960	-0.883516	-0.021404
H51	H	1.499293	-0.883527	0.105193
C52	C	1.409124	-0.537441	-0.111669
H53	H	1.370069	-0.482473	-0.150754
H54	H	1.328804	-0.586075	-0.065375
H55	H	1.455459	-0.586072	-0.191983
