data_functionalizedCrystal
_audit_creation_method	'MofGen! by Chris Wilmer'
_symmetry_space_group_name_H-M	'P1'
_symmetry_Int_Tables_number	1
_symmetry_cell_setting	triclinic
loop_
_symmetry_equiv_pos_as_xyz
  x,y,z
_cell_length_a	8.965430
_cell_length_b	14.971486
_cell_length_c	14.971486
_cell_angle_alpha	96.385871
_cell_angle_beta	89.999789
_cell_angle_gamma	90.001143
loop_
_atom_site_label
_atom_site_type_symbol
_atom_site_fract_x
_atom_site_fract_y
_atom_site_fract_z
O1	O	0.123869	-1.186945	0.116556
O2	O	0.123909	-0.926544	0.130515
O3	O	0.123877	-1.063724	-0.006665
O4	O	0.123901	-1.049765	0.253735
O5	O	-0.124202	-1.063712	-0.006656
O6	O	-0.124170	-0.926533	0.130524
O7	O	-0.124210	-1.186933	0.116565
Cu8	Cu	-0.146842	-1.056732	0.123545
Cu9	Cu	0.146540	-1.056746	0.123535
O10	O	-0.124178	-1.049753	0.253745
C11	C	-0.000125	-0.893214	0.129895
C12	C	-0.000110	-0.793917	0.128024
N13	N	-0.353191	-1.056729	0.123552
C14	C	-0.000162	-1.063094	-0.039985
C15	C	-0.000160	-1.061223	-0.139282
C16	C	-0.450482	-0.993268	0.186973
C17	C	-0.549907	-1.074114	0.204415
C18	C	-0.549893	-0.975917	0.106117
C19	C	-0.450426	-1.137615	0.141035
C20	C	-0.450405	-1.039365	0.042702
C21	C	-0.549785	-1.120269	0.060111
N22	N	0.352890	-1.056756	0.123520
C23	C	-0.000173	-1.220263	0.117185
C24	C	-0.000178	-1.319561	0.119056
C25	C	-0.000105	-0.736692	0.208614
C26	C	-0.000127	-0.643392	0.206850
C27	C	-0.000144	-0.607320	0.124497
C28	C	-0.000154	-0.664552	0.043902
C29	C	-0.000142	-0.757850	0.045666
C30	C	-0.000174	-0.470090	0.040231
C31	C	-0.000183	-0.376786	0.038466
C32	C	-0.000160	-0.355632	0.201415
C33	C	-0.000148	-0.448930	0.203179
C34	C	-0.000155	-0.506156	0.122584
C35	C	-0.000174	-1.141812	-0.196507
C36	C	-0.000158	-1.140049	-0.289807
C37	C	-0.000140	-1.057696	-0.325879
C38	C	-0.000122	-0.977101	-0.268646
C39	C	-0.000127	-0.978865	-0.175349
C40	C	-0.000116	-0.973430	-0.463109
C41	C	-0.000114	-0.971665	-0.556413
C42	C	-0.000148	-1.134614	-0.577567
C43	C	-0.000152	-1.136378	-0.484269
C44	C	-0.000137	-1.055782	-0.427043
C45	C	-0.000136	-1.050384	0.287065
C46	C	-0.000128	-1.052254	0.386362
H47	H	-0.406881	-0.939651	0.240654
Cl48	Cl	-0.000254	-0.331439	-0.065065
H49	H	-0.000121	-0.596802	0.272474
Cl50	Cl	-0.000168	-1.239909	-0.438922
Cl51	Cl	-0.000154	-0.283691	0.302736
H52	H	-0.593589	-0.907565	0.091385
H53	H	-0.000120	-0.478296	0.270239
H54	H	-0.593612	-1.088820	0.272774
Cl55	Cl	-0.000186	-0.542030	-0.061092
Cl56	Cl	-0.000184	-0.619204	-0.059629
Cl57	Cl	-0.000155	-0.829791	-0.055651
Cl58	Cl	-0.000093	-0.868134	-0.601760
H59	H	-0.000090	-0.766054	0.275675
Cl60	Cl	-0.383263	-1.243172	0.163906
Cl61	Cl	-0.000212	-1.245348	-0.151169
H62	H	-0.000100	-0.907800	-0.416517
H63	H	-0.000173	-1.205673	-0.336396
H64	H	-0.000156	-1.200238	-0.624165
H65	H	-0.593112	-1.174006	0.006461
H66	H	-0.000098	-0.910047	-0.298024
H67	H	-0.406665	-1.024634	-0.025635
H68	H	-0.000115	-0.913240	-0.128756
