data_functionalizedCrystal
_audit_creation_method	'MofGen! by Chris Wilmer'
_symmetry_space_group_name_H-M	'P1'
_symmetry_Int_Tables_number	1
_symmetry_cell_setting	triclinic
loop_
_symmetry_equiv_pos_as_xyz
  x,y,z
_cell_length_a	16.992694
_cell_length_b	16.053919
_cell_length_c	16.992695
_cell_angle_alpha	87.291003
_cell_angle_beta	90.668223
_cell_angle_gamma	87.284492
loop_
_atom_site_label
_atom_site_type_symbol
_atom_site_fract_x
_atom_site_fract_y
_atom_site_fract_z
O1	O	-1.053991	0.069324	-0.170043
O2	O	-0.825592	0.069349	-0.168213
O3	O	-0.938876	0.069330	-0.054928
O4	O	-0.940708	0.069343	-0.283328
O5	O	-0.932574	-0.069526	-0.048661
O6	O	-0.819291	-0.069508	-0.161946
O7	O	-1.047690	-0.069532	-0.163776
Zn8	Zn	-0.932490	-0.091566	-0.161866
Zn9	Zn	-0.940792	0.091383	-0.170123
O10	O	-0.934406	-0.069513	-0.277062
C11	C	-0.793082	-0.000076	-0.162724
C12	C	-0.705597	-0.000067	-0.155696
C13	C	-0.933369	-0.000098	-0.022434
C14	C	-0.926341	-0.000097	0.065050
N15	N	-0.926829	-0.216424	-0.156231
C16	C	-1.080201	-0.000105	-0.169265
C17	C	-1.167685	-0.000109	-0.176294
C18	C	-0.659607	-0.000064	-0.223514
C19	C	-0.577405	-0.000076	-0.216904
C20	C	-0.541197	-0.000085	-0.142476
C21	C	-0.587193	-0.000091	-0.074653
C22	C	-0.669393	-0.000085	-0.081263
C23	C	-0.295881	-0.000109	-0.115081
C24	C	-0.213676	-0.000112	-0.108476
C25	C	-0.203893	-0.000099	-0.250728
C26	C	-0.286095	-0.000088	-0.257332
C27	C	-0.332084	-0.000098	-0.189508
N28	N	-0.457174	-0.000094	-0.135719
N29	N	-0.416105	-0.000094	-0.196266
C30	C	-0.897707	-0.740046	-0.126975
C31	C	-0.901663	-0.652640	-0.130947
C32	C	-0.954368	-0.608950	-0.183701
C33	C	-1.003125	-0.652669	-0.232479
C34	C	-0.999172	-0.740073	-0.228503
C35	C	-0.971634	-0.347547	-0.201034
C36	C	-0.975581	-0.260138	-0.205008
C37	C	-0.874120	-0.260115	-0.103475
C38	C	-0.870168	-0.347520	-0.099506
C39	C	-0.918928	-0.391232	-0.148282
N40	N	-0.958412	-0.519608	-0.187764
N41	N	-0.914888	-0.480572	-0.144214
N42	N	-0.946459	0.216241	-0.175752
C43	C	-0.939913	-0.000084	-0.309555
C44	C	-0.946942	-0.000079	-0.397040
C45	C	-0.994158	-0.000105	0.111042
C46	C	-0.987550	-0.000096	0.193242
C47	C	-0.913123	-0.000086	0.229450
C48	C	-0.845300	-0.000075	0.183452
C49	C	-0.851910	-0.000078	0.101253
C50	C	-0.885729	-0.000071	0.474763
C51	C	-0.879124	-0.000071	0.556969
C52	C	-1.021375	-0.000091	0.566753
C53	C	-1.027977	-0.000099	0.484552
C54	C	-0.960155	-0.000083	0.438561
N55	N	-0.906366	-0.000079	0.313472
N56	N	-0.966913	-0.000084	0.354541
H57	H	-0.689081	-0.000056	-0.284121
H58	H	-0.315571	-0.000071	-0.317939
Br59	Br	-0.807950	-0.200788	-0.037281
H60	H	-0.830503	-0.000059	0.437328
H61	H	-1.046042	-0.617090	-0.275429
Br62	Br	-0.835473	-0.593318	-0.064771
H63	H	-1.018499	-0.224567	-0.247972
Br64	Br	-0.514992	-0.000069	-0.308948
H65	H	-1.054765	-0.000119	0.081568
Br66	Br	-0.164535	-0.000142	-0.007459
H67	H	-0.796685	-0.000071	0.063808
H68	H	-1.011337	-0.383127	-0.240751
H69	H	-1.038872	-0.775663	-0.268222
Br70	Br	-0.141476	-0.000086	-0.342769
H71	H	-0.818513	-0.000076	0.586447
Br72	Br	-0.744291	-0.000046	0.232590
H73	H	-0.557705	-0.000110	-0.014051
H74	H	-0.333316	-0.000118	-0.059854
Br75	Br	-1.079593	-0.000107	0.255656
Br76	Br	-0.731810	-0.000096	0.010780
Br77	Br	-0.826170	-0.799331	-0.055384
H78	H	-0.827251	-0.383087	-0.056548
H79	H	-1.076592	-0.000102	0.604207
H80	H	-1.088584	-0.000108	0.455078
