data_functionalizedCrystal
_audit_creation_method	'MofGen! by Chris Wilmer'
_symmetry_space_group_name_H-M	'P1'
_symmetry_Int_Tables_number	1
_symmetry_cell_setting	triclinic
loop_
_symmetry_equiv_pos_as_xyz
  x,y,z
_cell_length_a	21.395362
_cell_length_b	12.645330
_cell_length_c	21.395355
_cell_angle_alpha	89.987670
_cell_angle_beta	89.956060
_cell_angle_gamma	90.033572
loop_
_atom_site_label
_atom_site_type_symbol
_atom_site_fract_x
_atom_site_fract_y
_atom_site_fract_z
Zn1	Zn	0.957916	-0.421713	-0.354613
Zn2	Zn	0.957842	-0.598962	-0.249846
Zn3	Zn	0.853131	-0.421762	-0.249814
Zn4	Zn	0.853124	-0.598984	-0.354551
O5	O	0.905503	-0.510355	-0.302206
O6	O	1.045584	-0.445196	-0.340754
O7	O	0.943924	-0.575468	-0.162164
O8	O	0.867065	-0.273408	-0.263728
O9	O	1.045530	-0.575420	-0.263783
O10	O	0.944050	-0.273372	-0.340723
O11	O	0.866993	-0.445280	-0.162140
O12	O	0.765452	-0.445301	-0.263668
O13	O	0.867053	-0.575457	-0.442237
O14	O	0.765447	-0.575505	-0.340618
O15	O	0.944043	-0.445217	-0.442282
O16	O	0.943918	-0.747312	-0.263724
O17	O	0.866981	-0.747328	-0.340650
C18	C	0.742716	-0.510411	-0.302133
C19	C	0.673074	-0.510461	-0.302117
C20	C	0.640375	-0.578348	-0.342125
C21	C	0.574940	-0.578322	-0.342153
C22	C	0.542206	-0.510420	-0.302162
C23	C	0.574913	-0.442520	-0.262151
C24	C	0.640348	-0.442540	-0.262129
C25	C	0.438480	-0.501880	-0.245756
C26	C	0.373047	-0.501867	-0.245777
C27	C	0.340386	-0.510351	-0.302231
C28	C	0.373165	-0.518870	-0.358665
C29	C	0.438599	-0.518890	-0.358643
C30	C	0.471254	-0.510390	-0.302182
C31	C	0.236734	-0.578213	-0.342272
C32	C	0.171297	-0.578180	-0.342301
C33	C	0.171272	-0.442383	-0.262294
C34	C	0.236707	-0.442411	-0.262271
C35	C	0.269434	-0.510332	-0.302259
C36	C	0.905458	-0.785785	-0.302197
C37	C	0.905495	-0.903615	-0.302214
C38	C	0.857295	-1.071233	-0.350758
C39	C	0.857048	-0.948674	-0.350602
C40	C	0.887617	-0.948193	-0.236177
C41	C	0.887323	-1.070792	-0.236472
C42	C	0.971870	-1.070679	-0.319173
C43	C	0.971463	-0.948073	-0.320616
C44	C	1.068927	-0.510300	-0.302279
C45	C	1.138568	-0.510276	-0.302311
C46	C	0.905555	-0.510334	-0.465629
C47	C	0.905578	-0.510325	-0.535271
C48	C	0.905566	-0.233850	-0.302228
C49	C	0.905593	-0.116020	-0.302238
C50	C	0.945665	-0.442506	-0.568008
C51	C	0.945664	-0.442460	-0.633444
C52	C	0.905582	-0.510252	-0.666139
C53	C	0.865488	-0.578076	-0.633393
C54	C	0.865485	-0.578112	-0.567959
C55	C	0.900619	-0.605707	-0.769809
C56	C	0.900626	-0.605673	-0.835242
C57	C	0.905586	-0.510140	-0.867960
C58	C	0.910553	-0.414639	-0.835237
C59	C	0.910550	-0.414676	-0.769803
C60	C	0.905580	-0.510220	-0.737091
C61	C	0.945675	-0.442266	-0.971650
C62	C	0.945669	-0.442219	-1.037087
C63	C	0.865496	-0.577844	-1.037035
C64	C	0.865498	-0.577882	-0.971600
C65	C	0.905591	-0.510095	-0.938911
C66	C	0.905488	-0.510300	-0.139418
C67	C	0.905587	-0.510011	-0.069778
H68	H	0.465285	-0.525824	-0.404593
H69	H	0.263381	-0.633513	-0.374837
H70	H	0.144674	-0.633460	-0.374884
H71	H	0.921680	-0.919005	-0.199037
H72	H	0.978317	-0.387064	-0.945034
H73	H	0.839674	-0.917599	-0.221575
N74	N	0.826547	-1.106833	-0.218491
N75	N	0.815340	-1.203724	-0.215460
H76	H	0.772415	-1.229176	-0.202762
N77	N	0.541538	-0.647675	-0.383027
N78	N	0.570766	-0.708308	-0.418728
H79	H	0.547179	-0.757290	-0.447595
N80	N	0.915621	-0.317143	-0.736366
N81	N	0.960376	-0.302303	-0.699881
H82	H	0.963955	-0.233420	-0.676265
H83	H	0.978306	-0.387228	-0.660104
N84	N	1.018994	-0.909612	-0.279517
N85	N	1.074566	-0.937085	-0.287318
H86	H	1.108134	-0.909924	-0.258287
H87	H	0.832838	-0.633337	-0.541305
H88	H	0.984945	-0.918934	-0.369216
H89	H	0.914593	-0.336848	-0.861874
N90	N	0.673762	-0.373212	-0.221256
N91	N	0.732185	-0.373247	-0.221238
H92	H	0.755786	-0.324285	-0.192370
N93	N	0.673794	-0.647730	-0.382975
N94	N	0.644585	-0.708339	-0.418695
H95	H	0.668187	-0.757340	-0.447547
N96	N	0.471850	-0.493230	-0.188090
N97	N	0.530272	-0.493256	-0.188077
H98	H	0.553840	-0.487149	-0.147353
N99	N	0.986622	-0.373260	-0.534628
N100	N	1.022413	-0.312712	-0.563872
H101	H	1.051340	-0.263806	-0.540297
H102	H	0.548258	-0.387232	-0.229591
H103	H	0.144621	-0.387091	-0.229735
H104	H	0.896413	-0.683481	-0.743176
N105	N	0.929525	-1.107951	-0.189559
N106	N	0.959098	-1.043336	-0.156703
H107	H	0.988896	-1.069574	-0.123565
H108	H	0.263332	-0.387135	-0.229689
H109	H	0.978312	-0.386986	-1.063741
N110	N	0.339577	-0.493180	-0.188128
N111	N	0.368745	-0.485595	-0.137728
H112	H	0.345108	-0.479462	-0.097010
N113	N	0.824551	-0.647077	-1.070434
N114	N	0.824555	-0.647032	-1.128857
H115	H	0.795634	-0.695925	-1.152448
H116	H	0.832859	-0.633114	-0.944945
N117	N	1.017005	-1.107005	-0.274835
N118	N	1.000518	-1.166027	-0.230938
H119	H	1.032390	-1.191686	-0.199621
H120	H	0.868234	-0.918533	-0.399567
H121	H	0.832851	-0.633270	-0.660018
N122	N	0.895512	-0.703222	-0.868655
N123	N	0.891044	-0.788506	-0.839437
H124	H	0.887415	-0.857402	-0.863033
N125	N	0.871235	-1.108077	-0.412393
N126	N	0.916925	-1.167781	-0.421281
H127	H	0.926784	-1.193782	-0.464816
H128	H	0.808467	-1.102153	-0.339680
N129	N	0.992343	-1.109372	-0.378554
N130	N	1.041632	-1.161980	-0.382488
H131	H	1.056088	-1.189307	-0.424427
N132	N	0.339817	-0.527574	-0.416338
N133	N	0.303285	-0.603317	-0.425047
H134	H	0.279733	-0.609476	-0.465778
N135	N	0.795407	-0.912030	-0.336527
N136	N	0.752437	-0.977001	-0.326784
H137	H	0.708900	-0.951124	-0.316842
