data_functionalizedCrystal
_audit_creation_method	'MofGen! by Chris Wilmer'
_symmetry_space_group_name_H-M	'P1'
_symmetry_Int_Tables_number	1
_symmetry_cell_setting	triclinic
loop_
_symmetry_equiv_pos_as_xyz
  x,y,z
_cell_length_a	19.077105
_cell_length_b	21.295417
_cell_length_c	19.076919
_cell_angle_alpha	87.733380
_cell_angle_beta	89.923776
_cell_angle_gamma	87.726672
loop_
_atom_site_label
_atom_site_type_symbol
_atom_site_fract_x
_atom_site_fract_y
_atom_site_fract_z
Zn1	Zn	1.058236	-0.304534	0.440387
Zn2	Zn	1.558236	0.195466	0.940387
Zn3	Zn	1.062864	-0.405747	0.322870
Zn4	Zn	1.562864	0.094253	0.822870
Zn5	Zn	0.945454	-0.296102	0.318181
Zn6	Zn	1.445454	0.203898	0.818181
Zn7	Zn	0.940686	-0.405368	0.435623
Zn8	Zn	1.440686	0.094632	0.935623
O9	O	1.001810	-0.352938	0.379265
O10	O	1.501810	0.147062	0.879265
O11	O	1.157181	-0.321649	0.428754
O12	O	1.657181	0.178351	0.928754
O13	O	1.051222	-0.387832	0.223917
O14	O	1.551222	0.112168	0.723917
O15	O	0.960474	-0.209134	0.334424
O16	O	1.460474	0.290866	0.834424
O17	O	1.160581	-0.396009	0.342415
O18	O	1.660581	0.103991	0.842415
O19	O	1.043334	-0.215330	0.424208
O20	O	1.543334	0.284670	0.924208
O21	O	0.964962	-0.307276	0.220472
O22	O	1.464962	0.192724	0.720472
O23	O	0.846490	-0.306908	0.329804
O24	O	1.346490	0.193092	0.829804
O25	O	0.952346	-0.395362	0.534586
O26	O	1.452346	0.104638	1.034586
O27	O	0.842987	-0.387185	0.416088
O28	O	1.342987	0.112815	0.916088
O29	O	1.038710	-0.321280	0.538086
O30	O	1.538710	0.178720	1.038086
O31	O	1.046598	-0.493783	0.337795
O32	O	1.546598	0.006217	0.837795
O33	O	0.956834	-0.493504	0.420634
O34	O	1.456834	0.006496	0.920634
C35	C	0.819242	-0.346091	0.371921
C36	C	1.319242	0.153909	0.871921
C37	C	0.741139	-0.343178	0.368795
C38	C	1.241139	0.156822	0.868795
C39	C	0.702642	-0.383663	0.412179
C40	C	1.202642	0.116337	0.912179
C41	C	0.629255	-0.380918	0.409246
C42	C	1.129255	0.119082	0.909246
C43	C	0.594366	-0.337689	0.362924
C44	C	1.094366	0.162311	0.862924
C45	C	0.632868	-0.297199	0.319538
C46	C	1.132868	0.202801	0.819538
C47	C	0.706253	-0.299942	0.322476
C48	C	1.206253	0.200058	0.822476
C49	C	0.375080	-0.324994	0.349333
C50	C	0.875080	0.175006	0.849333
C51	C	0.301690	-0.322256	0.346397
C52	C	0.801690	0.177744	0.846397
C53	C	0.298082	-0.405974	0.436106
C54	C	0.798082	0.094026	0.936106
C55	C	0.371470	-0.408715	0.439037
C56	C	0.871470	0.091285	0.939037
C57	C	0.409965	-0.368223	0.395653
C58	C	0.909965	0.131777	0.895653
N59	N	0.519353	-0.334883	0.359923
N60	N	1.019353	0.165117	0.859923
N61	N	0.484976	-0.371027	0.398658
N62	N	0.984976	0.128973	0.898658
C63	C	1.001719	-0.516485	0.379223
C64	C	1.501719	-0.016485	0.879223
C65	C	1.001744	-0.586454	0.379231
C66	C	1.501744	-0.086454	0.879231
C67	C	1.048522	-0.619448	0.336144
C68	C	1.548522	-0.119448	0.836144
C69	C	1.048554	-0.685192	0.336161
C70	C	1.548554	-0.185192	0.836161
C71	C	1.001796	-0.717939	0.379257
C72	C	1.501796	-0.217939	0.879257
C73	C	0.955015	-0.684937	0.422352
C74	C	1.455015	-0.184937	0.922352
C75	C	0.954989	-0.619195	0.422339
C76	C	1.454989	-0.119195	0.922339
N77	N	0.940111	-0.819089	0.382141
N78	N	1.440111	-0.319089	0.882141
N79	N	0.940138	-0.881541	0.382149
N80	N	1.440138	-0.381541	0.882149
C81	C	1.001873	-0.916018	0.379300
C82	C	1.501873	-0.416018	0.879300
N83	N	1.063583	-0.885683	0.376429
N84	N	1.563583	-0.385683	0.876429
N85	N	1.063555	-0.823224	0.376417
N86	N	1.563555	-0.323224	0.876417
C87	C	1.001820	-0.789226	0.379276
C88	C	1.501820	-0.289226	0.879276
C89	C	1.048690	-1.020300	0.336230
C90	C	1.548690	-0.520300	0.836230
C91	C	1.048724	-1.086046	0.336252
C92	C	1.548724	-0.586046	0.836252
C93	C	0.955178	-1.085789	0.422439
C94	C	1.455178	-0.585789	0.922439
C95	C	0.955151	-1.020045	0.422421
C96	C	1.455151	-0.520045	0.922421
C97	C	1.001906	-0.987304	0.379313
C98	C	1.501906	-0.487304	0.879313
C99	C	1.185090	-0.359812	0.386639
C100	C	1.685090	0.140188	0.886639
C101	C	1.263193	-0.362741	0.389782
C102	C	1.763193	0.137259	0.889782
C103	C	0.994480	-0.359220	0.562545
C104	C	1.494480	0.140780	1.062545
C105	C	0.991356	-0.361897	0.640648
C106	C	1.491356	0.138103	1.140648
C107	C	1.001919	-0.188754	0.379324
C108	C	1.501919	0.311246	0.879324
C109	C	1.001966	-0.118788	0.379349
C110	C	1.501966	0.381212	0.879349
C111	C	1.009152	-0.346637	0.196700
C112	C	1.509152	0.153363	0.696700
C113	C	1.012412	-0.343787	0.118604
C114	C	1.512412	0.156213	0.618604
C115	C	1.034851	-0.324586	0.679164
C116	C	1.534851	0.175414	1.179164
C117	C	1.031907	-0.327098	0.752550
C118	C	1.531907	0.172902	1.252550
C119	C	0.985472	-0.366925	0.787418
C120	C	1.485472	0.133075	1.287418
C121	C	0.941972	-0.404238	0.748896
C122	C	1.441972	0.095762	1.248896
C123	C	0.944913	-0.401722	0.675512
C124	C	1.444913	0.098278	1.175512
C125	C	0.971853	-0.378584	1.006698
C126	C	1.471853	0.121416	1.506698
C127	C	0.968917	-0.381099	1.080087
C128	C	1.468917	0.118901	1.580087
C129	C	1.058852	-0.303958	1.083736
C130	C	1.558852	0.196042	1.583736
C131	C	1.061791	-0.301448	1.010350
C132	C	1.561791	0.198552	1.510350
C133	C	1.018289	-0.338758	0.971835
C134	C	1.518289	0.161242	1.471835
N135	N	0.982464	-0.369496	0.862429
N136	N	1.482464	0.130504	1.362429
N137	N	1.021294	-0.336183	0.896824
N138	N	1.521294	0.163817	1.396824
H139	H	0.273285	-0.287047	0.308681
H140	H	0.773285	0.212953	0.808681
H141	H	0.597915	-0.413886	0.444573
H142	H	1.097915	0.086114	0.944573
H143	H	1.094268	-0.273581	1.115103
H144	H	1.594268	0.226419	1.615103
O145	O	1.093973	-0.587579	0.294375
O146	O	1.593973	-0.087579	0.794375
C147	C	1.137722	-0.552582	0.336236
C148	C	1.637722	-0.052582	0.836236
H149	H	1.110764	-0.543627	0.388467
H150	H	1.610764	-0.043627	0.888467
H151	H	1.189488	-0.580090	0.346097
H152	H	1.689488	-0.080090	0.846097
C153	C	1.185107	-0.500289	0.233936
C154	C	1.685107	-0.000289	0.733936
C155	C	1.151994	-0.489286	0.298085
C156	C	1.651994	0.010714	0.798085
H157	H	1.193914	-0.461246	0.210402
H158	H	1.693914	0.038754	0.710402
H159	H	1.155635	-0.523869	0.205732
H160	H	1.655635	-0.023869	0.705732
H161	H	1.228242	-0.523214	0.242162
H162	H	1.728242	-0.023214	0.742162
H163	H	1.108856	-0.466369	0.289857
H164	H	1.608856	0.033631	0.789857
H165	H	1.181459	-0.465701	0.326286
H166	H	1.681459	0.034299	0.826286
O167	O	0.736496	-0.425591	0.457277
O168	O	1.236496	0.074409	0.957277
C169	C	0.715768	-0.413670	0.526620
C170	C	1.215768	0.086330	1.026620
H171	H	0.695477	-0.362758	0.529462
H172	H	1.195477	0.137242	1.029462
H173	H	0.672424	-0.446479	0.543212
H174	H	1.172424	0.053521	1.043212
C175	C	0.804011	-0.487635	0.572620
C176	C	1.304011	0.012365	1.072620
C177	C	0.779094	-0.425102	0.576113
C178	C	1.279094	0.074898	1.076113
H179	H	0.843072	-0.494689	0.603151
H180	H	1.343072	0.005311	1.103151
H181	H	0.817974	-0.495668	0.525902
H182	H	1.317974	0.004332	1.025902
H183	H	0.767885	-0.514968	0.586446
H184	H	1.267885	-0.014968	1.086446
H185	H	0.815217	-0.397771	0.562279
H186	H	1.315217	0.102229	1.062279
H187	H	0.765139	-0.417065	0.622829
H188	H	1.265139	0.082935	1.122829
H189	H	0.931101	-0.413532	1.108474
H190	H	1.431101	0.086468	1.608474
H191	H	0.936440	-0.408974	0.975347
H192	H	1.436440	0.091026	1.475347
H193	H	1.086649	-0.712061	0.301075
H194	H	1.586649	-0.212061	0.801075
H195	H	1.067327	-0.296717	0.783907
H196	H	1.567327	0.203283	1.283907
H197	H	1.099606	-0.269018	0.981966
H198	H	1.599606	0.230982	1.481966
H199	H	0.904161	-0.436664	0.777291
H200	H	1.404161	0.063336	1.277291
O201	O	0.405470	-0.450683	0.483980
O202	O	0.905470	0.049317	0.983980
C203	C	0.478496	-0.444409	0.477284
C204	C	0.978496	0.055591	0.977284
H205	H	0.490686	-0.422241	0.423497
H206	H	0.990686	0.077759	0.923497
H207	H	0.497674	-0.413149	0.519863
H208	H	0.997674	0.086851	1.019863
C209	C	0.500921	-0.536959	0.551171
C210	C	1.000921	-0.036959	1.051171
C211	C	0.515894	-0.509736	0.485106
C212	C	1.015894	-0.009736	0.985106
H213	H	0.523991	-0.577255	0.555999
H214	H	1.023991	-0.077255	1.055999
H215	H	0.451722	-0.541185	0.555685
H216	H	0.951722	-0.041185	1.055685
H217	H	0.516903	-0.510902	0.586646
H218	H	1.016903	-0.010902	1.086646
H219	H	0.499904	-0.535789	0.449633
H220	H	0.999904	-0.035789	0.949633
H221	H	0.565091	-0.505516	0.480587
H222	H	1.065091	-0.005516	0.980587
H223	H	0.917110	-1.112451	0.457532
H224	H	1.417110	-0.612451	0.957532
O225	O	0.260580	-0.445237	0.478224
O226	O	0.760580	0.054763	0.978224
C227	C	0.188327	-0.433560	0.465689
C228	C	0.688327	0.066440	0.965689
H229	H	0.179240	-0.383790	0.442374
H230	H	0.679240	0.116210	0.942374
H231	H	0.168974	-0.468784	0.427360
H232	H	0.668974	0.031216	0.927360
C233	C	0.158983	-0.501583	0.563905
C234	C	0.658983	-0.001583	1.063905
C235	C	0.147821	-0.440453	0.535274
C236	C	0.647821	0.059547	1.035274
H237	H	0.133995	-0.505837	0.606826
H238	H	0.633995	-0.005837	1.106826
H239	H	0.207661	-0.509453	0.572348
H240	H	0.707661	-0.009453	1.072348
H241	H	0.142855	-0.530929	0.531957
H242	H	0.642855	-0.030929	1.031957
H243	H	0.163957	-0.411108	0.567217
H244	H	0.663957	0.088892	1.067217
H245	H	0.099144	-0.432578	0.526837
H246	H	0.599144	0.067422	1.026837
H247	H	0.916945	-0.711604	0.457442
H248	H	1.416945	-0.211604	0.957442
H249	H	0.909487	-0.432098	0.644152
H250	H	1.409487	0.067902	1.144152
O251	O	0.412362	-0.285635	0.307122
O252	O	0.912362	0.214365	0.807122
C253	C	0.365828	-0.246884	0.265622
C254	C	0.865828	0.253116	0.765622
H255	H	0.313605	-0.270629	0.261037
H256	H	0.813605	0.229371	0.761037
H257	H	0.357014	-0.199709	0.291146
H258	H	0.857014	0.300291	0.791146
C259	C	0.461589	-0.207040	0.197632
C260	C	0.961589	0.292960	0.697632
C261	C	0.397450	-0.236207	0.191997
C262	C	0.897450	0.263793	0.691997
H263	H	0.481095	-0.200451	0.152218
H264	H	0.981095	0.299549	0.652218
H265	H	0.492940	-0.233146	0.225593
H266	H	0.992940	0.266854	0.725593
H267	H	0.454235	-0.167731	0.218906
H268	H	0.954235	0.332269	0.718906
H269	H	0.404806	-0.275518	0.170732
H270	H	0.904806	0.224482	0.670732
H271	H	0.366100	-0.210107	0.164031
H272	H	0.866100	0.289893	0.664031
O273	O	1.094142	-0.988428	0.294461
O274	O	1.594142	-0.488428	0.794461
C275	C	1.137888	-0.953426	0.336320
C276	C	1.637888	-0.453426	0.836320
H277	H	1.110927	-0.944467	0.388549
H278	H	1.610927	-0.444467	0.888549
H279	H	1.189655	-0.980932	0.346186
H280	H	1.689655	-0.480932	0.846186
C281	C	1.185277	-0.901142	0.234016
C282	C	1.685277	-0.401142	0.734016
C283	C	1.152161	-0.890133	0.298162
C284	C	1.652161	-0.390133	0.798162
H285	H	1.194084	-0.862101	0.210478
H286	H	1.694084	-0.362101	0.710478
H287	H	1.155807	-0.924725	0.205814
H288	H	1.655807	-0.424725	0.705814
H289	H	1.228412	-0.924065	0.242247
H290	H	1.728412	-0.424065	0.742247
H291	H	1.109023	-0.867218	0.289930
H292	H	1.609023	-0.367218	0.789930
H293	H	1.181624	-0.866545	0.326362
H294	H	1.681624	-0.366545	0.826362
O295	O	0.909733	-0.988065	0.464368
O296	O	1.409733	-0.488065	0.964368
C297	C	0.922247	-1.007049	0.535035
C298	C	1.422247	-0.507049	1.035035
H299	H	0.949219	-1.055822	0.537612
H300	H	1.449219	-0.555822	1.037612
H301	H	0.957389	-0.972172	0.560178
H302	H	1.457389	-0.472172	1.060178
C303	C	0.818881	-0.949113	0.571618
C304	C	1.318881	-0.449113	1.071618
C305	C	0.852003	-1.009019	0.574783
C306	C	1.352003	-0.509019	1.074783
H307	H	0.775552	-0.950326	0.596139
H308	H	1.275552	-0.450326	1.096139
H309	H	0.810451	-0.936321	0.524009
H310	H	1.310451	-0.436321	1.024009
H311	H	0.848173	-0.920056	0.592570
H312	H	1.348173	-0.420056	1.092570
H313	H	0.822715	-1.038074	0.553824
H314	H	1.322715	-0.538074	1.053824
H315	H	0.860427	-1.021816	0.622390
H316	H	1.360427	-0.521816	1.122390
O317	O	0.599009	-0.255119	0.274617
O318	O	1.099009	0.244881	0.774617
C319	C	0.616372	-0.193605	0.290814
C320	C	1.116372	0.306395	0.790814
H321	H	0.634310	-0.193184	0.347765
H322	H	1.134310	0.306816	0.847765
H323	H	0.660478	-0.177401	0.254882
H324	H	1.160478	0.322599	0.754882
C325	C	0.529495	-0.149384	0.210163
C326	C	1.029495	0.350616	0.710163
C327	C	0.551522	-0.148866	0.280114
C328	C	1.051522	0.351134	0.780114
H329	H	0.489494	-0.121786	0.203560
H330	H	0.989494	0.378214	0.703560
H331	H	0.517799	-0.190827	0.199249
H332	H	1.017799	0.309173	0.699249
H333	H	0.566256	-0.135882	0.180229
H334	H	1.066256	0.364118	0.680229
H335	H	0.514765	-0.162376	0.310046
H336	H	1.014765	0.337624	0.810046
H337	H	0.563211	-0.107424	0.291033
H338	H	1.063211	0.392576	0.791033
O339	O	0.743625	-0.260681	0.280227
O340	O	1.243625	0.239319	0.780227
C341	C	0.728461	-0.271258	0.209447
C342	C	1.228461	0.228742	0.709447
H343	H	0.708404	-0.320661	0.204987
H344	H	1.208404	0.179339	0.704987
H345	H	0.686612	-0.235264	0.189442
H346	H	1.186612	0.264736	0.689442
C347	C	0.820157	-0.204023	0.170654
C348	C	1.320157	0.295977	0.670654
C349	C	0.795528	-0.264703	0.165176
C350	C	1.295528	0.235297	0.665176
H351	H	0.861525	-0.199976	0.143344
H352	H	1.361525	0.300024	0.643344
H353	H	0.830371	-0.196894	0.218340
H354	H	1.330371	0.303106	0.718340
H355	H	0.785276	-0.174034	0.153985
H356	H	1.285276	0.325966	0.653985
H357	H	0.830405	-0.294689	0.181853
H358	H	1.330405	0.205311	0.681853
H359	H	0.785321	-0.271836	0.117492
H360	H	1.285321	0.228164	0.617492
H361	H	1.086820	-1.112908	0.301168
H362	H	1.586820	-0.612908	0.801168
O363	O	1.079978	-0.285842	0.645406
O364	O	1.579978	0.214158	1.145406
C365	C	1.117747	-0.253461	0.695142
C366	C	1.617747	0.246539	1.195142
H367	H	1.086870	-0.251996	0.746293
H368	H	1.586870	0.248004	1.246293
H369	H	1.170786	-0.278780	0.705090
H370	H	1.670786	0.221220	1.205090
C371	C	1.166990	-0.187662	0.604113
C372	C	1.666990	0.312338	1.104113
C373	C	1.129063	-0.185859	0.666935
C374	C	1.629063	0.314141	1.166935
H375	H	1.173974	-0.145963	0.586713
H376	H	1.673974	0.354037	1.086713
H377	H	1.141547	-0.209479	0.570604
H378	H	1.641547	0.290521	1.070604
H379	H	1.211185	-0.208765	0.612411
H380	H	1.711185	0.291235	1.112411
H381	H	1.084866	-0.164764	0.658635
H382	H	1.584866	0.335236	1.158635
H383	H	1.154500	-0.164036	0.700443
H384	H	1.654500	0.335964	1.200443
H385	H	0.916895	-0.592330	0.457426
H386	H	1.416895	-0.092330	0.957426
