data_functionalizedCrystal
_audit_creation_method	'MofGen! by Chris Wilmer'
_symmetry_space_group_name_H-M	'P1'
_symmetry_Int_Tables_number	1
_symmetry_cell_setting	triclinic
loop_
_symmetry_equiv_pos_as_xyz
  x,y,z
_cell_length_a	17.038272
_cell_length_b	10.540539
_cell_length_c	9.616153
_cell_angle_alpha	90.004826
_cell_angle_beta	89.997688
_cell_angle_gamma	92.181476
loop_
_atom_site_label
_atom_site_type_symbol
_atom_site_fract_x
_atom_site_fract_y
_atom_site_fract_z
O1	O	0.110247	-1.696176	-0.115581
O2	O	0.120634	-1.327732	-0.115599
O3	O	0.001613	-1.509764	-0.115579
O4	O	0.229269	-1.514144	-0.115601
O5	O	0.001615	-1.509738	0.115712
O6	O	0.120637	-1.327705	0.115693
O7	O	0.110249	-1.696149	0.115710
Zn8	Zn	0.115443	-1.511923	0.152424
Zn9	Zn	0.115440	-1.511958	-0.152313
O10	O	0.229271	-1.514117	0.115690
C11	C	0.119857	-1.280343	0.000045
C12	C	0.117526	-1.139177	0.000039
C13	C	-0.027537	-1.505768	0.000066
C14	C	-0.114398	-1.493883	0.000065
N15	N	0.115445	-1.511909	0.360398
C16	C	-0.163886	-1.602994	0.000072
C17	C	-0.245501	-1.591820	0.000058
C18	C	-0.277626	-1.471534	0.000048
C19	C	-0.228133	-1.362416	0.000037
C20	C	-0.146519	-1.373591	0.000041
C21	C	-0.523611	-1.432055	0.000027
C22	C	-0.605231	-1.420888	0.000027
C23	C	-0.622593	-1.650293	0.000046
C24	C	-0.540977	-1.661457	0.000058
C25	C	-0.491491	-1.552339	0.000040
C26	C	-0.361050	-1.460110	0.000038
C27	C	-0.408069	-1.563764	0.000040
C28	C	0.258421	-1.518114	0.000042
C29	C	0.345282	-1.529998	0.000034
C30	C	0.111027	-1.743538	0.000063
C31	C	0.113358	-1.884704	0.000061
C32	C	0.028219	-0.947420	0.000587
C33	C	0.030581	-1.094259	0.000051
C34	C	0.159366	-1.081423	-0.132039
C35	C	0.156399	-0.934602	-0.132135
C36	C	0.158170	-0.934248	0.130886
C37	C	0.158971	-1.081305	0.132618
N38	N	0.115432	-1.511982	-0.360287
C39	C	0.178900	-1.414198	0.580758
C40	C	0.179138	-1.414448	0.419590
C41	C	0.134015	-1.646364	0.418852
C42	C	0.134465	-1.645842	0.580070
C43	C	0.033212	-1.476466	0.580316
C44	C	0.033745	-1.473469	0.419089
H45	H	-0.137736	-1.700943	0.000089
H46	H	-0.106227	-1.284741	0.000035
Cl47	Cl	-0.367681	-1.714975	0.000045
Cl48	Cl	0.227078	-1.692079	0.638102
Cl49	Cl	0.225582	-1.693351	0.356491
Cl50	Cl	-0.024596	-0.895868	-0.144820
H51	H	-0.006128	-0.915620	0.095308
Cl52	Cl	0.252936	-0.869541	-0.141403
Cl53	Cl	0.273327	-1.450819	0.360008
Cl54	Cl	-0.307710	-1.728994	0.000071
Cl55	Cl	0.161938	-1.260564	0.358571
H56	H	-0.483328	-1.343202	0.000013
Cl57	Cl	-0.020384	-1.153938	-0.146619
H58	H	0.125473	-0.903518	-0.230858
Cl59	Cl	-0.645616	-1.269660	0.000023
Cl60	Cl	-0.042680	-1.575241	0.356911
Cl61	Cl	0.257938	-1.125166	-0.139672
H62	H	0.167898	-1.314247	0.619566
H63	H	-0.514827	-1.759406	0.000067
Cl64	Cl	0.255127	-0.870379	0.132257
H65	H	-0.002340	-1.133791	0.094731
Cl66	Cl	-0.684808	-1.787461	0.000064
Cl67	Cl	-0.268519	-1.211199	0.000007
Cl68	Cl	-0.401443	-1.308898	0.000018
Cl69	Cl	0.114490	-1.143000	-0.283795
Cl70	Cl	0.272552	-1.450223	0.643244
Cl71	Cl	0.114727	-0.881483	0.285456
Cl72	Cl	0.065792	-1.762136	0.640284
Cl73	Cl	0.111701	-1.139961	0.283476
Cl74	Cl	0.005939	-1.327629	0.643158
Cl75	Cl	0.256842	-1.127823	0.144919
H76	H	0.089051	-1.721225	0.380507
Cl77	Cl	0.012009	-1.320695	0.360109
H78	H	-0.014028	-1.547672	0.618440
