data_functionalizedCrystal
_audit_creation_method	'MofGen! by Chris Wilmer'
_symmetry_space_group_name_H-M	'P1'
_symmetry_Int_Tables_number	1
_symmetry_cell_setting	triclinic
loop_
_symmetry_equiv_pos_as_xyz
  x,y,z
_cell_length_a	19.288864
_cell_length_b	9.798715
_cell_length_c	19.288865
_cell_angle_alpha	90.008373
_cell_angle_beta	83.136245
_cell_angle_gamma	90.017526
loop_
_atom_site_label
_atom_site_type_symbol
_atom_site_fract_x
_atom_site_fract_y
_atom_site_fract_z
O1	O	0.921348	0.113944	0.086646
O2	O	1.254681	0.447278	0.419979
O3	O	1.588014	0.780611	0.753313
O4	O	0.719087	0.113853	0.098335
O5	O	1.052420	0.447186	0.431668
O6	O	1.385754	0.780520	0.765002
O7	O	0.826062	0.113874	-0.008640
O8	O	1.159395	0.447208	0.324694
O9	O	1.492728	0.780541	0.658027
O10	O	0.814373	0.113923	0.193621
O11	O	1.147706	0.447256	0.526954
O12	O	1.481040	0.780590	0.860287
O13	O	0.826054	-0.113108	-0.008640
O14	O	1.159387	0.220225	0.324693
O15	O	1.492720	0.553559	0.658027
O16	O	0.719079	-0.113129	0.098335
O17	O	1.052412	0.220204	0.431668
O18	O	1.385746	0.553537	0.765001
O19	O	0.921340	-0.113038	0.086646
O20	O	1.254673	0.220295	0.419979
O21	O	1.588006	0.553629	0.753313
Zn22	Zn	0.820208	-0.149122	0.092490
Zn23	Zn	1.153541	0.184211	0.425824
Zn24	Zn	1.486875	0.517545	0.759157
Zn25	Zn	0.820219	0.149937	0.092491
Zn26	Zn	1.153552	0.483270	0.425824
Zn27	Zn	1.486885	0.816604	0.759157
O28	O	0.814365	-0.113059	0.193621
O29	O	1.147698	0.220274	0.526954
O30	O	1.481032	0.553607	0.860287
C31	C	0.693207	0.000350	0.097959
C32	C	1.026540	0.333683	0.431292
C33	C	1.359873	0.667016	0.764625
C34	C	0.616103	0.000314	0.096830
C35	C	0.949436	0.333647	0.430163
C36	C	1.282770	0.666980	0.763496
N37	N	0.820206	-0.353222	0.092490
N38	N	1.153539	-0.019888	0.425823
N39	N	1.486873	0.313445	0.759156
C40	C	0.571407	0.000350	0.159598
C41	C	0.904740	0.333684	0.492931
C42	C	1.238073	0.667017	0.826264
C43	C	0.498960	0.000365	0.158537
C44	C	0.832293	0.333699	0.491870
C45	C	1.165626	0.667032	0.825204
C46	C	0.471212	0.000371	0.094705
C47	C	0.804545	0.333704	0.428038
C48	C	1.137879	0.667038	0.761371
C49	C	0.515918	0.000327	0.031929
C50	C	0.849252	0.333660	0.365262
C51	C	1.182585	0.666993	0.698595
C52	C	0.588364	0.000298	0.032991
C53	C	0.921697	0.333631	0.366324
C54	C	1.255030	0.666965	0.699658
C55	C	0.362953	0.079927	0.044526
C56	C	0.696286	0.413260	0.377859
C57	C	1.029620	0.746593	0.711192
C58	C	0.290508	0.079963	0.043466
C59	C	0.623842	0.413297	0.376799
C60	C	0.957175	0.746630	0.710132
C61	C	0.247767	0.000453	0.091425
C62	C	0.581100	0.333786	0.424758
C63	C	0.914433	0.667119	0.758092
C64	C	0.277476	-0.079077	0.140456
C65	C	0.610810	0.254256	0.473789
C66	C	0.944143	0.587589	0.807123
C67	C	0.349922	-0.079106	0.141519
C68	C	0.683255	0.254227	0.474852
C69	C	1.016589	0.587561	0.808185
C70	C	0.392658	0.000401	0.093546
C71	C	0.725991	0.333734	0.426879
C72	C	1.059325	0.667068	0.760212
C73	C	0.124514	0.000503	0.153047
C74	C	0.457848	0.333837	0.486381
C75	C	0.791181	0.667170	0.819714
C76	C	0.052066	0.000510	0.151984
C77	C	0.385400	0.333843	0.485317
C78	C	0.718733	0.667176	0.818651
C79	C	0.069026	0.000485	0.025374
C80	C	0.402360	0.333818	0.358707
C81	C	0.735693	0.667151	0.692040
C82	C	0.141473	0.000465	0.026439
C83	C	0.474806	0.333798	0.359772
C84	C	0.808140	0.667131	0.693106
C85	C	0.169212	0.000480	0.090278
C86	C	0.502546	0.333814	0.423611
C87	C	0.835879	0.667147	0.756944
C88	C	0.865124	-0.420990	0.047378
C89	C	1.198457	-0.087656	0.380712
C90	C	1.531791	0.245677	0.714045
C91	C	0.865135	-0.578152	0.047376
C92	C	1.198469	-0.244819	0.380709
C93	C	1.531802	0.088514	0.714042
C94	C	0.947220	0.000468	0.087022
C95	C	1.280553	0.333802	0.420355
C96	C	1.613887	0.667135	0.753689
C97	C	1.024324	0.000513	0.088151
C98	C	1.357657	0.333846	0.421484
C99	C	1.690990	0.667180	0.754818
C100	C	0.825682	0.000379	-0.034516
C101	C	1.159015	0.333712	0.298817
C102	C	1.492348	0.667046	0.632150
C103	C	0.824553	0.000366	-0.111620
C104	C	1.157886	0.333700	0.221713
C105	C	1.491219	0.667033	0.555047
N106	N	0.820226	0.354037	0.092486
N107	N	1.153559	0.687370	0.425819
N108	N	1.486893	1.020703	0.759152
C109	C	0.887321	0.000388	-0.156316
C110	C	1.220654	0.333721	0.177017
C111	C	1.553987	0.667055	0.510350
C112	C	0.886260	0.000409	-0.228763
C113	C	1.219593	0.333742	0.104570
C114	C	1.552927	0.667076	0.437903
C115	C	0.822428	0.000381	-0.256511
C116	C	1.155761	0.333714	0.076822
C117	C	1.489094	0.667048	0.410156
C118	C	0.759652	0.000367	-0.211805
C119	C	1.092985	0.333701	0.121529
C120	C	1.426318	0.667034	0.454862
C121	C	0.760714	0.000360	-0.139359
C122	C	1.094047	0.333693	0.193974
C123	C	1.427381	0.667026	0.527307
C124	C	0.772245	-0.079148	-0.364798
C125	C	1.105579	0.254185	-0.031465
C126	C	1.438912	0.587518	0.301868
C127	C	0.771186	-0.079149	-0.437243
C128	C	1.104519	0.254184	-0.103909
C129	C	1.437852	0.587517	0.229424
C130	C	0.819148	0.000410	-0.479956
C131	C	1.152481	0.333744	-0.146623
C132	C	1.485815	0.667077	0.186710
C133	C	0.868182	0.079953	-0.450218
C134	C	1.201516	0.413287	-0.116885
C135	C	1.534849	0.746620	0.216448
C136	C	0.869245	0.079946	-0.377773
C137	C	1.202578	0.413279	-0.044439
C138	C	1.535911	0.746612	0.288894
C139	C	0.821269	0.000390	-0.335065
C140	C	1.154602	0.333723	-0.001732
C141	C	1.487935	0.667057	0.331602
C142	C	0.880770	0.000457	-0.603209
C143	C	1.214104	0.333790	-0.269875
C144	C	1.547437	0.667123	0.063458
C145	C	0.879707	0.000486	-0.675657
C146	C	1.213040	0.333820	-0.342323
C147	C	1.546374	0.667153	-0.008990
C148	C	0.753097	0.000431	-0.658697
C149	C	1.086430	0.333764	-0.325363
C150	C	1.419763	0.667097	0.007970
C151	C	0.754162	0.000415	-0.586250
C152	C	1.087495	0.333748	-0.252917
C153	C	1.420829	0.667081	0.080417
C154	C	0.818000	0.000421	-0.558511
C155	C	1.151334	0.333755	-0.225177
C156	C	1.484667	0.667088	0.108156
C157	C	0.814745	0.000439	0.219497
C158	C	1.148078	0.333772	0.552831
C159	C	1.481412	0.667106	0.886164
C160	C	0.815874	0.000461	0.296601
C161	C	1.149207	0.333794	0.629934
C162	C	1.482541	0.667127	0.963267
H163	H	0.593987	0.000366	0.211580
H164	H	0.927320	0.333699	0.544913
H165	H	1.260654	0.667033	0.878247
H166	H	0.397748	0.144682	0.005470
H167	H	0.731082	0.478015	0.338803
H168	H	1.064415	0.811349	0.672137
Br169	Br	0.250194	0.187914	-0.023066
Br170	Br	0.583527	0.521248	0.310267
Br171	Br	0.916860	0.854581	0.643600
Br172	Br	0.202136	0.000419	-0.058751
Br173	Br	0.535470	0.333752	0.274582
Br174	Br	0.868803	0.667085	0.607916
Br175	Br	0.675522	0.000334	-0.078695
Br176	Br	1.008856	0.333668	0.254638
Br177	Br	1.342189	0.667001	0.587971
H178	H	0.462561	0.000391	0.209652
H179	H	0.795894	0.333725	0.542985
H180	H	1.129228	0.667058	0.876318
H181	H	0.046435	0.000574	-0.026600
H182	H	0.379769	0.333907	0.306734
H183	H	0.713102	0.667241	0.640067
Br184	Br	0.673021	0.000347	-0.249460
Br185	Br	1.006355	0.333680	0.083873
Br186	Br	1.339688	0.667013	0.417207
Br187	Br	0.971451	0.000444	-0.289434
Br188	Br	1.304784	0.333778	0.043899
Br189	Br	1.638117	0.667111	0.377232
H190	H	0.493322	0.000350	-0.020044
H191	H	0.826655	0.333683	0.313289
H192	H	1.159988	0.667017	0.646623
Br193	Br	0.929035	-0.323779	-0.017168
Br194	Br	1.262368	0.009555	0.316165
Br195	Br	1.595702	0.342888	0.649499
H196	H	0.903594	-0.636430	0.008756
H197	H	1.236927	-0.303097	0.342090
H198	H	1.570261	0.030237	0.675423
Br199	Br	0.668972	0.000384	-0.525587
Br200	Br	1.002305	0.333717	-0.192253
Br201	Br	1.335639	0.667051	0.141080
Br202	Br	0.219478	-0.186989	0.205551
Br203	Br	0.552812	0.146345	0.538884
Br204	Br	0.886145	0.479678	0.872217
Br205	Br	0.707148	-0.187133	-0.306836
Br206	Br	1.040481	0.146200	0.026497
Br207	Br	1.373814	0.479534	0.359830
H208	H	0.147101	0.000496	0.205028
H209	H	0.480434	0.333830	0.538362
H210	H	0.813767	0.667163	0.871695
H211	H	0.939303	0.000398	-0.133736
H212	H	1.272636	0.333731	0.199597
H213	H	1.605970	0.667065	0.532931
H214	H	0.781770	-0.587695	0.131112
H215	H	1.115104	-0.254361	0.464445
H216	H	1.448437	0.078972	0.797779
H217	H	0.015674	0.000532	0.203099
H218	H	0.349008	0.333865	0.536433
H219	H	0.682341	0.667198	0.869766
Br220	Br	0.666466	0.000407	-0.696346
Br221	Br	0.999799	0.333740	-0.363012
Br222	Br	1.333132	0.667073	-0.029679
Br223	Br	0.390242	-0.187037	0.208055
Br224	Br	0.723575	0.146296	0.541388
Br225	Br	1.056908	0.479629	0.874722
H226	H	0.909169	0.144715	-0.353563
H227	H	1.242502	0.478048	-0.020230
H228	H	1.575835	0.811382	0.313104
Br229	Br	0.967406	0.000452	-0.565558
Br230	Br	1.300739	0.333785	-0.232225
Br231	Br	1.634072	0.667118	0.101109
H232	H	0.781756	-0.411554	0.131107
H233	H	1.115089	-0.078220	0.464440
H234	H	1.448422	0.255113	0.797774
Br235	Br	0.933280	0.187934	-0.508178
Br236	Br	1.266613	0.521267	-0.174844
Br237	Br	1.599947	0.854601	0.158489
H238	H	0.930822	0.000511	-0.712049
H239	H	1.264156	0.333845	-0.378715
H240	H	1.597489	0.667178	-0.045382
H241	H	0.731256	-0.143910	-0.461449
H242	H	1.064589	0.189423	-0.128116
H243	H	1.397923	0.522757	0.205217
H244	H	0.624756	0.000269	-0.018124
H245	H	0.958090	0.333602	0.315210
H246	H	1.291423	0.666936	0.648543
