data_functionalizedCrystal
_audit_creation_method	'MofGen! by Chris Wilmer'
_symmetry_space_group_name_H-M	'P1'
_symmetry_Int_Tables_number	1
_symmetry_cell_setting	triclinic
loop_
_symmetry_equiv_pos_as_xyz
  x,y,z
_cell_length_a	14.971486
_cell_length_b	15.186229
_cell_length_c	14.971486
_cell_angle_alpha	89.996046
_cell_angle_beta	96.385871
_cell_angle_gamma	89.998401
loop_
_atom_site_label
_atom_site_type_symbol
_atom_site_fract_x
_atom_site_fract_y
_atom_site_fract_z
O1	O	1.186943	0.073128	-0.116562
O2	O	0.926543	0.073152	-0.130520
O3	O	1.063723	0.073133	0.006659
O4	O	1.049764	0.073147	-0.253741
O5	O	1.063713	-0.073324	0.006661
O6	O	0.926534	-0.073305	-0.130518
O7	O	1.186934	-0.073330	-0.116560
Zn8	Zn	1.056733	-0.096571	-0.123539
Zn9	Zn	1.056745	0.096393	-0.123541
O10	O	1.049755	-0.073311	-0.253739
C11	C	0.893214	-0.000074	-0.129895
C12	C	0.793917	-0.000065	-0.128024
N13	N	1.056731	-0.228263	-0.123536
C14	C	0.736692	-0.000062	-0.208614
C15	C	0.643392	-0.000075	-0.206850
C16	C	0.607320	-0.000085	-0.124497
C17	C	0.664552	-0.000091	-0.043902
C18	C	0.757850	-0.000084	-0.045666
C19	C	0.470090	-0.000103	-0.040231
C20	C	0.376786	-0.000108	-0.038466
C21	C	0.355632	-0.000094	-0.201415
C22	C	0.448930	-0.000087	-0.203179
C23	C	0.506156	-0.000091	-0.122584
C24	C	1.117495	-0.453995	-0.062814
C25	C	1.117498	-0.546184	-0.062812
C26	C	0.995983	-0.546177	-0.184262
C27	C	0.995977	-0.453989	-0.184259
C28	C	1.056738	-0.407900	-0.123536
C29	C	1.056747	-0.592278	-0.123537
C30	C	1.056749	-0.692234	-0.123535
C31	C	1.056734	-0.307938	-0.123536
C32	C	1.220263	-0.000102	-0.117185
C33	C	1.319561	-0.000105	-0.119056
C34	C	1.063094	-0.000095	0.039985
C35	C	1.061223	-0.000095	0.139282
N36	N	1.056754	0.228086	-0.123536
C37	C	1.050384	-0.000080	-0.287065
C38	C	1.052254	-0.000076	-0.386362
C39	C	1.141812	-0.000103	0.196507
C40	C	1.140049	-0.000094	0.289807
C41	C	1.057696	-0.000083	0.325879
C42	C	0.977101	-0.000072	0.268646
C43	C	0.978865	-0.000075	0.175349
C44	C	0.973430	-0.000069	0.463109
C45	C	0.971665	-0.000067	0.556413
C46	C	1.134614	-0.000087	0.577567
C47	C	1.136378	-0.000090	0.484269
C48	C	1.055782	-0.000081	0.427043
H49	H	0.596802	-0.000072	-0.272474
H50	H	0.904606	-0.000073	0.585780
O51	O	0.886504	-0.000067	0.401381
H52	H	0.828941	-0.000071	0.442136
O53	O	1.183038	-0.595893	0.002680
H54	H	1.145352	-0.637892	0.046226
O55	O	0.930460	-0.595885	-0.249765
H56	H	0.940678	-0.667734	-0.239575
H57	H	1.200238	-0.000092	0.624165
O58	O	1.183001	-0.404278	0.002699
H59	H	1.226519	-0.362266	-0.035006
H60	H	0.478296	-0.000071	-0.270239
H61	H	0.946497	-0.416456	-0.233707
H62	H	1.208874	-0.000117	0.167145
O63	O	0.888276	-0.000070	0.307552
H64	H	0.883578	0.059617	0.349558
O65	O	0.293915	-0.000103	-0.288347
H66	H	0.250886	0.059581	-0.291440
O67	O	0.775597	-0.000060	-0.297438
H68	H	0.720127	-0.000071	-0.353180
O69	O	0.337873	-0.000130	0.050354
H70	H	0.393338	-0.000147	0.106102
O71	O	0.531818	-0.000103	0.046695
H72	H	0.491062	-0.000101	0.104258
O73	O	1.226969	-0.000117	0.351532
H74	H	1.284531	-0.000141	0.310774
O75	O	1.225199	-0.000091	0.445356
H76	H	1.280946	-0.000084	0.500821
O77	O	0.891942	-0.000078	0.113624
H78	H	0.852534	0.059615	0.126456
O79	O	0.625652	-0.000109	0.044925
H80	H	0.583653	0.059585	0.049635
H81	H	0.804443	-0.000086	0.019958
