data_functionalizedCrystal
_audit_creation_method	'MofGen! by Chris Wilmer'
_symmetry_space_group_name_H-M	'P1'
_symmetry_Int_Tables_number	1
_symmetry_cell_setting	triclinic
loop_
_symmetry_equiv_pos_as_xyz
  x,y,z
_cell_length_a	20.919309
_cell_length_b	14.560438
_cell_length_c	14.560438
_cell_angle_alpha	60.000069
_cell_angle_beta	89.998525
_cell_angle_gamma	57.440967
loop_
_atom_site_label
_atom_site_type_symbol
_atom_site_fract_x
_atom_site_fract_y
_atom_site_fract_z
Zr1	Zr	0.641765	0.933517	-0.084645
O2	O	0.535394	1.137015	-0.237234
O3	O	0.674374	0.738270	-0.037870
O4	O	0.674374	0.929874	-0.229471
O5	O	0.535394	0.945408	0.105508
O6	O	0.784003	0.917616	-0.223345
O7	O	0.535394	0.945411	-0.045633
O8	O	0.784003	0.574871	0.119394
O9	O	0.535395	1.288153	-0.237231
O10	O	0.770096	0.806374	-0.013347
O11	O	0.688281	0.815521	0.094876
O12	O	0.688281	1.041110	-0.130709
O13	O	0.606466	1.050256	-0.022486
Zr14	Zr	0.816612	0.913963	0.166178
Zr15	Zr	0.816612	0.913967	-0.074874
Zr16	Zr	0.641766	0.933513	0.156407
Zr17	Zr	0.641766	1.174565	-0.084640
Zr18	Zr	0.816612	0.672915	0.166174
O19	O	0.784004	1.109210	0.119404
O20	O	0.784004	1.109216	-0.223341
O21	O	0.535395	1.137009	0.105511
O22	O	0.922983	0.710465	0.318767
O23	O	0.922983	0.710471	-0.023978
O24	O	0.674374	0.738264	0.304875
O25	O	0.922983	0.902072	-0.023974
O26	O	0.784004	0.917606	0.311005
O27	O	0.674374	0.929864	0.304878
O28	O	0.922984	0.902069	0.127167
O29	O	0.674374	1.272613	-0.229465
O30	O	0.784004	0.574867	0.310998
O31	O	0.922983	0.559327	0.318764
O32	O	0.922983	0.559331	0.127160
O33	O	0.535395	1.288149	-0.045627
O34	O	0.674375	1.272609	-0.037860
O35	O	0.770097	0.806370	0.212243
O36	O	0.851912	0.797224	0.104020
O37	O	0.770097	1.031959	-0.013343
O38	O	0.688281	1.041106	0.094880
C39	C	0.729188	0.622226	0.040761
C40	C	0.729188	0.519895	0.040759
C41	C	0.510482	0.948195	0.028545
C42	C	0.436255	0.956495	0.024397
C43	C	0.771893	0.467045	-0.015732
C44	C	0.771897	0.370885	-0.015722
C45	C	0.686483	0.380439	0.097273
C46	C	0.686485	0.476590	0.097268
C47	C	0.444088	0.837868	0.083705
C48	C	0.374341	0.845674	0.079805
C49	C	0.296762	0.972109	0.016590
C50	C	0.288931	1.090745	-0.042719
C51	C	0.358678	1.082937	-0.038812
C52	C	0.084038	1.001814	0.001734
C53	C	0.014290	1.009612	-0.002171
C54	C	0.099704	0.764541	0.120355
C55	C	0.169448	0.756744	0.124251
C56	C	0.161611	0.875380	0.064946
C57	C	0.225469	0.980091	0.012599
C58	C	0.232904	0.867396	0.068945
C59	C	0.947895	0.899285	0.052988
C60	C	1.022122	0.890985	0.057136
C61	C	0.729189	0.923745	-0.260753
C62	C	0.729188	0.923747	-0.363086
C63	C	0.729189	1.225254	0.040772
C64	C	0.729189	1.327585	0.040774
C65	C	0.789584	0.916995	-0.407787
C66	C	0.789587	0.916983	-0.503933
C67	C	0.668790	0.930481	-0.510671
C68	C	0.668792	0.930484	-0.414522
C69	C	0.729189	0.923735	0.342286
C70	C	0.729189	0.923733	0.444619
C71	C	0.947895	0.597771	0.052983
C72	C	1.022122	0.487141	0.057128
C73	C	0.729189	0.622221	0.342281
C74	C	0.729189	0.519888	0.444612
C75	C	0.947895	0.597766	0.354502
C76	C	1.022122	0.487133	0.460981
C77	C	0.510483	1.249714	-0.272969
C78	C	0.436256	1.360347	-0.379448
C79	C	0.510483	1.249709	0.028551
C80	C	0.436256	1.360339	0.024405
C81	C	0.729189	1.225259	-0.260747
C82	C	0.729189	1.327592	-0.363078
C83	C	1.014273	0.439964	-0.002199
C84	C	1.084010	0.336028	0.001674
C85	C	1.161596	0.279265	0.064881
C86	C	1.169443	0.326452	0.124210
C87	C	1.099707	0.430392	0.120330
C88	C	1.099694	0.430404	0.454494
C89	C	1.169445	0.326466	0.554533
C90	C	1.161622	0.279252	0.661059
C91	C	1.084042	0.335992	0.667543
C92	C	1.014293	0.439935	0.567505
C93	C	0.358684	1.417087	-0.372961
C94	C	0.288933	1.521056	-0.473000
C95	C	0.296756	1.568275	-0.579525
C96	C	0.374336	1.511529	-0.586010
C97	C	0.444085	1.407569	-0.485972
C98	C	0.444105	1.407526	0.083722
C99	C	0.374368	1.511488	0.079823
C100	C	0.296782	1.568255	0.016612
C101	C	0.288935	1.521063	-0.042712
C102	C	0.358671	1.417110	-0.038819
C103	C	0.771895	0.467034	0.553951
C104	C	0.771885	0.370891	0.650098
C105	C	0.686463	0.380462	0.527551
C106	C	0.686468	0.476610	0.431407
H107	H	0.806666	0.502300	-0.061744
C108	C	0.928935	0.502391	-0.071743
N109	N	0.864660	0.549412	-0.124134
H110	H	0.806660	0.327863	0.739124
H111	H	1.218373	0.194630	0.068032
C112	C	0.140127	1.119167	-0.056950
N113	N	0.075845	1.223918	-0.109336
H114	H	1.106109	0.468790	0.168649
C115	C	0.928965	0.502323	0.574660
N116	N	0.864697	0.549312	0.580058
H117	H	0.380773	1.549893	0.128137
H118	H	1.106079	0.468830	0.367765
C119	C	0.639478	0.332838	0.513039
N120	N	0.604091	0.296965	0.502107
H121	H	0.838767	0.911483	-0.540324
C122	C	0.639487	0.534752	0.311122
N123	N	0.604101	0.578546	0.220526
H124	H	0.380696	1.549988	-0.672755
C125	C	1.254795	0.263988	0.193743
N126	N	1.319085	0.216930	0.246123
C127	C	0.818865	0.312770	-0.077882
N128	N	0.854241	0.269002	-0.124708
C129	C	0.350059	1.365175	-0.255792
N130	N	0.343555	1.326089	-0.167544
H131	H	0.619610	0.935978	-0.378122
H132	H	0.077646	1.098415	-0.046576
H133	H	0.240005	1.652899	0.013452
H134	H	0.651715	0.345169	0.143280
H135	H	0.619616	0.935969	-0.552562
H136	H	0.507245	1.361371	-0.491267
C137	C	0.220021	1.682624	-0.689561
N138	N	0.162222	1.768748	-0.772436
H139	H	1.232607	0.280278	0.549233
C140	C	0.203592	1.229825	-0.112260
N141	N	0.139314	1.334583	-0.164646
H142	H	0.651709	0.519620	0.143276
H143	H	1.218423	0.194614	0.742508
H144	H	0.507253	0.734910	0.135186
C145	C	0.382964	0.715174	0.145028
N146	N	0.389460	0.616875	0.194151
H147	H	0.232613	0.653787	0.175705
H148	H	0.106076	0.667954	0.168637
C149	C	0.856027	0.909569	-0.351202
N150	N	0.906077	0.903969	-0.308582
C151	C	0.203603	1.583455	-0.465841
N152	N	0.139334	1.630452	-0.460446
H153	H	0.225755	1.567298	-0.094177
H154	H	-0.048880	1.112576	-0.053653
H155	H	1.077685	0.297535	0.754290
H156	H	0.352295	1.179536	-0.087092
H157	H	0.296071	0.764453	0.120418
H158	H	1.077604	0.297622	-0.046640
C159	C	0.529443	1.345108	0.153257
N160	N	0.593718	1.298108	0.205627
H161	H	0.352269	1.378694	-0.087119
H162	H	0.806678	0.502272	0.564709
