data_functionalizedCrystal
_audit_creation_method	'MofGen! by Chris Wilmer'
_symmetry_space_group_name_H-M	'P1'
_symmetry_Int_Tables_number	1
_symmetry_cell_setting	triclinic
loop_
_symmetry_equiv_pos_as_xyz
  x,y,z
_cell_length_a	27.780884
_cell_length_b	27.780884
_cell_length_c	27.780936
_cell_angle_alpha	120.003000
_cell_angle_beta	90.002046
_cell_angle_gamma	59.999919
loop_
_atom_site_label
_atom_site_type_symbol
_atom_site_fract_x
_atom_site_fract_y
_atom_site_fract_z
O1	O	0.410270	0.344536	0.014328
O2	O	0.340273	0.245965	-0.014246
O3	O	0.340269	0.344534	0.084325
O4	O	0.410273	0.245966	-0.084243
O5	O	0.260210	0.424594	0.084325
O6	O	0.260213	0.326025	-0.014246
O7	O	0.330210	0.424596	0.014328
Zn8	Zn	0.282500	0.388021	0.000041
Zn9	Zn	0.387983	0.282539	0.000041
O10	O	0.330214	0.326026	-0.084243
C11	C	0.462874	0.580014	0.029974
C12	C	0.433170	0.639423	0.025888
C13	C	0.433773	0.551184	0.030378
C14	C	0.550041	0.492848	0.029974
C15	C	0.613535	0.459058	0.025888
C16	C	0.520807	0.464150	0.030378
C17	C	0.462877	0.492844	0.029969
C18	C	0.433174	0.459050	0.025877
C19	C	0.520805	0.551188	0.030383
C20	C	0.409179	0.431747	0.022570
C21	C	0.409172	0.687418	0.022585
C22	C	0.664833	0.431758	0.022586
C23	C	0.379074	0.397494	0.018422
C24	C	0.379066	0.747630	0.018443
C25	C	0.729188	0.397510	0.018444
C26	C	0.207596	0.090568	-0.029860
C27	C	0.237299	0.031162	-0.025771
C28	C	0.149664	0.119397	-0.030265
C29	C	0.207598	0.177731	-0.029864
C30	C	0.237302	0.211521	-0.025779
C31	C	0.149666	0.206428	-0.030270
C32	C	0.120429	0.177735	-0.029859
C33	C	0.056934	0.211528	-0.025770
C34	C	0.236700	0.119394	-0.030270
C35	C	0.005635	0.238830	-0.022464
C36	C	0.261296	-0.016832	-0.022466
C37	C	0.261301	0.238820	-0.022478
C38	C	-0.058720	0.273081	-0.018318
C39	C	0.291402	-0.077042	-0.018320
C40	C	0.291408	0.273067	-0.018338
C41	C	0.462884	0.177727	-0.372321
C42	C	0.433179	0.211519	-0.402024
C43	C	0.520815	0.119388	-0.401425
C44	C	0.462885	0.177726	-0.285155
C45	C	0.433181	0.211518	-0.221660
C46	C	0.520816	0.119387	-0.314392
C47	C	0.550051	0.090559	-0.372323
C48	C	0.613546	0.031152	-0.402028
C49	C	0.433781	0.206423	-0.314390
C50	C	0.664845	-0.016843	-0.426026
C51	C	0.409182	0.238821	-0.426020
C52	C	0.409184	0.238819	-0.170361
C53	C	0.729200	-0.077055	-0.456133
C54	C	0.379075	0.273072	-0.456124
C55	C	0.379078	0.273068	-0.106005
O56	O	0.919518	0.326037	-0.014229
O57	O	0.750951	0.424610	0.014348
O58	O	0.849509	0.326035	-0.084224
O59	O	0.820959	0.424613	0.084343
O60	O	0.849508	0.245980	-0.084216
O61	O	0.750949	0.344555	0.014356
O62	O	0.919517	0.245982	-0.014221
Zn63	Zn	0.835233	0.282558	0.000069
Zn64	Zn	0.835234	0.388034	0.000058
O65	O	0.820958	0.344557	0.084351
O66	O	0.260207	0.905287	-0.014230
O67	O	0.330202	0.765298	0.014348
O68	O	0.330211	0.765281	-0.084224
O69	O	0.260198	0.905304	0.084343
O70	O	0.410269	0.765285	-0.084219
O71	O	0.410260	0.765302	0.014354
O72	O	0.340265	0.905291	-0.014224
Zn73	Zn	0.387973	0.835297	0.000066
Zn74	Zn	0.282494	0.835292	0.000058
O75	O	0.340256	0.905308	0.084348
O76	O	0.919529	-0.234728	-0.494943
O77	O	0.750964	-0.094726	-0.424938
O78	O	0.849526	-0.094722	-0.424934
O79	O	0.820967	-0.234731	-0.494947
O80	O	0.849524	-0.094720	-0.504993
O81	O	0.750962	-0.094724	-0.504997
O82	O	0.919527	-0.234726	-0.575001
Zn83	Zn	0.835244	-0.164724	-0.552710
Zn84	Zn	0.835247	-0.164727	-0.447229
O85	O	0.820965	-0.234729	-0.575005
O86	O	0.340269	0.344534	-0.574987
O87	O	0.410271	0.245969	-0.504989
O88	O	0.410269	0.344537	-0.504983
O89	O	0.340271	0.245966	-0.574994
O90	O	0.330208	0.424598	-0.424922
O91	O	0.330210	0.326030	-0.424928
O92	O	0.260209	0.424595	-0.494927
Zn93	Zn	0.282498	0.388024	-0.447216
Zn94	Zn	0.387981	0.282540	-0.552700
O95	O	0.260211	0.326027	-0.494933
C96	C	0.120430	0.580003	0.372405
C97	C	0.056935	0.639411	0.402109
C98	C	0.149665	0.551175	0.401508
C99	C	0.207597	0.492836	0.285238
C100	C	0.237301	0.459044	0.221742
C101	C	0.236700	0.464140	0.314473
C102	C	0.207597	0.492836	0.372404
C103	C	0.237301	0.459044	0.402107
C104	C	0.149666	0.551175	0.314474
C105	C	0.261298	0.431743	0.426103
C106	C	0.005636	0.687405	0.426107
C107	C	0.261298	0.431742	0.170444
C108	C	0.291404	0.397493	0.456209
C109	C	-0.058719	0.747617	0.456213
C110	C	0.291405	0.397492	0.106088
C111	C	0.865111	0.090557	-0.372295
C112	C	0.861020	0.031151	-0.401995
C113	C	0.865516	0.119382	-0.401401
C114	C	0.865119	0.177726	-0.285132
C115	C	0.861037	0.211521	-0.221636
C116	C	0.865524	0.206419	-0.314370
C117	C	0.865112	0.177720	-0.372301
C118	C	0.861022	0.211508	-0.402008
C119	C	0.865523	0.119388	-0.314364
C120	C	0.857717	0.238806	-0.426007
C121	C	0.857714	-0.016843	-0.425989
C122	C	0.857738	0.238825	-0.170338
C123	C	0.853571	0.273052	-0.456116
C124	C	0.853567	-0.077054	-0.456091
C125	C	0.853599	0.273078	-0.105983
C126	C	0.805355	0.492875	0.372429
C127	C	0.809445	0.459087	0.402136
C128	C	0.804951	0.551213	0.401528
C129	C	0.805348	0.492867	0.285259
C130	C	0.809430	0.459072	0.221764
C131	C	0.804944	0.551205	0.314491
C132	C	0.805356	0.580037	0.372422
C133	C	0.809447	0.639444	0.402121
C134	C	0.804943	0.464175	0.314498
C135	C	0.812754	0.687437	0.426115
C136	C	0.812750	0.431789	0.426136
C137	C	0.812730	0.431768	0.170465
C138	C	0.816901	0.747648	0.456216
C139	C	0.816896	0.397544	0.456245
C140	C	0.816868	0.397514	0.106110
C141	C	0.550079	0.492781	-0.372287
C142	C	0.613575	0.458989	-0.401986
C143	C	0.520848	0.464077	-0.401392
C144	C	0.462905	0.579961	-0.285127
C145	C	0.433194	0.639381	-0.221634
C146	C	0.433807	0.551124	-0.314364
C147	C	0.462916	0.492774	-0.372293
C148	C	0.433217	0.458974	-0.401997
C149	C	0.520837	0.551131	-0.314359
C150	C	0.409224	0.431666	-0.425995
C151	C	0.664874	0.431687	-0.425979
C152	C	0.409191	0.687385	-0.170337
C153	C	0.379124	0.397408	-0.456102
C154	C	0.729231	0.397436	-0.456080
C155	C	0.379078	0.747609	-0.105984
O156	O	0.820912	0.424564	-0.494934
O157	O	0.849481	0.326011	-0.424924
O158	O	0.750915	0.424576	-0.424921
O159	O	0.919478	0.325999	-0.494937
O160	O	0.750907	0.344512	-0.504977
O161	O	0.849474	0.245947	-0.504980
O162	O	0.820905	0.344501	-0.574990
Zn163	Zn	0.835188	0.282512	-0.552695
Zn164	Zn	0.835198	0.387999	-0.447218
O165	O	0.919471	0.245936	-0.574993
C166	C	0.207554	1.177812	0.372418
C167	C	0.237255	1.211609	0.402123
C168	C	0.149620	1.206513	0.401516
C169	C	0.207563	1.090628	0.285251
C170	C	0.237274	1.031209	0.221758
C171	C	0.149629	1.119462	0.314482
C172	C	0.120388	1.177811	0.372410
C173	C	0.056890	1.211607	0.402108
C174	C	0.236663	1.119462	0.314489
C175	C	0.005590	1.238912	0.426100
C176	C	0.261249	1.238914	0.426122
C177	C	0.261277	0.983204	0.170461
C178	C	-0.058768	1.273166	0.456200
C179	C	0.291352	1.273169	0.456230
C180	C	0.291390	0.922980	0.106108
H181	H	0.544283	0.417203	0.031028
Br182	Br	0.315995	1.079249	0.275369
Br183	Br	0.354434	0.591405	0.031487
H184	H	0.284300	0.095262	-0.030929
Br185	Br	0.354451	0.284671	-0.275263
H186	H	0.284296	0.417190	0.290995
H187	H	0.804286	0.417231	0.291031
Br188	Br	0.354466	0.591348	-0.275257
H189	H	0.804278	0.575333	0.291017
H190	H	0.544275	0.575316	0.031037
H191	H	0.866182	0.253362	-0.290899
H192	H	0.126196	0.095266	-0.030923
Br193	Br	0.559937	0.079168	-0.275277
Br194	Br	0.110539	0.284677	-0.031350
Br195	Br	0.559943	0.079184	-0.480754
H196	H	0.544312	0.575253	-0.290883
H197	H	0.804308	0.575335	0.449124
Br198	Br	0.110552	0.591395	0.480846
Br199	Br	0.110549	0.591389	0.275354
H200	H	0.866169	0.095249	-0.449000
H201	H	0.866134	0.095293	-0.290876
Br202	Br	0.559972	0.385828	-0.480725
Br203	Br	0.110508	1.079249	0.275357
H204	H	0.126148	1.253461	0.449115
