data_functionalizedCrystal
_audit_creation_method	'MofGen! by Chris Wilmer'
_symmetry_space_group_name_H-M	'P1'
_symmetry_Int_Tables_number	1
_symmetry_cell_setting	triclinic
loop_
_symmetry_equiv_pos_as_xyz
  x,y,z
_cell_length_a	10.489741
_cell_length_b	10.654541
_cell_length_c	9.130307
_cell_angle_alpha	90.003083
_cell_angle_beta	89.998831
_cell_angle_gamma	84.511551
loop_
_atom_site_label
_atom_site_type_symbol
_atom_site_fract_x
_atom_site_fract_y
_atom_site_fract_z
O1	O	-1.693961	-0.177190	-0.121708
O2	O	-1.322757	-0.193823	-0.121731
O3	O	-1.516896	-0.002771	-0.121710
O4	O	-1.499823	-0.368242	-0.121729
O5	O	-1.516889	-0.002769	0.121889
O6	O	-1.322751	-0.193821	0.121868
O7	O	-1.693955	-0.177188	0.121891
Cu8	Cu	-1.508352	-0.185504	0.144122
Cu9	Cu	-1.508360	-0.185507	-0.143962
O10	O	-1.499817	-0.368240	0.121870
C11	C	-1.515640	0.044029	0.000088
C12	C	-1.511891	0.183474	0.000086
C13	C	-1.275223	-0.192565	0.000066
C14	C	-1.133596	-0.188807	0.000057
C15	C	-1.741489	-0.178446	0.000091
C16	C	-1.883117	-0.182204	0.000090
C17	C	-1.065515	-0.067247	0.000077
C18	C	-0.973363	-0.124672	-0.120030
C19	C	-0.973391	-0.124699	0.120140
C20	C	-1.043309	-0.246282	-0.120149
C21	C	-1.043346	-0.246292	0.120129
C22	C	-0.951222	-0.303806	-0.000008
C23	C	-1.501073	-0.415040	0.000068
C24	C	-1.504821	-0.554485	0.000061
N25	N	-1.508356	-0.185502	0.346745
C26	C	-1.744036	0.211336	0.000119
C27	C	-1.858342	0.290777	0.000138
C28	C	-1.854812	0.421796	0.000133
C29	C	-1.736963	0.473377	0.000105
C30	C	-1.622657	0.393936	0.000085
C31	C	-1.626200	0.262915	0.000095
C32	C	-1.390515	0.366074	0.000042
C33	C	-1.394042	0.235054	0.000057
C34	C	-1.272666	0.417655	0.000014
C35	C	-1.158358	0.338214	0.000005
C36	C	-1.161893	0.207187	0.000011
C37	C	-1.279736	0.155614	0.000038
N38	N	-1.508366	-0.185499	-0.346585
C39	C	-1.680337	-0.016376	0.346753
C40	C	-1.766335	0.068184	0.423424
C41	C	-1.766348	0.068185	0.576758
C42	C	-1.680350	-0.016381	0.653424
C43	C	-1.594352	-0.100940	0.576753
C44	C	-1.594351	-0.100934	0.423416
C45	C	-1.422367	-0.270059	0.576744
C46	C	-1.422359	-0.270068	0.423411
C47	C	-1.336370	-0.354624	0.653410
C48	C	-1.250375	-0.439192	0.576739
C49	C	-1.250367	-0.439190	0.423397
C50	C	-1.336360	-0.354627	0.346740
H51	H	-1.115254	0.032684	-0.000068
H52	H	-1.074114	-0.297678	-0.221805
H53	H	-1.680345	-0.016378	0.221901
H54	H	-1.180356	-0.508033	0.639170
H55	H	-1.947890	0.486478	0.000137
H56	H	-0.942377	-0.073237	-0.221568
H57	H	-0.942436	-0.073241	0.221681
H58	H	-1.746922	0.104654	0.000142
H59	H	-1.954292	0.248765	0.000174
H60	H	-1.836371	0.137045	0.639183
H61	H	-1.734099	0.580061	0.000083
H62	H	-0.901749	-0.403842	-0.000078
H63	H	-1.074364	-0.297684	0.221672
H64	H	-1.269800	0.524339	0.000001
H65	H	-1.062414	0.380222	-0.000028
H66	H	-1.068810	0.142512	-0.000011
H67	H	-1.282626	0.048932	0.000052
H68	H	-1.836352	0.137039	0.360989
H69	H	-1.680355	-0.016364	0.778276
H70	H	-1.336378	-0.354615	0.778262
H71	H	-1.180332	-0.508044	0.360979
H72	H	-1.336366	-0.354623	0.221888
