data_functionalizedCrystal
_audit_creation_method	'MofGen! by Chris Wilmer'
_symmetry_space_group_name_H-M	'P1'
_symmetry_Int_Tables_number	1
_symmetry_cell_setting	triclinic
loop_
_symmetry_equiv_pos_as_xyz
  x,y,z
_cell_length_a	19.188933
_cell_length_b	23.532357
_cell_length_c	18.266242
_cell_angle_alpha	89.988103
_cell_angle_beta	89.992377
_cell_angle_gamma	82.986930
loop_
_atom_site_label
_atom_site_type_symbol
_atom_site_fract_x
_atom_site_fract_y
_atom_site_fract_z
O1	O	0.925906	0.071109	-0.060865
O2	O	1.259239	0.404442	0.272468
O3	O	1.592572	0.737776	0.605801
O4	O	0.722562	0.080679	-0.060873
O5	O	1.055895	0.414013	0.272460
O6	O	1.389229	0.747346	0.605793
O7	O	0.830384	-0.007027	-0.060854
O8	O	1.163717	0.326307	0.272479
O9	O	1.497051	0.659640	0.605813
O10	O	0.818084	0.158815	-0.060885
O11	O	1.151417	0.492148	0.272449
O12	O	1.484751	0.825481	0.605782
O13	O	0.830366	-0.007031	0.060908
O14	O	1.163699	0.326302	0.394241
O15	O	1.497032	0.659636	0.727575
O16	O	0.722544	0.080675	0.060889
O17	O	1.055877	0.414008	0.394222
O18	O	1.389211	0.747342	0.727555
O19	O	0.925888	0.071104	0.060897
O20	O	1.259221	0.404438	0.394230
O21	O	1.592554	0.737771	0.727563
Zn22	Zn	0.824213	0.075889	0.080225
Zn23	Zn	1.157546	0.409222	0.413558
Zn24	Zn	1.490880	0.742556	0.746892
Zn25	Zn	0.824237	0.075895	-0.080202
Zn26	Zn	1.157570	0.409228	0.253132
Zn27	Zn	1.490903	0.742561	0.586465
O28	O	0.818066	0.158810	0.060877
O29	O	1.151399	0.492144	0.394211
O30	O	1.484732	0.825477	0.727544
C31	C	0.696543	0.080367	0.000007
C32	C	1.029876	0.413700	0.333340
C33	C	1.363210	0.747034	0.666673
C34	C	0.619042	0.079436	0.000004
C35	C	0.952375	0.412769	0.333338
C36	C	1.285708	0.746103	0.666671
C37	C	0.065819	0.072794	-0.066359
C38	C	0.399152	0.406128	0.266974
C39	C	0.732486	0.739461	0.600308
C40	C	0.138640	0.073666	-0.066362
C41	C	0.471974	0.406999	0.266971
C42	C	0.805307	0.740332	0.600305
C43	C	0.175046	0.074102	0.000010
C44	C	0.508379	0.407435	0.333344
C45	C	0.841712	0.740768	0.666677
C46	C	0.138627	0.073651	0.066390
C47	C	0.471960	0.406985	0.399724
C48	C	0.805293	0.740318	0.733057
C49	C	0.065808	0.072774	0.066391
C50	C	0.399141	0.406108	0.399725
C51	C	0.732474	0.739441	0.733058
N52	N	0.283943	0.107885	0.049408
N53	N	0.617276	0.441218	0.382741
N54	N	0.950610	0.774552	0.716075
N55	N	0.353118	0.108719	0.049402
N56	N	0.686451	0.442053	0.382736
N57	N	1.019785	0.775386	0.716069
C58	C	0.394445	0.076743	0.000011
C59	C	0.727779	0.410076	0.333344
C60	C	1.061112	0.743409	0.666678
N61	N	0.363984	0.043908	-0.049386
N62	N	0.697317	0.377241	0.283948
N63	N	1.030650	0.710574	0.617281
N64	N	0.294802	0.043076	-0.049382
N65	N	0.628136	0.376409	0.283951
N66	N	0.961469	0.709742	0.617284
C67	C	0.254006	0.075052	0.000016
C68	C	0.587339	0.408386	0.333350
C69	C	0.920672	0.741719	0.666683
C70	C	0.509818	0.078133	-0.066368
C71	C	0.843151	0.411467	0.266965
C72	C	1.176484	0.744800	0.600298
C73	C	0.582641	0.079001	-0.066368
C74	C	0.915974	0.412335	0.266965
C75	C	1.249308	0.745668	0.600298
C76	C	0.582625	0.078993	0.066386
C77	C	0.915958	0.412326	0.399719
C78	C	1.249292	0.745659	0.733052
C79	C	0.509804	0.078119	0.066384
C80	C	0.843137	0.411453	0.399717
C81	C	1.176471	0.744786	0.733051
C82	C	0.473404	0.077692	0.000005
C83	C	0.806738	0.411026	0.333338
C84	C	1.140071	0.744359	0.666672
C85	C	0.830067	-0.028246	0.000029
C86	C	1.163401	0.305087	0.333363
C87	C	1.496734	0.638421	0.666696
C88	C	0.829142	-0.091467	0.000036
C89	C	1.162476	0.241867	0.333369
C90	C	1.495809	0.575200	0.666703
C91	C	0.823345	-0.483488	-0.066376
C92	C	1.156678	-0.150154	0.266957
C93	C	1.490012	0.183179	0.600290
C94	C	0.822466	-0.542889	-0.066380
C95	C	1.155799	-0.209556	0.266953
C96	C	1.489132	0.123778	0.600286
O97	O	0.821996	-0.573604	-0.122828
O98	O	1.155329	-0.240271	0.210506
O99	O	1.488662	0.093062	0.543839
N100	N	0.822020	-0.572604	-0.000009
N101	N	1.155353	-0.239270	0.333324
N102	N	1.488686	0.094063	0.666658
C103	C	0.822446	-0.542913	0.066371
C104	C	1.155779	-0.209580	0.399705
C105	C	1.489113	0.123754	0.733038
O106	O	0.821985	-0.573642	0.122825
O107	O	1.155319	-0.240309	0.456158
O108	O	1.488652	0.093025	0.789492
C109	C	0.823320	-0.483512	0.066375
C110	C	1.156654	-0.150179	0.399708
C111	C	1.489987	0.183154	0.733041
C112	C	0.823773	-0.453802	-0.000001
C113	C	1.157107	-0.120468	0.333332
C114	C	1.490440	0.212865	0.666665
C115	C	0.823797	-0.453777	-0.132747
C116	C	1.157131	-0.120444	0.200587
C117	C	1.490464	0.212890	0.533920
C118	C	0.824678	-0.394380	-0.132742
C119	C	1.158011	-0.061046	0.200591
C120	C	1.491344	0.272287	0.533924
C121	C	0.825106	-0.364694	-0.066367
C122	C	1.158440	-0.031360	0.266966
C123	C	1.491773	0.301973	0.600299
C124	C	0.824654	-0.394404	0.000003
C125	C	1.157987	-0.061071	0.333337
C126	C	1.491321	0.272262	0.666670
C127	C	0.823742	-0.453822	0.132754
C128	C	1.157075	-0.120489	0.466087
C129	C	1.490408	0.212845	0.799421
C130	C	0.824615	-0.394417	0.132752
C131	C	1.157949	-0.061084	0.466085
C132	C	1.491282	0.272249	0.799418
C133	C	0.825068	-0.364707	0.066376
C134	C	1.158402	-0.031373	0.399709
C135	C	1.491735	0.301960	0.733042
C136	C	0.825963	-0.305321	0.066383
C137	C	1.159296	0.028012	0.399716
C138	C	1.492630	0.361346	0.733049
N139	N	0.826409	-0.275607	0.000011
N140	N	1.159742	0.057727	0.333345
N141	N	1.493075	0.391060	0.666678
C142	C	0.825980	-0.305293	-0.066364
C143	C	1.159314	0.028041	0.266970
C144	C	1.492647	0.361374	0.600303
C145	C	0.820609	-0.667658	0.066359
C146	C	1.153942	-0.334325	0.399692
C147	C	1.487275	-0.000992	0.733026
C148	C	0.819740	-0.727059	0.066356
C149	C	1.153073	-0.393725	0.399690
C150	C	1.486406	-0.060392	0.733023
C151	C	0.819758	-0.727031	-0.066396
C152	C	1.153091	-0.393697	0.266938
C153	C	1.486425	-0.060364	0.600271
C154	C	0.820632	-0.667630	-0.066392
C155	C	1.153966	-0.334296	0.266941
C156	C	1.487299	-0.000963	0.600274
C157	C	0.821055	-0.637944	-0.000013
C158	C	1.154388	-0.304611	0.333321
C159	C	1.487721	0.028723	0.666654
C160	C	0.827830	-0.180555	-0.066349
C161	C	1.161164	0.152779	0.266984
C162	C	1.494497	0.486112	0.600317
C163	C	0.828714	-0.121153	-0.066339
C164	C	1.162047	0.212181	0.266994
C165	C	1.495381	0.545514	0.600328
C166	C	0.828692	-0.121186	0.066412
C167	C	1.162025	0.212148	0.399746
C168	C	1.495358	0.545481	0.733079
C169	C	0.827812	-0.180583	0.066403
C170	C	1.161145	0.152750	0.399736
C171	C	1.494479	0.486084	0.733069
C172	C	0.827379	-0.210266	0.000016
C173	C	1.160712	0.123068	0.333349
C174	C	1.494046	0.456401	0.666682
O175	O	0.826431	-0.274568	0.122801
O176	O	1.159764	0.058766	0.456134
O177	O	1.493097	0.392099	0.789468
O178	O	0.826432	-0.274556	-0.122808
O179	O	1.159765	0.058778	0.210525
O180	O	1.493099	0.392111	0.543859
C181	C	0.951907	0.071417	0.000015
C182	C	1.285240	0.404750	0.333348
C183	C	1.618573	0.738083	0.666681
C184	C	1.029408	0.072348	0.000012
C185	C	1.362741	0.405681	0.333346
C186	C	1.696075	0.739014	0.666679
C187	C	0.818382	0.180030	-0.000008
C188	C	1.151716	0.513363	0.333326
C189	C	1.485049	0.846696	0.666659
C190	C	0.819307	0.243250	-0.000019
C191	C	1.152641	0.576584	0.333314
C192	C	1.485974	0.909917	0.666647
N193	N	0.824202	0.075885	0.189712
N194	N	1.157535	0.409218	0.523045
N195	N	1.490868	0.742551	0.856379
N196	N	0.824254	0.075895	-0.189689
N197	N	1.157587	0.409228	0.143645
N198	N	1.490920	0.742561	0.476978
C199	C	0.871961	0.037067	0.228029
C200	C	1.205294	0.370401	0.561363
C201	C	1.538627	0.703734	0.894696
C202	C	0.871965	0.037065	0.304674
C203	C	1.205298	0.370398	0.638008
C204	C	1.538632	0.703731	0.971341
C205	C	0.824217	0.075889	0.342999
C206	C	1.157551	0.409222	0.676332
C207	C	1.490884	0.742556	1.009665
C208	C	0.776449	0.114709	0.304672
C209	C	1.109783	0.448043	0.638005
C210	C	1.443116	0.781376	0.971339
C211	C	0.776441	0.114707	0.228029
C212	C	1.109775	0.448040	0.561362
C213	C	1.443108	0.781374	0.894695
N214	N	0.814970	0.126305	0.463322
N215	N	1.148303	0.459639	0.796655
N216	N	1.481636	0.792972	1.129988
N217	N	0.814981	0.126306	0.536130
N218	N	1.148314	0.459639	0.869463
N219	N	1.481648	0.792972	1.202796
C220	C	0.824237	0.075897	0.573921
C221	C	1.157570	0.409231	0.907254
C222	C	1.490903	0.742564	1.240588
N223	N	0.833494	0.025487	0.536154
N224	N	1.166827	0.358820	0.869487
N225	N	1.500161	0.692153	1.202821
N226	N	0.833486	0.025487	0.463339
N227	N	1.166819	0.358820	0.796673
N228	N	1.500153	0.692154	1.130006
C229	C	0.824220	0.075896	0.426106
C230	C	1.157553	0.409229	0.759439
C231	C	1.490887	0.742562	1.092772
C232	C	0.872003	0.037074	0.695346
C233	C	1.205336	0.370407	1.028679
C234	C	1.538670	0.703741	1.362012
C235	C	0.872003	0.037071	0.771992
C236	C	1.205336	0.370404	1.105325
C237	C	1.538669	0.703737	1.438659
C238	C	0.776490	0.114720	0.771989
C239	C	1.109824	0.448053	1.105322
C240	C	1.443157	0.781387	1.438655
C241	C	0.776487	0.114719	0.695344
C242	C	1.109821	0.448052	1.028677
C243	C	1.443154	0.781385	1.362010
C244	C	0.824247	0.075896	0.657027
C245	C	1.157581	0.409229	0.990360
C246	C	1.490914	0.742563	1.323694
H247	H	0.168291	0.074033	-0.120411
H248	H	0.501625	0.407366	0.212922
H249	H	0.834958	0.740699	0.546256
O250	O	0.829218	-0.092385	0.130909
O251	O	1.162551	0.240949	0.464242
O252	O	1.495885	0.574282	0.797575
C253	C	0.889455	-0.113514	0.171320
C254	C	1.222789	0.219820	0.504653
C255	C	1.556122	0.553153	0.837987
H256	H	0.931507	-0.134448	0.132500
H257	H	1.264840	0.198885	0.465833
H258	H	1.598174	0.532218	0.799167
H259	H	0.910310	-0.076668	0.201439
H260	H	1.243643	0.256665	0.534772
H261	H	1.576977	0.589999	0.868106
H262	H	0.875260	-0.146508	0.212698
H263	H	1.208593	0.186825	0.546032
H264	H	1.541926	0.520158	0.879365
H265	H	0.910857	0.005454	0.335878
H266	H	1.244191	0.338787	0.669211
H267	H	1.577524	0.672121	1.002545
O268	O	0.825120	-0.365532	0.197191
O269	O	1.158454	-0.032198	0.530524
O270	O	1.491787	0.301135	0.863857
C271	C	0.886113	-0.337791	0.201189
C272	C	1.219447	-0.004458	0.534523
C273	C	1.552780	0.328876	0.867856
H274	H	0.906421	-0.331077	0.143566
H275	H	1.239755	0.002256	0.476899
H276	H	1.573088	0.335590	0.810233
H277	H	0.873122	-0.294543	0.229291
H278	H	1.206455	0.038790	0.562624
H279	H	1.539789	0.372123	0.895958
H280	H	0.928116	-0.365319	0.233944
H281	H	1.261449	-0.031986	0.567278
H282	H	1.594782	0.301348	0.900611
H283	H	0.168273	0.074005	0.120431
H284	H	0.501606	0.407339	0.453764
H285	H	0.834939	0.740672	0.787098
H286	H	0.480180	0.077784	-0.120418
H287	H	0.813513	0.411117	0.212915
H288	H	1.146847	0.744451	0.546249
O289	O	0.618069	0.079339	0.130815
O290	O	0.951403	0.412672	0.464148
O291	O	1.284736	0.746005	0.797481
C292	C	0.668437	0.030523	0.134800
C293	C	1.001771	0.363856	0.468133
C294	C	1.335104	0.697190	0.801467
H295	H	0.682108	0.014219	0.077173
H296	H	1.015441	0.347552	0.410506
H297	H	1.348774	0.680886	0.743840
H298	H	0.717783	0.042225	0.162892
H299	H	1.051116	0.375559	0.496225
H300	H	1.384450	0.708892	0.829559
H301	H	0.646152	-0.004348	0.167557
H302	H	0.979485	0.328985	0.500890
H303	H	1.312819	0.662319	0.834224
O304	O	0.918498	-0.000545	0.658111
O305	O	1.251832	0.332788	0.991444
O306	O	1.585165	0.666122	1.324778
C307	C	0.961333	0.029899	0.613781
C308	C	1.294666	0.363232	0.947114
C309	C	1.627999	0.696566	1.280447
H310	H	0.962124	0.074819	0.636865
H311	H	1.295457	0.408153	0.970199
H312	H	1.628791	0.741486	1.303532
H313	H	1.017013	0.006587	0.612952
H314	H	1.350346	0.339921	0.946285
H315	H	1.683680	0.673254	1.279618
H316	H	0.939500	0.032908	0.555680
H317	H	1.272833	0.366241	0.889013
H318	H	1.606167	0.699575	1.222347
H319	H	0.480158	0.077757	0.120431
H320	H	0.813491	0.411091	0.453764
H321	H	1.146824	0.744424	0.787098
O322	O	0.827430	-0.209297	-0.130902
O323	O	1.160764	0.124036	0.202432
O324	O	1.494097	0.457369	0.535765
C325	C	0.827993	-0.170324	-0.189473
C326	C	1.161327	0.163010	0.143860
C327	C	1.494660	0.496343	0.477193
H328	H	0.850736	-0.130406	-0.170006
H329	H	1.184070	0.202927	0.163327
H330	H	1.517403	0.536260	0.496661
H331	H	0.861636	-0.191177	-0.235907
H332	H	1.194969	0.142156	0.097427
H333	H	1.528302	0.475489	0.430760
H334	H	0.772065	-0.157873	-0.209870
H335	H	1.105399	0.175461	0.123463
H336	H	1.438732	0.508794	0.456796
O337	O	0.823416	-0.482524	-0.197294
O338	O	1.156749	-0.149191	0.136039
O339	O	1.490083	0.184142	0.469372
C340	C	0.823984	-0.443549	-0.255864
C341	C	1.157317	-0.110216	0.077469
C342	C	1.490651	0.223117	0.410803
H343	H	0.846707	-0.403626	-0.236387
H344	H	1.180040	-0.070292	0.096946
H345	H	1.513374	0.263041	0.430279
H346	H	0.857646	-0.464396	-0.302287
H347	H	1.190979	-0.131063	0.031046
H348	H	1.524313	0.202270	0.364380
H349	H	0.768060	-0.431110	-0.276279
H350	H	1.101393	-0.097777	0.057054
H351	H	1.434726	0.235556	0.390388
H352	H	0.737571	0.146320	0.335880
H353	H	1.070904	0.479653	0.669213
H354	H	1.404238	0.812986	1.002546
H355	H	0.036162	0.072413	0.120441
H356	H	0.369495	0.405746	0.453774
H357	H	0.702828	0.739079	0.787107
O358	O	0.820933	-0.638876	0.130891
O359	O	1.154267	-0.305543	0.464224
O360	O	1.487600	0.027790	0.797557
C361	C	0.760228	-0.646787	0.171258
C362	C	1.093562	-0.313453	0.504591
C363	C	1.426895	0.019880	0.837924
H364	H	0.739432	-0.687709	0.152375
H365	H	1.072766	-0.354375	0.485708
H366	H	1.406099	-0.021042	0.819041
H367	H	0.773793	-0.650321	0.231979
H368	H	1.107126	-0.316988	0.565312
H369	H	1.440459	0.016345	0.898645
H370	H	0.718373	-0.608728	0.162063
H371	H	1.051707	-0.275395	0.495396
H372	H	1.385040	0.057938	0.828730
H373	H	0.612286	0.079361	-0.120418
H374	H	0.945620	0.412694	0.212915
H375	H	1.278953	0.746027	0.546249
H376	H	0.829084	-0.096965	-0.120393
H377	H	1.162418	0.236368	0.212941
H378	H	1.495751	0.569702	0.546274
O379	O	0.730023	0.152473	0.190917
O380	O	1.063356	0.485807	0.524250
O381	O	1.396689	0.819140	0.857584
C382	C	0.687863	0.186730	0.241174
C383	C	1.021197	0.520064	0.574507
C384	C	1.354530	0.853397	0.907841
H385	H	0.716485	0.187317	0.295803
H386	H	1.049818	0.520651	0.629136
H387	H	1.383152	0.853984	0.962469
H388	H	0.676882	0.232235	0.219018
H389	H	1.010216	0.565568	0.552351
H390	H	1.343549	0.898902	0.885684
H391	H	0.636133	0.168341	0.249340
H392	H	0.969467	0.501674	0.582673
H393	H	1.302800	0.835008	0.916007
O394	O	0.730135	0.152512	0.809128
O395	O	1.063469	0.485845	1.142461
O396	O	1.396802	0.819178	1.475794
C397	C	0.741086	0.208869	0.790394
C398	C	1.074420	0.542202	1.123728
C399	C	1.407753	0.875535	1.457061
H400	H	0.767994	0.208744	0.734740
H401	H	1.101327	0.542078	1.068073
H402	H	1.434660	0.875411	1.401407
H403	H	0.688404	0.237021	0.787776
H404	H	1.021737	0.570355	1.121110
H405	H	1.355070	0.903688	1.454443
H406	H	0.775715	0.226412	0.833517
H407	H	1.109048	0.559745	1.166851
H408	H	1.442382	0.893078	1.500184
H409	H	0.825044	-0.370194	-0.186792
H410	H	1.158377	-0.036861	0.146541
H411	H	1.491711	0.296472	0.479874
O412	O	0.821035	-0.638855	-0.130934
O413	O	1.154368	-0.305522	0.202399
O414	O	1.487701	0.027812	0.535732
C415	C	0.820490	-0.677804	-0.189514
C416	C	1.153823	-0.344471	0.143819
C417	C	1.487157	-0.011138	0.477153
H418	H	0.797758	-0.717736	-0.170053
H419	H	1.131092	-0.384403	0.163280
H420	H	1.464425	-0.051070	0.496614
H421	H	0.786847	-0.656937	-0.235940
H422	H	1.120180	-0.323604	0.097394
H423	H	1.453513	0.009730	0.430727
H424	H	0.876422	-0.690235	-0.209919
H425	H	1.209756	-0.356902	0.123414
H426	H	1.543089	-0.023568	0.456748
O427	O	0.827257	-0.209413	0.130894
O428	O	1.160590	0.123920	0.464228
O429	O	1.493923	0.457253	0.797561
C430	C	0.767000	-0.188289	0.171284
C431	C	1.100333	0.145044	0.504617
C432	C	1.433667	0.478378	0.837950
H433	H	0.724977	-0.167330	0.132450
H434	H	1.058311	0.166004	0.465783
H435	H	1.391644	0.499337	0.799117
H436	H	0.746115	-0.225141	0.201384
H437	H	1.079448	0.108192	0.534717
H438	H	1.412781	0.441525	0.868051
H439	H	0.781182	-0.155315	0.212677
H440	H	1.114515	0.178018	0.546010
H441	H	1.447849	0.511352	0.879343
H442	H	0.910848	0.005455	0.196834
H443	H	1.244181	0.338788	0.530167
H444	H	1.577515	0.672121	0.863501
H445	H	0.823374	-0.478003	0.186804
H446	H	1.156707	-0.144669	0.520138
H447	H	1.490041	0.188664	0.853471
H448	H	0.819407	-0.751212	-0.120442
H449	H	1.152740	-0.417878	0.212891
H450	H	1.486074	-0.084545	0.546225
O451	O	0.030575	0.072347	-0.130903
O452	O	0.363908	0.405681	0.202431
O453	O	0.697242	0.739014	0.535764
C454	C	0.078332	0.072941	-0.189485
C455	C	0.411665	0.406274	0.143848
C456	C	0.744999	0.739608	0.477182
H457	H	0.133259	0.055542	-0.170022
H458	H	0.466592	0.388876	0.163311
H459	H	0.799925	0.722209	0.496645
H460	H	0.061933	0.045044	-0.235902
H461	H	0.395267	0.378377	0.097431
H462	H	0.728600	0.711711	0.430765
H463	H	0.078422	0.118715	-0.209903
H464	H	0.411755	0.452049	0.123431
H465	H	0.745089	0.785382	0.456764
H466	H	0.819381	-0.751245	0.120406
H467	H	1.152715	-0.417912	0.453739
H468	H	1.486048	-0.084579	0.787073
H469	H	0.910892	0.005458	0.803191
H470	H	1.244225	0.338791	1.136524
H471	H	1.577558	0.672125	1.469857
H472	H	0.737600	0.146329	0.664144
H473	H	1.070934	0.479663	0.997477
H474	H	1.404267	0.812996	1.330810
