data_functionalizedCrystal
_audit_creation_method	'MofGen! by Chris Wilmer'
_symmetry_space_group_name_H-M	'P1'
_symmetry_Int_Tables_number	1
_symmetry_cell_setting	triclinic
loop_
_symmetry_equiv_pos_as_xyz
  x,y,z
_cell_length_a	14.908571
_cell_length_b	18.215406
_cell_length_c	18.215399
_cell_angle_alpha	89.984834
_cell_angle_beta	86.687722
_cell_angle_gamma	86.697668
loop_
_atom_site_label
_atom_site_type_symbol
_atom_site_fract_x
_atom_site_fract_y
_atom_site_fract_z
Zn1	Zn	1.379369	-0.358024	-0.481003
Zn2	Zn	1.379321	-0.481092	-0.357962
Zn3	Zn	1.228502	-0.350934	-0.350861
Zn4	Zn	1.228523	-0.473941	-0.473901
O5	O	1.303929	-0.415998	-0.415932
O6	O	1.505611	-0.380309	-0.470626
O7	O	1.359285	-0.463852	-0.254035
O8	O	1.248526	-0.248891	-0.368125
O9	O	1.505575	-0.470727	-0.380229
O10	O	1.359368	-0.254099	-0.463740
O11	O	1.248479	-0.368225	-0.248817
O12	O	1.102257	-0.361291	-0.361238
O13	O	1.248563	-0.458539	-0.577829
O14	O	1.102273	-0.451664	-0.451635
O15	O	1.359389	-0.373374	-0.583047
O16	O	1.359306	-0.583128	-0.373341
O17	O	1.248516	-0.577873	-0.458521
C18	C	1.069530	-0.404933	-0.404895
C19	C	0.969254	-0.400217	-0.400191
C20	C	1.303950	-0.224046	-0.415933
C21	C	1.303959	-0.142247	-0.415933
C22	C	1.303932	-0.607204	-0.415948
C23	C	1.304016	-0.689007	-0.415983
C24	C	0.780888	-0.485606	-0.485356
C25	C	0.686669	-0.481177	-0.480939
C26	C	0.686595	-0.386927	-0.386944
C27	C	0.780814	-0.391356	-0.391361
C28	C	0.827957	-0.440698	-0.440568
C29	C	0.922178	-0.445130	-0.444981
C30	C	0.922102	-0.350876	-0.350991
C31	C	0.827883	-0.346448	-0.346573
C32	C	1.539243	-0.427106	-0.427012
C33	C	1.639519	-0.431840	-0.431734
C34	C	1.303984	-0.415950	-0.607887
C35	C	1.304007	-0.415929	-0.689687
C36	C	1.246272	0.048659	-0.366174
C37	C	1.246280	0.125517	-0.366184
C38	C	1.361705	0.120082	-0.465748
C39	C	1.361693	0.043225	-0.465741
C40	C	1.303978	0.007515	-0.415951
C41	C	1.303998	0.161230	-0.415966
C42	C	1.304006	0.244564	-0.415977
C43	C	1.303968	-0.075823	-0.415941
C44	C	1.361735	-0.371541	-0.880601
C45	C	1.361746	-0.371520	-0.957460
C46	C	1.246343	-0.460206	-0.952015
C47	C	1.246328	-0.460223	-0.875157
C48	C	1.304029	-0.415891	-0.839452
C49	C	1.304055	-0.415854	-0.993169
C50	C	1.304066	-0.415832	-1.076504
C51	C	1.304017	-0.415913	-0.756113
C52	C	1.303926	-0.415995	-0.224726
C53	C	1.304077	-0.415816	-0.142934
H54	H	0.960560	-0.485308	-0.485047
H55	H	0.819273	-0.525786	-0.525418
H56	H	1.199331	-0.496337	-0.841652
H57	H	1.408683	0.009725	-0.506280
C58	C	0.776021	-0.292180	-0.292447
H59	H	0.713166	-0.295977	-0.296226
H60	H	0.791459	-0.243471	-0.304007
H61	H	0.791436	-0.303626	-0.243705
H62	H	1.408716	-0.335442	-0.851532
C63	C	1.425226	-0.322738	-1.002721
H64	H	1.459590	-0.296345	-0.970446
H65	H	1.390727	-0.289036	-1.031077
H66	H	1.464540	-0.352744	-1.034555
C67	C	0.634891	-0.530576	-0.530202
H68	H	0.572026	-0.520869	-0.520530
H69	H	0.650336	-0.580736	-0.520085
H70	H	0.650360	-0.520587	-0.580393
C71	C	0.973876	-0.301477	-0.301717
H72	H	0.932302	-0.271463	-0.271776
H73	H	1.010647	-0.271174	-0.331634
H74	H	1.010610	-0.331326	-0.271329
H75	H	1.199275	0.019586	-0.325633
C76	C	1.182808	0.170771	-0.311427
H77	H	1.148441	0.138494	-0.281771
H78	H	1.143511	0.202615	-0.337729
H79	H	1.217321	0.199117	-0.280987
H80	H	1.199367	-0.496301	-0.981095
H81	H	0.648195	-0.346751	-0.346887
H82	H	1.408697	0.149164	-0.506285
