data_functionalizedCrystal
_audit_creation_method	'MofGen! by Chris Wilmer'
_symmetry_space_group_name_H-M	'P1'
_symmetry_Int_Tables_number	1
_symmetry_cell_setting	triclinic
loop_
_symmetry_equiv_pos_as_xyz
  x,y,z
_cell_length_a	12.827893
_cell_length_b	16.959454
_cell_length_c	12.827885
_cell_angle_alpha	89.970356
_cell_angle_beta	89.980728
_cell_angle_gamma	90.020236
loop_
_atom_site_label
_atom_site_type_symbol
_atom_site_fract_x
_atom_site_fract_y
_atom_site_fract_z
Zn1	Zn	1.597636	-0.314640	-0.590850
Zn2	Zn	2.097636	0.185360	-0.090850
Zn3	Zn	1.597515	-0.446839	-0.416110
Zn4	Zn	2.097515	0.053161	0.083890
Zn5	Zn	1.422877	-0.314679	-0.416123
Zn6	Zn	1.922877	0.185321	0.083877
Zn7	Zn	1.422848	-0.446781	-0.590810
Zn8	Zn	1.922848	0.053219	-0.090810
O9	O	1.510219	-0.380735	-0.503473
O10	O	2.010219	0.119265	-0.003473
O11	O	1.743856	-0.332185	-0.567681
O12	O	2.243856	0.167815	-0.067681
O13	O	1.574311	-0.429348	-0.269876
O14	O	2.074311	0.070652	0.230124
O15	O	1.446122	-0.204063	-0.439323
O16	O	1.946122	0.295937	0.060677
O17	O	1.743767	-0.429311	-0.439301
O18	O	2.243767	0.070689	0.060699
O19	O	1.574516	-0.204034	-0.567694
O20	O	2.074516	0.295966	-0.067694
O21	O	1.446005	-0.332251	-0.269885
O22	O	1.946005	0.167749	0.230115
O23	O	1.276637	-0.332194	-0.439285
O24	O	1.776637	0.167806	0.060715
O25	O	1.446072	-0.429211	-0.737052
O26	O	1.946072	0.070789	-0.237052
O27	O	1.276616	-0.429249	-0.567627
O28	O	1.776616	0.070751	-0.067627
O29	O	1.574488	-0.332128	-0.737081
O30	O	2.074488	0.167872	-0.237081
O31	O	1.574283	-0.557442	-0.439263
O32	O	2.074283	-0.057442	0.060737
O33	O	1.445956	-0.557399	-0.567614
O34	O	1.945956	-0.057399	-0.067614
C35	C	1.238709	-0.380720	-0.503454
C36	C	1.738709	0.119280	-0.003454
C37	C	1.122556	-0.380733	-0.503470
C38	C	1.622556	0.119267	-0.003470
C39	C	1.070815	-0.332757	-0.567095
C40	C	1.570815	0.167243	-0.067095
C41	C	0.950764	-0.332769	-0.567114
C42	C	1.450764	0.167231	-0.067114
C43	C	1.510131	-0.586101	-0.503456
C44	C	2.010131	-0.086101	-0.003456
C45	C	1.510190	-0.673957	-0.503483
C46	C	2.010190	-0.173957	-0.003483
C47	C	1.443496	-1.045441	-0.570299
C48	C	1.943496	-0.545441	-0.070299
C49	C	1.577233	-1.045425	-0.436755
C50	C	2.077233	-0.545425	0.063245
C51	C	1.577197	-0.962879	-0.436745
C52	C	2.077197	-0.462879	0.063255
C53	C	1.510308	-0.921610	-0.503512
C54	C	2.010308	-0.421610	-0.003512
C55	C	1.443455	-0.962887	-0.570289
C56	C	1.943455	-0.462887	-0.070289
C57	C	1.644041	-0.921597	-0.369962
C58	C	2.144041	-0.421597	0.130038
C59	C	1.644006	-0.839046	-0.369949
C60	C	2.144006	-0.339046	0.130051
C61	C	1.577121	-0.797775	-0.436722
C62	C	2.077121	-0.297775	0.063278
C63	C	1.510267	-0.839057	-0.503502
C64	C	2.010267	-0.339057	-0.003502
C65	C	1.443378	-0.797788	-0.570270
C66	C	1.943378	-0.297788	-0.070270
C67	C	1.376528	-0.839068	-0.637056
C68	C	1.876528	-0.339068	-0.137056
C69	C	1.376571	-0.921616	-0.637062
C70	C	1.876571	-0.421616	-0.137062
C71	C	1.577079	-0.715227	-0.436716
C72	C	2.077079	-0.215227	0.063284
C73	C	1.443337	-0.715234	-0.570260
C74	C	1.943337	-0.215234	-0.070260
C75	C	1.782789	-0.380750	-0.503494
C76	C	2.282789	0.119250	-0.003494
C77	C	1.898942	-0.380756	-0.503503
C78	C	2.398942	0.119244	-0.003503
C79	C	1.510290	-0.380659	-0.776044
C80	C	2.010290	0.119341	-0.276044
C81	C	1.510320	-0.380626	-0.892197
C82	C	2.010320	0.119374	-0.392197
C83	C	1.510335	-0.174566	-0.503514
C84	C	2.010335	0.325434	-0.003514
C85	C	1.510385	-0.086710	-0.503532
C86	C	2.010385	0.413290	-0.003532
C87	C	1.573871	-0.332577	-0.943996
C88	C	2.073871	0.167423	-0.443996
C89	C	1.573904	-0.332543	-1.064046
C90	C	2.073904	0.167457	-0.564046
C91	C	1.510208	-0.380753	-0.231964
C92	C	2.010208	0.119247	0.268036
C93	C	1.510380	-0.380563	-0.115811
C94	C	2.010380	0.119437	0.384189
H95	H	1.077977	-0.421814	-0.449009
H96	H	1.577977	0.078186	0.050991
Cl97	Cl	1.426376	-0.444085	-1.047048
Cl98	Cl	1.926376	0.055915	-0.547048
Cl99	Cl	0.882071	-0.269355	-0.651225
Cl100	Cl	1.382071	0.230645	-0.151225
H101	H	1.388871	-0.681638	-0.624634
H102	H	1.888871	-0.181638	-0.124634
H103	H	1.322061	-0.805457	-0.691414
H104	H	1.822061	-0.305457	-0.191414
H105	H	1.455930	-0.421732	-0.936727
H106	H	1.955930	0.078268	-0.436727
H107	H	1.115394	-0.291671	-0.621550
H108	H	1.615394	0.208329	-0.121550
H109	H	0.943432	-0.421837	-0.449034
H110	H	1.443432	0.078163	0.050966
Cl111	Cl	1.292537	-0.973516	-0.721012
Cl112	Cl	1.792537	-0.473516	-0.221012
H113	H	1.389071	-1.079055	-0.624678
H114	H	1.889071	-0.579055	-0.124678
H115	H	1.631685	-1.079032	-0.382389
H116	H	2.131685	-0.579032	0.117611
H117	H	1.698490	-0.955204	-0.315596
H118	H	2.198490	-0.455204	0.184404
H119	H	1.628252	-0.291463	-0.899466
H120	H	2.128252	0.208537	-0.399466
H121	H	1.698439	-0.805440	-0.315569
H122	H	2.198439	-0.305440	0.184431
Cl123	Cl	1.661100	-0.663335	-0.352752
Cl124	Cl	2.161100	-0.163335	0.147248
H125	H	1.628316	-0.291408	-1.108592
H126	H	2.128316	0.208592	-0.608592
