data_functionalizedCrystal
_audit_creation_method	'MofGen! by Chris Wilmer'
_symmetry_space_group_name_H-M	'P1'
_symmetry_Int_Tables_number	1
_symmetry_cell_setting	triclinic
loop_
_symmetry_equiv_pos_as_xyz
  x,y,z
_cell_length_a	10.686220
_cell_length_b	16.959454
_cell_length_c	10.685880
_cell_angle_alpha	94.340455
_cell_angle_beta	89.641569
_cell_angle_gamma	94.401635
loop_
_atom_site_label
_atom_site_type_symbol
_atom_site_fract_x
_atom_site_fract_y
_atom_site_fract_z
Zn1	Zn	1.972221	-0.246741	-0.562379
Zn2	Zn	2.472221	0.253259	-0.062379
Zn3	Zn	1.955987	-0.369655	-0.352630
Zn4	Zn	2.455987	0.130345	0.147370
Zn5	Zn	1.746350	-0.248352	-0.368702
Zn6	Zn	2.246350	0.251648	0.131298
Zn7	Zn	1.762401	-0.389746	-0.578402
Zn8	Zn	2.262401	0.110254	-0.078402
O9	O	1.859240	-0.313624	-0.465528
O10	O	2.359240	0.186376	0.034472
O11	O	2.145611	-0.253964	-0.521124
O12	O	2.645611	0.246036	-0.021124
O13	O	1.914666	-0.345830	-0.179220
O14	O	2.414666	0.154170	0.320780
O15	O	1.776390	-0.137525	-0.394414
O16	O	2.276390	0.362475	0.105586
O17	O	2.133684	-0.344268	-0.367022
O18	O	2.633684	0.155732	0.132978
O19	O	1.942336	-0.136341	-0.536708
O20	O	2.442336	0.363659	-0.036708
O21	O	1.760648	-0.256709	-0.191028
O22	O	2.260648	0.243291	0.308972
O23	O	1.572936	-0.276191	-0.409951
O24	O	2.072936	0.223809	0.090049
O25	O	1.803746	-0.378510	-0.751818
O26	O	2.303746	0.121490	-0.251818
O27	O	1.584728	-0.380072	-0.564017
O28	O	2.084728	0.119928	-0.064017
O29	O	1.957899	-0.273445	-0.740046
O30	O	2.457899	0.226555	-0.240046
O31	O	1.930230	-0.482934	-0.382558
O32	O	2.430230	0.017066	0.117442
O33	O	1.788004	-0.497695	-0.548432
O34	O	2.288004	0.002305	-0.048432
C35	C	1.533315	-0.330487	-0.490467
C36	C	2.033315	0.169513	0.009533
C37	C	1.393886	-0.337722	-0.501166
C38	C	1.893886	0.162278	-0.001166
C39	C	1.859133	-0.518994	-0.465515
C40	C	2.359133	-0.018994	0.034485
C41	C	1.859205	-0.606849	-0.465542
C42	C	2.359205	-0.106849	0.034458
C43	C	1.785298	-0.986032	-0.551881
C44	C	2.285298	-0.486032	-0.051881
C45	C	1.933541	-0.970600	-0.379276
C46	C	2.433541	-0.470600	0.120724
C47	C	1.933496	-0.888056	-0.379268
C48	C	2.433496	-0.388056	0.120732
C49	C	1.859350	-0.854496	-0.465566
C50	C	2.359350	-0.354496	0.034434
C51	C	1.785248	-0.903480	-0.551873
C52	C	2.285248	-0.403480	-0.051873
C53	C	2.007586	-0.839066	-0.292954
C54	C	2.507586	-0.339066	0.207046
C55	C	2.007543	-0.756516	-0.292942
C56	C	2.507543	-0.256516	0.207058
C57	C	1.933403	-0.722955	-0.379247
C58	C	2.433403	-0.222955	0.120753
C59	C	1.859300	-0.771944	-0.465558
C60	C	2.359300	-0.271944	0.034442
C61	C	1.785154	-0.738385	-0.551857
C62	C	2.285154	-0.238385	-0.051857
C63	C	1.711056	-0.787373	-0.638175
C64	C	2.211056	-0.287373	-0.138175
C65	C	1.711108	-0.869919	-0.638179
C66	C	2.211108	-0.369919	-0.138179
C67	C	1.933351	-0.640409	-0.379244
C68	C	2.433351	-0.140409	0.120756
C69	C	1.785104	-0.655833	-0.551849
C70	C	2.285104	-0.155833	-0.051849
C71	C	2.186437	-0.296695	-0.440492
C72	C	2.686437	0.203305	0.059508
C73	C	2.325869	-0.289481	-0.429824
C74	C	2.825869	0.210519	0.070176
C75	C	1.884424	-0.328039	-0.792720
C76	C	2.384424	0.171961	-0.292720
C77	C	1.895156	-0.334182	-0.932150
C78	C	2.395156	0.165818	-0.432150
C79	C	1.859383	-0.107450	-0.465566
C80	C	2.359383	0.392550	0.034434
C81	C	1.859444	-0.019592	-0.465583
C82	C	2.359444	0.480408	0.034417
C83	C	1.834226	-0.299203	-0.139603
C84	C	2.334226	0.200797	0.360397
C85	C	1.823737	-0.292825	-0.000156
C86	C	2.323737	0.207175	0.499844
H87	H	1.374305	-0.242646	-0.360558
H88	H	1.874305	0.257354	0.139442
H89	H	1.964521	-0.374294	-0.980602
H90	H	2.464521	0.125706	-0.480602
O91	O	1.731860	-0.239694	-0.935990
O92	O	2.231860	0.260306	-0.435990
H93	H	1.755330	-0.177637	-0.959441
H94	H	2.255330	0.322363	-0.459441
O95	O	1.329737	-0.399769	-0.592925
O96	O	1.829737	0.100231	-0.092925
H97	H	1.226617	-0.395906	-0.587220
H98	H	1.726617	0.104094	-0.087220
O99	O	1.705115	-0.619636	-0.644916
O100	O	2.205115	-0.119636	-0.144916
H101	H	1.653593	-0.667570	-0.704923
H102	H	2.153593	-0.167570	-0.204923
H103	H	1.650781	-0.909812	-0.708453
H104	H	2.150781	-0.409812	-0.208453
H105	H	1.650680	-0.760039	-0.708435
H106	H	2.150680	-0.260039	-0.208435
H107	H	1.724974	-1.025921	-0.622162
H108	H	2.224974	-0.525921	-0.122162
H109	H	1.993899	-0.997930	-0.309009
H110	H	2.493899	-0.497930	0.190991
O111	O	2.087475	-0.703687	-0.199856
O112	O	2.587475	-0.203687	0.300144
H113	H	2.074986	-0.640648	-0.214345
H114	H	2.574986	-0.140648	0.285655
H115	H	2.067942	-0.866397	-0.222686
H116	H	2.567942	-0.366397	0.277314
O117	O	2.013269	-0.587565	-0.286172
O118	O	2.513269	-0.087565	0.213828
H119	H	1.984277	-0.600198	-0.189338
H120	H	2.484277	-0.100198	0.310662
