data_functionalizedCrystal
_audit_creation_method	'MofGen! by Chris Wilmer'
_symmetry_space_group_name_H-M	'P1'
_symmetry_Int_Tables_number	1
_symmetry_cell_setting	triclinic
loop_
_symmetry_equiv_pos_as_xyz
  x,y,z
_cell_length_a	13.897449
_cell_length_b	13.897441
_cell_length_c	13.897448
_cell_angle_alpha	89.970373
_cell_angle_beta	89.981028
_cell_angle_gamma	90.018596
loop_
_atom_site_label
_atom_site_type_symbol
_atom_site_fract_x
_atom_site_fract_y
_atom_site_fract_z
Zn1	Zn	-1.474682	-0.545381	-0.383960
Zn2	Zn	-1.224682	-0.295381	-0.133960
Zn3	Zn	-0.974682	-0.045381	0.116040
Zn4	Zn	-0.724682	0.204619	0.366040
Zn5	Zn	-1.474582	-0.384083	-0.545279
Zn6	Zn	-1.224582	-0.134083	-0.295279
Zn7	Zn	-0.974582	0.115917	-0.045279
Zn8	Zn	-0.724582	0.365917	0.204721
Zn9	Zn	-1.313377	-0.384100	-0.384004
Zn10	Zn	-1.063377	-0.134100	-0.134004
Zn11	Zn	-0.813377	0.115900	0.115996
Zn12	Zn	-0.563377	0.365900	0.365996
Zn13	Zn	-1.313353	-0.545335	-0.545219
Zn14	Zn	-1.063353	-0.295335	-0.295219
Zn15	Zn	-0.813353	-0.045335	-0.045219
Zn16	Zn	-0.563353	0.204665	0.204781
O17	O	-1.393999	-0.464725	-0.464616
O18	O	-1.143999	-0.214725	-0.214616
O19	O	-0.893999	0.035275	0.035384
O20	O	-0.643999	0.285275	0.285384
O21	O	-1.609651	-0.523997	-0.405367
O22	O	-1.359651	-0.273997	-0.155367
O23	O	-1.109651	-0.023997	0.094633
O24	O	-0.859651	0.226003	0.344633
O25	O	-1.453166	-0.249103	-0.523929
O26	O	-1.203166	0.000897	-0.273929
O27	O	-0.953166	0.250897	-0.023929
O28	O	-0.703166	0.500897	0.226071
O29	O	-1.334827	-0.405520	-0.249016
O30	O	-1.084827	-0.155520	0.000984
O31	O	-0.834827	0.094480	0.250984
O32	O	-0.584827	0.344480	0.500984
O33	O	-1.609577	-0.405491	-0.523887
O34	O	-1.359577	-0.155491	-0.273887
O35	O	-1.109577	0.094509	-0.023887
O36	O	-0.859577	0.344509	0.226113
O37	O	-1.453337	-0.524013	-0.248985
O38	O	-1.203337	-0.274013	0.001015
O39	O	-0.953337	-0.024013	0.251015
O40	O	-0.703337	0.225987	0.501015
O41	O	-1.334730	-0.249116	-0.405441
O42	O	-1.084730	0.000884	-0.155441
O43	O	-0.834730	0.250884	0.094559
O44	O	-0.584730	0.500884	0.344559
O45	O	-1.178393	-0.405476	-0.405382
O46	O	-0.928393	-0.155476	-0.155382
O47	O	-0.678393	0.094524	0.094618
O48	O	-0.428393	0.344524	0.344618
O49	O	-1.334785	-0.680323	-0.523784
O50	O	-1.084785	-0.430323	-0.273784
O51	O	-0.834785	-0.180323	-0.023784
O52	O	-0.584785	0.069677	0.226216
O53	O	-1.178375	-0.523935	-0.523826
O54	O	-0.928375	-0.273935	-0.273826
O55	O	-0.678375	-0.023935	-0.023826
O56	O	-0.428375	0.226065	0.226174
O57	O	-1.453313	-0.680357	-0.405308
O58	O	-1.203313	-0.430357	-0.155308
O59	O	-0.953313	-0.180357	0.094692
O60	O	-0.703313	0.069643	0.344692
O61	O	-1.453143	-0.405447	-0.680253
O62	O	-1.203143	-0.155447	-0.430253
O63	O	-0.953143	0.094553	-0.180253
O64	O	-0.703143	0.344553	0.069747
O65	O	-1.334688	-0.523918	-0.680208
O66	O	-1.084688	-0.273918	-0.430208
O67	O	-0.834688	-0.023918	-0.180208
O68	O	-0.584688	0.226082	0.069792
C69	C	-1.143384	-0.464703	-0.464603
C70	C	-0.893384	-0.214703	-0.214603
C71	C	-0.643384	0.035297	0.035397
C72	C	-0.393384	0.285297	0.285397
C73	C	-1.036171	-0.464716	-0.464620
C74	C	-0.786171	-0.214716	-0.214620
C75	C	-0.536171	0.035284	0.035380
C76	C	-0.286171	0.285284	0.285380
C77	C	-1.393928	-0.464697	-0.715230
C78	C	-1.143928	-0.214697	-0.465230
C79	C	-0.893928	0.035303	-0.215230
C80	C	-0.643928	0.285303	0.034770
C81	C	-1.393987	-0.464717	-0.822444
C82	C	-1.143987	-0.214717	-0.572444
C83	C	-0.893987	0.035283	-0.322444
C84	C	-0.643987	0.285283	-0.072444
C85	C	-1.394058	-0.716318	-0.464535
C86	C	-1.144058	-0.466318	-0.214535
C87	C	-0.894058	-0.216318	0.035465
C88	C	-0.644058	0.033682	0.285465
C89	C	-1.394083	-0.823532	-0.464500
C90	C	-1.144083	-0.573532	-0.214500
C91	C	-0.894083	-0.323532	0.035500
C92	C	-0.644083	-0.073532	0.285500
C93	C	-1.645592	-0.464747	-0.464629
C94	C	-1.395592	-0.214747	-0.214629
C95	C	-1.145592	0.035253	0.035371
C96	C	-0.895592	0.285253	0.285371
C97	C	-1.752806	-0.464757	-0.464635
C98	C	-1.502806	-0.214757	-0.214635
C99	C	-1.252806	0.035243	0.035365
C100	C	-1.002806	0.285243	0.285365
C101	C	-0.839875	-0.464741	-0.464624
C102	C	-0.589875	-0.214741	-0.214624
C103	C	-0.339875	0.035259	0.035376
C104	C	-0.089875	0.285259	0.285376
C105	C	-0.949108	-0.464725	-0.464619
C106	C	-0.699108	-0.214725	-0.214619
C107	C	-0.449108	0.035275	0.035381
C108	C	-0.199108	0.285275	0.285381
C109	C	-1.394103	-0.910602	-0.464473
C110	C	-1.144103	-0.660602	-0.214473
C111	C	-0.894103	-0.410602	0.035527
C112	C	-0.644103	-0.160602	0.285527
C113	C	-1.394130	-1.019834	-0.464429
C114	C	-1.144130	-0.769834	-0.214429
C115	C	-0.894130	-0.519834	0.035571
C116	C	-0.644130	-0.269834	0.285571
C117	C	-1.393995	-0.214110	-0.464627
C118	C	-1.143995	0.035890	-0.214627
C119	C	-0.893995	0.285890	0.035373
C120	C	-0.643995	0.535890	0.285373
C121	C	-1.394157	-0.106897	-0.464389
C122	C	-1.144157	0.143103	-0.214389
C123	C	-0.894157	0.393103	0.035611
C124	C	-0.644157	0.643103	0.285611
C125	C	-1.394088	-0.464778	-1.018739
C126	C	-1.144088	-0.214778	-0.768739
C127	C	-0.894088	0.035222	-0.518739
C128	C	-0.644088	0.285222	-0.268739
C129	C	-1.394029	-0.464747	-0.909506
C130	C	-1.144029	-0.214747	-0.659506
C131	C	-0.894029	0.035253	-0.409506
C132	C	-0.644029	0.285253	-0.159506
C133	C	-1.394096	-0.464774	-0.213023
C134	C	-1.144096	-0.214774	0.036977
C135	C	-0.894096	0.035226	0.286977
C136	C	-0.644096	0.285226	0.536977
C137	C	-1.394137	-0.464795	-0.105809
C138	C	-1.144137	-0.214795	0.144191
C139	C	-0.894137	0.035205	0.394191
C140	C	-0.644137	0.285205	0.644191
