data_functionalizedCrystal
_audit_creation_method	'MofGen! by Chris Wilmer'
_symmetry_space_group_name_H-M	'P1'
_symmetry_Int_Tables_number	1
_symmetry_cell_setting	triclinic
loop_
_symmetry_equiv_pos_as_xyz
  x,y,z
_cell_length_a	16.956995
_cell_length_b	10.489741
_cell_length_c	15.455313
_cell_angle_alpha	87.307311
_cell_angle_beta	92.484637
_cell_angle_gamma	80.296823
loop_
_atom_site_label
_atom_site_type_symbol
_atom_site_fract_x
_atom_site_fract_y
_atom_site_fract_z
O1	O	1.061804	0.046882	0.072190
O2	O	1.561804	0.546882	0.572190
O3	O	0.829903	0.091634	0.072179
O4	O	1.329903	0.591634	0.572179
O5	O	0.951130	-0.116973	0.072180
O6	O	1.451130	0.383027	0.572180
O7	O	0.940577	0.255489	0.072190
O8	O	1.440577	0.755489	0.572190
O9	O	0.944198	-0.105090	-0.072082
O10	O	1.444198	0.394910	0.427918
O11	O	0.822971	0.103517	-0.072083
O12	O	1.322971	0.603517	0.427917
O13	O	1.054872	0.058765	-0.072072
O14	O	1.554872	0.558765	0.427928
Cu15	Cu	0.938288	0.082226	-0.085250
Cu16	Cu	1.438288	0.582226	0.414750
Cu17	Cu	0.946487	0.068173	0.085357
Cu18	Cu	1.446487	0.568173	0.585357
O19	O	0.933645	0.267372	-0.072072
O20	O	1.433645	0.767372	0.427928
C21	C	0.796742	0.099867	0.000046
C22	C	1.296742	0.599867	0.500046
C23	C	0.708261	0.106679	0.000042
C24	C	1.208261	0.606679	0.500042
C25	C	0.209255	0.157638	0.000076
C26	C	0.709255	0.657638	0.500076
C27	C	0.292393	0.151227	0.000075
C28	C	0.792393	0.651227	0.500075
C29	C	0.342790	0.030897	0.000065
C30	C	0.842790	0.530897	0.500065
C31	C	0.310045	-0.083030	0.000065
C32	C	0.810045	0.416970	0.500065
C33	C	0.226908	-0.076619	0.000072
C34	C	0.726908	0.423381	0.500072
C35	C	0.592379	-0.000837	0.000049
C36	C	1.092379	0.499163	0.500049
C37	C	0.675521	-0.007240	0.000039
C38	C	1.175521	0.492760	0.500039
C39	C	0.657863	0.227018	0.000051
C40	C	1.157863	0.727018	0.500051
C41	C	0.574725	0.233419	0.000053
C42	C	1.074725	0.733419	0.500053
C43	C	0.541988	0.119492	0.000057
C44	C	1.041988	0.619492	0.500057
N45	N	0.427771	0.024342	0.000061
N46	N	0.927771	0.524342	0.500061
N47	N	0.457009	0.126048	0.000067
N48	N	0.957009	0.626048	0.500067
C49	C	0.946867	-0.158468	0.000049
C50	C	1.446867	0.341532	0.500049
C51	C	0.944482	-0.299811	0.000051
C52	C	1.444482	0.200189	0.500051
C53	C	0.867349	-0.358685	0.000053
C54	C	1.367349	0.141315	0.500053
C55	C	0.900368	-0.449326	-0.071074
C56	C	1.400368	0.050674	0.428926
C57	C	0.907221	-0.461019	0.071157
C58	C	1.407221	0.038981	0.571157
C59	C	0.977530	-0.388585	-0.071135
C60	C	1.477530	0.111415	0.428865
C61	C	0.984376	-0.400272	0.071160
C62	C	1.484376	0.099728	0.571160
C63	C	1.017450	-0.490891	0.000016
C64	C	1.517450	0.009109	0.500016
C65	C	1.088033	0.050532	0.000063
C66	C	1.588033	0.550532	0.500063
C67	C	1.176515	0.043719	0.000073
C68	C	1.676515	0.543719	0.500073
C69	C	0.937908	0.308867	0.000060
C70	C	1.437908	0.808867	0.500060
C71	C	0.940293	0.450209	0.000064
C72	C	1.440293	0.950209	0.500064
N73	N	0.932528	0.092109	-0.205245
N74	N	1.432528	0.592109	0.294755
C75	C	0.984047	0.003514	-0.250639
C76	C	1.484047	0.503514	0.249361
C77	C	0.979698	0.010998	-0.341447
C78	C	1.479698	0.510998	0.158553
C79	C	0.923833	0.107085	-0.386859
C80	C	1.423833	0.607085	0.113141
C81	C	0.872308	0.195684	-0.341459
C82	C	1.372308	0.695684	0.158541
C83	C	0.876653	0.188193	-0.250653
C84	C	1.376653	0.688193	0.249347
C85	C	0.905074	0.139387	-0.658441
C86	C	1.405074	0.639387	-0.158441
C87	C	0.900734	0.146874	-0.749254
C88	C	1.400734	0.646874	-0.249254
C89	C	1.008124	-0.037814	-0.749235
C90	C	1.508124	0.462186	-0.249235
C91	C	1.012468	-0.045292	-0.658427
C92	C	1.512468	0.454708	-0.158427
C93	C	0.960940	0.043303	-0.613035
C94	C	1.460940	0.543303	-0.113035
N95	N	0.919388	0.114741	-0.479680
N96	N	1.419388	0.614741	0.020320
N97	N	0.965382	0.035641	-0.520216
N98	N	1.465382	0.535641	-0.020216
N99	N	0.952254	0.058279	0.205353
N100	N	1.452254	0.558279	0.705353
H101	H	0.716553	-0.105232	0.000036
H102	H	1.216553	0.394768	0.500036
H103	H	1.057958	-0.123533	-0.621454
H104	H	1.557958	0.376467	-0.121454
H105	H	0.319045	0.243991	0.000085
H106	H	0.819045	0.743991	0.500085
H107	H	0.864842	-0.471464	-0.131210
H108	H	1.364842	0.028536	0.368790
H109	H	1.021649	-0.061143	-0.378406
H110	H	1.521649	0.438857	0.121594
Cl111	Cl	1.023411	-0.339384	-0.164078
Cl112	Cl	1.523411	0.160616	0.335922
Cl113	Cl	0.840301	0.250765	-0.601383
Cl114	Cl	1.340301	0.750765	-0.101383
H115	H	1.080924	-0.547937	-0.000021
H116	H	1.580924	-0.047937	0.499979
Cl117	Cl	1.072895	-0.149188	-0.806303
Cl118	Cl	1.572895	0.350812	-0.306303
H119	H	0.855239	0.225125	-0.786224
H120	H	1.355239	0.725125	-0.286224
H121	H	0.533697	0.331405	0.000063
H122	H	1.033697	0.831405	0.500063
H123	H	0.826817	0.273916	-0.378439
H124	H	1.326817	0.773916	0.121561
H125	H	0.200254	-0.169384	0.000072
H126	H	0.700254	0.330616	0.500072
Cl127	Cl	1.039184	-0.366032	0.164011
Cl128	Cl	1.539184	0.133968	0.664011
H129	H	0.877465	-0.493015	0.131295
H130	H	1.377465	0.006985	0.631295
Cl131	Cl	0.699024	0.370232	0.000052
Cl132	Cl	1.199024	0.870232	0.500052
H133	H	1.029542	-0.074725	-0.213670
H134	H	1.529542	0.425275	0.286330
Cl135	Cl	0.145906	0.308919	0.000081
Cl136	Cl	0.645906	0.808919	0.500081
Cl137	Cl	0.551235	-0.144063	0.000075
Cl138	Cl	1.051235	0.355937	0.500075
Cl139	Cl	0.811879	0.299571	-0.193587
Cl140	Cl	1.311879	0.799571	0.306413
H141	H	0.351085	-0.181006	0.000062
H142	H	0.851085	0.318994	0.500062
H143	H	0.803927	-0.301410	-0.000022
H144	H	1.303927	0.198590	0.499978
