data_functionalizedCrystal
_audit_creation_method	'MofGen! by Chris Wilmer'
_symmetry_space_group_name_H-M	'P1'
_symmetry_Int_Tables_number	1
_symmetry_cell_setting	triclinic
loop_
_symmetry_equiv_pos_as_xyz
  x,y,z
_cell_length_a	14.044220
_cell_length_b	14.044220
_cell_length_c	9.798715
_cell_angle_alpha	89.995876
_cell_angle_beta	90.001156
_cell_angle_gamma	93.188878
loop_
_atom_site_label
_atom_site_type_symbol
_atom_site_fract_x
_atom_site_fract_y
_atom_site_fract_z
O1	O	1.277167	0.230165	-0.113351
O2	O	1.777167	0.730165	0.386649
O3	O	1.000495	0.221860	-0.113386
O4	O	1.500495	0.721860	0.386614
O5	O	1.134678	0.087677	-0.113355
O6	O	1.634678	0.587677	0.386645
O7	O	1.142984	0.364348	-0.113381
O8	O	1.642984	0.864348	0.386619
O9	O	1.134667	0.087676	0.113627
O10	O	1.634667	0.587676	0.613627
O11	O	1.000485	0.221858	0.113597
O12	O	1.500485	0.721858	0.613597
O13	O	1.277156	0.230164	0.113631
O14	O	1.777156	0.730164	0.613631
Zn15	Zn	1.138819	0.226011	0.149652
Zn16	Zn	1.638819	0.726011	0.649652
Zn17	Zn	1.138833	0.226013	-0.149407
Zn18	Zn	1.638833	0.726013	0.350593
O19	O	1.142973	0.364347	0.113601
O20	O	1.642973	0.864347	0.613601
C21	C	0.964868	0.218223	0.000101
C22	C	1.464868	0.718223	0.500101
C23	C	0.858725	0.207379	0.000088
C24	C	1.358725	0.707379	0.500088
C25	C	0.664388	0.187553	0.000117
C26	C	1.164388	0.687553	0.500117
C27	C	0.613258	0.264467	0.000116
C28	C	1.113258	0.764467	0.500116
C29	C	0.505122	0.253435	0.000132
C30	C	1.005122	0.753435	0.500132
C31	C	0.772534	0.198583	0.000101
C32	C	1.272534	0.698583	0.500101
C33	C	1.131037	0.052054	0.000136
C34	C	1.631037	0.552054	0.500136
C35	C	1.120193	-0.054088	0.000136
C36	C	1.620193	0.445912	0.500136
C37	C	1.100366	-0.248426	0.000114
C38	C	1.600366	0.251574	0.500114
C39	C	1.177281	-0.299556	0.000119
C40	C	1.677281	0.200444	0.500119
C41	C	1.166249	-0.407692	0.000107
C42	C	1.666249	0.092308	0.500107
C43	C	1.111397	-0.140280	0.000126
C44	C	1.611397	0.359720	0.500126
C45	C	1.312783	0.233800	0.000141
C46	C	1.812783	0.733800	0.500141
C47	C	1.418926	0.244645	0.000145
C48	C	1.918926	0.744645	0.500145
C49	C	1.146614	0.399969	0.000107
C50	C	1.646614	0.899969	0.500107
C51	C	1.157459	0.506112	0.000097
C52	C	1.657459	1.006112	0.500097
N53	N	1.138816	0.226010	0.353752
N54	N	1.638816	0.726010	0.853752
N55	N	1.138843	0.226007	-0.353506
N56	N	1.638843	0.726007	0.146494
C57	C	1.195135	0.169402	0.421541
C58	C	1.695135	0.669402	0.921541
C59	C	1.195150	0.169399	0.578704
C60	C	1.695150	0.669399	1.078704
H61	H	0.650697	0.338600	0.000102
H62	H	1.150697	0.838600	0.500102
H63	H	1.026239	-0.285863	0.000101
H64	H	1.526239	0.214137	0.500101
Cl65	Cl	1.291738	-0.241757	0.000148
Cl66	Cl	1.791738	0.258243	0.500148
Cl67	Cl	1.269332	0.094343	0.331520
Cl68	Cl	1.769332	0.594343	0.831520
H69	H	0.626951	0.113425	0.000132
H70	H	1.126951	0.613425	0.500132
Cl71	Cl	1.269603	0.094575	0.668703
Cl72	Cl	1.769603	0.594575	1.168703
Cl73	Cl	1.064380	0.300832	0.443774
Cl74	Cl	1.564380	0.800832	0.943774
H75	H	1.090627	0.274478	0.588206
H76	H	1.590627	0.774478	1.088206
