data_functionalizedCrystal
_audit_creation_method	'MofGen! by Chris Wilmer'
_symmetry_space_group_name_H-M	'P1'
_symmetry_Int_Tables_number	1
_symmetry_cell_setting	triclinic
loop_
_symmetry_equiv_pos_as_xyz
  x,y,z
_cell_length_a	19.077105
_cell_length_b	25.639239
_cell_length_c	25.639243
_cell_angle_alpha	90.014050
_cell_angle_beta	92.307449
_cell_angle_gamma	87.734929
loop_
_atom_site_label
_atom_site_type_symbol
_atom_site_fract_x
_atom_site_fract_y
_atom_site_fract_z
Zn1	Zn	1.075838	-0.240408	0.327688
Zn2	Zn	1.575838	0.259592	0.827688
Zn3	Zn	1.075740	-0.327816	0.240249
Zn4	Zn	1.575740	0.172184	0.740249
Zn5	Zn	0.958160	-0.236881	0.236758
Zn6	Zn	1.458160	0.263119	0.736758
Zn7	Zn	0.958081	-0.324293	0.324145
Zn8	Zn	1.458081	0.175707	0.824145
O9	O	1.016955	-0.282350	0.282210
O10	O	1.516955	0.217650	0.782210
O11	O	1.174315	-0.254953	0.319033
O12	O	1.674315	0.245047	0.819033
O13	O	1.060135	-0.315752	0.166621
O14	O	1.560135	0.184248	0.666621
O15	O	0.973845	-0.164186	0.248841
O16	O	1.473845	0.335814	0.748841
O17	O	1.174243	-0.319172	0.254792
O18	O	1.674243	0.180828	0.754792
O19	O	1.060302	-0.166777	0.315647
O20	O	1.560302	0.333223	0.815647
O21	O	0.973749	-0.248943	0.164055
O22	O	1.473749	0.251057	0.664055
O23	O	0.859660	-0.245526	0.245406
O24	O	1.359660	0.254474	0.745406
O25	O	0.973710	-0.313167	0.397781
O26	O	1.473710	0.186833	0.897781
O27	O	0.859603	-0.309747	0.309609
O28	O	1.359603	0.190253	0.809609
O29	O	1.060226	-0.251537	0.400383
O30	O	1.560226	0.248463	0.900383
O31	O	1.060059	-0.400512	0.251357
O32	O	1.560059	0.099488	0.751357
O33	O	0.973615	-0.397923	0.312995
O34	O	1.473615	0.102077	0.812995
C35	C	0.834094	-0.276872	0.276745
C36	C	1.334094	0.223128	0.776745
C37	C	0.755866	-0.274541	0.274419
C38	C	1.255866	0.225459	0.774419
C39	C	0.719102	-0.306933	0.306701
C40	C	1.219102	0.193067	0.806701
C41	C	0.645598	-0.304736	0.304519
C42	C	1.145598	0.195264	0.804519
C43	C	0.608859	-0.270149	0.270051
C44	C	1.108859	0.229851	0.770051
C45	C	0.645628	-0.237754	0.237767
C46	C	1.145628	0.262246	0.737767
C47	C	0.719130	-0.239949	0.239953
C48	C	1.219130	0.260051	0.739953
C49	C	0.389030	-0.259992	0.259937
C50	C	0.889030	0.240008	0.759937
C51	C	0.315522	-0.257801	0.257753
C52	C	0.815522	0.242199	0.757753
C53	C	0.315497	-0.324782	0.324505
C54	C	0.815497	0.175218	0.824505
C55	C	0.389002	-0.326976	0.326686
C56	C	0.889002	0.173024	0.826686
C57	C	0.425764	-0.294579	0.294404
C58	C	0.925764	0.205421	0.794404
N59	N	0.533726	-0.267904	0.267818
N60	N	1.033726	0.232096	0.767818
N61	N	0.500896	-0.296822	0.296640
N62	N	1.000896	0.203178	0.796640
C63	C	1.016837	-0.418189	0.282183
C64	C	1.516837	0.081811	0.782183
C65	C	1.016850	-0.476303	0.282190
C66	C	1.516850	0.023697	0.782190
C67	C	1.062084	-0.838008	0.250176
C68	C	1.562084	-0.338008	0.750176
C69	C	1.062111	-0.892613	0.250183
C70	C	1.562111	-0.392613	0.750183
O71	O	1.100447	-0.921987	0.222933
O72	O	1.600447	-0.421987	0.722933
N73	N	1.017079	-0.918592	0.282248
N74	N	1.517079	-0.418592	0.782248
C75	C	0.972021	-0.889963	0.314312
C76	C	1.472021	-0.389963	0.814312
O77	O	0.933721	-0.917075	0.341586
O78	O	1.433721	-0.417075	0.841586
C79	C	0.971998	-0.835359	0.314306
C80	C	1.471998	-0.335359	0.814306
C81	C	1.017028	-0.809383	0.282235
C82	C	1.517028	-0.309383	0.782235
C83	C	1.107111	-0.812032	0.218108
C84	C	1.607111	-0.312032	0.718108
C85	C	1.107082	-0.757430	0.218099
C86	C	1.607082	-0.257430	0.718099
C87	C	1.062027	-0.728805	0.250159
C88	C	1.562027	-0.228805	0.750159
C89	C	1.017000	-0.754782	0.282227
C90	C	1.517000	-0.254782	0.782227
C91	C	0.926945	-0.806732	0.346372
C92	C	1.426945	-0.306732	0.846372
C93	C	0.926926	-0.752124	0.346364
C94	C	1.426926	-0.252124	0.846364
C95	C	0.971956	-0.726148	0.314293
C96	C	1.471956	-0.226148	0.814293
C97	C	0.971916	-0.671555	0.314278
C98	C	1.471916	-0.171555	0.814278
N99	N	1.016948	-0.645576	0.282213
N100	N	1.516948	-0.145576	0.782213
C101	C	1.062004	-0.674201	0.250153
C102	C	1.562004	-0.174201	0.750153
C103	C	0.972074	-1.004636	0.314321
C104	C	1.472074	-0.504636	0.814321
C105	C	0.972094	-1.059239	0.314324
C106	C	1.472094	-0.559239	0.814324
C107	C	1.062184	-1.061885	0.250197
C108	C	1.562184	-0.561885	0.750197
C109	C	1.062161	-1.007281	0.250191
C110	C	1.562161	-0.507281	0.750191
C111	C	1.017107	-0.978657	0.282256
C112	C	1.517107	-0.478657	0.782256
C113	C	1.061940	-0.559534	0.250138
C114	C	1.561940	-0.059534	0.750138
C115	C	1.061906	-0.504928	0.250131
C116	C	1.561906	-0.004928	0.750131
C117	C	0.971818	-0.502287	0.314260
C118	C	1.471818	-0.002287	0.814260
C119	C	0.971850	-0.556888	0.314265
C120	C	1.471850	-0.056888	0.814265
C121	C	1.016916	-0.585511	0.282203
C122	C	1.516916	-0.085511	0.782203
O123	O	0.933602	-0.642147	0.341516
O124	O	1.433602	-0.142147	0.841516
O125	O	1.100304	-0.647083	0.222888
O126	O	1.600304	-0.147083	0.722888
C127	C	1.200530	-0.287849	0.287697
C128	C	1.700530	0.212151	0.787697
C129	C	1.278758	-0.290193	0.290035
C130	C	1.778758	0.209807	0.790035
C131	C	1.016970	-0.282352	0.418584
C132	C	1.516970	0.217648	0.918584
C133	C	1.016976	-0.282353	0.476698
C134	C	1.516976	0.217647	0.976698
C135	C	1.017093	-0.145981	0.282250
C136	C	1.517093	0.354019	0.782250
C137	C	1.017152	-0.087868	0.282267
C138	C	1.517152	0.412132	0.782267
C139	C	1.061933	-0.317143	0.729219
C140	C	1.561933	0.182857	1.229219
C141	C	1.061935	-0.317144	0.674614
C142	C	1.561935	0.182856	1.174614
O143	O	1.100167	-0.346738	0.647507
O144	O	1.600167	0.153262	1.147507
N145	N	1.016963	-0.282358	0.645971
N146	N	1.516963	0.217642	1.145971
C147	C	0.971981	-0.247573	0.671935
C148	C	1.471981	0.252427	1.171935
O149	O	0.933728	-0.217985	0.642558
O150	O	1.433728	0.282015	1.142558
C151	C	0.971976	-0.247575	0.726538
C152	C	1.471976	0.252425	1.226538
C153	C	1.016956	-0.282360	0.755179
C154	C	1.516956	0.217640	1.255179
C155	C	1.106909	-0.351926	0.757859
C156	C	1.606909	0.148074	1.257859
C157	C	1.106908	-0.351924	0.812460
C158	C	1.606908	0.148076	1.312460
C159	C	1.061931	-0.317140	0.838420
C160	C	1.561931	0.182860	1.338420
C161	C	1.016955	-0.282358	0.809779
C162	C	1.516955	0.217642	1.309779
C163	C	0.926991	-0.212792	0.752501
C164	C	1.426991	0.287208	1.252501
C165	C	0.926989	-0.212797	0.807108
C166	C	1.426989	0.287203	1.307108
C167	C	0.971969	-0.247582	0.835748
C168	C	1.471969	0.252418	1.335748
C169	C	0.971977	-0.247572	0.890340
C170	C	1.471977	0.252428	1.390340
N171	N	1.016949	-0.282358	0.918983
N172	N	1.516949	0.217642	1.418983
C173	C	1.061926	-0.317142	0.893023
C174	C	1.561926	0.182858	1.393023
C175	C	0.971994	-0.247572	0.557265
C176	C	1.471994	0.252428	1.057265
C177	C	0.972002	-0.247567	0.502663
C178	C	1.472002	0.252433	1.002663
C179	C	1.061955	-0.317139	0.505346
C180	C	1.561955	0.182861	1.005346
C181	C	1.061950	-0.317141	0.559949
C182	C	1.561950	0.182859	1.059949
C183	C	1.016966	-0.282358	0.585908
C184	C	1.516966	0.217642	1.085908
C185	C	1.061920	-0.317135	1.007688
C186	C	1.561920	0.182865	1.507688
C187	C	1.061917	-0.317129	1.062293
C188	C	1.561917	0.182871	1.562293
C189	C	0.971962	-0.247559	1.059605
C190	C	1.471962	0.252441	1.559605
C191	C	0.971967	-0.247563	1.005005
C192	C	1.471967	0.252437	1.505005
C193	C	1.016949	-0.282356	0.979047
C194	C	1.516949	0.217644	1.479047
O195	O	0.933762	-0.217995	0.917483
O196	O	1.433762	0.282005	1.417483
O197	O	1.100165	-0.346729	0.922406
O198	O	1.600165	0.153271	1.422406
C199	C	1.016938	-0.282356	1.146367
C200	C	1.516938	0.217644	1.646367
C201	C	1.016940	-0.282345	1.088253
C202	C	1.516940	0.217655	1.588253
H203	H	0.418953	-0.233616	0.233648
H204	H	0.918953	0.266384	0.733648
H205	H	0.418910	-0.355141	0.354752
H206	H	0.918910	0.144859	0.854752
C207	C	0.877505	-0.174537	0.835662
C208	C	1.377505	0.325463	1.335662
H209	H	0.883937	-0.179519	0.872284
H210	H	1.383937	0.320481	1.372284
H211	H	0.887835	-0.139716	0.827030
H212	H	1.387835	0.360284	1.327030
H213	H	0.830209	-0.180780	0.825291
H214	H	1.330209	0.319220	1.325291
H215	H	0.615709	-0.209591	0.209705
H216	H	1.115709	0.290409	0.709705
C217	C	0.922556	-1.087807	0.349599
C218	C	1.422556	-0.587807	0.849599
H219	H	0.895725	-1.062933	0.368692
H220	H	1.395725	-0.562933	0.868692
H221	H	0.891919	-1.108224	0.328671
H222	H	1.391919	-0.608224	0.828671
H223	H	0.949471	-1.109880	0.373207
H224	H	1.449471	-0.609880	0.873207
H225	H	1.098548	-0.345455	1.085610
H226	H	1.598548	0.154545	1.585610
H227	H	0.935185	-0.578039	0.340382
H228	H	1.435185	-0.078039	0.840382
C229	C	0.275107	-0.219759	0.219833
C230	C	0.775107	0.280241	0.719833
H231	H	0.226067	-0.223100	0.223150
H232	H	0.726067	0.276900	0.723150
H233	H	0.287176	-0.185000	0.227903
H234	H	0.787176	0.315000	0.727903
H235	H	0.287138	-0.227721	0.185047
H236	H	0.787138	0.272279	0.685047
H237	H	0.749063	-0.213569	0.213668
H238	H	1.249063	0.286431	0.713668
H239	H	1.098575	-0.483780	0.224013
H240	H	1.598575	0.016220	0.724013
C241	C	1.156624	-0.728863	0.182827
C242	C	1.656624	-0.228863	0.682827
H243	H	1.183463	-0.753738	0.163742
H244	H	1.683463	-0.253738	0.663742
H245	H	1.129724	-0.706784	0.159220
H246	H	1.629724	-0.206784	0.659220
H247	H	1.187265	-0.708452	0.203765
H248	H	1.687265	-0.208452	0.703765
H249	H	1.098639	-0.582833	0.224031
H250	H	1.598639	-0.082833	0.724031
C251	C	1.156672	-0.843511	0.182836
C252	C	1.656672	-0.343511	0.682836
H253	H	1.183476	-0.820212	0.163737
H254	H	1.683476	-0.320212	0.663737
H255	H	1.187333	-0.865702	0.203765
H256	H	1.687333	-0.365702	0.703765
H257	H	1.129775	-0.864031	0.159232
H258	H	1.629775	-0.364031	0.659232
C259	C	0.922531	-0.209300	0.471162
C260	C	1.422531	0.290700	0.971162
H261	H	0.928973	-0.214276	0.434923
H262	H	1.428973	0.285724	0.934923
H263	H	0.875236	-0.215534	0.478694
H264	H	1.375236	0.284466	0.978694
H265	H	0.932875	-0.174480	0.480431
H266	H	1.432875	0.325520	0.980431
C267	C	0.922264	-0.470793	0.349525
C268	C	1.422264	0.029207	0.849525
H269	H	0.928707	-0.434553	0.344929
H270	H	1.428707	0.065447	0.844929
H271	H	0.874985	-0.478362	0.340440
H272	H	1.374985	0.021638	0.840440
H273	H	0.932545	-0.480027	0.384971
H274	H	1.432545	0.019973	0.884971
H275	H	1.098577	-0.345463	0.484199
H276	H	1.598577	0.154537	0.984199
H277	H	0.935380	-0.981332	0.340431
H278	H	1.435380	-0.481332	0.840431
H279	H	0.285558	-0.351158	0.350788
H280	H	0.785558	0.148842	0.850788
C281	C	1.111699	-0.978712	0.214918
C282	C	1.611699	-0.478712	0.714918
H283	H	1.138536	-1.003585	0.195829
H284	H	1.638536	-0.503585	0.695829
H285	H	1.084795	-0.956632	0.191314
H286	H	1.584795	-0.456632	0.691314
H287	H	1.142342	-0.958301	0.235854
H288	H	1.642342	-0.458301	0.735854
H289	H	1.098873	-1.085201	0.224094
H290	H	1.598873	-0.585201	0.724094
H291	H	1.143535	-0.380253	0.736728
H292	H	1.643535	0.119747	1.236728
C293	C	0.877416	-0.835294	0.381654
C294	C	1.377416	-0.335294	0.881654
H295	H	0.850591	-0.810419	0.400749
H296	H	1.350591	-0.310419	0.900749
H297	H	0.846773	-0.855711	0.360731
H298	H	1.346773	-0.355711	0.860731
H299	H	0.904334	-0.857368	0.405261
H300	H	1.404334	-0.357368	0.905261
C301	C	0.877365	-0.720641	0.381637
C302	C	1.377365	-0.220641	0.881637
H303	H	0.850551	-0.743935	0.400733
H304	H	1.350551	-0.243935	0.900733
H305	H	0.904256	-0.700115	0.405234
H306	H	1.404256	-0.200115	0.905234
H307	H	0.846702	-0.698455	0.360699
H308	H	1.346702	-0.198455	0.860699
C309	C	1.111401	-0.355404	0.979142
C310	C	1.611401	0.144596	1.479142
H311	H	1.138188	-0.376113	1.004026
H312	H	1.638188	0.123887	1.504026
H313	H	1.084462	-0.377382	0.957029
H314	H	1.584462	0.122618	1.457029
H315	H	1.142094	-0.336322	0.958768
H316	H	1.642094	0.163678	1.458768
C317	C	1.156375	-0.390195	0.843957
C318	C	1.656375	0.109805	1.343957
H319	H	1.183152	-0.410913	0.820669
H320	H	1.683152	0.089087	1.320669
H321	H	1.187066	-0.371124	0.866187
H322	H	1.687066	0.128876	1.366187
H323	H	1.129419	-0.412171	0.864439
H324	H	1.629419	0.087829	1.364439
C325	C	1.111425	-0.355406	0.591449
C326	C	1.611425	0.144594	1.091449
H327	H	1.138208	-0.376121	0.568163
H328	H	1.638208	0.123879	1.068163
H329	H	1.142110	-0.336328	0.613677
H330	H	1.642110	0.163672	1.113677
H331	H	1.084475	-0.377385	0.611932
H332	H	1.584475	0.122615	1.111932
H333	H	0.935364	-0.219242	0.578397
H334	H	1.435364	0.280758	1.078397
H335	H	0.890362	-0.184468	0.729191
H336	H	1.390362	0.315532	1.229191
H337	H	0.935350	-0.219232	0.981684
H338	H	1.435350	0.280768	1.481684
C339	C	0.922488	-0.209300	1.088166
C340	C	1.422488	0.290700	1.588166
H341	H	0.895701	-0.188580	1.063291
H342	H	1.395701	0.311420	1.563291
H343	H	0.891806	-0.228385	1.108542
H344	H	1.391806	0.271615	1.608542
H345	H	0.949437	-0.187324	1.110280
H346	H	1.449437	0.312676	1.610280
C347	C	0.759512	-0.344981	0.344612
C348	C	1.259512	0.155019	0.844612
H349	H	0.808553	-0.341654	0.341287
H350	H	1.308553	0.158346	0.841287
H351	H	0.747488	-0.337029	0.379399
H352	H	1.247488	0.162971	0.879399
H353	H	0.747430	-0.379738	0.336531
H354	H	1.247430	0.120262	0.836531
C355	C	0.605160	-0.340399	0.339997
C356	C	1.105160	0.159601	0.839997
H357	H	0.637568	-0.361325	0.360823
H358	H	1.137568	0.138675	0.860823
H359	H	0.576492	-0.319609	0.361974
H360	H	1.076492	0.180391	0.861974
H361	H	0.576482	-0.362282	0.319070
H362	H	1.076482	0.137718	0.819070
