data_functionalizedCrystal
_audit_creation_method	'MofGen! by Chris Wilmer'
_symmetry_space_group_name_H-M	'P1'
_symmetry_Int_Tables_number	1
_symmetry_cell_setting	triclinic
loop_
_symmetry_equiv_pos_as_xyz
  x,y,z
_cell_length_a	12.759401
_cell_length_b	12.827891
_cell_length_c	12.827885
_cell_angle_alpha	89.971776
_cell_angle_beta	90.020548
_cell_angle_gamma	89.970737
loop_
_atom_site_label
_atom_site_type_symbol
_atom_site_fract_x
_atom_site_fract_y
_atom_site_fract_z
Zn1	Zn	1.606147	0.415973	0.590897
Zn2	Zn	1.605998	0.590751	0.416163
Zn3	Zn	1.430450	0.416026	0.416167
Zn4	Zn	1.430393	0.590674	0.590859
O5	O	1.518247	0.503356	0.503521
O6	O	1.753148	0.439168	0.567732
O7	O	1.582673	0.567628	0.269927
O8	O	1.453842	0.269783	0.439363
O9	O	1.753039	0.567577	0.439356
O10	O	1.582926	0.269744	0.567736
O11	O	1.453698	0.439258	0.269930
O12	O	1.283421	0.439182	0.439326
O13	O	1.453746	0.567445	0.737100
O14	O	1.283380	0.567496	0.567671
O15	O	1.582871	0.439093	0.737128
O16	O	1.582618	0.736977	0.439319
O17	O	1.453602	0.736920	0.567667
C18	C	1.245280	0.503337	0.503495
C19	C	1.128503	0.503354	0.503509
C20	C	1.073580	0.570110	0.436577
C21	C	0.963856	0.570128	0.436605
C22	C	0.963987	0.436625	0.570498
C23	C	1.073709	0.436613	0.570475
C24	C	0.813835	0.693343	0.399090
C25	C	0.758909	0.760090	0.332142
C26	C	0.794455	0.776008	0.230141
C27	C	0.884925	0.725164	0.195066
C28	C	0.939846	0.658410	0.262009
C29	C	0.904301	0.642512	0.364025
C30	C	1.223733	0.313397	0.607979
C31	C	1.278655	0.246636	0.674917
C32	C	1.243111	0.230707	0.776920
C33	C	1.152637	0.281533	0.811991
C34	C	1.097715	0.348293	0.745053
C35	C	1.133266	0.364224	0.643051
C36	C	1.518116	0.774866	0.503511
C37	C	1.518157	0.891019	0.503542
C38	C	1.454402	1.062950	0.440020
C39	C	1.454359	0.942900	0.439987
C40	C	1.792280	0.503376	0.503548
C41	C	1.909057	0.503384	0.503559
C42	C	1.518319	0.503255	0.776092
C43	C	1.518349	0.503212	0.892245
C44	C	1.518347	1.230786	0.503563
C45	C	1.518236	1.114633	0.503602
C46	C	1.518236	0.503381	0.232011
C47	C	1.518409	0.503130	0.115859
C48	C	1.454582	0.439634	1.064075
C49	C	1.454549	0.439677	0.944025
H50	H	1.118190	0.624457	0.382051
Cl51	Cl	0.929594	0.745162	0.066820
Cl52	Cl	0.645180	0.824006	0.376236
Cl53	Cl	1.370252	0.355646	1.132838
H54	H	1.399900	0.385320	0.899493
Cl55	Cl	1.602719	0.587154	0.960987
H56	H	1.287833	0.176333	0.831416
H57	H	1.013503	0.617011	0.233451
Cl58	Cl	0.725401	0.859916	0.145980
H59	H	1.399780	1.107580	0.385613
H60	H	1.573034	0.557519	1.071315
Cl61	Cl	1.107943	0.261502	0.940224
Cl62	Cl	1.268429	0.333427	0.479743
H63	H	1.399712	0.898455	0.385548
Cl64	Cl	0.769153	0.673354	0.527333
Cl65	Cl	0.895096	0.352726	0.654678
Cl66	Cl	1.602546	0.959627	0.587587
H67	H	1.024037	0.389666	0.773612
Cl68	Cl	1.602562	1.045737	0.587618
H69	H	1.352319	0.205245	0.646351
