data_functionalizedCrystal
_audit_creation_method	'MofGen! by Chris Wilmer'
_symmetry_space_group_name_H-M	'P1'
_symmetry_Int_Tables_number	1
_symmetry_cell_setting	triclinic
loop_
_symmetry_equiv_pos_as_xyz
  x,y,z
_cell_length_a	25.639242
_cell_length_b	25.639239
_cell_length_c	25.639234
_cell_angle_alpha	90.024905
_cell_angle_beta	90.030783
_cell_angle_gamma	90.033712
loop_
_atom_site_label
_atom_site_type_symbol
_atom_site_fract_x
_atom_site_fract_y
_atom_site_fract_z
Zn1	Zn	-0.799262	0.208252	-0.295762
Zn2	Zn	-0.799175	0.295680	-0.208327
Zn3	Zn	-0.711828	0.208253	-0.208324
Zn4	Zn	-0.711784	0.295651	-0.295714
O5	O	-0.755512	0.251959	-0.252032
O6	O	-0.872416	0.219861	-0.284185
O7	O	-0.787570	0.284096	-0.135161
O8	O	-0.723481	0.135088	-0.219942
O9	O	-0.872351	0.284095	-0.219946
O10	O	-0.787719	0.135087	-0.284182
O11	O	-0.723396	0.219863	-0.135159
O12	O	-0.638656	0.219835	-0.219896
O13	O	-0.723406	0.284044	-0.368886
O14	O	-0.638624	0.284045	-0.284101
O15	O	-0.787676	0.219833	-0.368921
O16	O	-0.787527	0.368841	-0.219900
O17	O	-0.723321	0.368820	-0.284103
C18	C	-0.619669	0.251937	-0.251993
C19	C	-0.561555	0.251940	-0.251989
C20	C	-0.755546	0.251935	-0.388405
C21	C	-0.755560	0.251925	-0.446519
C22	C	-0.755424	0.387801	-0.252008
C23	C	-0.755434	0.445916	-0.252015
C24	C	-0.201184	0.285444	-0.285418
C25	C	-0.146580	0.285447	-0.285425
O26	O	-0.118337	0.313910	-0.313824
N27	N	-0.119273	0.251968	-0.252050
C28	C	-0.146573	0.218480	-0.218670
O29	O	-0.118332	0.190003	-0.190283
C30	C	-0.201176	0.218475	-0.218666
C31	C	-0.228481	0.251960	-0.252039
C32	C	-0.228489	0.318927	-0.318789
C33	C	-0.283089	0.318924	-0.318781
C34	C	-0.310385	0.285440	-0.285402
C35	C	-0.283081	0.251958	-0.252032
C36	C	-0.228475	0.184984	-0.185289
C37	C	-0.283082	0.184982	-0.185288
C38	C	-0.310387	0.218467	-0.218662
C39	C	-0.364978	0.218471	-0.218645
N40	N	-0.392285	0.251951	-0.252020
C41	C	-0.364989	0.285435	-0.285399
C42	C	-0.031902	0.218492	-0.218681
C43	C	0.022700	0.218499	-0.218682
C44	C	0.022689	0.285466	-0.285438
C45	C	-0.031914	0.285461	-0.285434
C46	C	-0.059209	0.251971	-0.252056
C47	C	-0.479654	0.285428	-0.285380
C48	C	-0.534259	0.285425	-0.285367
C49	C	-0.534244	0.218456	-0.218614
C50	C	-0.479643	0.218461	-0.218624
C51	C	-0.452349	0.251949	-0.252011
O52	O	-0.393256	0.190021	-0.190262
O53	O	-0.393236	0.313902	-0.313786
C54	C	0.108115	0.251979	-0.252065
C55	C	0.050001	0.251982	-0.252063
C56	C	-0.755614	0.115586	-0.252067
C57	C	-0.755658	0.057472	-0.252082
C58	C	-0.789031	0.806277	-0.218658
C59	C	-0.789051	0.860882	-0.218665
O60	O	-0.817526	0.889117	-0.190277
N61	N	-0.755604	0.888198	-0.252066
C62	C	-0.722138	0.860907	-0.285467
O63	O	-0.693690	0.889156	-0.313878
C64	C	-0.722120	0.806304	-0.285462
C65	C	-0.755566	0.778990	-0.252055
C66	C	-0.822475	0.778964	-0.185254
C67	C	-0.822454	0.724363	-0.185246
C68	C	-0.788989	0.697076	-0.218643
C69	C	-0.755545	0.724390	-0.252047
C70	C	-0.688657	0.779014	-0.318865
C71	C	-0.688643	0.724407	-0.318857
C72	C	-0.722089	0.697094	-0.285450
C73	C	-0.722059	0.642502	-0.285436
N74	N	-0.755507	0.615186	-0.252035
C75	C	-0.788972	0.642473	-0.218638
C76	C	-0.722177	0.975578	-0.285475
C77	C	-0.722191	1.030180	-0.285477
C78	C	-0.789106	1.030151	-0.218676
C79	C	-0.789089	0.975547	-0.218671
C80	C	-0.755625	0.948261	-0.252073
C81	C	-0.788925	0.527808	-0.218625
C82	C	-0.788899	0.473202	-0.218618
C83	C	-0.721987	0.473237	-0.285421
C84	C	-0.722010	0.527837	-0.285426
C85	C	-0.755483	0.555121	-0.252026
O86	O	-0.693601	0.614232	-0.313811
O87	O	-0.817419	0.614218	-0.190236
C88	C	-0.722160	0.218417	-0.806887
C89	C	-0.722163	0.218407	-0.861491
O90	O	-0.693738	0.189975	-0.889732
N91	N	-0.755578	0.251843	-0.888802
C92	C	-0.788989	0.285294	-0.861505
O93	O	-0.817411	0.313733	-0.889749
C94	C	-0.788983	0.285306	-0.806902
C95	C	-0.755569	0.251864	-0.779594
C96	C	-0.688749	0.184978	-0.779579
C97	C	-0.688747	0.184987	-0.724978
C98	C	-0.722156	0.218435	-0.697686
C99	C	-0.755567	0.251873	-0.724993
C100	C	-0.822390	0.318759	-0.779606
C101	C	-0.822381	0.318768	-0.724999
C102	C	-0.788968	0.285326	-0.697691
C103	C	-0.788974	0.285329	-0.643100
N104	N	-0.755559	0.251894	-0.615789
C105	C	-0.722150	0.218446	-0.643082
C106	C	-0.788998	0.285267	-0.976176
C107	C	-0.789006	0.285253	-1.030778
C108	C	-0.722180	0.218367	-1.030760
C109	C	-0.722174	0.218379	-0.976157
C110	C	-0.755583	0.251832	-0.948865
C111	C	-0.722149	0.218467	-0.528417
C112	C	-0.722151	0.218478	-0.473812
C113	C	-0.788976	0.285365	-0.473834
C114	C	-0.788975	0.285353	-0.528435
C115	C	-0.755558	0.251902	-0.555725
O116	O	-0.817383	0.313748	-0.614825
O117	O	-0.693728	0.190017	-0.614832
C118	C	-0.755508	0.251945	-0.116189
C119	C	-0.755595	0.251808	-0.058076
H120	H	-0.556488	0.312695	-0.312544
Br121	Br	-0.676754	0.938552	-0.330807
Br122	Br	-0.676574	0.436194	-0.330745
H123	H	-0.457438	0.312696	-0.312568
Br124	Br	-0.643393	0.139588	-0.816609
H125	H	-0.054123	0.191221	-0.191497
Br126	Br	0.059749	0.173061	-0.173380
Br127	Br	-0.191454	0.364375	-0.364095
H128	H	-0.661393	0.702193	-0.346059
H129	H	-0.816135	0.450965	-0.191412
H130	H	-0.816183	0.550016	-0.191428
Br131	Br	-0.191433	0.139534	-0.139997
Br132	Br	-0.676804	0.173088	-0.436754
Br133	Br	-0.676606	0.564907	-0.330752
Br134	Br	-0.068964	0.330907	-0.330728
Br135	Br	-0.676838	0.172974	-1.067811
H136	H	-0.556478	0.191196	-0.191436
Br137	Br	-0.834481	0.938485	-0.173331
Br138	Br	-0.867855	0.687303	-0.139913
Br139	Br	-0.676791	1.067242	-0.330810
H140	H	-0.694966	0.191148	-0.953927
H141	H	-0.849729	0.801175	-0.158058
Br142	Br	-0.834363	0.330632	-1.067832
H143	H	-0.816189	0.312578	-0.550670
Br144	Br	-0.320137	0.364369	-0.364078
Br145	Br	0.059744	0.330905	-0.330742
Br146	Br	-0.676799	0.173066	-0.565445
H147	H	-0.816357	1.052378	-0.191485
H148	H	-0.457411	0.191196	-0.191448
H149	H	-0.661419	0.801243	-0.346066
H150	H	-0.661536	0.157758	-0.702749
Br151	Br	-0.320123	0.139527	-0.139989
Br152	Br	-0.834346	0.330668	-0.939142
H153	H	-0.849599	0.345991	-0.801831
Br154	Br	-0.867721	0.364173	-0.687963
Br155	Br	-0.834318	0.330752	-0.436784
