data_functionalizedCrystal
_audit_creation_method	'MofGen! by Chris Wilmer'
_symmetry_space_group_name_H-M	'P1'
_symmetry_Int_Tables_number	1
_symmetry_cell_setting	triclinic
loop_
_symmetry_equiv_pos_as_xyz
  x,y,z
_cell_length_a	19.288867
_cell_length_b	19.288865
_cell_length_c	17.766277
_cell_angle_alpha	89.988397
_cell_angle_beta	89.992126
_cell_angle_gamma	83.136658
loop_
_atom_site_label
_atom_site_type_symbol
_atom_site_fract_x
_atom_site_fract_y
_atom_site_fract_z
O1	O	0.921352	0.086655	-0.062576
O2	O	1.421352	0.586655	0.437424
O3	O	0.719092	0.098343	-0.062585
O4	O	1.219092	0.598343	0.437415
O5	O	0.826066	-0.008631	-0.062566
O6	O	1.326066	0.491369	0.437434
O7	O	0.814378	0.193629	-0.062596
O8	O	1.314378	0.693629	0.437404
O9	O	0.826048	-0.008637	0.062623
O10	O	1.326048	0.491363	0.562623
O11	O	0.719073	0.098337	0.062604
O12	O	1.219073	0.598337	0.562604
O13	O	0.921333	0.086650	0.062612
O14	O	1.421333	0.586650	0.562612
Cu15	Cu	0.820201	0.092493	0.074039
Cu16	Cu	1.320201	0.592493	0.574039
Cu17	Cu	0.820224	0.092500	-0.074011
Cu18	Cu	1.320224	0.592500	0.425989
O19	O	0.814359	0.193624	0.062593
O20	O	1.314359	0.693624	0.562593
C21	C	0.693206	0.097964	0.000009
C22	C	1.193206	0.597964	0.500009
C23	C	0.616102	0.096834	0.000006
C24	C	1.116102	0.596834	0.500006
C25	C	0.060547	0.088701	-0.068224
C26	C	0.560547	0.588701	0.431776
C27	C	0.132995	0.089758	-0.068227
C28	C	0.632995	0.589758	0.431773
C29	C	0.169213	0.090287	0.000013
C30	C	0.669213	0.590287	0.500013
C31	C	0.132980	0.089741	0.068261
C32	C	0.632980	0.589741	0.568261
C33	C	0.060535	0.088676	0.068262
C34	C	0.560535	0.588676	0.568262
C35	C	0.278533	0.132652	0.052287
C36	C	0.778533	0.632652	0.552287
C37	C	0.350976	0.133721	0.052283
C38	C	0.850976	0.633721	0.552283
C39	C	0.392659	0.093566	0.000012
C40	C	0.892659	0.593566	0.500012
C41	C	0.361888	0.052352	-0.052267
C42	C	0.861888	0.552352	0.447733
C43	C	0.289443	0.051288	-0.052266
C44	C	0.789443	0.551288	0.447734
C45	C	0.247768	0.091440	0.000019
C46	C	0.747768	0.591440	0.500019
C47	C	0.507439	0.095254	-0.068235
C48	C	1.007439	0.595254	0.431765
C49	C	0.579889	0.096306	-0.068235
C50	C	1.079889	0.596306	0.431765
C51	C	0.579872	0.096296	0.068255
C52	C	1.079872	0.596296	0.568255
C53	C	0.507425	0.095236	0.068253
C54	C	1.007425	0.595236	0.568253
C55	C	0.471213	0.094718	0.000006
C56	C	0.971213	0.594718	0.500006
C57	C	0.825681	-0.034510	0.000031
C58	C	1.325681	0.465490	0.500031
C59	C	0.824552	-0.111614	0.000038
C60	C	1.324552	0.388386	0.500038
C61	C	0.887320	-0.156310	0.000044
C62	C	1.387320	0.343690	0.500044
C63	C	0.886259	-0.228757	0.000032
C64	C	1.386259	0.271243	0.500032
C65	C	0.822427	-0.256505	0.000029
C66	C	1.322427	0.243495	0.500029
C67	C	0.759651	-0.211799	0.000018
C68	C	1.259651	0.288201	0.500018
C69	C	0.760713	-0.139354	0.000023
C70	C	1.260713	0.360646	0.500023
C71	C	0.772241	-0.364795	0.043877
C72	C	1.272241	0.135205	0.543877
C73	C	0.771181	-0.437239	0.043878
C74	C	1.271181	0.062761	0.543878
C75	C	0.819147	-0.479951	0.000012
C76	C	1.319147	0.020049	0.500012
C77	C	0.868185	-0.450210	-0.043845
C78	C	1.368185	0.049790	0.456155
C79	C	0.869248	-0.377765	-0.043840
C80	C	1.369248	0.122235	0.456160
C81	C	0.821268	-0.335059	0.000024
C82	C	1.321268	0.164941	0.500024
C83	C	0.880769	-0.603202	0.000004
C84	C	1.380769	-0.103202	0.500004
C85	C	0.879706	-0.675650	-0.000013
C86	C	1.379706	-0.175650	0.499987
C87	C	0.753096	-0.658691	-0.000019
C88	C	1.253096	-0.158691	0.499981
C89	C	0.754161	-0.586245	-0.000010
C90	C	1.254161	-0.086245	0.499990
C91	C	0.818000	-0.558505	0.000005
C92	C	1.318000	-0.058505	0.500005
C93	C	0.947219	0.087029	0.000017
C94	C	1.447219	0.587029	0.500017
C95	C	1.024323	0.088159	0.000015
C96	C	1.524323	0.588159	0.500015
C97	C	0.814744	0.219503	-0.000005
C98	C	1.314744	0.719503	0.499995
C99	C	0.815873	0.296607	-0.000017
C100	C	1.315873	0.796607	0.499983
N101	N	0.820191	0.092488	0.178169
N102	N	1.320191	0.592488	0.678169
N103	N	0.820240	0.092499	-0.178142
N104	N	1.320240	0.592499	0.321858
C105	C	0.867575	0.045143	0.217564
C106	C	1.367575	0.545143	0.717564
C107	C	0.867579	0.045140	0.296366
C108	C	1.367579	0.545140	0.796366
C109	C	0.820206	0.092494	0.335769
C110	C	1.320206	0.592494	0.835769
C111	C	0.772813	0.139842	0.296364
C112	C	1.272813	0.639842	0.796364
C113	C	0.772806	0.139839	0.217564
C114	C	1.272806	0.639839	0.717564
C115	C	0.810907	0.155781	0.460598
C116	C	1.310907	0.655781	0.960598
C117	C	0.810919	0.155785	0.539397
C118	C	1.310919	0.655785	1.039397
C119	C	0.820224	0.092502	0.578816
C120	C	1.320224	0.592502	1.078816
C121	C	0.829532	0.029213	0.539426
C122	C	1.329532	0.529213	1.039426
C123	C	0.829525	0.029210	0.460626
C124	C	1.329525	0.529210	0.960626
C125	C	0.820208	0.092502	0.421215
C126	C	1.320208	0.592502	0.921215
C127	C	0.867615	0.045150	0.703657
C128	C	1.367615	0.545150	1.203657
C129	C	0.867614	0.045146	0.782460
C130	C	1.367614	0.545146	1.282460
C131	C	0.772852	0.139854	0.782457
C132	C	1.272852	0.639854	1.282457
C133	C	0.772849	0.139852	0.703655
C134	C	1.272849	0.639852	1.203655
C135	C	0.820234	0.092501	0.664260
C136	C	1.320234	0.592501	1.164260
H137	H	0.162494	0.090203	-0.123798
H138	H	0.662494	0.590203	0.376202
H139	H	0.703049	-0.549852	-0.000011
H140	H	1.203049	-0.049852	0.499989
C141	C	0.691668	-0.090183	0.000017
C142	C	1.191668	0.409817	0.500017
H143	H	0.701443	-0.043064	0.000017
H144	H	1.201443	0.456936	0.500017
H145	H	0.665473	-0.098582	0.043668
H146	H	1.165473	0.401418	0.543668
H147	H	0.665494	-0.098562	-0.043649
H148	H	1.165494	0.401438	0.456351
H149	H	0.031041	0.088238	0.123832
H150	H	0.531041	0.588238	0.623832
C151	C	0.839752	-0.040401	0.417298
C152	C	1.339752	0.459599	0.917298
H153	H	0.845390	-0.078091	0.452053
H154	H	1.345390	0.421909	0.952053
H155	H	0.880137	-0.041868	0.386463
H156	H	1.380137	0.458132	0.886463
H157	H	0.800023	-0.044192	0.386655
H158	H	1.300023	0.455808	0.886655
C159	C	0.919689	-0.006948	0.174234
C160	C	1.419689	0.493052	0.674234
H161	H	0.947905	-0.035150	0.208987
H162	H	1.447905	0.464850	0.708987
H163	H	0.948519	0.017961	0.143476
H164	H	1.448519	0.517961	0.643476
H165	H	0.894787	-0.035804	0.143512
H166	H	1.394787	0.464196	0.643512
H167	H	0.909175	-0.353553	-0.079551
H168	H	1.409175	0.146447	0.420449
H169	H	0.376021	0.167297	0.094837
H170	H	0.876021	0.667297	0.594837
C171	C	0.957539	-0.125799	0.000047
C172	C	1.457539	0.374201	0.500047
H173	H	0.994770	-0.162799	0.000041
H174	H	1.494770	0.337201	0.500041
H175	H	0.960582	-0.097897	0.043702
H176	H	1.460582	0.402103	0.543702
H177	H	0.960590	-0.097886	-0.043616
H178	H	1.460590	0.402114	0.456384
H179	H	0.395825	0.019656	-0.094833
H180	H	0.895825	0.519656	0.405167
H181	H	0.701123	-0.681283	-0.000025
H182	H	1.201123	-0.181283	0.499975
H183	H	0.734277	0.178407	0.814539
H184	H	1.234277	0.678407	1.314539
C185	C	0.955306	-0.277931	0.000044
C186	C	1.455306	0.222069	0.500044
H187	H	0.993477	-0.251034	0.000058
H188	H	1.493477	0.248966	0.500058
H189	H	0.957534	-0.306539	-0.043611
H190	H	1.457534	0.193461	0.456389
H191	H	0.957508	-0.306550	0.043707
H192	H	1.457508	0.193450	0.543707
C193	C	0.919724	-0.006941	0.660316
C194	C	1.419724	0.493059	1.160316
H195	H	0.912940	-0.000157	0.607742
H196	H	1.412940	0.499843	1.107742
H197	H	0.912327	-0.053278	0.673244
H198	H	1.412327	0.446722	1.173244
H199	H	0.966059	0.000486	0.673217
H200	H	1.466059	0.500486	1.173217
C201	C	0.467601	0.094676	-0.143299
C202	C	0.967601	0.594676	0.356701
H203	H	0.419265	0.093974	-0.133526
H204	H	0.919265	0.593974	0.366474
H205	H	0.484898	0.054356	-0.171335
H206	H	0.984898	0.554356	0.328665
H207	H	0.474054	0.135353	-0.171342
H208	H	0.974054	0.635353	0.328658
H209	H	0.906165	0.006585	0.328448
H210	H	1.406165	0.506585	0.828448
C211	C	0.800682	0.225397	0.582721
C212	C	1.300682	0.725397	1.082721
H213	H	0.802027	0.216337	0.635297
H214	H	1.302027	0.716337	1.135297
H215	H	0.756795	0.250273	0.569813
H216	H	1.256795	0.750273	1.069813
H217	H	0.836920	0.252525	0.569788
H218	H	1.336920	0.752525	1.069788
H219	H	0.731248	-0.461447	0.079584
H220	H	1.231248	0.038553	0.579584
C221	C	0.800676	0.225397	0.417244
C222	C	1.300676	0.725397	0.917244
H223	H	0.795145	0.263089	0.451987
H224	H	1.295145	0.763089	0.951987
H225	H	0.760227	0.226910	0.386511
H226	H	1.260227	0.726910	0.886511
H227	H	0.840354	0.229144	0.386496
H228	H	1.340354	0.729144	0.886496
H229	H	0.837109	-0.022318	0.571520
H230	H	1.337109	0.477682	1.071520
C231	C	0.920955	-0.497180	-0.092098
C232	C	1.420955	0.002820	0.407902
H233	H	0.950314	-0.469093	-0.118209
H234	H	1.450314	0.030907	0.381791
H235	H	0.896537	-0.522218	-0.127371
H236	H	1.396537	-0.022218	0.372629
H237	H	0.948582	-0.529204	-0.060471
H238	H	1.448582	-0.029204	0.439529
C239	C	0.232688	0.176829	0.109785
C240	C	0.732688	0.676829	0.609785
H241	H	0.261386	0.201535	0.140911
H242	H	0.761386	0.701535	0.640911
H243	H	0.208349	0.147086	0.140026
H244	H	0.708349	0.647086	0.640026
H245	H	0.200050	0.209132	0.083885
H246	H	0.700050	0.709132	0.583885
C247	C	0.950985	-0.572682	0.000011
C248	C	1.450985	-0.072682	0.500011
H249	H	0.942629	-0.523134	0.000023
H250	H	1.442629	-0.023134	0.500023
H251	H	0.976828	-0.588026	-0.043645
H252	H	1.476828	-0.088026	0.456355
H253	H	0.976814	-0.588050	0.043672
H254	H	1.476814	-0.088050	0.543672
C255	C	0.172817	0.090325	0.143323
C256	C	0.672817	0.590325	0.643323
H257	H	0.221150	0.091044	0.133549
H258	H	0.721150	0.591044	0.633549
H259	H	0.166368	0.049653	0.171368
H260	H	0.666368	0.549653	0.671368
H261	H	0.155514	0.130650	0.171356
H262	H	0.655514	0.630650	0.671356
H263	H	0.733179	-0.330024	0.079602
H264	H	1.233179	0.169976	0.579602
C265	C	0.689437	-0.242319	0.000017
C266	C	1.189437	0.257681	0.500017
H267	H	0.697794	-0.291867	0.000024
H268	H	1.197794	0.208133	0.500024
H269	H	0.663607	-0.226955	-0.043639
H270	H	1.163607	0.273045	0.456361
H271	H	0.663597	-0.226971	0.043678
H272	H	1.163597	0.273029	0.543678
H273	H	0.930821	-0.712042	-0.000012
H274	H	1.430821	-0.212042	0.499988
H275	H	0.609382	0.096743	-0.123805
H276	H	1.109382	0.596743	0.376195
C277	C	0.619704	0.096877	0.143318
C278	C	1.119704	0.596877	0.643318
H279	H	0.668038	0.097592	0.133545
H280	H	1.168038	0.597592	0.633545
H281	H	0.613251	0.056206	0.171364
H282	H	1.113251	0.556206	0.671364
H283	H	0.602403	0.137203	0.171351
H284	H	1.102403	0.637203	0.671351
C285	C	0.919740	-0.006935	0.825796
C286	C	1.419740	0.493065	1.325796
H287	H	0.947962	-0.035129	0.791044
H288	H	1.447962	0.464871	1.291044
H289	H	0.894855	-0.035790	0.856550
H290	H	1.394855	0.464210	1.356550
H291	H	0.948573	0.017988	0.856521
H292	H	1.448573	0.517988	1.356521
C293	C	0.720734	0.191939	0.660318
C294	C	1.220734	0.691939	1.160318
H295	H	0.692524	0.220146	0.695069
H296	H	1.192524	0.720146	1.195069
H297	H	0.691899	0.167028	0.629590
H298	H	1.191899	0.667028	1.129590
H299	H	0.745631	0.220791	0.629567
H300	H	1.245631	0.720791	1.129567
C301	C	0.720706	0.191932	0.339705
C302	C	1.220706	0.691932	0.839705
H303	H	0.727502	0.185158	0.392278
H304	H	1.227502	0.685158	0.892278
H305	H	0.674374	0.184506	0.326807
H306	H	1.174374	0.684506	0.826807
H307	H	0.728105	0.238272	0.326773
H308	H	1.228105	0.738272	0.826773
H309	H	0.734220	0.178394	0.185488
H310	H	1.234220	0.678394	0.685488
H311	H	0.031068	0.088276	-0.123797
H312	H	0.531068	0.588276	0.376203
H313	H	0.264393	0.017728	-0.094833
H314	H	0.764393	0.517728	0.405167
H315	H	0.477930	0.094797	0.123821
H316	H	0.977930	0.594797	0.623821
