data_functionalizedCrystal
_audit_creation_method	'MofGen! by Chris Wilmer'
_symmetry_space_group_name_H-M	'P1'
_symmetry_Int_Tables_number	1
_symmetry_cell_setting	triclinic
loop_
_symmetry_equiv_pos_as_xyz
  x,y,z
_cell_length_a	10.686220
_cell_length_b	15.297327
_cell_length_c	15.298025
_cell_angle_alpha	88.390979
_cell_angle_beta	94.611289
_cell_angle_gamma	103.240265
loop_
_atom_site_label
_atom_site_type_symbol
_atom_site_fract_x
_atom_site_fract_y
_atom_site_fract_z
Zn1	Zn	1.990933	-0.175290	0.431373
Zn2	Zn	1.920193	-0.350219	0.314637
Zn3	Zn	1.739472	-0.211726	0.300599
Zn4	Zn	1.751580	-0.332306	0.471595
O5	O	1.850544	-0.267385	0.379551
O6	O	2.157351	-0.190742	0.404929
O7	O	1.861548	-0.354593	0.192359
O8	O	1.797367	-0.083222	0.295238
O9	O	2.105379	-0.319262	0.319164
O10	O	1.982114	-0.056452	0.391317
O11	O	1.728774	-0.252843	0.182045
O12	O	1.565276	-0.235474	0.334240
O13	O	1.818002	-0.288732	0.586676
O14	O	1.574172	-0.324063	0.459870
O15	O	1.993854	-0.173373	0.557125
O16	O	1.873288	-0.471514	0.358166
O17	O	1.749409	-0.458353	0.473482
C18	C	1.524140	-0.281779	0.399897
C19	C	1.384505	-0.287954	0.408625
C20	C	1.805026	-0.496995	0.421729
C21	C	1.785676	-0.595213	0.439795
C22	C	1.989443	-0.899314	0.250694
C23	C	2.007621	-0.807034	0.233717
C24	C	1.952137	-0.754074	0.285235
C25	C	1.878470	-0.793403	0.353733
C26	C	1.860282	-0.885692	0.370709
C27	C	1.822976	-0.740453	0.405249
C28	C	1.749309	-0.779782	0.473748
C29	C	1.731125	-0.872062	0.490720
C30	C	1.786609	-0.925022	0.439202
C31	C	1.841164	-0.648163	0.388274
C32	C	1.712003	-0.634542	0.508288
C33	C	1.693825	-0.726822	0.525266
C34	C	2.178223	-0.252936	0.359126
C35	C	2.317860	-0.246778	0.350422
C36	C	1.915169	-0.224990	0.603996
C37	C	1.942708	-0.206924	0.699641
C38	C	1.896280	-0.036874	0.337225
C39	C	1.915770	0.061357	0.319188
C40	C	1.654113	-0.396245	1.030792
C41	C	1.628227	-0.413216	0.940929
C42	C	1.706845	-0.361644	0.880602
C43	C	1.811354	-0.293100	0.910148
C44	C	1.837236	-0.276123	1.000020
C45	C	1.889968	-0.241522	0.849830
C46	C	1.994476	-0.172977	0.879376
C47	C	2.020355	-0.156004	0.969239
C48	C	1.941736	-0.207576	1.029566
C49	C	1.864086	-0.258498	0.759959
C50	C	2.047209	-0.138376	0.729187
C51	C	2.073095	-0.121406	0.819050
C52	C	1.786157	-0.309635	1.155983
C53	C	1.758614	-0.327698	1.060338
H54	H	1.901144	-0.616151	0.332501
Cl55	Cl	1.394693	-0.185056	0.263175
H56	H	1.666820	-0.591423	0.550237
H57	H	1.590110	-0.438224	1.079916
Cl58	Cl	1.763150	-1.041124	0.460225
Cl59	Cl	1.975403	-0.638005	0.264104
Cl60	Cl	1.601218	-0.776274	0.611375
H61	H	1.334729	-0.327939	0.465133
Cl62	Cl	2.100241	-0.757597	0.147616
Cl63	Cl	2.059182	-0.965895	0.185936
Cl64	Cl	2.204471	-0.035238	0.856204
Cl65	Cl	1.638509	-0.921503	0.576830
H66	H	1.962811	-0.193765	1.102741
Cl67	Cl	1.496849	-0.499379	0.903791
H68	H	1.778987	-0.314303	0.735911
Cl69	Cl	1.674302	-0.382981	0.767630
Cl70	Cl	2.146054	-0.073544	0.653355
Cl71	Cl	2.151754	-0.069847	1.006382
