data_functionalizedCrystal
_audit_creation_method	'MofGen! by Chris Wilmer'
_symmetry_space_group_name_H-M	'P1'
_symmetry_Int_Tables_number	1
_symmetry_cell_setting	triclinic
loop_
_symmetry_equiv_pos_as_xyz
  x,y,z
_cell_length_a	19.288864
_cell_length_b	16.109301
_cell_length_c	17.766277
_cell_angle_alpha	89.992214
_cell_angle_beta	89.976791
_cell_angle_gamma	83.298863
loop_
_atom_site_label
_atom_site_type_symbol
_atom_site_fract_x
_atom_site_fract_y
_atom_site_fract_z
O1	O	0.921601	0.103716	-0.062838
O2	O	1.421601	0.603716	0.437162
O3	O	0.719373	0.117707	-0.062787
O4	O	1.219373	0.617707	0.437213
O5	O	0.826042	-0.010338	-0.062806
O6	O	1.326042	0.489662	0.437194
O7	O	0.814932	0.231761	-0.062819
O8	O	1.314932	0.731761	0.437181
O9	O	0.826024	-0.010345	0.062382
O10	O	1.326024	0.489655	0.562382
O11	O	0.719355	0.117701	0.062402
O12	O	1.219355	0.617701	0.562402
O13	O	0.921582	0.103710	0.062351
O14	O	1.421582	0.603710	0.562351
Cu15	Cu	0.820467	0.110704	0.073807
Cu16	Cu	1.320467	0.610704	0.573807
Cu17	Cu	0.820489	0.110712	-0.074243
Cu18	Cu	1.320489	0.610712	0.425757
O19	O	0.814913	0.231755	0.062370
O20	O	1.314913	0.731755	0.562370
C21	C	0.693487	0.117254	-0.000186
C22	C	1.193487	0.617254	0.499814
C23	C	0.616380	0.115902	-0.000166
C24	C	1.116380	0.615902	0.499834
C25	C	0.571863	0.191034	-0.000182
C26	C	1.071863	0.691034	0.499818
C27	C	0.499413	0.189764	-0.000190
C28	C	0.999413	0.689764	0.499810
C29	C	0.471483	0.113359	-0.000198
C30	C	0.971483	0.613359	0.499802
C31	C	0.516009	0.038218	-0.000178
C32	C	1.016009	0.538218	0.499822
C33	C	0.588458	0.039489	-0.000162
C34	C	1.088458	0.539489	0.499838
C35	C	0.363084	0.053298	-0.044079
C36	C	0.863084	0.553298	0.455921
C37	C	0.290636	0.052029	-0.044100
C38	C	0.790636	0.552029	0.455900
C39	C	0.248028	0.109433	-0.000243
C40	C	0.748028	0.609433	0.499757
C41	C	0.277874	0.168120	0.043624
C42	C	0.777874	0.668120	0.543624
C43	C	0.350323	0.169391	0.043640
C44	C	0.850323	0.669391	0.543640
C45	C	0.392925	0.111971	-0.000214
C46	C	0.892925	0.611971	0.499786
C47	C	0.124952	0.183193	-0.000267
C48	C	0.624952	0.683193	0.499733
C49	C	0.052501	0.181920	-0.000270
C50	C	0.552501	0.681920	0.499730
C51	C	0.069099	0.030372	-0.000266
C52	C	0.569099	0.530372	0.499734
C53	C	0.141548	0.031647	-0.000254
C54	C	0.641548	0.531647	0.499746
C55	C	0.169470	0.108060	-0.000259
C56	C	0.669470	0.608060	0.499741
C57	C	0.825583	-0.041315	-0.000211
C58	C	1.325583	0.458685	0.499789
C59	C	0.824234	-0.133606	-0.000210
C60	C	1.324234	0.366394	0.499790
C61	C	0.884391	-0.356084	-0.000237
C62	C	1.384391	0.143916	0.499763
C63	C	0.883118	-0.442800	-0.000243
C64	C	1.383118	0.057200	0.499757
C65	C	0.756559	-0.422493	-0.000208
C66	C	1.256559	0.077507	0.499792
C67	C	0.757833	-0.335778	-0.000208
C68	C	1.257833	0.164222	0.499792
C69	C	0.821751	-0.302577	-0.000218
C70	C	1.321751	0.197423	0.499782
C71	C	0.819204	-0.476007	-0.000225
C72	C	1.319204	0.023993	0.499775
C73	C	0.817823	-0.570028	-0.000231
C74	C	1.317823	-0.070028	0.499769
C75	C	0.823133	-0.208549	-0.000213
C76	C	1.323133	0.291451	0.499787
C77	C	0.947469	0.104163	-0.000252
C78	C	1.447469	0.604163	0.499748
C79	C	1.024576	0.105514	-0.000277
C80	C	1.524576	0.605514	0.499723
C81	C	0.815372	0.262732	-0.000227
C82	C	1.315372	0.762732	0.499773
C83	C	0.816722	0.355022	-0.000233
C84	C	1.316722	0.855022	0.499767
N85	N	0.820456	0.110699	0.177937
N86	N	1.320456	0.610699	0.677937
N87	N	0.820505	0.110711	-0.178373
N88	N	1.320505	0.610711	0.321627
C89	C	0.867704	0.054028	0.217315
C90	C	1.367704	0.554028	0.717315
C91	C	0.867708	0.054024	0.296117
C92	C	1.367708	0.554024	0.796117
C93	C	0.820471	0.110705	0.335538
C94	C	1.320471	0.610705	0.835538
C95	C	0.773214	0.167380	0.296150
C96	C	1.273214	0.667380	0.796150
C97	C	0.773206	0.167377	0.217350
C98	C	1.273206	0.667377	0.717350
C99	C	0.811353	0.186459	0.460373
C100	C	1.311353	0.686459	0.960373
C101	C	0.811365	0.186463	0.539172
C102	C	1.311365	0.686463	1.039172
C103	C	0.820489	0.110715	0.578584
C104	C	1.320489	0.610715	1.078584
C105	C	0.829616	0.034960	0.539188
C106	C	1.329616	0.534960	1.039188
C107	C	0.829609	0.034956	0.460387
C108	C	1.329609	0.534956	0.960387
C109	C	0.820473	0.110715	0.420983
C110	C	1.320473	0.610715	0.920983
C111	C	0.867745	0.054035	0.703408
C112	C	1.367745	0.554035	1.203408
C113	C	0.867744	0.054030	0.782212
C114	C	1.367744	0.554030	1.282212
C115	C	0.773252	0.167394	0.782243
C116	C	1.273252	0.667394	1.282243
C117	C	0.773250	0.167392	0.703441
C118	C	1.273250	0.667392	1.203441
C119	C	0.820500	0.110713	0.664028
C120	C	1.320500	0.610713	1.164028
H121	H	0.243183	0.214863	0.079337
H122	H	0.743183	0.714863	0.579337
C123	C	0.919685	-0.008315	0.339443
C124	C	1.419685	0.491685	0.839443
H125	H	0.947825	-0.042068	0.304684
H126	H	1.447825	0.457932	0.804684
H127	H	0.894715	-0.042848	0.370204
H128	H	1.394715	0.457152	0.870204
H129	H	0.948591	0.021518	0.370159
H130	H	1.448591	0.521518	0.870159
C131	C	0.801321	0.269787	0.417027
C132	C	1.301321	0.769787	0.917027
H133	H	0.795898	0.314902	0.451774
H134	H	1.295898	0.814902	0.951774
H135	H	0.760876	0.271597	0.386307
H136	H	1.260876	0.771597	0.886307
H137	H	0.841010	0.274272	0.386268
H138	H	1.341010	0.774272	0.886268
H139	H	0.837046	-0.026722	0.571275
H140	H	1.337046	0.473278	1.071275
H141	H	0.463160	0.250947	-0.000201
H142	H	0.963160	0.750947	0.499799
H143	H	0.706821	-0.292210	-0.000194
H144	H	1.206821	0.207790	0.499806
C145	C	0.919721	-0.008309	0.825528
C146	C	1.419721	0.491691	1.325528
H147	H	0.947863	-0.042057	0.790766
H148	H	1.447863	0.457943	1.290766
H149	H	0.894754	-0.042847	0.856287
H150	H	1.394754	0.457153	1.356287
H151	H	0.948626	0.021523	0.856247
H152	H	1.448626	0.521523	1.356247
H153	H	0.147687	0.245413	-0.000259
H154	H	0.647687	0.745413	0.499741
C155	C	0.383153	0.233933	0.091896
C156	C	0.883153	0.733933	0.591896
H157	H	0.347405	0.267938	0.118019
H158	H	0.847405	0.767938	0.618019
H159	H	0.407759	0.268000	0.060284
H160	H	0.907759	0.768000	0.560284
H161	H	0.414541	0.205673	0.127172
H162	H	0.914541	0.705673	0.627172
H163	H	0.594592	0.253255	-0.000187
H164	H	1.094592	0.753255	0.499813
H165	H	0.734730	0.213526	0.185287
H166	H	1.234730	0.713526	0.685287
C167	C	0.919709	-0.008315	0.660052
C168	C	1.419709	0.491685	1.160052
H169	H	0.947843	-0.042077	0.694793
H170	H	1.447843	0.457923	1.194793
H171	H	0.948612	0.021502	0.629291
H172	H	1.448612	0.521502	1.129291
H173	H	0.894725	-0.042851	0.629331
H174	H	1.394725	0.457149	1.129331
C175	C	0.801331	0.269789	0.582501
C176	C	1.301331	0.769789	1.082501
H177	H	0.795884	0.314901	0.547745
H178	H	1.295884	0.814901	1.047745
H179	H	0.841019	0.274286	0.613216
H180	H	1.341019	0.774286	1.113216
H181	H	0.760888	0.271593	0.613265
H182	H	1.260888	0.771593	1.113265
H183	H	0.734751	0.213530	0.328250
H184	H	1.234751	0.713530	0.828250
H185	H	0.016255	0.243104	-0.000279
H186	H	0.516255	0.743104	0.499721
H187	H	0.906176	0.007875	0.185228
H188	H	1.406176	0.507875	0.685228
C189	C	0.954698	-0.319564	-0.000257
C190	C	1.454698	0.180436	0.499743
H191	H	0.991821	-0.363854	-0.000276
H192	H	1.491821	0.136146	0.499724
H193	H	0.957824	-0.286165	0.043397
H194	H	1.457824	0.213835	0.543397
H195	H	0.957829	-0.286154	-0.043920
H196	H	1.457829	0.213846	0.456080
C197	C	0.721291	0.229743	0.825595
C198	C	1.221291	0.729743	1.325595
H199	H	0.728064	0.221632	0.878167
H200	H	1.228064	0.721632	1.378167
H201	H	0.674939	0.220856	0.812707
H202	H	1.174939	0.720856	1.312707
H203	H	0.728823	0.285211	0.812669
H204	H	1.228823	0.785211	1.312669
H205	H	0.837038	-0.026726	0.428314
H206	H	1.337038	0.473274	0.928314
H207	H	0.046359	-0.031839	-0.000318
H208	H	0.546359	0.468161	0.499682
H209	H	0.177795	-0.029534	-0.000246
H210	H	0.677795	0.470466	0.499754
H211	H	0.704519	-0.449537	-0.000198
H212	H	1.204519	0.050463	0.499802
H213	H	0.734778	0.213542	0.671377
H214	H	1.234778	0.713542	1.171377
H215	H	0.397771	0.006551	-0.079797
H216	H	0.897771	0.506551	0.420203
C217	C	0.257808	-0.012515	-0.092354
C218	C	0.757808	0.487485	0.407646
H219	H	0.208557	-0.005044	-0.086091
H220	H	0.708557	0.494956	0.413909
H221	H	0.275693	-0.067315	-0.076928
H222	H	0.775693	0.432685	0.423072
H223	H	0.268912	-0.004994	-0.143820
H224	H	0.768912	0.495006	0.356180
C225	C	0.485290	-0.045826	-0.000191
C226	C	0.985290	0.454174	0.499809
H227	H	0.435766	-0.035823	-0.000211
H228	H	0.935766	0.464177	0.499789
H229	H	0.500546	-0.076755	0.043469
H230	H	1.000546	0.423245	0.543469
H231	H	0.500598	-0.076745	-0.043849
H232	H	1.000598	0.423255	0.456151
H233	H	0.624704	-0.021694	-0.000150
H234	H	1.124704	0.478306	0.499850
H235	H	0.934126	-0.486363	-0.000260
H236	H	1.434126	0.013637	0.499740
