data_functionalizedCrystal
_audit_creation_method	'MofGen! by Chris Wilmer'
_symmetry_space_group_name_H-M	'P1'
_symmetry_Int_Tables_number	1
_symmetry_cell_setting	triclinic
loop_
_symmetry_equiv_pos_as_xyz
  x,y,z
_cell_length_a	18.101395
_cell_length_b	19.077142
_cell_length_c	19.076919
_cell_angle_alpha	90.074357
_cell_angle_beta	87.727683
_cell_angle_gamma	92.273342
loop_
_atom_site_label
_atom_site_type_symbol
_atom_site_fract_x
_atom_site_fract_y
_atom_site_fract_z
Zn1	Zn	-0.358289	-1.058229	0.440456
Zn2	Zn	-0.024956	-0.724896	0.773789
Zn3	Zn	0.308378	-0.391563	1.107123
Zn4	Zn	-0.477362	-1.062856	0.322951
Zn5	Zn	-0.144028	-0.729523	0.656284
Zn6	Zn	0.189305	-0.396189	0.989617
Zn7	Zn	-0.348367	-0.945448	0.318246
Zn8	Zn	-0.015033	-0.612115	0.651579
Zn9	Zn	0.318300	-0.278782	0.984912
Zn10	Zn	-0.476913	-0.940678	0.435699
Zn11	Zn	-0.143580	-0.607345	0.769032
Zn12	Zn	0.189754	-0.274011	1.102366
O13	O	-0.415233	-1.001803	0.379338
O14	O	-0.081899	-0.668470	0.712671
O15	O	0.251434	-0.335136	1.046005
O16	O	-0.378425	-1.157174	0.428829
O17	O	-0.045091	-0.823841	0.762162
O18	O	0.288242	-0.490508	1.095495
O19	O	-0.456285	-1.051214	0.223995
O20	O	-0.122952	-0.717881	0.557329
O21	O	0.210381	-0.384548	0.890662
O22	O	-0.246053	-0.960469	0.334479
O23	O	0.087280	-0.627136	0.667812
O24	O	0.420613	-0.293802	1.001146
O25	O	-0.465907	-1.160573	0.342498
O26	O	-0.132574	-0.827240	0.675831
O27	O	0.200760	-0.493907	1.009164
O28	O	-0.253343	-1.043329	0.424266
O29	O	0.079990	-0.709995	0.757600
O30	O	0.413323	-0.376662	1.090933
O31	O	-0.361513	-0.964955	0.220539
O32	O	-0.028180	-0.631622	0.553872
O33	O	0.305153	-0.298289	0.887205
O34	O	-0.361078	-0.846484	0.329866
O35	O	-0.027745	-0.513151	0.663200
O36	O	0.305589	-0.179818	0.996533
O37	O	-0.465142	-0.952339	0.534661
O38	O	-0.131809	-0.619005	0.867995
O39	O	0.201524	-0.285672	1.201328
O40	O	-0.455521	-0.842980	0.416159
O41	O	-0.122187	-0.509646	0.749492
O42	O	0.211146	-0.176313	1.082825
O43	O	-0.377990	-1.038703	0.538156
O44	O	-0.044656	-0.705370	0.871490
O45	O	0.288677	-0.372036	1.204823
O46	O	-0.580932	-1.046589	0.337885
O47	O	-0.247598	-0.713255	0.671218
O48	O	0.085735	-0.379922	1.004552
O49	O	-0.580602	-0.956825	0.420721
O50	O	-0.247269	-0.623492	0.754054
O51	O	0.086065	-0.290158	1.087388
C52	C	-0.407175	-0.819236	0.371986
C53	C	-0.073841	-0.485902	0.705320
C54	C	0.259492	-0.152569	1.038653
C55	C	-0.403746	-0.741132	0.368858
C56	C	-0.070412	-0.407799	0.702191
C57	C	0.262921	-0.074465	1.035524
C58	C	-0.607638	-1.001710	0.379313
C59	C	-0.274305	-0.668376	0.712647
C60	C	0.059028	-0.335043	1.045980
C61	C	-0.689954	-1.001733	0.379329
C62	C	-0.356621	-0.668400	0.712662
C63	C	-0.023287	-0.335067	1.045996
C64	C	-0.451375	-0.702635	0.412245
C65	C	-0.118041	-0.369302	0.745579
C66	C	0.215292	-0.035969	1.078912
C67	C	-0.448143	-0.629248	0.409309
C68	C	-0.114810	-0.295915	0.742643
C69	C	0.218523	0.037418	1.075976
C70	C	-0.397286	-0.594360	0.362982
C71	C	-0.063953	-0.261027	0.696315
C72	C	0.269380	0.072307	1.029648
C73	C	-0.349652	-0.632862	0.319592
C74	C	-0.016319	-0.299529	0.652926
C75	C	0.317014	0.033805	0.986259
C76	C	-0.352881	-0.706247	0.322532
C77	C	-0.019547	-0.372914	0.655866
C78	C	0.313786	-0.039581	0.989199
C79	C	-0.382348	-0.375075	0.349382
C80	C	-0.049014	-0.041741	0.682715
C81	C	0.284319	0.291592	1.016048
C82	C	-0.379125	-0.301684	0.346443
C83	C	-0.045791	0.031649	0.679776
C84	C	0.287542	0.364983	1.013110
C85	C	-0.477615	-0.298076	0.436161
C86	C	-0.144282	0.035258	0.769495
C87	C	0.189052	0.368591	1.102828
C88	C	-0.480842	-0.371463	0.439094
C89	C	-0.147508	-0.038129	0.772428
C90	C	0.185825	0.295204	1.105761
C91	C	-0.433205	-0.409958	0.395708
C92	C	-0.099872	-0.076625	0.729041
C93	C	0.233461	0.256709	1.062374
N94	N	-0.393984	-0.519347	0.359978
N95	N	-0.060650	-0.186014	0.693311
N96	N	0.272683	0.147320	1.026644
N97	N	-0.436505	-0.484970	0.398716
N98	N	-0.103171	-0.151636	0.732049
N99	N	0.230162	0.181697	1.065382
C100	C	-0.989053	-1.001886	0.379373
C101	C	-0.655720	-0.668553	0.712706
C102	C	-0.322387	-0.335219	1.046040
C103	C	-0.957562	-0.945529	0.431631
C104	C	-0.624229	-0.612196	0.764964
C105	C	-0.290896	-0.278863	1.098298
C106	C	-0.871926	-0.945279	0.431450
C107	C	-0.538593	-0.611946	0.764784
C108	C	-0.205260	-0.278612	1.098117
C109	C	-0.840667	-1.001810	0.379352
C110	C	-0.507333	-0.668477	0.712685
C111	C	-0.174000	-0.335143	1.046019
C112	C	-0.867928	-0.984740	0.304491
C113	C	-0.534594	-0.651407	0.637824
C114	C	-0.201261	-0.318073	0.971157
C115	C	-0.953571	-0.984378	0.304802
C116	C	-0.620237	-0.651044	0.638136
C117	C	-0.286904	-0.317711	0.971469
C118	C	-0.961442	-1.075457	0.401329
C119	C	-0.628109	-0.742124	0.734662
C120	C	-0.294775	-0.408790	1.067996
C121	C	-0.875838	-1.074955	0.402936
C122	C	-0.542504	-0.741621	0.736269
C123	C	-0.209171	-0.408288	1.069602
C124	C	-0.756805	-1.001769	0.379335
C125	C	-0.423471	-0.668435	0.712669
C126	C	-0.090138	-0.335102	1.046002
C127	C	-1.072915	-1.001926	0.379385
C128	C	-0.739581	-0.668592	0.712718
C129	C	-0.406248	-0.335259	1.046051
C130	C	-0.222077	-1.001915	0.379379
C131	C	0.111256	-0.668582	0.712712
C132	C	0.444590	-0.335248	1.046045
C133	C	-0.139766	-1.001963	0.379396
C134	C	0.193568	-0.668629	0.712729
C135	C	0.526901	-0.335296	1.046063
C136	C	-0.422623	-0.994473	0.562618
C137	C	-0.089289	-0.661139	0.895951
C138	C	0.244044	-0.327806	1.229285
C139	C	-0.425772	-0.991349	0.640721
C140	C	-0.092439	-0.658016	0.974054
C141	C	0.240895	-0.324682	1.307388
C142	C	-0.423318	-0.185083	0.386710
C143	C	-0.089985	0.148250	0.720044
C144	C	0.243348	0.481583	1.053377
C145	C	-0.426753	-0.263187	0.389831
C146	C	-0.093420	0.070146	0.723164
C147	C	0.239913	0.403479	1.056497
C148	C	-0.407820	-1.009145	0.196773
C149	C	-0.074486	-0.675812	0.530106
C150	C	0.258847	-0.342478	0.863439
C151	C	-0.404468	-1.012405	0.118675
C152	C	-0.071134	-0.679072	0.452009
C153	C	0.262199	-0.345738	0.785342
C154	C	-0.381878	-1.034844	0.679235
C155	C	-0.048545	-0.701511	1.012568
C156	C	0.284789	-0.368178	1.345901
C157	C	-0.384834	-1.031901	0.752620
C158	C	-0.051500	-0.698567	1.085954
C159	C	0.281833	-0.365234	1.419287
C160	C	-0.431688	-0.985465	0.787491
C161	C	-0.098355	-0.652131	1.120824
C162	C	0.234979	-0.318798	1.454158
C163	C	-0.475584	-0.941964	0.748972
C164	C	-0.142250	-0.608631	1.082305
C165	C	0.191083	-0.275298	1.415639
C166	C	-0.472624	-0.944905	0.675588
C167	C	-0.139290	-0.611572	1.008921
C168	C	0.194043	-0.278238	1.342254
C169	C	-0.445403	-0.971845	1.006772
C170	C	-0.112070	-0.638512	1.340105
C171	C	0.221263	-0.305179	1.673439
C172	C	-0.448362	-0.968909	1.080162
C173	C	-0.115029	-0.635576	1.413495
C174	C	0.218305	-0.302243	1.746828
C175	C	-0.357610	-1.058845	1.083805
C176	C	-0.024277	-0.725512	1.417138
C177	C	0.309056	-0.392179	1.750471
C178	C	-0.354658	-1.061785	1.010419
C179	C	-0.021324	-0.728451	1.343752
C180	C	0.312009	-0.395118	1.677085
C181	C	-0.398550	-1.018282	0.971906
C182	C	-0.065217	-0.684949	1.305239
C183	C	0.268116	-0.351615	1.638573
N184	N	-0.434712	-0.982456	0.862503
N185	N	-0.101379	-0.649123	1.195836
N186	N	0.231954	-0.315790	1.529170
N187	N	-0.395522	-1.021287	0.896895
N188	N	-0.062189	-0.687954	1.230229
N189	N	0.271145	-0.354621	1.563562
H190	H	-0.492790	-0.731036	0.449968
H191	H	-0.159457	-0.397703	0.783301
H192	H	0.173876	-0.064369	1.116635
H193	H	-0.985951	-1.091601	0.455144
H194	H	-0.652617	-0.758267	0.788478
H195	H	-0.319284	-0.424934	1.121811
H196	H	-0.853645	-0.955614	0.486866
H197	H	-0.520311	-0.622280	0.820199
H198	H	-0.186978	-0.288947	1.153533
H199	H	-0.980894	-0.955733	0.487219
H200	H	-0.647561	-0.622399	0.820553
H201	H	-0.314228	-0.289066	1.153886
H202	H	-0.843510	-0.931636	0.285974
H203	H	-0.510177	-0.598302	0.619307
H204	H	-0.176843	-0.264969	0.952640
Br205	Br	-0.542264	-0.245829	0.495037
Br206	Br	-0.208930	0.087505	0.828371
Br207	Br	0.124403	0.420838	1.161704
H208	H	-0.513731	-0.904153	0.777370
H209	H	-0.180397	-0.570819	1.110703
H210	H	0.152936	-0.237486	1.444036
H211	H	-0.314092	-0.737590	0.287205
H212	H	0.019241	-0.404257	0.620539
H213	H	0.352574	-0.070924	0.953872
Br214	Br	-0.325296	-1.090966	0.804888
Br215	Br	0.008037	-0.757633	1.138221
Br216	Br	0.341370	-0.424299	1.471555
H217	H	-0.508359	-0.909479	0.644230
H218	H	-0.175026	-0.576146	0.977564
H219	H	0.158308	-0.242813	1.310897
Br220	Br	-0.310107	-0.254336	0.283558
Br221	Br	0.023226	0.078998	0.616891
Br222	Br	0.356559	0.412331	0.950225
Br223	Br	-0.846700	-1.096503	0.494788
Br224	Br	-0.513367	-0.763170	0.828121
Br225	Br	-0.180034	-0.429837	1.161454
H226	H	-0.854805	-1.118925	0.367885
H227	H	-0.521471	-0.785592	0.701219
H228	H	-0.188138	-0.452259	1.034552
H229	H	-0.848565	-0.890686	0.416671
H230	H	-0.515232	-0.557353	0.750005
H231	H	-0.181899	-0.224019	1.083338
Br232	Br	-0.512784	-0.577005	0.468197
Br233	Br	-0.179451	-0.243672	0.801530
Br234	Br	0.153883	0.089662	1.134864
Br235	Br	-0.995488	-1.145382	0.337964
Br236	Br	-0.662155	-0.812048	0.671297
Br237	Br	-0.328822	-0.478715	1.004630
H238	H	-0.316506	-1.099600	0.982032
H239	H	0.016827	-0.766266	1.315365
H240	H	0.350161	-0.432933	1.648699
Br241	Br	-0.988700	-0.855086	0.407304
Br242	Br	-0.655367	-0.521753	0.740637
Br243	Br	-0.322033	-0.188420	1.073971
Br244	Br	-0.298044	-1.117880	1.136075
Br245	Br	0.035290	-0.784547	1.469409
Br246	Br	0.368623	-0.451214	1.802742
Br247	Br	-0.549869	-0.418807	0.501966
Br248	Br	-0.216535	-0.085473	0.835299
Br249	Br	0.116798	0.247860	1.168633
Br250	Br	-0.981904	-0.894889	0.274380
Br251	Br	-0.648570	-0.561556	0.607713
Br252	Br	-0.315237	-0.228223	0.941047
Br253	Br	-0.988038	-1.050085	0.237422
Br254	Br	-0.654704	-0.716752	0.570755
Br255	Br	-0.321371	-0.383419	0.904089
H256	H	-0.343726	-1.072660	0.650848
H257	H	-0.010393	-0.739327	0.984182
H258	H	0.322940	-0.405993	1.317515
H259	H	-0.486518	-0.931093	1.108551
H260	H	-0.153185	-0.597760	1.441885
H261	H	0.180149	-0.264427	1.775218
Br262	Br	-0.504971	-0.912804	0.954514
Br263	Br	-0.171638	-0.579471	1.287847
Br264	Br	0.161696	-0.246137	1.621180
Br265	Br	-0.833967	-1.051220	0.237604
Br266	Br	-0.500633	-0.717887	0.570937
Br267	Br	-0.167300	-0.384554	0.904270
H268	H	-0.343564	-0.406409	0.314048
H269	H	-0.010231	-0.073076	0.647381
H270	H	0.323103	0.260258	0.980714
Br271	Br	-0.280624	-0.585514	0.256725
Br272	Br	0.052709	-0.252181	0.590058
Br273	Br	0.386043	0.081153	0.923391
