data_functionalizedCrystal
_audit_creation_method	'MofGen! by Chris Wilmer'
_symmetry_space_group_name_H-M	'P1'
_symmetry_Int_Tables_number	1
_symmetry_cell_setting	triclinic
loop_
_symmetry_equiv_pos_as_xyz
  x,y,z
_cell_length_a	12.996460
_cell_length_b	10.654550
_cell_length_c	10.654551
_cell_angle_alpha	95.514820
_cell_angle_beta	90.004365
_cell_angle_gamma	89.997676
loop_
_atom_site_label
_atom_site_type_symbol
_atom_site_fract_x
_atom_site_fract_y
_atom_site_fract_z
O1	O	0.085486	-1.667844	0.176401
O2	O	0.085504	-1.302365	0.193207
O3	O	0.085492	-1.493507	0.002065
O4	O	0.085498	-1.476702	0.367543
O5	O	-0.085642	-1.493487	0.002054
O6	O	-0.085630	-1.302345	0.193197
O7	O	-0.085648	-1.667824	0.176390
Cu8	Cu	-0.101265	-1.485082	0.184793
Cu9	Cu	0.101121	-1.485106	0.184805
O10	O	-0.085636	-1.476682	0.367533
C11	C	-0.000060	-1.255557	0.191968
C12	C	-0.000053	-1.116114	0.188276
N13	N	-0.243612	-1.485075	0.184783
C14	C	-0.000073	-1.492262	-0.044738
C15	C	-0.000068	-1.488570	-0.184181
C16	C	-0.663426	-1.485105	0.184807
C17	C	-0.546621	-1.485093	0.184804
C18	C	-0.453523	-1.485090	0.184796
C19	C	-0.336710	-1.485077	0.184791
N20	N	0.243468	-1.485124	0.184805
C21	C	-0.000081	-1.714632	0.177630
C22	C	-0.000082	-1.854075	0.181322
C23	C	-0.000054	-1.036629	0.300818
C24	C	-0.000072	-0.905608	0.297341
C25	C	-0.000084	-0.933570	0.068772
C26	C	-0.000073	-1.064589	0.072249
C27	C	0.093218	-1.486848	-0.249679
C28	C	0.093219	-1.483368	-0.380700
C29	C	-0.093360	-1.483337	-0.380713
C30	C	-0.093360	-1.486808	-0.249694
C31	C	-0.000069	-1.477926	0.414336
C32	C	-0.000067	-1.481619	0.553779
H33	H	-0.000046	-1.078576	0.395294
C34	C	-0.000018	-0.819520	0.419669
C35	C	0.000027	-0.892693	0.522016
C36	C	0.000090	-0.813432	0.634729
H37	H	-0.059685	-0.767808	0.423246
H38	H	0.059679	-0.767840	0.423131
H39	H	-0.059664	-0.944350	0.518556
H40	H	0.059690	-0.944402	0.518481
H41	H	0.059787	-0.761753	0.638191
H42	H	-0.059578	-0.761724	0.638293
H43	H	0.000130	-0.863068	0.704185
H44	H	-0.000106	-0.891602	-0.025693
H45	H	-0.000075	-1.129309	-0.019401
H46	H	0.169183	-1.488279	-0.196342
C47	C	0.194610	-1.481570	-0.451594
C48	C	0.276305	-1.483885	-0.366175
C49	C	0.369726	-1.482244	-0.431438
H50	H	0.198643	-1.407125	-0.493767
H51	H	0.198539	-1.553353	-0.511624
H52	H	0.272379	-1.412109	-0.306168
H53	H	0.272307	-1.558325	-0.323999
H54	H	0.373654	-1.554027	-0.491468
H55	H	0.373747	-1.407798	-0.473608
H56	H	0.425167	-1.483826	-0.373493
H57	H	-0.169315	-1.481906	-0.434070
C58	C	-0.194757	-1.488735	-0.178806
C59	C	-0.276458	-1.486492	-0.264224
C60	C	-0.369873	-1.488277	-0.198969
H61	H	-0.198771	-1.416998	-0.118755
H62	H	-0.198695	-1.563224	-0.136664
H63	H	-0.272521	-1.412011	-0.306345
H64	H	-0.272478	-1.558224	-0.324277
H65	H	-0.373812	-1.562766	-0.156827
H66	H	-0.373877	-1.416538	-0.138920
H67	H	-0.425319	-1.486767	-0.256916
