data_functionalizedCrystal
_audit_creation_method	'MofGen! by Chris Wilmer'
_symmetry_space_group_name_H-M	'P1'
_symmetry_Int_Tables_number	1
_symmetry_cell_setting	triclinic
loop_
_symmetry_equiv_pos_as_xyz
  x,y,z
_cell_length_a	12.759395
_cell_length_b	18.101397
_cell_length_c	18.101389
_cell_angle_alpha	89.978953
_cell_angle_beta	89.984463
_cell_angle_gamma	90.020311
loop_
_atom_site_label
_atom_site_type_symbol
_atom_site_fract_x
_atom_site_fract_y
_atom_site_fract_z
Zn1	Zn	1.606186	-0.294910	-0.418652
Zn2	Zn	2.106186	0.205090	0.081348
Zn3	Zn	1.606071	-0.418736	-0.294804
Zn4	Zn	2.106071	0.081264	0.205196
Zn5	Zn	1.430496	-0.294913	-0.294832
Zn6	Zn	1.930496	0.205087	0.205168
Zn7	Zn	1.430459	-0.418714	-0.418612
Zn8	Zn	1.930459	0.081286	0.081388
O9	O	1.518303	-0.356818	-0.356725
O10	O	2.018303	0.143182	0.143275
O11	O	1.753192	-0.311344	-0.402228
O12	O	2.253192	0.188656	0.097772
O13	O	1.582748	-0.402321	-0.191175
O14	O	2.082748	0.097679	0.308825
O15	O	1.453866	-0.191279	-0.311285
O16	O	1.953866	0.308721	0.188715
O17	O	1.753107	-0.402318	-0.311238
O18	O	2.253107	0.097682	0.188762
O19	O	1.582944	-0.191278	-0.402255
O20	O	2.082944	0.308722	0.097745
O21	O	1.453754	-0.311348	-0.191195
O22	O	1.953754	0.188652	0.308805
O23	O	1.283470	-0.311327	-0.311246
O24	O	1.783470	0.188673	0.188754
O25	O	1.453802	-0.402281	-0.522250
O26	O	1.953802	0.097719	-0.022250
O27	O	1.283443	-0.402283	-0.402187
O28	O	1.783443	0.097717	0.097813
O29	O	1.582908	-0.311323	-0.522279
O30	O	2.082908	0.188677	-0.022279
O31	O	1.582712	-0.522366	-0.311200
O32	O	2.082712	-0.022366	0.188800
O33	O	1.453691	-0.522350	-0.402161
O34	O	1.953691	-0.022350	0.097839
C35	C	1.245336	-0.356804	-0.356716
C36	C	1.745336	0.143196	0.143284
C37	C	1.128559	-0.356815	-0.356729
C38	C	1.628559	0.143185	0.143271
C39	C	1.128628	-0.262237	-0.451630
C40	C	1.628628	0.237763	0.048370
C41	C	1.073801	-0.214957	-0.499087
C42	C	1.573801	0.285043	0.000913
C43	C	0.964080	-0.214970	-0.499096
C44	C	1.464080	0.285030	0.000904
C45	C	0.909182	-0.262267	-0.451642
C46	C	1.409182	0.237733	0.048358
C47	C	0.964008	-0.309547	-0.404186
C48	C	1.464008	0.190453	0.095814
C49	C	1.073732	-0.309530	-0.404183
C50	C	1.573732	0.190470	0.095817
C51	C	0.963940	-0.404120	-0.309282
C52	C	1.463940	0.095880	0.190718
C53	C	1.073661	-0.404112	-0.309276
C54	C	1.573661	0.095888	0.190724
C55	C	0.909042	-0.451417	-0.261828
C56	C	1.409042	0.048583	0.238172
C57	C	0.963868	-0.498702	-0.214374
C58	C	1.463868	0.001298	0.285626
C59	C	1.073597	-0.498687	-0.214368
C60	C	1.573597	0.001313	0.285632
C61	C	1.128488	-0.451392	-0.261819
C62	C	1.628488	0.048608	0.238181
C63	C	1.518213	-0.549229	-0.356689
C64	C	2.018213	-0.049229	0.143311
C65	C	1.518271	-0.631543	-0.356698
C66	C	2.018271	-0.131543	0.143302
C67	C	1.518405	-0.930634	-0.356766
C68	C	2.018405	-0.430634	0.143234
C69	C	1.599355	-0.899288	-0.299383
C70	C	2.099355	-0.399288	0.200617
C71	C	1.599636	-0.813669	-0.299531
C72	C	2.099636	-0.313669	0.200469
C73	C	1.518339	-0.782251	-0.356732
C74	C	2.018339	-0.282251	0.143268
C75	C	1.548352	-0.813272	-0.434791
C76	C	2.048352	-0.313272	0.065209
C77	C	1.548978	-0.898916	-0.434479
C78	C	2.048978	-0.398916	0.065521
C79	C	1.407225	-0.899139	-0.336766
C80	C	1.907225	-0.399139	0.163234
C81	C	1.407774	-0.813489	-0.335023
C82	C	1.907774	-0.313489	0.164977
C83	C	1.518299	-0.698392	-0.356717
C84	C	2.018299	-0.198392	0.143283
C85	C	1.518447	-1.014493	-0.356786
C86	C	2.018447	-0.514493	0.143214
C87	C	1.792336	-0.356834	-0.356734
C88	C	2.292336	0.143166	0.143266
C89	C	1.909113	-0.356840	-0.356739
C90	C	2.409113	0.143160	0.143261
C91	C	1.518364	-0.356800	-0.549887
C92	C	2.018364	0.143200	-0.049887
C93	C	1.518390	-0.356792	-0.632201
C94	C	2.018390	0.143208	-0.132201
C95	C	1.518422	-0.163656	-0.356777
C96	C	2.018422	0.336344	0.143223
C97	C	1.518473	-0.081342	-0.356799
C98	C	2.018473	0.418658	0.143201
C99	C	1.518451	-0.356653	-0.931292
C100	C	2.018451	0.143347	-0.431292
C101	C	1.436941	-0.413699	-0.899949
C102	C	1.936941	0.086301	-0.399949
C103	C	1.437162	-0.413964	-0.814330
C104	C	1.937162	0.086036	-0.314330
C105	C	1.518420	-0.356722	-0.782910
C106	C	2.018420	0.143278	-0.282910
C107	C	1.629118	-0.377906	-0.814002
C108	C	2.129118	0.122094	-0.314002
C109	C	1.628663	-0.378280	-0.899647
C110	C	2.128663	0.121720	-0.399647
C111	C	1.490225	-0.278295	-0.899723
C112	C	1.990225	0.221705	-0.399723
C113	C	1.487762	-0.278748	-0.814072
C114	C	1.987762	0.221252	-0.314072
C115	C	1.518409	-0.356759	-0.699050
C116	C	2.018409	0.143241	-0.199050
C117	C	1.518469	-0.356617	-1.015152
C118	C	2.018469	0.143383	-0.515152
C119	C	1.518303	-0.356783	-0.164314
C120	C	2.018303	0.143217	0.335686
C121	C	1.518481	-0.356583	-0.082001
C122	C	2.018481	0.143417	0.417999
H123	H	0.919440	-0.176466	-0.537735
H124	H	1.419440	0.323534	-0.037735
H125	H	1.681261	-0.920758	-0.312463
H126	H	2.181261	-0.420758	0.187537
Cl127	Cl	1.461892	-0.930932	-0.502733
Cl128	Cl	1.961892	-0.430932	-0.002733
H129	H	1.217829	-0.451372	-0.261815
H130	H	1.717829	0.048628	0.238185
Cl131	Cl	1.372824	-0.782192	-0.246334
Cl132	Cl	1.872824	-0.282192	0.253666
Cl133	Cl	1.570725	-0.931148	-0.209750
Cl134	Cl	2.070725	-0.431148	0.290250
H135	H	1.355075	-0.400707	-0.793307
H136	H	1.855075	0.099293	-0.293307
H137	H	1.217969	-0.262218	-0.451624
H138	H	1.717969	0.237782	0.048376
H139	H	1.691454	-0.338534	-0.920383
H140	H	2.191454	0.161466	-0.420383
H141	H	1.354608	-0.400578	-0.920544
H142	H	1.854608	0.099422	-0.420544
Cl143	Cl	1.725406	-0.315773	-0.782585
Cl144	Cl	2.225406	0.184227	-0.282585
Cl145	Cl	1.309640	-0.780485	-0.394827
Cl146	Cl	1.809640	-0.280485	0.105173
Cl147	Cl	1.361981	-0.254084	-0.782706
Cl148	Cl	1.861981	0.245916	-0.282706
H149	H	1.455393	-0.471426	-0.921470
H150	H	1.955393	0.028574	-0.421470
Cl151	Cl	1.142820	-0.155500	-0.558739
Cl152	Cl	1.642820	0.344500	-0.058739
Cl153	Cl	1.674449	-0.929678	-0.460634
Cl154	Cl	2.174449	-0.429678	0.039366
H155	H	1.346911	-0.919412	-0.378560
H156	H	1.846911	-0.419412	0.121440
H157	H	1.580859	-0.792698	-0.241651
H158	H	2.080859	-0.292698	0.258349
Cl159	Cl	1.460099	-0.781860	-0.502579
Cl160	Cl	1.960099	-0.281860	-0.002579
Cl161	Cl	1.465995	-0.503627	-0.782694
Cl162	Cl	1.965995	-0.003627	-0.282694
Cl163	Cl	1.672419	-0.780074	-0.461394
Cl164	Cl	2.172419	-0.280074	0.038606
Cl165	Cl	0.771245	-0.262272	-0.451646
Cl166	Cl	1.271245	0.237728	0.048354
H167	H	1.118230	-0.537186	-0.175720
H168	H	1.618230	-0.037186	0.324280
H169	H	0.919162	-0.537204	-0.175738
H170	H	1.419162	-0.037204	0.324262
Cl171	Cl	1.365068	-0.932566	-0.250408
Cl172	Cl	1.865068	-0.432566	0.249592
H173	H	1.653457	-0.434577	-0.792555
H174	H	2.153457	0.065423	-0.292555
H175	H	1.652589	-0.435561	-0.919625
H176	H	2.152589	0.064439	-0.419625
H177	H	1.542797	-0.233989	-0.792684
H178	H	2.042797	0.266011	-0.292684
Cl179	Cl	1.726785	-0.781950	-0.319967
Cl180	Cl	2.226785	-0.281950	0.180033
Cl181	Cl	1.367760	-0.248498	-0.933060
Cl182	Cl	1.867760	0.251502	-0.433060
Cl183	Cl	1.581883	-0.212674	-0.931020
Cl184	Cl	2.081883	0.287326	-0.431020
H185	H	0.819701	-0.451422	-0.261837
H186	H	1.319701	0.048578	0.238163
