data_functionalizedCrystal
_audit_creation_method	'MofGen! by Chris Wilmer'
_symmetry_space_group_name_H-M	'P1'
_symmetry_Int_Tables_number	1
_symmetry_cell_setting	triclinic
loop_
_symmetry_equiv_pos_as_xyz
  x,y,z
_cell_length_a	21.295418
_cell_length_b	21.295417
_cell_length_c	12.645323
_cell_angle_alpha	89.967055
_cell_angle_beta	89.958322
_cell_angle_gamma	90.045515
loop_
_atom_site_label
_atom_site_type_symbol
_atom_site_fract_x
_atom_site_fract_y
_atom_site_fract_z
Zn1	Zn	0.962347	-0.250338	-0.599925
Zn2	Zn	1.462347	0.249662	-0.099925
Zn3	Zn	0.962254	-0.355613	-0.422640
Zn4	Zn	1.462254	0.144387	0.077360
Zn5	Zn	0.857074	-0.250391	-0.422610
Zn6	Zn	1.357074	0.249609	0.077390
Zn7	Zn	0.857041	-0.355603	-0.599796
Zn8	Zn	1.357041	0.144397	-0.099796
O9	O	0.909679	-0.302986	-0.511243
O10	O	1.409679	0.197014	-0.011243
O11	O	1.050424	-0.264286	-0.576473
O12	O	1.550424	0.235714	-0.076473
O13	O	0.948277	-0.341681	-0.274288
O14	O	1.448277	0.158319	0.225712
O15	O	0.871091	-0.162294	-0.446173
O16	O	1.371091	0.337706	0.053827
O17	O	1.050356	-0.341631	-0.446223
O18	O	1.550356	0.158369	0.053777
O19	O	0.948434	-0.162256	-0.576445
O20	O	1.448434	0.337744	-0.076445
O21	O	0.871001	-0.264375	-0.274267
O22	O	1.371001	0.235625	0.225733
O23	O	0.768980	-0.264365	-0.446048
O24	O	1.268980	0.235635	0.053952
O25	O	0.871035	-0.341613	-0.748161
O26	O	1.371035	0.158387	-0.248161
O27	O	0.768956	-0.341664	-0.576226
O28	O	1.268956	0.158336	-0.076226
O29	O	0.948402	-0.264276	-0.748255
O30	O	1.448402	0.235724	-0.248255
O31	O	0.948245	-0.443701	-0.446098
O32	O	1.448245	0.056299	0.053902
O33	O	0.870945	-0.443694	-0.576255
O34	O	1.370945	0.056306	-0.076255
C35	C	0.746127	-0.303019	-0.511121
C36	C	1.246127	0.196981	-0.011121
C37	C	0.676159	-0.303049	-0.511093
C38	C	1.176159	0.196951	-0.011093
C39	C	0.643296	-0.343352	-0.578776
C40	C	1.143296	0.156648	-0.078776
C41	C	0.577554	-0.343336	-0.578823
C42	C	1.077554	0.156664	-0.078823
C43	C	0.544676	-0.303024	-0.511170
C44	C	1.044676	0.196976	-0.011170
C45	C	0.577547	-0.262714	-0.443483
C46	C	1.077547	0.237286	0.056517
C47	C	0.643288	-0.262726	-0.443445
C48	C	1.143288	0.237274	0.056555
N49	N	0.441402	-0.298109	-0.418450
N50	N	0.941402	0.201891	0.081550
N51	N	0.378951	-0.298101	-0.418489
N52	N	0.878951	0.201899	0.081511
C53	C	0.346602	-0.302984	-0.511282
C54	C	0.846602	0.197016	-0.011282
N55	N	0.379063	-0.307888	-0.604037
N56	N	0.879063	0.192112	-0.104037
N57	N	0.441521	-0.307899	-0.603996
N58	N	0.941521	0.192101	-0.103996
C59	C	0.473391	-0.303006	-0.511204
C60	C	0.973391	0.196994	-0.011204
C61	C	0.242454	-0.343272	-0.579022
C62	C	0.742454	0.156728	-0.079022
C63	C	0.176710	-0.343252	-0.579071
C64	C	0.676710	0.156748	-0.079071
C65	C	0.176705	-0.262633	-0.443721
C66	C	0.676705	0.237367	0.056279
C67	C	0.242447	-0.262650	-0.443681
C68	C	0.742447	0.237350	0.056319
C69	C	0.275318	-0.302973	-0.511330
C70	C	0.775318	0.197027	-0.011330
C71	C	0.909598	-0.466538	-0.511189
C72	C	1.409598	0.033462	-0.011189
C73	C	0.909622	-0.536506	-0.511201
C74	C	1.409622	-0.036506	-0.011201
C75	C	0.949872	-0.569295	-0.579083
C76	C	1.449872	-0.069295	-0.079083
C77	C	0.949894	-0.635038	-0.579109
C78	C	1.449894	-0.135038	-0.079109
C79	C	0.909673	-0.667988	-0.511235
C80	C	1.409673	-0.167988	-0.011235
C81	C	0.869415	-0.635191	-0.443349
C82	C	1.369415	-0.135191	0.056651
C83	C	0.869390	-0.569450	-0.443332
C84	C	1.369390	-0.069450	0.056668
N85	N	0.904915	-0.771254	-0.418456
N86	N	1.404915	-0.271254	0.081544
N87	N	0.904943	-0.833705	-0.418475
N88	N	1.404943	-0.333705	0.081525
C89	C	0.909746	-0.866063	-0.511283
C90	C	1.409746	-0.366063	-0.011283
N91	N	0.914533	-0.833610	-0.604073
N92	N	1.414533	-0.333610	-0.104073
N93	N	0.914508	-0.771153	-0.604053
N94	N	1.414508	-0.271153	-0.104053
C95	C	0.909696	-0.739274	-0.511246
C96	C	1.409696	-0.239274	-0.011246
C97	C	0.950022	-0.970138	-0.579198
C98	C	1.450022	-0.470138	-0.079198
C99	C	0.950040	-1.035882	-0.579226
C100	C	1.450040	-0.535882	-0.079226
C101	C	0.869565	-1.036034	-0.443457
C102	C	1.369565	-0.536034	0.056543
C103	C	0.869544	-0.970291	-0.443438
C104	C	1.369544	-0.470291	0.056562
C105	C	0.909776	-0.937347	-0.511307
C106	C	1.409776	-0.437347	-0.011307
C107	C	1.073869	-0.302953	-0.511366
C108	C	1.573869	0.197047	-0.011366
C109	C	1.143837	-0.302939	-0.511418
C110	C	1.643837	0.197061	-0.011418
C111	C	0.909725	-0.302938	-0.787748
C112	C	1.409725	0.197062	-0.287748
C113	C	0.909745	-0.302917	-0.905578
C114	C	1.409745	0.197083	-0.405578
C115	C	0.909776	-0.138796	-0.511320
C116	C	1.409776	0.361204	-0.011320
C117	C	0.909818	-0.068828	-0.511353
C118	C	1.409818	0.431172	-0.011353
C119	C	0.860923	-0.351341	-1.073083
C120	C	1.360923	0.148659	-0.573083
C121	C	0.861050	-0.351580	-0.950523
C122	C	1.361050	0.148420	-0.450523
C123	C	0.976069	-0.320902	-0.950131
C124	C	1.476069	0.179098	-0.450131
C125	C	0.975801	-0.321205	-1.072729
C126	C	1.475801	0.178795	-0.572729
C127	C	0.892870	-0.236237	-1.072782
C128	C	1.392870	0.263763	-0.572782
C129	C	0.891390	-0.236637	-0.950175
C130	C	1.391390	0.263363	-0.450175
C131	C	0.909669	-0.302989	-0.235813
C132	C	1.409669	0.197011	0.264187
C133	C	0.909771	-0.302833	-0.117983
C134	C	1.409771	0.197167	0.382017
H135	H	0.550774	-0.229890	-0.388401
H136	H	1.050774	0.270110	0.111599
H137	H	0.670045	-0.229904	-0.388329
H138	H	1.170045	0.270096	0.111671
O139	O	0.930811	-0.191322	-0.913629
O140	O	1.430811	0.308678	-0.413629
C141	C	0.976044	-0.218679	-0.846568
C142	C	1.476044	0.281321	-0.346568
H143	H	0.980970	-0.270680	-0.866228
H144	H	1.480970	0.229320	-0.366228
H145	H	1.023161	-0.194226	-0.858521
H146	H	1.523161	0.305774	-0.358521
H147	H	0.960581	-0.213253	-0.760729
H148	H	1.460581	0.286747	-0.260729
O149	O	0.830204	-0.537664	-0.377437
O150	O	1.330204	-0.037664	0.122563
C151	C	0.767462	-0.553777	-0.400495
C152	C	1.267462	-0.053777	0.099505
H153	H	0.766160	-0.601493	-0.441258
H154	H	1.266160	-0.101493	0.058742
H155	H	0.739260	-0.556091	-0.323929
H156	H	1.239260	-0.056091	0.176071
H157	H	0.746231	-0.516776	-0.454943
H158	H	1.246231	-0.016776	0.045057
O159	O	0.989113	-0.938229	-0.645237
O160	O	1.489113	-0.438229	-0.145237
C161	C	1.024649	-0.981271	-0.705152
C162	C	1.524649	-0.481271	-0.205152
H163	H	0.998882	-1.028163	-0.708773
H164	H	1.498882	-0.528163	-0.208773
H165	H	1.031323	-0.962233	-0.788687
H166	H	1.531323	-0.462233	-0.288687
H167	H	1.072476	-0.988223	-0.666446
H168	H	1.572476	-0.488223	-0.166446
H169	H	1.013430	-0.287407	-1.102436
H170	H	1.513430	0.212593	-0.602436
H171	H	0.269218	-0.376102	-0.634111
H172	H	0.769218	0.123898	-0.134111
O173	O	0.830434	-1.067936	-0.377489
O174	O	1.330434	-0.567936	0.122511
C175	C	0.794916	-1.024894	-0.317545
C176	C	1.294916	-0.524894	0.182455
H177	H	0.792706	-0.978014	-0.360948
H178	H	1.292706	-0.478014	0.139052
H179	H	0.745329	-1.043951	-0.306137
H180	H	1.245329	-0.543951	0.193863
H181	H	0.817991	-1.017911	-0.237079
H182	H	1.317991	-0.517911	0.262921
O183	O	0.935349	-0.193194	-1.107563
O184	O	1.435349	0.306806	-0.607563
C185	C	0.980159	-0.223076	-1.172387
C186	C	1.480159	0.276924	-0.672387
H187	H	0.959309	-0.268199	-1.205848
H188	H	1.459309	0.231801	-0.705848
H189	H	0.993789	-0.190445	-1.240132
H190	H	1.493789	0.309555	-0.740132
H191	H	1.023613	-0.234749	-1.123602
H192	H	1.523613	0.265251	-0.623602
H193	H	0.871970	-0.400403	-1.103896
H194	H	1.371970	0.099597	-0.603896
H195	H	0.149954	-0.376071	-0.634193
H196	H	0.649954	0.123929	-0.134193
H197	H	0.982816	-1.062578	-0.634508
H198	H	1.482816	-0.562578	-0.134508
O199	O	0.144678	-0.223548	-0.378010
O200	O	0.644678	0.276452	0.121990
C201	C	0.079606	-0.232174	-0.392563
C202	C	0.579606	0.267826	0.107437
H203	H	0.070605	-0.280770	-0.427173
H204	H	0.570605	0.219230	0.072827
H205	H	0.054582	-0.227866	-0.313174
H206	H	0.554582	0.272134	0.186826
H207	H	0.061010	-0.194861	-0.449107
H208	H	0.561010	0.305139	0.050893
H209	H	0.550792	-0.376155	-0.633942
H210	H	1.050792	0.123845	-0.133942
H211	H	0.670055	-0.376185	-0.633862
H212	H	1.170055	0.123815	-0.133862
H213	H	0.269204	-0.229834	-0.388562
H214	H	0.769204	0.270166	0.111438
H215	H	0.982629	-0.542475	-0.634348
H216	H	1.482629	-0.042475	-0.134348
O217	O	0.830383	-0.938409	-0.377639
O218	O	1.330383	-0.438409	0.122361
C219	C	0.789701	-0.900391	-0.437895
C220	C	1.289701	-0.400391	0.062105
H221	H	0.785793	-0.920170	-0.521385
H222	H	1.285793	-0.420170	-0.021385
H223	H	0.741269	-0.899719	-0.399449
H224	H	1.241269	-0.399719	0.100551
H225	H	0.809144	-0.850542	-0.441574
H226	H	1.309144	-0.350542	0.058426
H227	H	0.811868	-0.340328	-0.920396
H228	H	1.311868	0.159672	-0.420396
H229	H	0.990642	-0.369073	-0.919439
H230	H	1.490642	0.130927	-0.419439
O231	O	0.802101	-0.338085	-1.108382
O232	O	1.302101	0.161915	-0.608382
C233	C	0.801135	-0.340813	-1.219770
C234	C	1.301135	0.159187	-0.719770
H235	H	0.841336	-0.371680	-1.248706
H236	H	1.341336	0.128320	-0.748706
H237	H	0.754525	-0.361504	-1.247195
H238	H	1.254525	0.138496	-0.747195
H239	H	0.806763	-0.291464	-1.253480
H240	H	1.306763	0.208536	-0.753480
O241	O	0.874321	-0.410514	-0.915673
O242	O	1.374321	0.089486	-0.415673
C243	C	0.828359	-0.452649	-0.953184
C244	C	1.328359	0.047351	-0.453184
H245	H	0.805197	-0.432244	-1.026814
H246	H	1.305197	0.067756	-0.526814
H247	H	0.851402	-0.499385	-0.973711
H248	H	1.351402	0.000615	-0.473711
H249	H	0.791311	-0.460391	-0.889360
H250	H	1.291311	0.039609	-0.389360
H251	H	0.982665	-0.661740	-0.634398
H252	H	1.482665	-0.161740	-0.134398
O253	O	0.830314	-0.667265	-0.377562
O254	O	1.330314	-0.167265	0.122438
C255	C	0.789644	-0.705304	-0.437842
C256	C	1.289644	-0.205304	0.062158
H257	H	0.811825	-0.715093	-0.518228
H258	H	1.311825	-0.215093	-0.018228
H259	H	0.781239	-0.751562	-0.394655
H260	H	1.281239	-0.251562	0.105345
H261	H	0.742980	-0.680019	-0.449388
H262	H	1.242980	-0.180019	0.050612
O263	O	0.992979	-0.379283	-1.106733
O264	O	1.492979	0.120717	-0.606733
C265	C	1.053680	-0.393331	-1.069126
C266	C	1.553680	0.106669	-0.569126
H267	H	1.063973	-0.363824	-0.995963
H268	H	1.563973	0.136176	-0.495963
H269	H	1.056428	-0.445278	-1.047812
H270	H	1.556428	0.054722	-0.547812
H271	H	1.089722	-0.382251	-1.133192
H272	H	1.589722	0.117749	-0.633192
H273	H	1.013440	-0.286688	-0.921025
H274	H	1.513440	0.213312	-0.421025
H275	H	0.845350	-0.219840	-1.103664
H276	H	1.345350	0.280160	-0.603664
H277	H	0.842582	-0.223074	-0.921052
H278	H	1.342582	0.276926	-0.421052
