data_functionalizedCrystal
_audit_creation_method	'MofGen! by Chris Wilmer'
_symmetry_space_group_name_H-M	'P1'
_symmetry_Int_Tables_number	1
_symmetry_cell_setting	triclinic
loop_
_symmetry_equiv_pos_as_xyz
  x,y,z
_cell_length_a	12.827892
_cell_length_b	12.827893
_cell_length_c	18.215399
_cell_angle_alpha	89.985494
_cell_angle_beta	89.973753
_cell_angle_gamma	90.015363
loop_
_atom_site_label
_atom_site_type_symbol
_atom_site_fract_x
_atom_site_fract_y
_atom_site_fract_z
Zn1	Zn	-0.416020	1.597622	-0.416091
Zn2	Zn	-0.590786	1.597530	-0.293034
Zn3	Zn	-0.416060	1.422878	-0.293044
Zn4	Zn	-0.590719	1.422849	-0.416064
O5	O	-0.503396	1.510220	-0.354558
O6	O	-0.439214	1.743846	-0.399775
O7	O	-0.567653	1.574336	-0.190051
O8	O	-0.269818	1.446108	-0.309382
O9	O	-0.567614	1.743779	-0.309365
O10	O	-0.269789	1.574493	-0.399784
O11	O	-0.439282	1.446019	-0.190058
O12	O	-0.439218	1.276638	-0.309355
O13	O	-0.567500	1.446060	-0.519052
O14	O	-0.567539	1.276617	-0.399737
O15	O	-0.439149	1.574465	-0.519072
O16	O	-0.737013	1.574308	-0.309338
O17	O	-0.736964	1.445970	-0.399728
C18	C	-0.503376	1.238710	-0.354545
C19	C	-0.503393	1.122557	-0.354557
C20	C	-0.439987	0.950761	-0.399375
C21	C	-0.439969	1.070811	-0.399364
C22	C	-0.774906	1.510155	-0.354545
C23	C	-0.891059	1.510222	-0.354564
C24	C	-0.942834	1.573803	-0.309886
C25	C	-1.062884	1.573874	-0.309905
C26	C	-0.230826	1.510314	-0.354587
C27	C	-0.114673	1.510354	-0.354600
C28	C	-0.503313	1.510269	-0.546511
C29	C	-0.503277	1.510290	-0.628310
C30	C	-0.503417	1.782790	-0.354572
C31	C	-0.503426	1.898943	-0.354578
C32	C	-0.436389	1.443532	-0.816509
C33	C	-0.436368	1.443550	-0.893368
C34	C	-0.570040	1.577173	-0.893349
C35	C	-0.570066	1.577149	-0.816492
C36	C	-0.503235	1.510330	-0.778074
C37	C	-0.503188	1.510372	-0.931790
C38	C	-0.503166	1.510393	-1.015124
C39	C	-0.503258	1.510308	-0.694735
C40	C	-0.503404	1.510231	-0.163352
C41	C	-0.503145	1.510412	-0.081553
H42	H	-0.557730	0.943457	-0.316222
H43	H	-1.107409	1.628306	-0.271653
H44	H	-1.070156	1.455913	-0.392850
H45	H	-0.935610	1.455845	-0.392831
H46	H	-0.898286	1.628189	-0.271624
H47	H	-0.381971	1.389124	-0.785231
H48	H	-0.381937	1.389156	-0.924658
N49	N	-0.642124	1.649235	-0.934786
H50	H	-0.631966	1.639116	-0.989308
H51	H	-0.625873	1.723871	-0.921357
N52	N	-0.642172	1.649200	-0.775036
H53	H	-0.625941	1.723875	-0.788413
H54	H	-0.632018	1.638954	-0.720531
N55	N	-0.368057	0.891817	-0.450194
H56	H	-0.410633	0.846545	-0.484223
H57	H	-0.319637	0.846580	-0.420268
N58	N	-0.368027	1.129827	-0.450174
H59	H	-0.378215	1.207221	-0.442966
H60	H	-0.384382	1.110825	-0.502725
H61	H	-0.557706	1.078002	-0.316201
