data_functionalizedCrystal
_audit_creation_method	'MofGen! by Chris Wilmer'
_symmetry_space_group_name_H-M	'P1'
_symmetry_Int_Tables_number	1
_symmetry_cell_setting	triclinic
loop_
_symmetry_equiv_pos_as_xyz
  x,y,z
_cell_length_a	14.519709
_cell_length_b	27.732048
_cell_length_c	12.996460
_cell_angle_alpha	89.988908
_cell_angle_beta	90.000034
_cell_angle_gamma	83.161400
loop_
_atom_site_label
_atom_site_type_symbol
_atom_site_fract_x
_atom_site_fract_y
_atom_site_fract_z
O1	O	1.222766	0.063362	-0.085445
O2	O	0.954160	0.070824	-0.085477
O3	O	1.096805	-0.003264	-0.085440
O4	O	1.080121	0.137450	-0.085482
O5	O	1.096791	-0.003268	0.085693
O6	O	0.954145	0.070820	0.085656
O7	O	1.222752	0.063358	0.085689
Cu8	Cu	1.088447	0.067089	0.101299
Cu9	Cu	1.088464	0.067093	-0.101087
O10	O	1.080106	0.137446	0.085652
C11	C	0.919799	0.070474	0.000086
C12	C	0.817435	0.069432	0.000074
C13	C	0.442606	0.065596	0.000122
C14	C	0.546896	0.066661	0.000108
C15	C	0.630018	0.067514	0.000097
C16	C	0.734314	0.068579	0.000085
C17	C	1.096448	-0.021274	0.000129
C18	C	1.095393	-0.074934	0.000138
C19	C	1.173048	-0.413378	0.000094
C20	C	1.169135	-0.615057	0.000080
O21	O	1.240145	-0.645973	0.000043
N22	N	1.084552	-0.634585	0.000070
C23	C	1.000941	-0.603690	0.000058
O24	O	0.928909	-0.624927	0.000039
C25	C	1.004855	-0.402012	0.000065
C26	C	1.089444	-0.382487	0.000085
C27	C	1.257630	-0.393853	0.000113
C28	C	1.258607	-0.343436	0.000122
C29	C	1.175003	-0.312545	0.000113
C30	C	1.090421	-0.332071	0.000094
C31	C	0.921246	-0.371118	0.000045
C32	C	0.922232	-0.320696	0.000045
C33	C	1.006820	-0.301171	0.000064
C34	C	1.007794	-0.250763	0.000094
N35	N	1.092377	-0.231235	0.000104
C36	C	1.175981	-0.262126	0.000113
C37	C	0.998893	-0.709574	0.000056
C38	C	0.997914	-0.759993	0.000056
C39	C	1.166108	-0.771356	0.000076
C40	C	1.167086	-0.720936	0.000083
C41	C	1.083476	-0.690045	0.000065
C42	C	1.178028	-0.156247	0.000133
C43	C	1.178998	-0.105825	0.000147
C44	C	1.010804	-0.094466	0.000122
C45	C	1.009833	-0.144883	0.000114
C46	C	1.093453	-0.175773	0.000116
O47	O	0.936822	-0.219818	0.000119
O48	O	1.248004	-0.240879	0.000109
C49	C	1.172071	-0.463795	0.000085
C50	C	1.087489	-0.483320	0.000066
C51	C	1.003885	-0.452429	0.000057
C52	C	1.086510	-0.533740	0.000066
C53	C	1.170115	-0.564631	0.000076
C54	C	1.254698	-0.545103	0.000085
C55	C	1.255675	-0.494686	0.000094
C56	C	0.919302	-0.471957	0.000048
C57	C	0.918331	-0.522375	0.000039
C58	C	1.001936	-0.553266	0.000049
C59	C	1.257113	0.063708	0.000124
C60	C	1.359476	0.064750	0.000129
C61	C	1.080464	0.155456	0.000080
C62	C	1.081518	0.209116	0.000065
N63	N	1.088442	0.067085	0.243646
N64	N	1.088477	0.067093	-0.243434
C65	C	1.088463	0.067094	0.663460
C66	C	1.088454	0.067093	0.546655
C67	C	1.088453	0.067090	0.453557
C68	C	1.088443	0.067088	0.336744
H69	H	1.246119	-0.181392	0.000131
C70	C	1.351659	-0.321965	0.000124
C71	C	1.420905	-0.333601	0.088986
C72	C	1.513963	-0.312135	0.088979
C73	C	1.537774	-0.279033	0.000110
C74	C	1.468527	-0.267395	-0.088758
C75	C	1.375469	-0.288861	-0.088751
H76	H	1.403280	-0.358107	0.154777
H77	H	1.565224	-0.320750	0.154766
H78	H	1.606661	-0.263142	0.000106
H79	H	1.486152	-0.242889	-0.154550
H80	H	1.324207	-0.280246	-0.154538
H81	H	1.235965	-0.705043	0.000098
C82	C	1.349605	-0.427827	0.000129
C83	C	1.419098	-0.425581	0.089011
C84	C	1.511081	-0.459551	0.089037
C85	C	1.533571	-0.495769	0.000180
C86	C	1.464076	-0.498017	-0.088709
C87	C	1.372093	-0.464046	-0.088735
H88	H	1.402452	-0.398769	0.154794
H89	H	1.562526	-0.457887	0.154839
H90	H	1.601662	-0.520916	0.000199
H91	H	1.480723	-0.524829	-0.154492
H92	H	1.320649	-0.465711	-0.154537
H93	H	0.942736	-0.069306	0.000118
C94	C	1.258075	-0.805342	0.000079
C95	C	1.280526	-0.841579	0.088939
C96	C	1.372488	-0.875566	0.088933
C97	C	1.441999	-0.873317	0.000068
C98	C	1.419550	-0.837079	-0.088799
C99	C	1.327588	-0.803091	-0.088793
H100	H	1.229068	-0.843245	0.154728
H101	H	1.389106	-0.902393	0.154719
H102	H	1.510075	-0.898477	0.000064
H103	H	1.471008	-0.835412	-0.154588
H104	H	1.310970	-0.776265	-0.154579
C105	C	0.904864	-0.781466	0.000047
C106	C	0.835612	-0.769847	0.088900
C107	C	0.742559	-0.791318	0.088884
C108	C	0.718758	-0.824407	0.000015
C109	C	0.788011	-0.836027	-0.088845
C110	C	0.881065	-0.814557	-0.088829
H111	H	0.853230	-0.745351	0.154692
H112	H	0.691293	-0.782716	0.154665
H113	H	0.649874	-0.840301	0.000004
H114	H	0.770394	-0.860523	-0.154637
H115	H	0.932331	-0.823159	-0.154610
H116	H	0.930803	-0.684426	0.000042
C117	C	0.828192	-0.392583	0.000017
C118	C	0.758933	-0.380960	0.088863
C119	C	0.665871	-0.402422	0.088833
C120	C	0.642067	-0.435507	-0.000043
C121	C	0.711327	-0.447131	-0.088896
C122	C	0.804389	-0.425669	-0.088865
H123	H	0.776553	-0.356468	0.154660
H124	H	0.614600	-0.393817	0.154608
H125	H	0.573177	-0.451394	-0.000065
H126	H	0.693708	-0.471624	-0.154693
H127	H	0.855660	-0.434275	-0.154640
C128	C	0.830257	-0.286717	0.000028
C129	C	0.760756	-0.288953	-0.088850
C130	C	0.668783	-0.254975	-0.088864
C131	C	0.646310	-0.218760	0.000000
C132	C	0.715812	-0.216522	0.088885
C133	C	0.807786	-0.250500	0.088899
H134	H	0.777390	-0.315763	-0.154639
H135	H	0.617333	-0.256632	-0.154663
H136	H	0.578226	-0.193607	-0.000010
H137	H	0.699178	-0.189712	0.154674
H138	H	0.859236	-0.248843	0.154699
H139	H	0.849444	-0.538266	0.000032
C140	C	1.346664	-0.579089	0.000092
C141	C	1.369106	-0.615328	0.088951
C142	C	1.461066	-0.649317	0.088952
C143	C	1.530585	-0.647067	0.000093
C144	C	1.508144	-0.610827	-0.088772
C145	C	1.416184	-0.576838	-0.088773
H146	H	1.317643	-0.616994	0.154735
H147	H	1.477677	-0.676144	0.154736
H148	H	1.598659	-0.672228	0.000093
H149	H	1.559608	-0.609161	-0.154557
H150	H	1.399573	-0.550011	-0.154557
H151	H	1.247882	-0.089931	0.000166
H152	H	0.940955	-0.160781	0.000126
H153	H	0.851220	-0.446810	0.000038
H154	H	1.324556	-0.478794	0.000110
