data_functionalizedCrystal
_audit_creation_method	'MofGen! by Chris Wilmer'
_symmetry_space_group_name_H-M	'P1'
_symmetry_Int_Tables_number	1
_symmetry_cell_setting	triclinic
loop_
_symmetry_equiv_pos_as_xyz
  x,y,z
_cell_length_a	23.532407
_cell_length_b	23.532407
_cell_length_c	12.996460
_cell_angle_alpha	89.989202
_cell_angle_beta	89.999749
_cell_angle_gamma	82.848678
loop_
_atom_site_label
_atom_site_type_symbol
_atom_site_fract_x
_atom_site_fract_y
_atom_site_fract_z
O1	O	0.755260	0.069136	-0.085449
O2	O	1.255260	0.569136	0.414551
O3	O	0.589397	0.079139	-0.085480
O4	O	1.089397	0.579139	0.414520
O5	O	0.677330	-0.008794	-0.085445
O6	O	1.177330	0.491206	0.414555
O7	O	0.667327	0.157069	-0.085484
O8	O	1.167327	0.657069	0.414516
O9	O	0.677321	-0.008799	0.085689
O10	O	1.177321	0.491201	0.585689
O11	O	0.589388	0.079134	0.085653
O12	O	1.089388	0.579134	0.585653
O13	O	0.755251	0.069131	0.085685
O14	O	1.255251	0.569131	0.585685
Cu15	Cu	0.672319	0.074132	0.101295
Cu16	Cu	1.172319	0.574132	0.601295
Cu17	Cu	0.672329	0.074138	-0.101091
Cu18	Cu	1.172329	0.574138	0.398909
O19	O	0.667318	0.157064	0.085649
O20	O	1.167318	0.657064	0.585649
C21	C	0.677071	-0.030013	0.000125
C22	C	1.177071	0.469987	0.500125
C23	C	0.676305	-0.093230	0.000132
C24	C	1.176305	0.406770	0.500132
C25	C	0.568176	0.078882	0.000083
C26	C	1.068176	0.578882	0.500083
C27	C	0.504959	0.078116	0.000071
C28	C	1.004959	0.578116	0.500071
C29	C	0.723539	-0.492333	0.000085
C30	C	1.223539	0.007667	0.500085
C31	C	0.722827	-0.551733	0.000077
C32	C	1.222827	-0.051733	0.500077
O33	O	0.766613	-0.588478	0.000047
O34	O	1.266613	-0.088478	0.500047
N35	N	0.670551	-0.574359	0.000068
N36	N	1.170551	-0.074359	0.500068
C37	C	0.618983	-0.537582	0.000056
C38	C	1.118983	-0.037582	0.500056
O39	O	0.574452	-0.562281	0.000047
O40	O	1.074452	-0.062281	0.500047
C41	C	0.619695	-0.478182	0.000057
C42	C	1.119695	0.021818	0.500057
C43	C	0.671974	-0.455560	0.000076
C44	C	1.171974	0.044440	0.500076
C45	C	0.775814	-0.469710	0.000104
C46	C	1.275814	0.030290	0.500104
C47	C	0.776525	-0.410313	0.000113
C48	C	1.276525	0.089687	0.500113
C49	C	0.724961	-0.373540	0.000105
C50	C	1.224961	0.126460	0.500105
C51	C	0.672685	-0.396164	0.000086
C52	C	1.172685	0.103836	0.500086
C53	C	0.568127	-0.441406	0.000038
C54	C	1.068127	0.058594	0.500038
C55	C	0.568844	-0.382004	0.000037
C56	C	1.068844	0.117996	0.500037
C57	C	0.621123	-0.359381	0.000057
C58	C	1.121123	0.140619	0.500057
C59	C	0.621832	-0.299995	0.000087
C60	C	1.121832	0.200005	0.500087
N61	N	0.674109	-0.277368	0.000097
N62	N	1.174109	0.222632	0.500097
C63	C	0.725673	-0.314141	0.000105
C64	C	1.225673	0.185859	0.500105
C65	C	0.617491	-0.662324	0.000053
C66	C	1.117491	-0.162324	0.500053
C67	C	0.616778	-0.721722	0.000060
C68	C	1.116778	-0.221722	0.500060
C69	C	0.720623	-0.735869	0.000079
C70	C	1.220623	-0.235869	0.500079
C71	C	0.721335	-0.676470	0.000080
C72	C	1.221335	-0.176470	0.500080
C73	C	0.669767	-0.639698	0.000062
C74	C	1.169767	-0.139698	0.500062
C75	C	0.727163	-0.189405	0.000127
C76	C	1.227163	0.310595	0.500127
C77	C	0.727869	-0.130003	0.000141
C78	C	1.227869	0.369997	0.500141
C79	C	0.624025	-0.115860	0.000117
C80	C	1.124025	0.384140	0.500117
C81	C	0.623318	-0.175257	0.000108
C82	C	1.123318	0.324743	0.500108
C83	C	0.674891	-0.212029	0.000110
C84	C	1.174891	0.287971	0.500110
O85	O	0.578070	-0.263215	0.000113
O86	O	1.078070	0.236785	0.500113
O87	O	0.770196	-0.289433	0.000101
O88	O	1.270196	0.210567	0.500101
C89	C	0.105856	0.125350	0.000107
C90	C	0.605856	0.625350	0.500107
C91	C	0.046456	0.124638	0.000113
C92	C	0.546456	0.624638	0.500113
O93	O	0.009711	0.168424	0.000140
O94	O	0.509711	0.668424	0.500140
N95	N	0.023830	0.072362	0.000124
N96	N	0.523830	0.572362	0.500124
C97	C	0.060607	0.020794	0.000139
C98	C	0.560607	0.520794	0.500139
O99	O	0.035908	-0.023737	0.000149
O100	O	0.535908	0.476263	0.500149
C101	C	0.120006	0.021506	0.000140
C102	C	0.620006	0.521506	0.500140
C103	C	0.142629	0.073785	0.000118
C104	C	0.642629	0.573785	0.500118
C105	C	0.128479	0.177625	0.000087
C106	C	0.628479	0.677625	0.500087
C107	C	0.187876	0.178336	0.000078
C108	C	0.687876	0.678336	0.500078
C109	C	0.224649	0.126772	0.000090
C110	C	0.724649	0.626772	0.500090
C111	C	0.202025	0.074496	0.000110
C112	C	0.702025	0.574496	0.500110
C113	C	0.156783	-0.030062	0.000162
C114	C	0.656783	0.469938	0.500162
C115	C	0.216185	-0.029345	0.000163
C116	C	0.716185	0.470655	0.500163
C117	C	0.238808	0.022934	0.000142
C118	C	0.738808	0.522934	0.500142
C119	C	0.298194	0.023643	0.000113
C120	C	0.798194	0.523643	0.500113
N121	N	0.320820	0.075920	0.000103
N122	N	0.820820	0.575920	0.500103
C123	C	0.284048	0.127484	0.000091
C124	C	0.784048	0.627484	0.500091
C125	C	-0.064135	0.019302	0.000139
C126	C	0.435865	0.519302	0.500139
C127	C	-0.123533	0.018589	0.000130
C128	C	0.376467	0.518589	0.500130
C129	C	-0.137680	0.122434	0.000107
C130	C	0.362320	0.622434	0.500107
C131	C	-0.078281	0.123146	0.000108
C132	C	0.421719	0.623146	0.500108
C133	C	-0.041509	0.071578	0.000128
C134	C	0.458491	0.571578	0.500128
C135	C	0.408784	0.128974	0.000072
C136	C	0.908784	0.628974	0.500072
C137	C	0.468186	0.129680	0.000060
C138	C	0.968186	0.629680	0.500060
C139	C	0.482329	0.025836	0.000089
C140	C	0.982329	0.525836	0.500089
C141	C	0.422932	0.025129	0.000096
C142	C	0.922932	0.525129	0.500096
C143	C	0.386160	0.076702	0.000091
C144	C	0.886160	0.576702	0.500091
O145	O	0.334974	-0.020119	0.000091
O146	O	0.834974	0.479881	0.500091
O147	O	0.308755	0.172007	0.000094
O148	O	0.808755	0.672007	0.500094
C149	C	0.776472	0.069388	0.000120
C150	C	1.276472	0.569388	0.500120
C151	C	0.839689	0.070154	0.000124
C152	C	1.339689	0.570154	0.500124
C153	C	0.667577	0.178283	0.000078
C154	C	1.167577	0.678283	0.500078
C155	C	0.668343	0.241500	0.000063
C156	C	1.168343	0.741500	0.500063
N157	N	0.672315	0.074128	0.243642
N158	N	1.172315	0.574128	0.743642
N159	N	0.672337	0.074138	-0.243438
N160	N	1.172337	0.574138	0.256562
C161	C	0.672329	0.074138	0.663456
C162	C	1.172329	0.574138	1.163456
C163	C	0.672323	0.074137	0.546651
C164	C	1.172323	0.574137	1.046651
C165	C	0.672322	0.074134	0.453553
C166	C	1.172322	0.574134	0.953553
C167	C	0.672316	0.074132	0.336740
C168	C	1.172316	0.574132	0.836740
H169	H	0.769159	-0.219337	0.000124
H170	H	1.269159	0.280663	0.500124
H171	H	-0.141947	-0.023982	0.000132
H172	H	0.358053	0.476018	0.500132
H173	H	0.246123	-0.071339	0.000181
H174	H	0.746123	0.428661	0.500181
H175	H	-0.059867	0.165717	0.000096
H176	H	0.440133	0.665717	0.500096
H177	H	0.525555	-0.459814	0.000015
H178	H	1.025555	0.040186	0.500015
H179	H	0.526850	-0.352066	0.000022
H180	H	1.026850	0.147934	0.500022
C181	C	0.246473	0.239384	0.088009
C182	C	0.746473	0.739384	0.588009
C183	C	0.212746	0.235800	0.000047
C184	C	0.712746	0.735800	0.500047
H185	H	0.261828	0.274859	0.087980
H186	H	0.761828	0.774859	0.587980
H187	H	0.223598	0.236954	0.147682
H188	H	0.723598	0.736954	0.647682
H189	H	0.276874	0.208773	0.088008
H190	H	0.776874	0.708773	0.588008
H191	H	0.182342	0.266408	0.000052
H192	H	0.682342	0.766408	0.500052
H193	H	0.235623	0.238235	-0.059642
H194	H	0.735623	0.738235	0.440358
C195	C	0.788920	-0.071432	0.088139
C196	C	1.288920	0.428568	0.588139
C197	C	0.785339	-0.105138	0.000159
C198	C	1.285339	0.394862	0.500159
H199	H	0.824400	-0.056086	0.088149
H200	H	1.324400	0.443914	0.588149
H201	H	0.758318	-0.041030	0.088130
H202	H	1.258318	0.458970	0.588130
H203	H	0.786479	-0.094324	0.147806
H204	H	1.286479	0.405676	0.647806
H205	H	0.787776	-0.082244	-0.059509
H206	H	1.287776	0.417756	0.440491
H207	H	0.815950	-0.135544	0.000158
H208	H	1.315950	0.364456	0.500158
C209	C	0.558036	-0.587327	0.088022
C210	C	1.058036	-0.087327	0.588022
C211	C	0.560803	-0.621904	0.000050
C212	C	1.060803	-0.121904	0.500050
H213	H	0.523041	-0.562374	0.088013
H214	H	1.023041	-0.062374	0.588013
H215	H	0.559915	-0.610801	0.147688
H216	H	1.059915	-0.110801	0.647688
H217	H	0.589271	-0.565350	0.088016
H218	H	1.089271	-0.065350	0.588016
H219	H	0.529570	-0.643884	0.000060
H220	H	1.029570	-0.143884	0.500060
H221	H	0.558919	-0.598428	-0.059632
H222	H	1.058919	-0.098428	0.440368
H223	H	0.580748	-0.193677	0.000120
H224	H	1.080748	0.306323	0.500120
H225	H	0.486602	0.172255	0.000042
H226	H	0.986602	0.672255	0.500042
H227	H	0.817806	-0.499645	0.000107
H228	H	1.317806	0.000355	0.500107
H229	H	0.763906	-0.658056	0.000095
H230	H	1.263906	-0.158056	0.500095
H231	H	0.098544	0.219617	0.000081
H232	H	0.598544	0.719617	0.500081
C233	C	0.765634	-0.833210	0.000055
C234	C	1.265634	-0.333210	0.500055
C235	C	0.777305	-0.776299	0.000070
C236	C	1.277305	-0.276299	0.500070
H237	H	0.800625	-0.858169	0.000042
H238	H	1.300625	-0.358169	0.500042
H239	H	0.744188	-0.840042	0.059728
H240	H	1.244188	-0.340042	0.559728
H241	H	0.744180	-0.840018	-0.059628
H242	H	1.244180	-0.340018	0.440372
H243	H	0.798755	-0.769489	0.059758
H244	H	1.298755	-0.269489	0.559758
H245	H	0.798760	-0.769464	-0.059609
H246	H	1.298760	-0.269464	0.440391
C247	C	0.579018	-0.018520	0.000104
C248	C	1.079018	0.481480	0.500104
C249	C	0.567347	-0.075432	0.000101
C250	C	1.067347	0.424568	0.500101
H251	H	0.544027	0.006439	0.000082
H252	H	1.044027	0.506439	0.500082
H253	H	0.600458	-0.011704	0.059788
H254	H	1.100458	0.488296	0.559788
H255	H	0.600478	-0.011696	-0.059569
H256	H	1.100478	0.488304	0.440431
H257	H	0.545891	-0.082257	0.059778
H258	H	1.045891	0.417743	0.559778
H259	H	0.545898	-0.082250	-0.059590
H260	H	1.045898	0.417750	0.440410
H261	H	-0.034198	-0.022693	0.000146
H262	H	0.465802	0.477307	0.500146
H263	H	0.574207	-0.740136	0.000062
H264	H	1.074207	-0.240136	0.500062
C265	C	0.400783	0.231692	0.000028
C266	C	0.900783	0.731692	0.500028
C267	C	0.368371	0.185664	0.000054
C268	C	0.868371	0.685664	0.500054
H269	H	0.375833	0.266689	0.000005
H270	H	0.875833	0.766689	0.500005
H271	H	0.424243	0.229808	0.059703
H272	H	0.924243	0.729808	0.559703
H273	H	0.424247	0.229798	-0.059654
H274	H	0.924247	0.729798	0.440346
H275	H	0.344910	0.187555	0.059740
H276	H	0.844910	0.687555	0.559740
H277	H	0.344901	0.187548	-0.059627
H278	H	0.844901	0.687548	0.440373
C279	C	0.176758	-0.132632	0.000224
C280	C	0.676758	0.367368	0.500224
C281	C	0.131927	-0.087531	0.000200
C282	C	0.631927	0.412469	0.500200
H283	H	0.161413	-0.168112	0.000257
H284	H	0.661413	0.331888	0.500257
H285	H	0.199626	-0.130195	-0.059456
H286	H	0.699626	0.369805	0.440544
H287	H	0.199634	-0.130180	0.059900
H288	H	0.699634	0.369820	0.559900
H289	H	0.109054	-0.089980	-0.059480
H290	H	0.609054	0.410020	0.440520
H291	H	0.109049	-0.089969	0.059887
H292	H	0.609049	0.410031	0.559887
H293	H	0.404512	-0.017441	0.000098
H294	H	0.904512	0.482559	0.500098
C295	C	-0.145714	0.225157	0.000087
C296	C	0.354286	0.725157	0.500087
C297	C	-0.178109	0.179117	0.000101
C298	C	0.321891	0.679117	0.500101
H299	H	-0.170674	0.260147	0.000077
H300	H	0.329326	0.760147	0.500077
H301	H	-0.122251	0.223275	0.059760
H302	H	0.377749	0.723275	0.559760
H303	H	-0.122252	0.223277	-0.059597
H304	H	0.377748	0.723277	0.440403
H305	H	-0.201568	0.180994	0.059790
H306	H	0.298432	0.680994	0.559790
H307	H	-0.201581	0.181000	-0.059577
H308	H	0.298419	0.681000	0.440423
C309	C	0.879096	-0.430282	0.000121
C310	C	1.379096	0.069718	0.500121
C311	C	0.833993	-0.385452	0.000121
C312	C	1.333993	0.114548	0.500121
H313	H	0.914576	-0.414935	0.000117
H314	H	1.414576	0.085065	0.500117
H315	H	0.876654	-0.453159	0.059795
H316	H	1.376654	0.046841	0.559795
H317	H	0.876651	-0.453149	-0.059562
H318	H	1.376651	0.046851	0.440438
H319	H	0.836436	-0.362587	0.059808
H320	H	1.336436	0.137413	0.559808
H321	H	0.836437	-0.362565	-0.059559
H322	H	1.336437	0.137435	0.440441
C323	C	0.490361	-0.076883	0.000112
C324	C	0.990361	0.423117	0.500112
C325	C	0.522756	-0.030842	0.000097
C326	C	1.022756	0.469158	0.500097
H327	H	0.515322	-0.111873	0.000115
H328	H	1.015322	0.388127	0.500115
H329	H	0.466902	-0.075005	0.059788
H330	H	0.966902	0.424995	0.559788
H331	H	0.466896	-0.074999	-0.059569
H332	H	0.966896	0.425001	0.440431
H333	H	0.546219	-0.032724	0.059782
H334	H	1.046219	0.467276	0.559782
H335	H	0.546225	-0.032722	-0.059585
H336	H	1.046225	0.467278	0.440415
