data_functionalizedCrystal
_audit_creation_method	'MofGen! by Chris Wilmer'
_symmetry_space_group_name_H-M	'P1'
_symmetry_Int_Tables_number	1
_symmetry_cell_setting	triclinic
loop_
_symmetry_equiv_pos_as_xyz
  x,y,z
_cell_length_a	9.065215
_cell_length_b	15.944551
_cell_length_c	14.421503
_cell_angle_alpha	89.999391
_cell_angle_beta	89.992441
_cell_angle_gamma	84.256718
loop_
_atom_site_label
_atom_site_type_symbol
_atom_site_fract_x
_atom_site_fract_y
_atom_site_fract_z
O1	O	1.957502	0.123144	0.077103
O2	O	1.527980	0.133249	0.077108
O3	O	1.754470	0.006010	0.077097
O4	O	1.731012	0.250382	0.077114
O5	O	1.754498	0.006019	-0.077126
O6	O	1.528008	0.133257	-0.077116
O7	O	1.957529	0.123153	-0.077120
Cu8	Cu	1.742771	0.128206	-0.091200
Cu9	Cu	1.742739	0.128196	0.091187
O10	O	1.731039	0.250391	-0.077109
C11	C	1.473030	0.132282	-0.000004
C12	C	1.309255	0.129380	-0.000002
C13	C	1.753510	-0.025287	-0.000015
C14	C	1.750591	-0.118555	-0.000015
C15	C	1.603223	-0.334527	-0.000001
C16	C	1.671669	-0.395022	-0.076043
C17	C	1.745309	-0.289321	-0.000008
C18	C	1.671675	-0.395014	0.076009
C19	C	1.740196	-0.454272	0.000003
C20	C	1.813794	-0.348587	-0.076113
C21	C	1.813780	-0.348573	0.076007
C22	C	1.882330	-0.409049	-0.000053
C23	C	1.748250	-0.194296	-0.000015
C24	C	1.737266	-0.549295	0.000003
C25	C	2.012480	0.124119	-0.000007
C26	C	2.176255	0.127021	-0.000002
C27	C	1.731999	0.281688	0.000004
C28	C	1.734919	0.374956	0.000011
N29	N	1.742805	0.128212	-0.219481
C30	C	1.847556	0.069364	-0.469115
C31	C	1.714248	0.052038	-0.530912
C32	C	1.742772	0.128202	-0.408642
C33	C	1.876049	0.145479	-0.530939
C34	C	1.742752	0.128190	-0.591364
C35	C	1.609396	0.110838	-0.469079
C36	C	1.771285	0.204312	-0.469101
C37	C	1.637880	0.187017	-0.530870
C38	C	1.742785	0.128207	-0.303381
C39	C	1.742723	0.128186	-0.696623
N40	N	1.742717	0.128182	0.219469
H41	H	1.485285	-0.302112	-0.000076
H42	H	1.549162	0.236772	-0.557814
F43	F	1.963259	0.004294	-0.433670
H44	H	1.873851	-0.328139	-0.140471
H45	H	2.000371	-0.441314	-0.000097
F46	F	1.892251	-0.321669	0.160039
H47	H	1.611584	-0.415582	-0.140330
H48	H	1.611549	-0.415549	0.140301
H49	H	1.690112	-0.012331	-0.558063
H50	H	1.496652	0.096146	-0.442020
H51	H	1.795462	0.268662	-0.441930
H52	H	1.988767	0.160097	-0.558112
