data_functionalizedCrystal
_audit_creation_method	'MofGen! by Chris Wilmer'
_symmetry_space_group_name_H-M	'P1'
_symmetry_Int_Tables_number	1
_symmetry_cell_setting	triclinic
loop_
_symmetry_equiv_pos_as_xyz
  x,y,z
_cell_length_a	12.759401
_cell_length_b	16.625545
_cell_length_c	12.759393
_cell_angle_alpha	90.032830
_cell_angle_beta	90.020938
_cell_angle_gamma	90.027083
loop_
_atom_site_label
_atom_site_type_symbol
_atom_site_fract_x
_atom_site_fract_y
_atom_site_fract_z
Zn1	Zn	1.606187	-0.320930	0.594003
Zn2	Zn	2.106187	0.179070	1.094003
Zn3	Zn	1.606045	-0.455784	0.418316
Zn4	Zn	2.106045	0.044216	0.918316
Zn5	Zn	1.430486	-0.320973	0.418338
Zn6	Zn	1.930486	0.179027	0.918338
Zn7	Zn	1.430444	-0.455728	0.593953
Zn8	Zn	1.930444	0.044272	1.093953
O9	O	1.518291	-0.388354	0.506153
O10	O	2.018291	0.111646	1.006153
O11	O	1.753189	-0.338824	0.570709
O12	O	2.253189	0.161176	1.070709
O13	O	1.582714	-0.437943	0.271298
O14	O	2.082714	0.062057	0.771298
O15	O	1.453870	-0.208135	0.441671
O16	O	1.953870	0.291865	0.941671
O17	O	1.753085	-0.437901	0.441633
O18	O	2.253085	0.062099	0.941633
O19	O	1.582957	-0.208103	0.570731
O20	O	2.082957	0.291897	1.070731
O21	O	1.453732	-0.338897	0.271314
O22	O	1.953732	0.161103	0.771314
O23	O	1.283459	-0.338843	0.441622
O24	O	1.783459	0.161157	0.941622
O25	O	1.453799	-0.437805	0.740981
O26	O	1.953799	0.062195	1.240981
O27	O	1.283429	-0.437847	0.570646
O28	O	1.783429	0.062153	1.070646
O29	O	1.582917	-0.338770	0.741018
O30	O	2.082917	0.161230	1.241018
O31	O	1.582674	-0.568609	0.441585
O32	O	2.082674	-0.068609	0.941585
O33	O	1.453661	-0.568568	0.570624
O34	O	1.953661	-0.068568	1.070624
C35	C	1.245323	-0.388344	0.506132
C36	C	1.745323	0.111656	1.006132
C37	C	1.128547	-0.388359	0.506148
C38	C	1.628547	0.111641	1.006148
C39	C	1.518176	-0.597844	0.506120
C40	C	2.018176	-0.097844	1.006120
C41	C	1.518224	-0.687466	0.506141
C42	C	2.018224	-0.187466	1.006141
C43	C	1.073696	-0.439989	0.573225
C44	C	1.573696	0.060011	1.073225
C45	C	0.963972	-0.439992	0.573245
C46	C	1.463972	0.060008	1.073245
C47	C	0.963958	-0.336733	0.439104
C48	C	1.463958	0.163267	0.939104
C49	C	1.073680	-0.336727	0.439089
C50	C	1.573680	0.163273	0.939089
C51	C	1.518265	-0.760248	0.506161
C52	C	2.018265	-0.260248	1.006161
C53	C	1.518326	-0.851556	0.506185
C54	C	2.018326	-0.351556	1.006185
C55	C	1.518380	-0.924333	0.506198
C56	C	2.018380	-0.424333	1.006198
C57	C	1.518440	-1.015647	0.506219
C58	C	2.018440	-0.515647	1.006219
C59	C	1.792324	-0.388364	0.506174
C60	C	2.292324	0.111636	1.006174
C61	C	1.909100	-0.388369	0.506183
C62	C	2.409100	0.111631	1.006183
C63	C	1.518369	-0.388276	0.780186
C64	C	2.018369	0.111724	1.280186
C65	C	1.518403	-0.388243	0.896963
C66	C	2.018403	0.111757	1.396963
C67	C	1.518434	-0.178045	0.506209
C68	C	2.018434	0.321955	1.006209
C69	C	1.518495	-0.088424	0.506233
C70	C	2.018495	0.411576	1.006233
C71	C	1.518273	-0.388373	0.233185
C72	C	2.018273	0.111627	0.733185
C73	C	1.518443	-0.388178	0.116409
C74	C	2.018443	0.111822	0.616409
C75	C	1.585639	-0.336667	0.951846
C76	C	2.085639	0.163333	1.451846
C77	C	1.585657	-0.336632	1.061570
C78	C	2.085657	0.163368	1.561570
C79	C	1.451199	-0.439757	1.061519
C80	C	1.951199	0.060243	1.561519
C81	C	1.451177	-0.439787	0.951797
C82	C	1.951177	0.060213	1.451797
H83	H	1.118365	-0.482029	0.627831
H84	H	1.618365	0.017971	1.127831
H85	H	0.919318	-0.482033	0.627868
H86	H	1.419318	0.017967	1.127868
O87	O	0.910497	-0.286657	0.373998
O88	O	1.410497	0.213343	0.873998
C89	C	0.741459	-0.240864	0.314621
C90	C	1.241459	0.259136	0.814621
C91	C	0.801869	-0.297630	0.388389
C92	C	1.301869	0.202370	0.888389
H93	H	0.653623	-0.249704	0.326246
H94	H	1.153623	0.250296	0.826246
H95	H	0.762903	-0.254940	0.229844
H96	H	1.262903	0.245060	0.729844
H97	H	0.763140	-0.175874	0.333213
H98	H	1.263140	0.324126	0.833213
H99	H	0.780221	-0.362639	0.369892
H100	H	1.280221	0.137361	0.869892
H101	H	0.780420	-0.283485	0.473144
H102	H	1.280420	0.216515	0.973144
O103	O	1.126807	-0.286545	0.373826
O104	O	1.626807	0.213455	0.873826
C105	C	1.115223	-0.184093	0.240822
C106	C	1.615223	0.315907	0.740822
C107	C	1.054928	-0.240894	0.314652
C108	C	1.554928	0.259106	0.814652
H109	H	1.057136	-0.147156	0.192976
H110	H	1.557136	0.352844	0.692976
H111	H	1.166519	-0.221019	0.185725
H112	H	1.666519	0.278981	0.685725
H113	H	1.166666	-0.142010	0.289169
H114	H	1.666666	0.357990	0.789169
H115	H	1.003429	-0.282987	0.266389
H116	H	1.503429	0.217013	0.766389
H117	H	1.003699	-0.203917	0.369751
H118	H	1.503699	0.296083	0.869751
H119	H	1.640406	-0.294633	1.106250
H120	H	2.140406	0.205367	1.606250
H121	H	1.640376	-0.294695	0.907203
H122	H	2.140376	0.205305	1.407203
O123	O	1.386003	-0.489801	1.114949
O124	O	1.886003	0.010199	1.614949
C125	C	1.326403	-0.535426	1.283958
C126	C	1.826403	-0.035426	1.783958
C127	C	1.400307	-0.478721	1.223584
C128	C	1.900307	0.021279	1.723584
H129	H	1.337926	-0.526475	1.371800
H130	H	1.837926	-0.026475	1.871800
H131	H	1.344802	-0.600467	1.262447
H132	H	1.844802	-0.100467	1.762447
H133	H	1.241704	-0.521275	1.262313
H134	H	1.741704	-0.021275	1.762313
H135	H	1.485030	-0.492798	1.245197
H136	H	1.985030	0.007202	1.745197
H137	H	1.381817	-0.413697	1.245100
H138	H	1.881817	0.086303	1.745100
H139	H	1.396417	-0.481785	0.907110
H140	H	1.896417	0.018215	1.407110
