data_functionalizedCrystal
_audit_creation_method	'MofGen! by Chris Wilmer'
_symmetry_space_group_name_H-M	'P1'
_symmetry_Int_Tables_number	1
_symmetry_cell_setting	triclinic
loop_
_symmetry_equiv_pos_as_xyz
  x,y,z
_cell_length_a	18.215405
_cell_length_b	21.395364
_cell_length_c	21.395355
_cell_angle_alpha	90.025298
_cell_angle_beta	89.980149
_cell_angle_gamma	89.958414
loop_
_atom_site_label
_atom_site_type_symbol
_atom_site_fract_x
_atom_site_fract_y
_atom_site_fract_z
Zn1	Zn	-0.292742	-0.957885	-0.354268
Zn2	Zn	0.207258	-0.457885	0.145732
Zn3	Zn	-0.415790	-0.957798	-0.249488
Zn4	Zn	0.084210	-0.457798	0.250512
Zn5	Zn	-0.292778	-0.853100	-0.249504
Zn6	Zn	0.207222	-0.353100	0.250496
Zn7	Zn	-0.415807	-0.853079	-0.354227
Zn8	Zn	0.084193	-0.353079	0.145773
O9	O	-0.354279	-0.905465	-0.301872
O10	O	0.145721	-0.405465	0.198128
O11	O	-0.309042	-1.045551	-0.340380
O12	O	0.190958	-0.545551	0.159620
O13	O	-0.399480	-0.943881	-0.161812
O14	O	0.100520	-0.443881	0.338188
O15	O	-0.189789	-0.867044	-0.263424
O16	O	0.310211	-0.367044	0.236576
O17	O	-0.399445	-1.045487	-0.263398
O18	O	0.100555	-0.545487	0.236602
O19	O	-0.189762	-0.944029	-0.340394
O20	O	0.310238	-0.444029	0.159606
O21	O	-0.309103	-0.866960	-0.161824
O22	O	0.190897	-0.366960	0.338176
O23	O	-0.309120	-0.765419	-0.263384
O24	O	0.190880	-0.265419	0.236616
O25	O	-0.399474	-0.867010	-0.441910
O26	O	0.100526	-0.367010	0.058090
O27	O	-0.399509	-0.765404	-0.340324
O28	O	0.100491	-0.265404	0.159676
O29	O	-0.309058	-0.944010	-0.441941
O30	O	0.190942	-0.444010	0.058059
O31	O	-0.518776	-0.943862	-0.263358
O32	O	-0.018776	-0.443862	0.236642
O33	O	-0.518789	-0.866926	-0.340310
O34	O	-0.018789	-0.366926	0.159690
C35	C	-0.354321	-0.742678	-0.301852
C36	C	0.145679	-0.242678	0.198148
C37	C	-0.354356	-0.673036	-0.301858
C38	C	0.145644	-0.173036	0.198142
C39	C	-0.307361	-0.640379	-0.342004
C40	C	0.192639	-0.140379	0.157996
C41	C	-0.307344	-0.574943	-0.342006
C42	C	0.192656	-0.074943	0.157994
C43	C	-0.354335	-0.542168	-0.301868
C44	C	0.145665	-0.042168	0.198132
C45	C	-0.401333	-0.574834	-0.261715
C46	C	0.098667	-0.074834	0.238285
C47	C	-0.401343	-0.640268	-0.261710
C48	C	0.098657	-0.140268	0.238290
C49	C	-0.420614	-0.438449	-0.296828
C50	C	0.079386	0.061551	0.203172
C51	C	-0.420604	-0.373017	-0.296837
C52	C	0.079396	0.126983	0.203163
C53	C	-0.354302	-0.340347	-0.301879
C54	C	0.145698	0.159653	0.198121
C55	C	-0.288006	-0.373119	-0.306926
C56	C	0.211994	0.126881	0.193074
C57	C	-0.288017	-0.438553	-0.306921
C58	C	0.211983	0.061447	0.193079
C59	C	-0.354328	-0.471216	-0.301869
C60	C	0.145672	0.028784	0.198131
C61	C	-0.307284	-0.236737	-0.342029
C62	C	0.192716	0.263263	0.157971
C63	C	-0.307266	-0.171301	-0.342026
C64	C	0.192734	0.328699	0.157974
C65	C	-0.401261	-0.171192	-0.261738
C66	C	0.098739	0.328808	0.238262
C67	C	-0.401273	-0.236627	-0.261738
C68	C	0.098727	0.263373	0.238262
C69	C	-0.354285	-0.269396	-0.301887
C70	C	0.145715	0.230604	0.198113
C71	C	-0.545485	-0.905399	-0.301842
C72	C	-0.045485	-0.405399	0.198158
C73	C	-0.627284	-0.905428	-0.301850
C74	C	-0.127284	-0.405428	0.198150
C75	C	-0.815447	-0.945583	-0.261855
C76	C	-0.315447	-0.445583	0.238145
C77	C	-0.892306	-0.945611	-0.261870
C78	C	-0.392306	-0.445611	0.238130
C79	C	-0.892359	-0.865428	-0.341934
C80	C	-0.392359	-0.365428	0.158066
C81	C	-0.815501	-0.865403	-0.341921
C82	C	-0.315501	-0.365403	0.158079
C83	C	-0.777048	-0.905480	-0.301878
C84	C	-0.277048	-0.405480	0.198122
C85	C	-0.930764	-0.905532	-0.301906
C86	C	-0.430764	-0.405532	0.198094
C87	C	-1.014097	-0.905563	-0.301923
C88	C	-0.514097	-0.405563	0.198077
C89	C	-0.693709	-0.905451	-0.301862
C90	C	-0.193709	-0.405451	0.198138
C91	C	-0.162326	-0.905549	-0.301916
C92	C	0.337674	-0.405549	0.198084
C93	C	-0.080527	-0.905584	-0.301934
C94	C	0.419473	-0.405584	0.198066
C95	C	-0.354264	-0.905517	-0.465295
C96	C	0.145736	-0.405517	0.034705
C97	C	-0.354258	-0.905539	-0.534936
C98	C	0.145742	-0.405539	-0.034936
C99	C	-0.354247	-0.068889	-0.301889
C100	C	0.145753	0.431111	0.198111
C101	C	-0.354256	-0.138530	-0.301887
C102	C	0.145744	0.361470	0.198113
C103	C	-0.307176	-0.945632	-0.567666
C104	C	0.192824	-0.445632	-0.067666
C105	C	-0.307145	-0.945631	-0.633102
C106	C	0.192855	-0.445631	-0.133102
C107	C	-0.354208	-0.905544	-0.665805
C108	C	0.145792	-0.405544	-0.165805
C109	C	-0.401292	-0.865444	-0.633067
C110	C	0.098708	-0.365444	-0.133067
C111	C	-0.401317	-0.865442	-0.567633
C112	C	0.098683	-0.365442	-0.067633
C113	C	-0.420473	-0.900574	-0.769469
C114	C	0.079527	-0.400574	-0.269469
C115	C	-0.420449	-0.900581	-0.834902
C116	C	0.079551	-0.400581	-0.334902
C117	C	-0.354130	-0.905548	-0.867626
C118	C	0.145870	-0.405548	-0.367626
C119	C	-0.287832	-0.910522	-0.834908
C120	C	0.212168	-0.410522	-0.334908
C121	C	-0.287857	-0.910519	-0.769474
C122	C	0.212143	-0.410519	-0.269474
C123	C	-0.354185	-0.905542	-0.736757
C124	C	0.145815	-0.405542	-0.236757
C125	C	-0.307010	-0.945642	-0.971308
C126	C	0.192990	-0.445642	-0.471308
C127	C	-0.306977	-0.945636	-1.036745
C128	C	0.193023	-0.445636	-0.536745
C129	C	-0.401131	-0.865453	-1.036709
C130	C	0.098869	-0.365453	-0.536709
C131	C	-0.401158	-0.865455	-0.971273
C132	C	0.098842	-0.365455	-0.471273
C133	C	-0.354098	-0.905553	-0.938577
C134	C	0.145902	-0.405553	-0.438577
C135	C	-0.354241	-0.905450	-0.139084
C136	C	0.145759	-0.405450	0.360916
C137	C	-0.354040	-0.905549	-0.069443
C138	C	0.145960	-0.405549	0.430557
H139	H	-0.474609	-0.465043	-0.292721
H140	H	0.025391	0.034957	0.207279
H141	H	-0.784234	-0.832747	-0.374516
H142	H	-0.284234	-0.332747	0.125484
O143	O	-0.452053	-0.822208	-0.668338
O144	O	0.047947	-0.322208	-0.168338
H145	H	-0.439439	-0.773040	-0.655764
H146	H	0.060561	-0.273040	-0.155764
O147	O	-0.451887	-0.822210	-1.071972
O148	O	0.048113	-0.322210	-0.571972
H149	H	-0.509649	-0.832924	-1.059415
H150	H	-0.009649	-0.332924	-0.559415
O151	O	-0.491955	-0.895221	-0.870184
O152	O	0.008045	-0.395221	-0.370184
H153	H	-0.480799	-0.896066	-0.921182
H154	H	0.019201	-0.396066	-0.421182
O155	O	-0.452083	-0.822185	-0.532325
O156	O	0.047917	-0.322185	-0.032325
H157	H	-0.484800	-0.794304	-0.566056
H158	H	0.015200	-0.294304	-0.066056
O159	O	-0.451939	-0.135851	-0.218440
O160	O	0.048061	0.364149	0.281560
H161	H	-0.509719	-0.148375	-0.229088
H162	H	-0.009719	0.351625	0.270912
O163	O	-0.933833	-0.822191	-0.385110
O164	O	-0.433833	-0.322191	0.114890
H165	H	-0.993728	-0.828937	-0.378388
H166	H	-0.493728	-0.328937	0.121612
H167	H	-0.439544	-0.263217	-0.229049
H168	H	0.060456	0.236783	0.270951
O169	O	-0.256601	-0.272085	-0.385325
O170	O	0.243399	0.227915	0.114675
H171	H	-0.219123	-0.301916	-0.357336
H172	H	0.280877	0.198084	0.142664
H173	H	-0.268856	-0.978281	-0.541049
H174	H	0.231144	-0.478281	-0.041049
O175	O	-0.256188	-0.988881	-1.072044
O176	O	0.243812	-0.488881	-0.572044
H177	H	-0.218732	-0.960856	-1.101836
H178	H	0.281268	-0.460856	-0.601836
O179	O	-0.452012	-0.539484	-0.218422
O180	O	0.047988	-0.039484	0.281578
H181	H	-0.484689	-0.573189	-0.190499
H182	H	0.015311	-0.073189	0.309501
O183	O	-0.452033	-0.675498	-0.218409
O184	O	0.047967	-0.175498	0.281591
H185	H	-0.484709	-0.641717	-0.190499
H186	H	0.015291	-0.141717	0.309501
O187	O	-0.773968	-0.988813	-0.218676
O188	O	-0.273968	-0.488813	0.281324
H189	H	-0.813585	-1.016709	-0.190853
H190	H	-0.313585	-0.516709	0.309147
H191	H	-0.923567	-0.978267	-0.229280
H192	H	-0.423567	-0.478267	0.270720
O193	O	-0.256369	-0.988880	-0.668416
O194	O	0.243631	-0.488880	-0.168416
H195	H	-0.223655	-1.016764	-0.634687
H196	H	0.276345	-0.516764	-0.134687
O197	O	-0.216357	-0.915880	-0.734183
O198	O	0.283643	-0.415880	-0.234183
H199	H	-0.170233	-0.919332	-0.767926
H200	H	0.329767	-0.419332	-0.267926
H201	H	-0.233828	-0.914568	-0.861550
H202	H	0.266172	-0.414568	-0.361550
O203	O	-0.256248	-0.988879	-0.936035
O204	O	0.243752	-0.488879	-0.436035
H205	H	-0.223494	-1.016751	-0.969790
H206	H	0.276506	-0.516751	-0.469790
O207	O	-0.256571	-0.136073	-0.385324
O208	O	0.243429	0.363927	0.114676
H209	H	-0.269288	-0.148639	-0.434479
H210	H	0.230712	0.351361	0.065521
H211	H	-0.474465	-0.896362	-0.742831
H212	H	0.025535	-0.396362	-0.242831
O213	O	-0.451919	-0.822196	-0.935965
O214	O	0.048081	-0.322196	-0.435965
H215	H	-0.484634	-0.794315	-0.969697
H216	H	0.015366	-0.294315	-0.469697
O217	O	-0.216519	-0.473903	-0.312347
O218	O	0.283481	0.026097	0.187653
H219	H	-0.170408	-0.440199	-0.315847
H220	H	0.329592	0.059801	0.184153
H221	H	-0.269072	-0.548349	-0.374696
H222	H	0.230928	-0.048349	0.125304
O223	O	-0.256671	-0.675724	-0.385293
O224	O	0.243329	-0.175724	0.114707
H225	H	-0.223983	-0.642017	-0.413204
H226	H	0.276017	-0.142017	0.086796
O227	O	-0.492107	-0.337678	-0.291384
O228	O	0.007893	0.162322	0.208616
H229	H	-0.528325	-0.350236	-0.331156
H230	H	-0.028325	0.149764	0.168844
O231	O	-0.216485	-0.337895	-0.312360
O232	O	0.283515	0.162105	0.187640
H233	H	-0.227611	-0.286889	-0.311506
H234	H	0.272389	0.213111	0.188494
