data_functionalizedCrystal
_audit_creation_method	'MofGen! by Chris Wilmer'
_symmetry_space_group_name_H-M	'P1'
_symmetry_Int_Tables_number	1
_symmetry_cell_setting	triclinic
loop_
_symmetry_equiv_pos_as_xyz
  x,y,z
_cell_length_a	11.026607
_cell_length_b	19.288865
_cell_length_c	17.766277
_cell_angle_alpha	90.011603
_cell_angle_beta	90.008266
_cell_angle_gamma	95.861132
loop_
_atom_site_label
_atom_site_type_symbol
_atom_site_fract_x
_atom_site_fract_y
_atom_site_fract_z
O1	O	-1.608583	-0.290662	-0.062628
O2	O	-1.255458	-0.257564	-0.062625
O3	O	-1.442224	-0.174277	-0.062612
O4	O	-1.421817	-0.373949	-0.062641
O5	O	-1.442191	-0.174267	0.062577
O6	O	-1.255425	-0.257555	0.062563
O7	O	-1.608550	-0.290652	0.062561
Cu8	Cu	-1.431984	-0.274102	0.073993
Cu9	Cu	-1.432023	-0.274114	-0.074057
O10	O	-1.421784	-0.373940	0.062547
C11	C	-1.210264	-0.251454	-0.000030
C12	C	-1.075649	-0.233252	-0.000028
C13	C	-1.441551	-0.148312	-0.000015
C14	C	-1.439580	-0.070959	-0.000008
C15	C	-1.653744	-0.296763	-0.000036
C16	C	-1.788358	-0.314964	-0.000043
C17	C	-1.001569	-0.283510	-0.000036
C18	C	-0.862437	-0.264699	-0.000035
C19	C	-1.422457	-0.399904	-0.000051
C20	C	-1.424428	-0.477258	-0.000063
N21	N	-1.431966	-0.274095	0.178123
C22	C	-1.549166	-0.040161	-0.000006
C23	C	-1.547314	0.032521	-0.000018
C24	C	-1.435870	0.074403	-0.000017
C25	C	-1.326269	0.043597	-0.000024
C26	C	-1.328124	-0.029084	-0.000020
C27	C	-1.348250	0.193805	0.043834
C28	C	-1.346400	0.266484	0.043835
C29	C	-1.430144	0.298575	-0.000034
C30	C	-1.515759	0.257976	-0.043893
C31	C	-1.517614	0.185296	-0.043889
C32	C	-1.433846	0.153213	-0.000022
C33	C	-1.537729	0.408182	-0.000045
C34	C	-1.535873	0.480866	-0.000062
C35	C	-1.314825	0.491940	-0.000061
C36	C	-1.316685	0.419258	-0.000052
C37	C	-1.428140	0.377383	-0.000040
N38	N	-1.432051	-0.274117	-0.178187
C39	C	-1.514693	-0.237242	0.217516
C40	C	-1.514700	-0.237240	0.296318
C41	C	-1.431992	-0.274104	0.335724
C42	C	-1.349249	-0.310959	0.296321
C43	C	-1.349237	-0.310954	0.217521
C44	C	-1.415757	-0.335333	0.460552
C45	C	-1.415778	-0.335339	0.539351
C46	C	-1.432024	-0.274116	0.578770
C47	C	-1.448274	-0.212888	0.539380
C48	C	-1.448262	-0.212884	0.460580
C49	C	-1.431996	-0.274112	0.421169
C50	C	-1.514763	-0.237257	0.703609
C51	C	-1.514762	-0.237253	0.782412
C52	C	-1.349317	-0.310979	0.782414
C53	C	-1.349313	-0.310977	0.703612
C54	C	-1.432042	-0.274117	0.664214
H55	H	-1.041149	-0.340464	-0.000041
H56	H	-0.822863	-0.207741	-0.000045
H57	H	-1.582123	-0.207242	0.671530
Br58	Br	-1.470339	-0.129796	0.592866
Br59	Br	-1.163577	0.548772	-0.000068
Br60	Br	-0.854304	-0.409900	-0.000042
Br61	Br	-1.009694	-0.138320	-0.000006
Br62	Br	-1.179389	-0.070884	-0.000026
H63	H	-1.402554	-0.385196	0.571416
H64	H	-1.639921	-0.074251	0.000001
H65	H	-1.628483	0.374086	-0.000039
Br66	Br	-1.633793	0.130200	-0.103412
Br67	Br	-1.230218	0.321574	0.103362
H68	H	-1.582124	-0.207239	0.814486
H69	H	-1.636555	0.057602	-0.000018
H70	H	-1.583951	0.284103	-0.079616
Br71	Br	-1.234588	0.150261	0.103376
H72	H	-1.281953	-0.340989	0.671537
H73	H	-1.582068	-0.207228	0.328397
Br74	Br	-1.684611	0.522664	-0.000066
H75	H	-1.281970	-0.340991	0.814498
H76	H	-1.582053	-0.207227	0.185440
Br77	Br	-1.167953	0.377458	-0.000055
Br78	Br	-1.175023	0.100434	-0.000033
H79	H	-1.461490	-0.163029	0.428512
Br80	Br	-1.393829	-0.418445	0.407064
Br81	Br	-1.236992	-0.360984	0.349798
Br82	Br	-1.236955	-0.360972	0.164055
