data_functionalizedCrystal
_audit_creation_method	'MofGen! by Chris Wilmer'
_symmetry_space_group_name_H-M	'P1'
_symmetry_Int_Tables_number	1
_symmetry_cell_setting	triclinic
loop_
_symmetry_equiv_pos_as_xyz
  x,y,z
_cell_length_a	27.732048
_cell_length_b	27.732048
_cell_length_c	26.210047
_cell_angle_alpha	90.000479
_cell_angle_beta	89.996535
_cell_angle_gamma	97.357345
loop_
_atom_site_label
_atom_site_type_symbol
_atom_site_fract_x
_atom_site_fract_y
_atom_site_fract_z
O1	O	0.640931	-0.057510	-0.042369
O2	O	1.140931	0.442490	0.457631
O3	O	0.500138	-0.066256	-0.042385
O4	O	1.000138	0.433744	0.457615
O5	O	0.574907	0.008514	-0.042367
O6	O	1.074907	0.508514	0.457633
O7	O	0.566162	-0.132279	-0.042387
O8	O	1.066162	0.367721	0.457613
O9	O	0.574893	0.008502	0.042491
O10	O	1.074893	0.508502	0.542491
O11	O	0.500123	-0.066267	0.042473
O12	O	1.000123	0.433733	0.542473
O13	O	0.640917	-0.057522	0.042489
O14	O	1.140917	0.442478	0.542489
Cu15	Cu	0.570519	-0.061896	0.050229
Cu16	Cu	1.070519	0.438104	0.550229
Cu17	Cu	0.570536	-0.061882	-0.050125
Cu18	Cu	1.070536	0.438118	0.449875
O19	O	0.566147	-0.132291	0.042471
O20	O	1.066147	0.367709	0.542471
C21	C	0.482124	-0.066078	0.000042
C22	C	0.982124	0.433922	0.500042
C23	C	0.428469	-0.065525	0.000036
C24	C	0.928469	0.434475	0.500036
C25	C	0.089654	-0.106229	0.000053
C26	C	0.589654	0.393771	0.500053
C27	C	-0.112006	-0.104178	0.000057
C28	C	0.387994	0.395822	0.500057
O29	O	-0.143262	-0.141398	0.000074
O30	O	0.356738	0.358602	0.500074
N31	N	-0.131130	-0.059843	0.000063
N32	N	0.368870	0.440157	0.500063
C33	C	-0.099835	-0.016017	0.000071
C34	C	0.400165	0.483983	0.500071
O35	O	-0.120728	0.021740	0.000081
O36	O	0.379272	0.521740	0.500081
C37	C	0.101824	-0.018068	0.000069
C38	C	0.601824	0.481932	0.500069
C39	C	0.120944	-0.062407	0.000059
C40	C	0.620944	0.437593	0.500059
C41	C	0.108775	-0.150563	0.000043
C42	C	0.608775	0.349437	0.500043
C43	C	0.159187	-0.151076	0.000039
C44	C	0.659187	0.348924	0.500039
C45	C	0.190477	-0.107253	0.000045
C46	C	0.690477	0.392747	0.500045
C47	C	0.171356	-0.062919	0.000055
C48	C	0.671356	0.437081	0.500055
C49	C	0.133117	0.025757	0.000081
C50	C	0.633117	0.525757	0.500081
C51	C	0.183535	0.025240	0.000082
C52	C	0.683535	0.525240	0.500082
C53	C	0.202655	-0.019098	0.000071
C54	C	0.702655	0.480902	0.500071
C55	C	0.253059	-0.019609	0.000057
C56	C	0.753059	0.480391	0.500057
N57	N	0.272183	-0.063944	0.000051
N58	N	0.772183	0.436056	0.500051
C59	C	0.240892	-0.107766	0.000045
C60	C	0.740892	0.392234	0.500045
C61	C	-0.205709	-0.014943	0.000070
C62	C	0.294291	0.485057	0.500070
C63	C	-0.256124	-0.014430	0.000070
C64	C	0.243876	0.485570	0.500070
C65	C	-0.268291	-0.102591	0.000057
C66	C	0.231709	0.397409	0.500057
C67	C	-0.217876	-0.103104	0.000054
C68	C	0.282124	0.396896	0.500054
C69	C	-0.186585	-0.059278	0.000065
C70	C	0.313415	0.440722	0.500065
C71	C	0.346761	-0.108839	0.000036
C72	C	0.846761	0.391161	0.500036
C73	C	0.397178	-0.109347	0.000030
C74	C	0.897178	0.390653	0.500030
C75	C	0.409341	-0.021186	0.000045
C76	C	0.909341	0.478814	0.500045
C77	C	0.358929	-0.020678	0.000049
C78	C	0.858929	0.479322	0.500049
C79	C	0.327639	-0.064508	0.000046
C80	C	0.827639	0.435492	0.500046
O81	O	0.284343	0.017592	0.000046
O82	O	0.784343	0.517592	0.500046
O83	O	0.261794	-0.145518	0.000047
O84	O	0.761794	0.354482	0.500047
C85	C	0.039242	-0.105716	0.000057
C86	C	0.539242	0.394284	0.500057
C87	C	0.020120	-0.061382	0.000067
C88	C	0.520120	0.438618	0.500067
C89	C	0.051411	-0.017560	0.000073
C90	C	0.551411	0.482440	0.500073
C91	C	-0.030294	-0.060869	0.000066
C92	C	0.469706	0.439131	0.500066
C93	C	-0.061585	-0.104691	0.000060
C94	C	0.438415	0.395309	0.500060
C95	C	-0.042461	-0.149026	0.000054
C96	C	0.457539	0.350974	0.500054
C97	C	0.007951	-0.149539	0.000050
C98	C	0.507951	0.350461	0.500050
C99	C	0.032287	0.026775	0.000078
C100	C	0.532287	0.526775	0.500078
C101	C	-0.018125	0.027284	0.000082
C102	C	0.481875	0.527284	0.500082
C103	C	-0.049416	-0.016538	0.000076
C104	C	0.450584	0.483462	0.500076
C105	C	0.574716	0.026515	0.000064
C106	C	1.074716	0.526515	0.500064
C107	C	0.574164	0.080170	0.000068
C108	C	1.074164	0.580170	0.500068
C109	C	0.658931	-0.057699	0.000061
C110	C	1.158931	0.442301	0.500061
C111	C	0.712586	-0.058252	0.000064
C112	C	1.212586	0.441748	0.500064
C113	C	0.566338	-0.150292	0.000040
C114	C	1.066338	0.349708	0.500040
C115	C	0.566891	-0.203947	0.000032
C116	C	1.066891	0.296053	0.500032
N117	N	0.570510	-0.061905	0.120813
N118	N	1.070510	0.438095	0.620813
C119	C	0.614867	0.418985	0.000046
C120	C	1.114867	0.918985	0.500046
C121	C	0.612816	0.620645	0.000039
C122	C	1.112816	1.120645	0.500039
O123	O	0.650037	0.651900	0.000021
O124	O	1.150037	1.151900	0.500021
N125	N	0.568481	0.639768	0.000034
N126	N	1.068481	1.139768	0.500034
C127	C	0.524656	0.608474	0.000028
C128	C	1.024656	1.108474	0.500028
O129	O	0.486899	0.629367	0.000019
O130	O	0.986899	1.129367	0.500019
C131	C	0.526707	0.406815	0.000032
C132	C	1.026707	0.906815	0.500032
C133	C	0.571045	0.387694	0.000042
C134	C	1.071045	0.887694	0.500042
C135	C	0.659202	0.399864	0.000056
C136	C	1.159202	0.899864	0.500056
C137	C	0.659714	0.349452	0.000060
C138	C	1.159714	0.849452	0.500060
C139	C	0.615892	0.318161	0.000056
C140	C	1.115892	0.818161	0.500056
C141	C	0.571557	0.337282	0.000046
C142	C	1.071557	0.837282	0.500046
C143	C	0.482882	0.375521	0.000022
C144	C	0.982882	0.875521	0.500022
C145	C	0.483399	0.325104	0.000022
C146	C	0.983399	0.825104	0.500022
C147	C	0.527737	0.305983	0.000032
C148	C	1.027737	0.805983	0.500032
C149	C	0.528247	0.255580	0.000046
C150	C	1.028247	0.755580	0.500046
N151	N	0.572583	0.236456	0.000051
N152	N	1.072583	0.736456	0.500051
C153	C	0.616405	0.267747	0.000056
C154	C	1.116405	0.767747	0.500056
C155	C	0.523582	0.714348	0.000027
C156	C	1.023582	1.214348	0.500027
C157	C	0.523069	0.764762	0.000027
C158	C	1.023069	1.264762	0.500027
C159	C	0.611230	0.776930	0.000037
C160	C	1.111230	1.276930	0.500037
C161	C	0.611742	0.726514	0.000041
C162	C	1.111742	1.226514	0.500041
C163	C	0.567917	0.695224	0.000032
C164	C	1.067917	1.195224	0.500032
C165	C	0.617477	0.161878	0.000066
C166	C	1.117477	0.661878	0.500066
C167	C	0.617986	0.111461	0.000073
C168	C	1.117986	0.611461	0.500073
C169	C	0.529825	0.099298	0.000060
C170	C	1.029825	0.599298	0.500060
C171	C	0.529316	0.149710	0.000056
C172	C	1.029316	0.649710	0.500056
C173	C	0.573147	0.180999	0.000057
C174	C	1.073147	0.680999	0.500057
O175	O	0.491047	0.224296	0.000059
O176	O	0.991047	0.724296	0.500059
O177	O	0.654156	0.246844	0.000054
O178	O	1.154156	0.746844	0.500054
C179	C	0.614355	0.469397	0.000042
C180	C	1.114355	0.969397	0.500042
C181	C	0.570021	0.488518	0.000033
C182	C	1.070021	0.988518	0.500033
C183	C	0.526198	0.457228	0.000028
C184	C	1.026198	0.957228	0.500028
C185	C	0.569508	0.538933	0.000033
C186	C	1.069508	1.038933	0.500033
C187	C	0.613330	0.570223	0.000037
C188	C	1.113330	1.070223	0.500037
C189	C	0.657665	0.551100	0.000042
C190	C	1.157665	1.051100	0.500042
C191	C	0.658177	0.500688	0.000046
C192	C	1.158177	1.000688	0.500046
C193	C	0.481863	0.476351	0.000023
C194	C	0.981863	0.976351	0.500023
C195	C	0.481355	0.526764	0.000019
C196	C	0.981355	1.026764	0.500019
C197	C	0.525177	0.558054	0.000024
C198	C	1.025177	1.058054	0.500024
N199	N	0.570548	-0.061868	-0.120709
N200	N	1.070548	0.438132	0.379291
C201	C	0.603640	-0.028781	0.473336
C202	C	1.103640	0.471219	0.973336
C203	C	0.603651	-0.028774	0.686994
C204	C	1.103651	0.471226	1.186994
O205	O	0.631801	-0.000614	0.714623
O206	O	1.131801	0.499386	1.214623
N207	N	0.570538	-0.061871	0.713707
N208	N	1.070538	0.438129	1.213707
C209	C	0.537419	-0.094970	0.687003
C210	C	1.037419	0.405030	1.187003
O211	O	0.509251	-0.123117	0.714626
O212	O	1.009251	0.376883	1.214626
C213	C	0.537406	-0.094974	0.473345
C214	C	1.037406	0.405026	0.973345
C215	C	0.570524	-0.061878	0.446635
C216	C	1.070524	0.438122	0.946635
C217	C	0.636755	0.004312	0.446625
C218	C	1.136755	0.504312	0.946625
C219	C	0.636754	0.004308	0.393214
C220	C	1.136754	0.504308	0.893214
C221	C	0.603638	-0.028789	0.366513
C222	C	1.103638	0.471211	0.866513
C223	C	0.570523	-0.061882	0.393223
C224	C	1.070523	0.438118	0.893223
C225	C	0.504284	-0.128070	0.446641
C226	C	1.004284	0.371930	0.946641
C227	C	0.504283	-0.128067	0.393223
C228	C	1.004283	0.371933	0.893223
C229	C	0.537401	-0.094971	0.366513
C230	C	1.037401	0.405029	0.866513
C231	C	0.537405	-0.094983	0.313111
C232	C	1.037405	0.405017	0.813111
N233	N	0.570518	-0.061886	0.286397
N234	N	1.070518	0.438114	0.786397
C235	C	0.603634	-0.028789	0.313098
C236	C	1.103634	0.471211	0.813098
C237	C	0.537428	-0.094966	0.799176
C238	C	1.037428	0.405034	1.299176
C239	C	0.537432	-0.094965	0.852590
C240	C	1.037432	0.405035	1.352590
C241	C	0.603664	-0.028769	0.852578
C242	C	1.103664	0.471231	1.352578
C243	C	0.603662	-0.028773	0.799163
C244	C	1.103662	0.471227	1.299163
C245	C	0.570541	-0.061869	0.772463
C246	C	1.070541	0.438131	1.272463
C247	C	0.603629	-0.028800	0.200931
C248	C	1.103629	0.471200	0.700931
C249	C	0.603626	-0.028808	0.147514
C250	C	1.103626	0.471192	0.647514
C251	C	0.537393	-0.095002	0.147531
C252	C	1.037393	0.404998	0.647531
C253	C	0.537397	-0.094996	0.200943
C254	C	1.037397	0.405004	0.700943
C255	C	0.570517	-0.061891	0.227641
C256	C	1.070517	0.438109	0.727641
O257	O	0.509267	-0.123125	0.285449
O258	O	1.009267	0.376875	0.785449
O259	O	0.631790	-0.000639	0.285466
O260	O	1.131790	0.499361	0.785466
C261	C	0.603641	-0.028777	0.526747
C262	C	1.103641	0.471223	1.026747
C263	C	0.570527	-0.061871	0.553457
C264	C	1.070527	0.438129	1.053457
C265	C	0.537410	-0.094968	0.526756
C266	C	1.037410	0.405032	1.026756
C267	C	0.570530	-0.061870	0.606872
C268	C	1.070530	0.438130	1.106872
C269	C	0.603646	-0.028773	0.633573
C270	C	1.103646	0.471227	1.133573
C271	C	0.636759	0.004323	0.606859
C272	C	1.136759	0.504323	1.106859
C273	C	0.636758	0.004320	0.553448
C274	C	1.136758	0.504320	1.053448
C275	C	0.504298	-0.128064	0.553470
C276	C	1.004298	0.371936	1.053470
C277	C	0.504302	-0.128058	0.606881
C278	C	1.004302	0.371942	1.106881
C279	C	0.537418	-0.094961	0.633582
C280	C	1.037418	0.405039	1.133582
H281	H	-0.033688	0.063392	0.000086
H282	H	0.466312	0.563392	0.500086
H283	H	0.057760	0.062462	0.000085
H284	H	0.557760	0.562462	0.500085
O285	O	0.672473	0.040020	0.524641
O286	O	1.172473	0.540020	1.024641
H287	H	0.695494	0.063035	0.552189
H288	H	1.195494	0.563035	1.052189
H289	H	0.412743	-0.145454	0.000021
H290	H	0.912743	0.354546	0.500021
H291	H	0.321291	-0.144530	0.000036
H292	H	0.821291	0.355470	0.500036
H293	H	0.083302	-0.186251	0.000039
H294	H	0.583302	0.313749	0.500039
O295	O	0.665809	0.090836	0.000075
O296	O	1.165809	0.590836	0.500075
H297	H	0.696194	0.121068	0.000070
H298	H	1.196194	0.621068	0.500070
H299	H	0.630597	-0.001858	0.125768
H300	H	1.130597	0.498142	0.625768
O301	O	-0.197254	-0.150925	0.000046
O302	O	0.302746	0.349075	0.500046
H303	H	-0.174578	-0.153272	0.034632
H304	H	0.325422	0.346728	0.534632
O305	O	0.672477	0.040024	0.635663
O306	O	1.172477	0.540024	1.135663
H307	H	0.666908	0.034464	0.677291
H308	H	1.166908	0.534464	1.177291
H309	H	0.446177	0.450879	0.000018
H310	H	0.946177	0.950879	0.500018
O311	O	0.704930	0.584857	0.000049
O312	O	1.204930	1.084857	0.500049
H313	H	0.735850	0.563096	0.000059
H314	H	1.235850	1.063096	0.500059
H315	H	0.477334	-0.155013	0.628625
H316	H	0.977334	0.344987	1.128625
O317	O	0.433530	0.547385	0.000010
O318	O	0.933530	1.047385	0.500010
H319	H	0.403146	0.517152	0.000003
H320	H	0.903146	1.017152	0.500003
O321	O	0.217285	0.072509	0.000091
O322	O	0.717285	0.572509	0.500091
H323	H	0.195515	0.103423	0.000095
H324	H	0.695515	0.603423	0.500095
H325	H	0.630598	-0.001842	0.222662
H326	H	1.130598	0.498158	0.722662
H327	H	0.477330	-0.155015	0.531734
H328	H	0.977330	0.344985	1.031734
H329	H	0.653168	0.187348	0.000065
H330	H	1.153168	0.687348	0.500065
H331	H	0.487892	0.688875	0.000020
H332	H	0.987892	1.188875	0.500020
O333	O	0.501675	-0.130690	0.118718
O334	O	1.001675	0.369310	0.618718
H335	H	0.507545	-0.168336	0.128957
H336	H	1.007545	0.331664	0.628957
O337	O	0.672467	0.040011	0.364407
O338	O	1.172467	0.540011	0.864407
H339	H	0.695488	0.063027	0.391955
H340	H	1.195488	0.563027	0.891955
O341	O	0.672482	0.040011	0.475414
O342	O	1.172482	0.540011	0.975414
H343	H	0.652324	0.063376	0.499751
H344	H	1.152324	0.563376	0.999751
O345	O	0.481497	0.170338	0.000047
O346	O	0.981497	0.670338	0.500047
H347	H	0.451111	0.140108	0.000042
H348	H	0.951111	0.640108	0.500042
O349	O	0.707536	0.328831	0.000056
O350	O	1.207536	0.828831	0.500056
H351	H	0.737918	0.359065	0.000050
H352	H	1.237918	0.859065	0.500050
O353	O	0.658496	0.810684	0.000044
O354	O	1.158496	1.310684	0.500044
H355	H	0.679738	0.803926	-0.034540
H356	H	1.179738	1.303926	0.465460
H357	H	0.486964	0.780325	0.000028
H358	H	0.986964	1.280325	0.500028
O359	O	0.705999	0.480067	0.000054
O360	O	1.205999	0.980067	0.500054
H361	H	0.708347	0.457387	-0.034530
H362	H	1.208347	0.957387	0.465470
H363	H	-0.293777	-0.138273	0.000053
H364	H	0.206223	0.361727	0.500053
O365	O	0.338300	0.027142	0.000058
O366	O	0.838300	0.527142	0.500058
H367	H	0.368531	0.057528	0.000064
H368	H	0.868531	0.557528	0.500064
H369	H	-0.271687	0.021674	0.000070
H370	H	0.228313	0.521674	0.500070
O371	O	0.639376	0.006927	0.770354
O372	O	1.139376	0.506927	1.270354
H373	H	0.662401	0.029942	0.797900
H374	H	1.162401	0.529942	1.297900
H375	H	0.477311	-0.155018	0.371487
H376	H	0.977311	0.344982	0.871487
H377	H	0.447710	0.299629	0.000014
H378	H	0.947710	0.799629	0.500014
O379	O	0.443094	0.026078	0.000059
O380	O	0.943094	0.526078	0.500059
H381	H	0.481361	0.018269	0.000063
H382	H	0.981361	0.518269	0.500063
O383	O	0.501718	-0.130674	0.881388
O384	O	1.001718	0.369326	1.381388
H385	H	0.478375	-0.110496	0.905732
H386	H	0.978375	0.389504	1.405732
O387	O	0.706471	0.433610	0.000068
O388	O	1.206471	0.933610	0.500068
H389	H	0.737381	0.411835	0.000079
H390	H	1.237381	0.911835	0.500079
H391	H	0.630629	-0.001821	0.874327
H392	H	1.130629	0.498179	1.374327
H393	H	0.647846	0.710950	0.000048
H394	H	1.147846	1.210950	0.500048
O395	O	-0.171965	0.032330	0.000082
O396	O	0.328035	0.532330	0.500082
H397	H	-0.148698	0.034213	-0.034502
H398	H	0.351302	0.534213	0.465498
O399	O	0.501707	-0.130669	0.770380
O400	O	1.001707	0.369331	1.270380
H401	H	0.478689	-0.153684	0.797934
H402	H	0.978689	0.346316	1.297934
H403	H	0.174750	-0.187180	0.000030
H404	H	0.674750	0.312820	0.500030
H405	H	0.477317	-0.155019	0.468381
H406	H	0.977317	0.344981	0.968381
H407	H	0.494146	0.073812	0.000058
H408	H	0.994146	0.573812	0.500058
O409	O	0.501680	-0.130691	0.229757
O410	O	1.001680	0.369309	0.729757
H411	H	0.478651	-0.153704	0.202214
H412	H	0.978651	0.346296	0.702214
O413	O	0.435059	0.396136	0.000012
O414	O	0.935059	0.896136	0.500012
H415	H	0.414034	0.383541	-0.034581
H416	H	0.914034	0.883541	0.465419
O417	O	0.112505	0.073581	0.000103
O418	O	0.612505	0.573581	0.500103
H419	H	0.125108	0.094631	-0.034474
H420	H	0.625108	0.594631	0.465526
O421	O	0.028572	-0.197360	0.000049
O422	O	0.528572	0.302640	0.500049
H423	H	-0.001662	-0.227742	0.000052
H424	H	0.498338	0.272258	0.500052
H425	H	-0.067947	-0.184708	0.000047
H426	H	0.432053	0.315292	0.500047
