data_functionalizedCrystal
_audit_creation_method	'MofGen! by Chris Wilmer'
_symmetry_space_group_name_H-M	'P1'
_symmetry_Int_Tables_number	1
_symmetry_cell_setting	triclinic
loop_
_symmetry_equiv_pos_as_xyz
  x,y,z
_cell_length_a	12.594509
_cell_length_b	12.827893
_cell_length_c	12.827892
_cell_angle_alpha	90.015362
_cell_angle_beta	90.027931
_cell_angle_gamma	90.019031
loop_
_atom_site_label
_atom_site_type_symbol
_atom_site_fract_x
_atom_site_fract_y
_atom_site_fract_z
Zn1	Zn	-0.601797	-1.597667	0.416002
Zn2	Zn	-0.423819	-1.597562	0.590774
Zn3	Zn	-0.423833	-1.422909	0.416048
Zn4	Zn	-0.601757	-1.422894	0.590702
O5	O	-0.512802	-1.510258	0.503382
O6	O	-0.578199	-1.743889	0.439197
O7	O	-0.274875	-1.574356	0.567645
O8	O	-0.447463	-1.446142	0.269806
O9	O	-0.447440	-1.743812	0.567602
O10	O	-0.578212	-1.574536	0.269772
O11	O	-0.274885	-1.446040	0.439275
O12	O	-0.447424	-1.276671	0.439205
O13	O	-0.750708	-1.446115	0.567479
O14	O	-0.578143	-1.276660	0.567522
O15	O	-0.750738	-1.574521	0.439128
O16	O	-0.447401	-1.574341	0.737001
O17	O	-0.578130	-1.446013	0.736948
C18	C	-0.512783	-1.510193	0.774891
C19	C	-0.512810	-1.510260	0.891045
C20	C	-0.512781	-1.238748	0.503361
C21	C	-0.512798	-1.122595	0.503378
C22	C	-0.790423	-1.510328	0.503290
C23	C	-0.908728	-1.510358	0.503251
C24	C	-0.977965	-1.440540	0.573021
C25	C	-1.048752	-1.535894	0.598554
C26	C	-1.048741	-1.415078	0.477655
C27	C	-0.977957	-1.605762	0.528834
C28	C	-0.977939	-1.484881	0.407890
C29	C	-1.048694	-1.580301	0.433387
C30	C	-0.236261	-1.510248	0.503397
C31	C	-0.117956	-1.510421	0.503142
C32	C	-0.512823	-1.782828	0.503402
C33	C	-0.512831	-1.898981	0.503411
C34	C	-0.577382	-1.070832	0.566973
C35	C	-0.577401	-0.950782	0.566991
C36	C	-0.512844	-1.510352	0.230811
C37	C	-0.512862	-1.510392	0.114658
C38	C	-0.448193	-1.573836	0.942821
C39	C	-0.448220	-1.573908	1.062871
H40	H	-0.946910	-1.381544	0.632116
F41	F	-0.375861	-1.644920	0.884598
F42	F	-0.649671	-0.892602	0.638164
H43	H	-0.568182	-1.455955	1.070140
F44	F	-0.375903	-1.645049	1.121067
H45	H	-0.946811	-1.463271	0.327315
F46	F	-0.440546	-1.064356	0.432223
F47	F	-0.440548	-0.957155	0.432246
H48	H	-1.079856	-1.557477	0.679153
F49	F	-0.937491	-1.711145	0.557200
H50	H	-0.632665	-1.115393	0.621401
F51	F	-0.585153	-1.439188	0.949268
F52	F	-1.089035	-1.657596	0.356206
F53	F	-1.089382	-1.309726	0.449415
