data_functionalizedCrystal
_audit_creation_method	'MofGen! by Chris Wilmer'
_symmetry_space_group_name_H-M	'P1'
_symmetry_Int_Tables_number	1
_symmetry_cell_setting	triclinic
loop_
_symmetry_equiv_pos_as_xyz
  x,y,z
_cell_length_a	13.033286
_cell_length_b	13.032868
_cell_length_c	18.215399
_cell_angle_alpha	97.152085
_cell_angle_beta	82.825818
_cell_angle_gamma	90.854779
loop_
_atom_site_label
_atom_site_type_symbol
_atom_site_fract_x
_atom_site_fract_y
_atom_site_fract_z
Zn1	Zn	1.520061	0.608901	0.334282
Zn2	Zn	1.853395	0.942234	0.667615
Zn3	Zn	2.186728	1.275567	1.000949
Zn4	Zn	1.498080	0.780875	0.228560
Zn5	Zn	1.831413	1.114208	0.561893
Zn6	Zn	2.164747	1.447542	0.895226
Zn7	Zn	1.348092	0.587116	0.224698
Zn8	Zn	1.681426	0.920449	0.558031
Zn9	Zn	2.014759	1.253783	0.891365
Zn10	Zn	1.326203	0.759010	0.365038
Zn11	Zn	1.659536	1.092343	0.698371
Zn12	Zn	1.992870	1.425676	1.031704
O13	O	1.423109	0.683975	0.288144
O14	O	1.756443	1.017309	0.621478
O15	O	2.089776	1.350642	0.954811
O16	O	1.661046	0.649981	0.309002
O17	O	1.994379	0.983314	0.642336
O18	O	2.327713	1.316648	0.975669
O19	O	1.478145	0.755206	0.125070
O20	O	1.811479	1.088540	0.458403
O21	O	2.144812	1.421873	0.791736
O22	O	1.389265	0.446096	0.224747
O23	O	1.722598	0.779429	0.558081
O24	O	2.055931	1.112762	0.891414
O25	O	1.644897	0.776330	0.231329
O26	O	1.978230	1.109663	0.564662
O27	O	2.311563	1.442997	0.897995
O28	O	1.515609	0.462101	0.305258
O29	O	1.848943	0.795434	0.638591
O30	O	2.182276	1.128767	0.971925
O31	O	1.367950	0.612852	0.122233
O32	O	1.701284	0.946186	0.455566
O33	O	2.034617	1.279519	0.788899
O34	O	1.201288	0.591651	0.254570
O35	O	1.534621	0.924984	0.587903
O36	O	1.867955	1.258317	0.921237
O37	O	1.351957	0.739064	0.463936
O38	O	1.685291	1.072397	0.797269
O39	O	2.018624	1.405730	1.130603
O40	O	1.185206	0.717940	0.357677
O41	O	1.518539	1.051273	0.691010
O42	O	1.851873	1.384607	1.024343
O43	O	1.494384	0.628779	0.441340
O44	O	1.827717	0.962112	0.774673
O45	O	2.161051	1.295446	1.108006
O46	O	1.456920	0.921885	0.261151
O47	O	1.790253	1.255218	0.594485
O48	O	2.123587	1.588551	0.927818
O49	O	1.330643	0.905820	0.361421
O50	O	1.663976	1.239154	0.694754
O51	O	1.997309	1.572487	1.028088
C52	C	1.155935	0.650059	0.309042
C53	C	1.489268	0.983393	0.642376
C54	C	1.822602	1.316726	0.975709
C55	C	1.041634	0.635575	0.318002
C56	C	1.374967	0.968908	0.651336
C57	C	1.708300	1.302242	0.984669
C58	C	1.389049	0.951170	0.315056
C59	C	1.722382	1.284504	0.648390
C60	C	2.055715	1.617837	0.981723
C61	C	1.374572	1.065489	0.326587
C62	C	1.707905	1.398823	0.659920
C63	C	2.041238	1.732156	0.993253
C64	C	0.982697	0.691535	0.283486
C65	C	1.316030	1.024869	0.616820
C66	C	1.649363	1.358202	0.950153
C67	C	0.864560	0.676566	0.292746
C68	C	1.197893	1.009899	0.626080
C69	C	1.531227	1.343233	0.959413
C70	C	1.430652	1.124377	0.282145
C71	C	1.763985	1.457710	0.615478
C72	C	2.097319	1.791044	0.948812
C73	C	1.415691	1.242532	0.294061
C74	C	1.749024	1.575865	0.627394
C75	C	2.082357	1.909199	0.960728
C76	C	1.691326	0.718024	0.267166
C77	C	2.024660	1.051358	0.600499
C78	C	2.357993	1.384691	0.933832
C79	C	1.805625	0.732534	0.258226
C80	C	2.138958	1.065867	0.591559
C81	C	2.472291	1.399201	0.924892
C82	C	1.423181	0.683912	0.480085
C83	C	1.756514	1.017246	0.813419
C84	C	2.089848	1.350579	1.146752
C85	C	1.423211	0.683886	0.561879
C86	C	1.756545	1.017219	0.895213
C87	C	2.089878	1.350552	1.228546
C88	C	1.457297	1.415736	0.261136
C89	C	1.790630	1.749070	0.594469
C90	C	2.123963	2.082403	0.927803
C91	C	1.471779	1.301418	0.249613
C92	C	1.805112	1.634751	0.582946
C93	C	2.138446	1.968085	0.916279
C94	C	1.423106	0.683971	0.096938
C95	C	1.756440	1.017305	0.430271
C96	C	2.089773	1.350638	0.763605
C97	C	1.423312	0.683734	0.015100
C98	C	1.756645	1.017067	0.348433
C99	C	2.089979	1.350400	0.681767
C100	C	1.497405	0.626402	0.738301
C101	C	1.830738	0.959735	1.071634
C102	C	2.164071	1.293069	1.404967
C103	C	1.497421	0.626373	0.815155
C104	C	1.830754	0.959707	1.148489
C105	C	2.164087	1.293040	1.481822
C106	C	1.349111	0.741219	0.838674
C107	C	1.682445	1.074553	1.172007
C108	C	2.015778	1.407886	1.505341
C109	C	1.349091	0.741241	0.761820
C110	C	1.682425	1.074575	1.095154
C111	C	2.015758	1.407908	1.428487
C112	C	1.423244	0.683835	0.711635
C113	C	1.756577	1.017168	1.044969
C114	C	2.089910	1.350502	1.378302
C115	C	1.423280	0.683785	0.865344
C116	C	1.756613	1.017118	1.198677
C117	C	2.089946	1.350451	1.532010
C118	C	1.423296	0.683754	0.948673
C119	C	1.756630	1.017087	1.282007
C120	C	2.089963	1.350421	1.615340
C121	C	1.423226	0.683863	0.628300
C122	C	1.756559	1.017197	0.961634
C123	C	2.089893	1.350530	1.294967
H124	H	1.019698	0.750530	0.247084
H125	H	1.353031	1.083864	0.580417
H126	H	1.686365	1.417197	0.913750
H127	H	1.288741	0.787960	0.879544
H128	H	1.622074	1.121294	1.212877
H129	H	1.955408	1.454627	1.546210
H130	H	1.557808	0.579604	0.836862
H131	H	1.891142	0.912937	1.170195
H132	H	2.224475	1.246271	1.503528
F133	F	1.576322	0.565302	0.684892
F134	F	1.909655	0.898635	1.018226
F135	F	2.242988	1.231969	1.351559
H136	H	1.356602	1.279585	0.340937
H137	H	1.689935	1.612919	0.674270
H138	H	2.023268	1.946252	1.007603
H139	H	0.827562	0.617574	0.329157
H140	H	1.160896	0.950907	0.662490
H141	H	1.494229	1.284240	0.995824
F142	F	0.853975	0.809653	0.210641
F143	F	1.187309	1.142986	0.543975
F144	F	1.520642	1.476320	0.877308
H145	H	1.004632	0.576587	0.354411
H146	H	1.337965	0.909920	0.687744
H147	H	1.671298	1.243253	1.021077
F148	F	1.507894	1.075947	0.220884
F149	F	1.841227	1.409280	0.554218
F150	F	2.174560	1.742613	0.887551
F151	F	1.549024	1.252994	0.188348
F152	F	1.882357	1.586328	0.521681
F153	F	2.215690	1.919661	0.855014
F154	F	1.297341	1.113921	0.387854
F155	F	1.630675	1.447254	0.721188
F156	F	1.964008	1.780588	1.054521
H157	H	1.288694	0.788008	0.740111
H158	H	1.622027	1.121342	1.073444
H159	H	1.955360	1.454675	1.406777
