data_functionalizedCrystal
_audit_creation_method	'MofGen! by Chris Wilmer'
_symmetry_space_group_name_H-M	'P1'
_symmetry_Int_Tables_number	1
_symmetry_cell_setting	triclinic
loop_
_symmetry_equiv_pos_as_xyz
  x,y,z
_cell_length_a	18.215407
_cell_length_b	12.594516
_cell_length_c	18.215399
_cell_angle_alpha	90.032468
_cell_angle_beta	90.014769
_cell_angle_gamma	90.013216
loop_
_atom_site_label
_atom_site_type_symbol
_atom_site_fract_x
_atom_site_fract_y
_atom_site_fract_z
Zn1	Zn	-1.125087	0.423852	-0.416065
Zn2	Zn	-0.625087	0.923852	0.083935
Zn3	Zn	-1.125018	0.601857	-0.292994
Zn4	Zn	-0.625018	1.101857	0.207006
Zn5	Zn	-1.002026	0.423879	-0.293016
Zn6	Zn	-0.502026	0.923879	0.206984
Zn7	Zn	-1.002001	0.601775	-0.416023
Zn8	Zn	-0.502001	1.101775	0.083977
O9	O	-1.063533	0.512841	-0.354525
O10	O	-0.563533	1.012841	0.145475
O11	O	-1.228062	0.447488	-0.399747
O12	O	-0.728062	0.947488	0.100253
O13	O	-1.108684	0.578294	-0.190013
O14	O	-0.608684	1.078294	0.309987
O15	O	-1.018390	0.274930	-0.309366
O16	O	-0.518390	0.774930	0.190634
O17	O	-1.228011	0.578267	-0.309327
O18	O	-0.728011	1.078267	0.190673
O19	O	-1.108803	0.274910	-0.399769
O20	O	-0.608803	0.774910	0.100231
O21	O	-1.018323	0.447534	-0.190029
O22	O	-0.518323	0.947534	0.309971
O23	O	-0.899039	0.447455	-0.309326
O24	O	-0.399039	0.947455	0.190674
O25	O	-1.018348	0.578128	-0.519013
O26	O	-0.518348	1.078128	-0.019013
O27	O	-0.899021	0.578154	-0.399698
O28	O	-0.399021	1.078154	0.100302
O29	O	-1.108778	0.447408	-0.519043
O30	O	-0.608778	0.947408	-0.019043
O31	O	-1.108660	0.750792	-0.309287
O32	O	-0.608660	1.250792	0.190713
O33	O	-1.018280	0.750732	-0.399676
O34	O	-0.518280	1.250732	0.100324
C35	C	-0.872327	0.512800	-0.354510
C36	C	-0.372327	1.012800	0.145490
C37	C	-0.790528	0.512807	-0.354522
C38	C	-0.290528	1.012807	0.145478
C39	C	-0.602360	0.444842	-0.401676
C40	C	-0.102360	0.944842	0.098324
C41	C	-0.525501	0.444848	-0.401678
C42	C	-0.025501	0.944848	0.098322
C43	C	-0.525459	0.580824	-0.307379
C44	C	-0.025459	1.080824	0.192621
C45	C	-0.602316	0.580812	-0.307374
C46	C	-0.102316	1.080812	0.192626
C47	C	-0.640765	0.512823	-0.354527
C48	C	-0.140765	1.012823	0.145473
C49	C	-0.487049	0.512840	-0.354534
C50	C	0.012951	1.012840	0.145466
C51	C	-0.403715	0.512847	-0.354535
C52	C	0.096285	1.012847	0.145465
C53	C	-0.724104	0.512815	-0.354524
C54	C	-0.224104	1.012815	0.145476
C55	C	-1.063480	0.789382	-0.354491
C56	C	-0.563480	1.289382	0.145509
C57	C	-1.063524	0.907687	-0.354501
C58	C	-0.563524	1.407687	0.145499
C59	C	-1.063568	0.512756	-0.546478
C60	C	-0.563568	1.012756	-0.046478
C61	C	-1.063583	0.512720	-0.628276
C62	C	-0.563583	1.012720	-0.128276
C63	C	-0.255486	0.512872	-0.354537
C64	C	0.244514	1.012872	0.145463
C65	C	-0.337285	0.512856	-0.354538
C66	C	0.162715	1.012856	0.145462
C67	C	-1.112734	0.976935	-0.305385
C68	C	-0.612734	1.476935	0.194615
C69	C	-1.130708	1.047636	-0.372551
C70	C	-0.630708	1.547636	0.127449
C71	C	-1.045627	1.047785	-0.287363
C72	C	-0.545627	1.547785	0.212637
C73	C	-1.081533	0.976831	-0.421701
C74	C	-0.581533	1.476831	0.078299
C75	C	-0.996421	0.976973	-0.336468
C76	C	-0.496421	1.476973	0.163532
C77	C	-1.014370	1.047643	-0.403680
C78	C	-0.514370	1.547643	0.096320
C79	C	-1.063589	1.235220	-0.354556
C80	C	-0.563589	1.735220	0.145444
C81	C	-1.063569	1.116915	-0.354520
C82	C	-0.563569	1.616915	0.145480
C83	C	-1.016571	0.444587	-0.816480
C84	C	-0.516571	0.944587	-0.316480
C85	C	-1.016584	0.444566	-0.893339
C86	C	-0.516584	0.944566	-0.393339
C87	C	-1.110682	0.580725	-0.893311
C88	C	-0.610682	1.080725	-0.393311
C89	C	-1.110665	0.580751	-0.816453
C90	C	-0.610665	1.080751	-0.316453
C91	C	-1.063611	0.512676	-0.778040
C92	C	-0.563611	1.012676	-0.278040
C93	C	-1.063641	0.512629	-0.931756
C94	C	-0.563641	1.012629	-0.431756
C95	C	-1.063655	0.512606	-1.015090
C96	C	-0.563655	1.012606	-0.515090
C97	C	-1.063595	0.512700	-0.694701
C98	C	-0.563595	1.012700	-0.194701
C99	C	-1.063541	0.512849	-0.163318
C100	C	-0.563541	1.012849	0.336682
C101	C	-1.063669	0.512585	-0.081520
C102	C	-0.563669	1.012585	0.418480
H103	H	-0.633662	0.389477	-0.440069
H104	H	-0.133662	0.889477	0.059931
H105	H	-0.494235	0.389489	-0.440071
H106	H	0.005765	0.889489	0.059929
C107	C	-1.168300	0.935733	-0.250051
C108	C	-0.668300	1.435733	0.249949
C109	C	-1.203338	1.021649	-0.216105
C110	C	-0.703338	1.521649	0.283895
C111	C	-1.254537	0.983735	-0.165139
C112	C	-0.754537	1.483735	0.334861
H113	H	-1.143843	0.894304	-0.214000
H114	H	-0.643843	1.394304	0.286000
H115	H	-1.203730	0.893174	-0.274564
H116	H	-0.703730	1.393174	0.225436
H117	H	-1.167913	1.064191	-0.191593
H118	H	-0.667913	1.564191	0.308407
H119	H	-1.227809	1.063086	-0.252137
H120	H	-0.727809	1.563086	0.247863
H121	H	-1.289967	0.941175	-0.189651
H122	H	-0.789967	1.441175	0.310349
H123	H	-1.230074	0.942306	-0.129092
H124	H	-0.730074	1.442306	0.370908
H125	H	-1.278321	1.042022	-0.142104
H126	H	-0.778321	1.542022	0.357896
C127	C	-0.644058	0.654449	-0.256090
C128	C	-0.144058	1.154449	0.243910
C129	C	-0.688157	0.594089	-0.208981
C130	C	-0.188157	1.094089	0.291019
C131	C	-0.726612	0.661880	-0.161723
C132	C	-0.226612	1.161880	0.338277
H133	H	-0.674106	0.700888	-0.284098
H134	H	-0.174106	1.200888	0.215902
H135	H	-0.610176	0.694930	-0.227969
H136	H	-0.110176	1.194930	0.272031
H137	H	-0.722034	0.553627	-0.237099
H138	H	-0.222034	1.053627	0.262901
H139	H	-0.658127	0.547653	-0.180956
H140	H	-0.158127	1.047653	0.319044
H141	H	-0.692731	0.702360	-0.133602
H142	H	-0.192731	1.202360	0.366398
H143	H	-0.756656	0.708315	-0.189737
H144	H	-0.256656	1.208315	0.310263
H145	H	-0.756533	0.620935	-0.129749
H146	H	-0.256533	1.120935	0.370251
C147	C	-0.483580	0.654605	-0.256272
C148	C	0.016420	1.154605	0.243728
C149	C	-0.408051	0.640089	-0.266382
C150	C	0.091949	1.140089	0.233618
C151	C	-0.369452	0.708052	-0.219322
C152	C	0.130548	1.208052	0.280678
H153	H	-0.496071	0.639009	-0.206813
H154	H	0.003929	1.139009	0.293187
H155	H	-0.496132	0.726159	-0.266962
H156	H	0.003868	1.226159	0.233038
H157	H	-0.395504	0.568551	-0.255686
H158	H	0.104496	1.068551	0.244314
H159	H	-0.395538	0.655693	-0.315831
H160	H	0.104462	1.155693	0.184169
H161	H	-0.382004	0.779606	-0.230013
H162	H	0.117996	1.279606	0.269987
H163	H	-0.381949	0.692450	-0.169866
H164	H	0.118051	1.192450	0.330134
H165	H	-0.318202	0.698219	-0.226180
H166	H	0.181798	1.198219	0.273820
C167	C	-1.206462	1.088816	-0.392879
C168	C	-0.706462	1.588816	0.107121
C169	C	-1.253750	1.002879	-0.404873
C170	C	-0.753750	1.502879	0.095127
C171	C	-1.323546	1.040762	-0.423584
C172	C	-0.823546	1.540762	0.076416
H173	H	-1.203221	1.130247	-0.436317
H174	H	-0.703221	1.630247	0.063683
H175	H	-1.224978	1.131366	-0.353987
H176	H	-0.724978	1.631366	0.146013
H177	H	-1.235239	0.960346	-0.443763
H178	H	-0.735239	1.460346	0.056237
H179	H	-1.257014	0.961440	-0.361445
H180	H	-0.757014	1.461440	0.138555
H181	H	-1.342062	1.083313	-0.384692
H182	H	-0.842062	1.583313	0.115308
H183	H	-1.320297	1.082193	-0.467021
H184	H	-0.820297	1.582193	0.032979
H185	H	-1.355641	0.982461	-0.431718
H186	H	-0.855641	1.482461	0.068282
H187	H	-1.030472	1.078951	-0.230577
H188	H	-0.530472	1.578951	0.269423
H189	H	-1.096632	0.945796	-0.478536
H190	H	-0.596632	1.445796	0.021464
H191	H	-0.972774	1.078494	-0.445271
H192	H	-0.472774	1.578494	0.054729
H193	H	-1.148993	0.636149	-0.924596
H194	H	-0.648993	1.136149	-0.424596
C195	C	-0.920777	0.935599	-0.315939
C196	C	-0.420777	1.435599	0.184061
C197	C	-0.902298	0.971468	-0.245551
C198	C	-0.402298	1.471468	0.254449
C199	C	-0.832625	0.933361	-0.226602
C200	C	-0.332625	1.433361	0.273398
H201	H	-0.885638	0.960838	-0.350277
H202	H	-0.385638	1.460838	0.149723
H203	H	-0.921194	0.860171	-0.316482
H204	H	-0.421194	1.360171	0.183518
H205	H	-0.901875	1.046880	-0.245013
H206	H	-0.401875	1.546880	0.254987
H207	H	-0.937418	0.946232	-0.211197
H208	H	-0.437418	1.446232	0.288803
H209	H	-0.833041	0.857933	-0.227145
H210	H	-0.333041	1.357933	0.272855
H211	H	-0.797492	0.958602	-0.260944
H212	H	-0.297492	1.458602	0.239056
H213	H	-0.820080	0.957684	-0.178840
H214	H	-0.320080	1.457684	0.321160
C215	C	-0.965630	0.370583	-0.935171
C216	C	-0.465630	0.870583	-0.435171
C217	C	-1.007320	0.302375	-0.979333
C218	C	-0.507320	0.802375	-0.479333
C219	C	-0.960402	0.234219	-1.017887
C220	C	-0.460402	0.734219	-0.517887
H221	H	-0.937586	0.329945	-0.901370
H222	H	-0.437586	0.829945	-0.401370
H223	H	-0.933573	0.411261	-0.965181
H224	H	-0.433573	0.911261	-0.465181
H225	H	-1.039364	0.261701	-0.949325
H226	H	-0.539364	0.761701	-0.449325
H227	H	-1.035363	0.342983	-1.013147
H228	H	-0.535363	0.842983	-0.513147
H229	H	-0.928346	0.274898	-1.047897
H230	H	-0.428346	0.774898	-0.547897
H231	H	-0.932361	0.193589	-0.984081
H232	H	-0.432361	0.693589	-0.484081
H233	H	-0.988682	0.187939	-1.047860
H234	H	-0.488682	0.687939	-0.547860
H235	H	-0.978257	0.389157	-0.785206
H236	H	-0.478257	0.889157	-0.285206
H237	H	-1.148972	0.636202	-0.785155
H238	H	-0.648972	1.136202	-0.285155
