data_functionalizedCrystal
_audit_creation_method	'MofGen! by Chris Wilmer'
_symmetry_space_group_name_H-M	'P1'
_symmetry_Int_Tables_number	1
_symmetry_cell_setting	triclinic
loop_
_symmetry_equiv_pos_as_xyz
  x,y,z
_cell_length_a	10.540510
_cell_length_b	27.731996
_cell_length_c	9.016244
_cell_angle_alpha	89.991780
_cell_angle_beta	89.992396
_cell_angle_gamma	83.567349
loop_
_atom_site_label
_atom_site_type_symbol
_atom_site_fract_x
_atom_site_fract_y
_atom_site_fract_z
O1	O	1.682927	0.068045	-0.123371
O2	O	1.313226	0.074478	-0.123374
O3	O	1.509593	0.000935	-0.123341
O4	O	1.486560	0.141588	-0.123405
O5	O	1.509565	0.000937	0.123340
O6	O	1.313198	0.074479	0.123306
O7	O	1.682898	0.068047	0.123309
Cu8	Cu	1.498045	0.071263	0.145832
Cu9	Cu	1.498079	0.071261	-0.145897
O10	O	1.486531	0.141590	0.123276
C11	C	1.265930	0.073999	-0.000034
C12	C	1.125043	0.072565	-0.000033
C13	C	0.905344	0.123655	-0.000624
C14	C	1.051872	0.125185	-0.000059
C15	C	1.081449	0.045630	0.140842
C16	C	0.934739	0.044473	0.140952
C17	C	0.935014	0.043375	-0.139570
C18	C	1.081245	0.045871	-0.141424
C19	C	1.509106	-0.017075	0.000005
C20	C	1.507681	-0.070740	0.000020
C21	C	1.498730	-0.403513	-0.134518
C22	C	1.493318	-0.605205	-0.134544
O23	O	1.492577	-0.631281	-0.248903
N24	N	1.492630	-0.630426	-0.000080
C25	C	1.493287	-0.605220	0.134401
O26	O	1.492565	-0.631298	0.248770
C27	C	1.498690	-0.403528	0.134425
C28	C	1.499390	-0.378311	-0.000048
C29	C	1.499429	-0.378296	-0.268981
C30	C	1.500789	-0.327876	-0.268973
C31	C	1.501449	-0.302674	-0.134502
C32	C	1.500750	-0.327891	-0.000040
C33	C	1.499338	-0.378322	0.268904
C34	C	1.500685	-0.327896	0.268898
C35	C	1.501386	-0.302679	0.134425
C36	C	1.502771	-0.252269	0.134438
N37	N	1.503458	-0.227049	-0.000027
C38	C	1.502798	-0.252251	-0.134497
C39	C	1.490453	-0.711111	0.134378
C40	C	1.489105	-0.761533	0.134372
C41	C	1.489133	-0.761515	-0.134573
C42	C	1.490491	-0.711092	-0.134566
C43	C	1.491141	-0.685890	-0.000086
C44	C	1.505655	-0.146366	-0.134470
C45	C	1.507020	-0.095942	-0.134450
C46	C	1.506985	-0.095964	0.134494
C47	C	1.505626	-0.146384	0.134475
C48	C	1.504957	-0.171583	-0.000019
O49	O	1.503498	-0.226161	0.248737
O50	O	1.503492	-0.226162	-0.248849
C51	C	1.497370	-0.453933	-0.134526
C52	C	1.496671	-0.479150	-0.000064
C53	C	1.497331	-0.453948	0.134406
C54	C	1.495322	-0.529573	-0.000070
C55	C	1.494662	-0.554775	-0.134540
C56	C	1.495349	-0.529555	-0.269004
C57	C	1.496709	-0.479135	-0.268996
C58	C	1.496644	-0.479168	0.268871
C59	C	1.495285	-0.529588	0.268852
C60	C	1.494625	-0.554790	0.134382
C61	C	1.730195	0.068525	-0.000034
C62	C	1.871082	0.069959	-0.000044
C63	C	1.487019	0.159599	-0.000073
C64	C	1.488444	0.213264	-0.000098
N65	N	1.498031	0.071264	0.351018
N66	N	1.498104	0.071256	-0.351083
C67	C	1.392676	0.110473	0.586033
C68	C	1.392899	0.110620	0.414142
C69	C	1.630252	0.082732	0.413351
C70	C	1.629674	0.083010	0.585296
C71	C	1.472488	0.020459	0.585585
C72	C	1.469428	0.020789	0.413630
H73	H	1.109015	0.065469	-0.245643
H74	H	1.498769	-0.398846	0.378407
Cl75	Cl	1.159596	-0.013445	-0.154528
Cl76	Cl	0.836772	0.155127	0.154442
H77	H	1.372170	0.012096	0.372892
Cl78	Cl	1.494411	-0.561284	0.437922
Cl79	Cl	0.903497	-0.017621	-0.141010
Cl80	Cl	1.501504	-0.296217	0.437969
H81	H	1.491059	-0.690564	-0.244066
H82	H	1.507593	-0.075413	-0.243959
H83	H	1.294585	0.103720	0.372000
H84	H	1.710521	0.055597	0.626891
H85	H	1.505103	-0.166877	-0.243988
Cl86	Cl	1.494524	-0.561248	-0.438051
Cl87	Cl	0.839198	0.155308	-0.156608
H88	H	1.111470	0.064337	0.245664
Cl89	Cl	1.504770	-0.178088	0.303529
H90	H	1.541299	-0.009796	0.370668
Cl91	Cl	1.754198	0.039836	0.350227
H92	H	1.549383	-0.008730	0.626250
H93	H	1.079333	0.146386	0.101077
Cl94	Cl	1.501657	-0.296181	-0.438034
Cl95	Cl	1.498600	-0.409970	-0.438052
H96	H	1.507528	-0.075436	0.243976
H97	H	1.653541	0.119373	0.370257
H98	H	1.497279	-0.458608	-0.378498
Cl99	Cl	1.417425	0.168332	0.652658
Cl100	Cl	0.871375	0.072897	0.303505
H101	H	1.378229	0.009544	0.629037
H102	H	0.913472	0.005116	0.147369
H103	H	1.080304	0.146257	-0.101049
H104	H	1.130540	0.006892	0.146099
H105	H	1.497184	-0.458654	0.378375
Cl106	Cl	1.488295	-0.793207	-0.303620
Cl107	Cl	0.868236	0.069000	-0.304425
H108	H	1.488554	-0.782062	0.243874
Cl109	Cl	1.491264	-0.679435	0.303456
Cl110	Cl	1.240391	0.099979	0.649909
Cl111	Cl	1.417929	0.168811	0.350577
Cl112	Cl	1.664760	0.140227	0.647171
