data_functionalizedCrystal
_audit_creation_method	'MofGen! by Chris Wilmer'
_symmetry_space_group_name_H-M	'P1'
_symmetry_Int_Tables_number	1
_symmetry_cell_setting	triclinic
loop_
_symmetry_equiv_pos_as_xyz
  x,y,z
_cell_length_a	10.654546
_cell_length_b	7.681481
_cell_length_c	10.654551
_cell_angle_alpha	95.794989
_cell_angle_beta	84.484422
_cell_angle_gamma	84.221770
loop_
_atom_site_label
_atom_site_type_symbol
_atom_site_fract_x
_atom_site_fract_y
_atom_site_fract_z
O1	O	1.656071	0.146455	0.188167
O2	O	1.290593	0.146449	0.204977
O3	O	1.481734	0.146453	0.013833
O4	O	1.464930	0.146451	0.379311
O5	O	1.505260	-0.146404	-0.009747
O6	O	1.314118	-0.146408	0.181397
O7	O	1.679597	-0.146402	0.164587
Zn8	Zn	1.500593	-0.192903	0.169248
Zn9	Zn	1.469597	0.192950	0.200316
O10	O	1.488455	-0.146406	0.355731
C11	C	1.255557	0.000020	0.191954
C12	C	1.116114	0.000018	0.188263
C13	C	1.037795	0.159662	0.199371
C14	C	0.906773	0.159677	0.195895
C15	C	0.932403	-0.159612	0.170197
C16	C	1.063421	-0.159625	0.173682
C17	C	1.022997	0.344002	0.214203
C18	C	0.891975	0.344016	0.210727
N19	N	1.521756	-0.456236	0.148044
C20	C	1.714632	0.000031	0.177611
C21	C	1.854074	0.000044	0.181302
C22	C	1.492263	0.000028	-0.044755
C23	C	1.488569	0.000040	-0.184197
N24	N	1.448443	0.456283	0.221510
C25	C	1.474013	0.159674	-0.236856
C26	C	1.470534	0.159666	-0.367876
C27	C	1.496172	-0.159624	-0.393571
C28	C	1.499643	-0.159614	-0.262551
C29	C	1.459216	0.344013	-0.222023
C30	C	1.455737	0.344005	-0.353044
C31	C	1.477927	0.000022	0.414319
C32	C	1.481619	0.000022	0.553762
H33	H	0.835667	0.401232	0.304774
H34	H	1.366740	0.414797	-0.170042
H35	H	0.889484	-0.289588	0.158326
H36	H	0.861474	0.414793	0.127743
Br37	Br	1.519348	-0.376267	-0.191083
H38	H	1.373605	-0.468521	0.296497
H39	H	1.596608	-0.531441	0.073061
Br40	Br	1.511193	-0.376286	-0.499914
H41	H	1.546221	0.401209	-0.187852
H42	H	1.359544	0.401218	-0.378003
H43	H	1.536842	0.414784	-0.393637
H44	H	1.042131	0.414778	0.308580
Br45	Br	1.169706	-0.376293	0.158642
H46	H	1.070125	0.401188	0.129366
