data_functionalizedCrystal
_audit_creation_method	'MofGen! by Chris Wilmer'
_symmetry_space_group_name_H-M	'P1'
_symmetry_Int_Tables_number	1
_symmetry_cell_setting	triclinic
loop_
_symmetry_equiv_pos_as_xyz
  x,y,z
_cell_length_a	17.077404
_cell_length_b	29.839131
_cell_length_c	17.077396
_cell_angle_alpha	90.039567
_cell_angle_beta	90.019501
_cell_angle_gamma	90.035453
loop_
_atom_site_label
_atom_site_type_symbol
_atom_site_fract_x
_atom_site_fract_y
_atom_site_fract_z
Zn1	Zn	1.199987	-0.178851	0.443782
Zn2	Zn	1.699987	0.321149	0.943782
Zn3	Zn	1.199866	-0.253981	0.312491
Zn4	Zn	1.699866	0.246019	0.812491
Zn5	Zn	1.068719	-0.178866	0.312530
Zn6	Zn	1.568719	0.321134	0.812530
Zn7	Zn	1.068659	-0.253955	0.443714
Zn8	Zn	1.568659	0.246045	0.943714
O9	O	1.134308	-0.216413	0.378129
O10	O	1.634308	0.283587	0.878129
O11	O	1.309818	-0.188821	0.426378
O12	O	1.809818	0.311179	0.926378
O13	O	1.182444	-0.244035	0.202649
O14	O	1.682444	0.255965	0.702649
O15	O	1.086208	-0.115997	0.329986
O16	O	1.586208	0.384003	0.829986
O17	O	1.309729	-0.244020	0.329919
O18	O	1.809729	0.255980	0.829919
O19	O	1.182650	-0.115986	0.426416
O20	O	1.682650	0.384014	0.926416
O21	O	1.086091	-0.188848	0.202678
O22	O	1.586091	0.311152	0.702678
O23	O	0.958864	-0.188822	0.329920
O24	O	1.458864	0.311178	0.829920
O25	O	1.086105	-0.243974	0.553570
O26	O	1.586105	0.256026	1.053570
O27	O	0.958820	-0.243989	0.426301
O28	O	1.458820	0.256011	0.926301
O29	O	1.182592	-0.188796	0.553620
O30	O	1.682592	0.311204	1.053620
O31	O	1.182385	-0.316845	0.329853
O32	O	1.682385	0.183155	0.829853
O33	O	1.085988	-0.316825	0.426262
O34	O	1.585988	0.183175	0.926262
C35	C	0.930360	-0.216405	0.378108
C36	C	1.430360	0.283595	0.878108
C37	C	0.843110	-0.216412	0.378117
C38	C	1.343110	0.283588	0.878117
C39	C	1.134188	-0.333136	0.378063
C40	C	1.634188	0.166864	0.878063
C41	C	1.134209	-0.383070	0.378061
C42	C	1.634209	0.116930	0.878061
C43	C	0.802117	-0.245181	0.428222
C44	C	1.302117	0.254819	0.928222
C45	C	0.720137	-0.245182	0.428234
C46	C	1.220137	0.254818	0.928234
C47	C	0.679151	-0.216416	0.378138
C48	C	1.179151	0.283584	0.878138
C49	C	0.720149	-0.187644	0.328031
C50	C	1.220149	0.312356	0.828031
C51	C	0.802128	-0.187641	0.328023
C52	C	1.302128	0.312359	0.828023
C53	C	0.549279	-0.187653	0.328050
C54	C	1.049279	0.312347	0.828050
C55	C	0.467295	-0.187657	0.328056
C56	C	0.967295	0.312343	0.828056
C57	C	0.467288	-0.245194	0.428261
C58	C	0.967288	0.254806	0.928261
C59	C	0.549267	-0.245191	0.428253
C60	C	1.049267	0.254809	0.928253
C61	C	0.590260	-0.216420	0.378145
C62	C	1.090260	0.283580	0.878145
C63	C	1.184514	-0.692673	0.428412
C64	C	1.684514	-0.192673	0.928412
C65	C	1.184600	-0.880346	0.428459
C66	C	1.684600	-0.380346	0.928459
O67	O	1.227254	-0.904576	0.471221
O68	O	1.727254	-0.404576	0.971221
N69	N	1.134441	-0.903855	0.378217
N70	N	1.634441	-0.403855	0.878217
C71	C	1.084254	-0.880444	0.327962
C72	C	1.584254	-0.380444	0.827962
O73	O	1.041588	-0.904746	0.285234
O74	O	1.541588	-0.404746	0.785234
C75	C	1.084166	-0.692772	0.327919
C76	C	1.584166	-0.192772	0.827919
C77	C	1.134333	-0.669264	0.378160
C78	C	1.634333	-0.169264	0.878160
C79	C	1.234677	-0.669166	0.478649
C80	C	1.734677	-0.169166	0.978649
C81	C	1.234658	-0.622250	0.478634
C82	C	1.734658	-0.122250	0.978634
C83	C	1.184477	-0.598842	0.428382
C84	C	1.684477	-0.098842	0.928382
C85	C	1.134314	-0.622349	0.378145
C86	C	1.634314	-0.122349	0.878145
C87	C	1.033975	-0.669361	0.277669
C88	C	1.533975	-0.169361	0.777669
C89	C	1.033956	-0.622440	0.277664
C90	C	1.533956	-0.122440	0.777664
C91	C	1.084124	-0.598933	0.327905
C92	C	1.584124	-0.098933	0.827905
C93	C	1.084114	-0.552025	0.327877
C94	C	1.584114	-0.052025	0.827877
N95	N	1.134272	-0.528516	0.378120
N96	N	1.634272	-0.028516	0.878120
C97	C	1.184454	-0.551924	0.428372
C98	C	1.684454	-0.051924	0.928372
C99	C	1.084305	-0.978974	0.327987
C100	C	1.584305	-0.478974	0.827987
C101	C	1.084328	-1.025892	0.327996
C102	C	1.584328	-0.525892	0.827996
C103	C	1.184673	-1.025791	0.428495
C104	C	1.684673	-0.525791	0.928495
C105	C	1.184653	-0.978872	0.428481
C106	C	1.684653	-0.478872	0.928481
C107	C	1.134464	-0.955465	0.378230
C108	C	1.634464	-0.455465	0.878230
C109	C	1.184411	-0.453398	0.428336
C110	C	1.684411	0.046602	0.928336
C111	C	1.184390	-0.406479	0.428314
C112	C	1.684390	0.093521	0.928314
C113	C	1.084043	-0.406584	0.327818
C114	C	1.584043	0.093416	0.827818
C115	C	1.084067	-0.453499	0.327837
C116	C	1.584067	0.046501	0.827837
C117	C	1.134253	-0.476905	0.378102
C118	C	1.634253	0.023095	0.878102
O119	O	1.041476	-0.527766	0.285144
O120	O	1.541476	-0.027766	0.785144
O121	O	1.227102	-0.527613	0.471106
O122	O	1.727102	-0.027613	0.971106
C123	C	1.184533	-0.739588	0.428428
C124	C	1.684533	-0.239588	0.928428
C125	C	1.134371	-0.763095	0.378190
C126	C	1.634371	-0.263095	0.878190
C127	C	1.084189	-0.739687	0.327938
C128	C	1.584189	-0.239687	0.827938
C129	C	1.134394	-0.810013	0.378200
C130	C	1.634394	-0.310013	0.878200
C131	C	1.184575	-0.833421	0.428452
C132	C	1.684575	-0.333421	0.928452
C133	C	1.234733	-0.809912	0.478695
C134	C	1.734733	-0.309912	0.978695
C135	C	1.234714	-0.762996	0.478680
C136	C	1.734714	-0.262996	0.978680
C137	C	1.034031	-0.763197	0.277695
C138	C	1.534031	-0.263197	0.777695
C139	C	1.034054	-0.810112	0.277714
C140	C	1.534054	-0.310112	0.777714
C141	C	1.084236	-0.833520	0.327966
C142	C	1.584236	-0.333520	0.827966
C143	C	1.339052	-0.216422	0.378152
C144	C	1.839052	0.283578	0.878152
C145	C	1.426302	-0.216425	0.378161
C146	C	1.926302	0.283575	0.878161
C147	C	1.134355	-0.216380	0.582874
C148	C	1.634355	0.283620	1.082874
C149	C	1.134376	-0.216366	0.670124
C150	C	1.634376	0.283634	1.170124
C151	C	1.134449	-0.099235	0.378213
C152	C	1.634449	0.400765	0.878213
C153	C	1.134510	-0.049300	0.378249
C154	C	1.634510	0.450700	0.878249
C155	C	1.134306	-0.216414	0.174182
C156	C	1.634306	0.283586	0.674182
C157	C	1.134438	-0.216301	0.086932
C158	C	1.634438	0.283699	0.586932
C159	C	1.184618	-0.187632	0.711141
C160	C	1.684618	0.312368	1.211141
C161	C	1.184627	-0.187617	0.793122
C162	C	1.684627	0.312383	1.293122
C163	C	1.134398	-0.216339	0.834083
C164	C	1.634398	0.283661	1.334083
C165	C	1.084150	-0.245074	0.793060
C166	C	1.584150	0.254926	1.293060
C167	C	1.084137	-0.245086	0.711081
C168	C	1.584137	0.254914	1.211081
C169	C	1.084182	-0.245047	0.963930
C170	C	1.584182	0.254953	1.463930
C171	C	1.084195	-0.245035	1.045915
C172	C	1.584195	0.254965	1.545915
C173	C	1.184672	-0.187578	1.045971
C174	C	1.684672	0.312422	1.545971
C175	C	1.184659	-0.187590	0.963992
C176	C	1.684659	0.312410	1.463992
C177	C	1.134412	-0.216326	0.922974
C178	C	1.634412	0.283674	1.422974
H179	H	0.835483	-0.268607	0.469014
H180	H	1.335483	0.231393	0.969014
C181	C	1.290219	-0.926054	0.439485
C182	C	1.790219	-0.426054	0.939485
C183	C	1.239794	-0.953037	0.483712
C184	C	1.739794	-0.453037	0.983712
H185	H	1.324264	-0.910109	0.473587
H186	H	1.824264	-0.410109	0.973587
H187	H	1.260332	-0.905396	0.409569
H188	H	1.760332	-0.405396	0.909569
H189	H	1.320270	-0.944361	0.405315
H190	H	1.820270	-0.444361	0.905315
H191	H	1.209739	-0.934729	0.517879
H192	H	1.709739	-0.434729	1.017879
H193	H	1.269685	-0.973698	0.513642
H194	H	1.769685	-0.473698	1.013642
C195	C	1.229213	-0.162137	0.585500
C196	C	1.729213	0.337863	1.085500
C197	C	1.239830	-0.156059	0.666119
C198	C	1.739830	0.343941	1.166119
H199	H	1.263301	-0.142645	0.557709
H200	H	1.763301	0.357355	1.057709
H201	H	1.176482	-0.155563	0.572066
H202	H	1.676482	0.344437	1.072066
H203	H	1.240668	-0.192325	0.572051
H204	H	1.740668	0.307675	1.072051
H205	H	1.228370	-0.125872	0.679569
H206	H	1.728370	0.374128	1.179569
H207	H	1.292573	-0.162630	0.679559
H208	H	1.792573	0.337370	1.179559
H209	H	0.582653	-0.164220	0.287253
H210	H	1.082653	0.335780	0.787253
C211	C	0.989505	-0.882074	0.233107
C212	C	1.489505	-0.382074	0.733107
C213	C	0.978902	-0.835948	0.222487
C214	C	1.478902	-0.335948	0.722487
H215	H	0.955455	-0.898023	0.199014
H216	H	1.455455	-0.398023	0.699014
H217	H	0.977995	-0.889739	0.285836
H218	H	1.477995	-0.389739	0.785836
H219	H	1.042255	-0.889744	0.221658
H220	H	1.542255	-0.389744	0.721658
H221	H	0.926154	-0.828279	0.233941
H222	H	1.426154	-0.328279	0.733941
H223	H	0.990407	-0.828280	0.169746
H224	H	1.490407	-0.328280	0.669746
H225	H	1.275540	-0.688220	0.519575
H226	H	1.775540	-0.188220	1.019575
C227	C	1.023073	-0.569736	0.172046
C228	C	1.523073	-0.069736	0.672046
C229	C	0.978786	-0.596711	0.222424
C230	C	1.478786	-0.096711	0.722424
H231	H	0.989012	-0.553851	0.137947
H232	H	1.489012	-0.053851	0.637947
H233	H	1.057291	-0.588037	0.142058
H234	H	1.557291	-0.088037	0.642058
H235	H	1.052940	-0.549020	0.201970
H236	H	1.552940	-0.049020	0.701970
H237	H	0.948923	-0.617429	0.192501
H238	H	1.448923	-0.117429	0.692501
H239	H	0.944554	-0.578408	0.252415
H240	H	1.444554	-0.078408	0.752415
H241	H	0.993166	-0.744141	0.236775
H242	H	1.493166	-0.244141	0.736775
C243	C	0.627917	-0.181326	0.222473
C244	C	1.127917	0.318674	0.722473
C245	C	0.675098	-0.156023	0.272965
C246	C	1.175098	0.343977	0.772965
H247	H	0.600110	-0.161803	0.188474
H248	H	1.100110	0.338197	0.688474
H249	H	0.591774	-0.198457	0.252314
H250	H	1.091774	0.301543	0.752314
H251	H	0.659875	-0.200874	0.192376
H252	H	1.159875	0.299126	0.692376
H253	H	0.643140	-0.136477	0.303066
H254	H	1.143140	0.363523	0.803066
H255	H	0.711245	-0.138885	0.243120
H256	H	1.211245	0.361115	0.743120
C257	C	1.283953	-0.130832	0.784942
C258	C	1.783953	0.369168	1.284942
C259	C	1.239861	-0.156035	0.838208
C260	C	1.739861	0.343965	1.338208
H261	H	1.318056	-0.111336	0.812778
H262	H	1.818056	0.388664	1.312778
H263	H	1.249771	-0.113650	0.752976
H264	H	1.749771	0.386350	1.252976
H265	H	1.313944	-0.150419	0.752957
H266	H	1.813944	0.349581	1.252957
H267	H	1.209865	-0.136448	0.870189
H268	H	1.709865	0.363552	1.370189
H269	H	1.274047	-0.173218	0.870188
H270	H	1.774047	0.326782	1.370188
H271	H	0.686764	-0.268609	0.469034
H272	H	1.186764	0.231391	0.969034
H273	H	0.582636	-0.268617	0.469042
H274	H	1.082636	0.231383	0.969042
C275	C	1.073184	-0.305491	0.885201
C276	C	1.573184	0.194509	1.385201
C277	C	1.028936	-0.276646	0.838083
C278	C	1.528936	0.223354	1.338083
H279	H	1.039096	-0.324985	0.912991
H280	H	1.539096	0.175015	1.412991
H281	H	1.103101	-0.288376	0.921360
H282	H	1.603101	0.211624	1.421360
H283	H	1.107355	-0.322680	0.853204
H284	H	1.607355	0.177320	1.353204
H285	H	0.994769	-0.259454	0.870081
H286	H	1.494769	0.240546	1.370081
H287	H	0.999006	-0.293762	0.801920
H288	H	1.499006	0.206238	1.301920
C289	C	1.229289	-0.162030	1.171660
C290	C	1.729289	0.337970	1.671660
C291	C	1.239891	-0.155983	1.091054
C292	C	1.739891	0.344017	1.591054
H293	H	1.263374	-0.142523	1.199493
H294	H	1.763374	0.357477	1.699493
H295	H	1.240750	-0.192208	1.185078
H296	H	1.740750	0.307792	1.685078
H297	H	1.176552	-0.155453	1.185075
H298	H	1.676552	0.344547	1.685075
H299	H	1.292627	-0.162563	1.077638
H300	H	1.792627	0.337437	1.577638
H301	H	1.228435	-0.125798	1.077630
H302	H	1.728435	0.374202	1.577630
H303	H	0.433908	-0.268619	0.469064
H304	H	0.933908	0.231381	0.969064
C305	C	0.984863	-0.301824	1.037630
C306	C	1.484863	0.198176	1.537630
C307	C	1.028977	-0.276603	1.090942
C308	C	1.528977	0.223397	1.590942
H309	H	0.950771	-0.321310	1.065430
H310	H	1.450771	0.178690	1.565430
H311	H	1.019032	-0.319017	1.005649
H312	H	1.519032	0.180983	1.505649
H313	H	0.954860	-0.282247	1.005663
H314	H	1.454860	0.217753	1.505663
H315	H	1.058985	-0.296179	1.122905
H316	H	1.558985	0.203821	1.622905
H317	H	0.994804	-0.259408	1.122936
H318	H	1.494804	0.240592	1.622936
C319	C	0.927802	-0.162088	0.283521
C320	C	1.427802	0.337912	0.783521
C321	C	0.847192	-0.156018	0.272946
C322	C	1.347192	0.343982	0.772946
H323	H	0.955620	-0.142561	0.249523
H324	H	1.455620	0.357439	0.749523
H325	H	0.941199	-0.192260	0.271925
H326	H	1.441199	0.307740	0.771925
H327	H	0.941256	-0.155551	0.336288
H328	H	1.441256	0.344449	0.836288
H329	H	0.833736	-0.162558	0.220181
H330	H	1.333736	0.337442	0.720181
H331	H	0.833789	-0.125839	0.284537
H332	H	1.333789	0.374161	0.784537
C333	C	0.475531	-0.130775	0.229020
C334	C	0.975531	0.369225	0.729020
C335	C	0.422240	-0.156033	0.272996
C336	C	0.922240	0.343967	0.772996
H337	H	0.447714	-0.111250	0.195033
H338	H	0.947714	0.388750	0.695033
H339	H	0.507472	-0.150321	0.198919
H340	H	1.007472	0.349679	0.698919
H341	H	0.507538	-0.113616	0.263288
H342	H	1.007538	0.386384	0.763288
H343	H	0.390236	-0.173194	0.238728
H344	H	0.890236	0.326806	0.738728
H345	H	0.390286	-0.136484	0.303100
H346	H	0.890286	0.363516	0.803100
H347	H	1.043253	-0.268440	0.930536
H348	H	1.543253	0.231560	1.430536
C349	C	1.283576	-0.411098	0.527661
C350	C	1.783576	0.088902	1.027661
C351	C	1.239533	-0.380640	0.483547
C352	C	1.739533	0.119360	0.983547
H353	H	1.317612	-0.395147	0.561762
H354	H	1.817612	0.104853	1.061762
H355	H	1.313629	-0.429399	0.493493
H356	H	1.813629	0.070601	0.993493
H357	H	1.249354	-0.429401	0.557655
H358	H	1.749354	0.070599	1.057655
H359	H	1.273755	-0.362340	0.453548
H360	H	1.773755	0.137660	0.953548
H361	H	1.209478	-0.362332	0.517719
H362	H	1.709478	0.137668	1.017719
H363	H	1.225565	-0.164205	0.930643
H364	H	1.725565	0.335795	1.430643
C365	C	1.045826	-0.321164	0.685766
C366	C	1.545826	0.178836	1.185766
C367	C	1.028923	-0.276676	0.665984
C368	C	1.528923	0.223324	1.165984
H369	H	1.011741	-0.340665	0.657920
H370	H	1.511741	0.159335	1.157920
H371	H	1.038635	-0.325265	0.740443
H372	H	1.538635	0.174735	1.240443
H373	H	1.098562	-0.327732	0.672338
H374	H	1.598562	0.172268	1.172338
H375	H	0.976187	-0.270106	0.679418
H376	H	1.476187	0.229894	1.179418
H377	H	1.036107	-0.272572	0.611295
H378	H	1.536107	0.227428	1.111295
C379	C	1.195289	-0.506095	0.533967
C380	C	1.695289	-0.006095	1.033967
C381	C	1.239576	-0.479123	0.483585
C382	C	1.739576	0.020877	0.983585
H383	H	1.229349	-0.521974	0.568074
H384	H	1.729349	-0.021974	1.068074
H385	H	1.165428	-0.526811	0.504052
H386	H	1.665428	-0.026811	1.004052
H387	H	1.161065	-0.487789	0.563952
H388	H	1.661065	0.012211	1.063952
H389	H	1.273797	-0.497429	0.453595
H390	H	1.773797	0.002571	0.953595
H391	H	1.269451	-0.458404	0.513503
H392	H	1.769451	0.041596	1.013503
H393	H	1.275506	-0.603113	0.519546
H394	H	1.775506	-0.103113	1.019546
C395	C	1.229245	-1.097672	0.473135
C396	C	1.729245	-0.597672	0.973135
C397	C	1.239828	-1.051527	0.483740
C398	C	1.739828	-0.551527	0.983740
H399	H	1.263287	-1.113561	0.507246
H400	H	1.763287	-0.613561	1.007246
H401	H	1.240777	-1.105376	0.420413
H402	H	1.740777	-0.605376	0.920413
H403	H	1.176493	-1.105374	0.484566
H404	H	1.676493	-0.605374	0.984566
H405	H	1.292578	-1.043825	0.472303
H406	H	1.792578	-0.543825	0.972303
H407	H	1.228301	-1.043820	0.536474
H408	H	1.728301	-0.543820	1.036474
H409	H	1.043486	-1.045028	0.287077
H410	H	1.543486	-0.545028	0.787077
C411	C	0.985131	-0.983797	0.228640
C412	C	1.485131	-0.483797	0.728640
C413	C	1.029141	-0.953249	0.272736
C414	C	1.529141	-0.453249	0.772736
H415	H	0.951081	-0.967916	0.194526
H416	H	1.451081	-0.467916	0.694526
H417	H	0.955094	-1.002094	0.262818
H418	H	1.455094	-0.502094	0.762818
H419	H	1.019374	-1.002095	0.198661
H420	H	1.519374	-0.502095	0.698661
H421	H	0.994898	-0.934953	0.302720
H422	H	1.494898	-0.434953	0.802720
H423	H	1.059180	-0.934945	0.238554
H424	H	1.559180	-0.434945	0.738554
H425	H	0.993124	-0.688492	0.236758
H426	H	1.493124	-0.188492	0.736758
C427	C	0.984876	-0.448884	0.228499
C428	C	1.484876	0.051116	0.728499
C429	C	1.028925	-0.479341	0.272611
C430	C	1.528925	0.020659	0.772611
H431	H	0.950827	-0.464837	0.194413
H432	H	1.450827	0.035163	0.694413
H433	H	1.019089	-0.430587	0.198496
H434	H	1.519089	0.069413	0.698496
H435	H	0.954830	-0.430578	0.262675
H436	H	1.454830	0.069422	0.762675
H437	H	1.058975	-0.497645	0.238435
H438	H	1.558975	0.002355	0.738435
H439	H	0.994708	-0.497646	0.302616
H440	H	1.494708	0.002354	0.802616
C441	C	1.039460	-0.334703	0.283194
C442	C	1.539460	0.165297	0.783194
C443	C	1.028881	-0.380847	0.272586
C444	C	1.528881	0.119153	0.772586
H445	H	1.005398	-0.318814	0.249102
H446	H	1.505398	0.181186	0.749102
H447	H	1.092198	-0.326997	0.271745
H448	H	1.592198	0.173003	0.771745
H449	H	1.027944	-0.327002	0.335929
H450	H	1.527944	0.172998	0.835929
H451	H	1.040403	-0.388548	0.219852
H452	H	1.540403	0.111452	0.719852
H453	H	0.976131	-0.388556	0.284029
H454	H	1.476131	0.111444	0.784029
C455	C	1.340286	-0.710182	0.489684
C456	C	1.840286	-0.210182	0.989684
C457	C	1.289857	-0.737162	0.533911
C458	C	1.789857	-0.237162	1.033911
H459	H	1.374332	-0.694238	0.523786
H460	H	1.874332	-0.194238	1.023786
H461	H	1.310402	-0.689523	0.459766
H462	H	1.810402	-0.189523	0.959766
H463	H	1.370335	-0.728491	0.455515
H464	H	1.870335	-0.228491	0.955515
H465	H	1.259803	-0.718853	0.568076
H466	H	1.759803	-0.218853	1.068076
H467	H	1.319744	-0.757823	0.563842
H468	H	1.819744	-0.257823	1.063842
H469	H	1.275595	-0.828979	0.519610
H470	H	1.775595	-0.328979	1.019610
