data_functionalizedCrystal
_audit_creation_method	'MofGen! by Chris Wilmer'
_symmetry_space_group_name_H-M	'P1'
_symmetry_Int_Tables_number	1
_symmetry_cell_setting	triclinic
loop_
_symmetry_equiv_pos_as_xyz
  x,y,z
_cell_length_a	17.917559
_cell_length_b	14.560438
_cell_length_c	14.560438
_cell_angle_alpha	90.000131
_cell_angle_beta	57.014456
_cell_angle_gamma	63.040162
loop_
_atom_site_label
_atom_site_type_symbol
_atom_site_fract_x
_atom_site_fract_y
_atom_site_fract_z
Zr1	Zr	0.818500	0.930765	-0.166207
O2	O	0.974507	0.792886	-0.321571
O3	O	0.662494	0.966953	-0.112537
O4	O	0.818500	0.975724	-0.312853
O5	O	0.818502	0.784112	0.029884
O6	O	0.818497	1.126864	-0.312848
O7	O	0.818502	0.784115	-0.121256
O8	O	0.539433	1.111176	0.045480
O9	O	1.097567	0.799801	-0.328444
O10	O	0.726659	1.102527	-0.096944
O11	O	0.726661	0.989730	0.015847
O12	O	0.910337	1.000055	-0.219999
O13	O	0.910339	0.887258	-0.107209
Zr14	Zr	0.818496	1.171812	0.074852
Zr15	Zr	0.818496	1.171817	-0.166198
Zr16	Zr	0.818500	0.930760	0.074844
Zr17	Zr	1.014766	0.941794	-0.177167
Zr18	Zr	0.622231	1.160784	0.085813
O19	O	0.974502	1.135624	0.021183
O20	O	0.974502	1.135631	-0.321560
O21	O	0.974507	0.792879	0.021171
O22	O	0.662489	1.309692	0.230217
O23	O	0.662489	1.309699	-0.112526
O24	O	0.662494	0.966946	0.230205
O25	O	0.818494	1.318465	-0.121238
O26	O	0.818496	1.126854	0.221498
O27	O	0.818499	0.975713	0.221493
O28	O	0.818494	1.318462	0.029901
O29	O	1.097564	0.991405	-0.328437
O30	O	0.539432	1.111172	0.237083
O31	O	0.539429	1.302777	0.237089
O32	O	0.539430	1.302780	0.045486
O33	O	1.097566	0.799797	-0.136841
O34	O	1.097563	0.991401	-0.136835
O35	O	0.726659	1.102522	0.128644
O36	O	0.726658	1.215319	0.015854
O37	O	0.910335	1.112848	-0.107201
O38	O	0.910337	1.000051	0.005589
C39	C	0.573000	1.037493	-0.031967
C40	C	0.489680	1.032811	-0.027314
C41	C	0.299928	1.078238	-0.072613
C42	C	0.337073	1.024342	-0.018745
C43	C	0.421991	1.029056	-0.023514
C44	C	0.215002	1.073525	-0.067844
C45	C	0.818503	0.749769	-0.045688
C46	C	0.818504	0.647436	-0.045691
C47	C	0.818506	0.599355	-0.128953
C48	C	0.818496	0.503208	-0.128938
C49	C	0.818487	0.503231	0.037607
C50	C	0.818489	0.599380	0.037596
C51	C	0.818521	0.647411	-0.212240
C52	C	0.818524	0.599329	-0.295510
C53	C	0.818514	0.503182	-0.295494
C54	C	0.818501	0.455118	-0.212208
C55	C	1.063996	1.065084	-0.059388
C56	C	1.147316	1.069766	-0.064041
C57	C	0.818499	1.051295	-0.347195
C58	C	0.818499	1.051297	-0.449527
C59	C	0.818493	1.352808	-0.045667
C60	C	0.818492	1.455141	-0.045664
C61	C	0.818502	1.134557	-0.497608
C62	C	0.818497	1.134551	-0.593757
C63	C	0.818491	0.968016	-0.593738
C64	C	0.818488	0.968027	-0.497585
C65	C	0.818513	1.217827	-0.449550
C66	C	0.818517	1.301092	-0.497632
C67	C	0.818513	1.301087	-0.593781
C68	C	0.818504	1.217815	-0.641848
C69	C	0.818498	1.051283	0.255840
C70	C	0.818497	1.051281	0.358172
C71	C	0.572995	1.339013	-0.031957
C72	C	0.489674	1.436664	-0.027300
C73	C	0.572999	1.037487	0.269550
C74	C	0.489679	1.032803	0.376535
C75	C	0.572995	1.339007	0.269560
C76	C	0.489673	1.436656	0.376549
C77	C	1.064001	0.763571	-0.360915
C78	C	1.147323	0.665922	-0.467904
C79	C	1.064001	0.763565	-0.059398
C80	C	1.147322	0.665914	-0.064054
C81	C	1.063997	1.065090	-0.360905
C82	C	1.147317	1.069774	-0.467890
C83	C	0.450546	1.423645	-0.084003
C84	C	0.372268	1.515390	-0.079651
C85	C	0.333113	1.620152	-0.018588
C86	C	0.372248	1.633169	0.038115
C87	C	0.450531	1.541425	0.033756
C88	C	0.450550	1.089480	0.485666
C89	C	0.372273	1.085075	0.586199
C90	C	0.333121	1.023999	0.577599
C91	C	0.372258	0.967316	0.468456
C92	C	0.450539	0.971715	0.367926
C93	C	0.450544	1.541402	0.367917
C94	C	0.372265	1.633163	0.468434
C95	C	0.333112	1.620176	0.577583
C96	C	0.372249	1.515419	0.586213
C97	C	0.450532	1.423660	0.485696
C98	C	1.186462	0.561176	-0.459272
C99	C	1.264765	0.469416	-0.559791
C100	C	1.303922	0.482404	-0.668940
C101	C	1.264780	0.587160	-0.677569
C102	C	1.186483	0.678918	-0.577052
C103	C	1.186458	0.678933	-0.007362
C104	C	1.264758	0.587189	-0.011742
C105	C	1.303916	0.482427	-0.072808
C106	C	1.264777	0.469410	-0.129507
C107	C	1.186483	0.561153	-0.125133
C108	C	1.186444	1.130860	-0.459252
C109	C	1.264721	1.135283	-0.559767
C110	C	1.303876	1.078612	-0.668918
C111	C	1.264741	1.017524	-0.677553
C112	C	1.186459	1.013109	-0.577040
H113	H	0.305102	0.974655	0.030948
Cl114	Cl	0.818476	0.442805	0.142298
H115	H	0.818519	1.217837	-0.371263
Cl116	Cl	0.323086	1.156346	0.723392
Cl117	Cl	0.499755	1.557758	0.230713
H118	H	0.269370	1.694846	-0.015047
H119	H	0.269369	1.694901	0.659421
H120	H	0.818516	1.368894	-0.458486
Cl121	Cl	1.402341	0.367103	-0.078292
H122	H	0.269380	1.020426	0.659466
Cl123	Cl	1.402292	1.084171	-0.795268
Cl124	Cl	1.313910	1.212077	-0.548885
H125	H	0.340408	1.718452	0.461388
Cl126	Cl	1.314010	0.337701	-0.206265
H127	H	0.818506	1.368891	-0.632922
H128	H	0.331901	1.127915	-0.122310
Cl129	Cl	0.323015	1.499110	0.723438
H130	H	0.340369	0.917588	0.461471
H131	H	0.818532	0.725696	-0.212262
H132	H	0.818490	1.217824	-0.720131
Cl133	Cl	1.313940	0.603578	0.059549
H134	H	0.818485	0.900219	-0.632880
H135	H	1.296632	0.971385	-0.766437
H136	H	1.154611	0.963361	-0.584089
Cl137	Cl	0.499714	0.900462	0.230737
Cl138	Cl	0.499707	1.291982	0.496569
H139	H	0.818526	0.638472	-0.363312
H140	H	0.482425	1.338351	-0.133741
Cl141	Cl	0.818506	0.442744	-0.400164
Cl142	Cl	1.313952	0.337736	-0.548916
Cl143	Cl	0.818475	0.334255	-0.212186
H144	H	0.818486	0.638529	0.105396
H145	H	1.154584	0.550580	-0.370406
H146	H	1.154621	0.550537	-0.171296
Cl147	Cl	0.818479	0.863356	-0.437135
Cl148	Cl	1.402351	0.367038	-0.795296
Cl149	Cl	1.314013	0.603469	-0.814795
Cl150	Cl	1.137282	0.810595	-0.587923
Cl151	Cl	0.323081	1.499001	-0.150936
Cl152	Cl	1.137253	0.810623	0.069408
Cl153	Cl	0.323009	1.764878	0.114881
Cl154	Cl	0.499703	1.557811	0.105057
H155	H	0.482419	1.139215	0.492691
H156	H	1.154577	1.177009	-0.370385
