data_functionalizedCrystal
_audit_creation_method	'MofGen! by Chris Wilmer'
_symmetry_space_group_name_H-M	'P1'
_symmetry_Int_Tables_number	1
_symmetry_cell_setting	triclinic
loop_
_symmetry_equiv_pos_as_xyz
  x,y,z
_cell_length_a	19.188925
_cell_length_b	19.188930
_cell_length_c	9.198806
_cell_angle_alpha	89.991701
_cell_angle_beta	89.995113
_cell_angle_gamma	83.143665
loop_
_atom_site_label
_atom_site_type_symbol
_atom_site_fract_x
_atom_site_fract_y
_atom_site_fract_z
O1	O	0.926147	0.087148	-0.120940
O2	O	1.259480	0.420481	0.212393
O3	O	1.592813	0.753815	0.545727
O4	O	0.722835	0.098886	-0.120938
O5	O	1.056168	0.432219	0.212395
O6	O	1.389502	0.765553	0.545728
O7	O	0.830358	-0.008639	-0.120911
O8	O	1.163691	0.324695	0.212423
O9	O	1.497025	0.658028	0.545756
O10	O	0.818624	0.194673	-0.120967
O11	O	1.151957	0.528006	0.212366
O12	O	1.485290	0.861339	0.545699
O13	O	0.830350	-0.008639	0.120874
O14	O	1.163683	0.324694	0.454208
O15	O	1.497016	0.658028	0.787541
O16	O	0.722827	0.098886	0.120847
O17	O	1.056160	0.432219	0.454180
O18	O	1.389493	0.765553	0.787514
O19	O	0.926138	0.087148	0.120845
O20	O	1.259472	0.420481	0.454178
O21	O	1.592805	0.753814	0.787512
Cu22	Cu	0.824482	0.093017	0.142923
Cu23	Cu	1.157815	0.426350	0.476256
Cu24	Cu	1.491148	0.759683	0.809590
Cu25	Cu	0.824492	0.093017	-0.143016
Cu26	Cu	1.157825	0.426350	0.190317
Cu27	Cu	1.491158	0.759684	0.523651
O28	O	0.818615	0.194673	0.120818
O29	O	1.151949	0.528006	0.454151
O30	O	1.485282	0.861339	0.787484
C31	C	0.696820	0.098507	-0.000045
C32	C	1.030153	0.431840	0.333288
C33	C	1.363486	0.765173	0.666622
C34	C	0.619315	0.097367	-0.000043
C35	C	0.952648	0.430701	0.333290
C36	C	1.285982	0.764034	0.666624
C37	C	0.057545	0.152831	-0.000062
C38	C	0.390878	0.486165	0.333271
C39	C	0.724211	0.819498	0.666605
C40	C	0.130368	0.153908	-0.000070
C41	C	0.463701	0.487241	0.333263
C42	C	0.797035	0.820575	0.666597
C43	C	0.175302	0.090816	-0.000050
C44	C	0.508636	0.424149	0.333283
C45	C	0.841969	0.757482	0.666617
C46	C	0.147408	0.026642	-0.000059
C47	C	0.480742	0.359976	0.333274
C48	C	0.814075	0.693309	0.666608
C49	C	0.074586	0.025568	-0.000065
C50	C	0.407920	0.358901	0.333268
C51	C	0.741253	0.692234	0.666601
N52	N	0.295977	0.045139	0.082268
N53	N	0.629310	0.378473	0.415601
N54	N	0.962643	0.711806	0.748935
N55	N	0.365154	0.046165	0.082277
N56	N	0.698487	0.379498	0.415611
N57	N	1.031821	0.712831	0.748944
C58	C	0.394712	0.094050	-0.000034
C59	C	0.728045	0.427383	0.333300
C60	C	1.061378	0.760716	0.666633
N61	N	0.352477	0.140882	-0.082336
N62	N	0.685810	0.474215	0.250997
N63	N	1.019144	0.807548	0.584331
N64	N	0.283293	0.139858	-0.082339
N65	N	0.616627	0.473192	0.250995
N66	N	0.949960	0.806525	0.584328
C67	C	0.254267	0.091974	-0.000044
C68	C	0.587600	0.425307	0.333289
C69	C	0.920933	0.758641	0.666623
C70	C	0.501561	0.159386	-0.000044
C71	C	0.834894	0.492720	0.333290
C72	C	1.168227	0.826053	0.666623
C73	C	0.574385	0.160460	-0.000061
C74	C	0.907719	0.493794	0.333272
C75	C	1.241052	0.827127	0.666606
C76	C	0.591425	0.033193	-0.000035
C77	C	0.924758	0.366526	0.333298
C78	C	1.258091	0.699859	0.666632
C79	C	0.518601	0.032121	-0.000033
C80	C	0.851934	0.365454	0.333301
C81	C	1.185268	0.698787	0.666634
C82	C	0.473673	0.095220	-0.000030
C83	C	0.807006	0.428553	0.333303
C84	C	1.140340	0.761886	0.666637
C85	C	0.829974	-0.034650	-0.000014
C86	C	1.163307	0.298683	0.333319
C87	C	1.496640	0.632017	0.666653
C88	C	0.828833	-0.112154	-0.000002
C89	C	1.162166	0.221179	0.333332
C90	C	1.495500	0.554512	0.666665
C91	C	0.891924	-0.157079	0.000005
C92	C	1.225257	0.176254	0.333338
C93	C	1.558591	0.509587	0.666672
C94	C	0.890852	-0.229903	-0.000018
C95	C	1.224186	0.103430	0.333315
C96	C	1.557519	0.436763	0.666648
C97	C	0.826686	-0.257799	-0.000019
C98	C	1.160020	0.075535	0.333314
C99	C	1.493353	0.408868	0.666648
C100	C	0.763587	-0.212864	-0.000033
C101	C	1.096920	0.120470	0.333300
C102	C	1.430254	0.453803	0.666633
C103	C	0.764660	-0.140041	-0.000025
C104	C	1.097994	0.193292	0.333309
C105	C	1.431327	0.526625	0.666642
N106	N	0.777636	-0.365803	0.082266
N107	N	1.110969	-0.032469	0.415599
N108	N	1.444302	0.300864	0.748932
N109	N	0.776620	-0.434981	0.082260
N110	N	1.109954	-0.101648	0.415594
N111	N	1.443287	0.231685	0.748927
C112	C	0.823448	-0.477207	-0.000048
C113	C	1.156781	-0.143874	0.333285
C114	C	1.490115	0.189459	0.666618
N115	N	0.871340	-0.447643	-0.082333
N116	N	1.204673	-0.114309	0.251000
N117	N	1.538007	0.219024	0.584333
N118	N	0.872358	-0.378458	-0.082322
N119	N	1.205691	-0.045125	0.251012
N120	N	1.539024	0.288209	0.584345
C121	C	0.825515	-0.336761	-0.000029
C122	C	1.158848	-0.003428	0.333304
C123	C	1.492182	0.329906	0.666637
C124	C	0.885381	-0.601097	-0.000069
C125	C	1.218715	-0.267763	0.333264
C126	C	1.552048	0.065570	0.666597
C127	C	0.884307	-0.673922	-0.000101
C128	C	1.217640	-0.340588	0.333232
C129	C	1.550974	-0.007255	0.666565
C130	C	0.757040	-0.656880	-0.000102
C131	C	1.090373	-0.323547	0.333231
C132	C	1.423706	0.009786	0.666565
C133	C	0.758116	-0.584057	-0.000084
C134	C	1.091449	-0.250724	0.333249
C135	C	1.424782	0.082610	0.666582
C136	C	0.822289	-0.556170	-0.000061
C137	C	1.155622	-0.222837	0.333272
C138	C	1.488955	0.110497	0.666606
C139	C	0.952154	0.087527	-0.000051
C140	C	1.285487	0.420861	0.333282
C141	C	1.618820	0.754194	0.666615
C142	C	1.029658	0.088666	-0.000063
C143	C	1.362992	0.422000	0.333271
C144	C	1.696325	0.755333	0.666604
C145	C	0.819000	0.220684	-0.000082
C146	C	1.152333	0.554017	0.333251
C147	C	1.485666	0.887350	0.666584
C148	C	0.820140	0.298188	-0.000104
C149	C	1.153474	0.631522	0.333229
C150	C	1.486807	0.964855	0.666562
N151	N	0.824480	0.093016	0.344037
N152	N	1.157813	0.426350	0.677370
N153	N	1.491146	0.759683	1.010703
N154	N	0.824499	0.093012	-0.344130
N155	N	1.157833	0.426345	-0.010797
N156	N	1.491166	0.759679	0.322537
C157	C	0.869628	0.047673	0.416245
C158	C	1.202961	0.381006	0.749579
C159	C	1.536294	0.714339	1.082912
C160	C	0.869639	0.047670	0.583658
C161	C	1.202972	0.381004	0.916991
C162	C	1.536305	0.714337	1.250324
H163	H	0.183999	-0.024728	-0.000047
H164	H	0.517332	0.308606	0.333287
H165	H	0.850665	0.641939	0.666620
C166	C	0.695257	-0.090622	-0.000018
C167	C	1.028591	0.242712	0.333315
C168	C	1.361924	0.576045	0.666649
H169	H	0.656887	-0.117662	-0.000015
H170	H	0.990220	0.215671	0.333318
H171	H	1.323554	0.549005	0.666652
H172	H	0.693034	-0.061848	-0.084325
H173	H	1.026367	0.271486	0.249009
H174	H	1.359700	0.604819	0.582342
H175	H	0.693030	-0.061872	0.084318
H176	H	1.026363	0.271461	0.417651
H177	H	1.359696	0.604795	0.750984
H178	H	0.785832	0.131832	0.406155
H179	H	1.119165	0.465165	0.739488
H180	H	1.452499	0.798499	1.072822
H181	H	0.908271	0.008851	0.354129
H182	H	1.241604	0.342185	0.687462
H183	H	1.574937	0.675518	1.020796
C184	C	0.605060	0.231045	-0.000057
C185	C	0.938394	0.564379	0.333277
C186	C	1.271727	0.897712	0.666610
H187	H	0.567871	0.268467	-0.000041
H188	H	0.901204	0.601801	0.333292
H189	H	1.234537	0.935134	0.666625
H190	H	0.633117	0.234118	-0.084370
H191	H	0.966451	0.567451	0.248963
H192	H	1.299784	0.900785	0.582296
H193	H	0.633110	0.234101	0.084272
H194	H	0.966443	0.567435	0.417605
H195	H	1.299777	0.900768	0.750938
H196	H	0.704794	-0.679592	-0.000110
H197	H	1.038128	-0.346258	0.333224
H198	H	1.371461	-0.012925	0.666557
H199	H	0.937635	-0.578390	-0.000057
H200	H	1.270968	-0.245057	0.333276
H201	H	1.604301	0.088277	0.666610
H202	H	0.051883	-0.026685	-0.000066
H203	H	0.385216	0.306649	0.333267
H204	H	0.718549	0.639982	0.666600
H205	H	0.628010	-0.018178	-0.000030
H206	H	0.961343	0.315155	0.333303
H207	H	1.294676	0.648489	0.666637
C208	C	0.688717	-0.534634	-0.000082
C209	C	1.022050	-0.201301	0.333252
C210	C	1.355383	0.132032	0.666585
H211	H	0.698546	-0.487269	-0.000089
H212	H	1.031879	-0.153936	0.333244
H213	H	1.365212	0.179397	0.666577
H214	H	0.662389	-0.543074	0.084228
H215	H	0.995722	-0.209741	0.417562
H216	H	1.329056	0.123593	0.750895
H217	H	0.662403	-0.543062	-0.084414
H218	H	0.995736	-0.209729	0.248919
H219	H	1.329070	0.123605	0.582253
C220	C	0.772278	0.145462	0.572009
C221	C	1.105611	0.478795	0.905343
C222	C	1.438945	0.812128	1.238676
H223	H	0.743963	0.173911	0.639032
H224	H	1.077297	0.507245	0.972366
H225	H	1.410630	0.840578	1.305699
H226	H	0.743238	0.120483	0.512647
H227	H	1.076571	0.453816	0.845980
H228	H	1.409904	0.787149	1.179313
H229	H	0.797422	0.174360	0.512619
H230	H	1.130755	0.507694	0.845952
H231	H	1.464089	0.841027	1.179286
H232	H	0.908294	0.008852	0.645754
H233	H	1.241628	0.342186	0.979087
H234	H	1.574961	0.675519	1.312421
C235	C	0.953711	-0.723340	-0.000092
C236	C	1.287044	-0.390007	0.333242
C237	C	1.620378	-0.056673	0.666575
H238	H	0.992080	-0.696299	-0.000062
H239	H	1.325414	-0.362965	0.333271
H240	H	1.658747	-0.029632	0.666604
H241	H	0.955947	-0.752094	-0.084411
H242	H	1.289280	-0.418761	0.248922
H243	H	1.622613	-0.085428	0.582255
H244	H	0.955928	-0.752109	0.084231
H245	H	1.289261	-0.418776	0.417564
H246	H	1.622595	-0.085443	0.750898
H247	H	0.020968	0.204211	-0.000067
H248	H	0.354302	0.537545	0.333266
H249	H	0.687635	0.870878	0.666600
H250	H	0.464978	0.210765	-0.000044
H251	H	0.798311	0.544098	0.333289
H252	H	1.131645	0.877432	0.666622
C253	C	0.161051	0.224492	-0.000063
C254	C	0.494385	0.557825	0.333270
C255	C	0.827718	0.891159	0.666604
H256	H	0.123864	0.261916	-0.000055
H257	H	0.457197	0.595250	0.333279
H258	H	0.790531	0.928583	0.666612
H259	H	0.189112	0.227561	-0.084373
H260	H	0.522445	0.560895	0.248960
H261	H	0.855778	0.894228	0.582294
H262	H	0.189098	0.227547	0.084269
H263	H	0.522432	0.560881	0.417603
H264	H	0.855765	0.894214	0.750936
C265	C	0.960255	-0.279330	-0.000001
C266	C	1.293588	0.054004	0.333332
C267	C	1.626922	0.387337	0.666666
H268	H	0.998627	-0.252291	0.000023
H269	H	1.331960	0.081042	0.333356
H270	H	1.665293	0.414376	0.666690
H271	H	0.962489	-0.308088	-0.084315
H272	H	1.295822	0.025246	0.249018
H273	H	1.629156	0.358579	0.582352
H274	H	0.962470	-0.308095	0.084327
H275	H	1.295803	0.025238	0.417660
H276	H	1.629137	0.358571	0.750994
H277	H	0.944179	-0.134379	0.000019
H278	H	1.277512	0.198954	0.333352
H279	H	1.610845	0.532288	0.666686
C280	C	0.487921	-0.038460	-0.000025
C281	C	0.821254	0.294874	0.333308
C282	C	1.154587	0.628207	0.666642
H283	H	0.438115	-0.030064	-0.000045
H284	H	0.771449	0.303269	0.333288
H285	H	1.104782	0.636603	0.666622
H286	H	0.503350	-0.064434	0.084292
H287	H	0.836683	0.268899	0.417626
H288	H	1.170016	0.602232	0.750959
H289	H	0.503361	-0.064422	-0.084350
H290	H	0.836695	0.268911	0.248984
H291	H	1.170028	0.602244	0.582317
C292	C	0.693006	-0.243545	-0.000029
C293	C	1.026339	0.089788	0.333305
C294	C	1.359673	0.423121	0.666638
H295	H	0.701402	-0.293351	-0.000018
H296	H	1.034736	0.039983	0.333316
H297	H	1.368069	0.373316	0.666649
H298	H	0.667039	-0.228105	-0.084344
H299	H	1.000372	0.105228	0.248990
H300	H	1.333706	0.438562	0.582323
H301	H	0.667035	-0.228117	0.084299
H302	H	1.000369	0.105217	0.417632
H303	H	1.333702	0.438550	0.750965
