data_functionalizedCrystal
_audit_creation_method	'MofGen! by Chris Wilmer'
_symmetry_space_group_name_H-M	'P1'
_symmetry_Int_Tables_number	1
_symmetry_cell_setting	triclinic
loop_
_symmetry_equiv_pos_as_xyz
  x,y,z
_cell_length_a	10.540539
_cell_length_b	16.109301
_cell_length_c	14.586319
_cell_angle_alpha	90.005214
_cell_angle_beta	90.001451
_cell_angle_gamma	83.993486
loop_
_atom_site_label
_atom_site_type_symbol
_atom_site_fract_x
_atom_site_fract_y
_atom_site_fract_z
O1	O	-1.684215	-0.117165	-0.076200
O2	O	-1.314645	-0.128205	-0.076212
O3	O	-1.509583	-0.001716	-0.076197
O4	O	-1.489278	-0.243654	-0.076216
O5	O	-1.509569	-0.001714	0.076284
O6	O	-1.314631	-0.128203	0.076269
O7	O	-1.684202	-0.117163	0.076280
Cu8	Cu	-1.499415	-0.122683	0.090197
Cu9	Cu	-1.499431	-0.122685	-0.090129
O10	O	-1.489264	-0.243652	0.076265
C11	C	-1.508753	0.029265	0.000044
C12	C	-1.506287	0.121575	0.000046
C13	C	-1.267347	-0.127376	0.000027
C14	C	-1.126434	-0.124899	0.000023
C15	C	-1.731500	-0.117992	0.000039
C16	C	-1.872413	-0.120469	0.000037
C17	C	-0.944360	-0.029989	0.000386
C18	C	-1.090943	-0.032500	0.000033
C19	C	-1.064135	-0.169366	-0.087051
C20	C	-0.917636	-0.166213	-0.087115
C21	C	-0.917105	-0.168090	0.086285
C22	C	-1.064075	-0.168941	0.087426
C23	C	-1.490093	-0.274633	0.000022
C24	C	-1.492559	-0.366943	0.000015
N25	N	-1.499413	-0.122681	0.217029
C26	C	-1.616226	0.343175	0.000034
C27	C	-1.613899	0.429910	0.000027
C28	C	-1.382612	0.411450	0.000023
C29	C	-1.384940	0.324717	0.000024
C30	C	-1.501751	0.290582	0.000034
C31	C	-1.497096	0.464050	0.000026
C32	C	-1.494572	0.558091	0.000018
C33	C	-1.504275	0.196535	0.000041
N34	N	-1.499443	-0.122681	-0.216961
C35	C	-1.585760	-0.066691	0.452042
C36	C	-1.585764	-0.066689	0.548024
C37	C	-1.413087	-0.178673	0.548019
C38	C	-1.413079	-0.178671	0.452040
C39	C	-1.499422	-0.122680	0.404054
C40	C	-1.499435	-0.122681	0.596015
C41	C	-1.499438	-0.122679	0.700082
C42	C	-1.499418	-0.122681	0.299980
H43	H	-1.134050	0.002489	0.062452
C44	C	-0.851543	-0.255980	-0.092488
C45	C	-0.932116	-0.330303	-0.096711
C46	C	-0.866030	-0.420067	-0.102100
C47	C	-0.719371	-0.435508	-0.103265
C48	C	-0.638789	-0.361182	-0.099041
C49	C	-0.704875	-0.271418	-0.093653
H50	H	-1.040690	-0.318875	-0.095849
H51	H	-0.925683	-0.475088	-0.105226
H52	H	-0.670451	-0.501957	-0.107254
H53	H	-0.530216	-0.372611	-0.099904
H54	H	-0.645223	-0.216398	-0.090527
H55	H	-0.916290	0.006515	0.062833
C56	C	-0.904263	0.019123	-0.083491
C57	C	-0.806560	-0.022570	-0.152204
C58	C	-0.766461	0.026539	-0.236084
C59	C	-0.824064	0.117340	-0.251249
C60	C	-0.921772	0.159037	-0.182534
C61	C	-0.961872	0.109929	-0.098655
H62	H	-0.763914	-0.089791	-0.140980
H63	H	-0.694131	-0.004329	-0.286951
H64	H	-0.794380	0.153693	-0.313342
H65	H	-0.964419	0.226258	-0.193759
H66	H	-1.034202	0.140796	-0.047787
H67	H	-1.342766	-0.224265	0.412965
C68	C	-1.148035	0.015087	-0.084435
C69	C	-1.060231	0.055490	-0.151781
C70	C	-1.117323	0.103075	-0.236256
C71	C	-1.262218	0.110257	-0.253384
C72	C	-1.350031	0.069853	-0.186036
C73	C	-1.292940	0.022268	-0.101562
H74	H	-0.952963	0.050174	-0.139103
H75	H	-1.052317	0.132985	-0.286111
H76	H	-1.304481	0.145483	-0.315917
H77	H	-1.457299	0.075168	-0.198714
H78	H	-1.357945	-0.007643	-0.051706
C79	C	-1.095487	-0.259952	0.094517
C80	C	-1.235311	-0.279040	0.101315
C81	C	-1.266720	-0.370055	0.108394
C82	C	-1.158304	-0.441983	0.108676
C83	C	-1.018471	-0.422897	0.101877
C84	C	-0.987062	-0.331881	0.094798
H85	H	-1.315575	-0.225793	0.101107
H86	H	-1.370234	-0.384183	0.113427
H87	H	-1.181554	-0.509358	0.113916
H88	H	-0.938207	-0.476143	0.102085
H89	H	-0.883548	-0.317753	0.089765
C90	C	-1.122251	-0.127630	-0.174590
C91	C	-1.266434	-0.125514	-0.192908
C92	C	-1.324545	-0.083767	-0.280443
C93	C	-1.238473	-0.044136	-0.349660
C94	C	-1.094281	-0.046251	-0.331343
C95	C	-1.036170	-0.087997	-0.243809
H96	H	-1.330158	-0.154852	-0.141669
H97	H	-1.431286	-0.082202	-0.294002
H98	H	-1.281490	-0.013233	-0.414458
H99	H	-1.030558	-0.016912	-0.382583
H100	H	-0.929430	-0.089562	-0.230250
H101	H	-0.889900	-0.133349	-0.152198
C102	C	-1.680726	-0.005097	0.399257
C103	C	-1.775690	0.056494	0.452049
C104	C	-1.870656	0.118092	0.399267
C105	C	-1.870657	0.118100	0.293694
C106	C	-1.775690	0.056507	0.240896
C107	C	-1.680724	-0.005092	0.293678
H108	H	-1.775692	0.056491	0.530206
H109	H	-1.940957	0.163688	0.438352
H110	H	-1.940956	0.163698	0.254621
H111	H	-1.775688	0.056510	0.162739
H112	H	-1.610423	-0.050687	0.254593
C113	C	-1.318122	-0.240268	0.600804
C114	C	-1.318194	-0.240324	0.706378
C115	C	-1.223228	-0.301922	0.759160
C116	C	-1.128190	-0.363464	0.706368
C117	C	-1.128115	-0.363410	0.600788
C118	C	-1.223080	-0.301812	0.548007
H119	H	-1.388549	-0.194764	0.745463
H120	H	-1.223285	-0.301961	0.837317
H121	H	-1.057891	-0.409062	0.745440
H122	H	-1.057759	-0.408969	0.561703
H123	H	-1.223024	-0.301773	0.469849
H124	H	-1.085521	-0.237222	-0.090296
H125	H	-1.656067	-0.021096	0.587093
C126	C	-1.120011	-0.125054	0.174454
C127	C	-1.221830	-0.049580	0.166236
C128	C	-1.277776	-0.005692	0.253263
C129	C	-1.231902	-0.037277	0.348508
C130	C	-1.130076	-0.112755	0.356730
C131	C	-1.074131	-0.156644	0.269703
H132	H	-1.255794	-0.026195	0.095727
H133	H	-1.353154	0.050182	0.247176
H134	H	-1.273316	-0.004788	0.412930
H135	H	-1.096113	-0.136140	0.427239
H136	H	-0.998753	-0.212518	0.275790
H137	H	-0.868927	-0.234830	0.086867
H138	H	-0.885979	-0.138187	0.152286
C139	C	-1.744714	0.305626	0.000037
C140	C	-1.870634	0.363481	0.000031
C141	C	-1.999125	0.325935	0.000031
C142	C	-2.001697	0.230533	0.000035
C143	C	-1.875772	0.172672	0.000040
C144	C	-1.747281	0.210218	0.000041
H145	H	-1.868734	0.434109	0.000028
H146	H	-2.092343	0.368768	0.000027
H147	H	-2.096814	0.202739	0.000034
H148	H	-1.877672	0.102044	0.000043
H149	H	-1.654063	0.167385	0.000045
H150	H	-1.707116	0.472728	0.000025
H151	H	-1.287509	0.439253	0.000017
H152	H	-1.291715	0.281893	0.000022
