data_functionalizedCrystal
_audit_creation_method	'MofGen! by Chris Wilmer'
_symmetry_space_group_name_H-M	'P1'
_symmetry_Int_Tables_number	1
_symmetry_cell_setting	triclinic
loop_
_symmetry_equiv_pos_as_xyz
  x,y,z
_cell_length_a	21.395362
_cell_length_b	25.639239
_cell_length_c	21.395355
_cell_angle_alpha	89.980666
_cell_angle_beta	89.956060
_cell_angle_gamma	90.054564
loop_
_atom_site_label
_atom_site_type_symbol
_atom_site_fract_x
_atom_site_fract_y
_atom_site_fract_z
Zn1	Zn	0.957825	-0.207990	-0.354582
Zn2	Zn	1.457825	0.292010	0.145418
Zn3	Zn	0.957713	-0.295409	-0.249803
Zn4	Zn	1.457713	0.204591	0.250197
Zn5	Zn	0.853040	-0.208014	-0.249783
Zn6	Zn	1.353040	0.291986	0.250217
Zn7	Zn	0.852994	-0.295420	-0.354508
Zn8	Zn	1.352994	0.204580	0.145492
O9	O	0.905393	-0.251708	-0.302169
O10	O	1.405393	0.248292	0.197831
O11	O	1.045488	-0.219571	-0.340722
O12	O	1.545488	0.280429	0.159278
O13	O	0.943800	-0.283822	-0.162122
O14	O	1.443800	0.216178	0.337878
O15	O	0.867006	-0.134846	-0.263708
O16	O	1.367006	0.365154	0.236292
O17	O	1.045405	-0.283798	-0.263742
O18	O	1.545405	0.216202	0.236258
O19	O	0.943991	-0.134828	-0.340703
O20	O	1.443991	0.365172	0.159297
O21	O	0.866897	-0.219613	-0.162108
O22	O	1.366897	0.280387	0.337892
O23	O	0.765356	-0.219623	-0.263636
O24	O	1.265356	0.280377	0.236364
O25	O	0.866928	-0.283817	-0.442196
O26	O	1.366928	0.216183	0.057804
O27	O	0.765322	-0.283840	-0.340576
O28	O	1.265322	0.216160	0.159424
O29	O	0.943947	-0.219582	-0.442250
O30	O	1.443947	0.280418	0.057750
O31	O	0.943756	-0.368576	-0.263669
O32	O	1.443756	0.131424	0.236331
O33	O	0.866820	-0.368584	-0.340596
O34	O	1.366820	0.131416	0.159404
C35	C	0.742605	-0.251736	-0.302096
C36	C	1.242605	0.248264	0.197904
C37	C	0.672964	-0.251760	-0.302080
C38	C	1.172964	0.248240	0.197920
C39	C	0.640250	-0.285243	-0.342083
C40	C	1.140250	0.214757	0.157917
C41	C	0.574814	-0.285230	-0.342111
C42	C	1.074814	0.214770	0.157889
C43	C	0.542096	-0.251740	-0.302125
C44	C	1.042096	0.248260	0.197875
C45	C	0.574818	-0.218252	-0.262119
C46	C	1.074818	0.281748	0.237881
C47	C	0.640252	-0.218262	-0.262097
C48	C	1.140252	0.281738	0.237903
C49	C	0.438372	-0.247528	-0.245720
C50	C	0.938372	0.252472	0.254280
C51	C	0.372939	-0.247522	-0.245741
C52	C	0.872939	0.252478	0.254259
C53	C	0.340275	-0.251706	-0.302194
C54	C	0.840275	0.248294	0.197806
C55	C	0.373052	-0.255908	-0.358627
C56	C	0.873052	0.244092	0.141373
C57	C	0.438486	-0.255918	-0.358605
C58	C	0.938486	0.244082	0.141395
C59	C	0.471143	-0.251725	-0.302145
C60	C	0.971143	0.248275	0.197855
C61	C	0.236608	-0.285176	-0.342231
C62	C	0.736608	0.214824	0.157769
C63	C	0.171172	-0.285160	-0.342260
C64	C	0.671172	0.214840	0.157740
C65	C	0.171176	-0.218185	-0.262262
C66	C	0.671176	0.281815	0.237738
C67	C	0.236612	-0.218198	-0.262239
C68	C	0.736612	0.281802	0.237761
C69	C	0.269324	-0.251697	-0.302222
C70	C	0.769324	0.248303	0.197778
C71	C	0.905288	-0.387551	-0.302140
C72	C	1.405288	0.112449	0.197860
C73	C	0.905300	-0.445665	-0.302149
C74	C	1.405300	0.054335	0.197851
C75	C	0.945558	-0.806011	-0.262182
C76	C	1.445558	-0.306011	0.237818
C77	C	0.945582	-0.860616	-0.262190
C78	C	1.445582	-0.360616	0.237810
O79	O	0.979702	-0.888838	-0.228177
O80	O	1.479702	-0.388838	0.271823
N81	N	0.905503	-0.887947	-0.302211
N82	N	1.405503	-0.387947	0.197789
C83	C	0.865401	-0.860672	-0.342230
C84	C	1.365401	-0.360672	0.157770
O85	O	0.831313	-0.888934	-0.376271
O86	O	1.331313	-0.388934	0.123729
C87	C	0.865381	-0.806069	-0.342224
C88	C	1.365381	-0.306069	0.157776
C89	C	0.905458	-0.778740	-0.302196
C90	C	1.405458	-0.278740	0.197804
C91	C	0.985633	-0.778682	-0.222158
C92	C	1.485633	-0.278682	0.277842
C93	C	0.985608	-0.724082	-0.222149
C94	C	1.485608	-0.224082	0.277851
C95	C	0.945508	-0.696810	-0.262164
C96	C	1.445508	-0.196810	0.237836
C97	C	0.905433	-0.724139	-0.302187
C98	C	1.405433	-0.224139	0.197813
C99	C	0.825282	-0.778794	-0.382246
C100	C	1.325282	-0.278794	0.117754
C101	C	0.825266	-0.724187	-0.382237
C102	C	1.325266	-0.224187	0.117763
C103	C	0.865343	-0.696858	-0.342209
C104	C	1.365343	-0.196858	0.157791
C105	C	0.865308	-0.642267	-0.342193
C106	C	1.365308	-0.142267	0.157807
N107	N	0.905387	-0.614935	-0.302173
N108	N	1.405387	-0.114935	0.197827
C109	C	0.945487	-0.642207	-0.262158
C110	C	1.445487	-0.142207	0.237842
C111	C	0.865448	-0.975343	-0.342239
C112	C	1.365448	-0.475343	0.157761
C113	C	0.865465	-1.029945	-0.342242
C114	C	1.365465	-0.529945	0.157758
C115	C	0.945648	-1.029885	-0.262204
C116	C	1.445648	-0.529885	0.237796
C117	C	0.945627	-0.975281	-0.262198
C118	C	1.445627	-0.475281	0.237802
C119	C	0.905528	-0.948011	-0.302219
C120	C	1.405528	-0.448011	0.197781
C121	C	0.945430	-0.527542	-0.262142
C122	C	1.445430	-0.027542	0.237858
C123	C	0.945400	-0.472937	-0.262134
C124	C	1.445400	0.027063	0.237866
C125	C	0.865220	-0.473002	-0.342175
C126	C	1.365220	0.026998	0.157825
C127	C	0.865248	-0.527602	-0.342180
C128	C	1.365248	-0.027602	0.157820
C129	C	0.905358	-0.554871	-0.302162
C130	C	1.405358	-0.054871	0.197838
O131	O	0.831207	-0.614010	-0.376190
O132	O	1.331207	-0.114010	0.123810
O133	O	0.979575	-0.613939	-0.228128
O134	O	1.479575	-0.113939	0.271872
C135	C	1.068816	-0.251681	-0.302242
C136	C	1.568816	0.248319	0.197758
C137	C	1.138458	-0.251669	-0.302274
C138	C	1.638458	0.248331	0.197726
C139	C	0.905445	-0.251698	-0.465592
C140	C	1.405445	0.248302	0.034408
C141	C	0.905467	-0.251693	-0.535234
C142	C	1.405467	0.248307	-0.035234
C143	C	0.905516	-0.115335	-0.302212
C144	C	1.405516	0.384665	0.197788
C145	C	0.905568	-0.057221	-0.302230
C146	C	1.405568	0.442779	0.197770
C147	C	0.945569	-0.218245	-0.567976
C148	C	1.445569	0.281755	-0.067976
C149	C	0.945568	-0.218222	-0.633412
C150	C	1.445568	0.281778	-0.133412
C151	C	0.905472	-0.251658	-0.666102
C152	C	1.405472	0.248342	-0.166102
C153	C	0.865362	-0.285108	-0.633352
C154	C	1.365362	0.214892	-0.133352
C155	C	0.865360	-0.285126	-0.567917
C156	C	1.365360	0.214874	-0.067917
C157	C	0.900488	-0.298736	-0.769765
C158	C	1.400488	0.201264	-0.269765
C159	C	0.900495	-0.298719	-0.835198
C160	C	1.400495	0.201281	-0.335198
C161	C	0.905476	-0.251602	-0.867923
C162	C	1.405476	0.248398	-0.367923
C163	C	0.910463	-0.204501	-0.835207
C164	C	1.410463	0.295499	-0.335207
C165	C	0.910461	-0.204519	-0.769773
C166	C	1.410461	0.295481	-0.269773
C167	C	0.905470	-0.251642	-0.737054
C168	C	1.405470	0.248358	-0.237054
C169	C	0.945579	-0.218127	-0.971618
C170	C	1.445579	0.281873	-0.471618
C171	C	0.945574	-0.218103	-1.037055
C172	C	1.445574	0.281897	-0.537055
C173	C	0.865371	-0.284994	-1.036993
C174	C	1.365371	0.215006	-0.536993
C175	C	0.865373	-0.285013	-0.971558
C176	C	1.365373	0.214987	-0.471558
C177	C	0.905480	-0.251580	-0.938874
C178	C	1.405480	0.248420	-0.438874
C179	C	0.905377	-0.251681	-0.139381
C180	C	1.405377	0.248319	0.360619
C181	C	0.905476	-0.251538	-0.069741
C182	C	1.405476	0.248462	0.430259
H183	H	0.346256	-0.244104	-0.199789
H184	H	0.846256	0.255896	0.300211
H185	H	0.914520	-0.166167	-0.743138
H186	H	1.414520	0.333833	-0.243138
H187	H	0.896438	-0.337072	-0.861831
H188	H	1.396438	0.162928	-0.361831
Cl189	Cl	0.995995	-0.176095	-0.930527
Cl190	Cl	1.495995	0.323905	-0.430527
H191	H	0.978262	-0.953033	-0.229605
H192	H	1.478262	-0.453033	0.270395
H193	H	0.666887	-0.190995	-0.229521
H194	H	1.166887	0.309005	0.270479
Cl195	Cl	0.814852	-0.561959	-0.392488
Cl196	Cl	1.314852	-0.061959	0.107512
Cl197	Cl	0.815028	-0.941065	-0.392551
Cl198	Cl	1.315028	-0.441065	0.107449
H199	H	0.666880	-0.312519	-0.374642
H200	H	1.166880	0.187481	0.125358
Cl201	Cl	0.916728	-0.145264	-0.876339
Cl202	Cl	1.416728	0.354736	-0.376339
H203	H	0.465171	-0.259338	-0.404555
H204	H	0.965171	0.240662	0.095445
Cl205	Cl	0.533686	-0.176148	-0.211854
Cl206	Cl	1.033686	0.323852	0.288146
H207	H	0.144537	-0.312424	-0.374839
H208	H	0.644537	0.187576	0.125161
Cl209	Cl	0.533679	-0.327325	-0.392404
Cl210	Cl	1.033679	0.172675	0.107596
H211	H	0.978036	-0.450687	-0.229537
H212	H	1.478036	0.049313	0.270463
Cl213	Cl	0.814815	-0.438707	-0.392480
Cl214	Cl	1.314815	0.061293	0.107520
H215	H	0.978093	-0.549738	-0.229556
H216	H	1.478093	-0.049738	0.270444
Cl217	Cl	1.036003	-0.689734	-0.171836
Cl218	Cl	1.536003	-0.189734	0.328164
Cl219	Cl	0.331997	-0.261165	-0.429603
Cl220	Cl	0.831997	0.238835	0.070397
H221	H	1.018290	-0.800881	-0.189573
H222	H	1.518290	-0.300881	0.310427
H223	H	0.263244	-0.312450	-0.374791
H224	H	0.763244	0.187550	0.125209
Cl225	Cl	0.996059	-1.064179	-0.211898
Cl226	Cl	1.496059	-0.564179	0.288102
H227	H	0.464961	-0.244119	-0.199746
H228	H	0.964961	0.255881	0.300254
H229	H	0.832714	-0.312330	-0.659972
H230	H	1.332714	0.187670	-0.159972
Cl231	Cl	0.995973	-0.176159	-0.674582
Cl232	Cl	1.495973	0.323841	-0.174582
H233	H	0.896265	-0.337094	-0.743126
H234	H	1.396265	0.162906	-0.243126
H235	H	0.978228	-0.190863	-1.063713
H236	H	1.478228	0.309137	-0.563713
Cl237	Cl	0.130050	-0.176080	-0.211997
Cl238	Cl	0.630050	0.323920	0.288003
Cl239	Cl	0.995986	-0.176212	-0.526891
Cl240	Cl	1.495986	0.323788	-0.026891
Cl241	Cl	0.277740	-0.176105	-0.211944
Cl242	Cl	0.777740	0.323895	0.288056
H243	H	0.832824	-1.052192	-0.374831
H244	H	1.332824	-0.552192	0.125169
H245	H	0.832722	-0.312253	-0.944899
H246	H	1.332722	0.187747	-0.444899
Cl247	Cl	0.814958	-0.327023	-1.078084
Cl248	Cl	1.314958	0.172977	-0.578084
Cl249	Cl	0.774903	-0.813137	-0.432577
Cl250	Cl	1.274903	-0.313137	0.067423
H251	H	0.832701	-0.312363	-0.541259
H252	H	1.332701	0.187637	-0.041259
H253	H	0.792613	-0.701986	-0.414829
H254	H	1.292613	-0.201986	0.085171
