data_functionalizedCrystal
_audit_creation_method	'MofGen! by Chris Wilmer'
_symmetry_space_group_name_H-M	'P1'
_symmetry_Int_Tables_number	1
_symmetry_cell_setting	triclinic
loop_
_symmetry_equiv_pos_as_xyz
  x,y,z
_cell_length_a	19.188930
_cell_length_b	19.188930
_cell_length_c	13.330367
_cell_angle_alpha	89.990231
_cell_angle_beta	89.978569
_cell_angle_gamma	83.144779
loop_
_atom_site_label
_atom_site_type_symbol
_atom_site_fract_x
_atom_site_fract_y
_atom_site_fract_z
O1	O	0.926148	0.087167	-0.083757
O2	O	0.722837	0.098901	-0.083690
O3	O	0.830359	-0.008621	-0.083706
O4	O	0.818625	0.194690	-0.083741
O5	O	0.830344	-0.008624	0.083141
O6	O	0.722821	0.098899	0.083157
O7	O	0.926132	0.087165	0.083090
Cu8	Cu	0.824475	0.093032	0.098358
Cu9	Cu	0.824494	0.093034	-0.098958
O10	O	0.818610	0.194688	0.083106
C11	C	0.696818	0.098520	-0.000257
C12	C	0.619313	0.097380	-0.000231
C13	C	0.574389	0.160470	-0.000258
C14	C	0.501566	0.159399	-0.000268
C15	C	0.473669	0.095233	-0.000273
C16	C	0.518603	0.032133	-0.000240
C17	C	0.591425	0.033207	-0.000219
N18	N	0.365694	0.046186	-0.057090
N19	N	0.296516	0.045171	-0.057112
C20	C	0.254260	0.091994	-0.000334
N21	N	0.283796	0.139882	0.056455
N22	N	0.352981	0.140900	0.056473
C23	C	0.394707	0.094062	-0.000295
C24	C	0.130372	0.153928	-0.000371
C25	C	0.057547	0.152853	-0.000375
C26	C	0.074586	0.025586	-0.000357
C27	C	0.147409	0.026662	-0.000342
C28	C	0.175298	0.090835	-0.000354
C29	C	0.829972	-0.034634	-0.000279
C30	C	0.828831	-0.112138	-0.000270
C31	C	0.891922	-0.157062	-0.000286
C32	C	0.890850	-0.229886	-0.000302
C33	C	0.826684	-0.257782	-0.000282
C34	C	0.763585	-0.212849	-0.000271
C35	C	0.764658	-0.140026	-0.000266
N36	N	0.777631	-0.365788	0.056516
N37	N	0.776616	-0.434967	0.056513
C38	C	0.823446	-0.477191	-0.000301
N39	N	0.871340	-0.447625	-0.057098
N40	N	0.872358	-0.378440	-0.057091
C41	C	0.825513	-0.336745	-0.000288
C42	C	0.885379	-0.601079	-0.000335
C43	C	0.884305	-0.673904	-0.000357
C44	C	0.757038	-0.656865	-0.000316
C45	C	0.758114	-0.584042	-0.000304
C46	C	0.822286	-0.556154	-0.000309
C47	C	0.952151	0.087546	-0.000345
C48	C	1.029656	0.088687	-0.000378
C49	C	0.818997	0.220700	-0.000323
C50	C	0.820138	0.298204	-0.000338
N51	N	0.824468	0.093029	0.237140
N52	N	0.824507	0.093031	-0.237740
C53	C	0.776881	0.140627	0.709770
C54	C	0.872126	0.045436	0.709723
C55	C	0.872118	0.045434	0.604705
C56	C	0.824491	0.093030	0.552214
C57	C	0.776873	0.140628	0.604741
C58	C	0.919740	-0.002158	0.552170
C59	C	0.919735	-0.002161	0.447145
C60	C	0.872104	0.045432	0.394652
C61	C	0.824483	0.093031	0.447186
C62	C	0.776857	0.140626	0.394695
C63	C	0.729232	0.188223	0.447227
C64	C	0.729242	0.188221	0.552249
C65	C	0.872094	0.045434	0.289631
C66	C	0.776849	0.140627	0.289667
H67	H	0.464982	0.210776	-0.000287
H68	H	0.628003	-0.018171	-0.000198
Cl69	Cl	0.932001	-0.014391	0.775709
Cl70	Cl	0.966051	-0.566016	-0.000336
H71	H	0.935683	-0.710481	-0.000376
H72	H	0.958513	-0.040917	0.404380
H73	H	0.020970	0.204232	-0.000391
H74	H	0.495885	-0.020111	-0.000258
H75	H	0.597091	0.212725	-0.000269
H76	H	0.944176	-0.134360	-0.000294
Cl77	Cl	0.676371	-0.691928	-0.000296
H78	H	0.051874	-0.026659	-0.000423
Cl79	Cl	0.970170	-0.286372	-0.000323
Cl80	Cl	0.678795	-0.527563	-0.000280
H81	H	0.910873	0.006685	0.246864
H82	H	0.738103	0.179377	0.752544
Cl83	Cl	0.716968	0.200462	0.223687
H84	H	0.690457	0.226978	0.404477
Cl85	Cl	0.165435	0.234600	-0.000375
Cl86	Cl	0.669378	0.248053	0.618291
H87	H	0.183988	-0.024713	-0.000326
Cl88	Cl	0.682919	-0.247918	-0.000253
Cl89	Cl	0.979616	-0.061985	0.618155
H90	H	0.713281	-0.103449	-0.000252
