data_functionalizedCrystal
_audit_creation_method	'MofGen! by Chris Wilmer'
_symmetry_space_group_name_H-M	'P1'
_symmetry_Int_Tables_number	1
_symmetry_cell_setting	triclinic
loop_
_symmetry_equiv_pos_as_xyz
  x,y,z
_cell_length_a	8.559649
_cell_length_b	10.723024
_cell_length_c	7.088929
_cell_angle_alpha	83.718137
_cell_angle_beta	95.325015
_cell_angle_gamma	77.123267
loop_
_atom_site_label
_atom_site_type_symbol
_atom_site_fract_x
_atom_site_fract_y
_atom_site_fract_z
O1	O	2.103422	-0.027906	-0.158957
O2	O	1.638923	0.036470	-0.158966
O3	O	1.881888	-0.178393	-0.158954
O4	O	1.860458	0.186957	-0.158969
O5	O	1.914357	-0.207166	0.159022
O6	O	1.671392	0.007698	0.159011
O7	O	2.135892	-0.056678	0.159020
Cu8	Cu	1.906607	-0.027117	0.188049
Cu9	Cu	1.868208	0.006909	-0.187995
O10	O	1.892927	0.158185	0.159008
C11	C	1.595681	0.026962	0.000021
C12	C	1.418460	0.041484	0.000018
C13	C	1.896563	-0.239119	0.000032
C14	C	1.891897	-0.377194	0.000025
C15	C	2.027846	-0.466115	0.000025
C16	C	2.023026	-0.608824	0.000018
C17	C	2.179133	-0.047170	0.000028
C18	C	2.356353	-0.061691	0.000019
C19	C	1.878252	0.218911	0.000017
C20	C	1.882917	0.356987	0.000012
N21	N	1.933626	-0.051052	0.452538
N22	N	1.841202	0.030832	-0.452485
H23	H	2.147807	-0.436593	0.000039
H24	H	2.139411	-0.685189	0.000026
C25	C	1.743913	0.261168	0.485530
C26	C	1.711884	0.145386	0.437300
H27	H	1.664081	0.331889	0.417468
H28	H	1.742068	0.262798	0.619009
H29	H	1.847307	0.267346	0.452790
H30	H	1.608494	0.139203	0.470053
H31	H	1.713713	0.143755	0.303791
C32	C	1.319891	0.257144	-0.163461
C33	C	1.307213	0.175742	0.000002
H34	H	1.251204	0.340024	-0.163474
H35	H	1.428378	0.264663	-0.163439
H36	H	1.288663	0.221957	-0.274332
H37	H	1.338453	0.210925	0.110874
H38	H	1.198703	0.168227	-0.000003
C39	C	1.627510	-0.184828	0.000039
C40	C	1.467591	-0.195942	0.000031
H41	H	1.696189	-0.267713	0.000057
H42	H	1.636084	-0.129600	-0.110843
H43	H	1.658720	-0.149653	0.110929
H44	H	1.436377	-0.231109	-0.110868
H45	H	1.459011	-0.251191	0.110923
C46	C	1.702865	-0.448809	-0.163454
C47	C	1.725783	-0.539940	0.000005
H48	H	1.605852	-0.385177	-0.163461
H49	H	1.791381	-0.408865	-0.163430
H50	H	1.695794	-0.490585	-0.274328
H51	H	1.732866	-0.498166	0.110880
H52	H	1.637244	-0.579889	-0.000002
C53	C	2.030920	-0.281392	0.514521
C54	C	2.062951	-0.165613	0.562759
H55	H	2.110764	-0.352114	0.582561
H56	H	1.927545	-0.287577	0.547265
H57	H	2.032756	-0.283013	0.381022
H58	H	2.061103	-0.163988	0.696257
H59	H	2.166353	-0.159427	0.530028
H60	H	1.771936	-0.406717	0.000010
