data_functionalizedCrystal
_audit_creation_method	'MofGen! by Chris Wilmer'
_symmetry_space_group_name_H-M	'P1'
_symmetry_Int_Tables_number	1
_symmetry_cell_setting	triclinic
loop_
_symmetry_equiv_pos_as_xyz
  x,y,z
_cell_length_a	12.837943
_cell_length_b	11.295483
_cell_length_c	12.837942
_cell_angle_alpha	94.531847
_cell_angle_beta	94.828940
_cell_angle_gamma	85.455301
loop_
_atom_site_label
_atom_site_type_symbol
_atom_site_fract_x
_atom_site_fract_y
_atom_site_fract_z
O1	O	1.395962	0.099003	0.278480
O2	O	1.092828	0.099011	0.265037
O3	O	1.237674	0.099000	0.120192
O4	O	1.251116	0.099014	0.423326
O5	O	1.250410	-0.099052	0.107503
O6	O	1.105564	-0.099041	0.252348
O7	O	1.408698	-0.099048	0.265791
Cu8	Cu	1.258294	-0.117128	0.257911
Cu9	Cu	1.243232	0.117091	0.272918
O10	O	1.263852	-0.099038	0.410637
C11	C	1.060127	-0.000014	0.254152
C12	C	0.943712	-0.000012	0.240607
C13	C	1.239500	-0.000025	0.074778
C14	C	1.225956	-0.000023	-0.041637
C15	C	0.718838	-0.000021	0.403436
C16	C	0.609456	-0.000020	0.390715
C17	C	0.615563	-0.000016	0.202444
C18	C	0.724945	-0.000017	0.215165
C19	C	0.776579	-0.000018	0.315665
C20	C	0.885963	-0.000011	0.328385
C21	C	0.892068	-0.000016	0.140115
C22	C	0.782686	-0.000015	0.127394
C23	C	1.441399	-0.000021	0.276677
C24	C	1.557814	-0.000015	0.290222
N25	N	1.232639	0.281828	0.283465
N26	N	1.268894	-0.281865	0.247357
C27	C	1.345208	0.531109	0.171437
C28	C	1.337195	0.655773	0.179400
C29	C	1.208605	0.655823	0.307358
C30	C	1.216619	0.531159	0.299395
C31	C	1.284921	0.468806	0.231431
C32	C	1.292928	0.344139	0.223464
C33	C	1.164345	0.344191	0.351427
C34	C	1.156332	0.468856	0.359389
C35	C	1.388784	-0.000002	-0.266510
C36	C	1.376062	0.000000	-0.375892
C37	C	1.187792	-0.000008	-0.369785
C38	C	1.200513	-0.000010	-0.260403
C39	C	1.301013	-0.000009	-0.208769
C40	C	1.313734	-0.000020	-0.099385
C41	C	1.125463	-0.000019	-0.093280
C42	C	1.112742	-0.000017	-0.202662
C43	C	1.262025	-0.000010	0.456051
C44	C	1.275570	-0.000004	0.572466
H45	H	0.928001	-0.000014	0.410217
H46	H	0.760879	-0.000020	0.485267
H47	H	1.447535	0.000010	-0.422900
H48	H	1.348540	0.293373	0.168121
Br49	Br	0.712603	-0.000020	-0.008992
H50	H	1.100724	0.519637	0.414727
H51	H	1.386287	0.706497	0.130548
Br52	Br	0.970435	0.000013	0.020990
Br53	Br	1.437886	0.446485	0.079188
H54	H	1.470615	-0.000013	-0.224469
H55	H	1.153003	0.706606	0.362700
H56	H	1.115252	0.293450	0.400275
H57	H	1.395566	-0.000023	-0.057347
H58	H	1.105969	0.000004	-0.411844
H59	H	0.562447	-0.000025	0.462188
Br60	Br	0.545471	-0.000036	0.066061
Br61	Br	0.976356	-0.000003	-0.272745
H62	H	1.053994	-0.000034	-0.046257
