data_functionalizedCrystal
_audit_creation_method	'MofGen! by Chris Wilmer'
_symmetry_space_group_name_H-M	'P1'
_symmetry_Int_Tables_number	1
_symmetry_cell_setting	triclinic
loop_
_symmetry_equiv_pos_as_xyz
  x,y,z
_cell_length_a	11.792254
_cell_length_b	23.532357
_cell_length_c	10.268362
_cell_angle_alpha	89.989189
_cell_angle_beta	89.995475
_cell_angle_gamma	83.513444
loop_
_atom_site_label
_atom_site_type_symbol
_atom_site_fract_x
_atom_site_fract_y
_atom_site_fract_z
O1	O	1.505034	0.078091	-0.108316
O2	O	1.174503	0.086128	-0.108321
O3	O	1.349765	-0.000765	-0.108292
O4	O	1.329772	0.164984	-0.108346
O5	O	1.349750	-0.000768	0.108309
O6	O	1.174488	0.086124	0.108280
O7	O	1.505019	0.078087	0.108284
Cu8	Cu	1.339752	0.082106	0.128059
Cu9	Cu	1.339770	0.082110	-0.128096
O10	O	1.329757	0.164980	0.108255
C11	C	1.132217	0.085620	-0.000021
C12	C	1.006240	0.084105	-0.000021
C13	C	0.903933	0.082873	-0.000027
C14	C	0.775583	0.081334	-0.000027
C15	C	1.349258	-0.021986	0.000013
C16	C	1.347754	-0.085214	0.000025
C17	C	1.338323	-0.477279	-0.118115
C18	C	1.336894	-0.536687	-0.118122
O19	O	1.336123	-0.567406	-0.218535
N20	N	1.336177	-0.566404	-0.000055
C21	C	1.336878	-0.536710	0.118028
O22	O	1.336135	-0.567442	0.218453
C23	C	1.338299	-0.477303	0.118034
C24	C	1.339027	-0.447589	-0.000041
C25	C	1.339050	-0.447565	-0.236180
C26	C	1.340482	-0.388162	-0.236172
C27	C	1.341186	-0.358472	-0.118099
C28	C	1.340459	-0.388185	-0.000033
C29	C	1.338991	-0.447609	0.236115
C30	C	1.340412	-0.388197	0.236111
C31	C	1.341140	-0.358484	0.118036
C32	C	1.342594	-0.299092	0.118048
N33	N	1.343311	-0.269374	-0.000019
C34	C	1.342607	-0.299064	-0.118093
C35	C	1.333891	-0.661469	0.118006
C36	C	1.332478	-0.720876	0.118001
C37	C	1.332492	-0.720849	-0.118149
C38	C	1.333914	-0.661442	-0.118143
C39	C	1.334608	-0.631752	-0.000061
C40	C	1.345614	-0.174312	-0.118067
C41	C	1.347050	-0.114904	-0.118049
C42	C	1.347030	-0.114936	0.118101
C43	C	1.345600	-0.174339	0.118083
C44	C	1.344888	-0.204026	-0.000011
O45	O	1.343361	-0.268334	0.218410
O46	O	1.343334	-0.268324	-0.218501
C47	C	1.547305	0.078596	-0.000019
C48	C	1.673282	0.080111	-0.000027
C49	C	1.330264	0.186202	-0.000052
C50	C	1.331768	0.249429	-0.000073
N51	N	1.339748	0.082102	0.308225
N52	N	1.339783	0.082109	-0.308262
C53	C	1.339764	0.082109	0.573896
C54	C	1.339751	0.082107	0.426058
H55	H	1.347646	-0.090714	-0.214204
H56	H	1.340960	-0.364026	0.332270
H57	H	1.331915	-0.745033	-0.214291
C58	C	1.347548	-0.082643	0.246244
C59	C	1.250691	-0.042442	0.253115
C60	C	1.251110	-0.012684	0.371145
H61	H	1.414215	-0.063554	0.251283
H62	H	1.346846	-0.108818	0.316615
H63	H	1.251404	-0.016270	0.182763
H64	H	1.184009	-0.061515	0.248098
H65	H	1.250408	-0.038859	0.441516
H66	H	1.317781	0.006401	0.376173
H67	H	1.185389	0.014592	0.375828
H68	H	1.338473	-0.471732	-0.332335
H69	H	1.345029	-0.198476	-0.214231
C70	C	1.340946	-0.355846	-0.364319
C71	C	1.244061	-0.315660	-0.371126
C72	C	1.244391	-0.285891	-0.489174
H73	H	1.340219	-0.381999	-0.434686
H74	H	1.407617	-0.336749	-0.369398
H75	H	1.177407	-0.334757	-0.366060
H76	H	1.244767	-0.289496	-0.300786
H77	H	1.311062	-0.266794	-0.494253
H78	H	1.243667	-0.312048	-0.559532
H79	H	1.178662	-0.258618	-0.493803
C80	C	1.344762	-0.206498	0.246413
C81	C	1.345663	-0.167777	0.349817
C82	C	1.344865	-0.197374	0.468054
H83	H	1.410372	-0.233819	0.251510
H84	H	1.277981	-0.225514	0.251387
H85	H	1.412437	-0.148771	0.344845
H86	H	1.280058	-0.140455	0.344763
H87	H	1.278084	-0.216389	0.473028
H88	H	1.410476	-0.224694	0.473137
H89	H	1.345466	-0.171106	0.538227
H90	H	1.334505	-0.637253	-0.214290
C91	C	1.338195	-0.479961	0.364180
C92	C	1.336799	-0.538345	0.338934
C93	C	1.336054	-0.568164	0.456882
H94	H	1.272229	-0.466142	0.412735
H95	H	1.404621	-0.474411	0.412752
H96	H	1.270380	-0.543892	0.290381
H97	H	1.402760	-0.552181	0.290397
H98	H	1.402480	-0.562613	0.505455
H99	H	1.270087	-0.554340	0.505429
H100	H	1.335118	-0.607781	0.439769
C101	C	1.331461	-0.753084	0.246244
C102	C	1.234133	-0.732532	0.317449
C103	C	1.233139	-0.762188	0.435591
H104	H	1.397803	-0.747511	0.294916
H105	H	1.330445	-0.792721	0.229407
H106	H	1.235159	-0.692905	0.334290
H107	H	1.167774	-0.738106	0.268817
H108	H	1.232123	-0.801825	0.418754
H109	H	1.299486	-0.756613	0.484251
H110	H	1.167099	-0.748251	0.483913
H111	H	1.334460	-0.637300	0.214168
