data_functionalizedCrystal
_audit_creation_method	'MofGen! by Chris Wilmer'
_symmetry_space_group_name_H-M	'P1'
_symmetry_Int_Tables_number	1
_symmetry_cell_setting	triclinic
loop_
_symmetry_equiv_pos_as_xyz
  x,y,z
_cell_length_a	16.625547
_cell_length_b	25.639240
_cell_length_c	16.625539
_cell_angle_alpha	89.975626
_cell_angle_beta	89.978691
_cell_angle_gamma	90.031996
loop_
_atom_site_label
_atom_site_type_symbol
_atom_site_fract_x
_atom_site_fract_y
_atom_site_fract_z
Zn1	Zn	1.232599	-0.208160	-0.456012
Zn2	Zn	1.732599	0.291840	0.043988
Zn3	Zn	1.232488	-0.295595	-0.321184
Zn4	Zn	1.732488	0.204405	0.178816
Zn5	Zn	1.097769	-0.208176	-0.321183
Zn6	Zn	1.597769	0.291824	0.178817
Zn7	Zn	1.097708	-0.295566	-0.455964
Zn8	Zn	1.597708	0.204434	0.044036
O9	O	1.165141	-0.251874	-0.388586
O10	O	1.665141	0.248126	0.111414
O11	O	1.345416	-0.219764	-0.438148
O12	O	1.845416	0.280236	0.061852
O13	O	1.214596	-0.284017	-0.208352
O14	O	1.714596	0.215983	0.291648
O15	O	1.115726	-0.135008	-0.339088
O16	O	1.615726	0.364992	0.160912
O17	O	1.345335	-0.284003	-0.339090
O18	O	1.845335	0.215997	0.160910
O19	O	1.214785	-0.134997	-0.438146
O20	O	1.714785	0.365003	0.061854
O21	O	1.115618	-0.219791	-0.208351
O22	O	1.615618	0.280209	0.291649
O23	O	0.984928	-0.219763	-0.339041
O24	O	1.484928	0.280237	0.160959
O25	O	1.115623	-0.283953	-0.568803
O26	O	1.615623	0.216047	-0.068803
O27	O	0.984884	-0.283968	-0.438065
O28	O	1.484884	0.216032	0.061935
O29	O	1.214727	-0.219736	-0.568838
O30	O	1.714727	0.280264	-0.068838
O31	O	1.214537	-0.368757	-0.339044
O32	O	1.714537	0.131243	0.160956
O33	O	1.115515	-0.368735	-0.438066
O34	O	1.615515	0.131265	0.061934
C35	C	0.955650	-0.251864	-0.388548
C36	C	1.455650	0.248136	0.111452
C37	C	0.866029	-0.251873	-0.388551
C38	C	1.366029	0.248127	0.111449
C39	C	0.793247	-0.251874	-0.388561
C40	C	1.293247	0.248126	0.111439
C41	C	0.701938	-0.251876	-0.388581
C42	C	1.201938	0.248124	0.111419
C43	C	0.629162	-0.251881	-0.388601
C44	C	1.129162	0.248119	0.111399
C45	C	0.537847	-0.251885	-0.388621
C46	C	1.037847	0.248115	0.111379
C47	C	1.165030	-0.387717	-0.388567
C48	C	1.665030	0.112283	0.111433
C49	C	1.165056	-0.445831	-0.388586
C50	C	1.665056	0.054169	0.111414
C51	C	1.216716	-0.696967	-0.440219
C52	C	1.716716	-0.196967	0.059781
C53	C	1.216692	-0.642363	-0.440212
C54	C	1.716692	-0.142363	0.059788
O55	O	1.260523	-0.614078	-0.484085
O56	O	1.760523	-0.114078	0.015915
N57	N	1.165144	-0.615105	-0.388597
N58	N	1.665144	-0.115105	0.111403
C59	C	1.113622	-0.642454	-0.336978
C60	C	1.613622	-0.142454	0.163022
O61	O	1.069775	-0.614255	-0.293073
O62	O	1.569775	-0.114255	0.206927
C63	C	1.113651	-0.697057	-0.336980
C64	C	1.613651	-0.197057	0.163020
C65	C	1.165197	-0.724313	-0.388605
C66	C	1.665197	-0.224313	0.111395
C67	C	1.268259	-0.724223	-0.491839
C68	C	1.768259	-0.224223	0.008161
C69	C	1.268282	-0.778823	-0.491846
C70	C	1.768282	-0.278823	0.008154
C71	C	1.216762	-0.806168	-0.440232
C72	C	1.716762	-0.306168	0.059768
C73	C	1.165220	-0.778913	-0.388612
C74	C	1.665220	-0.278913	0.111388
C75	C	1.062134	-0.724405	-0.285358
C76	C	1.562134	-0.224405	0.214642
C77	C	1.062168	-0.779012	-0.285365
C78	C	1.562168	-0.279012	0.214635
C79	C	1.113714	-0.806268	-0.336990
C80	C	1.613714	-0.306268	0.163010
C81	C	1.113724	-0.860859	-0.337006
C82	C	1.613724	-0.360859	0.162994
N83	N	1.165272	-0.888117	-0.388622
N84	N	1.665272	-0.388117	0.111378
C85	C	1.216791	-0.860772	-0.440235
C86	C	1.716791	-0.360772	0.059765
C87	C	1.113567	-0.527783	-0.336975
C88	C	1.613567	-0.027783	0.163025
C89	C	1.113533	-0.473181	-0.336976
C90	C	1.613533	0.026819	0.163024
C91	C	1.216604	-0.473094	-0.440210
C92	C	1.716604	0.026906	0.059790
C93	C	1.216633	-0.527697	-0.440212
C94	C	1.716633	-0.027697	0.059788
C95	C	1.165115	-0.555041	-0.388591
C96	C	1.665115	-0.055041	0.111409
C97	C	1.216835	-0.975437	-0.440246
C98	C	1.716835	-0.475437	0.059754
C99	C	1.216851	-1.030042	-0.440251
C100	C	1.716851	-0.530042	0.059749
C101	C	1.113783	-1.030125	-0.337014
C102	C	1.613783	-0.530125	0.162986
C103	C	1.113764	-0.975524	-0.337012
C104	C	1.613764	-0.475524	0.162988
C105	C	1.165296	-0.948181	-0.388631
C106	C	1.665296	-0.448181	0.111369
O107	O	1.069917	-0.889179	-0.293154
O108	O	1.569917	-0.389179	0.206846
O109	O	1.260639	-0.888977	-0.484125
O110	O	1.760639	-0.388977	0.015875
C111	C	1.375450	-0.251885	-0.388625
C112	C	1.875450	0.248115	0.111375
C113	C	1.465071	-0.251889	-0.388641
C114	C	1.965071	0.248111	0.111359
C115	C	1.165181	-0.251840	-0.598895
C116	C	1.665181	0.248160	-0.098895
C117	C	1.165197	-0.251825	-0.688516
C118	C	1.665197	0.248175	-0.188516
C119	C	1.165275	-0.115501	-0.388622
C120	C	1.665275	0.384499	0.111378
C121	C	1.165332	-0.057387	-0.388638
C122	C	1.665332	0.442613	0.111362
C123	C	1.165211	-0.251814	-0.761299
C124	C	1.665211	0.248186	-0.261299
C125	C	1.165229	-0.251794	-0.852607
C126	C	1.665229	0.248206	-0.352607
C127	C	1.165248	-0.251776	-0.925384
C128	C	1.665248	0.248224	-0.425384
C129	C	1.165268	-0.251757	-1.016698
C130	C	1.665268	0.248243	-0.516698
C131	C	1.165148	-0.251871	-0.179095
C132	C	1.665148	0.248129	0.320905
C133	C	1.165287	-0.251738	-0.089475
C134	C	1.665287	0.248262	0.410525
H135	H	1.258798	-0.953181	-0.482278
H136	H	1.758798	-0.453181	0.017722
O137	O	1.057986	-0.557270	-0.281298
O138	O	1.557986	-0.057270	0.218702
H139	H	1.094108	-0.582134	-0.240301
H140	H	1.594108	-0.082134	0.259699
O141	O	1.323881	-0.808217	-0.547523
O142	O	1.823881	-0.308217	-0.047523
H143	H	1.387165	-0.797704	-0.533747
H144	H	1.887165	-0.297704	-0.033747
H145	H	1.020162	-0.702222	-0.243320
H146	H	1.520162	-0.202222	0.256680
O147	O	1.006597	-0.808506	-0.229690
O148	O	1.506597	-0.308506	0.270310
H149	H	0.970749	-0.780377	-0.193801
H150	H	1.470749	-0.280377	0.306199
H151	H	1.258555	-0.450819	-0.482235
H152	H	1.758555	0.049181	0.017765
O153	O	1.058169	-0.946122	-0.281335
O154	O	1.558169	-0.446122	0.218665
H155	H	1.022351	-0.974312	-0.245445
H156	H	1.522351	-0.474312	0.254555
O157	O	1.057927	-0.443790	-0.281300
O158	O	1.557927	0.056210	0.218700
H159	H	1.066555	-0.401226	-0.289965
H160	H	1.566555	0.098774	0.210035
O161	O	1.058233	-1.059628	-0.281338
O162	O	1.558233	-0.559628	0.218662
H163	H	1.017204	-1.084525	-0.317379
H164	H	1.517204	-0.584525	0.182621
O165	O	1.272447	-1.059441	-0.495935
O166	O	1.772447	-0.559441	0.004065
H167	H	1.335734	-1.048935	-0.482163
H168	H	1.835734	-0.548935	0.017837
O169	O	1.323843	-0.694737	-0.547505
O170	O	1.823843	-0.194737	-0.047505
H171	H	1.309979	-0.705208	-0.610773
H172	H	1.809979	-0.205208	-0.110773
O173	O	1.272233	-0.557094	-0.495886
O174	O	1.772233	-0.057094	0.004114
H175	H	1.308053	-0.528900	-0.531770
H176	H	1.808053	-0.028900	-0.031770
