data_functionalizedCrystal
_audit_creation_method	'MofGen! by Chris Wilmer'
_symmetry_space_group_name_H-M	'P1'
_symmetry_Int_Tables_number	1
_symmetry_cell_setting	triclinic
loop_
_symmetry_equiv_pos_as_xyz
  x,y,z
_cell_length_a	11.026607
_cell_length_b	11.295483
_cell_length_c	11.026607
_cell_angle_alpha	85.000258
_cell_angle_beta	108.586017
_cell_angle_gamma	95.006835
loop_
_atom_site_label
_atom_site_type_symbol
_atom_site_fract_x
_atom_site_fract_y
_atom_site_fract_z
O1	O	1.733442	0.099022	0.526917
O2	O	2.233442	0.599022	1.026917
O3	O	1.366862	0.099024	0.466153
O4	O	1.866862	0.599024	0.966153
O5	O	1.519770	0.099019	0.313245
O6	O	2.019770	0.599019	0.813245
O7	O	1.580534	0.099027	0.679825
O8	O	2.080534	0.599027	1.179825
O9	O	1.506334	-0.099031	0.326649
O10	O	2.006334	0.400969	0.826649
O11	O	1.353426	-0.099026	0.479557
O12	O	1.853426	0.400974	0.979557
O13	O	1.720006	-0.099028	0.540321
O14	O	2.220006	0.400972	1.040321
Cu15	Cu	1.535489	-0.117111	0.511163
Cu16	Cu	2.035489	0.382889	1.011163
Cu17	Cu	1.551379	0.117107	0.495311
Cu18	Cu	2.051379	0.617107	0.995311
O19	O	1.567098	-0.099023	0.693229
O20	O	2.067098	0.400977	1.193229
C21	C	1.312485	-0.000001	0.461645
C22	C	1.812485	0.499999	0.961645
C23	C	1.170471	-0.000000	0.428228
C24	C	1.670471	0.500000	0.928228
N25	N	1.524323	-0.281847	0.522313
N26	N	2.024323	0.218153	1.022313
C27	C	1.116822	0.000003	0.520498
C28	C	1.616822	0.500003	1.020498
C29	C	0.970043	0.000004	0.485962
C30	C	1.470043	0.500004	0.985962
C31	C	1.642923	-0.531140	0.403816
C32	C	2.142923	-0.031140	0.903816
C33	C	1.634495	-0.655804	0.412253
C34	C	2.134495	-0.155804	0.912253
C35	C	1.499032	-0.655839	0.547617
C36	C	1.999032	-0.155839	1.047617
C37	C	1.507460	-0.531176	0.539180
C38	C	2.007460	-0.031176	1.039180
C39	C	1.579409	-0.468831	0.467278
C40	C	2.079409	0.031169	0.967278
C41	C	1.587844	-0.344165	0.458849
C42	C	2.087844	0.155835	0.958849
C43	C	1.452374	-0.344203	0.594205
C44	C	1.952374	0.155797	1.094205
C45	C	1.443946	-0.468866	0.602643
C46	C	1.943946	0.031134	1.102643
C47	C	1.774384	-0.000001	0.544829
C48	C	2.274384	0.499999	1.044829
C49	C	1.916398	0.000006	0.578245
C50	C	2.416398	0.500006	1.078245
C51	C	1.501842	-0.000005	0.272288
C52	C	2.001842	0.499995	0.772288
C53	C	1.468426	-0.000000	0.130273
C54	C	1.968426	0.500000	0.630273
N55	N	1.562554	0.281843	0.484153
N56	N	2.062554	0.781843	0.984153
C57	C	1.560695	0.000001	0.076624
C58	C	2.060695	0.500001	0.576624
C59	C	1.526160	0.000005	-0.070155
C60	C	2.026160	0.500005	0.429845
C61	C	1.585026	0.000003	0.734186
C62	C	2.085026	0.500003	1.234186
C63	C	1.618443	0.000007	0.876200
C64	C	2.118443	0.500007	1.376200
H65	H	1.179554	-0.000002	0.625061
H66	H	1.679554	0.499998	1.125061
H67	H	0.907316	0.000032	0.381390
H68	H	1.407316	0.500032	0.881390
F69	F	1.088479	-0.000011	0.291555
F70	F	1.588479	0.499989	0.791555
F71	F	0.998381	-0.000005	0.714928
F72	F	1.498381	0.499995	1.214928
H73	H	1.646432	-0.293405	0.400307
H74	H	2.146432	0.206595	0.900307
F75	F	1.719510	-0.464787	0.327307
F76	F	2.219510	0.035213	0.827307
H77	H	1.421591	0.000014	-0.132885
H78	H	1.921591	0.500014	0.367115
H79	H	1.686212	-0.706533	0.360574
H80	H	2.186212	-0.206533	0.860574
F81	F	1.697370	0.000007	0.158614
F82	F	2.197370	0.500007	0.658614
H83	H	1.440443	-0.706617	0.606148
H84	H	1.940443	-0.206617	1.106148
H85	H	1.385363	-0.519642	0.661180
H86	H	1.885363	-0.019642	1.161180
H87	H	1.400662	-0.293456	0.645885
H88	H	1.900662	0.206544	1.145885
H89	H	1.723019	0.000096	-0.061079
H90	H	2.223019	0.500096	0.438921
H91	H	1.363863	0.000008	0.067540
H92	H	1.863863	0.500008	0.567540
