data_functionalizedCrystal
_audit_creation_method	'MofGen! by Chris Wilmer'
_symmetry_space_group_name_H-M	'P1'
_symmetry_Int_Tables_number	1
_symmetry_cell_setting	triclinic
loop_
_symmetry_equiv_pos_as_xyz
  x,y,z
_cell_length_a	15.298068
_cell_length_b	18.101397
_cell_length_c	15.298431
_cell_angle_alpha	80.284130
_cell_angle_beta	91.585376
_cell_angle_gamma	99.679550
loop_
_atom_site_label
_atom_site_type_symbol
_atom_site_fract_x
_atom_site_fract_y
_atom_site_fract_z
Zn1	Zn	1.253509	-0.013591	-0.727426
Zn2	Zn	1.753509	0.486409	-0.227426
Zn3	Zn	1.278753	-0.154678	-0.580933
Zn4	Zn	1.778753	0.345322	-0.080933
Zn5	Zn	1.132361	-0.055230	-0.555575
Zn6	Zn	1.632361	0.444770	-0.055575
Zn7	Zn	1.107004	-0.161800	-0.701967
Zn8	Zn	1.607004	0.338200	-0.201967
O9	O	1.192907	-0.096325	-0.641475
O10	O	1.692907	0.403675	-0.141475
O11	O	1.379436	-0.011900	-0.729261
O12	O	1.879436	0.488100	-0.229261
O13	O	1.280510	-0.155932	-0.454996
O14	O	1.780510	0.344068	0.045004
O15	O	1.148479	0.053939	-0.578414
O16	O	1.648479	0.553939	-0.078414
O17	O	1.397983	-0.115556	-0.621633
O18	O	1.897983	0.384444	-0.121633
O19	O	1.237486	0.084531	-0.704672
O20	O	1.737486	0.584531	-0.204672
O21	O	1.172956	-0.082868	-0.436365
O22	O	1.672956	0.417132	0.063635
O23	O	1.006418	-0.089774	-0.553726
O24	O	1.506418	0.410226	-0.053726
O25	O	1.105262	-0.127695	-0.827917
O26	O	1.605262	0.372305	-0.327917
O27	O	0.987789	-0.168070	-0.661280
O28	O	1.487789	0.331930	-0.161280
O29	O	1.212899	-0.018806	-0.846623
O30	O	1.712899	0.481194	-0.346623
O31	O	1.255922	-0.259269	-0.596946
O32	O	1.755922	0.240731	-0.096946
O33	O	1.129739	-0.264501	-0.685869
O34	O	1.629739	0.235499	-0.185869
C35	C	0.965320	-0.134214	-0.601989
C36	C	1.465320	0.365786	-0.101989
C37	C	0.867954	-0.150438	-0.585118
C38	C	1.367954	0.349562	-0.085118
C39	C	0.554813	0.019447	-0.762060
C40	C	1.054813	0.519447	-0.262060
C41	C	0.646292	0.034689	-0.777917
C42	C	1.146292	0.534689	-0.277917
C43	C	0.701712	-0.011591	-0.729718
C44	C	1.201712	0.488409	-0.229718
C45	C	0.665644	-0.073116	-0.665661
C46	C	1.165644	0.426884	-0.165661
C47	C	0.574155	-0.088364	-0.649807
C48	C	1.074155	0.411636	-0.149807
C49	C	0.721054	-0.119402	-0.617465
C50	C	1.221054	0.380598	-0.117465
C51	C	0.684986	-0.180927	-0.553408
C52	C	1.184986	0.319073	-0.053408
C53	C	0.593506	-0.196171	-0.537557
C54	C	1.093506	0.303829	-0.037557
C55	C	0.538086	-0.149891	-0.585755
C56	C	1.038086	0.350109	-0.085755
C57	C	0.812543	-0.104155	-0.633319
C58	C	1.312543	0.395845	-0.133319
C59	C	0.831885	-0.211965	-0.521066
C60	C	1.331885	0.288035	-0.021066
C61	C	0.740406	-0.227207	-0.505209
C62	C	1.240406	0.272793	-0.005209
C63	C	1.192839	-0.288753	-0.641420
C64	C	1.692839	0.211247	-0.141420
C65	C	1.192885	-0.371058	-0.641439
C66	C	1.692885	0.128942	-0.141439
C67	C	1.192983	-0.670121	-0.641539
C68	C	1.692983	-0.170121	-0.141539
C69	C	1.272217	-0.635525	-0.585377
C70	C	1.772217	-0.135525	-0.085377
C71	C	1.272420	-0.549847	-0.585593
C72	C	1.772420	-0.049847	-0.085593
C73	C	1.192935	-0.521752	-0.641489
C74	C	1.692935	-0.021752	-0.141489
C75	C	1.201987	-0.537735	-0.738151
C76	C	1.701987	-0.037735	-0.238151
C77	C	1.202573	-0.623337	-0.737872
C78	C	1.702573	-0.123337	-0.237872
C79	C	1.104379	-0.656849	-0.601805
C80	C	1.604379	-0.156849	-0.101805
C81	C	1.105193	-0.571365	-0.599824
C82	C	1.605193	-0.071365	-0.099824
C83	C	1.192905	-0.437900	-0.641466
C84	C	1.692905	0.062100	-0.141466
C85	C	1.193014	-0.753972	-0.641568
C86	C	1.693014	-0.253972	-0.141568
C87	C	1.421381	-0.058289	-0.681116
C88	C	1.921381	0.441711	-0.181116
C89	C	1.518744	-0.042080	-0.698009
C90	C	2.018744	0.457920	-0.198009
C91	C	1.153436	-0.069400	-0.869941
C92	C	1.653436	0.430600	-0.369941
C93	C	1.136616	-0.057926	-0.967299
C94	C	1.636616	0.442074	-0.467299
C95	C	1.192995	0.096861	-0.641554
C96	C	1.692995	0.596861	-0.141554
C97	C	1.193033	0.179185	-0.641588
C98	C	1.693033	0.679185	-0.141588
C99	C	1.072715	-0.014493	-1.003331
C100	C	1.572715	0.485507	-0.503331
C101	C	1.056900	-0.003715	-1.094802
C102	C	1.556900	0.496285	-0.594802
C103	C	1.104990	-0.036365	-1.150251
C104	C	1.604990	0.463635	-0.650251
C105	C	1.168897	-0.079795	-1.114220
C106	C	1.668897	0.420205	-0.614220
C107	C	1.184708	-0.090579	-1.022739
C108	C	1.684708	0.409421	-0.522739
C109	C	1.216983	-0.112451	-1.169659
C110	C	1.716983	0.387549	-0.669659
C111	C	1.280890	-0.155881	-1.133627
C112	C	1.780890	0.344119	-0.633627
C113	C	1.296699	-0.166662	-1.042156
C114	C	1.796699	0.333338	-0.542156
C115	C	1.248609	-0.134012	-0.986707
C116	C	1.748609	0.365988	-0.486707
C117	C	1.201172	-0.101668	-1.261139
C118	C	1.701172	0.398332	-0.761139
C119	C	1.313165	-0.177754	-1.280547
C120	C	1.813165	0.322246	-0.780547
C121	C	1.328980	-0.188531	-1.189076
C122	C	1.828980	0.311469	-0.689076
C123	C	1.232274	-0.123083	-0.413908
C124	C	1.732274	0.376917	0.086092
C125	C	1.249264	-0.134320	-0.316579
C126	C	1.749264	0.365680	0.183421
H127	H	0.776199	0.000825	-0.742630
H128	H	1.276199	0.500825	-0.242630
H129	H	1.149139	-0.066306	-1.290467
H130	H	1.649139	0.433694	-0.790467
N131	N	0.851439	-0.037802	-0.702407
N132	N	1.351439	0.462198	-0.202407
H133	H	0.837860	0.010890	-0.686166
H134	H	1.337860	0.510890	-0.186166
H135	H	0.917791	-0.035235	-0.705108
H136	H	1.417791	0.464765	-0.205108
H137	H	1.092110	-0.027587	-1.224730
H138	H	1.592110	0.472413	-0.724730
H139	H	0.675652	0.084781	-0.830076
H140	H	1.175652	0.584781	-0.330076
N141	N	1.265668	-0.145647	-0.888046
N142	N	1.765668	0.354353	-0.388046
H143	H	1.329574	-0.124629	-0.876450
H144	H	1.829574	0.375371	-0.376450
H145	H	1.225459	-0.118376	-0.858450
H146	H	1.725459	0.381624	-0.358450
N147	N	0.554599	-0.262529	-0.468469
N148	N	1.054599	0.237471	0.031531
H149	H	0.510506	-0.299036	-0.497412
H150	H	1.010506	0.200964	0.002588
H151	H	0.603638	-0.289473	-0.440360
H152	H	1.103638	0.210527	0.059640
H153	H	0.509682	0.057118	-0.801302
H154	H	1.009682	0.557118	-0.301302
N155	N	1.267464	-0.676992	-0.490880
N156	N	1.767464	-0.176992	0.009120
H157	H	1.322911	-0.700056	-0.476464
H158	H	1.822911	-0.200056	0.023536
H159	H	1.262353	-0.640067	-0.449357
H160	H	1.762353	-0.140067	0.050643
H161	H	0.711026	-0.277302	-0.453053
H162	H	1.211026	0.222698	0.046947
N163	N	1.365624	-0.213506	-1.003295
N164	N	1.865624	0.286494	-0.503295
H165	H	1.412789	-0.181120	-0.972398
H166	H	1.912789	0.318880	-0.472398
H167	H	1.336500	-0.258224	-0.959190
H168	H	1.836500	0.241776	-0.459190
H169	H	1.381013	-0.223893	-1.159727
H170	H	1.881013	0.276107	-0.659727
N171	N	1.365031	-0.212974	-1.340347
N172	N	1.865031	0.287026	-0.840347
H173	H	1.399080	-0.171644	-1.385357
H174	H	1.899080	0.328356	-0.885357
H175	H	1.407860	-0.242136	-1.303578
H176	H	1.907860	0.257864	-0.803578
N177	N	0.439416	-0.166317	-0.568652
N178	N	0.939416	0.333683	-0.068652
H179	H	0.407007	-0.176598	-0.624891
H180	H	0.907007	0.323402	-0.124891
H181	H	0.425043	-0.212302	-0.520734
H182	H	0.925043	0.287698	-0.020734
N183	N	1.359784	-0.505041	-0.622100
N184	N	1.859784	-0.005041	-0.122100
H185	H	1.398311	-0.540935	-0.638120
H186	H	1.898311	-0.040935	-0.138120
H187	H	1.348682	-0.467931	-0.676749
H188	H	1.848682	0.032069	-0.176749
N189	N	0.891647	-0.261890	-0.469077
N190	N	1.391647	0.238110	0.030923
H191	H	0.955075	-0.242894	-0.488838
H192	H	1.455075	0.257106	0.011162
H193	H	0.886449	-0.260318	-0.403772
H194	H	1.386449	0.239682	0.096228
H195	H	1.268607	-0.539543	-0.514422
H196	H	1.768607	-0.039543	-0.014422
H197	H	1.337830	-0.643801	-0.612692
H198	H	1.837830	-0.143801	-0.112692
N199	N	0.987977	0.043127	-1.133650
N200	N	1.487977	0.543127	-0.633650
H201	H	1.004364	0.096433	-1.120108
H202	H	1.504364	0.596433	-0.620108
H203	H	0.985279	0.044947	-1.200001
H204	H	1.485279	0.544947	-0.700001
N205	N	1.287739	-0.631663	-0.779962
N206	N	1.787739	-0.131663	-0.279962
H207	H	1.324548	-0.579802	-0.798522
H208	H	1.824548	-0.079802	-0.298522
H209	H	1.322065	-0.663716	-0.735761
H210	H	1.822065	-0.163716	-0.235761
H211	H	1.146519	-0.645740	-0.782029
H212	H	1.646519	-0.145740	-0.282029
N213	N	1.126967	-0.513196	-0.795993
N214	N	1.626967	-0.013196	-0.295993
H215	H	1.086294	-0.491429	-0.760007
H216	H	1.586294	0.008571	-0.260007
H217	H	1.151942	-0.473253	-0.847446
H218	H	1.651942	0.026747	-0.347446
H219	H	1.093058	-0.690080	-0.531703
H220	H	1.593058	-0.190080	-0.031703
N221	N	1.286071	-0.491308	-0.780538
N222	N	1.786071	0.008692	-0.280538
H223	H	1.284361	-0.435472	-0.782888
H224	H	1.784361	0.064528	-0.282888
H225	H	1.338842	-0.505421	-0.744374
H226	H	1.838842	-0.005421	-0.244374
N227	N	1.095931	-0.559253	-0.505478
N228	N	1.595931	-0.059253	-0.005478
H229	H	1.148313	-0.574487	-0.469482
H230	H	1.648313	-0.074487	0.030518
H231	H	1.093884	-0.503857	-0.504922
H232	H	1.593884	-0.003857	-0.004922
N233	N	1.024494	-0.547583	-0.648310
N234	N	1.524494	-0.047583	-0.148310
H235	H	1.043754	-0.504121	-0.698199
H236	H	1.543754	-0.004121	-0.198199
H237	H	0.990132	-0.591977	-0.673382
H238	H	1.490132	-0.091977	-0.173382
N239	N	1.020846	0.020717	-0.943532
N240	N	1.520846	0.520717	-0.443532
H241	H	0.986801	-0.020617	-0.898524
H242	H	1.486801	0.479383	-0.398524
H243	H	1.063073	0.056498	-0.911829
H244	H	1.563073	0.556498	-0.411829
N245	N	1.026436	-0.687085	-0.655723
N246	N	1.526436	-0.187085	-0.155723
H247	H	1.048363	-0.709278	-0.705639
H248	H	1.548363	-0.209278	-0.205639
H249	H	0.985138	-0.727856	-0.616406
H250	H	1.485138	-0.227856	-0.116406
