data_functionalizedCrystal
_audit_creation_method	'MofGen! by Chris Wilmer'
_symmetry_space_group_name_H-M	'P1'
_symmetry_Int_Tables_number	1
_symmetry_cell_setting	triclinic
loop_
_symmetry_equiv_pos_as_xyz
  x,y,z
_cell_length_a	14.908783
_cell_length_b	25.639239
_cell_length_c	14.908308
_cell_angle_alpha	86.738311
_cell_angle_beta	90.211273
_cell_angle_gamma	93.329934
loop_
_atom_site_label
_atom_site_type_symbol
_atom_site_fract_x
_atom_site_fract_y
_atom_site_fract_z
Zn1	Zn	1.345212	-0.182873	0.587804
Zn2	Zn	1.845212	0.317127	1.087804
Zn3	Zn	1.353747	-0.264999	0.437432
Zn4	Zn	1.853747	0.235001	0.937432
Zn5	Zn	1.203526	-0.182307	0.428775
Zn6	Zn	1.703526	0.317693	0.928775
Zn7	Zn	1.194767	-0.275011	0.579052
Zn8	Zn	1.694767	0.224989	1.079052
O9	O	1.274313	-0.226297	0.508266
O10	O	1.774313	0.273703	1.008266
O11	O	1.472174	-0.189814	0.575142
O12	O	1.972174	0.310186	1.075142
O13	O	1.341057	-0.249603	0.310461
O14	O	1.841057	0.250397	0.810461
O15	O	1.222415	-0.109215	0.449910
O16	O	1.722415	0.390785	0.949910
O17	O	1.478445	-0.250152	0.464665
O18	O	1.978445	0.249848	0.964665
O19	O	1.326511	-0.109631	0.566748
O20	O	1.826511	0.390369	1.066748
O21	O	1.230690	-0.188850	0.304101
O22	O	1.730690	0.311150	0.804101
O23	O	1.076534	-0.198558	0.441424
O24	O	1.576534	0.301442	0.941424
O25	O	1.207486	-0.267215	0.706036
O26	O	1.707486	0.232785	1.206036
O27	O	1.070099	-0.266667	0.551832
O28	O	1.570099	0.233333	1.051832
O29	O	1.318018	-0.199522	0.712465
O30	O	1.818018	0.300478	1.212465
O31	O	1.332564	-0.339494	0.456179
O32	O	1.832564	0.160506	0.956179
O33	O	1.215762	-0.346850	0.560227
O34	O	1.715762	0.153150	1.060227
C35	C	1.040690	-0.233638	0.494740
C36	C	1.540690	0.266362	0.994740
C37	C	0.940744	-0.236791	0.488975
C38	C	1.440744	0.263209	0.988975
C39	C	0.746393	-0.179985	0.593357
C40	C	1.246393	0.320015	1.093357
C41	C	0.652484	-0.182946	0.587943
C42	C	1.152484	0.317054	1.087943
C43	C	0.659017	-0.245672	0.472729
C44	C	1.159017	0.254328	0.972729
C45	C	0.752925	-0.242711	0.478143
C46	C	1.252925	0.257289	0.978143
C47	C	0.796610	-0.209867	0.538460
C48	C	1.296610	0.290133	1.038460
C49	C	0.890520	-0.206908	0.543878
C50	C	1.390520	0.293092	1.043878
C51	C	0.897051	-0.269631	0.428659
C52	C	1.397051	0.230369	0.928659
C53	C	0.803142	-0.272592	0.423245
C54	C	1.303142	0.227408	0.923245
C55	C	1.274162	-0.362143	0.508213
C56	C	1.774162	0.137857	1.008213
C57	C	1.274178	-0.420257	0.508226
C58	C	1.774178	0.079743	1.008226
C59	C	1.213484	-0.675290	0.562425
C60	C	1.713484	-0.175290	1.062425
C61	C	1.213452	-0.620686	0.562412
C62	C	1.713452	-0.120686	1.062412
O63	O	1.161702	-0.595717	0.608455
O64	O	1.661702	-0.095717	1.108455
N65	N	1.274288	-0.589529	0.508279
N66	N	1.774288	-0.089529	1.008279
C67	C	1.335167	-0.612979	0.454162
C68	C	1.835167	-0.112979	0.954162
O69	O	1.386911	-0.581463	0.408118
O70	O	1.886911	-0.081463	0.908118
C71	C	1.335203	-0.667581	0.454180
C72	C	1.835203	-0.167581	0.954180
C73	C	1.274357	-0.698736	0.508310
C74	C	1.774357	-0.198736	1.008310
C75	C	1.152643	-0.706444	0.616550
C76	C	1.652643	-0.206444	1.116550
C77	C	1.152675	-0.761044	0.616561
C78	C	1.652675	-0.261044	1.116561
C79	C	1.213548	-0.784489	0.562446
C80	C	1.713548	-0.284489	1.062446
C81	C	1.274389	-0.753335	0.508321
C82	C	1.774389	-0.253335	1.008321
C83	C	1.396086	-0.691030	0.400069
C84	C	1.896086	-0.191030	0.900069
C85	C	1.396118	-0.745636	0.400092
C86	C	1.896118	-0.245636	0.900092
C87	C	1.335271	-0.776791	0.454221
C88	C	1.835271	-0.276791	0.954221
C89	C	1.335293	-0.831381	0.454217
C90	C	1.835293	-0.331381	0.954217
N91	N	1.274457	-0.862538	0.508349
N92	N	1.774457	-0.362538	1.008349
C93	C	1.213584	-0.839092	0.562464
C94	C	1.713584	-0.339092	1.062464
C95	C	1.335087	-0.498310	0.454130
C96	C	1.835087	0.001690	0.954130
C97	C	1.335048	-0.443708	0.454107
C98	C	1.835048	0.056292	0.954107
C99	C	1.213333	-0.451419	0.562358
C100	C	1.713333	0.048581	1.062358
C101	C	1.213369	-0.506022	0.562376
C102	C	1.713369	-0.006022	1.062376
C103	C	1.274251	-0.529466	0.508263
C104	C	1.774251	-0.029466	1.008263
C105	C	1.213655	-0.953755	0.562482
C106	C	1.713655	-0.453755	1.062482
C107	C	1.213690	-1.008360	0.562486
C108	C	1.713690	-0.508360	1.062486
C109	C	1.335407	-1.000644	0.454238
C110	C	1.835407	-0.500644	0.954238
C111	C	1.335370	-0.946044	0.454231
C112	C	1.835370	-0.446044	0.954231
C113	C	1.274490	-0.922602	0.508360
C114	C	1.774490	-0.422602	1.008360
O115	O	1.387019	-0.856386	0.408200
O116	O	1.887019	-0.356386	0.908200
O117	O	1.161857	-0.870614	0.608510
O118	O	1.661857	-0.370614	1.108510
C119	C	1.508848	-0.218929	0.521845
C120	C	2.008848	0.281071	1.021845
C121	C	1.608793	-0.215789	0.527632
C122	C	2.108793	0.284211	1.027632
C123	C	1.260823	-0.234549	0.742787
C124	C	1.760823	0.265451	1.242787
C125	C	1.255074	-0.238065	0.842726
C126	C	1.755074	0.261935	1.342726
C127	C	1.274488	-0.089921	0.508339
C128	C	1.774488	0.410079	1.008339
C129	C	1.274563	-0.031806	0.508371
C130	C	1.774563	0.468194	1.008371
C131	C	1.287802	-0.218039	0.274660
C132	C	1.787802	0.281961	0.774660
C133	C	1.293725	-0.214370	0.174731
C134	C	1.793725	0.285630	0.674731
C135	C	1.359366	-0.174171	1.037219
C136	C	1.859366	0.325829	1.537219
C137	C	1.353968	-0.177473	1.131121
C138	C	1.853968	0.322527	1.631121
C139	C	1.238875	-0.247967	1.124433
C140	C	1.738875	0.252033	1.624433
C141	C	1.244273	-0.244666	1.030531
C142	C	1.744273	0.255334	1.530531
C143	C	1.304522	-0.207767	0.986928
C144	C	1.804522	0.292233	1.486928
C145	C	1.309924	-0.204468	0.893024
C146	C	1.809924	0.295532	1.393024
C147	C	1.194828	-0.274960	0.886338
C148	C	1.694828	0.225040	1.386338
C149	C	1.189429	-0.278261	0.980240
C150	C	1.689429	0.221739	1.480240
H151	H	1.164083	-0.934675	0.606560
H152	H	1.664083	-0.434675	1.106560
H153	H	0.611601	-0.158612	0.632644
H154	H	1.111601	0.341388	1.132644
H155	H	1.445699	-0.764722	0.356028
H156	H	1.945699	-0.264722	0.856028
C157	C	1.123162	-0.318849	1.028205
C158	C	1.623162	0.181151	1.528205
H159	H	1.091269	-0.338383	0.984801
H160	H	1.591269	0.161617	1.484801
H161	H	1.155427	-0.341835	1.066818
H162	H	1.655427	0.158165	1.566818
H163	H	1.081895	-0.301366	1.062575
H164	H	1.581895	0.198634	1.562575
C165	C	1.146381	-0.425622	0.621894
C166	C	1.646381	0.074378	1.121894
H167	H	1.155086	-0.388641	0.614134
H168	H	1.655086	0.111359	1.114134
H169	H	1.086737	-0.436042	0.605200
H170	H	1.586737	0.063958	1.105200
H171	H	1.156034	-0.436260	0.683081
H172	H	1.656034	0.063740	1.183081
H173	H	1.150172	-0.302317	0.845381
H174	H	1.650172	0.197683	1.345381
H175	H	0.937947	-0.293967	0.383965
H176	H	1.437947	0.206033	0.883965
C177	C	0.938572	-0.170781	0.610220
C178	C	1.438572	0.329219	1.110220
H179	H	0.895212	-0.153405	0.642133
H180	H	1.395212	0.346595	1.142133
H181	H	0.972947	-0.191034	0.651450
H182	H	1.472947	0.308966	1.151450
H183	H	0.977193	-0.145605	0.578000
H184	H	1.477193	0.354395	1.078000
H185	H	0.623433	-0.272406	0.423612
H186	H	1.123433	0.227594	0.923612
C187	C	0.755084	-0.308719	0.356906
C188	C	1.255084	0.191281	0.856906
H189	H	0.691963	-0.306207	0.361547
H190	H	1.191963	0.193793	0.861547
H191	H	0.773941	-0.298410	0.297403
H192	H	1.273941	0.201590	0.797403
H193	H	0.769691	-0.343837	0.370856
H194	H	1.269691	0.156163	0.870856
H195	H	0.781961	-0.153244	0.642473
H196	H	1.281961	0.346756	1.142473
C197	C	1.401973	-0.409444	0.394559
C198	C	1.901973	0.090556	0.894559
H199	H	1.438232	-0.431233	0.362339
H200	H	1.938232	0.068767	0.862339
H201	H	1.369856	-0.387873	0.353357
H202	H	1.869856	0.112127	0.853357
H203	H	1.439138	-0.388094	0.431252
H204	H	1.939138	0.111906	0.931252
H205	H	1.408427	-0.144128	1.001717
H206	H	1.908427	0.355872	1.501717
C207	C	1.146761	-1.042627	0.622035
C208	C	1.646761	-0.542627	1.122035
H209	H	1.110511	-1.020840	0.654269
H210	H	1.610511	-0.520840	1.154269
H211	H	1.109599	-1.063980	0.585352
H212	H	1.609599	-0.563980	1.085352
H213	H	1.178890	-1.064194	0.663238
H214	H	1.678890	-0.564194	1.163238
C215	C	1.414300	-0.140520	1.186439
C216	C	1.914300	0.359480	1.686439
H217	H	1.450958	-0.118075	1.147018
H218	H	1.950958	0.381925	1.647018
H219	H	1.377828	-0.120108	1.221093
H220	H	1.877828	0.379892	1.721093
H221	H	1.451353	-0.160581	1.225324
H222	H	1.951353	0.339419	1.725324
H223	H	1.103126	-0.786405	0.660637
H224	H	1.603126	-0.286405	1.160637
C225	C	1.172600	-0.288547	1.172407
C226	C	1.672600	0.211453	1.672407
H227	H	1.177243	-0.285700	1.235534
H228	H	1.677243	0.214300	1.735534
H229	H	1.113081	-0.282252	1.153522
H230	H	1.613081	0.217748	1.653522
H231	H	1.186602	-0.322727	1.157773
H232	H	1.686602	0.177273	1.657773
H233	H	1.445633	-0.665671	0.355992
H234	H	1.945633	-0.165671	0.855992
H235	H	1.384908	-0.920677	0.410144
H236	H	1.884908	-0.420677	0.910144
H237	H	1.103074	-0.687360	0.660621
H238	H	1.603074	-0.187360	1.160621
H239	H	1.163827	-0.531385	0.606458
H240	H	1.663827	-0.031385	1.106458
H241	H	1.384663	-0.517394	0.410057
H242	H	1.884663	-0.017394	0.910057
C243	C	1.402369	-1.026441	0.394724
C244	C	1.902369	-0.526441	0.894724
H245	H	1.393676	-1.063422	0.402497
H246	H	1.893676	-0.563422	0.902497
H247	H	1.392743	-1.015806	0.333536
H248	H	1.892743	-0.515806	0.833536
H249	H	1.462009	-1.016018	0.411443
H250	H	1.962009	-0.516018	0.911443
H251	H	1.358983	-0.174423	0.857524
H252	H	1.858983	0.325577	1.357524
