data_functionalizedCrystal
_audit_creation_method	'MofGen! by Chris Wilmer'
_symmetry_space_group_name_H-M	'P1'
_symmetry_Int_Tables_number	1
_symmetry_cell_setting	triclinic
loop_
_symmetry_equiv_pos_as_xyz
  x,y,z
_cell_length_a	10.723024
_cell_length_b	14.853567
_cell_length_c	9.798715
_cell_angle_alpha	90.000647
_cell_angle_beta	89.996609
_cell_angle_gamma	84.051400
loop_
_atom_site_label
_atom_site_type_symbol
_atom_site_fract_x
_atom_site_fract_y
_atom_site_fract_z
O1	O	1.655908	0.126445	-0.113470
O2	O	1.292633	0.138549	-0.113473
O3	O	1.483974	0.001318	-0.113475
O4	O	1.464567	0.263675	-0.113467
O5	O	1.483960	0.001318	0.113507
O6	O	1.292619	0.138548	0.113509
O7	O	1.655894	0.126445	0.113513
Zn8	Zn	1.474254	0.132497	0.149549
Zn9	Zn	1.474273	0.132497	-0.149510
O10	O	1.464553	0.263675	0.113515
C11	C	1.246136	0.137668	0.000017
C12	C	1.107608	0.135032	0.000016
C13	C	1.031849	0.211819	0.000017
C14	C	0.888673	0.209097	0.000015
C15	C	1.483088	-0.032275	0.000012
C16	C	1.480453	-0.132373	-0.000000
C17	C	1.355653	-0.545565	0.000025
C18	C	1.582971	-0.565646	0.000027
C19	C	1.585448	-0.471599	0.000019
C20	C	1.473027	-0.414531	0.000016
C21	C	1.358127	-0.451510	0.000021
C22	C	1.700345	-0.434614	0.000028
C23	C	1.702828	-0.340562	0.000021
C24	C	1.590405	-0.283491	0.000008
C25	C	1.475501	-0.320475	0.000012
C26	C	1.363079	-0.263407	0.000009
C27	C	1.248174	-0.300389	0.000003
C28	C	1.245704	-0.394440	0.000008
C29	C	1.592874	-0.189441	0.000003
C30	C	1.365554	-0.169351	0.000005
C31	C	1.702392	0.127326	0.000019
C32	C	1.840919	0.129961	0.000012
C33	C	1.465439	0.297269	0.000025
C34	C	1.468075	0.397366	0.000028
N35	N	1.474251	0.132496	0.353649
N36	N	1.474287	0.132491	-0.353609
C37	C	1.554592	0.074623	0.421425
C38	C	1.554612	0.074619	0.578588
H39	H	1.274005	-0.122892	-0.000003
H40	H	1.156641	-0.253912	0.000010
H41	H	1.674499	-0.612116	0.000040
O42	O	0.918385	0.051446	-0.000051
C43	C	0.846174	-0.022662	-0.000018
H44	H	0.749049	-0.000463	-0.042988
H45	H	0.894180	-0.079287	-0.065920
H46	H	0.836904	-0.048163	0.108876
O47	O	1.636791	0.015470	0.647899
C48	C	1.711447	-0.038356	0.554330
H49	H	1.713144	-0.001459	0.452439
H50	H	1.811018	-0.051630	0.595701
H51	H	1.670552	-0.105501	0.539187
H52	H	1.405504	0.182044	0.588115
H53	H	1.262100	-0.575681	0.000014
H54	H	1.066471	0.067277	-0.000021
H55	H	1.686428	-0.159334	0.000017
H56	H	1.623357	0.025074	0.363101
O57	O	1.392032	0.191514	0.423159
C58	C	1.268360	0.176334	0.388340
H59	H	1.267312	0.104197	0.348964
H60	H	1.205869	0.186350	0.482385
H61	H	1.231893	0.226178	0.305518
O62	O	1.081119	0.292577	-0.000034
C63	C	1.213104	0.277316	0.000007
H64	H	1.243424	0.207132	-0.042971
H65	H	1.253273	0.330608	-0.065883
H66	H	1.249344	0.281869	0.108905
H67	H	1.152154	-0.424559	0.000004
O68	O	1.809508	-0.490087	-0.000205
C69	C	1.814870	-0.545108	-0.117743
H70	H	1.751134	-0.511062	-0.199914
H71	H	1.915371	-0.555067	-0.157193
H72	H	1.782442	-0.613685	-0.091169
H73	H	0.823575	0.274833	0.000011
H74	H	1.796390	-0.310459	0.000024
