data_functionalizedCrystal
_audit_creation_method	'MofGen! by Chris Wilmer'
_symmetry_space_group_name_H-M	'P1'
_symmetry_Int_Tables_number	1
_symmetry_cell_setting	triclinic
loop_
_symmetry_equiv_pos_as_xyz
  x,y,z
_cell_length_a	12.784890
_cell_length_b	12.811415
_cell_length_c	11.295483
_cell_angle_alpha	88.701575
_cell_angle_beta	86.328828
_cell_angle_gamma	78.600226
loop_
_atom_site_label
_atom_site_type_symbol
_atom_site_fract_x
_atom_site_fract_y
_atom_site_fract_z
O1	O	1.417461	-0.001143	-0.098865
O2	O	1.108551	0.043415	-0.103686
O3	O	1.269603	-0.131085	-0.084832
O4	O	1.256410	0.173358	-0.117719
O5	O	1.255457	-0.115779	0.111565
O6	O	1.094406	0.058721	0.092711
O7	O	1.403315	0.014163	0.097532
Cu8	Cu	1.247569	0.037839	0.113054
Cu9	Cu	1.264298	0.019739	-0.119208
O10	O	1.242264	0.188663	0.078678
C11	C	1.061914	0.053966	-0.005802
C12	C	0.944026	0.062589	-0.006737
C13	C	0.766372	0.170658	-0.018412
C14	C	0.877138	0.162563	-0.017538
C15	C	0.900142	-0.029297	0.003187
C16	C	0.789376	-0.021202	0.002313
C17	C	0.722494	0.078779	-0.008486
C18	C	0.611726	0.086874	-0.009352
C19	C	0.634732	-0.104985	0.011365
C20	C	0.745498	-0.113080	0.012240
C21	C	1.261357	-0.162131	0.017544
C22	C	1.257850	-0.277441	0.029993
C23	C	1.266664	-0.510794	-0.160752
C24	C	1.263369	-0.619138	-0.149061
C25	C	1.247958	-0.602473	0.065064
C26	C	1.251253	-0.494129	0.053373
C27	C	1.260607	-0.448294	-0.059539
C28	C	1.263910	-0.339949	-0.071228
C29	C	1.248491	-0.323285	0.142896
C30	C	1.245196	-0.431629	0.154587
C31	C	1.449953	0.003612	-0.000355
C32	C	1.567841	-0.005012	0.000572
C33	C	1.250510	0.219709	-0.023701
C34	C	1.254018	0.335018	-0.036157
N35	N	1.235810	0.050568	0.276415
N36	N	1.276065	0.007001	-0.282568
C37	C	1.360709	-0.084690	0.540319
C38	C	1.351830	-0.075063	0.663942
C39	C	1.209171	0.079442	0.647289
C40	C	1.218049	0.069816	0.523665
C41	C	1.293822	-0.012252	0.470185
C42	C	1.302705	-0.021873	0.346558
C43	C	1.160040	0.132627	0.329907
C44	C	1.151162	0.142254	0.453531
H45	H	0.799968	-0.194482	0.021027
H46	H	1.364405	-0.088694	0.303016
H47	H	1.271530	-0.302633	-0.163166
H48	H	1.274290	-0.473476	-0.252689
C49	C	0.586463	-0.206059	0.022281
C50	C	0.618520	-0.294260	-0.071034
C51	C	0.570249	-0.395329	-0.060115
C52	C	0.489920	-0.408198	0.044119
C53	C	0.457858	-0.319994	0.137441
C54	C	0.506130	-0.218925	0.126522
H55	H	0.677988	-0.284736	-0.148201
H56	H	0.593983	-0.460623	-0.129198
H57	H	0.454186	-0.483015	0.052202
H58	H	0.398390	-0.329518	0.214608
H59	H	0.482395	-0.153631	0.195605
C60	C	1.270036	-0.687890	-0.260398
C61	C	1.368839	-0.700027	-0.348154
C62	C	1.375504	-0.768779	-0.459495
C63	C	1.283367	-0.825395	-0.483081
C64	C	1.184556	-0.813260	-0.395322
C65	C	1.177891	-0.744508	-0.283981
H66	H	1.437051	-0.658115	-0.330697
H67	H	1.448651	-0.777761	-0.524460
H68	H	1.288301	-0.876289	-0.565502
H69	H	1.116344	-0.855172	-0.412779
H70	H	1.104744	-0.735525	-0.219016
H71	H	1.240332	-0.639810	0.156991
C72	C	0.692794	0.280631	-0.030282
C73	C	0.620820	0.304636	-0.135713
C74	C	0.547242	0.414610	-0.147582
C75	C	0.545638	0.500579	-0.054019
C76	C	0.617613	0.476575	0.051419
C77	C	0.691192	0.366601	0.063288
H78	H	0.622006	0.240995	-0.204980
H79	H	0.493961	0.432379	-0.225635
H80	H	0.491171	0.581988	-0.062805
H81	H	0.616428	0.540217	0.120686
H82	H	0.744473	0.348833	0.141341
H83	H	0.557272	0.168284	-0.018138
C84	C	1.234904	-0.482063	0.278779
C85	C	1.138525	-0.534096	0.314076
C86	C	1.128233	-0.584532	0.438268
C87	C	1.214320	-0.582934	0.527164
C88	C	1.310706	-0.530898	0.491869
C89	C	1.320997	-0.480463	0.367676
H90	H	1.074792	-0.535281	0.248268
H91	H	1.056882	-0.623052	0.464395
H92	H	1.206702	-0.620269	0.619098
H93	H	1.374439	-0.529713	0.557677
H94	H	1.392349	-0.441942	0.341549
C95	C	1.241829	-0.254537	0.254244
C96	C	1.149988	-0.157599	0.273489
C97	C	1.143332	-0.088854	0.384835
C98	C	1.228518	-0.117046	0.476935
C99	C	1.320366	-0.213988	0.457692
C100	C	1.327021	-0.282733	0.346346
H101	H	1.086922	-0.136726	0.205309
H102	H	1.075339	-0.017091	0.399079
H103	H	1.223591	-0.066156	0.559359
H104	H	1.383431	-0.234861	0.525872
H105	H	1.395014	-0.354496	0.332102
H106	H	1.147471	0.146253	0.690849
H107	H	0.912858	0.237380	-0.025619
H108	H	1.422413	-0.151506	0.496774
C109	C	0.973727	-0.139266	0.015060
C110	C	0.960661	-0.209351	0.125472
C111	C	1.034248	-0.319320	0.137345
C112	C	1.120902	-0.359202	0.038806
C113	C	1.133972	-0.289115	-0.071614
C114	C	1.060384	-0.179147	-0.083487
H115	H	0.896511	-0.179829	0.198423
H116	H	1.024573	-0.371202	0.219086
H117	H	1.175377	-0.440607	0.047596
H118	H	1.198122	-0.318638	-0.144565
H119	H	1.070060	-0.127264	-0.165227
C120	C	1.086460	0.212315	0.252754
C121	C	1.096228	0.201731	0.116773
C122	C	1.022655	0.281418	0.039618
C123	C	0.939313	0.371690	0.098444
C124	C	0.929541	0.382277	0.234433
C125	C	1.003114	0.302590	0.311588
H126	H	1.157926	0.134903	0.073219
H127	H	1.029889	0.273580	-0.061051
H128	H	0.884849	0.430679	0.041330
H129	H	0.867843	0.449105	0.277987
H130	H	0.995880	0.310428	0.412256
H131	H	1.406295	-0.134051	0.721043
H132	H	1.089466	0.209069	0.497089
