data_functionalizedCrystal
_audit_creation_method	'MofGen! by Chris Wilmer'
_symmetry_space_group_name_H-M	'P1'
_symmetry_Int_Tables_number	1
_symmetry_cell_setting	triclinic
loop_
_symmetry_equiv_pos_as_xyz
  x,y,z
_cell_length_a	21.395362
_cell_length_b	21.395362
_cell_length_c	21.395355
_cell_angle_alpha	90.020549
_cell_angle_beta	90.043940
_cell_angle_gamma	90.045668
loop_
_atom_site_label
_atom_site_type_symbol
_atom_site_fract_x
_atom_site_fract_y
_atom_site_fract_z
Zn1	Zn	0.957863	-0.249246	0.354577
Zn2	Zn	1.207863	0.000754	0.604577
Zn3	Zn	1.457863	0.250754	0.854577
Zn4	Zn	1.707863	0.500754	1.104577
Zn5	Zn	0.957768	-0.354005	0.249796
Zn6	Zn	1.207768	-0.104005	0.499796
Zn7	Zn	1.457768	0.145995	0.749796
Zn8	Zn	1.707768	0.395995	0.999796
Zn9	Zn	0.853078	-0.249275	0.249778
Zn10	Zn	1.103078	0.000725	0.499778
Zn11	Zn	1.353078	0.250725	0.749778
Zn12	Zn	1.603078	0.500725	0.999778
Zn13	Zn	0.853049	-0.354018	0.354500
Zn14	Zn	1.103049	-0.104018	0.604500
Zn15	Zn	1.353049	0.145982	0.854500
Zn16	Zn	1.603049	0.395982	1.104500
O17	O	0.905440	-0.301636	0.302163
O18	O	1.155440	-0.051636	0.552163
O19	O	1.405440	0.198364	0.802163
O20	O	1.655440	0.448364	1.052163
O21	O	1.045529	-0.263125	0.340717
O22	O	1.295529	-0.013125	0.590717
O23	O	1.545529	0.236875	0.840717
O24	O	1.795529	0.486875	1.090717
O25	O	0.943852	-0.340119	0.162115
O26	O	1.193852	-0.090119	0.412115
O27	O	1.443852	0.159881	0.662115
O28	O	1.693852	0.409881	0.912115
O29	O	0.867031	-0.161593	0.263704
O30	O	1.117031	0.088407	0.513704
O31	O	1.367031	0.338407	0.763704
O32	O	1.617031	0.588407	1.013704
O33	O	1.045458	-0.340091	0.263734
O34	O	1.295458	-0.090091	0.513734
O35	O	1.545458	0.159909	0.763734
O36	O	1.795458	0.409909	1.013734
O37	O	0.944016	-0.161572	0.340700
O38	O	1.194016	0.088428	0.590700
O39	O	1.444016	0.338428	0.840700
O40	O	1.694016	0.588428	1.090700
O41	O	0.866938	-0.263174	0.162102
O42	O	1.116938	-0.013174	0.412102
O43	O	1.366938	0.236826	0.662102
O44	O	1.616938	0.486826	0.912102
O45	O	0.765397	-0.263187	0.263630
O46	O	1.015397	-0.013187	0.513630
O47	O	1.265397	0.236813	0.763630
O48	O	1.515397	0.486813	1.013630
O49	O	0.866981	-0.340113	0.442188
O50	O	1.116981	-0.090113	0.692188
O51	O	1.366981	0.159887	0.942188
O52	O	1.616981	0.409887	1.192188
O53	O	0.765375	-0.340141	0.340569
O54	O	1.015375	-0.090141	0.590569
O55	O	1.265375	0.159859	0.840569
O56	O	1.515375	0.409859	1.090569
O57	O	0.943988	-0.263137	0.442245
O58	O	1.193988	-0.013137	0.692245
O59	O	1.443988	0.236863	0.942245
O60	O	1.693988	0.486863	1.192245
O61	O	0.943824	-0.441685	0.263660
O62	O	1.193824	-0.191685	0.513660
O63	O	1.443824	0.058315	0.763660
O64	O	1.693824	0.308315	1.013660
O65	O	0.866888	-0.441695	0.340586
O66	O	1.116888	-0.191695	0.590586
O67	O	1.366888	0.058305	0.840586
O68	O	1.616888	0.308305	1.090586
C69	C	0.742652	-0.301669	0.302090
C70	C	0.992652	-0.051669	0.552090
C71	C	1.242652	0.198331	0.802090
C72	C	1.492652	0.448331	1.052090
C73	C	0.673011	-0.301698	0.302074
C74	C	0.923011	-0.051698	0.552074
C75	C	1.173011	0.198302	0.802074
C76	C	1.423011	0.448302	1.052074
C77	C	0.640303	-0.341822	0.342076
C78	C	0.890303	-0.091822	0.592076
C79	C	1.140303	0.158178	0.842076
C80	C	1.390303	0.408178	1.092076
C81	C	0.574867	-0.341806	0.342104
C82	C	0.824867	-0.091806	0.592104
C83	C	1.074867	0.158194	0.842104
C84	C	1.324867	0.408194	1.092104
C85	C	0.542142	-0.301674	0.302118
C86	C	0.792142	-0.051674	0.552118
C87	C	1.042142	0.198326	0.802118
C88	C	1.292142	0.448326	1.052118
C89	C	0.574858	-0.261543	0.262113
C90	C	0.824858	-0.011543	0.512113
C91	C	1.074858	0.238457	0.762113
C92	C	1.324858	0.488457	1.012113
C93	C	0.640292	-0.261555	0.262091
C94	C	0.890292	-0.011555	0.512091
C95	C	1.140292	0.238445	0.762091
C96	C	1.390292	0.488445	1.012091
C97	C	0.438418	-0.296627	0.245713
C98	C	0.688418	-0.046627	0.495713
C99	C	0.938418	0.203373	0.745713
C100	C	1.188418	0.453373	0.995713
C101	C	0.372985	-0.296619	0.245735
C102	C	0.622985	-0.046619	0.495735
C103	C	0.872985	0.203381	0.745735
C104	C	1.122985	0.453381	0.995735
C105	C	0.340322	-0.301633	0.302188
C106	C	0.590322	-0.051633	0.552188
C107	C	0.840322	0.198367	0.802188
C108	C	1.090322	0.448367	1.052188
C109	C	0.373100	-0.306668	0.358621
C110	C	0.623100	-0.056668	0.608621
C111	C	0.873100	0.193332	0.858621
C112	C	1.123100	0.443332	1.108621
C113	C	0.438534	-0.306681	0.358599
C114	C	0.688534	-0.056681	0.608599
C115	C	0.938534	0.193319	0.858599
C116	C	1.188534	0.443319	1.108599
C117	C	0.471190	-0.301656	0.302138
C118	C	0.721190	-0.051656	0.552138
C119	C	0.971190	0.198344	0.802138
C120	C	1.221190	0.448344	1.052138
C121	C	0.236661	-0.341742	0.342223
C122	C	0.486661	-0.091742	0.592223
C123	C	0.736661	0.158258	0.842223
C124	C	0.986661	0.408258	1.092223
C125	C	0.171225	-0.341723	0.342252
C126	C	0.421225	-0.091723	0.592252
C127	C	0.671225	0.158277	0.842252
C128	C	0.921225	0.408277	1.092252
C129	C	0.171217	-0.261462	0.262256
C130	C	0.421217	-0.011462	0.512256
C131	C	0.671217	0.238538	0.762256
C132	C	0.921217	0.488538	1.012256
C133	C	0.236652	-0.261479	0.262233
C134	C	0.486652	-0.011479	0.512233
C135	C	0.736652	0.238521	0.762233
C136	C	0.986652	0.488521	1.012233
C137	C	0.269371	-0.301622	0.302216
C138	C	0.519371	-0.051622	0.552216
C139	C	0.769371	0.198378	0.802216
C140	C	1.019371	0.448378	1.052216
C141	C	0.905360	-0.464424	0.302130
C142	C	1.155360	-0.214424	0.552130
C143	C	1.405360	0.035576	0.802130
C144	C	1.655360	0.285576	1.052130
C145	C	0.905383	-0.534065	0.302138
C146	C	1.155383	-0.284065	0.552138
C147	C	1.405383	-0.034065	0.802138
C148	C	1.655383	0.215935	1.052138
C149	C	0.945446	-0.566710	0.342258
C150	C	1.195446	-0.316710	0.592258
C151	C	1.445446	-0.066710	0.842258
C152	C	1.695446	0.183290	1.092258
C153	C	0.945468	-0.632145	0.342273
C154	C	1.195468	-0.382145	0.592273
C155	C	1.445468	-0.132145	0.842273
C156	C	1.695468	0.117855	1.092273
C157	C	0.905433	-0.664933	0.302157
C158	C	1.155433	-0.414933	0.552157
C159	C	1.405433	-0.164933	0.802157
C160	C	1.655433	0.085067	1.052157
C161	C	0.865362	-0.632280	0.262034
C162	C	1.115362	-0.382280	0.512034
C163	C	1.365362	-0.132280	0.762034
C164	C	1.615362	0.117720	1.012034
C165	C	0.865337	-0.566846	0.262025
C166	C	1.115337	-0.316846	0.512025
C167	C	1.365337	-0.066846	0.762025
C168	C	1.615337	0.183154	1.012025
C169	C	0.900556	-0.768635	0.245717
C170	C	1.150556	-0.518635	0.495717
C171	C	1.400556	-0.268635	0.745717
C172	C	1.650556	-0.018635	0.995717
C173	C	0.900586	-0.834068	0.245725
C174	C	1.150586	-0.584068	0.495725
C175	C	1.400586	-0.334068	0.745725
C176	C	1.650586	-0.084068	0.995725
C177	C	0.905508	-0.866754	0.302187
C178	C	1.155508	-0.616754	0.552187
C179	C	1.405508	-0.366754	0.802187
C180	C	1.655508	-0.116754	1.052187
C181	C	0.910413	-0.833999	0.358643
C182	C	1.160413	-0.583999	0.608643
C183	C	1.410413	-0.333999	0.858643
C184	C	1.660413	-0.083999	1.108643
C185	C	0.910388	-0.768565	0.358633
C186	C	1.160388	-0.518565	0.608633
C187	C	1.410388	-0.268565	0.858633
C188	C	1.660388	-0.018565	1.108633
C189	C	0.905456	-0.735886	0.302163
C190	C	1.155456	-0.485886	0.552163
C191	C	1.405456	-0.235886	0.802163
C192	C	1.655456	0.014114	1.052163
C193	C	0.945597	-0.970351	0.342327
C194	C	1.195597	-0.720351	0.592327
C195	C	1.445597	-0.470351	0.842327
C196	C	1.695597	-0.220351	1.092327
C197	C	0.945614	-1.035788	0.342344
C198	C	1.195614	-0.785788	0.592344
C199	C	1.445614	-0.535788	0.842344
C200	C	1.695614	-0.285788	1.092344
C201	C	0.865512	-1.035922	0.262100
C202	C	1.115512	-0.785922	0.512100
C203	C	1.365512	-0.535922	0.762100
C204	C	1.615512	-0.285922	1.012100
C205	C	0.865491	-0.970486	0.262089
C206	C	1.115491	-0.720486	0.512089
C207	C	1.365491	-0.470486	0.762089
C208	C	1.615491	-0.220486	1.012089
C209	C	0.905537	-0.937705	0.302202
C210	C	1.155537	-0.687705	0.552202
C211	C	1.405537	-0.437705	0.802202
C212	C	1.655537	-0.187705	1.052202
C213	C	1.068863	-0.301603	0.302236
C214	C	1.318863	-0.051603	0.552236
C215	C	1.568863	0.198397	0.802236
C216	C	1.818863	0.448397	1.052236
C217	C	1.138504	-0.301589	0.302267
C218	C	1.388504	-0.051589	0.552267
C219	C	1.638504	0.198411	0.802267
C220	C	1.888504	0.448411	1.052267
C221	C	0.905492	-0.301623	0.465586
C222	C	1.155492	-0.051623	0.715586
C223	C	1.405492	0.198377	0.965586
C224	C	1.655492	0.448377	1.215586
C225	C	0.905514	-0.301618	0.535227
C226	C	1.155514	-0.051618	0.785227
C227	C	1.405514	0.198382	1.035227
C228	C	1.655514	0.448382	1.285227
C229	C	0.905537	-0.138213	0.302209
C230	C	1.155537	0.111787	0.552209
C231	C	1.405537	0.361787	0.802209
C232	C	1.655537	0.611787	1.052209
C233	C	0.905579	-0.068571	0.302228
C234	C	1.155579	0.181429	0.552228
C235	C	1.405579	0.431429	0.802228
C236	C	1.655579	0.681429	1.052228
C237	C	0.905424	-0.301603	0.139375
C238	C	1.155424	-0.051603	0.389375
C239	C	1.405424	0.198397	0.639375
C240	C	1.655424	0.448397	0.889375
C241	C	0.905523	-0.301432	0.069734
C242	C	1.155523	-0.051432	0.319734
C243	C	1.405523	0.198568	0.569734
C244	C	1.655523	0.448568	0.819734
C245	C	0.945609	-0.261535	0.567971
C246	C	1.195609	-0.011535	0.817971
C247	C	1.445609	0.238465	1.067971
C248	C	1.695609	0.488465	1.317971
C249	C	0.945609	-0.261508	0.633406
C250	C	1.195609	-0.011508	0.883406
C251	C	1.445609	0.238492	1.133406
C252	C	1.695609	0.488492	1.383406
C253	C	0.905519	-0.301575	0.666096
C254	C	1.155519	-0.051575	0.916096
C255	C	1.405519	0.198425	1.166096
C256	C	1.655519	0.448425	1.416096
C257	C	0.865415	-0.341661	0.633344
C258	C	1.115415	-0.091661	0.883344
C259	C	1.365415	0.158339	1.133344
C260	C	1.615415	0.408339	1.383344
C261	C	0.865413	-0.341682	0.567910
C262	C	1.115413	-0.091682	0.817910
C263	C	1.365413	0.158318	1.067910
C264	C	1.615413	0.408318	1.317910
C265	C	0.900544	-0.357992	0.769758
C266	C	1.150544	-0.107992	1.019758
C267	C	1.400544	0.142008	1.269758
C268	C	1.650544	0.392008	1.519758
C269	C	0.900551	-0.357972	0.835191
C270	C	1.150551	-0.107972	1.085191
C271	C	1.400551	0.142028	1.335191
C272	C	1.650551	0.392028	1.585191
C273	C	0.905523	-0.301509	0.867917
C274	C	1.155523	-0.051509	1.117917
C275	C	1.405523	0.198491	1.367917
C276	C	1.655523	0.448491	1.617917
C277	C	0.910501	-0.245065	0.835202
C278	C	1.160501	0.004935	1.085202
C279	C	1.410501	0.254935	1.335202
C280	C	1.660501	0.504935	1.585202
C281	C	0.910499	-0.245086	0.769767
C282	C	1.160499	0.004914	1.019767
C283	C	1.410499	0.254914	1.269767
C284	C	1.660499	0.504914	1.519767
C285	C	0.905517	-0.301556	0.737048
C286	C	1.155517	-0.051556	0.987048
C287	C	1.405517	0.198444	1.237048
C288	C	1.655517	0.448444	1.487048
C289	C	0.945619	-0.261393	0.971613
C290	C	1.195619	-0.011393	1.221613
C291	C	1.445619	0.238607	1.471613
C292	C	1.695619	0.488607	1.721613
C293	C	0.945614	-0.261365	1.037049
C294	C	1.195614	-0.011365	1.287049
C295	C	1.445614	0.238635	1.537049
C296	C	1.695614	0.488635	1.787049
C297	C	0.865424	-0.341524	1.036986
C298	C	1.115424	-0.091524	1.286986
C299	C	1.365424	0.158476	1.536986
C300	C	1.615424	0.408476	1.786986
C301	C	0.865426	-0.341547	0.971551
C302	C	1.115426	-0.091547	1.221551
C303	C	1.365426	0.158453	1.471551
C304	C	1.615426	0.408453	1.721551
C305	C	0.905527	-0.301482	0.938868
C306	C	1.155527	-0.051482	1.188868
C307	C	1.405527	0.198518	1.438868
C308	C	1.655527	0.448518	1.688868
H309	H	0.263283	-0.228809	0.229656
H310	H	0.513283	0.021191	0.479656
H311	H	0.763283	0.271191	0.729656
H312	H	1.013283	0.521191	0.979656
F313	F	0.988286	-0.218892	0.533191
F314	F	1.238286	0.031108	0.783191
F315	F	1.488286	0.281108	1.033191
F316	F	1.738286	0.531108	1.283191
F317	F	0.988113	-0.666896	0.384973
F318	F	1.238113	-0.416896	0.634973
F319	F	1.488113	-0.166896	0.884973
F320	F	1.738113	0.083104	1.134973
F321	F	0.540029	-0.218829	0.219561
F322	F	0.790029	0.031171	0.469561
F323	F	1.040029	0.281171	0.719561
F324	F	1.290029	0.531171	0.969561
F325	F	0.338106	-0.291261	0.185674
F326	F	0.588106	-0.041261	0.435674
F327	F	0.838106	0.208739	0.685674
F328	F	1.088106	0.458739	0.935674
F329	F	0.915605	-0.733707	0.418715
F330	F	1.165605	-0.483707	0.668715
F331	F	1.415605	-0.233707	0.918715
F332	F	1.665605	0.016293	1.168715
F333	F	0.473174	-0.291291	0.185624
F334	F	0.723174	-0.041291	0.435624
F335	F	0.973174	0.208709	0.685624
F336	F	1.223174	0.458709	0.935624
H337	H	0.548232	-0.374479	0.374681
H338	H	0.798232	-0.124479	0.624681
H339	H	1.048232	0.125521	0.874681
H340	H	1.298232	0.375521	1.124681
H341	H	0.832759	-0.374322	0.541251
H342	H	1.082759	-0.124322	0.791251
H343	H	1.332759	0.125678	1.041251
H344	H	1.582759	0.375678	1.291251
F345	F	0.895370	-0.868922	0.185641
F346	F	1.145370	-0.618922	0.435641
F347	F	1.395370	-0.368922	0.685641
F348	F	1.645370	-0.118922	0.935641
F349	F	0.915654	-0.868780	0.418738
F350	F	1.165654	-0.618780	0.668738
F351	F	1.415654	-0.368780	0.918738
F352	F	1.665654	-0.118780	1.168738
H353	H	0.978258	-0.228864	0.660071
H354	H	1.228258	0.021136	0.910071
H355	H	1.478258	0.271136	1.160071
H356	H	1.728258	0.521136	1.410071
F357	F	0.988295	-0.218751	0.936827
F358	F	1.238295	0.031249	1.186827
F359	F	1.488295	0.281249	1.436827
F360	F	1.738295	0.531249	1.686827
H361	H	0.832780	-0.374190	0.944891
H362	H	1.082780	-0.124190	1.194891
H363	H	1.332780	0.125810	1.444891
H364	H	1.582780	0.375810	1.694891
F365	F	0.675104	-0.218848	0.219514
F366	F	0.925104	0.031152	0.469514
F367	F	1.175104	0.281152	0.719514
F368	F	1.425104	0.531152	0.969514
H369	H	0.978052	-0.540021	0.374922
H370	H	1.228052	-0.290021	0.624922
H371	H	1.478052	-0.040021	0.874922
H372	H	1.728052	0.209979	1.124922
F373	F	0.822747	-0.384302	0.668136
F374	F	1.072747	-0.134302	0.918136
F375	F	1.322747	0.115698	1.168136
F376	F	1.572747	0.365698	1.418136
F377	F	0.473416	-0.312037	0.418657
F378	F	0.723416	-0.062037	0.668657
F379	F	0.973416	0.187963	0.918657
F380	F	1.223416	0.437963	1.168657
H381	H	0.978264	-0.228721	1.063708
H382	H	1.228264	0.021279	1.313708
H383	H	1.478264	0.271279	1.563708
H384	H	1.728264	0.521279	1.813708
H385	H	0.978239	-1.062367	0.375017
H386	H	1.228239	-0.812367	0.625017
H387	H	1.478239	-0.562367	0.875017
H388	H	1.728239	-0.312367	1.125017
F389	F	0.675120	-0.384544	0.384631
F390	F	0.925120	-0.134544	0.634631
F391	F	1.175120	0.115456	0.884631
F392	F	1.425120	0.365456	1.134631
F393	F	0.915795	-0.184969	0.870025
F394	F	1.165795	0.065031	1.120025
F395	F	1.415795	0.315031	1.370025
F396	F	1.665795	0.565031	1.620025
F397	F	0.915794	-0.185016	0.734952
F398	F	1.165794	0.064984	0.984952
F399	F	1.415794	0.314984	1.234952
F400	F	1.665794	0.564984	1.484952
F401	F	0.338343	-0.312003	0.418708
F402	F	0.588343	-0.062003	0.668708
F403	F	0.838343	0.187997	0.918708
F404	F	1.088343	0.437997	1.168708
F405	F	0.136393	-0.218747	0.219704
F406	F	0.386393	0.031253	0.469704
F407	F	0.636393	0.281253	0.719704
F408	F	0.886393	0.531253	0.969704
H409	H	0.978203	-0.943660	0.374992
H410	H	1.228203	-0.693660	0.624992
H411	H	1.478203	-0.443660	0.874992
H412	H	1.728203	-0.193660	1.124992
H413	H	0.832911	-1.062617	0.229440
H414	H	1.082911	-0.812617	0.479440
H415	H	1.332911	-0.562617	0.729440
H416	H	1.582911	-0.312617	0.979440
F417	F	0.895258	-0.418044	0.870002
F418	F	1.145258	-0.168044	1.120002
F419	F	1.395258	0.081956	1.370002
F420	F	1.645258	0.331956	1.620002
H421	H	0.263302	-0.374426	0.374783
H422	H	0.513302	-0.124426	0.624783
H423	H	0.763302	0.125574	0.874783
H424	H	1.013302	0.375574	1.124783
H425	H	0.144595	-0.374395	0.374831
H426	H	0.394595	-0.124395	0.624831
H427	H	0.644595	0.125605	0.874831
H428	H	0.894595	0.375605	1.124831
H429	H	0.832871	-0.943905	0.229417
H430	H	1.082871	-0.693905	0.479417
H431	H	1.332871	-0.443905	0.729417
H432	H	1.582871	-0.193905	0.979417
F433	F	0.895381	-0.733854	0.185613
F434	F	1.145381	-0.483854	0.435613
F435	F	1.395381	-0.233854	0.685613
F436	F	1.645381	0.016146	0.935613
H437	H	0.832764	-0.658980	0.229373
H438	H	1.082764	-0.408980	0.479373
H439	H	1.332764	-0.158980	0.729373
H440	H	1.582764	0.091020	0.979373
H441	H	0.832712	-0.540266	0.229354
H442	H	1.082712	-0.290266	0.479354
H443	H	1.332712	-0.040266	0.729354
H444	H	1.582712	0.209734	0.979354
F445	F	0.822753	-0.384163	1.071772
F446	F	1.072753	-0.134163	1.321772
F447	F	1.322753	0.115837	1.571772
F448	F	1.572753	0.365837	1.821772
H449	H	0.896327	-0.403959	0.743118
H450	H	1.146327	-0.153959	0.993118
H451	H	1.396327	0.096041	1.243118
H452	H	1.646327	0.346041	1.493118
