data_functionalizedCrystal
_audit_creation_method	'MofGen! by Chris Wilmer'
_symmetry_space_group_name_H-M	'P1'
_symmetry_Int_Tables_number	1
_symmetry_cell_setting	triclinic
loop_
_symmetry_equiv_pos_as_xyz
  x,y,z
_cell_length_a	16.109301
_cell_length_b	15.944551
_cell_length_c	15.186229
_cell_angle_alpha	89.995303
_cell_angle_beta	89.999006
_cell_angle_gamma	83.480161
loop_
_atom_site_label
_atom_site_type_symbol
_atom_site_fract_x
_atom_site_fract_y
_atom_site_fract_z
O1	O	1.103165	0.107967	-0.073182
O2	O	1.436499	0.441301	0.260151
O3	O	1.769832	0.774634	0.593485
O4	O	0.861108	0.121403	-0.073195
O5	O	1.194441	0.454737	0.260139
O6	O	1.527775	0.788070	0.593472
O7	O	0.988747	-0.007592	-0.073180
O8	O	1.322080	0.325742	0.260153
O9	O	1.655413	0.659075	0.593487
O10	O	0.975527	0.236962	-0.073197
O11	O	1.308860	0.570296	0.260137
O12	O	1.642193	0.903629	0.593470
O13	O	0.988738	-0.007594	0.073277
O14	O	1.322072	0.325740	0.406610
O15	O	1.655405	0.659073	0.739944
O16	O	0.861099	0.121401	0.073263
O17	O	1.194433	0.454735	0.406596
O18	O	1.527766	0.788068	0.739929
O19	O	1.103157	0.107965	0.073275
O20	O	1.436490	0.441299	0.406609
O21	O	1.769824	0.774632	0.739942
Zn22	Zn	0.982127	0.114683	0.096522
Zn23	Zn	1.315460	0.448016	0.429855
Zn24	Zn	1.648793	0.781350	0.763189
Zn25	Zn	0.982138	0.114686	-0.096442
Zn26	Zn	1.315471	0.448019	0.236892
Zn27	Zn	1.648805	0.781352	0.570225
O28	O	0.975518	0.236960	0.073261
O29	O	1.308851	0.570294	0.406594
O30	O	1.642185	0.903627	0.739927
C31	C	0.830129	0.120858	0.000032
C32	C	1.163462	0.454191	0.333366
C33	C	1.496795	0.787525	0.666699
C34	C	0.737833	0.119226	0.000028
C35	C	1.071166	0.452560	0.333361
C36	C	1.404499	0.785893	0.666694
C37	C	0.428858	0.190435	0.000038
C38	C	0.762191	0.523768	0.333372
C39	C	1.095524	0.857102	0.666705
C40	C	0.515578	0.191976	0.000033
C41	C	0.848912	0.525309	0.333366
C42	C	1.182245	0.858643	0.666700
C43	C	0.535402	0.038928	0.000032
C44	C	0.868735	0.372261	0.333365
C45	C	1.202069	0.705594	0.666698
C46	C	0.448683	0.037388	0.000031
C47	C	0.782016	0.370721	0.333364
C48	C	1.115349	0.704054	0.666697
C49	C	0.395412	0.113144	0.000038
C50	C	0.728746	0.446477	0.333372
C51	C	1.062079	0.779810	0.666705
C52	C	0.568852	0.116225	0.000034
C53	C	0.902186	0.449558	0.333368
C54	C	1.235519	0.782892	0.666701
C55	C	0.662879	0.117895	0.000029
C56	C	0.996212	0.451229	0.333362
C57	C	1.329546	0.784562	0.666695
C58	C	0.301380	0.111474	0.000042
C59	C	0.634713	0.444807	0.333376
C60	C	0.968047	0.778140	0.666709
C61	C	0.988194	-0.038886	0.000049
C62	C	1.321527	0.294447	0.333382
C63	C	1.654860	0.627780	0.666715
C64	C	0.986548	-0.132132	0.000049
C65	C	1.319882	0.201201	0.333382
C66	C	1.653215	0.534535	0.666716
C67	C	0.903499	-0.346961	0.000033
C68	C	1.236832	-0.013628	0.333366
C69	C	1.570166	0.319705	0.666699
C70	C	0.942060	-0.407992	0.072247
C71	C	1.275393	-0.074659	0.405580
C72	C	1.608727	0.258675	0.738914
C73	C	0.983572	-0.302857	0.000042
C74	C	1.316905	0.030477	0.333375
C75	C	1.650238	0.363810	0.666709
C76	C	0.942087	-0.407974	-0.072148
C77	C	1.275421	-0.074640	0.261185
C78	C	1.608754	0.258693	0.594518
C79	C	0.980691	-0.467769	0.000032
C80	C	1.314024	-0.134435	0.333365
C81	C	1.647357	0.198898	0.666698
C82	C	1.022155	-0.362660	0.072316
C83	C	1.355488	-0.029326	0.405649
C84	C	1.688821	0.304007	0.738983
C85	C	1.022171	-0.362635	-0.072144
C86	C	1.355504	-0.029301	0.261189
C87	C	1.688838	0.304032	0.594522
C88	C	1.060790	-0.423648	0.000088
C89	C	1.394124	-0.090315	0.333421
C90	C	1.727457	0.243019	0.666754
C91	C	0.985229	-0.207855	0.000049
C92	C	1.318562	0.125478	0.333382
C93	C	1.651896	0.458812	0.666716
C94	C	0.979039	-0.562769	0.000031
C95	C	1.312373	-0.229436	0.333364
C96	C	1.645706	0.103898	0.666698
C97	C	1.134136	0.108511	0.000046
C98	C	1.467470	0.441844	0.333379
C99	C	1.800803	0.775177	0.666713
C100	C	1.226432	0.110142	0.000045
C101	C	1.559765	0.443476	0.333378
C102	C	1.893099	0.776809	0.666712
C103	C	0.976071	0.268255	0.000030
C104	C	1.309405	0.601588	0.333363
C105	C	1.642738	0.934922	0.666697
C106	C	0.977717	0.361501	0.000024
C107	C	1.311050	0.694834	0.333357
C108	C	1.644383	1.028167	0.666690
N109	N	0.982125	0.114681	0.228215
N110	N	1.315459	0.448014	0.561548
N111	N	1.648792	0.781348	0.894881
N112	N	0.982146	0.114681	-0.228134
N113	N	1.315480	0.448014	0.105199
N114	N	1.648813	0.781348	0.438532
C115	C	1.038663	0.057581	0.453944
C116	C	1.371996	0.390915	0.787277
C117	C	1.705330	0.724248	1.120611
C118	C	1.038666	0.057579	0.546134
C119	C	1.371999	0.390913	0.879467
C120	C	1.705332	0.724246	1.212800
C121	C	0.925602	0.171784	0.546130
C122	C	1.258936	0.505117	0.879463
C123	C	1.592269	0.838450	1.212797
C124	C	0.925597	0.171781	0.453942
C125	C	1.258930	0.505114	0.787275
C126	C	1.592263	0.838448	1.120609
C127	C	0.982131	0.114681	0.407851
C128	C	1.315465	0.448014	0.741185
C129	C	1.648798	0.781347	1.074518
C130	C	0.982140	0.114681	0.592229
C131	C	1.315473	0.448015	0.925562
C132	C	1.648807	0.781348	1.258896
C133	C	0.982142	0.114680	0.692185
C134	C	1.315476	0.448013	1.025519
C135	C	1.648809	0.781346	1.358852
C136	C	0.982128	0.114681	0.307889
C137	C	1.315462	0.448014	0.641222
C138	C	1.648795	0.781348	0.974556
H139	H	0.837035	-0.313632	0.000101
H140	H	1.170368	0.019702	0.333435
H141	H	1.503702	0.353035	0.666768
Br142	Br	1.078555	-0.329368	0.174183
Br143	Br	1.411888	0.003965	0.507517
Br144	Br	1.745222	0.337299	0.840850
H145	H	0.385487	0.252121	0.000044
H146	H	0.718820	0.585454	0.333377
H147	H	1.052153	0.918787	0.666711
Br148	Br	0.560965	0.296876	0.000026
Br149	Br	0.894298	0.630209	0.333359
Br150	Br	1.227631	0.963543	0.666693
H151	H	1.084698	0.011083	0.583660
H152	H	1.418031	0.344416	0.916993
H153	H	1.751364	0.677749	1.250327
H154	H	0.879558	0.218278	0.416411
H155	H	1.212891	0.551612	0.749744
H156	H	1.546224	0.884945	1.083077
Br157	Br	0.885621	-0.441443	-0.173896
Br158	Br	1.218955	-0.108109	0.159438
Br159	Br	1.552288	0.225224	0.492771
Br160	Br	0.403288	-0.067516	0.000015
Br161	Br	0.736622	0.265818	0.333348
Br162	Br	1.069955	0.599151	0.666681
Br163	Br	0.607702	-0.063879	0.000028
Br164	Br	0.941035	0.269454	0.333362
Br165	Br	1.274368	0.602788	0.666695
H166	H	0.879574	0.218274	0.583666
H167	H	1.212907	0.551608	0.916999
H168	H	1.546241	0.884941	1.250333
H169	H	1.084696	0.011086	0.416419
H170	H	1.418029	0.344419	0.749753
H171	H	1.751363	0.677752	1.083086
Br172	Br	1.171664	-0.478954	0.000155
Br173	Br	1.504997	-0.145621	0.333489
Br174	Br	1.838330	0.187712	0.666822
Br175	Br	0.885610	-0.441489	0.174000
Br176	Br	1.218944	-0.108156	0.507333
Br177	Br	1.552277	0.225177	0.840667
H178	H	1.056013	-0.342515	-0.133195
H179	H	1.389346	-0.009181	0.200138
H180	H	1.722680	0.324152	0.533471
