data_functionalizedCrystal
_audit_creation_method	'MofGen! by Chris Wilmer'
_symmetry_space_group_name_H-M	'P1'
_symmetry_Int_Tables_number	1
_symmetry_cell_setting	triclinic
loop_
_symmetry_equiv_pos_as_xyz
  x,y,z
_cell_length_a	12.759401
_cell_length_b	18.215404
_cell_length_c	12.759393
_cell_angle_alpha	89.965468
_cell_angle_beta	90.017854
_cell_angle_gamma	89.974350
loop_
_atom_site_label
_atom_site_type_symbol
_atom_site_fract_x
_atom_site_fract_y
_atom_site_fract_z
Zn1	Zn	1.606189	0.292905	0.593942
Zn2	Zn	1.606055	0.415991	0.418253
Zn3	Zn	1.430491	0.292947	0.418283
Zn4	Zn	1.430451	0.415938	0.593896
O5	O	1.518297	0.354445	0.506093
O6	O	1.753192	0.309237	0.570643
O7	O	1.582727	0.399709	0.271236
O8	O	1.453870	0.189957	0.441616
O9	O	1.753094	0.399668	0.441565
O10	O	1.582954	0.189926	0.570672
O11	O	1.453740	0.309309	0.271258
O12	O	1.283465	0.309258	0.441572
O13	O	1.453803	0.399578	0.740923
O14	O	1.283436	0.399619	0.570594
O15	O	1.582916	0.309186	0.740957
O16	O	1.582689	0.518969	0.441520
O17	O	1.453673	0.518930	0.570565
C18	C	1.245329	0.354437	0.506082
C19	C	1.128553	0.354452	0.506102
C20	C	1.518191	0.545652	0.506057
C21	C	1.518241	0.627451	0.506077
C22	C	1.518370	0.354371	0.780127
C23	C	1.518401	0.354340	0.896904
C24	C	1.792330	0.354454	0.506105
C25	C	1.909106	0.354458	0.506110
C26	C	1.963960	0.401499	0.573286
C27	C	2.073684	0.401499	0.573280
C28	C	2.073691	0.307408	0.438919
C29	C	1.963969	0.307413	0.438921
C30	C	1.963957	0.455820	0.650861
C31	C	2.073681	0.455819	0.650855
C32	C	1.585582	0.815640	0.439021
C33	C	1.585631	0.892499	0.439053
C34	C	1.451171	0.892498	0.573316
C35	C	1.451129	0.815641	0.573290
C36	C	1.518332	0.777214	0.506136
C37	C	1.518424	0.930930	0.506194
C38	C	1.518477	1.014264	0.506229
C39	C	1.518282	0.693875	0.506103
C40	C	1.518438	1.162492	0.506172
C41	C	1.518515	1.080694	0.506253
C42	C	1.518284	0.354466	0.233126
C43	C	1.518456	0.354291	0.116350
C44	C	1.585640	0.307268	0.951785
C45	C	1.585665	0.307241	1.061509
C46	C	1.451210	0.401364	1.061461
C47	C	1.451180	0.401387	0.951739
C48	C	1.663270	0.252929	0.951813
C49	C	1.663295	0.252902	1.061537
H50	H	1.919311	0.269116	0.384208
H51	H	1.929961	0.435383	0.728160
H52	H	1.640306	0.784355	0.384343
H53	H	1.640395	0.923782	0.384403
H54	H	1.641514	0.195936	0.922062
H55	H	2.118374	0.269106	0.384216
H56	H	1.934143	0.512826	0.629056
H57	H	1.396455	0.923795	0.627989
N58	N	1.378657	0.452157	0.892547
H59	H	1.388835	0.445033	0.814717
H60	H	1.303638	0.440690	0.911728
H61	H	2.107671	0.509971	0.621694
N62	N	1.378696	0.452096	1.120605
H63	H	1.388910	0.444936	1.198442
H64	H	1.394990	0.504664	1.101414
H65	H	1.634194	0.198750	1.095590
N66	N	1.771059	0.273134	1.101001
H67	H	1.799883	0.231668	1.145002
H68	H	1.819059	0.282198	1.039417
H69	H	2.103495	0.440525	0.732227
H70	H	1.396365	0.784352	0.627948
N71	N	1.765587	0.280133	0.906831
H72	H	1.824669	0.247405	0.931265
H73	H	1.761822	0.279241	0.827776
