data_functionalizedCrystal
_audit_creation_method	'MofGen! by Chris Wilmer'
_symmetry_space_group_name_H-M	'P1'
_symmetry_Int_Tables_number	1
_symmetry_cell_setting	triclinic
loop_
_symmetry_equiv_pos_as_xyz
  x,y,z
_cell_length_a	25.639242
_cell_length_b	21.295417
_cell_length_c	21.295420
_cell_angle_alpha	90.006945
_cell_angle_beta	90.025729
_cell_angle_gamma	90.026033
loop_
_atom_site_label
_atom_site_type_symbol
_atom_site_fract_x
_atom_site_fract_y
_atom_site_fract_z
Zn1	Zn	0.799273	-0.250847	0.356058
Zn2	Zn	1.299273	0.249153	0.856058
Zn3	Zn	0.799204	-0.356072	0.250784
Zn4	Zn	1.299204	0.143928	0.750784
Zn5	Zn	0.711844	-0.250813	0.250787
Zn6	Zn	1.211844	0.249187	0.750787
Zn7	Zn	0.711807	-0.356074	0.355999
Zn8	Zn	1.211807	0.143926	0.855999
O9	O	0.755532	-0.303452	0.303407
O10	O	1.255532	0.196548	0.803407
O11	O	0.872429	-0.264819	0.342116
O12	O	1.372429	0.235181	0.842116
O13	O	0.787602	-0.342094	0.162695
O14	O	1.287602	0.157906	0.662695
O15	O	0.723486	-0.162728	0.264778
O16	O	1.223486	0.337272	0.764778
O17	O	0.872378	-0.342128	0.264772
O18	O	1.372378	0.157872	0.764772
O19	O	0.787720	-0.162753	0.342120
O20	O	1.287720	0.337247	0.842120
O21	O	0.723419	-0.264760	0.162697
O22	O	1.223419	0.235240	0.662697
O23	O	0.638674	-0.264762	0.264721
O24	O	1.138674	0.235238	0.764721
O25	O	0.723423	-0.342131	0.444096
O26	O	1.223423	0.157869	0.944096
O27	O	0.638647	-0.342098	0.342019
O28	O	1.138647	0.157902	0.842019
O29	O	0.787684	-0.264821	0.444140
O30	O	1.287684	0.235179	0.944140
O31	O	0.787566	-0.444162	0.264714
O32	O	1.287566	0.055838	0.764714
O33	O	0.723356	-0.444164	0.342016
O34	O	1.223356	0.055836	0.842016
C35	C	0.755463	-0.467003	0.303372
C36	C	1.255463	0.032997	0.803372
C37	C	0.755482	-0.536971	0.303378
C38	C	1.255482	-0.036971	0.803378
C39	C	0.619689	-0.303427	0.303364
C40	C	1.119689	0.196573	0.803364
C41	C	0.561575	-0.303431	0.303361
C42	C	1.061575	0.196569	0.803361
C43	C	0.788946	-0.569816	0.263169
C44	C	1.288946	-0.069816	0.763169
C45	C	0.788970	-0.635559	0.263183
C46	C	1.288970	-0.135559	0.763183
C47	C	0.755522	-0.668454	0.303400
C48	C	1.255522	-0.168454	0.803400
C49	C	0.722055	-0.635601	0.343617
C50	C	1.222055	-0.135601	0.843617
C51	C	0.722036	-0.569860	0.343607
C52	C	1.222036	-0.069860	0.843607
N53	N	0.709784	-0.771717	0.308185
N54	N	1.209784	-0.271717	0.808185
N55	N	0.709804	-0.834169	0.308191
N56	N	1.209804	-0.334169	0.808191
C57	C	0.755580	-0.866529	0.303436
C58	C	1.255580	-0.366529	0.803436
N59	N	0.801336	-0.834078	0.298662
N60	N	1.301336	-0.334078	0.798662
N61	N	0.801315	-0.771620	0.298652
N62	N	1.301315	-0.271620	0.798652
C63	C	0.755540	-0.739739	0.303416
C64	C	1.255540	-0.239739	0.803416
C65	C	0.789073	-0.970659	0.263240
C66	C	1.289073	-0.470659	0.763240
C67	C	0.789099	-1.036403	0.263258
C68	C	1.289099	-0.536403	0.763258
C69	C	0.722179	-1.036444	0.343690
C70	C	1.222179	-0.536444	0.843690
C71	C	0.722159	-0.970701	0.343674
C72	C	1.222159	-0.470701	0.843674
C73	C	0.755605	-0.937813	0.303446
C74	C	1.255605	-0.437813	0.803446
C75	C	0.201207	-0.343787	0.343618
C76	C	0.701207	0.156213	0.843618
C77	C	0.146603	-0.343791	0.343628
C78	C	0.646603	0.156209	0.843628
O79	O	0.118361	-0.378073	0.377820
O80	O	0.618361	0.121927	0.877820
N81	N	0.119293	-0.303469	0.303448
N82	N	0.619293	0.196531	0.803448
C83	C	0.146590	-0.263136	0.263260
C84	C	0.646590	0.236864	0.763260
O85	O	0.118347	-0.228838	0.229085
O86	O	0.618347	0.271162	0.729085
C87	C	0.201194	-0.263129	0.263254
C88	C	0.701194	0.236871	0.763254
C89	C	0.228501	-0.303459	0.303432
C90	C	0.728501	0.196541	0.803432
C91	C	0.228514	-0.384113	0.383794
C92	C	0.728514	0.115887	0.883794
C93	C	0.283115	-0.384110	0.383783
C94	C	0.783115	0.115890	0.883783
C95	C	0.310408	-0.343781	0.343596
C96	C	0.810408	0.156219	0.843596
C97	C	0.283101	-0.303455	0.303421
C98	C	0.783101	0.196545	0.803421
C99	C	0.228490	-0.222793	0.223069
C100	C	0.728490	0.277207	0.723069
C101	C	0.283097	-0.222790	0.223066
C102	C	0.783097	0.277210	0.723066
C103	C	0.310404	-0.263119	0.263245
C104	C	0.810404	0.236881	0.763245
C105	C	0.364995	-0.263123	0.263224
C106	C	0.864995	0.236877	0.763224
N107	N	0.392305	-0.303446	0.303404
N108	N	0.892305	0.196554	0.803404
C109	C	0.365011	-0.343775	0.343590
C110	C	0.865011	0.156225	0.843590
C111	C	0.031920	-0.263152	0.263277
C112	C	0.531920	0.236848	0.763277
C113	C	-0.022683	-0.263161	0.263279
C114	C	0.477317	0.236839	0.763279
C115	C	-0.022666	-0.343816	0.343649
C116	C	0.477334	0.156184	0.843649
C117	C	0.031937	-0.343809	0.343643
C118	C	0.531937	0.156191	0.843643
C119	C	0.059229	-0.303474	0.303457
C120	C	0.559229	0.196526	0.803457
C121	C	0.479677	-0.343765	0.343564
C122	C	0.979677	0.156235	0.843564
C123	C	0.534282	-0.343760	0.343547
C124	C	1.034282	0.156240	0.843547
C125	C	0.534261	-0.263103	0.263181
C126	C	1.034261	0.236897	0.763181
C127	C	0.479660	-0.263110	0.263194
C128	C	0.979660	0.236890	0.763194
C129	C	0.452369	-0.303443	0.303391
C130	C	0.952369	0.196557	0.803391
O131	O	0.393271	-0.228858	0.229051
O132	O	0.893271	0.271142	0.729051
O133	O	0.393261	-0.378060	0.377765
O134	O	0.893261	0.121940	0.877765
C135	C	0.891905	-0.303477	0.303450
C136	C	1.391905	0.196523	0.803450
C137	C	0.950019	-0.303488	0.303469
C138	C	1.450019	0.196512	0.803469
C139	C	0.755557	-0.303480	0.467597
C140	C	1.255557	0.196520	0.967597
C141	C	0.755568	-0.303493	0.537565
C142	C	1.255568	0.196507	1.037565
C143	C	0.755615	-0.139261	0.303456
C144	C	1.255615	0.360739	0.803456
C145	C	0.755650	-0.069293	0.303477
C146	C	1.255650	0.430707	0.803477
C147	C	0.789024	-0.263244	0.570456
C148	C	1.289024	0.236756	1.070456
C149	C	0.789016	-0.263234	0.636198
C150	C	1.289016	0.236766	1.136198
C151	C	0.755558	-0.303483	0.669048
C152	C	1.255558	0.196517	1.169048
C153	C	0.722096	-0.343735	0.636150
C154	C	1.222096	0.156265	1.136150
C155	C	0.722101	-0.343739	0.570408
C156	C	1.222101	0.156261	1.070408
N157	N	0.751512	-0.358577	0.772262
N158	N	1.251512	0.141423	1.272262
N159	N	0.751511	-0.358571	0.834714
N160	N	1.251511	0.141429	1.334714
C161	C	0.755539	-0.303470	0.867123
C162	C	1.255539	0.196530	1.367123
N163	N	0.759580	-0.248375	0.834721
N164	N	1.259580	0.251625	1.334721
N165	N	0.759585	-0.248382	0.772263
N166	N	1.259585	0.251618	1.272263
C167	C	0.755548	-0.303482	0.740333
C168	C	1.255548	0.196518	1.240333
C169	C	0.788988	-0.263207	0.971298
C170	C	1.288988	0.236793	1.471298
C171	C	0.788976	-0.263195	1.037042
C172	C	1.288976	0.236805	1.537042
C173	C	0.722059	-0.343702	1.036992
C174	C	1.222059	0.156298	1.536992
C175	C	0.722068	-0.343708	0.971250
C176	C	1.222068	0.156292	1.471250
C177	C	0.755535	-0.303461	0.938407
C178	C	1.255535	0.196539	1.438407
C179	C	0.755509	-0.303442	1.139855
C180	C	1.255509	0.196558	1.639855
C181	C	0.755517	-0.303444	1.069887
C182	C	1.255517	0.196556	1.569887
H183	H	0.816222	-0.662306	0.230439
H184	H	1.316222	-0.162306	0.730439
C185	C	0.825780	-0.218920	1.073222
C186	C	1.325780	0.281080	1.573222
H187	H	0.845714	-0.194958	1.044243
H188	H	1.345714	0.305042	1.544243
H189	H	0.805794	-0.191483	1.098855
H190	H	1.305794	0.308517	1.598855
H191	H	0.848546	-0.243009	1.098881
H192	H	1.348546	0.256991	1.598881
C193	C	0.685270	-0.387987	0.935069
C194	C	1.185270	0.112013	1.435069
H195	H	0.665344	-0.411960	0.964047
H196	H	1.165344	0.088040	1.464047
H197	H	0.662504	-0.363904	0.909409
H198	H	1.162504	0.136096	1.409409
H199	H	0.705262	-0.415423	0.909436
H200	H	1.205262	0.084577	1.409436
H201	H	0.694907	-0.943957	0.376414
H202	H	1.194907	-0.443957	0.876414
C203	C	-0.052694	-0.388175	0.387858
C204	C	0.447306	0.111825	0.887858
H205	H	-0.028613	-0.412196	0.411786
H206	H	0.471387	0.087804	0.911786
H207	H	-0.073974	-0.364141	0.415330
H208	H	0.426026	0.135859	0.915330
H209	H	-0.074014	-0.415564	0.363726
H210	H	0.425986	0.084436	0.863726
H211	H	0.694785	-0.543117	0.376351
H212	H	1.194785	-0.043117	0.876351
H213	H	0.054167	-0.376648	0.376360
H214	H	0.554167	0.123352	0.876360
C215	C	-0.052715	-0.218803	0.219079
C216	C	0.447285	0.281197	0.719079
H217	H	-0.028634	-0.194783	0.195150
H218	H	0.471366	0.305217	0.695150
H219	H	-0.074038	-0.242833	0.191609
H220	H	0.425962	0.257167	0.691609
H221	H	-0.073992	-0.191413	0.243217
H222	H	0.426008	0.308587	0.743217
C223	C	0.564317	-0.388121	0.387748
C224	C	1.064317	0.111879	0.887748
H225	H	0.540238	-0.412134	0.411687
H226	H	1.040238	0.087866	0.911687
H227	H	0.585597	-0.415508	0.363617
H228	H	1.085597	0.084492	0.863617
H229	H	0.585638	-0.364083	0.415219
H230	H	1.085638	0.135917	0.915219
H231	H	0.457463	-0.376607	0.376297
H232	H	0.957463	0.123393	0.876297
C233	C	0.198464	-0.178425	0.178877
C234	C	0.698464	0.321575	0.678877
H235	H	0.222547	-0.154403	0.154953
H236	H	0.722547	0.345597	0.654953
H237	H	0.177140	-0.202448	0.151401
H238	H	0.677140	0.297552	0.651401
H239	H	0.177187	-0.151037	0.203018
H240	H	0.677187	0.348963	0.703018
H241	H	0.816236	-0.230432	0.944556
H242	H	1.316236	0.269568	1.444556
H243	H	0.694852	-0.376504	0.662900
H244	H	1.194852	0.123496	1.162900
C245	C	0.061937	-0.218788	0.219062
C246	C	0.561937	0.281212	0.719062
H247	H	0.037848	-0.194781	0.195132
H248	H	0.537848	0.305219	0.695132
H249	H	0.083258	-0.191396	0.243185
H250	H	0.583258	0.308604	0.743185
H251	H	0.083216	-0.242821	0.191583
H252	H	0.583216	0.257179	0.691583
H253	H	0.457426	-0.230272	0.230477
H254	H	0.957426	0.269728	0.730477
C255	C	0.825832	-0.218970	0.534332
C256	C	1.325832	0.281030	1.034332
H257	H	0.845753	-0.194994	0.563339
H258	H	1.345753	0.305006	1.063339
H259	H	0.848602	-0.243054	0.508698
H260	H	1.348602	0.256946	1.008698
H261	H	0.805845	-0.191536	0.508677
H262	H	1.305845	0.308464	1.008677
C263	C	0.313116	-0.178419	0.178861
C264	C	0.813116	0.321581	0.678861
H265	H	0.289029	-0.154407	0.154934
H266	H	0.789029	0.345593	0.654934
H267	H	0.334437	-0.151033	0.202989
H268	H	0.834437	0.348967	0.702989
H269	H	0.334394	-0.202450	0.151379
H270	H	0.834394	0.297550	0.651379
H271	H	0.206298	-0.416954	0.416522
H272	H	0.706298	0.083046	0.916522
C273	C	0.564291	-0.218742	0.218982
C274	C	1.064291	0.281258	0.718982
H275	H	0.600720	-0.224514	0.224739
H276	H	1.100720	0.275486	0.724739
H277	H	0.555323	-0.227874	0.176669
H278	H	1.055323	0.272126	0.676669
H279	H	0.555361	-0.176462	0.228284
H280	H	1.055361	0.323538	0.728284
H281	H	0.816258	-0.230455	0.662982
H282	H	1.316258	0.269545	1.162982
H283	H	0.694855	-0.376514	0.543630
H284	H	1.194855	0.123486	1.043630
H285	H	0.694822	-0.662388	0.376364
H286	H	1.194822	-0.162388	0.876364
H287	H	0.816352	-1.063144	0.230516
H288	H	1.316352	-0.563144	0.730516
H289	H	0.694811	-0.376467	1.063738
H290	H	1.194811	0.123533	1.563738
C291	C	0.313148	-0.428482	0.427968
C292	C	0.813148	0.071518	0.927968
H293	H	0.349578	-0.422717	0.422206
H294	H	0.849578	0.077283	0.922206
H295	H	0.304225	-0.419355	0.470284
H296	H	0.804225	0.080645	0.970284
H297	H	0.304172	-0.470758	0.418660
H298	H	0.804172	0.029242	0.918660
C299	C	0.825723	-0.533640	0.218908
C300	C	1.325723	-0.033640	0.718908
H301	H	0.820913	-0.489782	0.224650
H302	H	1.320913	0.010218	0.724650
H303	H	0.860856	-0.544369	0.228148
H304	H	1.360856	-0.044369	0.728148
H305	H	0.818078	-0.544442	0.176608
H306	H	1.318078	-0.044442	0.676608
C307	C	0.825867	-0.934479	0.218998
C308	C	1.325867	-0.434479	0.718998
H309	H	0.845807	-0.963459	0.195059
H310	H	1.345807	-0.463459	0.695059
H311	H	0.805875	-0.908862	0.191539
H312	H	1.305875	-0.408862	0.691539
H313	H	0.848628	-0.908804	0.243109
H314	H	1.348628	-0.408804	0.743109
H315	H	0.694947	-1.063226	0.376438
H316	H	1.194947	-0.563226	0.876438
