data_functionalizedCrystal
_audit_creation_method	'MofGen! by Chris Wilmer'
_symmetry_space_group_name_H-M	'P1'
_symmetry_Int_Tables_number	1
_symmetry_cell_setting	triclinic
loop_
_symmetry_equiv_pos_as_xyz
  x,y,z
_cell_length_a	19.377625
_cell_length_b	31.640172
_cell_length_c	19.377574
_cell_angle_alpha	68.958939
_cell_angle_beta	90.000410
_cell_angle_gamma	52.472772
loop_
_atom_site_label
_atom_site_type_symbol
_atom_site_fract_x
_atom_site_fract_y
_atom_site_fract_z
Zr1	Zr	0.621125	0.462567	-0.254036
O2	O	0.486881	0.550739	-0.333157
O3	O	0.662264	0.374399	-0.229778
O4	O	0.626257	0.462568	-0.369175
O5	O	0.551306	0.462569	-0.083805
O6	O	0.736215	0.462564	-0.397589
O7	O	0.522888	0.462570	-0.193761
O8	O	0.800625	0.304847	-0.148234
O9	O	0.486897	0.620286	-0.333159
O10	O	0.761886	0.410660	-0.240641
O11	O	0.701034	0.410662	-0.137377
O12	O	0.658641	0.514469	-0.301498
O13	O	0.597789	0.514470	-0.198235
Zr14	Zr	0.841818	0.462560	-0.123987
Zr15	Zr	0.796495	0.462562	-0.299353
Zr16	Zr	0.666449	0.462565	-0.078669
Zr17	Zr	0.621149	0.573487	-0.254040
Zr18	Zr	0.841794	0.351639	-0.123982
O19	O	0.800679	0.550728	-0.148244
O20	O	0.736234	0.550731	-0.397592
O21	O	0.551326	0.550736	-0.083808
O22	O	0.976062	0.374388	-0.044865
O23	O	0.911617	0.374391	-0.294214
O24	O	0.726709	0.374396	0.019570
O25	O	0.911637	0.462558	-0.294217
O26	O	0.836686	0.462559	-0.008848
O27	O	0.726728	0.462563	0.019567
O28	O	0.940055	0.462557	-0.184262
O29	O	0.626292	0.620282	-0.369181
O30	O	0.836651	0.304845	-0.008842
O31	O	0.976047	0.304841	-0.044863
O32	O	0.940020	0.304842	-0.184256
O33	O	0.522923	0.620284	-0.193767
O34	O	0.662319	0.620280	-0.229788
O35	O	0.804303	0.410658	-0.076524
O36	O	0.865154	0.410657	-0.179788
O37	O	0.761909	0.514465	-0.240645
O38	O	0.701057	0.514467	-0.137381
C39	C	0.512111	0.462570	-0.132326
C40	C	0.437662	0.462573	-0.113088
C41	C	0.731441	0.323819	-0.189006
C42	C	0.731430	0.276731	-0.189004
C43	C	0.114533	0.462560	-0.352646
C44	C	0.044587	0.462558	-0.334544
C45	C	0.075917	0.462556	-0.213401
C46	C	0.145864	0.462562	-0.231495
C47	C	0.165167	0.462563	-0.301118
C48	C	0.196498	0.462564	-0.179967
C49	C	0.266442	0.462567	-0.198058
C50	C	0.285752	0.462566	-0.267676
C51	C	0.235111	0.462565	-0.319209
C52	C	0.177199	0.462559	-0.110341
C53	C	0.227832	0.462562	-0.058813
C54	C	0.297774	0.462568	-0.076906
C55	C	0.317084	0.462568	-0.146525
C56	C	0.348415	0.462569	-0.025374
C57	C	0.418359	0.462571	-0.043464
C58	C	0.387028	0.462570	-0.164616
C59	C	0.763254	-0.015312	-0.242910
C60	C	0.763271	-0.192308	-0.242914
O61	O	0.790323	-0.215213	-0.288735
N62	N	0.731506	-0.214436	-0.189013
C63	C	0.699739	-0.192316	-0.135104
O64	O	0.672730	-0.215203	-0.089252
C65	C	0.699729	-0.015324	-0.135097
C66	C	0.731488	0.006807	-0.189007
C67	C	0.795011	0.006818	-0.296815
C68	C	0.795002	0.051066	-0.296816
C69	C	0.763236	0.073185	-0.242913
C70	C	0.731478	0.051055	-0.189008
C71	C	0.667968	0.006793	-0.081185
C72	C	0.667971	0.051043	-0.081187
C73	C	0.699730	0.073173	-0.135096
C74	C	0.699703	0.117422	-0.135105
N75	N	0.731468	0.139551	-0.189007
C76	C	0.763235	0.117432	-0.242910
C77	C	0.699745	-0.285238	-0.135112
C78	C	0.699746	-0.329485	-0.135115
C79	C	0.763280	-0.329475	-0.242924
C80	C	0.763273	-0.285224	-0.242925
C81	C	0.731511	-0.263110	-0.189013
C82	C	0.763212	0.210358	-0.242909
C83	C	0.763197	0.254612	-0.242908
C84	C	0.699668	0.254596	-0.135096
C85	C	0.699679	0.210348	-0.135099
C86	C	0.731457	0.188228	-0.189009
O87	O	0.672675	0.140350	-0.089303
O88	O	0.790259	0.140317	-0.288744
C89	C	0.763263	-0.059561	-0.242909
C90	C	0.731506	-0.081691	-0.189004
C91	C	0.699739	-0.059572	-0.135101
C92	C	0.731507	-0.125938	-0.189007
C93	C	0.763273	-0.148056	-0.242910
C94	C	0.795039	-0.125928	-0.296812
C95	C	0.795030	-0.081680	-0.296813
C96	C	0.667974	-0.081700	-0.081199
C97	C	0.667985	-0.125948	-0.081203
C98	C	0.699751	-0.148067	-0.135107
C99	C	0.950832	0.462557	-0.245696
C100	C	1.025281	0.462554	-0.264935
C101	C	0.674778	0.462566	-0.408368
C102	C	0.655537	0.462567	-0.482815
C103	C	0.731502	0.601308	-0.189016
C104	C	0.731513	0.648396	-0.189018
C105	C	0.895116	0.462557	-0.805945
C106	C	0.877014	0.462558	-0.875895
C107	C	0.755869	0.462562	-0.844572
C108	C	0.773957	0.462563	-0.774619
C109	C	0.843583	0.462560	-0.755312
C110	C	0.722424	0.462567	-0.723986
C111	C	0.740515	0.462564	-0.654038
C112	C	0.810139	0.462559	-0.634723
C113	C	0.861673	0.462558	-0.685364
C114	C	0.652803	0.462566	-0.743292
C115	C	0.601270	0.462569	-0.692659
C116	C	0.619356	0.462571	-0.622712
C117	C	0.688980	0.462566	-0.603397
C118	C	0.567821	0.462573	-0.572071
C119	C	0.585912	0.462571	-0.502123
C120	C	0.707070	0.462564	-0.533449
C121	C	0.788165	0.462561	0.030345
C122	C	0.807406	0.462560	0.104793
C123	C	0.950802	0.323812	-0.245691
C124	C	1.025240	0.276721	-0.264928
C125	C	0.788134	0.323816	0.030351
C126	C	0.807365	0.276727	0.104800
C127	C	1.007495	0.323810	-0.026334
C128	C	1.101175	0.276718	0.028877
C129	C	0.455448	0.601317	-0.351688
C130	C	0.361769	0.648409	-0.406899
C131	C	0.512142	0.601314	-0.132331
C132	C	0.437703	0.648405	-0.113095
C133	C	0.674809	0.601310	-0.408373
C134	C	0.655578	0.648400	-0.482822
C135	C	1.006290	0.254609	-0.305733
C136	C	1.076223	0.210368	-0.323823
C137	C	1.165105	0.188238	-0.301101
C138	C	1.184053	0.210355	-0.260293
C139	C	1.114121	0.254598	-0.242209
C140	C	0.870303	0.254611	0.171535
C141	C	0.888371	0.210372	0.241495
C142	C	0.843505	0.188246	0.244719
C143	C	0.780559	0.210366	0.177977
C144	C	0.762488	0.254607	0.108020
C145	C	1.176939	0.254602	0.000900
C146	C	1.264966	0.210361	0.052768
C147	C	1.277227	0.188232	0.132613
C148	C	1.201454	0.210352	0.160590
C149	C	1.113429	0.254596	0.108722
C150	C	0.286004	0.670530	-0.378922
C151	C	0.197977	0.714785	-0.430790
C152	C	0.185716	0.736916	-0.510635
C153	C	0.261489	0.714793	-0.538612
C154	C	0.349515	0.670542	-0.486744
C155	C	0.456651	0.670522	-0.072296
C156	C	0.386714	0.714775	-0.054226
C157	C	0.297831	0.736907	-0.076950
C158	C	0.278883	0.714788	-0.117755
C159	C	0.348818	0.670539	-0.135829
C160	C	0.700460	0.670512	-0.486022
C161	C	0.682408	0.714752	-0.555972
C162	C	0.619470	0.736881	-0.622721
C163	C	0.574588	0.714765	-0.619520
C164	C	0.592645	0.670523	-0.549572
H165	H	0.402737	0.462577	-0.221314
H166	H	1.129564	0.272596	-0.208978
H167	H	0.411201	0.652531	-0.509534
F168	F	0.665861	0.278144	-0.077731
H169	H	0.136290	0.732790	-0.407996
F170	F	0.969212	0.462561	-0.785401
H171	H	1.256430	0.192330	-0.241797
H172	H	0.918364	0.462561	-0.669648
H173	H	0.114036	0.772948	-0.552861
F174	F	0.918066	0.278150	0.168120
F175	F	0.829395	0.462553	-0.560275
H176	H	0.939628	0.192367	0.295830
F177	F	0.828832	-0.058132	-0.354192
F178	F	0.328640	0.647002	-0.179247
H179	H	1.166973	0.272612	-0.064111
H180	H	0.789058	0.272630	-0.286810
F181	F	0.055370	0.462553	-0.139304
H182	H	0.918986	0.462555	-0.917120
F183	F	1.239525	0.141149	-0.320352
H184	H	1.326654	0.192355	0.029975
F185	F	0.299033	0.646984	-0.293947
F186	F	0.207285	0.462558	0.015284
H187	H	0.251495	0.732817	-0.603628
H188	H	0.820884	-0.011189	-0.340710
H189	H	0.529020	0.652506	-0.053783
H190	H	0.820867	0.069080	-0.340712
F191	F	1.214517	0.186796	0.245570
H192	H	0.332696	0.462562	0.031317
F193	F	1.370917	0.141143	0.187807
F194	F	1.056038	0.186836	-0.367251
H195	H	0.673804	0.192335	-0.091210
H196	H	1.051743	0.272597	0.131513
F197	F	0.781167	0.462568	-0.512904
F198	F	0.406898	0.738306	-0.010796
H199	H	0.642114	-0.143960	-0.037304
F200	F	0.828843	-0.149474	-0.354182
F201	F	0.223408	0.784001	-0.057707
F202	F	0.634165	-0.058167	-0.023823
H203	H	0.604775	0.772906	-0.679673
F204	F	0.634168	-0.016751	-0.023804
F205	F	0.797037	0.186821	-0.300285
F206	F	0.797076	-0.261676	-0.300301
F207	F	0.184282	0.738348	-0.141933
H208	H	0.523343	0.732790	-0.673877
H209	H	0.858228	0.152222	0.301688
H210	H	0.751708	0.652500	-0.431678
H211	H	0.699181	0.462563	-0.860299
F212	F	0.544863	0.646999	-0.546176
F213	F	0.633557	0.462564	-0.817737
H214	H	0.744034	0.192344	0.180613
F215	F	0.730180	0.738284	-0.559362
H216	H	0.789144	-0.347491	-0.286816
H217	H	0.342709	0.462565	-0.282403
H218	H	0.250820	0.462573	-0.375907
F219	F	0.135069	0.462570	-0.426753
F220	F	-0.009297	0.462553	-0.389394
H221	H	0.459588	0.462573	-0.001504
F222	F	0.665929	-0.353025	-0.077745
F223	F	0.102760	0.462553	-0.091089
H224	H	0.711241	0.272608	0.053684
H225	H	0.642104	0.069047	-0.037285
F226	F	0.665939	-0.261708	-0.077728
H227	H	0.511138	0.462570	-0.587797
F228	F	0.527174	0.462570	-0.713212
F229	F	0.911699	0.278155	-0.329926
F230	F	0.531065	0.462572	-0.448232
