data_functionalizedCrystal
_audit_creation_method	'MofGen! by Chris Wilmer'
_symmetry_space_group_name_H-M	'P1'
_symmetry_Int_Tables_number	1
_symmetry_cell_setting	triclinic
loop_
_symmetry_equiv_pos_as_xyz
  x,y,z
_cell_length_a	14.519731
_cell_length_b	10.489763
_cell_length_c	8.965430
_cell_angle_alpha	89.994510
_cell_angle_beta	89.997186
_cell_angle_gamma	95.881393
loop_
_atom_site_label
_atom_site_type_symbol
_atom_site_fract_x
_atom_site_fract_y
_atom_site_fract_z
O1	O	1.224767	-0.167323	0.124059
O2	O	0.956401	-0.186985	0.124063
O3	O	1.096680	0.008505	0.124033
O4	O	1.084489	-0.362813	0.124089
O5	O	1.096687	0.008499	-0.124046
O6	O	0.956408	-0.186991	-0.124016
O7	O	1.224774	-0.167329	-0.124020
Cu8	Cu	1.090592	-0.177160	-0.146669
Cu9	Cu	1.090584	-0.177153	0.146713
O10	O	1.084495	-0.362819	-0.123990
C11	C	0.922040	-0.186066	0.000024
C12	C	0.819645	-0.183306	0.000024
C13	C	0.736488	-0.181063	0.000030
C14	C	0.632164	-0.178260	0.000030
C15	C	0.549013	-0.176035	0.000030
C16	C	0.444682	-0.173232	0.000032
C17	C	1.095758	0.056024	-0.000010
C18	C	1.092990	0.197623	-0.000022
C19	C	1.003724	0.264842	-0.000018
C20	C	1.045889	0.357395	-0.122343
C21	C	1.045903	0.357376	0.122243
C22	C	1.135192	0.288312	-0.122449
C23	C	1.135194	0.288283	0.122248
C24	C	1.177424	0.380810	-0.000108
C25	C	1.259135	-0.168247	0.000023
C26	C	1.361531	-0.171008	0.000032
N27	N	1.090604	-0.177165	-0.353019
C28	C	1.085403	0.589660	0.000031
C29	C	1.088127	0.448053	-0.000024
C30	C	1.155499	-0.086763	-0.450298
C31	C	1.071997	-0.061790	-0.549706
C32	C	1.174073	-0.202055	-0.549738
C33	C	1.007059	-0.152135	-0.450237
C34	C	1.109191	-0.292450	-0.450261
C35	C	1.025629	-0.267526	-0.549624
N36	N	1.090579	-0.177139	0.353062
H37	H	0.930336	0.214434	-0.000135
H38	H	1.008121	0.388014	-0.225755
H39	H	1.210326	-0.010274	-0.406685
Br40	Br	1.198093	0.237190	0.294618
H41	H	1.172933	0.257867	-0.225970
H42	H	1.008118	0.387952	0.225659
Br43	Br	1.299850	0.464454	-0.000220
Br44	Br	1.045753	0.100723	-0.622495
Br45	Br	1.291740	-0.237159	-0.622600
H46	H	1.124955	-0.389924	-0.406546
H47	H	0.936443	-0.130960	-0.406715
H48	H	0.970678	-0.343969	-0.592960
