data_functionalizedCrystal
_audit_creation_method	'MofGen! by Chris Wilmer'
_symmetry_space_group_name_H-M	'P1'
_symmetry_Int_Tables_number	1
_symmetry_cell_setting	triclinic
loop_
_symmetry_equiv_pos_as_xyz
  x,y,z
_cell_length_a	7.540329
_cell_length_b	14.971486
_cell_length_c	14.971486
_cell_angle_alpha	83.614129
_cell_angle_beta	89.996199
_cell_angle_gamma	90.001997
loop_
_atom_site_label
_atom_site_type_symbol
_atom_site_fract_x
_atom_site_fract_y
_atom_site_fract_z
O1	O	0.147279	-1.186943	-0.116561
O2	O	0.147328	-0.926543	-0.130520
O3	O	0.147290	-1.063722	0.006659
O4	O	0.147317	-1.049763	-0.253741
O5	O	-0.147675	-1.063714	0.006661
O6	O	-0.147637	-0.926535	-0.130519
O7	O	-0.147686	-1.186935	-0.116560
Cu8	Cu	-0.174594	-1.056734	-0.123539
Cu9	Cu	0.174236	-1.056744	-0.123541
O10	O	-0.147648	-1.049755	-0.253739
C11	C	-0.000149	-0.893214	-0.129895
C12	C	-0.000131	-0.793917	-0.128024
C13	C	-0.000192	-1.063094	0.039985
C14	C	-0.000190	-1.061223	0.139282
N15	N	-0.419943	-1.056734	-0.123537
N16	N	0.419585	-1.056751	-0.123536
C17	C	-0.000205	-1.220263	-0.117185
C18	C	-0.000212	-1.319561	-0.119056
C19	C	-0.000124	-0.736692	-0.208614
C20	C	-0.000151	-0.643392	-0.206850
C21	C	-0.000171	-0.607320	-0.124497
C22	C	-0.000183	-0.664552	-0.043902
C23	C	-0.000169	-0.757850	-0.045666
C24	C	-0.000207	-0.470090	-0.040231
C25	C	-0.000218	-0.376786	-0.038466
C26	C	-0.000190	-0.355632	-0.201415
C27	C	-0.000176	-0.448930	-0.203179
C28	C	-0.000184	-0.506156	-0.122584
C29	C	-0.000162	-1.050384	-0.287065
C30	C	-0.000152	-1.052254	-0.386362
C31	C	-0.000207	-1.141812	0.196507
C32	C	-0.000188	-1.140049	0.289807
C33	C	-0.000167	-1.057696	0.325879
C34	C	-0.000145	-0.977101	0.268646
C35	C	-0.000151	-0.978865	0.175349
C36	C	-0.000138	-0.973430	0.463109
C37	C	-0.000136	-0.971665	0.556413
C38	C	-0.000176	-1.134614	0.577567
C39	C	-0.000181	-1.136378	0.484269
C40	C	-0.000163	-1.055782	0.427043
H41	H	-0.000144	-0.596802	-0.272474
H42	H	-0.000137	-0.913240	0.128756
H43	H	-0.000212	-1.203437	0.454903
C44	C	-0.000097	-0.776367	-0.299201
H45	H	-0.000072	-0.840128	-0.288712
H46	H	-0.102954	-0.756736	-0.332389
H47	H	0.102781	-0.756723	-0.332385
C48	C	-0.000121	-0.884776	0.400162
H49	H	-0.000125	-0.835476	0.435006
H50	H	0.102736	-0.882078	0.363320
H51	H	-0.102998	-0.882077	0.363334
H52	H	-0.000173	-0.804443	0.019958
C53	C	-0.000158	-0.488608	-0.293765
H54	H	-0.000173	-0.441166	-0.341513
H55	H	0.102705	-0.524561	-0.297841
H56	H	-0.103030	-0.524567	-0.297834
C57	C	-0.000265	-0.337103	0.052117
H58	H	-0.000255	-0.273342	0.041622
H59	H	-0.103138	-0.356742	0.085298
H60	H	0.102597	-0.356732	0.085312
H61	H	-0.000191	-0.309033	-0.267039
C62	C	-0.000071	-0.881079	0.596092
H63	H	-0.000027	-0.833332	0.548649
H64	H	-0.102921	-0.876988	0.632055
H65	H	0.102814	-0.877026	0.632040
H66	H	-0.000217	-0.516682	0.025399
C67	C	-0.000230	-1.232402	0.156836
H68	H	-0.000221	-1.280145	0.204283
H69	H	-0.103092	-1.236477	0.120884
H70	H	0.102642	-1.236479	0.120877
H71	H	-0.000224	-0.635175	0.023152
H72	H	-0.000206	-1.205673	0.336396
H73	H	-0.000185	-1.200238	0.624165
H74	H	-0.000116	-0.910047	0.298024
