data_functionalizedCrystal
_audit_creation_method	'MofGen! by Chris Wilmer'
_symmetry_space_group_name_H-M	'P1'
_symmetry_Int_Tables_number	1
_symmetry_cell_setting	triclinic
loop_
_symmetry_equiv_pos_as_xyz
  x,y,z
_cell_length_a	16.992694
_cell_length_b	16.992695
_cell_length_c	15.455313
_cell_angle_alpha	92.847427
_cell_angle_beta	87.142206
_cell_angle_gamma	90.668223
loop_
_atom_site_label
_atom_site_type_symbol
_atom_site_fract_x
_atom_site_fract_y
_atom_site_fract_z
O1	O	1.054080	0.163694	-0.072023
O2	O	1.554080	0.663694	0.427977
O3	O	0.825681	0.161862	-0.072048
O4	O	1.325681	0.661862	0.427952
O5	O	0.938965	0.048579	-0.072029
O6	O	1.438965	0.548579	0.427971
O7	O	0.940797	0.276978	-0.072042
O8	O	1.440797	0.776978	0.427958
O9	O	0.932485	0.055028	0.072232
O10	O	1.432485	0.555028	0.572232
O11	O	0.819202	0.168312	0.072213
O12	O	1.319202	0.668312	0.572213
O13	O	1.047601	0.170144	0.072238
O14	O	1.547601	0.670144	0.572238
Cu15	Cu	0.932809	0.169817	0.085398
Cu16	Cu	1.432809	0.669817	0.585398
Cu17	Cu	0.940473	0.162189	-0.085207
Cu18	Cu	1.440473	0.662189	0.414793
O19	O	0.934317	0.283428	0.072219
O20	O	1.434317	0.783428	0.572219
C21	C	0.793081	0.162731	0.000079
C22	C	1.293081	0.662731	0.500079
C23	C	0.705597	0.155702	0.000070
C24	C	1.205597	0.655702	0.500070
C25	C	0.659607	0.223520	0.000066
C26	C	1.159607	0.723520	0.500066
C27	C	0.577405	0.216911	0.000079
C28	C	1.077405	0.716911	0.500079
C29	C	0.541197	0.142484	0.000088
C30	C	1.041197	0.642484	0.500088
C31	C	0.587193	0.074661	0.000094
C32	C	1.087193	0.574661	0.500094
C33	C	0.669393	0.081271	0.000088
C34	C	1.169393	0.581271	0.500088
C35	C	0.295881	0.115091	0.000113
C36	C	0.795881	0.615091	0.500113
C37	C	0.213676	0.108486	0.000116
C38	C	0.713676	0.608486	0.500116
C39	C	0.203893	0.250737	0.000103
C40	C	0.703893	0.750737	0.500103
C41	C	0.286095	0.257340	0.000091
C42	C	0.786095	0.757340	0.500091
C43	C	0.332084	0.189517	0.000102
C44	C	0.832084	0.689517	0.500102
N45	N	0.457174	0.135727	0.000098
N46	N	0.957174	0.635727	0.500098
N47	N	0.416105	0.196275	0.000098
N48	N	0.916105	0.696275	0.500098
C49	C	0.933369	0.022443	0.000102
C50	C	1.433369	0.522443	0.500102
C51	C	0.926341	-0.065041	0.000101
C52	C	1.426341	0.434959	0.500101
C53	C	0.994158	-0.111032	0.000109
C54	C	1.494158	0.388968	0.500109
C55	C	0.987550	-0.193233	0.000100
C56	C	1.487550	0.306767	0.500100
C57	C	0.913123	-0.229442	0.000089
C58	C	1.413123	0.270558	0.500089
C59	C	0.845300	-0.183445	0.000078
C60	C	1.345300	0.316555	0.500078
C61	C	0.851910	-0.101246	0.000081
C62	C	1.351910	0.398754	0.500081
C63	C	0.885729	-0.474757	0.000074
C64	C	1.385729	0.025243	0.500074
C65	C	0.879124	-0.556962	0.000074
C66	C	1.379124	-0.056962	0.500074
C67	C	1.021375	-0.566744	0.000094
C68	C	1.521375	-0.066744	0.500094
C69	C	1.027977	-0.484543	0.000102
C70	C	1.527977	0.015457	0.500102
C71	C	0.960155	-0.438554	0.000087
C72	C	1.460155	0.061446	0.500087
N73	N	0.906366	-0.313464	0.000082
N74	N	1.406366	0.186536	0.500082
N75	N	0.966913	-0.354533	0.000087
N76	N	1.466913	0.145467	0.500087
C77	C	1.080201	0.169275	0.000109
C78	C	1.580201	0.669275	0.500109
C79	C	1.167685	0.176304	0.000113
C80	C	1.667685	0.676304	0.500113
C81	C	0.939913	0.309563	0.000087
C82	C	1.439913	0.809563	0.500087
C83	C	0.946942	0.397047	0.000082
C84	C	1.446942	0.897047	0.500082
N85	N	0.927425	0.175181	0.205392
N86	N	1.427425	0.675181	0.705392
N87	N	0.945863	0.156819	-0.205202
N88	N	1.445863	0.656819	0.294798
C89	C	0.975571	0.127074	0.250795
C90	C	1.475571	0.627074	0.750795
C91	C	0.971507	0.131139	0.341602
C92	C	1.471507	0.631139	0.841602
C93	C	0.919301	0.183315	0.387005
C94	C	1.419301	0.683315	0.887005
C95	C	0.871149	0.231424	0.341596
C96	C	1.371149	0.731424	0.841596
C97	C	0.875210	0.227355	0.250791
C98	C	1.375210	0.727355	0.750791
C99	C	0.901772	0.200858	0.658584
C100	C	1.401772	0.700858	1.158584
C101	C	0.897717	0.204926	0.749395
C102	C	1.397717	0.704926	1.249395
C103	C	0.998074	0.104639	0.749395
C104	C	1.498074	0.604639	1.249395
C105	C	1.002133	0.100578	0.658588
C106	C	1.502133	0.600578	1.158588
C107	C	0.953979	0.148684	0.613187
C108	C	1.453979	0.648684	1.113187
N109	N	0.915147	0.187473	0.479825
N110	N	1.415147	0.687473	0.979825
N111	N	0.958129	0.144522	0.520369
N112	N	1.458129	0.644522	1.020369
H113	H	0.333316	0.059864	0.000122
H114	H	0.833316	0.559864	0.500122
O115	O	1.044803	0.057791	0.793405
O116	O	1.544803	0.557791	1.293405
C117	C	1.028097	-0.021936	0.771245
C118	C	1.528097	0.478064	1.271245
H119	H	1.000712	-0.026707	0.705317
H120	H	1.500712	0.473293	1.205317
H121	H	1.084975	-0.057107	0.768140
H122	H	1.584975	0.442893	1.268140
H123	H	0.985099	-0.046464	0.822359
H124	H	1.485099	0.453536	1.322359
O125	O	0.773060	-0.218741	0.000105
O126	O	1.273060	0.281259	0.500105
C127	C	0.781767	-0.301155	0.000086
C128	C	1.281767	0.198845	0.500086
H129	H	0.840762	-0.315368	0.027404
H130	H	1.340762	0.184632	0.527404
H131	H	0.731950	-0.327399	0.041963
H132	H	1.231950	0.172601	0.541963
H133	H	0.779629	-0.327341	-0.069124
H134	H	1.279629	0.172659	0.430876
H135	H	1.018087	0.084591	0.213834
H136	H	1.518087	0.584591	0.713834
H137	H	1.010711	0.091966	0.378568
H138	H	1.510711	0.591966	0.878568
H139	H	0.184198	0.047876	0.000123
H140	H	0.684198	0.547876	0.500123
O141	O	0.551898	0.002421	0.000066
O142	O	1.051898	0.502421	0.500066
C143	C	0.469483	0.011128	0.000090
C144	C	0.969483	0.511128	0.500090
H145	H	0.455274	0.070129	-0.027226
H146	H	0.955274	0.570129	0.472774
H147	H	0.443245	-0.038681	-0.041787
H148	H	0.943245	0.461319	0.458213
H149	H	0.443289	0.008977	0.069301
H150	H	0.943289	0.508977	0.569301
H151	H	1.054764	-0.081557	0.000124
H152	H	1.554764	0.418443	0.500124
O153	O	1.052550	0.049535	0.614585
O154	O	1.552550	0.549535	1.114585
C155	C	1.009397	-0.004031	0.562370
C156	C	1.509397	0.495969	1.062370
H157	H	0.950554	0.023102	0.548583
H158	H	1.450554	0.523102	1.048583
H159	H	1.044279	-0.017763	0.498589
H160	H	1.544279	0.482237	0.998589
H161	H	0.998466	-0.060746	0.597714
H162	H	1.498466	0.439254	1.097714
O163	O	0.714097	0.015422	0.000241
O164	O	1.214097	0.515422	0.500241
C165	C	0.758606	0.018339	0.074942
C166	C	1.258606	0.518339	0.574942
H167	H	0.728719	0.059044	0.127161
H168	H	1.228719	0.559044	0.627161
H169	H	0.762743	-0.043369	0.100025
H170	H	1.262743	0.456631	0.600025
H171	H	0.820345	0.041700	0.058045
H172	H	1.320345	0.541700	0.558045
O173	O	1.053506	-0.237789	0.000153
O174	O	1.553506	0.262211	0.500153
C175	C	1.120614	-0.188205	0.000149
C176	C	1.620614	0.311795	0.500149
H177	H	1.103244	-0.126957	0.027459
H178	H	1.603244	0.373043	0.527459
H179	H	1.166563	-0.213507	0.042043
H180	H	1.666563	0.286493	0.542043
H181	H	1.146302	-0.184055	-0.069054
H182	H	1.646302	0.315945	0.430946
H183	H	0.796685	-0.063801	0.000073
H184	H	1.296685	0.436199	0.500073
H185	H	0.539963	0.272136	0.000075
H186	H	1.039963	0.772136	0.500075
H187	H	0.855202	0.247417	0.786359
H188	H	1.355202	0.747417	1.286359
H189	H	0.862564	0.240030	0.621625
H190	H	1.362564	0.740030	1.121625
O191	O	1.100338	-0.449500	0.000078
O192	O	1.600338	0.050500	0.500078
C193	C	1.158780	-0.507719	0.000109
C194	C	1.658780	-0.007719	0.500109
H195	H	1.134450	-0.566098	-0.027214
H196	H	1.634450	-0.066098	0.472786
H197	H	1.212318	-0.489257	-0.041759
H198	H	1.712318	0.010743	0.458241
H199	H	1.176829	-0.514880	0.069323
H200	H	1.676829	-0.014880	0.569323
H201	H	0.166440	0.305954	0.000096
H202	H	0.666440	0.805954	0.500096
O203	O	0.806871	-0.592235	-0.000057
O204	O	1.306871	-0.092235	0.499943
C205	C	0.802152	-0.642815	-0.074780
C206	C	1.302152	-0.142815	0.425220
H207	H	0.864036	-0.660482	-0.099677
H208	H	1.364036	-0.160482	0.400323
H209	H	0.766655	-0.697801	-0.057980
H210	H	1.266655	-0.197801	0.442020
H211	H	0.771949	-0.611065	-0.127106
H212	H	1.271949	-0.111065	0.372894
O213	O	1.087175	-0.611537	0.000063
O214	O	1.587175	-0.111537	0.500063
C215	C	1.065386	-0.691852	0.000080
C216	C	1.565386	-0.191852	0.500080
H217	H	1.004584	-0.700094	-0.027237
H218	H	1.504584	-0.200094	0.472763
H219	H	1.110178	-0.728085	-0.041801
H220	H	1.610178	-0.228085	0.458199
H221	H	1.063775	-0.712322	0.069289
H222	H	1.563775	-0.212322	0.569289
H223	H	0.689081	0.284126	0.000058
H224	H	1.189081	0.784126	0.500058
O225	O	0.819766	-0.430205	0.000109
O226	O	1.319766	0.069795	0.500109
C227	C	0.752662	-0.479794	0.000083
C228	C	1.252662	0.020206	0.500083
H229	H	0.767581	-0.538604	0.027393
H230	H	1.267581	-0.038604	0.527393
H231	H	0.702947	-0.450756	0.041966
H232	H	1.202947	0.049244	0.541966
H233	H	0.733194	-0.490122	-0.069127
H234	H	1.233194	0.009878	0.430873
O235	O	0.820504	0.282089	0.385833
O236	O	1.320504	0.782089	0.885833
C237	C	0.827230	0.275355	0.475716
C238	C	1.327230	0.775355	0.975716
H239	H	0.887417	0.250447	0.488115
H240	H	1.387417	0.750447	0.988115
H241	H	0.820662	0.335962	0.510215
H242	H	1.320662	0.835962	1.010215
H243	H	0.779050	0.234210	0.501501
H244	H	1.279050	0.734210	1.001501
O245	O	0.828526	0.274203	0.206723
O246	O	1.328526	0.774203	0.706723
C247	C	0.845195	0.353933	0.228909
C248	C	1.345195	0.853933	0.728909
H249	H	0.907127	0.359424	0.253862
H250	H	1.407127	0.859424	0.753862
H251	H	0.841283	0.390189	0.169185
H252	H	1.341283	0.890189	0.669185
H253	H	0.800654	0.376656	0.281620
H254	H	1.300654	0.876656	0.781620
O255	O	0.321137	0.329701	0.000126
O256	O	0.821137	0.829701	0.500126
C257	C	0.262918	0.388143	0.000104
C258	C	0.762918	0.888143	0.500104
H259	H	0.204534	0.363804	0.027421
H260	H	0.704534	0.863804	0.527421
H261	H	0.281371	0.441669	0.041982
H262	H	0.781371	0.941669	0.541982
H263	H	0.255770	0.406214	-0.069106
H264	H	0.755770	0.906214	0.430894
