data_functionalizedCrystal
_audit_creation_method	'MofGen! by Chris Wilmer'
_symmetry_space_group_name_H-M	'P1'
_symmetry_Int_Tables_number	1
_symmetry_cell_setting	triclinic
loop_
_symmetry_equiv_pos_as_xyz
  x,y,z
_cell_length_a	14.908571
_cell_length_b	16.625546
_cell_length_c	16.625539
_cell_angle_alpha	89.969603
_cell_angle_beta	86.686754
_cell_angle_gamma	86.718495
loop_
_atom_site_label
_atom_site_type_symbol
_atom_site_fract_x
_atom_site_fract_y
_atom_site_fract_z
Zn1	Zn	1.379213	-0.392241	-0.526897
Zn2	Zn	1.879213	0.107759	-0.026897
Zn3	Zn	1.379104	-0.527079	-0.392053
Zn4	Zn	1.879104	-0.027079	0.107947
Zn5	Zn	1.228346	-0.384477	-0.384311
Zn6	Zn	1.728346	0.115523	0.115689
Zn7	Zn	1.228313	-0.519241	-0.519081
Zn8	Zn	1.728313	-0.019241	-0.019081
O9	O	1.303744	-0.455759	-0.455585
O10	O	1.803744	0.044241	0.044415
O11	O	1.505443	-0.416657	-0.515521
O12	O	2.005443	0.083343	-0.015521
O13	O	1.359074	-0.508193	-0.278192
O14	O	1.859074	-0.008193	0.221808
O15	O	1.248418	-0.272677	-0.403256
O16	O	1.748418	0.227323	0.096744
O17	O	1.505364	-0.515722	-0.416452
O18	O	2.005364	-0.015722	0.083548
O19	O	1.359259	-0.278382	-0.508013
O20	O	1.859259	0.221618	-0.008013
O21	O	1.248313	-0.403424	-0.272504
O22	O	1.748313	0.096576	0.227496
O23	O	1.102096	-0.395824	-0.395677
O24	O	1.602096	0.104176	0.104323
O25	O	1.248361	-0.502364	-0.632952
O26	O	1.748361	-0.002364	-0.132952
O27	O	1.102072	-0.494835	-0.494692
O28	O	1.602072	0.005165	0.005308
O29	O	1.359227	-0.409057	-0.638694
O30	O	1.859227	0.090943	-0.138694
O31	O	1.359042	-0.638868	-0.408873
O32	O	1.859042	-0.138868	0.091127
O33	O	1.248256	-0.633110	-0.502200
O34	O	1.748256	-0.133110	-0.002200
C35	C	1.069350	-0.443637	-0.443497
C36	C	1.569350	0.056363	0.056503
C37	C	0.969076	-0.438470	-0.438344
C38	C	1.469076	0.061530	0.061656
C39	C	0.780672	-0.532021	-0.531628
C40	C	1.280672	-0.032021	-0.031628
C41	C	0.686455	-0.527169	-0.526790
C42	C	1.186455	-0.027169	-0.026790
C43	C	0.686423	-0.423910	-0.423834
C44	C	1.186423	0.076090	0.076166
C45	C	0.780640	-0.428762	-0.428672
C46	C	1.280640	0.071238	0.071328
C47	C	0.827761	-0.482820	-0.482570
C48	C	1.327761	0.017180	0.017430
C49	C	0.921980	-0.487676	-0.487404
C50	C	1.421980	0.012324	0.012596
C51	C	0.921946	-0.384414	-0.384453
C52	C	1.421946	0.115586	0.115547
C53	C	0.827729	-0.379562	-0.379614
C54	C	1.327729	0.120438	0.120386
C55	C	1.303658	-0.665246	-0.455547
C56	C	1.803658	-0.165246	0.044453
C57	C	1.303704	-0.754869	-0.455562
C58	C	1.803704	-0.254869	0.044438
C59	C	1.303862	-1.083053	-0.455654
C60	C	1.803862	-0.583053	0.044346
C61	C	1.303815	-0.991742	-0.455631
C62	C	1.803815	-0.491742	0.044369
C63	C	1.303782	-0.918964	-0.455608
C64	C	1.803782	-0.418964	0.044392
C65	C	1.303737	-0.827647	-0.455585
C66	C	1.803737	-0.327647	0.044415
C67	C	1.539053	-0.467930	-0.467722
C68	C	2.039053	0.032070	0.032278
C69	C	1.639327	-0.473116	-0.472893
C70	C	2.139327	0.026884	0.027107
C71	C	1.303803	-0.455702	-0.665897
C72	C	1.803803	0.044298	-0.165897
C73	C	1.303828	-0.455678	-0.755520
C74	C	1.803828	0.044322	-0.255520
C75	C	1.303854	-0.245456	-0.455643
C76	C	1.803854	0.254544	0.044357
C77	C	1.303901	-0.155837	-0.455667
C78	C	1.803901	0.344163	0.044333
C79	C	1.303869	-0.455590	-1.083698
C80	C	1.803869	0.044410	-0.583698
C81	C	1.303855	-0.455617	-0.992389
C82	C	1.803855	0.044383	-0.492389
C83	C	1.303849	-0.455635	-0.919612
C84	C	1.803849	0.044365	-0.419612
C85	C	1.303834	-0.455660	-0.828297
C86	C	1.803834	0.044340	-0.328297
C87	C	1.303737	-0.455761	-0.246094
C88	C	1.803737	0.044239	0.253906
C89	C	1.303887	-0.455567	-0.156481
C90	C	1.803887	0.044433	0.343519
H91	H	0.648119	-0.567232	-0.566739
H92	H	1.148119	-0.067232	-0.066739
H93	H	0.648041	-0.379894	-0.379958
H94	H	1.148041	0.120106	0.120042
N95	N	0.776904	-0.321276	-0.321468
N96	N	1.276904	0.178724	0.178532
H97	H	0.710072	-0.325672	-0.325840
H98	H	1.210072	0.174328	0.174160
H99	H	0.793349	-0.334626	-0.264712
H100	H	1.293349	0.165374	0.235288
N101	N	0.972804	-0.545976	-0.545538
N102	N	1.472804	-0.045976	-0.045538
H103	H	1.039636	-0.541588	-0.541159
H104	H	1.539636	-0.041588	-0.041159
H105	H	0.956311	-0.602697	-0.532042
H106	H	1.456311	-0.102697	-0.032042
H107	H	0.819039	-0.576042	-0.575509
H108	H	1.319039	-0.076042	-0.075509
N109	N	0.972734	-0.331348	-0.331530
N110	N	1.472734	0.168652	0.168470
H111	H	1.039571	-0.342625	-0.342770
H112	H	1.539571	0.157375	0.157230
H113	H	0.956291	-0.272929	-0.343332
H114	H	1.456291	0.227071	0.156668
