data_functionalizedCrystal
_audit_creation_method	'MofGen! by Chris Wilmer'
_symmetry_space_group_name_H-M	'P1'
_symmetry_Int_Tables_number	1
_symmetry_cell_setting	triclinic
loop_
_symmetry_equiv_pos_as_xyz
  x,y,z
_cell_length_a	14.971482
_cell_length_b	11.026607
_cell_length_c	14.048226
_cell_angle_alpha	89.996210
_cell_angle_beta	89.994098
_cell_angle_gamma	96.099312
loop_
_atom_site_label
_atom_site_type_symbol
_atom_site_fract_x
_atom_site_fract_y
_atom_site_fract_z
O1	O	1.212290	0.158158	-0.079145
O2	O	1.712290	0.658158	0.420855
O3	O	0.954926	0.177105	-0.079150
O4	O	1.454926	0.677105	0.420850
O5	O	1.062278	-0.009052	-0.079144
O6	O	1.562278	0.490948	0.420856
O7	O	1.104938	0.344316	-0.079151
O8	O	1.604938	0.844316	0.420849
O9	O	1.062260	-0.009063	0.079177
O10	O	1.562260	0.490937	0.579177
O11	O	0.954907	0.177094	0.079172
O12	O	1.454907	0.677094	0.579172
O13	O	1.212272	0.158147	0.079176
O14	O	1.712272	0.658147	0.579176
Zn15	Zn	1.083587	0.167619	0.104311
Zn16	Zn	1.583587	0.667619	0.604311
Zn17	Zn	1.083611	0.167634	-0.104284
Zn18	Zn	1.583611	0.667634	0.395716
O19	O	1.104920	0.344305	0.079171
O20	O	1.604920	0.844305	0.579171
C21	C	0.921456	0.176254	0.000010
C22	C	1.421456	0.676254	0.500010
C23	C	0.821752	0.173717	0.000009
C24	C	1.321752	0.673717	0.500009
C25	C	0.774906	0.172516	0.086311
C26	C	1.274906	0.672516	0.586311
C27	C	0.681223	0.170113	0.086312
C28	C	1.181223	0.670113	0.586312
C29	C	0.634388	0.168919	0.000010
C30	C	1.134388	0.668919	0.500010
C31	C	0.681240	0.170117	-0.086299
C32	C	1.181240	0.670117	0.413701
C33	C	0.774921	0.172511	-0.086299
C34	C	1.274921	0.672511	0.413701
C35	C	0.485979	0.165129	-0.086293
C36	C	0.985979	0.665129	0.413707
C37	C	0.392291	0.162737	-0.086293
C38	C	0.892291	0.662737	0.413707
C39	C	0.392281	0.162731	0.086318
C40	C	0.892281	0.662731	0.586318
C41	C	0.485962	0.165125	0.086318
C42	C	0.985962	0.665125	0.586318
C43	C	0.532808	0.166325	0.000009
C44	C	1.032808	0.666325	0.500009
C45	C	1.054399	-0.054279	0.000015
C46	C	1.554399	0.445721	0.500015
C47	C	1.030938	-0.189027	0.000011
C48	C	1.530938	0.310973	0.500011
C49	C	1.095717	-0.262740	0.000011
C50	C	1.595717	0.237260	0.500011
C51	C	1.071471	-0.402009	0.000007
C52	C	1.571471	0.097991	0.500007
C53	C	1.245742	0.158999	0.000014
C54	C	1.745742	0.658999	0.500014
C55	C	1.345445	0.161536	0.000009
C56	C	1.845445	0.661536	0.500009
C57	C	1.112799	0.389532	0.000009
C58	C	1.612799	0.889532	0.500009
C59	C	1.136260	0.524280	0.000007
C60	C	1.636260	1.024280	0.500007
N61	N	1.083577	0.167609	0.246671
N62	N	1.583577	0.667609	0.746671
N63	N	1.083626	0.167635	-0.246645
N64	N	1.583626	0.667635	0.253355
C65	C	1.131137	0.085212	0.296492
C66	C	1.631137	0.585212	0.796492
C67	C	1.131143	0.085212	0.396149
C68	C	1.631143	0.585212	0.896149
C69	C	1.083593	0.167614	0.445985
C70	C	1.583593	0.667614	0.945985
C71	C	1.036027	0.250014	0.396158
C72	C	1.536027	0.750014	0.896158
C73	C	1.036017	0.250008	0.296502
C74	C	1.536017	0.750008	0.796502
C75	C	1.036055	0.250023	0.603872
C76	C	1.536055	0.750023	1.103872
C77	C	1.036066	0.250031	0.703535
C78	C	1.536066	0.750031	1.203535
C79	C	1.131181	0.085227	0.703520
C80	C	1.631181	0.585227	1.203520
C81	C	1.131170	0.085220	0.603864
C82	C	1.631170	0.585220	1.103864
C83	C	1.083605	0.167623	0.554043
C84	C	1.583605	0.667623	1.054043
H85	H	0.354134	0.161755	0.156594
H86	H	0.854134	0.661755	0.656594
C87	C	0.340774	0.161419	-0.181229
C88	C	0.840774	0.661419	0.318771
N89	N	0.301971	0.160425	-0.252737
N90	N	0.801971	0.660425	0.247263
C91	C	0.983706	0.340660	0.241700
C92	C	1.483706	0.840660	0.741700
N93	N	0.944304	0.408943	0.200424
N94	N	1.444304	0.908943	0.700424
C95	C	1.183437	-0.005460	0.450947
C96	C	1.683437	0.494540	0.950947
N97	N	1.222817	-0.073770	0.492221
N98	N	1.722817	0.426230	0.992221
H99	H	1.209676	-0.435731	-0.000064
H100	H	1.709676	0.064269	0.499936
C101	C	0.629718	0.168800	-0.181232
C102	C	1.129718	0.668800	0.318768
N103	N	0.590912	0.167813	-0.252738
N104	N	1.090912	0.667813	0.247262
H105	H	0.997306	0.317104	0.436739
H106	H	1.497306	0.817104	0.936739
H107	H	0.813033	0.173498	0.156588
H108	H	1.313033	0.673498	0.656588
H109	H	0.813062	0.173491	-0.156575
H110	H	1.313062	0.673491	0.343425
C111	C	1.194894	-0.208713	0.000020
C112	C	1.694894	0.291287	0.500020
N113	N	1.269596	-0.168021	0.000030
N114	N	1.769596	0.331979	0.500030
H115	H	0.643084	0.169115	0.156588
H116	H	1.143084	0.669115	0.656588
C117	C	0.931761	-0.243054	0.000011
C118	C	1.431761	0.256946	0.500011
N119	N	0.857059	-0.283745	0.000013
N120	N	1.357059	0.216255	0.500013
C121	C	1.183446	-0.005439	0.241682
C122	C	1.683446	0.494561	0.741682
N123	N	1.222843	-0.073725	0.200402
N124	N	1.722843	0.426275	0.700402
C125	C	0.972289	-0.456030	0.000007
C126	C	1.472289	0.043970	0.500007
N127	N	0.897587	-0.496722	0.000009
N128	N	1.397587	0.003278	0.500009
C129	C	1.183499	-0.005421	0.758324
C130	C	1.683499	0.494579	1.258324
N131	N	1.222905	-0.073693	0.799607
N132	N	1.722905	0.426307	1.299607
C133	C	0.983753	0.340671	0.758352
C134	C	1.483753	0.840671	1.258352
N135	N	0.944348	0.408940	0.799640
N136	N	1.444348	0.908940	1.299640
C137	C	0.983719	0.340658	0.549072
C138	C	1.483719	0.840658	1.049072
N139	N	0.944301	0.408922	0.507796
N140	N	1.444301	0.908922	1.007796
H141	H	0.524093	0.166105	0.156593
H142	H	1.024093	0.666105	0.656593
H143	H	0.524118	0.166106	-0.156575
H144	H	1.024118	0.666106	0.343425
H145	H	1.169894	0.018128	0.563288
H146	H	1.669894	0.518128	1.063288
