data_functionalizedCrystal
_audit_creation_method	'MofGen! by Chris Wilmer'
_symmetry_space_group_name_H-M	'P1'
_symmetry_Int_Tables_number	1
_symmetry_cell_setting	triclinic
loop_
_symmetry_equiv_pos_as_xyz
  x,y,z
_cell_length_a	13.897449
_cell_length_b	13.897441
_cell_length_c	10.685194
_cell_angle_alpha	85.599334
_cell_angle_beta	94.377705
_cell_angle_gamma	89.976606
loop_
_atom_site_label
_atom_site_type_symbol
_atom_site_fract_x
_atom_site_fract_y
_atom_site_fract_z
Zn1	Zn	1.445333	-0.516007	-0.502344
Zn2	Zn	1.432888	-0.342338	-0.713404
Zn3	Zn	1.284019	-0.354714	-0.502403
Zn4	Zn	1.271669	-0.503588	-0.713319
O5	O	1.358477	-0.429162	-0.607868
O6	O	1.578663	-0.492987	-0.530353
O7	O	1.413100	-0.208994	-0.685474
O8	O	1.315794	-0.386487	-0.325796
O9	O	1.569520	-0.365393	-0.685417
O10	O	1.434311	-0.504988	-0.325754
O11	O	1.303726	-0.218087	-0.530452
O12	O	1.147400	-0.374445	-0.530370
O13	O	1.294747	-0.640221	-0.685273
O14	O	1.138327	-0.483822	-0.685330
O15	O	1.422337	-0.649345	-0.530271
O16	O	1.401125	-0.353351	-0.889991
O17	O	1.282679	-0.471821	-0.889929
C18	C	1.107864	-0.429129	-0.607848
C19	C	1.000649	-0.429136	-0.607870
C20	C	0.913579	-0.429152	-0.607874
C21	C	0.804346	-0.429181	-0.607883
C22	C	1.358552	-0.680761	-0.607756
C23	C	1.358584	-0.787978	-0.607708
C24	C	1.358615	-0.984278	-0.607623
C25	C	1.358595	-0.875043	-0.607674
C26	C	1.610069	-0.429195	-0.607888
C27	C	1.717282	-0.429209	-0.607897
C28	C	1.339237	-0.409916	-0.935750
C29	C	1.331095	-0.401715	-1.076020
C30	C	1.358463	-0.178546	-0.607888
C31	C	1.358639	-0.071351	-0.607580
C32	C	1.377819	-0.448503	-0.278705
C33	C	1.386061	-0.456746	-0.138435
H34	H	1.277797	-0.348331	-1.129893
H35	H	1.439354	-0.510142	-1.084556
