data_functionalizedCrystal
_audit_creation_method	'MofGen! by Chris Wilmer'
_symmetry_space_group_name_H-M	'P1'
_symmetry_Int_Tables_number	1
_symmetry_cell_setting	triclinic
loop_
_symmetry_equiv_pos_as_xyz
  x,y,z
_cell_length_a	15.698487
_cell_length_b	23.196402
_cell_length_c	15.698487
_cell_angle_alpha	60.002606
_cell_angle_beta	90.000040
_cell_angle_gamma	60.001335
loop_
_atom_site_label
_atom_site_type_symbol
_atom_site_fract_x
_atom_site_fract_y
_atom_site_fract_z
Zr1	Zr	0.820637	0.631009	-0.111759
O2	O	0.684628	0.751270	-0.247764
O3	O	0.862327	0.510745	-0.070071
O4	O	0.862334	0.631008	-0.247774
O5	O	0.684621	0.631010	0.070120
O6	O	1.002515	0.631010	-0.247776
O7	O	0.684622	0.631008	-0.070061
O8	O	1.002504	0.415883	0.070102
O9	O	0.684632	0.846137	-0.247758
O10	O	0.984728	0.560215	-0.052287
O11	O	0.880111	0.560215	0.052330
O12	O	0.880119	0.701808	-0.156892
O13	O	0.775502	0.701808	-0.052275
Zr14	Zr	1.044208	0.631017	0.111810
Zr15	Zr	1.044210	0.631013	-0.111762
Zr16	Zr	0.820635	0.631013	0.111814
Zr17	Zr	0.820643	0.782312	-0.111749
Zr18	Zr	1.044202	0.479714	0.111801
O19	O	1.002517	0.751280	0.070123
O20	O	1.002520	0.751275	-0.247769
O21	O	0.684626	0.751275	0.070128
O22	O	1.180216	0.510756	0.247815
O23	O	1.180219	0.510751	-0.070076
O24	O	0.862325	0.510751	0.247820
O25	O	1.180224	0.631016	-0.070069
O26	O	1.002511	0.631018	0.247826
O27	O	0.862330	0.631016	0.247828
O28	O	1.180223	0.631018	0.070112
O29	O	0.862342	0.846140	-0.247761
O30	O	1.002502	0.415886	0.247812
O31	O	1.180213	0.415888	0.247809
O32	O	1.180214	0.415886	0.070099
O33	O	0.684631	0.846140	-0.070047
O34	O	0.862341	0.846143	-0.070050
O35	O	0.984726	0.560218	0.156944
O36	O	1.089342	0.560218	0.052327
O37	O	0.984733	0.701811	-0.052278
O38	O	0.880117	0.701811	0.052339
C39	C	0.932415	0.441757	0.000014
C40	C	0.932412	0.377525	0.000010
C41	C	0.652767	0.631008	0.000030
C42	C	0.557854	0.631007	0.000031
C43	C	0.987014	0.347354	-0.054603
C44	C	0.987024	0.286993	-0.054595
C45	C	0.932412	0.256817	0.000012
C46	C	0.877808	0.286991	0.054637
C47	C	0.877808	0.347345	0.054636
C48	C	0.840942	0.194786	-0.007780
C49	C	0.840939	0.134436	-0.007786
C50	C	0.932413	0.070662	0.000023
C51	C	1.023890	0.067252	0.007817
C52	C	1.023890	0.127606	0.007815
C53	C	0.932406	0.191372	0.000021
C54	C	0.987030	-0.024960	-0.054583
C55	C	0.987043	-0.085325	-0.054568
C56	C	0.877818	-0.085321	0.054658
C57	C	0.877815	-0.024962	0.054649
C58	C	0.932419	0.005218	0.000022
C59	C	0.384069	0.631021	0.000021
C60	C	0.480773	0.631017	0.000025
C61	C	1.212078	0.631017	0.000021
C62	C	1.306990	0.631019	0.000020
C63	C	0.932425	0.631008	-0.279630
C64	C	0.932425	0.631007	-0.374542
C65	C	0.932430	0.820269	0.000038
C66	C	0.932433	0.884501	0.000042
C67	C	0.932425	0.631005	-0.451621
C68	C	0.932424	0.631009	-0.548325
C69	C	0.932420	0.631017	0.279681
C70	C	0.932419	0.631019	0.374594
C71	C	1.212070	0.441761	0.000009
C72	C	1.306980	0.377531	0.000004
C73	C	0.932412	0.441761	0.279669
C74	C	0.932409	0.377531	0.374577
C75	C	1.212068	0.441766	0.279665
C76	C	1.306977	0.377537	0.374572
C77	C	0.652777	0.820260	-0.279613
C78	C	0.557868	0.884489	-0.374520
C79	C	0.652775	0.820265	0.000042
C80	C	0.557865	0.884495	0.000048
C81	C	0.932432	0.820265	-0.279618
C82	C	0.932436	0.884495	-0.374526
C83	C	1.296943	0.347366	-0.054616
C84	C	1.386112	0.287023	-0.054642
C85	C	1.485318	0.256842	-0.000042
C86	C	1.495353	0.287013	0.054579
C87	C	1.406184	0.347359	0.054599
C88	C	0.987015	0.347370	0.473764
C89	C	0.987008	0.287027	0.562949
C90	C	0.932400	0.256842	0.552945
C91	C	0.877787	0.287010	0.453748
C92	C	0.877789	0.347356	0.364565
C93	C	1.406165	0.347375	0.364532
C94	C	1.495351	0.287033	0.453698
C95	C	1.485346	0.256851	0.552904
C96	C	1.386147	0.287020	0.562942
C97	C	1.296964	0.347364	0.473776
C98	C	0.458679	0.914659	-0.364481
C99	C	0.369494	0.975019	-0.453647
C100	C	0.379499	1.005204	-0.552853
C101	C	0.478697	0.975031	-0.562890
C102	C	0.567881	0.914677	-0.473725
C103	C	0.567902	0.914666	0.054658
C104	C	0.478733	0.975026	0.054659
C105	C	0.379527	1.005209	0.000056
C106	C	0.369492	0.975035	-0.054561
C107	C	0.458660	0.914681	-0.054568
C108	C	0.987054	0.914660	-0.364489
C109	C	0.987078	0.975003	-0.453657
C110	C	0.932476	1.005184	-0.552861
C111	C	0.877856	0.975013	-0.562896
C112	C	0.877839	0.914667	-0.473729
H113	H	1.031478	0.371923	-0.099080
H114	H	1.031484	0.371939	0.481930
H115	H	0.833352	-0.109890	0.099120
H116	H	0.833348	-0.000394	0.099116
N117	N	0.818966	1.007569	-0.669898
H118	H	0.827267	1.050378	-0.724853
H119	H	0.742596	1.032572	-0.678163
H120	H	1.576115	0.262476	0.445507
N121	N	1.045919	0.254441	-0.113499
H122	H	1.080511	0.282717	-0.148102
H123	H	0.995771	0.264942	-0.168391
H124	H	1.576138	0.262431	0.099033
N125	N	1.045937	-0.117873	-0.113472
H126	H	1.122330	-0.142903	-0.084841
H127	H	1.017202	-0.071793	-0.189852
H128	H	0.288730	0.999575	-0.445454
N129	N	0.489569	1.007562	0.113571
H130	H	0.565948	0.979273	0.148167
H131	H	0.454944	0.997064	0.168470
N132	N	1.581542	0.191766	0.649071
H133	H	1.645892	0.177240	0.627648
H134	H	1.581496	0.141725	0.691953
H135	H	0.486831	0.999616	-0.643674
H136	H	1.414371	0.371912	0.099082
N137	N	0.932422	0.191744	0.649143
H138	H	0.889547	0.177192	0.627763
H139	H	0.901375	0.212798	0.692027
N140	N	0.818901	0.254445	0.442962
H141	H	0.763951	0.264942	0.477535
H142	H	0.869072	0.193873	0.477523
H143	H	1.031484	0.262472	0.643711
N144	N	0.674861	0.882136	-0.484561
H145	H	0.667656	0.910419	-0.560939
H146	H	0.714233	0.821555	-0.449956
N147	N	1.416963	0.379931	0.257535
H148	H	1.382404	0.369424	0.218099
H149	H	1.493354	0.351652	0.264801
N150	N	1.045994	1.007536	-0.442819
H151	H	1.080570	0.979261	-0.366442
H152	H	0.995864	1.068119	-0.477439
H153	H	0.450473	0.890117	-0.099035
H154	H	0.833325	0.371905	0.283806
H155	H	0.833357	0.890113	-0.481917
N156	N	0.283360	1.070292	0.000090
H157	H	0.218985	1.084837	-0.042783
H158	H	0.283422	1.120325	-0.030954
H159	H	1.378016	0.262437	0.643727
H160	H	1.098380	0.015319	0.014188
H161	H	1.216203	0.371915	0.481965
N162	N	0.742270	0.263572	-0.016209
H163	H	0.756150	0.301288	-0.015024
H164	H	0.718684	0.240467	0.044486
H165	H	1.031517	0.890096	-0.283719
H166	H	0.306871	1.054348	-0.625448
N167	N	0.262489	1.007580	-0.113432
H168	H	0.207533	1.050384	-0.105123
H169	H	0.254237	0.961481	-0.084739
H170	H	1.098374	0.124825	0.014164
H171	H	0.450513	0.890085	-0.283711
H172	H	0.766452	0.137222	-0.014137
H173	H	0.648672	0.890096	0.099129
N174	N	0.932510	1.070264	-0.649030
H175	H	0.975401	1.084789	-0.627608
H176	H	0.858530	1.120307	-0.691920
H177	H	0.833344	0.262417	0.099100
N178	N	1.045924	0.007594	-0.113494
H179	H	1.080524	-0.020685	-0.148084
H180	H	1.100820	-0.002900	-0.063358
H181	H	0.833342	0.371910	0.099109
H182	H	1.216173	0.371939	-0.099090
H183	H	1.377921	0.262465	-0.099120
H184	H	1.557916	0.207704	-0.000065
