data_functionalizedCrystal
_audit_creation_method	'MofGen! by Chris Wilmer'
_symmetry_space_group_name_H-M	'P1'
_symmetry_Int_Tables_number	1
_symmetry_cell_setting	triclinic
loop_
_symmetry_equiv_pos_as_xyz
  x,y,z
_cell_length_a	16.120490
_cell_length_b	19.120786
_cell_length_c	19.121324
_cell_angle_alpha	95.009372
_cell_angle_beta	90.596294
_cell_angle_gamma	89.433653
loop_
_atom_site_label
_atom_site_type_symbol
_atom_site_fract_x
_atom_site_fract_y
_atom_site_fract_z
Zn1	Zn	1.236524	-0.313990	0.436445
Zn2	Zn	1.569858	0.019344	0.769778
Zn3	Zn	1.903191	0.352677	1.103112
Zn4	Zn	1.236423	-0.436676	0.313752
Zn5	Zn	1.569757	-0.103343	0.647085
Zn6	Zn	1.903090	0.229990	0.980418
Zn7	Zn	1.103366	-0.313556	0.313349
Zn8	Zn	1.436699	0.019778	0.646682
Zn9	Zn	1.770033	0.353111	0.980015
Zn10	Zn	1.091967	-0.425688	0.425471
Zn11	Zn	1.425300	-0.092355	0.758804
Zn12	Zn	1.758633	0.240978	1.092138
O13	O	1.167070	-0.372478	0.372254
O14	O	1.500403	-0.039144	0.705587
O15	O	1.833737	0.294189	1.038921
O16	O	1.352694	-0.335044	0.424931
O17	O	1.686027	-0.001711	0.758264
O18	O	2.019360	0.331622	1.091597
O19	O	1.223501	-0.424761	0.215427
O20	O	1.556835	-0.091428	0.548760
O21	O	1.890168	0.241905	0.882094
O22	O	1.125843	-0.215341	0.334101
O23	O	1.459176	0.117993	0.667435
O24	O	1.792509	0.451326	1.000768
O25	O	1.352619	-0.425182	0.334789
O26	O	1.685953	-0.091849	0.668122
O27	O	2.019286	0.241485	1.001455
O28	O	1.223673	-0.215659	0.424540
O29	O	1.557007	0.117674	0.757873
O30	O	1.890340	0.451007	1.091206
O31	O	1.125745	-0.334305	0.215131
O32	O	1.459078	-0.000972	0.548464
O33	O	1.792411	0.332362	0.881798
O34	O	0.985671	-0.323650	0.323461
O35	O	1.319005	0.009683	0.656794
O36	O	1.652338	0.343016	0.990127
O37	O	1.106414	-0.406454	0.525198
O38	O	1.439748	-0.073121	0.858531
O39	O	1.773081	0.260212	1.191865
O40	O	0.977296	-0.406034	0.405836
O41	O	1.310630	-0.072700	0.739170
O42	O	1.643963	0.260633	1.072503
O43	O	1.212620	-0.324390	0.533260
O44	O	1.545953	0.008944	0.866594
O45	O	1.879287	0.342277	1.199927
O46	O	1.212448	-0.533492	0.324148
O47	O	1.545781	-0.200158	0.657481
O48	O	1.879115	0.133175	0.990814
O49	O	1.106316	-0.525419	0.406227
O50	O	1.439650	-0.192085	0.739561
O51	O	1.772983	0.141248	1.072894
C52	C	0.951359	-0.363603	0.363414
C53	C	1.284692	-0.030270	0.696748
C54	C	1.618025	0.303064	1.030081
C55	C	0.859075	-0.359823	0.359649
C56	C	1.192408	-0.026489	0.692982
C57	C	1.525742	0.306844	1.026315
C58	C	1.158156	-0.554936	0.364057
C59	C	1.491489	-0.221603	0.697390
C60	C	1.824823	0.111730	1.030723
C61	C	1.154417	-0.632995	0.360576
C62	C	1.487751	-0.299662	0.693910
C63	C	1.821084	0.033671	1.027243
C64	C	0.644870	-0.392082	0.391789
C65	C	0.978204	-0.058748	0.725123
C66	C	1.311537	0.274585	1.058456
C67	C	0.690116	-0.352927	0.352772
C68	C	1.023449	-0.019594	0.686105
C69	C	1.356782	0.313740	1.019439
C70	C	0.784133	-0.356765	0.356599
C71	C	1.117467	-0.023432	0.689933
C72	C	1.450800	0.309902	1.023266
C73	C	0.550844	-0.388245	0.387963
C74	C	0.884177	-0.054911	0.721296
C75	C	1.217511	0.278422	1.054629
C76	C	1.203555	-0.669770	0.406063
C77	C	1.536888	-0.336436	0.739396
C78	C	1.870222	-0.003103	1.072729
C79	C	1.200039	-0.743114	0.402794
C80	C	1.533372	-0.409781	0.736127
C81	C	1.866705	-0.076447	1.069460
C82	C	1.147389	-0.779683	0.354035
C83	C	1.480722	-0.446349	0.687368
C84	C	1.814055	-0.113016	1.020701
C85	C	1.098246	-0.742903	0.308546
C86	C	1.431579	-0.409570	0.641880
C87	C	1.764912	-0.076236	0.975213
C88	C	1.101758	-0.669560	0.311819
C89	C	1.435091	-0.336226	0.645153
C90	C	1.768425	-0.002893	0.978486
C91	C	1.134233	-1.001127	0.341798
C92	C	1.467566	-0.667793	0.675132
C93	C	1.800900	-0.334460	1.008465
C94	C	1.130726	-1.074475	0.338527
C95	C	1.464060	-0.741142	0.671861
C96	C	1.797393	-0.407809	1.005194
C97	C	1.232518	-1.074681	0.432776
C98	C	1.565852	-0.741348	0.766109
C99	C	1.899185	-0.408014	1.099443
C100	C	1.236030	-1.001337	0.436042
C101	C	1.569363	-0.668003	0.769375
C102	C	1.902697	-0.334670	1.102708
C103	C	1.186884	-0.964563	0.390556
C104	C	1.520217	-0.631230	0.723889
C105	C	1.853550	-0.297896	1.057223
C106	C	1.143795	-0.854653	0.350690
C107	C	1.477128	-0.521319	0.684024
C108	C	1.810462	-0.187986	1.017357
C109	C	1.190473	-0.889594	0.393904
C110	C	1.523807	-0.556261	0.727237
C111	C	1.857140	-0.222928	1.060571
C112	C	1.383624	-0.381387	0.381129
C113	C	1.716957	-0.048054	0.714462
C114	C	2.050290	0.285279	1.047795
C115	C	1.475906	-0.385184	0.384911
C116	C	1.809239	-0.051851	0.718244
C117	C	2.142573	0.281483	1.051577
C118	C	1.158257	-0.364245	0.555422
C119	C	1.491590	-0.030911	0.888755
C120	C	1.824924	0.302422	1.222089
C121	C	1.154501	-0.360736	0.633477
C122	C	1.487835	-0.027403	0.966811
C123	C	1.821168	0.305930	1.300144
C124	C	1.176041	-0.189306	0.380500
C125	C	1.509374	0.144027	0.713833
C126	C	1.842708	0.477360	1.047166
C127	C	1.179864	-0.111250	0.384014
C128	C	1.513197	0.222084	0.717347
C129	C	1.846530	0.555417	1.050680
C130	C	1.175899	-0.380630	0.189803
C131	C	1.509233	-0.047296	0.523136
C132	C	1.842566	0.286037	0.856469
C133	C	1.179825	-0.383947	0.111763
C134	C	1.513159	-0.050614	0.445097
C135	C	1.846492	0.282720	0.778430
C136	C	1.203629	-0.406181	0.670305
C137	C	1.536963	-0.072848	1.003638
C138	C	1.870296	0.260486	1.336972
C139	C	1.200101	-0.402876	0.743647
C140	C	1.533434	-0.069543	1.076980
C141	C	1.866768	0.263791	1.410313
C142	C	1.147439	-0.354129	0.780159
C143	C	1.480773	-0.020796	1.113492
C144	C	1.814106	0.312538	1.446826
C145	C	1.098309	-0.308679	0.743327
C146	C	1.431643	0.024654	1.076660
C147	C	1.764976	0.357987	1.409993
C148	C	1.101843	-0.311981	0.669987
C149	C	1.435176	0.021352	1.003320
C150	C	1.768509	0.354685	1.336653
C151	C	1.134229	-0.341799	1.001591
C152	C	1.467562	-0.008466	1.334924
C153	C	1.800895	0.324867	1.668258
C154	C	1.130697	-0.338502	1.074936
C155	C	1.464030	-0.005169	1.408269
C156	C	1.797364	0.328165	1.741603
C157	C	1.232490	-0.432698	1.075251
C158	C	1.565824	-0.099365	1.408584
C159	C	1.899157	0.233968	1.741918
C160	C	1.236015	-0.435999	1.001909
C161	C	1.569349	-0.102666	1.335243
C162	C	1.902682	0.230668	1.668576
C163	C	1.186889	-0.390547	0.965083
C164	C	1.520222	-0.057214	1.298417
C165	C	1.853555	0.276120	1.631750
C166	C	1.143830	-0.350751	0.855126
C167	C	1.477163	-0.017418	1.188459
C168	C	1.810496	0.315916	1.521793
C169	C	1.190503	-0.393922	0.890118
C170	C	1.523837	-0.060589	1.223452
C171	C	1.857170	0.272745	1.556785
H172	H	0.658242	-0.316523	0.316494
H173	H	0.991576	0.016810	0.649827
H174	H	1.324909	0.350143	0.983160
Cl175	Cl	1.269751	-0.623805	0.467360
Cl176	Cl	1.603085	-0.290472	0.800693
Cl177	Cl	1.936418	0.042862	1.134026
Cl178	Cl	1.261803	-0.789341	0.459988
Cl179	Cl	1.595136	-0.456007	0.793321
Cl180	Cl	1.928470	-0.122674	1.126655
Cl181	Cl	1.077626	-0.289472	0.901033
Cl182	Cl	1.410959	0.043861	1.234367
Cl183	Cl	1.744293	0.377194	1.567700
Cl184	Cl	1.072466	-0.284661	0.955305
Cl185	Cl	1.405799	0.048672	1.288638
Cl186	Cl	1.739132	0.382006	1.621971
Cl187	Cl	0.694078	-0.448291	0.447788
Cl188	Cl	1.027411	-0.114958	0.781122
Cl189	Cl	1.360745	0.218375	1.114455
H190	H	1.278902	-0.971564	0.475745
H191	H	1.612235	-0.638230	0.809078
H192	H	1.945568	-0.304897	1.142412
Cl193	Cl	1.256708	-0.455199	0.844216
Cl194	Cl	1.590041	-0.121865	1.177549
Cl195	Cl	1.923375	0.211468	1.510883
H196	H	1.272529	-1.104630	0.469809
H197	H	1.605863	-0.771297	0.803142
H198	H	1.939196	-0.437963	1.136475
Cl199	Cl	1.064536	-1.120447	0.277223
Cl200	Cl	1.397869	-0.787114	0.610556
Cl201	Cl	1.731202	-0.453780	0.943890
H202	H	1.055435	-0.268985	0.773061
H203	H	1.388768	0.064348	1.106394
H204	H	1.722101	0.397681	1.439728
H205	H	1.094218	-0.971192	0.304761
H206	H	1.427551	-0.637858	0.638094
H207	H	1.760885	-0.304525	0.971427
H208	H	1.100930	-0.884435	0.310989
H209	H	1.434263	-0.551102	0.644322
H210	H	1.767596	-0.217769	0.977655
H211	H	1.233338	-0.859818	0.433606
H212	H	1.566671	-0.526484	0.766940
H213	H	1.900005	-0.193151	1.100273
H214	H	1.055373	-0.772683	0.268848
H215	H	1.388707	-0.439350	0.602182
H216	H	1.722040	-0.106016	0.935515
Cl217	Cl	1.039981	-0.623329	0.254635
Cl218	Cl	1.373315	-0.289995	0.587968
Cl219	Cl	1.706648	0.043338	0.921302
Cl220	Cl	1.040082	-0.254846	0.623689
Cl221	Cl	1.373415	0.078488	0.957022
Cl222	Cl	1.706749	0.411821	1.290356
Cl223	Cl	1.269832	-0.467470	0.624410
Cl224	Cl	1.603165	-0.134137	0.957744
Cl225	Cl	1.936498	0.199197	1.291077
H226	H	1.240107	-0.439882	0.773628
H227	H	1.573440	-0.106549	1.106962
H228	H	1.906773	0.226785	1.440295
Cl229	Cl	1.302224	-0.497282	0.956013
Cl230	Cl	1.635557	-0.163948	1.289347
Cl231	Cl	1.968890	0.169385	1.622680
Cl232	Cl	1.294248	-0.489832	1.121551
Cl233	Cl	1.627582	-0.156499	1.454884
Cl234	Cl	1.960915	0.176834	1.788217
H235	H	1.087816	-0.298801	1.104663
H236	H	1.421149	0.034533	1.437996
H237	H	1.754483	0.367866	1.771329
