data_functionalizedCrystal
_audit_creation_method	'MofGen! by Chris Wilmer'
_symmetry_space_group_name_H-M	'P1'
_symmetry_Int_Tables_number	1
_symmetry_cell_setting	triclinic
loop_
_symmetry_equiv_pos_as_xyz
  x,y,z
_cell_length_a	18.050591
_cell_length_b	12.759399
_cell_length_c	12.759393
_cell_angle_alpha	90.030270
_cell_angle_beta	89.971724
_cell_angle_gamma	89.988878
loop_
_atom_site_label
_atom_site_type_symbol
_atom_site_fract_x
_atom_site_fract_y
_atom_site_fract_z
Zn1	Zn	1.135414	0.418334	-0.594236
Zn2	Zn	1.468747	0.751667	-0.260903
Zn3	Zn	1.802081	1.085001	0.072430
Zn4	Zn	1.135337	0.594048	-0.418555
Zn5	Zn	1.468671	0.927381	-0.085222
Zn6	Zn	1.802004	1.260714	0.248112
Zn7	Zn	1.011217	0.418371	-0.418547
Zn8	Zn	1.344551	0.751704	-0.085214
Zn9	Zn	1.677884	1.085038	0.248119
Zn10	Zn	1.011210	0.593959	-0.594168
Zn11	Zn	1.344543	0.927292	-0.260835
Zn12	Zn	1.677876	1.260626	0.072498
O13	O	1.073295	0.506178	-0.506377
O14	O	1.406628	0.839511	-0.173043
O15	O	1.739961	1.172845	0.160290
O16	O	1.239328	0.441664	-0.570963
O17	O	1.572662	0.774998	-0.237630
O18	O	1.905995	1.108331	0.095703
O19	O	1.118844	0.570796	-0.271533
O20	O	1.452177	0.904129	0.061800
O21	O	1.785510	1.237463	0.395134
O22	O	1.027728	0.271345	-0.441878
O23	O	1.361061	0.604678	-0.108545
O24	O	1.694394	0.938012	0.224789
O25	O	1.239272	0.570760	-0.441891
O26	O	1.572605	0.904094	-0.108558
O27	O	1.905939	1.237427	0.224776
O28	O	1.118975	0.271318	-0.570956
O29	O	1.452308	0.604651	-0.237623
O30	O	1.785641	0.937984	0.095711
O31	O	1.027653	0.441727	-0.271527
O32	O	1.360987	0.775061	0.061806
O33	O	1.694320	1.108394	0.395139
O34	O	0.907292	0.441642	-0.441812
O35	O	1.240625	0.774975	-0.108479
O36	O	1.573958	1.108308	0.224854
O37	O	1.027715	0.570610	-0.741198
O38	O	1.361048	0.903943	-0.407865
O39	O	1.694381	1.237276	-0.074532
O40	O	0.907286	0.570646	-0.570840
O41	O	1.240619	0.903979	-0.237507
O42	O	1.573953	1.237312	0.095826
O43	O	1.118967	0.441578	-0.741248
O44	O	1.452300	0.774912	-0.407915
O45	O	1.785634	1.108245	-0.074582
O46	O	1.118836	0.741057	-0.441825
O47	O	1.452169	1.074390	-0.108492
O48	O	1.785503	1.407723	0.224841
O49	O	1.027640	0.740992	-0.570848
O50	O	1.360973	1.074325	-0.237514
O51	O	1.694307	1.407659	0.095819
C52	C	1.073249	0.779145	-0.506353
C53	C	1.406582	1.112479	-0.173020
C54	C	1.739916	1.445812	0.160314
C55	C	1.073298	0.895922	-0.506378
C56	C	1.406631	1.229255	-0.173044
C57	C	1.739964	1.562589	0.160289
C58	C	0.880342	0.506139	-0.506319
C59	C	1.213676	0.839472	-0.172985
C60	C	1.547009	1.172805	0.160348
C61	C	0.797797	0.506147	-0.506319
C62	C	1.131130	0.839481	-0.172985
C63	C	1.464463	1.172814	0.160348
C64	C	1.073349	0.506080	-0.780410
C65	C	1.406682	0.839413	-0.447077
C66	C	1.740015	1.172747	-0.113744
C67	C	1.073372	0.506038	-0.897187
C68	C	1.406705	0.839372	-0.563854
C69	C	1.740038	1.172705	-0.230520
C70	C	0.598328	0.435914	-0.436315
C71	C	0.931661	0.769247	-0.102982
C72	C	1.264994	1.102580	0.230352
C73	C	0.548921	0.531744	-0.410465
C74	C	0.882254	0.865077	-0.077132
C75	C	1.215588	1.198410	0.256202
C76	C	0.646666	0.506179	-0.506366
C77	C	0.980000	0.839513	-0.173033
C78	C	1.313333	1.172846	0.160300
C79	C	0.548991	0.410382	-0.532213
C80	C	0.882325	0.743716	-0.198880
C81	C	1.215658	1.077049	0.134453
C82	C	0.500681	0.506202	-0.506410
C83	C	0.834015	0.839535	-0.173077
C84	C	1.167348	1.172868	0.160257
C85	C	0.598347	0.602060	-0.480466
C86	C	0.931680	0.935393	-0.147133
C87	C	1.265014	1.268726	0.186200
C88	C	0.598422	0.480634	-0.602259
C89	C	0.931755	0.813967	-0.268926
C90	C	1.265088	1.147300	0.064407
C91	C	0.549037	0.576530	-0.576446
C92	C	0.882371	0.909863	-0.243112
C93	C	1.215704	1.243197	0.090221
C94	C	0.730765	0.506165	-0.506338
C95	C	1.064098	0.839498	-0.173005
C96	C	1.397431	1.172832	0.160328
C97	C	0.416585	0.506227	-0.506438
C98	C	0.749918	0.839560	-0.173105
C99	C	1.083251	1.172893	0.160228
C100	C	1.267000	0.506218	-0.506436
C101	C	1.600334	0.839551	-0.173102
C102	C	1.933667	1.172885	0.160231
C103	C	1.349546	0.506235	-0.506461
C104	C	1.682879	0.839568	-0.173127
C105	C	2.016213	1.172902	0.160206
C106	C	1.073361	0.232145	-0.506424
C107	C	1.406694	0.565478	-0.173090
C108	C	1.740027	0.898811	0.160243
C109	C	1.073389	0.115368	-0.506444
C110	C	1.406722	0.448701	-0.173110
C111	C	1.740055	0.782035	0.160223
C112	C	1.120837	0.950783	-0.439272
C113	C	1.454171	1.284116	-0.105939
C114	C	1.787504	1.617449	0.227394
C115	C	1.120885	1.060507	-0.439307
C116	C	1.454219	1.393840	-0.105974
C117	C	1.787552	1.727173	0.227359
C118	C	1.025847	1.060499	-0.573557
C119	C	1.359180	1.393833	-0.240223
C120	C	1.692513	1.727166	0.093110
C121	C	1.025803	0.950777	-0.573526
C122	C	1.359137	1.284111	-0.240193
C123	C	1.692470	1.617444	0.093141
C124	C	1.120874	0.573167	-1.061787
C125	C	1.454207	0.906500	-0.728454
C126	C	1.787541	1.239833	-0.395121
C127	C	1.120856	0.573216	-0.952063
C128	C	1.454189	0.906549	-0.618730
C129	C	1.787523	1.239883	-0.285397
C130	C	1.025897	0.438814	-0.952041
C131	C	1.359230	0.772147	-0.618707
C132	C	1.692564	1.105481	-0.285374
C133	C	1.025912	0.438771	-1.061763
C134	C	1.359245	0.772104	-0.728429
C135	C	1.692578	1.105437	-0.395096
C136	C	1.073284	0.506200	-0.233409
C137	C	1.406617	0.839533	0.099924
C138	C	1.739950	1.172866	0.433257
C139	C	1.073404	0.505945	-0.116633
C140	C	1.406738	0.839279	0.216700
C141	C	1.740071	1.172612	0.550033
H142	H	0.619970	0.376556	-0.377011
H143	H	0.953304	0.709890	-0.043677
H144	H	1.286637	1.043223	0.289656
F145	F	0.975376	0.367233	-1.120137
F146	F	1.308710	0.700567	-0.786804
F147	F	1.642043	1.033900	-0.453470
F148	F	0.975301	1.118890	-0.645014
F149	F	1.308635	1.452223	-0.311681
F150	F	1.641968	1.785556	0.021652
H151	H	0.527179	0.553367	-0.329389
H152	H	0.860513	0.886700	0.003944
H153	H	1.193846	1.220034	0.337278
H154	H	0.987090	0.906107	-0.628176
H155	H	1.320424	1.239440	-0.294843
H156	H	1.653757	1.572773	0.038490
H157	H	1.159545	0.627866	-1.106460
H158	H	1.492878	0.961199	-0.773127
H159	H	1.826211	1.294532	-0.439793
H160	H	0.619937	0.683107	-0.458533
H161	H	0.953270	1.016441	-0.125200
H162	H	1.286603	1.349774	0.208134
H163	H	0.987231	0.384122	-0.907352
H164	H	1.320564	0.717455	-0.574018
H165	H	1.653898	1.050788	-0.240685
F166	F	1.171486	1.118889	-0.367887
F167	F	1.504819	1.452222	-0.034554
F168	F	1.838152	1.785556	0.298780
H169	H	1.159510	0.627954	-0.907413
H170	H	1.492844	0.961288	-0.574079
H171	H	1.826177	1.294621	-0.240746
F172	F	0.520925	0.654297	-0.653903
F173	F	0.854258	0.987630	-0.320569
F174	F	1.187591	1.320963	0.012764
H175	H	0.620181	0.458981	-0.683311
H176	H	0.953514	0.792314	-0.349978
H177	H	1.286848	1.125648	-0.016644
H178	H	1.159511	0.906122	-0.384598
H179	H	1.492845	1.239455	-0.051264
H180	H	1.826178	1.572789	0.282069
F181	F	0.520649	0.304481	-0.560763
F182	F	0.853982	0.637814	-0.227429
F183	F	1.187315	0.971148	0.105904
