data_functionalizedCrystal
_audit_creation_method	'MofGen! by Chris Wilmer'
_symmetry_space_group_name_H-M	'P1'
_symmetry_Int_Tables_number	1
_symmetry_cell_setting	triclinic
loop_
_symmetry_equiv_pos_as_xyz
  x,y,z
_cell_length_a	10.686220
_cell_length_b	16.959454
_cell_length_c	10.685880
_cell_angle_alpha	94.340455
_cell_angle_beta	89.641569
_cell_angle_gamma	94.401635
loop_
_atom_site_label
_atom_site_type_symbol
_atom_site_fract_x
_atom_site_fract_y
_atom_site_fract_z
Zn1	Zn	1.972221	-0.246741	-0.562379
Zn2	Zn	1.955987	-0.369655	-0.352630
Zn3	Zn	1.746350	-0.248352	-0.368702
Zn4	Zn	1.762401	-0.389746	-0.578402
O5	O	1.859240	-0.313624	-0.465528
O6	O	2.145611	-0.253964	-0.521124
O7	O	1.914666	-0.345830	-0.179220
O8	O	1.776390	-0.137525	-0.394414
O9	O	2.133684	-0.344268	-0.367022
O10	O	1.942336	-0.136341	-0.536708
O11	O	1.760648	-0.256709	-0.191028
O12	O	1.572936	-0.276191	-0.409951
O13	O	1.803746	-0.378510	-0.751818
O14	O	1.584728	-0.380072	-0.564017
O15	O	1.957899	-0.273445	-0.740046
O16	O	1.930230	-0.482934	-0.382558
O17	O	1.788004	-0.497695	-0.548432
C18	C	1.533315	-0.330487	-0.490467
C19	C	1.393886	-0.337722	-0.501166
C20	C	1.859133	-0.518994	-0.465515
C21	C	1.859205	-0.606849	-0.465542
C22	C	1.785298	-0.986032	-0.551881
C23	C	1.933541	-0.970600	-0.379276
C24	C	1.933496	-0.888056	-0.379268
C25	C	1.859350	-0.854496	-0.465566
C26	C	1.785248	-0.903480	-0.551873
C27	C	2.007586	-0.839066	-0.292954
C28	C	2.007543	-0.756516	-0.292942
C29	C	1.933403	-0.722955	-0.379247
C30	C	1.859300	-0.771944	-0.465558
C31	C	1.785154	-0.738385	-0.551857
C32	C	1.711056	-0.787373	-0.638175
C33	C	1.711108	-0.869919	-0.638179
C34	C	1.933351	-0.640409	-0.379244
C35	C	1.785104	-0.655833	-0.551849
C36	C	2.186437	-0.296695	-0.440492
C37	C	2.325869	-0.289481	-0.429824
C38	C	1.884424	-0.328039	-0.792720
C39	C	1.895156	-0.334182	-0.932150
C40	C	1.859383	-0.107450	-0.465566
C41	C	1.859444	-0.019592	-0.465583
C42	C	1.834226	-0.299203	-0.139603
C43	C	1.823737	-0.292825	-0.000156
H44	H	1.374305	-0.242646	-0.360558
H45	H	1.964521	-0.374294	-0.980602
O46	O	1.731860	-0.239694	-0.935990
H47	H	1.755330	-0.177637	-0.959441
O48	O	1.329737	-0.399769	-0.592925
H49	H	1.226617	-0.395906	-0.587220
O50	O	1.705115	-0.619636	-0.644916
H51	H	1.653593	-0.667570	-0.704923
H52	H	1.650781	-0.909812	-0.708453
H53	H	1.650680	-0.760039	-0.708435
H54	H	1.724974	-1.025921	-0.622162
H55	H	1.993899	-0.997930	-0.309009
O56	O	2.087475	-0.703687	-0.199856
H57	H	2.074986	-0.640648	-0.214345
H58	H	2.067942	-0.866397	-0.222686
O59	O	2.013269	-0.587565	-0.286172
H60	H	1.984277	-0.600198	-0.189338
