data_functionalizedCrystal
_audit_creation_method	'MofGen! by Chris Wilmer'
_symmetry_space_group_name_H-M	'P1'
_symmetry_Int_Tables_number	1
_symmetry_cell_setting	triclinic
loop_
_symmetry_equiv_pos_as_xyz
  x,y,z
_cell_length_a	14.519709
_cell_length_b	14.971486
_cell_length_c	14.048226
_cell_angle_alpha	90.006640
_cell_angle_beta	90.000842
_cell_angle_gamma	83.647137
loop_
_atom_site_label
_atom_site_type_symbol
_atom_site_fract_x
_atom_site_fract_y
_atom_site_fract_z
O1	O	-1.223800	-0.117253	-0.079037
O2	O	-0.955315	-0.131060	-0.079066
O3	O	-1.096753	0.006039	-0.079044
O4	O	-1.082361	-0.254353	-0.079059
O5	O	-1.096736	0.006048	0.079277
O6	O	-0.955298	-0.131052	0.079255
O7	O	-1.223783	-0.117245	0.079284
Zn8	Zn	-1.089538	-0.124147	0.104407
Zn9	Zn	-1.089560	-0.124158	-0.104189
O10	O	-1.082344	-0.254344	0.079262
C11	C	-0.920947	-0.130413	0.000091
C12	C	-0.818567	-0.128485	0.000080
C13	C	-1.096101	0.039369	0.000116
C14	C	-1.094172	0.138667	0.000115
C15	C	-1.258151	-0.117892	0.000125
C16	C	-1.360531	-0.119820	0.000130
C17	C	-0.443675	-0.121386	0.000123
C18	C	-0.547982	-0.123357	0.000111
C19	C	-0.631118	-0.124935	0.000101
C20	C	-0.735431	-0.126907	0.000090
C21	C	-1.082996	-0.287674	0.000100
C22	C	-1.084925	-0.386972	0.000094
N23	N	-1.089529	-0.124139	0.246767
C24	C	-1.177264	0.195845	0.000125
C25	C	-1.175446	0.289146	0.000115
C26	C	-1.090536	0.325266	0.000102
C27	C	-1.007438	0.268080	0.000090
C28	C	-1.009257	0.174781	0.000093
C29	C	-1.003653	0.462545	0.000086
C30	C	-1.001834	0.555850	0.000085
C31	C	-1.169842	0.576909	0.000108
C32	C	-1.171661	0.483610	0.000111
C33	C	-1.088563	0.426431	0.000100
N34	N	-1.089576	-0.124159	-0.246549
C35	C	-1.152178	-0.063457	0.296595
C36	C	-1.152184	-0.063456	0.396253
C37	C	-1.089545	-0.124143	0.446081
C38	C	-1.026890	-0.184829	0.396246
C39	C	-1.026880	-0.184824	0.296590
C40	C	-1.026916	-0.184835	0.603960
C41	C	-1.026927	-0.184841	0.703623
C42	C	-1.152220	-0.063467	0.703623
C43	C	-1.152211	-0.063463	0.603967
C44	C	-1.089556	-0.124150	0.554139
H45	H	-1.246407	0.166444	0.000141
N46	N	-0.919629	0.113118	0.000098
H47	H	-0.916635	0.073949	0.058791
H48	H	-0.916687	0.073986	-0.058627
N49	N	-0.959364	-0.250282	0.757379
H50	H	-0.994650	-0.289965	0.798713
H51	H	-0.919677	-0.288665	0.710642
N52	N	-0.959336	-0.250285	0.550214
H53	H	-0.919658	-0.288734	0.596900
H54	H	-0.994679	-0.289903	0.508854
N55	N	-1.219724	0.002017	0.242859
H56	H	-1.210210	-0.007182	0.172166
H57	H	-1.285162	-0.008444	0.260261
N58	N	-1.265065	0.350818	0.000131
H59	H	-1.319131	0.313779	0.000148
H60	H	-1.267955	0.389993	0.058823
N61	N	-1.219764	0.001977	0.450007
H62	H	-1.260617	-0.032315	0.491341
H63	H	-1.184426	0.041643	0.491315
H64	H	-0.935985	0.415991	0.000075
N65	N	-0.959333	-0.250284	0.449993
H66	H	-0.970017	-0.313789	0.432635
H67	H	-0.893899	-0.239761	0.432644
H68	H	-1.240802	0.454205	0.000128
N69	N	-1.219770	0.001987	0.550216
H70	H	-1.285233	-0.008457	0.567546
H71	H	-1.209007	0.065466	0.567589
N72	N	-0.959304	-0.250270	0.242842
H73	H	-0.919624	-0.288717	0.289528
H74	H	-0.994641	-0.289890	0.201479
H75	H	-1.237504	0.623470	0.000114
H76	H	-0.932692	0.585255	0.000090
H77	H	-0.938303	0.297496	0.000073
N78	N	-1.219802	0.001988	0.757358
H79	H	-1.210303	-0.007219	0.828051
H80	H	-1.209087	0.065467	0.739949
