data_functionalizedCrystal
_audit_creation_method	'MofGen! by Chris Wilmer'
_symmetry_space_group_name_H-M	'P1'
_symmetry_Int_Tables_number	1
_symmetry_cell_setting	triclinic
loop_
_symmetry_equiv_pos_as_xyz
  x,y,z
_cell_length_a	8.497374
_cell_length_b	19.805407
_cell_length_c	19.805405
_cell_angle_alpha	89.973590
_cell_angle_beta	89.985911
_cell_angle_gamma	90.004504
loop_
_atom_site_label
_atom_site_type_symbol
_atom_site_fract_x
_atom_site_fract_y
_atom_site_fract_z
Zn1	Zn	0.892011	1.034635	0.269581
Zn2	Zn	0.628188	1.034580	0.382739
Zn3	Zn	0.628226	0.921479	0.269569
Zn4	Zn	0.891907	0.921413	0.382733
O5	O	0.760083	0.978027	0.326155
O6	O	0.857043	1.129344	0.284598
O7	O	0.407431	1.019581	0.367724
O8	O	0.663277	0.936541	0.174854
O9	O	0.663213	1.129303	0.367735
O10	O	0.857079	1.019676	0.174862
O11	O	0.407458	0.936487	0.284579
O12	O	0.663176	0.826754	0.284573
O13	O	1.112683	0.936428	0.367725
O14	O	0.856901	0.826705	0.367714
O15	O	1.112760	1.019611	0.284593
O16	O	0.663111	1.019517	0.477455
O17	O	0.856864	0.936374	0.477450
C18	C	0.760032	0.802171	0.326142
C19	C	0.760048	0.726939	0.326153
C20	C	0.860757	0.691587	0.369510
C21	C	0.860779	0.620899	0.369511
C22	C	0.760083	0.585563	0.326158
C23	C	0.659369	0.620920	0.282797
C24	C	0.659356	0.691607	0.282793
C25	C	0.659421	0.335847	0.282812
C26	C	0.659439	0.265155	0.282821
C27	C	0.860844	0.265138	0.369530
C28	C	0.860831	0.335825	0.369526
C29	C	0.760124	0.371176	0.326162
C30	C	0.760103	0.447824	0.326161
C31	C	0.760095	0.508916	0.326163
C32	C	0.760007	0.977951	0.502011
C33	C	0.760027	0.977980	0.577243
C34	C	1.171563	0.978022	0.326156
C35	C	1.350207	0.978023	0.326164
C36	C	0.760135	1.154569	0.326169
C37	C	0.760157	1.229801	0.326175
C38	C	0.760194	0.978122	0.149613
C39	C	0.760241	0.978162	0.074381
C40	C	0.659245	1.021314	0.612567
C41	C	0.659280	1.021343	0.683256
C42	C	0.760090	0.978034	0.718619
C43	C	0.860882	0.934697	0.683290
C44	C	0.860854	0.934672	0.612603
C45	C	0.860999	0.934797	0.968363
C46	C	0.861016	0.934824	1.039055
C47	C	0.659425	1.021468	1.039016
C48	C	0.659397	1.021443	0.968329
C49	C	0.760195	0.978109	0.933006
C50	C	0.760158	0.978080	0.856358
C51	C	0.760120	0.978059	0.795266
H52	H	0.577440	0.236386	0.247514
H53	H	0.942785	0.592118	0.404817
H54	H	0.942823	0.364592	0.404830
C55	C	0.971638	0.226251	0.417223
H56	H	0.957243	0.179091	0.411013
H57	H	0.948354	0.237815	0.462684
H58	H	1.077679	0.237850	0.407384
H59	H	0.942751	0.720352	0.404815
H60	H	0.943069	0.899512	0.939609
H61	H	0.577387	0.592144	0.247496
C62	C	0.971767	0.887056	0.722188
H63	H	0.957339	0.893271	0.769346
H64	H	1.077783	0.896916	0.710578
H65	H	0.948561	0.841582	0.710642
C66	C	0.971710	0.887006	0.573743
H67	H	0.957268	0.893198	0.526580
H68	H	0.948536	0.841540	0.585367
H69	H	1.077737	0.896883	0.585303
H70	H	0.577407	0.364621	0.247508
C71	C	0.548579	0.730494	0.235100
H72	H	0.488601	0.699327	0.209284
H73	H	0.609053	0.758084	0.205649
H74	H	0.479718	0.758055	0.260944
C75	C	0.548355	1.068957	0.573674
H76	H	0.488350	1.094774	0.604838
H77	H	0.479548	1.043084	0.546131
H78	H	0.608769	1.098419	0.546066
H79	H	0.577212	1.056630	0.712013
C80	C	0.548512	1.069086	0.929433
H81	H	0.488505	1.094904	0.960595
H82	H	0.479707	1.043213	0.901889
H83	H	0.608931	1.098546	0.901826
C84	C	0.548558	1.069139	1.077873
H85	H	0.563018	1.062959	1.125036
H86	H	0.442538	1.059266	1.066315
H87	H	0.571746	1.114606	1.066245
C88	C	0.971925	0.887187	1.077954
H89	H	1.031966	0.861380	1.046794
H90	H	0.911532	0.857725	1.105564
H91	H	1.040723	0.913073	1.105495
