data_functionalizedCrystal
_audit_creation_method	'MofGen! by Chris Wilmer'
_symmetry_space_group_name_H-M	'P1'
_symmetry_Int_Tables_number	1
_symmetry_cell_setting	triclinic
loop_
_symmetry_equiv_pos_as_xyz
  x,y,z
_cell_length_a	8.597340
_cell_length_b	10.654550
_cell_length_c	9.730223
_cell_angle_alpha	90.004253
_cell_angle_beta	97.698822
_cell_angle_gamma	95.089559
loop_
_atom_site_label
_atom_site_type_symbol
_atom_site_fract_x
_atom_site_fract_y
_atom_site_fract_z
O1	O	2.084444	-0.187461	0.132546
O2	O	1.627673	-0.201843	0.078453
O3	O	1.866560	-0.011969	0.106752
O4	O	1.845557	-0.377336	0.104247
O5	O	1.866545	-0.011963	0.335330
O6	O	1.627658	-0.201838	0.307031
O7	O	2.084428	-0.187456	0.361124
Zn8	Zn	1.856041	-0.194646	0.370369
Zn9	Zn	1.856061	-0.194653	0.069208
O10	O	1.845541	-0.377330	0.332825
C11	C	1.569178	-0.200296	0.185816
C12	C	1.394904	-0.195679	0.165178
C13	C	1.865011	0.034840	0.220857
C14	C	1.860396	0.174308	0.220309
C15	C	2.142923	-0.189003	0.253758
C16	C	2.317198	-0.193620	0.274387
C17	C	1.847091	-0.424139	0.218716
C18	C	1.851705	-0.563607	0.219256
N19	N	1.856038	-0.194641	0.575905
C20	C	2.001049	0.253047	0.236965
C21	C	1.996705	0.384091	0.236434
C22	C	1.711041	0.357644	0.202594
C23	C	1.715388	0.226602	0.203116
N24	N	1.856076	-0.194649	-0.136327
C25	C	1.961854	-0.110600	0.660366
C26	C	1.961869	-0.110601	0.804251
C27	C	1.750249	-0.278693	0.779201
C28	C	1.750227	-0.278685	0.635318
H29	H	2.119124	0.210473	0.250961
C30	C	1.406484	-0.195781	0.420049
C31	C	1.517004	-0.090513	0.440305
C32	C	1.599308	-0.092471	0.574467
H33	H	1.334559	-0.193811	0.485932
H34	H	1.459298	-0.270486	0.431423
H35	H	1.464193	-0.015828	0.428945
H36	H	1.588962	-0.092461	0.374455
H37	H	1.652122	-0.167175	0.585841
H38	H	1.527371	-0.090504	0.640340
H39	H	1.674314	-0.021054	0.588225
H40	H	1.328098	-0.193910	0.055878
C41	C	1.553723	0.414598	0.183743
C42	C	1.542910	0.489074	0.064880
C43	C	1.398018	0.541571	0.047484
H44	H	1.470437	0.349066	0.173808
H45	H	1.546070	0.465245	0.262506
H46	H	1.550548	0.438430	-0.013864
H47	H	1.626161	0.554626	0.074785
H48	H	1.390364	0.592218	0.126247
H49	H	1.314744	0.476031	0.037555
H50	H	1.390668	0.592118	-0.033157
C51	C	2.076535	-0.019112	0.595945
C52	C	2.049680	0.104616	0.627806
C53	C	2.155279	0.188947	0.568491
H54	H	2.181505	-0.033909	0.631889
H55	H	2.061392	-0.031026	0.498139
H56	H	2.064837	0.116525	0.725593
H57	H	1.944732	0.119453	0.591862
H58	H	2.140136	0.177032	0.470685
H59	H	2.260242	0.174138	0.604440
H60	H	2.137063	0.272905	0.590090
C61	C	2.149293	0.469731	0.254719
C62	C	2.155112	0.545776	0.372980
C63	C	2.295648	0.624695	0.389854
H64	H	2.236400	0.419972	0.265116
H65	H	2.153555	0.521460	0.175547
H66	H	2.150866	0.494052	0.452132
H67	H	2.068037	0.595561	0.362611
H68	H	2.299910	0.676425	0.310682
H69	H	2.382744	0.574926	0.400246
H70	H	2.299609	0.676309	0.470086
H71	H	1.600844	0.162489	0.189548
C72	C	2.076507	-0.019211	0.895994
C73	C	1.992086	0.058768	0.968593
C74	C	2.097639	0.142988	1.053105
H75	H	2.142376	-0.065082	0.960020
H76	H	2.139492	0.030914	0.840039
H77	H	1.929127	0.008649	1.024544
H78	H	1.926222	0.104667	0.904602
H79	H	2.160624	0.193113	0.997150
H80	H	2.163502	0.097107	1.117123
H81	H	2.040374	0.195914	1.102364
H82	H	1.664102	-0.347122	0.827589
C83	C	1.635518	-0.370142	0.543703
C84	C	1.662334	-0.493895	0.581821
C85	C	1.556710	-0.578172	0.497446
H86	H	1.530555	-0.355336	0.554813
H87	H	1.650664	-0.358183	0.449490
H88	H	1.647175	-0.505849	0.676011
H89	H	1.767275	-0.508742	0.570704
H90	H	1.571856	-0.566212	0.403233
H91	H	1.451755	-0.563353	0.508563
H92	H	1.574900	-0.662147	0.523289
