data_functionalizedCrystal
_audit_creation_method	'MofGen! by Chris Wilmer'
_symmetry_space_group_name_H-M	'P1'
_symmetry_Int_Tables_number	1
_symmetry_cell_setting	triclinic
loop_
_symmetry_equiv_pos_as_xyz
  x,y,z
_cell_length_a	23.532407
_cell_length_b	23.532355
_cell_length_c	10.868271
_cell_angle_alpha	90.001502
_cell_angle_beta	89.990218
_cell_angle_gamma	82.838088
loop_
_atom_site_label
_atom_site_type_symbol
_atom_site_fract_x
_atom_site_fract_y
_atom_site_fract_z
O1	O	0.068994	0.755278	-0.102167
O2	O	0.079029	0.589411	-0.102208
O3	O	-0.008921	0.677346	-0.102164
O4	O	0.156944	0.667343	-0.102212
O5	O	-0.008924	0.677339	0.102481
O6	O	0.079025	0.589404	0.102436
O7	O	0.068991	0.755271	0.102477
Zn8	Zn	0.074008	0.672336	0.134949
Zn9	Zn	0.074012	0.672346	-0.134680
O10	O	0.156941	0.667336	0.102433
C11	C	0.078776	0.568191	0.000109
C12	C	0.078022	0.504972	0.000095
C13	C	0.073282	0.112954	0.111699
C14	C	0.072565	0.053555	0.111704
O15	O	0.072173	0.022833	0.206574
N16	N	0.072211	0.023850	0.000153
C17	C	0.072568	0.053549	-0.111411
O18	O	0.072201	0.022829	-0.206293
C19	C	0.073282	0.112948	-0.111414
C20	C	0.073641	0.142649	0.000144
C21	C	0.073641	0.142655	0.223249
C22	C	0.074360	0.202050	0.223243
C23	C	0.074719	0.231745	0.111688
C24	C	0.074360	0.202044	0.000139
C25	C	0.073635	0.142646	-0.222977
C26	C	0.074348	0.202049	-0.222971
C27	C	0.074708	0.231750	-0.111412
C28	C	0.075438	0.291133	-0.111421
N29	N	0.075792	0.320838	0.000130
C30	C	0.075432	0.291144	0.111685
C31	C	0.071069	-0.071192	-0.111394
C32	C	0.070360	-0.130591	-0.111392
C33	C	0.070355	-0.130581	0.111723
C34	C	0.071069	-0.071182	0.111720
C35	C	0.071423	-0.041488	0.000157
C36	C	0.076942	0.415878	0.111665
C37	C	0.077663	0.475278	0.111650
C38	C	0.077664	0.475263	-0.111465
C39	C	0.076947	0.415868	-0.111450
C40	C	0.076583	0.386177	0.000124
O41	O	0.075828	0.321893	-0.206242
O42	O	0.075792	0.321872	0.206551
C43	C	-0.030139	0.677088	0.000161
C44	C	-0.093356	0.676322	0.000171
C45	C	-0.492468	0.723557	0.000115
C46	C	-0.551868	0.722845	0.000105
O47	O	-0.588620	0.766632	0.000071
N48	N	-0.574484	0.670568	0.000093
C49	C	-0.537697	0.618998	0.000078
O50	O	-0.562388	0.574467	0.000066
C51	C	-0.478298	0.619710	0.000079
C52	C	-0.455685	0.671991	0.000104
C53	C	-0.469854	0.775834	0.000138
C54	C	-0.410458	0.776545	0.000150
C55	C	-0.373676	0.724979	0.000139
C56	C	-0.396289	0.672703	0.000115
C57	C	-0.441512	0.568141	0.000055
C58	C	-0.382110	0.568858	0.000055
C59	C	-0.359497	0.621139	0.000080
C60	C	-0.300110	0.621848	0.000116
N61	N	-0.277494	0.674126	0.000128
C62	C	-0.314277	0.725691	0.000139
C63	C	-0.662439	0.617507	0.000075
C64	C	-0.721837	0.616794	0.000083
C65	C	-0.736004	0.720642	0.000108
C66	C	-0.676605	0.721354	0.000108
C67	C	-0.639823	0.669784	0.000087
C68	C	-0.189540	0.727181	0.000165
C69	C	-0.130138	0.727888	0.000182
C70	C	-0.115977	0.624041	0.000151
C71	C	-0.175373	0.623334	0.000140
C72	C	-0.212154	0.674909	0.000143
O73	O	-0.263323	0.578084	0.000145
O74	O	-0.289577	0.770216	0.000135
C75	C	0.178158	0.667594	0.000105
C76	C	0.241375	0.668360	0.000088
C77	C	0.069244	0.776492	0.000157
C78	C	0.069998	0.839710	0.000164
N79	N	0.074004	0.672334	0.318963
N80	N	0.074011	0.672353	-0.318694
C81	C	0.074011	0.672343	0.569969
C82	C	0.074009	0.672336	0.430291
H83	H	0.077957	0.499457	0.202498
C84	C	0.076553	0.383191	-0.234160
C85	C	0.027189	0.398114	-0.326170
C86	C	0.026788	0.365442	-0.448880
C87	C	0.075749	0.317847	-0.479581
C88	C	0.125116	0.302921	-0.387569
C89	C	0.125518	0.335593	-0.264859
H90	H	-0.009058	0.433348	-0.303445
H91	H	-0.009757	0.376491	-0.516993
H92	H	0.075452	0.293661	-0.570418
H93	H	0.161364	0.267687	-0.410294
H94	H	0.162063	0.324544	-0.196746
H95	H	0.071362	-0.047003	0.202561
C96	C	-0.746706	0.559284	0.000074
C97	C	-0.785600	0.544505	0.106333
C98	C	-0.810466	0.486992	0.106317
C99	C	-0.796438	0.444258	0.000043
C100	C	-0.757541	0.459036	-0.106224
C101	C	-0.732676	0.516548	-0.106209
H102	H	-0.795987	0.576140	0.185011
H103	H	-0.839259	0.476053	0.184984
H104	H	-0.814845	0.401683	0.000031
H105	H	-0.747155	0.427400	-0.184902
H106	H	-0.703882	0.527487	-0.184875
C107	C	-0.105266	0.785400	0.000203
C108	C	-0.066394	0.800172	0.106482
C109	C	-0.041524	0.857682	0.106500
C110	C	-0.055526	0.900422	0.000241
C111	C	-0.094400	0.885652	-0.106046
C112	C	-0.119270	0.828141	-0.106064
H113	H	-0.056027	0.768532	0.185149
H114	H	-0.012747	0.868616	0.185181
H115	H	-0.037116	0.942995	0.000255
H116	H	-0.104767	0.917291	-0.184713
H117	H	-0.148047	0.817208	-0.184745
C118	C	-0.075510	0.567320	0.000129
C119	C	-0.077833	0.524374	0.106371
C120	C	-0.037366	0.467652	0.106336
C121	C	0.005425	0.453876	0.000059
C122	C	0.007750	0.496823	-0.106191
C123	C	-0.032718	0.553545	-0.106156
H124	H	-0.109511	0.534571	0.185050
H125	H	-0.039087	0.435861	0.184989
H126	H	0.035382	0.411888	0.000033
H127	H	0.039427	0.486626	-0.184870
H128	H	-0.030997	0.585337	-0.184809
C129	C	0.071469	-0.038532	-0.234123
C130	C	0.121422	-0.004451	-0.264828
C131	C	0.121820	0.028206	-0.387555
C132	C	0.072266	0.026781	-0.479577
C133	C	0.022309	-0.007302	-0.448874
C134	C	0.021910	-0.039959	-0.326147
H135	H	0.158108	-0.003395	-0.196706
H136	H	0.158802	0.053436	-0.410282
H137	H	0.072560	0.050955	-0.570426
H138	H	-0.014378	-0.008358	-0.516996
H139	H	-0.015071	-0.065189	-0.303420
H140	H	-0.459912	0.525569	0.000028
C141	C	0.078058	0.507936	-0.234169
C142	C	0.028496	0.506526	-0.326179
C143	C	0.028885	0.539202	-0.448882
C144	C	0.078835	0.573289	-0.479576
C145	C	0.128400	0.574701	-0.387564
C146	C	0.128012	0.542025	-0.264861
H147	H	-0.008483	0.481291	-0.303459
H148	H	-0.007807	0.538157	-0.516995
H149	H	0.079123	0.597478	-0.570409
H150	H	0.165380	0.599935	-0.410283
H151	H	0.164704	0.543070	-0.196747
H152	H	0.073342	0.118474	-0.313820
C153	C	0.069971	-0.163259	-0.234108
C154	C	0.118939	-0.210847	-0.264812
C155	C	0.118546	-0.243512	-0.387532
C156	C	0.069185	-0.228590	-0.479548
C157	C	0.020213	-0.181000	-0.448845
C158	C	0.020606	-0.148335	-0.326125
H159	H	0.155483	-0.221895	-0.196695
H160	H	0.154799	-0.278742	-0.410260
H161	H	0.068894	-0.252771	-0.570392
H162	H	-0.016330	-0.169952	-0.516963
H163	H	-0.015646	-0.113105	-0.303398
H164	H	-0.392053	0.819117	0.000165
C165	C	-0.229993	0.783913	0.000178
C166	C	-0.227674	0.826836	0.106467
C167	C	-0.268127	0.883567	0.106490
C168	C	-0.310900	0.897375	0.000225
C169	C	-0.313221	0.854450	-0.106071
C170	C	-0.272767	0.797719	-0.106095
H171	H	-0.196010	0.816616	0.185138
H172	H	-0.266409	0.915343	0.185179
H173	H	-0.340846	0.939371	0.000243
H174	H	-0.344885	0.864671	-0.184742
H175	H	-0.274486	0.765944	-0.184783
C176	C	-0.510310	0.832562	0.000159
C177	C	-0.553087	0.846372	-0.106096
C178	C	-0.593538	0.903104	-0.106063
C179	C	-0.591213	0.946026	0.000226
C180	C	-0.548434	0.932217	0.106490
C181	C	-0.507982	0.875485	0.106456
H182	H	-0.554810	0.814597	-0.184785
H183	H	-0.625206	0.913326	-0.184727
H184	H	-0.621157	0.988022	0.000251
H185	H	-0.546711	0.963991	0.185178
H186	H	-0.476315	0.865263	0.185120
H187	H	-0.658198	0.763925	0.000127
H188	H	-0.765963	0.762629	0.000112
C189	C	-0.621981	0.560776	0.000074
C190	C	-0.624300	0.517842	-0.106196
C191	C	-0.583846	0.461112	-0.106198
C192	C	-0.541073	0.447315	0.000069
C193	C	-0.538753	0.490249	0.106347
C194	C	-0.579207	0.546980	0.106350
H195	H	-0.655964	0.528055	-0.184869
H196	H	-0.585564	0.429329	-0.184873
H197	H	-0.511127	0.405319	0.000068
H198	H	-0.507088	0.480037	0.185020
H199	H	-0.577489	0.578762	0.185024
H200	H	0.076651	0.391710	0.202520
H201	H	0.074649	0.226228	0.314086
H202	H	-0.352164	0.526863	0.000036
H203	H	0.073347	0.118485	0.314095
C204	C	-0.200255	0.565828	0.000120
C205	C	-0.186263	0.523082	0.106372
C206	C	-0.211142	0.465576	0.106335
C207	C	-0.250014	0.450816	0.000047
C208	C	-0.264008	0.493563	-0.106213
C209	C	-0.239129	0.551069	-0.106177
H210	H	-0.157486	0.534007	0.185060
H211	H	-0.200782	0.433932	0.184997
H212	H	-0.268431	0.408247	0.000020
H213	H	-0.292785	0.482638	-0.184901
H214	H	-0.249489	0.582713	-0.184838
H215	H	0.070062	-0.154768	0.202558
H216	H	0.074637	0.226223	-0.313821
