data_functionalizedCrystal
_audit_creation_method	'MofGen! by Chris Wilmer'
_symmetry_space_group_name_H-M	'P1'
_symmetry_Int_Tables_number	1
_symmetry_cell_setting	triclinic
loop_
_symmetry_equiv_pos_as_xyz
  x,y,z
_cell_length_a	13.897449
_cell_length_b	16.120484
_cell_length_c	13.897441
_cell_angle_alpha	87.134365
_cell_angle_beta	90.023394
_cell_angle_gamma	92.926462
loop_
_atom_site_label
_atom_site_type_symbol
_atom_site_fract_x
_atom_site_fract_y
_atom_site_fract_z
Zn1	Zn	1.455182	-0.331862	0.564892
Zn2	Zn	1.705182	-0.081862	0.814892
Zn3	Zn	1.955182	0.168138	1.064892
Zn4	Zn	2.205182	0.418138	1.314892
Zn5	Zn	1.446874	-0.471293	0.411762
Zn6	Zn	1.696874	-0.221293	0.661762
Zn7	Zn	1.946874	0.028707	0.911762
Zn8	Zn	2.196874	0.278707	1.161762
Zn9	Zn	1.293868	-0.331900	0.403605
Zn10	Zn	1.543868	-0.081900	0.653605
Zn11	Zn	1.793868	0.168100	0.903605
Zn12	Zn	2.043868	0.418100	1.153605
Zn13	Zn	1.285654	-0.471237	0.573004
Zn14	Zn	1.535654	-0.221237	0.823004
Zn15	Zn	1.785654	0.028763	1.073004
Zn16	Zn	2.035654	0.278763	1.323004
O17	O	1.370394	-0.401573	0.488315
O18	O	1.620394	-0.151573	0.738315
O19	O	1.870394	0.098427	0.988315
O20	O	2.120394	0.348427	1.238315
O21	O	1.589061	-0.350365	0.544598
O22	O	1.839061	-0.100365	0.794598
O23	O	2.089061	0.149635	1.044598
O24	O	2.339061	0.399635	1.294598
O25	O	1.426538	-0.452842	0.275700
O26	O	1.676538	-0.202842	0.525700
O27	O	1.926538	0.047158	0.775700
O28	O	2.176538	0.297158	1.025700
O29	O	1.322182	-0.215230	0.418191
O30	O	1.572182	0.034770	0.668191
O31	O	1.822182	0.284770	0.918191
O32	O	2.072182	0.534770	1.168191
O33	O	1.582957	-0.452805	0.432094
O34	O	1.832957	-0.202805	0.682094
O35	O	2.082957	0.047195	0.932094
O36	O	2.332957	0.297195	1.182094
O37	O	1.440698	-0.215201	0.536688
O38	O	1.690698	0.034799	0.786688
O39	O	1.940698	0.284799	1.036688
O40	O	2.190698	0.534799	1.286688
O41	O	1.314126	-0.350431	0.269708
O42	O	1.564126	-0.100431	0.519708
O43	O	1.814126	0.149569	0.769708
O44	O	2.064126	0.399569	1.019708
O45	O	1.157798	-0.350376	0.426057
O46	O	1.407798	-0.100376	0.676057
O47	O	1.657798	0.149624	0.926057
O48	O	1.907798	0.399624	1.176057
O49	O	1.308181	-0.452709	0.706907
O50	O	1.558181	-0.202709	0.956907
O51	O	1.808181	0.047291	1.206907
O52	O	2.058181	0.297291	1.456907
O53	O	1.151762	-0.452747	0.550514
O54	O	1.401762	-0.202747	0.800514
O55	O	1.651762	0.047253	1.050514
O56	O	1.901762	0.297253	1.300514
O57	O	1.432732	-0.350311	0.700947
O58	O	1.682732	-0.100311	0.950947
O59	O	1.932732	0.149689	1.200947
O60	O	2.182732	0.399689	1.450947
O61	O	1.418573	-0.587951	0.439959
O62	O	1.668573	-0.337951	0.689959
O63	O	1.918573	-0.087951	0.939959
O64	O	2.168573	0.162049	1.189959
O65	O	1.300125	-0.587910	0.558423
O66	O	1.550125	-0.337910	0.808423
O67	O	1.800125	-0.087910	1.058423
O68	O	2.050125	0.162090	1.308423
C69	C	1.119781	-0.401560	0.488281
C70	C	1.369781	-0.151560	0.738281
C71	C	1.619781	0.098440	0.988281
C72	C	1.869781	0.348440	1.238281
C73	C	1.012566	-0.401575	0.488290
C74	C	1.262566	-0.151575	0.738290
C75	C	1.512566	0.098425	0.988290
C76	C	1.762566	0.348425	1.238290
C77	C	0.925496	-0.401578	0.488307
C78	C	1.175496	-0.151578	0.738307
C79	C	1.425496	0.098422	0.988307
C80	C	1.675496	0.348422	1.238307
C81	C	0.816263	-0.401584	0.488336
C82	C	1.066263	-0.151584	0.738336
C83	C	1.316263	0.098416	0.988336
C84	C	1.566263	0.348416	1.238336
C85	C	1.357583	-0.618181	0.500977
C86	C	1.607583	-0.368181	0.750977
C87	C	1.857583	-0.118181	1.000977
C88	C	2.107583	0.131819	1.250977
C89	C	1.352190	-0.710847	0.506427
C90	C	1.602190	-0.460847	0.756427
C91	C	1.852190	-0.210847	1.006427
C92	C	2.102190	0.039153	1.256427
C93	C	1.342350	-0.880508	0.516395
C94	C	1.592350	-0.630508	0.766395
C95	C	1.842350	-0.380508	1.016395
C96	C	2.092350	-0.130508	1.266395
C97	C	1.398612	-0.921798	0.460252
C98	C	1.648612	-0.671798	0.710252
C99	C	1.898612	-0.421798	0.960252
C100	C	2.148612	-0.171798	1.210252
C101	C	1.393137	-1.016203	0.465798
C102	C	1.643137	-0.766203	0.715798
C103	C	1.893137	-0.516203	0.965798
C104	C	2.143137	-0.266203	1.215798
C105	C	1.347823	-0.786094	0.510850
C106	C	1.597823	-0.536094	0.760850
C107	C	1.847823	-0.286094	1.010850
C108	C	2.097823	-0.036094	1.260850
C109	C	1.621987	-0.401587	0.488351
C110	C	1.871987	-0.151587	0.738351
C111	C	2.121987	0.098413	0.988351
C112	C	2.371987	0.348413	1.238351
C113	C	1.729200	-0.401592	0.488366
C114	C	1.979200	-0.151592	0.738366
C115	C	2.229200	0.098408	0.988366
C116	C	2.479200	0.348408	1.238366
C117	C	1.370467	-0.401499	0.739904
C118	C	1.620467	-0.151499	0.989904
C119	C	1.870467	0.098501	1.239904
C120	C	2.120467	0.348501	1.489904
C121	C	1.370498	-0.401468	0.847116
C122	C	1.620498	-0.151468	1.097116
C123	C	1.870498	0.098532	1.347116
C124	C	2.120498	0.348532	1.597116
C125	C	1.383283	-0.184120	0.475625
C126	C	1.633283	0.065880	0.725625
C127	C	1.883283	0.315880	0.975625
C128	C	2.133283	0.565880	1.225625
C129	C	1.388775	-0.091454	0.470217
C130	C	1.638775	0.158546	0.720217
C131	C	1.888775	0.408546	0.970217
C132	C	2.138775	0.658546	1.220217
C133	C	1.370381	-0.401586	0.237702
C134	C	1.620381	-0.151586	0.487702
C135	C	1.870381	0.098414	0.737702
C136	C	2.120381	0.348414	0.987702
C137	C	1.370551	-0.401383	0.130477
C138	C	1.620551	-0.151383	0.380477
C139	C	1.870551	0.098617	0.630477
C140	C	2.120551	0.348617	0.880477
C141	C	1.370528	-0.401412	1.043408
C142	C	1.620528	-0.151412	1.293408
C143	C	1.870528	0.098588	1.543408
C144	C	2.120528	0.348588	1.793408
C145	C	1.370508	-0.401445	0.934178
C146	C	1.620508	-0.151445	1.184178
C147	C	1.870508	0.098555	1.434178
C148	C	2.120508	0.348555	1.684178
H149	H	1.450891	-0.886246	0.408020
H150	H	1.700891	-0.636246	0.658020
H151	H	1.950891	-0.386246	0.908020
H152	H	2.200891	-0.136246	1.158020
O153	O	1.280001	-0.923041	0.578615
O154	O	1.530001	-0.673041	0.828615
O155	O	1.780001	-0.423041	1.078615
O156	O	2.030001	-0.173041	1.328615
C157	C	1.288359	-1.009196	0.570373
C158	C	1.538359	-0.759196	0.820373
C159	C	1.788359	-0.509196	1.070373
C160	C	2.038359	-0.259196	1.320373
H161	H	1.319330	-1.021004	0.496645
H162	H	1.569330	-0.771004	0.746645
H163	H	1.819330	-0.521004	0.996645
H164	H	2.069330	-0.271004	1.246645
H165	H	1.214216	-1.042418	0.578747
H166	H	1.464216	-0.792418	0.828747
H167	H	1.714216	-0.542418	1.078747
H168	H	1.964216	-0.292418	1.328747
H169	H	1.338288	-1.033832	0.629059
H170	H	1.588288	-0.783832	0.879059
H171	H	1.838288	-0.533832	1.129059
H172	H	2.088288	-0.283832	1.379059
