data_functionalizedCrystal
_audit_creation_method	'MofGen! by Chris Wilmer'
_symmetry_space_group_name_H-M	'P1'
_symmetry_Int_Tables_number	1
_symmetry_cell_setting	triclinic
loop_
_symmetry_equiv_pos_as_xyz
  x,y,z
_cell_length_a	10.654550
_cell_length_b	15.944551
_cell_length_c	9.130313
_cell_angle_alpha	89.997799
_cell_angle_beta	89.996220
_cell_angle_gamma	83.991820
loop_
_atom_site_label
_atom_site_type_symbol
_atom_site_fract_x
_atom_site_fract_y
_atom_site_fract_z
O1	O	1.666308	0.117973	-0.121923
O2	O	1.300684	0.129213	-0.121900
O3	O	1.493480	0.001376	-0.121899
O4	O	1.473511	0.245810	-0.121924
O5	O	1.493478	0.001379	0.121700
O6	O	1.300681	0.129216	0.121699
O7	O	1.666305	0.117976	0.121676
Cu8	Cu	1.483493	0.123596	0.143930
Cu9	Cu	1.483496	0.123592	-0.144154
O10	O	1.473509	0.245813	0.121675
C11	C	1.253895	0.128389	-0.000098
C12	C	1.114484	0.125920	-0.000088
C13	C	1.492650	-0.029921	-0.000099
C14	C	1.490165	-0.123182	-0.000098
C15	C	1.034024	0.201188	-0.000117
C16	C	0.903034	0.198863	-0.000142
C17	C	0.932975	0.045995	-0.000116
C18	C	1.063963	0.048321	-0.000080
C19	C	1.016737	0.289446	-0.000139
C20	C	0.885746	0.287121	-0.000164
C21	C	1.364720	-0.338765	-0.000111
C22	C	1.422971	-0.399443	0.119995
C23	C	1.485668	-0.293934	-0.000109
C24	C	1.423002	-0.399430	-0.120175
C25	C	1.481317	-0.458872	-0.000126
C26	C	1.543953	-0.353384	0.120095
C27	C	1.543967	-0.353364	-0.120182
C28	C	1.602306	-0.414024	-0.000048
C29	C	1.488172	-0.198917	-0.000098
C30	C	1.478822	-0.553887	-0.000127
C31	C	1.713094	0.118800	-0.000130
C32	C	1.852505	0.121269	-0.000149
C33	C	1.474339	0.277110	-0.000128
C34	C	1.476824	0.370371	-0.000139
N35	N	1.483500	0.123599	0.346552
N36	N	1.483499	0.123583	-0.346777
C37	C	1.568892	0.067012	0.423205
C38	C	1.568889	0.067002	0.576542
C39	C	1.398098	0.180173	0.576560
C40	C	1.398096	0.180178	0.423226
C41	C	1.667501	0.001676	0.423195
C42	C	1.667498	0.001666	0.576532
H43	H	0.891824	-0.017184	-0.000131
O44	O	1.782463	0.018876	0.625938
C45	C	1.991991	0.050129	0.561902
C46	C	1.861848	0.030670	0.505752
H47	H	2.056218	0.059652	0.464761
H48	H	1.980601	0.109909	0.631226
H49	H	2.035528	-0.004835	0.631306
H50	H	1.818239	0.085581	0.436287
H51	H	1.873320	-0.029138	0.436508
O52	O	1.362068	-0.423702	0.241288
C53	C	1.355694	-0.426739	0.505035
C54	C	1.424778	-0.399204	0.367803
H55	H	1.406381	-0.406959	0.607357
H56	H	1.254426	-0.395504	0.505013
H57	H	1.355176	-0.498200	0.504321
H58	H	1.425392	-0.327753	0.368427
H59	H	1.526009	-0.430500	0.367878
O60	O	1.775951	0.025982	0.366236
C61	C	1.958437	-0.011977	0.215007
C62	C	1.835655	-0.039622	0.279406
H63	H	2.006757	-0.065010	0.144816
H64	H	1.935454	0.046692	0.144652
H65	H	2.024044	0.002838	0.307978
H66	H	1.769990	-0.054483	0.186529
H67	H	1.858732	-0.098265	0.349800
O68	O	1.142068	-0.024819	-0.000296
C69	C	1.207712	-0.154800	-0.126391
C70	C	1.119209	-0.071989	-0.126350
H71	H	1.189243	-0.192969	-0.228279
H72	H	1.310038	-0.139864	-0.126458
H73	H	1.189314	-0.192902	-0.024393
H74	H	1.137493	-0.033847	-0.228331
H75	H	1.016912	-0.086985	-0.126207
O76	O	1.314970	0.235048	0.650980
C77	C	1.096615	0.282931	0.697844
C78	C	1.190619	0.220723	0.613502
H79	H	0.996057	0.271383	0.667551
H80	H	1.111171	0.273205	0.820621
H81	H	1.113038	0.350307	0.667723
H82	H	1.174254	0.153323	0.643501
H83	H	1.176041	0.230523	0.490746
H84	H	1.328553	0.226248	0.360817
H85	H	1.637774	-0.059344	0.624087
H86	H	1.045620	0.323965	0.101809
O87	O	1.642841	-0.075377	0.373786
C88	C	1.598078	-0.215812	0.437814
C89	C	1.625964	-0.128587	0.493969
H90	H	1.584452	-0.258862	0.534952
H91	H	1.508592	-0.208748	0.368510
H92	H	1.680642	-0.244418	0.368388
H93	H	1.543477	-0.099933	0.563455
H94	H	1.715493	-0.135706	0.563192
O95	O	1.605131	-0.329245	0.241262
C96	C	1.799088	-0.341196	0.379012
C97	C	1.729971	-0.368589	0.241717
H98	H	1.900024	-0.373007	0.379442
H99	H	1.800547	-0.269807	0.378079
H100	H	1.747817	-0.360542	0.481224
H101	H	1.781186	-0.349301	0.139432
H102	H	1.728499	-0.439976	0.242780
H103	H	0.839729	0.313795	0.105001
O104	O	1.058762	0.323116	-0.125522
C105	C	1.049109	0.444374	-0.284230
C106	C	1.001434	0.406357	-0.142176
H107	H	1.002760	0.511673	-0.297756
H108	H	1.155921	0.444826	-0.278444
H109	H	1.023875	0.404735	-0.381717
H110	H	1.026578	0.445964	-0.044615
H111	H	0.894631	0.405890	-0.148089
H112	H	0.843584	0.320373	-0.102121
H113	H	1.264327	-0.306038	0.000016
O114	O	1.605130	-0.328964	-0.241173
C115	C	1.780242	-0.261299	-0.335416
C116	C	1.711131	-0.288908	-0.198258
H117	H	1.865943	-0.228892	-0.300768
H118	H	1.812325	-0.318981	-0.404924
H119	H	1.713557	-0.215529	-0.402107
H120	H	1.777743	-0.334658	-0.131453
H121	H	1.679027	-0.231185	-0.128858
H122	H	1.702787	-0.446602	0.000014
H123	H	1.371831	-0.419804	-0.221721
