data_functionalizedCrystal
_audit_creation_method	'MofGen! by Chris Wilmer'
_symmetry_space_group_name_H-M	'P1'
_symmetry_Int_Tables_number	1
_symmetry_cell_setting	triclinic
loop_
_symmetry_equiv_pos_as_xyz
  x,y,z
_cell_length_a	11.792241
_cell_length_b	9.616153
_cell_length_c	10.540539
_cell_angle_alpha	89.999906
_cell_angle_beta	95.640546
_cell_angle_gamma	90.002674
loop_
_atom_site_label
_atom_site_type_symbol
_atom_site_fract_x
_atom_site_fract_y
_atom_site_fract_z
O1	O	1.507366	0.115504	-0.173986
O2	O	1.177072	0.115535	-0.191918
O3	O	1.349754	0.115517	0.001779
O4	O	1.334683	0.115522	-0.367683
O5	O	1.349731	-0.115775	0.001775
O6	O	1.177048	-0.115756	-0.191922
O7	O	1.507342	-0.115788	-0.173990
Zn8	Zn	1.342191	-0.152495	-0.182957
Zn9	Zn	1.342223	0.152242	-0.182951
O10	O	1.334660	-0.115770	-0.367687
C11	C	1.134766	-0.000106	-0.190793
C12	C	1.008743	-0.000094	-0.187422
C13	C	0.778015	-0.000134	-0.181223
C14	C	0.906409	-0.000112	-0.184667
N15	N	1.342178	-0.360469	-0.182960
C16	C	1.249522	-0.580829	-0.286229
C17	C	1.249726	-0.419662	-0.286614
C18	C	1.460847	-0.418930	-0.212707
C19	C	1.460342	-0.580147	-0.213437
C20	C	1.317347	-0.580379	-0.049602
C21	C	1.314623	-0.419152	-0.050476
C22	C	1.549648	-0.000143	-0.175114
C23	C	1.675671	-0.000146	-0.178486
C24	C	1.348612	-0.000126	0.049076
C25	C	1.345231	-0.000118	0.190014
N26	N	1.342245	0.360216	-0.182938
C27	C	1.335802	-0.000123	-0.414984
C28	C	1.339183	-0.000122	-0.555921
C29	C	1.215660	0.000413	0.373018
C30	C	1.219087	-0.000108	0.226411
C31	C	1.405923	-0.132203	0.251867
C32	C	1.401618	-0.132314	0.398397
C33	C	1.404211	0.130708	0.398928
C34	C	1.405373	0.132454	0.251950
H35	H	1.161552	-0.380138	-0.268770
H36	H	1.495324	0.131587	0.446451
H37	H	1.363395	0.230819	0.430350
N38	N	1.487665	-0.627291	-0.335458
N39	N	1.506970	-0.541127	-0.419487
H40	H	1.526267	-0.574414	-0.505668
N41	N	1.352995	-0.255507	0.198288
N42	N	1.309074	-0.340730	0.268474
H43	H	1.271686	-0.427813	0.230638
H44	H	1.531551	-0.619143	-0.141216
N45	N	1.488767	-0.368251	-0.333342
N46	N	1.421468	-0.289096	-0.397608
H47	H	1.441180	-0.253304	-0.482811
H48	H	1.171331	0.094576	0.183654
N49	N	1.349727	0.255029	0.200416
N50	N	1.266087	0.244896	0.118374
H51	H	1.226784	0.331463	0.081970
N52	N	1.520738	0.142454	0.221912
N53	N	1.560691	0.051625	0.154071
H54	H	1.642171	0.058682	0.132850
H55	H	1.165840	0.095134	0.401458
H56	H	1.166023	-0.093767	0.403063
H57	H	1.356743	-0.231041	0.426449
H58	H	1.492338	-0.138314	0.446661
H59	H	1.170976	-0.094940	0.184497
N60	N	1.522126	-0.138373	0.224175
N61	N	1.545279	-0.144197	0.111091
H62	H	1.627347	-0.148550	0.091527
N63	N	1.211057	-0.631425	-0.014010
N64	N	1.152361	-0.712220	-0.086494
H65	H	1.077286	-0.748267	-0.061376
H66	H	1.227324	-0.380944	-0.027919
H67	H	1.161073	-0.619632	-0.268664
H68	H	1.377681	-0.378864	0.030051
N69	N	1.269310	-0.631626	-0.409646
N70	N	1.194688	-0.702259	-0.472706
H71	H	1.208664	-0.738138	-0.559869
N72	N	1.269740	-0.371274	-0.410746
N73	N	1.283612	-0.456572	-0.497362
H74	H	1.297729	-0.422401	-0.585043
H75	H	1.531530	-0.380584	-0.139513
H76	H	1.384952	-0.618503	0.027273
