data_functionalizedCrystal
_audit_creation_method	'MofGen! by Chris Wilmer'
_symmetry_space_group_name_H-M	'P1'
_symmetry_Int_Tables_number	1
_symmetry_cell_setting	triclinic
loop_
_symmetry_equiv_pos_as_xyz
  x,y,z
_cell_length_a	20.016444
_cell_length_b	14.560438
_cell_length_c	20.016444
_cell_angle_alpha	60.000278
_cell_angle_beta	90.002955
_cell_angle_gamma	60.002114
loop_
_atom_site_label
_atom_site_type_symbol
_atom_site_fract_x
_atom_site_fract_y
_atom_site_fract_z
Zr1	Zr	0.643577	1.005323	-0.087662
O2	O	0.536899	1.196924	-0.194337
O3	O	0.676279	0.813722	-0.054962
O4	O	0.676272	1.005332	-0.194339
O5	O	0.536912	1.005306	0.054986
O6	O	0.786212	1.005339	-0.194340
O7	O	0.536906	1.005314	-0.054960
O8	O	0.786225	0.662584	0.054981
O9	O	0.536900	1.348061	-0.194335
O10	O	0.772273	0.892536	-0.041014
O11	O	0.690231	0.892525	0.041037
O12	O	0.690223	1.118121	-0.123062
O13	O	0.608180	1.118110	-0.041011
Zr14	Zr	0.818928	1.005323	0.087688
Zr15	Zr	0.818918	1.005334	-0.087662
Zr16	Zr	0.643586	1.005311	0.087688
Zr17	Zr	0.643577	1.246370	-0.087659
Zr18	Zr	0.818927	0.764275	0.087684
O19	O	0.786225	1.196924	0.054988
O20	O	0.786212	1.196940	-0.194337
O21	O	0.536913	1.196907	0.054988
O22	O	0.925605	0.813722	0.194362
O23	O	0.925592	0.813739	-0.054963
O24	O	0.676292	0.813706	0.194362
O25	O	0.925592	1.005339	-0.054960
O26	O	0.786233	1.005314	0.194365
O27	O	0.676293	1.005306	0.194365
O28	O	0.925598	1.005332	0.054985
O29	O	0.676273	1.348071	-0.194335
O30	O	0.786232	0.662575	0.194360
O31	O	0.925605	0.662584	0.194360
O32	O	0.925598	0.662593	0.054980
O33	O	0.536907	1.348052	-0.054955
O34	O	0.676280	1.348061	-0.054955
O35	O	0.772282	0.892525	0.123087
O36	O	0.854325	0.892536	0.041036
O37	O	0.772274	1.118121	-0.041011
O38	O	0.690231	1.118110	0.041040
C39	C	0.731252	0.703809	0.000009
C40	C	0.731252	0.601478	0.000007
C41	C	0.774075	0.553408	-0.042823
C42	C	0.774079	0.457248	-0.042815
C43	C	0.688428	0.457242	0.042853
C44	C	0.688430	0.553393	0.042850
C45	C	0.511927	1.005308	0.000013
C46	C	0.437490	1.005304	0.000013
C47	C	0.309053	0.887565	0.042843
C48	C	0.239107	0.887571	0.042845
C49	C	0.153454	1.123089	-0.042819
C50	C	0.223398	1.123083	-0.042815
C51	C	0.301197	1.005317	0.000013
C52	C	0.161308	1.005329	0.000012
C53	C	0.085470	1.005336	0.000014
C54	C	0.377040	1.005309	0.000013
C55	C	0.950578	1.005337	0.000012
C56	C	1.025015	1.005342	0.000012
C57	C	0.731241	1.005337	-0.219323
C58	C	0.731237	1.005342	-0.293764
C59	C	0.731253	1.306837	0.000017
C60	C	0.731253	1.409168	0.000018
C61	C	0.688421	1.123080	-0.507848
C62	C	0.688428	1.123075	-0.577789
C63	C	0.774089	0.887556	-0.492118
C64	C	0.774086	0.887563	-0.422179
C65	C	0.731248	1.005329	-0.430047
C66	C	0.731257	1.005317	-0.569928
C67	C	0.731264	1.005310	-0.645761
C68	C	0.731241	1.005336	-0.354209
C69	C	0.731264	1.005308	0.219349
C70	C	0.731268	1.005304	0.293789
C71	C	0.950577	0.703823	0.000008
C72	C	1.025014	0.601497	0.000007
C73	C	0.731264	0.703795	0.219344
C74	C	0.731267	0.601459	0.293784
C75	C	0.950589	0.703809	0.219344
C76	C	1.025030	0.601478	0.293783
C77	C	0.511916	1.306837	-0.219319
C78	C	0.437475	1.409168	-0.293758
C79	C	0.511927	1.306822	0.000017
C80	C	0.437491	1.409148	0.000019
C81	C	0.731241	1.306851	-0.219319
C82	C	0.731237	1.409187	-0.293758
C83	C	1.017141	0.553444	-0.042831
C84	C	1.087075	0.457311	-0.042849
C85	C	1.164883	0.409227	-0.000023
C86	C	1.172755	0.457290	0.042816
C87	C	1.102821	0.553427	0.042828
C88	C	0.774099	0.553401	0.371578
C89	C	0.774099	0.457259	0.441528
C90	C	0.731273	0.409170	0.433682
C91	C	0.688436	0.457237	0.355880
C92	C	0.688431	0.553384	0.285931
C93	C	1.102821	0.553428	0.285911
C94	C	1.172772	0.457290	0.355848
C95	C	1.164931	0.409198	0.433656
C96	C	1.087132	0.457258	0.441527
C97	C	1.017182	0.553400	0.371591
C98	C	0.359684	1.457229	-0.285885
C99	C	0.289732	1.553397	-0.355822
C100	C	0.297573	1.601494	-0.433630
C101	C	0.375372	1.553428	-0.441501
C102	C	0.445322	1.457269	-0.371565
C103	C	0.445364	1.457212	0.042849
C104	C	0.375429	1.553371	0.042848
C105	C	0.297622	1.601459	0.000020
C106	C	0.289750	1.553392	-0.042816
C107	C	0.359684	1.457240	-0.042819
C108	C	0.774073	1.457245	-0.285886
C109	C	0.774085	1.553388	-0.355823
C110	C	0.731257	1.601477	-0.433631
C111	C	0.688420	1.553409	-0.441502
C112	C	0.688413	1.457262	-0.371566
H113	H	0.653557	0.592531	0.077731
H114	H	1.109243	0.592540	0.077716
H115	H	0.226390	1.592559	-0.077685
H116	H	0.508661	1.418138	-0.377985
H117	H	0.808965	0.791670	-0.358825
C118	C	1.078518	0.404336	0.527118
H119	H	1.131323	0.340185	0.567635
H120	H	1.049459	0.473339	0.533272
H121	H	1.049468	0.366802	0.533256
H122	H	0.353262	1.418110	-0.077694
H123	H	0.808948	1.418106	-0.222537
H124	H	0.653555	1.218960	-0.641136
H125	H	0.808965	0.791676	-0.485722
H126	H	0.653540	1.218973	-0.514259
H127	H	0.808966	1.592515	-0.349398
H128	H	0.240609	1.679792	-0.490570
C129	C	0.731267	1.707240	-0.510556
H130	H	0.699630	1.728998	-0.558027
H131	H	0.708343	1.782249	-0.510551
H132	H	0.785840	1.675706	-0.510550
C133	C	0.214762	1.252611	-0.089779
H134	H	0.267561	1.235738	-0.083589
H135	H	0.185689	1.301191	-0.146150
H136	H	0.185718	1.300805	-0.068508
H137	H	0.653567	0.418069	0.349504
H138	H	0.653551	1.592578	-0.504862
C139	C	1.078402	0.404445	-0.089963
H140	H	1.022045	0.446839	-0.115451
H141	H	1.103890	0.420213	-0.130504
H142	H	1.103908	0.313663	-0.052991
H143	H	0.653528	1.418143	-0.377987
H144	H	0.372397	0.791673	0.077726
C145	C	0.931562	0.606326	-0.089947
H146	H	0.936900	0.563939	-0.115467
H147	H	0.902494	0.590563	-0.052985
H148	H	0.902500	0.697109	-0.130477
H149	H	0.808945	0.592554	-0.077706
H150	H	0.808985	0.418133	0.504872
H151	H	1.109220	0.592570	0.222562
C152	C	0.821180	0.404380	-0.089932
H153	H	0.846677	0.446799	-0.115451
H154	H	0.861713	0.313606	-0.052966
H155	H	0.784203	0.420145	-0.130462
H156	H	0.653563	0.418081	0.077734
C157	C	0.641320	0.606229	0.200362
H158	H	0.615823	0.563804	0.205715
H159	H	0.600786	0.697005	0.171285
H160	H	0.678291	0.590453	0.171299
H161	H	1.221821	0.330944	-0.000040
C162	C	0.247751	0.758044	0.089953
H163	H	0.304103	0.687912	0.115454
H164	H	0.222251	0.753144	0.130484
H165	H	0.222243	0.753157	0.052978
C166	C	1.258345	0.404377	0.089927
H167	H	1.298861	0.340229	0.083787
H168	H	1.264496	0.473385	0.068790
H169	H	1.264486	0.366842	0.146280
C170	C	1.258340	0.404430	0.347175
H171	H	1.252985	0.446829	0.290818
H172	H	1.287414	0.420194	0.372667
H173	H	1.287406	0.313648	0.372680
C174	C	0.067877	1.252621	-0.089936
H175	H	0.027344	1.235762	-0.083812
H176	H	0.061740	1.301010	-0.068790
H177	H	0.061747	1.300996	-0.146286
C178	C	0.821200	0.606298	0.380225
H179	H	0.846695	0.563909	0.436579
H180	H	0.861733	0.590549	0.354727
H181	H	0.784218	0.697078	0.354718
C182	C	0.731289	0.303403	0.510630
H183	H	0.762941	0.281666	0.558083
H184	H	0.676728	0.334901	0.510646
H185	H	0.754230	0.228372	0.510641
H186	H	0.381855	1.592492	0.077733
H187	H	1.221896	0.330913	0.490596
C188	C	0.530945	1.404333	0.089958
H189	H	0.571475	1.340176	0.083834
H190	H	0.537077	1.473363	0.068803
H191	H	0.537082	1.366821	0.146309
H192	H	0.953844	0.592510	0.378012
H193	H	0.353284	1.418074	-0.222536
C194	C	0.383987	1.606333	-0.527092
H195	H	0.331182	1.670472	-0.567610
H196	H	0.413047	1.643849	-0.533243
H197	H	0.413035	1.537308	-0.533234
H198	H	0.226392	1.592516	-0.349398
H199	H	0.240684	1.679752	0.000029
