data_functionalizedCrystal
_audit_creation_method	'MofGen! by Chris Wilmer'
_symmetry_space_group_name_H-M	'P1'
_symmetry_Int_Tables_number	1
_symmetry_cell_setting	triclinic
loop_
_symmetry_equiv_pos_as_xyz
  x,y,z
_cell_length_a	19.188930
_cell_length_b	17.666332
_cell_length_c	19.188924
_cell_angle_alpha	89.991448
_cell_angle_beta	83.143372
_cell_angle_gamma	89.976766
loop_
_atom_site_label
_atom_site_type_symbol
_atom_site_fract_x
_atom_site_fract_y
_atom_site_fract_z
O1	O	0.926147	-0.063195	0.087169
O2	O	1.259481	0.270138	0.420502
O3	O	1.592814	0.603472	0.753836
O4	O	0.722836	-0.063144	0.098903
O5	O	1.056169	0.270190	0.432237
O6	O	1.389503	0.603523	0.765570
O7	O	0.830361	-0.063162	-0.008620
O8	O	1.163695	0.270171	0.324714
O9	O	1.497028	0.603505	0.658047
O10	O	0.818622	-0.063177	0.194692
O11	O	1.151955	0.270157	0.528026
O12	O	1.485289	0.603490	0.861359
O13	O	0.830343	0.062735	-0.008625
O14	O	1.163676	0.396068	0.324708
O15	O	1.497009	0.729402	0.658041
O16	O	0.722817	0.062753	0.098898
O17	O	1.056150	0.396086	0.432231
O18	O	1.389484	0.729420	0.765564
O19	O	0.926129	0.062702	0.087163
O20	O	1.259462	0.396035	0.420497
O21	O	1.592795	0.729368	0.753830
Cu22	Cu	0.824471	0.074223	0.093030
Cu23	Cu	1.157804	0.407556	0.426363
Cu24	Cu	1.491138	0.740889	0.759697
Cu25	Cu	0.824493	-0.074665	0.093037
Cu26	Cu	1.157827	0.258669	0.426370
Cu27	Cu	1.491160	0.592002	0.759703
O28	O	0.818603	0.062720	0.194687
O29	O	1.151937	0.396053	0.528020
O30	O	1.485270	0.729387	0.861353
C31	C	0.696815	-0.000189	0.098521
C32	C	1.030149	0.333145	0.431854
C33	C	1.363482	0.666478	0.765187
C34	C	0.619311	-0.000169	0.097380
C35	C	0.952644	0.333165	0.430713
C36	C	1.285978	0.666498	0.764047
N37	N	0.824461	0.178942	0.093025
N38	N	1.157794	0.512276	0.426358
N39	N	1.491127	0.845609	0.759692
N40	N	0.824509	-0.179384	0.093036
N41	N	1.157843	0.153949	0.426370
N42	N	1.491176	0.487283	0.759703
C43	C	0.574386	-0.000185	0.160471
C44	C	0.907719	0.333148	0.493804
C45	C	1.241052	0.666482	0.827138
C46	C	0.501562	-0.000193	0.159399
C47	C	0.834895	0.333140	0.492733
C48	C	1.168228	0.666473	0.826066
C49	C	0.473667	-0.000200	0.095233
C50	C	0.807000	0.333133	0.428566
C51	C	1.140333	0.666466	0.761900
C52	C	0.518602	-0.000180	0.032134
C53	C	0.851935	0.333154	0.365467
C54	C	1.185269	0.666487	0.698800
C55	C	0.591424	-0.000164	0.033207
C56	C	0.924758	0.333170	0.366540
C57	C	1.258091	0.666503	0.699874
N58	N	0.365694	-0.043075	0.046188
N59	N	0.699027	0.290258	0.379521
N60	N	1.032361	0.623591	0.712854
N61	N	0.296516	-0.043092	0.045172
N62	N	0.629849	0.290241	0.378506
N63	N	0.963182	0.623575	0.711839
C64	C	0.254258	-0.000246	0.091995
C65	C	0.587592	0.333087	0.425328
C66	C	0.920925	0.666420	0.758661
N67	N	0.283791	0.042607	0.139882
N68	N	0.617125	0.375940	0.473215
N69	N	0.950458	0.709274	0.806548
N70	N	0.352976	0.042620	0.140899
N71	N	0.686309	0.375954	0.474233
N72	N	1.019643	0.709287	0.807566
C73	C	0.394704	-0.000217	0.094062
C74	C	0.728038	0.333116	0.427395
C75	C	1.061371	0.666450	0.760729
C76	C	0.130368	-0.000271	0.153928
C77	C	0.463702	0.333063	0.487262
C78	C	0.797035	0.666396	0.820595
C79	C	0.057543	-0.000274	0.152854
C80	C	0.390877	0.333059	0.486187
C81	C	0.724210	0.666392	0.819521
C82	C	0.074585	-0.000268	0.025586
C83	C	0.407919	0.333065	0.358920
C84	C	0.741252	0.666399	0.692253
C85	C	0.147409	-0.000257	0.026663
C86	C	0.480742	0.333076	0.359996
C87	C	0.814075	0.666410	0.693329
C88	C	0.175295	-0.000262	0.090835
C89	C	0.508629	0.333072	0.424169
C90	C	0.841962	0.666405	0.757502
C91	C	0.952149	-0.000255	0.087546
C92	C	1.285482	0.333078	0.420880
C93	C	1.618816	0.666412	0.754213
C94	C	1.029654	-0.000280	0.088687
C95	C	1.362987	0.333053	0.422020
C96	C	1.696320	0.666387	0.755354
C97	C	0.829973	-0.000213	-0.034634
C98	C	1.163306	0.333121	0.298700
C99	C	1.496639	0.666454	0.632033
C100	C	0.828834	-0.000210	-0.112138
C101	C	1.162167	0.333123	0.221195
C102	C	1.495500	0.666456	0.554528
C103	C	0.872088	0.218544	0.045437
C104	C	1.205422	0.551877	0.378770
C105	C	1.538755	0.885211	0.712104
C106	C	0.872092	0.297791	0.045433
C107	C	1.205426	0.631125	0.378767
C108	C	1.538759	0.964458	0.712100
C109	C	0.824475	0.337434	0.093030
C110	C	1.157809	0.670768	0.426363
C111	C	1.491142	1.004101	0.759697
C112	C	0.776839	0.297823	0.140622
C113	C	1.110172	0.631157	0.473955
C114	C	1.443506	0.964490	0.807289
C115	C	0.776831	0.218577	0.140619
C116	C	1.110165	0.551910	0.473953
C117	C	1.443498	0.885244	0.807286
N118	N	0.815398	0.461850	0.154838
N119	N	1.148731	0.795183	0.488171
N120	N	1.482064	1.128517	0.821504
N121	N	0.815409	0.537130	0.154838
N122	N	1.148742	0.870464	0.488171
N123	N	1.482076	1.203797	0.821505
C124	C	0.824494	0.576198	0.093040
C125	C	1.157827	0.909532	0.426373
C126	C	1.491160	1.242865	0.759707
N127	N	0.833581	0.537142	0.031239
N128	N	1.166914	0.870475	0.364573
N129	N	1.500248	1.203809	0.697906
N130	N	0.833573	0.461855	0.031240
N131	N	1.166907	0.795188	0.364573
N132	N	1.500240	1.128521	0.697906
C133	C	0.824478	0.423363	0.093038
C134	C	1.157811	0.756697	0.426371
C135	C	1.491144	1.090030	0.759705
C136	C	0.872128	0.701729	0.045444
C137	C	1.205462	1.035063	0.378778
C138	C	1.538795	1.368396	0.712111
C139	C	0.872128	0.780978	0.045440
C140	C	1.205461	1.114312	0.378773
C141	C	1.538794	1.447645	0.712107
C142	C	0.776878	0.781009	0.140634
C143	C	1.110211	1.114342	0.473968
C144	C	1.443544	1.447675	0.807301
C145	C	0.776875	0.701761	0.140633
C146	C	1.110208	1.035094	0.473966
C147	C	1.443542	1.368428	0.807299
C148	C	0.824504	0.662126	0.093038
C149	C	1.157837	0.995459	0.426372
C150	C	1.491171	1.328793	0.759705
C151	C	0.828313	-0.068837	-0.148534
C152	C	1.161646	0.264497	0.184799
C153	C	1.494979	0.597830	0.518132
C154	C	0.827233	-0.068842	-0.221357
C155	C	1.160566	0.264491	0.111976
C156	C	1.493899	0.597824	0.445310
C157	C	0.826688	-0.000217	-0.257783
C158	C	1.160021	0.333116	0.075550
C159	C	1.493355	0.666449	0.408884
C160	C	0.827205	0.068418	-0.221378
C161	C	1.160539	0.401751	0.111956
C162	C	1.493872	0.735085	0.445289
C163	C	0.828278	0.068421	-0.148556
C164	C	1.161612	0.401755	0.184778
C165	C	1.494945	0.735088	0.518111
N166	N	0.864728	0.050849	-0.377448
N167	N	1.198062	0.384182	-0.044115
N168	N	1.531395	0.717515	0.289218
N169	N	0.863710	0.050841	-0.446627
N170	N	1.197044	0.384174	-0.113293
N171	N	1.530377	0.717507	0.220040
C172	C	0.823454	-0.000224	-0.477192
C173	C	1.156787	0.333109	-0.143859
C174	C	1.490121	0.666443	0.189475
N175	N	0.784262	-0.051292	-0.435967
N176	N	1.117596	0.282042	-0.102634
N177	N	1.450929	0.615375	0.230700
N178	N	0.785283	-0.051286	-0.366783
N179	N	1.118617	0.282047	-0.033449
N180	N	1.451950	0.615381	0.299884
C181	C	0.825524	-0.000214	-0.336746
C182	C	1.158858	0.333120	-0.003413
C183	C	1.492191	0.666453	0.329920
C184	C	0.821761	-0.068861	-0.592550
C185	C	1.155094	0.264472	-0.259217
C186	C	1.488427	0.597806	0.074116
C187	C	0.820676	-0.068864	-0.665374
C188	C	1.154010	0.264470	-0.332041
C189	C	1.487343	0.597803	0.001293
C190	C	0.820656	0.068399	-0.665394
C191	C	1.153990	0.401732	-0.332061
C192	C	1.487323	0.735065	0.001272
C193	C	0.821734	0.068399	-0.592571
C194	C	1.155067	0.401733	-0.259238
C195	C	1.488400	0.735066	0.074095
C196	C	0.822289	-0.000233	-0.556154
C197	C	1.155622	0.333101	-0.222821
C198	C	1.488956	0.666434	0.110512
C199	C	0.818992	-0.000231	0.220700
C200	C	1.152325	0.333102	0.554034
C201	C	1.485659	0.666436	0.887367
C202	C	0.820131	-0.000238	0.298205
C203	C	1.153464	0.333095	0.631539
C204	C	1.486797	0.666429	0.964872
H205	H	0.464976	-0.000205	0.210777
H206	H	0.798310	0.333129	0.544111
H207	H	1.131643	0.666462	0.877444
H208	H	0.051874	-0.000321	-0.026659
H209	H	0.385208	0.333013	0.306674
H210	H	0.718541	0.666346	0.640008
H211	H	0.828763	-0.124722	-0.118888
H212	H	1.162096	0.208611	0.214446
H213	H	1.495429	0.541944	0.547779
O214	O	0.488522	-0.000187	-0.037077
O215	O	0.821856	0.333146	0.296256
O216	O	1.155189	0.666479	0.629590
H217	H	0.430336	-0.000209	-0.027225
H218	H	0.763669	0.333125	0.306109
H219	H	1.097003	0.666458	0.639442
O220	O	0.639882	-0.000150	-0.034847
O221	O	0.973215	0.333183	0.298487
O222	O	1.306549	0.666516	0.631820
H223	H	0.673436	0.051173	-0.037404
H224	H	1.006769	0.384506	0.295929
H225	H	1.340103	0.717840	0.629263
H226	H	0.826804	-0.124728	-0.250996
H227	H	1.160137	0.208605	0.082338
H228	H	1.493471	0.541939	0.415671
H229	H	0.738104	0.813285	0.179386
H230	H	1.071438	1.146619	0.512719
H231	H	1.404771	1.479952	0.846053
H232	H	0.597086	-0.000191	0.212725
H233	H	0.930419	0.333143	0.546059
H234	H	1.263752	0.666476	0.879392
H235	H	0.820249	-0.124750	-0.695006
H236	H	1.153582	0.208584	-0.361672
H237	H	1.486915	0.541917	-0.028339
H238	H	0.822164	0.124282	-0.562938
H239	H	1.155497	0.457616	-0.229605
H240	H	1.488830	0.790949	0.103728
O241	O	0.195872	-0.000246	-0.041386
O242	O	0.529205	0.333088	0.291948
O243	O	0.862538	0.666421	0.625281
H244	H	0.164243	-0.000256	-0.086186
H245	H	0.497576	0.333077	0.247147
H246	H	0.830909	0.666410	0.580480
O247	O	0.725453	0.175862	0.191946
O248	O	1.058786	0.509196	0.525279
O249	O	1.392119	0.842529	0.858612
H250	H	0.733444	0.114098	0.183943
H251	H	1.066777	0.447432	0.517276
H252	H	1.400110	0.780765	0.850610
H253	H	0.910869	0.186275	0.006681
H254	H	1.244202	0.519609	0.340015
H255	H	1.577536	0.852942	0.673348
H256	H	0.910909	0.669457	0.006688
H257	H	1.244242	1.002791	0.340021
H258	H	1.577576	1.336124	0.673355
H259	H	0.910878	0.330041	0.006680
H260	H	1.244211	0.663374	0.340013
H261	H	1.577544	0.996708	0.673347
O262	O	0.820065	0.142418	-0.704671
O263	O	1.153399	0.475752	-0.371338
O264	O	1.486732	0.809085	-0.038005
H265	H	0.867841	0.175318	-0.697065
H266	H	1.201174	0.508651	-0.363731
H267	H	1.534507	0.841985	-0.030398
O268	O	0.160449	-0.000261	0.223141
O269	O	0.493782	0.333072	0.556475
O270	O	0.827116	0.666406	0.889808
H271	H	0.193240	-0.051572	0.226685
H272	H	0.526573	0.281762	0.560018
H273	H	0.859907	0.615095	0.893352
H274	H	0.826760	0.124293	-0.251040
H275	H	1.160093	0.457626	0.082293
H276	H	1.493427	0.790959	0.415626
O277	O	0.828853	0.142442	-0.109295
O278	O	1.162186	0.475776	0.224039
O279	O	1.495520	0.809109	0.557372
H280	H	0.828298	0.190163	-0.146855
H281	H	1.161631	0.523496	0.186478
H282	H	1.494964	0.856830	0.519811
O283	O	0.009082	-0.000289	0.220905
O284	O	0.342415	0.333044	0.554238
O285	O	0.675748	0.666377	0.887572
H286	H	0.040711	-0.000296	0.265705
H287	H	0.374045	0.333037	0.599038
H288	H	0.707378	0.666370	0.932372
H289	H	0.738067	0.330104	0.179375
H290	H	1.071401	0.663438	0.512708
H291	H	1.404734	0.996771	0.846041
O292	O	0.923509	0.823691	-0.005886
O293	O	1.256843	1.157024	0.327448
O294	O	1.590176	1.490357	0.660781
H295	H	0.914799	0.808490	-0.060297
H296	H	1.248132	1.141823	0.273036
H297	H	1.581465	1.475157	0.606370
O298	O	0.725513	0.659040	0.191968
O299	O	1.058846	0.992373	0.525301
O300	O	1.392180	1.325706	0.858635
H301	H	0.692406	0.699917	0.225070
H302	H	1.025739	1.033250	0.558403
H303	H	1.359073	1.366583	0.891736
O304	O	0.822346	-0.142880	-0.553262
O305	O	1.155680	0.190454	-0.219928
O306	O	1.489013	0.523787	0.113405
H307	H	0.821789	-0.190603	-0.590806
H308	H	1.155122	0.142730	-0.257473
H309	H	1.488456	0.476064	0.075861
