data_functionalizedCrystal
_audit_creation_method	'MofGen! by Chris Wilmer'
_symmetry_space_group_name_H-M	'P1'
_symmetry_Int_Tables_number	1
_symmetry_cell_setting	triclinic
loop_
_symmetry_equiv_pos_as_xyz
  x,y,z
_cell_length_a	25.639242
_cell_length_b	25.639240
_cell_length_c	12.759393
_cell_angle_alpha	89.955765
_cell_angle_beta	89.969545
_cell_angle_gamma	90.028283
loop_
_atom_site_label
_atom_site_type_symbol
_atom_site_fract_x
_atom_site_fract_y
_atom_site_fract_z
Zn1	Zn	0.799289	-0.208182	-0.594224
Zn2	Zn	1.299289	0.291818	-0.094224
Zn3	Zn	0.799209	-0.295629	-0.418505
Zn4	Zn	1.299209	0.204371	0.081495
Zn5	Zn	0.711853	-0.208203	-0.418527
Zn6	Zn	1.211853	0.291797	0.081473
Zn7	Zn	0.711820	-0.295582	-0.594110
Zn8	Zn	1.211820	0.204418	-0.094110
O9	O	0.755543	-0.251899	-0.506341
O10	O	1.255543	0.248101	-0.006341
O11	O	0.872444	-0.219794	-0.570953
O12	O	1.372444	0.280206	-0.070953
O13	O	0.787602	-0.284060	-0.271487
O14	O	1.287602	0.215940	0.228513
O15	O	0.723499	-0.135035	-0.441890
O16	O	1.223499	0.364965	0.058110
O17	O	0.872385	-0.284040	-0.441853
O18	O	1.372385	0.215960	0.058147
O19	O	0.787738	-0.135020	-0.570974
O20	O	1.287738	0.364980	-0.070974
O21	O	0.723421	-0.219828	-0.271503
O22	O	1.223421	0.280172	0.228497
O23	O	0.638683	-0.219782	-0.441780
O24	O	1.138683	0.280218	0.058220
O25	O	0.723443	-0.283960	-0.741146
O26	O	1.223443	0.216040	-0.241146
O27	O	0.638659	-0.283979	-0.570780
O28	O	1.138659	0.216021	-0.070780
O29	O	0.787706	-0.219748	-0.741230
O30	O	1.287706	0.280252	-0.241230
O31	O	0.787569	-0.368788	-0.441743
O32	O	1.287569	0.131212	0.058257
O33	O	0.723365	-0.368753	-0.570759
O34	O	1.223365	0.131247	-0.070759
C35	C	0.619700	-0.251878	-0.506270
C36	C	1.119700	0.248122	-0.006270
C37	C	0.561586	-0.251882	-0.506265
C38	C	1.061586	0.248118	-0.006265
C39	C	0.201219	-0.285382	-0.573448
C40	C	0.701219	0.214618	-0.073448
C41	C	0.146615	-0.285385	-0.573465
C42	C	0.646615	0.214615	-0.073465
O43	O	0.118375	-0.313843	-0.630526
O44	O	0.618375	0.186157	-0.130526
N45	N	0.119304	-0.251913	-0.506410
N46	N	0.619304	0.248087	-0.006410
C47	C	0.146600	-0.218432	-0.439342
C48	C	0.646600	0.281568	0.060658
O49	O	0.118355	-0.189961	-0.382309
O50	O	0.618355	0.310039	0.117691
C51	C	0.201203	-0.218427	-0.439331
C52	C	0.701203	0.281573	0.060669
C53	C	0.228511	-0.251905	-0.506383
C54	C	0.728511	0.248095	-0.006383
C55	C	0.228528	-0.318857	-0.640495
C56	C	0.728528	0.181143	-0.140495
C57	C	0.283128	-0.318854	-0.640477
C58	C	0.783128	0.181146	-0.140477
C59	C	0.310421	-0.285377	-0.573412
C60	C	0.810421	0.214623	-0.073412
C61	C	0.283112	-0.251902	-0.506365
C62	C	0.783112	0.248098	-0.006365
C63	C	0.228498	-0.184943	-0.372269
C64	C	0.728498	0.315057	0.127731
C65	C	0.283105	-0.184940	-0.372265
C66	C	0.783105	0.315060	0.127735
C67	C	0.310413	-0.218418	-0.439317
C68	C	0.810413	0.281582	0.060683
C69	C	0.365005	-0.218422	-0.439281
C70	C	0.865005	0.281578	0.060719
N71	N	0.392316	-0.251894	-0.506336
N72	N	0.892316	0.248106	-0.006336
C73	C	0.365024	-0.285371	-0.573401
C74	C	0.865024	0.214629	-0.073401
C75	C	0.031929	-0.218445	-0.439370
C76	C	0.531929	0.281555	0.060630
C77	C	-0.022673	-0.218453	-0.439375
C78	C	0.477327	0.281547	0.060625
C79	C	-0.022654	-0.285406	-0.573499
C80	C	0.477346	0.214594	-0.073499
C81	C	0.031949	-0.285400	-0.573489
C82	C	0.531949	0.214600	-0.073489
C83	C	0.059240	-0.251917	-0.506425
C84	C	0.559240	0.248083	-0.006425
C85	C	0.479689	-0.285364	-0.573357
C86	C	0.979689	0.214636	-0.073357
C87	C	0.534294	-0.285360	-0.573330
C88	C	1.034294	0.214640	-0.073330
C89	C	0.534270	-0.218405	-0.439210
C90	C	1.034270	0.281595	0.060790
C91	C	0.479670	-0.218411	-0.439233
C92	C	0.979670	0.281589	0.060767
C93	C	0.452380	-0.251892	-0.506315
C94	C	0.952380	0.248108	-0.006315
O95	O	0.393279	-0.189977	-0.382252
O96	O	0.893279	0.310023	0.117748
O97	O	0.393275	-0.313833	-0.630435
O98	O	0.893275	0.186167	-0.130435
C99	C	0.755469	-0.387741	-0.506259
C100	C	1.255469	0.112259	-0.006259
C101	C	0.755485	-0.445856	-0.506259
C102	C	1.255485	0.054144	-0.006259
C103	C	0.789009	-0.806172	-0.573677
C104	C	1.289009	-0.306172	-0.073677
C105	C	0.789024	-0.860777	-0.573698
C106	C	1.289024	-0.360777	-0.073698
O107	O	0.817439	-0.888974	-0.630934
O108	O	1.317439	-0.388974	-0.130934
N109	N	0.755615	-0.888138	-0.506443
N110	N	1.255615	-0.388138	-0.006443
C111	C	0.722185	-0.860892	-0.439170
C112	C	1.222185	-0.360892	0.060830
O113	O	0.693770	-0.889179	-0.381967
O114	O	1.193770	-0.389179	0.118033
C115	C	0.722168	-0.806289	-0.439154
C116	C	1.222168	-0.306289	0.060846
C117	C	0.755582	-0.778930	-0.506406
C118	C	1.255582	-0.278930	-0.006406
C119	C	0.822420	-0.778814	-0.640924
C120	C	1.322420	-0.278814	-0.140924
C121	C	0.822406	-0.724213	-0.640901
C122	C	1.322406	-0.224213	-0.140901
C123	C	0.788979	-0.696971	-0.573631
C124	C	1.288979	-0.196971	-0.073631
C125	C	0.755568	-0.724330	-0.506383
C126	C	1.255568	-0.224330	-0.006383
C127	C	0.688735	-0.779044	-0.371887
C128	C	1.188735	-0.279044	0.128113
C129	C	0.688720	-0.724437	-0.371878
C130	C	1.188720	-0.224437	0.128122
C131	C	0.722135	-0.697078	-0.439130
C132	C	1.222135	-0.197078	0.060870
C133	C	0.722126	-0.642487	-0.439090
C134	C	1.222126	-0.142487	0.060910
N135	N	0.755535	-0.615126	-0.506345
N136	N	1.255535	-0.115126	-0.006345
C137	C	0.788961	-0.642368	-0.573615
C138	C	1.288961	-0.142368	-0.073615
C139	C	0.722224	-0.975563	-0.439208
C140	C	1.222224	-0.475563	0.060792
C141	C	0.722244	-1.030165	-0.439217
C142	C	1.222244	-0.530165	0.060783
C143	C	0.789083	-1.030046	-0.573747
C144	C	1.289083	-0.530046	-0.073747
C145	C	0.789065	-0.975442	-0.573732
C146	C	1.289065	-0.475442	-0.073732
C147	C	0.755633	-0.948201	-0.506463
C148	C	1.255633	-0.448201	-0.006463
C149	C	0.788928	-0.527703	-0.573561
C150	C	1.288928	-0.027703	-0.073561
C151	C	0.788912	-0.473097	-0.573529
C152	C	1.288912	0.026903	-0.073529
C153	C	0.722072	-0.473222	-0.439004
C154	C	1.222072	0.026778	0.060996
C155	C	0.722090	-0.527822	-0.439031
C156	C	1.222090	-0.027822	0.060969
C157	C	0.755520	-0.555061	-0.506319
C158	C	1.255520	-0.055061	-0.006319
O159	O	0.693724	-0.614255	-0.381886
O160	O	1.193724	-0.114255	0.118114
O161	O	0.817368	-0.614074	-0.630819
O162	O	1.317368	-0.114074	-0.130819
C163	C	0.891916	-0.251920	-0.506414
C164	C	1.391916	0.248080	-0.006414
C165	C	0.950030	-0.251929	-0.506444
C166	C	1.450030	0.248071	-0.006444
C167	C	0.755580	-0.251846	-0.780375
C168	C	1.255580	0.248154	-0.280375
C169	C	0.755595	-0.251824	-0.897152
C170	C	1.255595	0.248176	-0.397152
C171	C	0.755631	-0.115526	-0.506447
C172	C	1.255631	0.384474	-0.006447
C173	C	0.755669	-0.057412	-0.506492
C174	C	1.255669	0.442588	-0.006492
C175	C	0.789062	-0.218385	-0.952059
C176	C	1.289062	0.281615	-0.452059
C177	C	0.789074	-0.218366	-1.061783
C178	C	1.289074	0.281634	-0.561783
C179	C	0.722152	-0.285229	-1.061683
C180	C	1.222152	0.214771	-0.561683
C181	C	0.722137	-0.285245	-0.951961
C182	C	1.222137	0.214755	-0.451961
C183	C	0.822520	-0.184964	-0.897250
C184	C	1.322520	0.315036	-0.397250
C185	C	0.855989	-0.151524	-0.952157
C186	C	1.355989	0.348476	-0.452157
C187	C	0.856002	-0.151505	-1.061881
C188	C	1.356002	0.348495	-0.561881
C189	C	0.822545	-0.184927	-1.116698
C190	C	1.322545	0.315073	-0.616698
C191	C	0.755537	-0.251914	-0.233374
C192	C	1.255537	0.248086	0.266626
C193	C	0.755622	-0.251789	-0.116598
C194	C	1.255622	0.248211	0.383402
H195	H	0.556501	-0.191150	-0.384604
H196	H	1.056501	0.308850	0.115396
H197	H	0.849613	-0.701941	-0.695666
H198	H	1.349613	-0.201941	-0.195666
Br199	Br	0.834415	-0.938319	-0.665005
Br200	Br	1.334415	-0.438319	-0.165005
H201	H	0.457434	-0.191151	-0.384632
H202	H	0.957434	0.308849	0.115368
Br203	Br	0.822553	-0.184891	-1.265611
Br204	Br	1.322553	0.315109	-0.765611
Br205	Br	0.068962	-0.173003	-0.348340
Br206	Br	0.568962	0.326997	0.151660
Br207	Br	0.191499	-0.364297	-0.731526
Br208	Br	0.691499	0.135703	-0.231526
Br209	Br	0.191450	-0.139503	-0.281270
Br210	Br	0.691450	0.360497	0.218730
Br211	Br	0.676750	-0.330585	-1.136077
Br212	Br	1.176750	0.169415	-0.636077
Br213	Br	0.320140	-0.139495	-0.281248
Br214	Br	0.820140	0.360505	0.218752
H215	H	0.694858	-0.451033	-0.384230
H216	H	1.194858	0.048967	0.115770
H217	H	-0.044885	-0.312663	-0.628111
H218	H	0.455115	0.187337	-0.128111
H219	H	0.694878	-0.312465	-0.907254
H220	H	1.194878	0.187535	-0.407254
H221	H	0.849640	-0.800988	-0.695710
H222	H	1.349640	-0.300988	-0.195710
H223	H	-0.044903	-0.191197	-0.384764
H224	H	0.455097	0.308803	0.115236
Br225	Br	0.834265	-0.435971	-0.664802
Br226	Br	1.334265	0.064029	-0.164802
H227	H	0.822514	-0.184977	-0.807907
H228	H	1.322514	0.315023	-0.307907
Br229	Br	0.834298	-0.564662	-0.664879
Br230	Br	1.334298	-0.064662	-0.164879
Br231	Br	0.901424	-0.106123	-1.136397
Br232	Br	1.401424	0.393877	-0.636397
H233	H	0.816299	-1.052236	-0.628525
H234	H	1.316299	-0.552236	-0.128525
H235	H	0.457476	-0.312626	-0.627984
H236	H	0.957476	0.187374	-0.127984
Br237	Br	0.571353	-0.330799	-0.664330
Br238	Br	1.071353	0.169201	-0.164330
Br239	Br	0.320181	-0.364289	-0.731485
Br240	Br	0.820181	0.135711	-0.231485
H241	H	0.054180	-0.312660	-0.628090
H242	H	0.554180	0.187340	-0.128090
H243	H	0.695040	-1.052436	-0.384443
H244	H	1.195040	-0.552436	0.115557
Br245	Br	0.901383	-0.106158	-0.877767
Br246	Br	1.401383	0.393842	-0.377767
Br247	Br	0.643345	-0.687470	-0.280581
Br248	Br	1.143345	-0.187470	0.219419
Br249	Br	0.676851	-0.938598	-0.347900
Br250	Br	1.176851	-0.438598	0.152100
Br251	Br	0.643383	-0.816160	-0.280613
Br252	Br	1.143383	-0.316160	0.219387
H253	H	0.694885	-0.550099	-0.384261
H254	H	1.194885	-0.050099	0.115739
