data_functionalizedCrystal
_audit_creation_method	'MofGen! by Chris Wilmer'
_symmetry_space_group_name_H-M	'P1'
_symmetry_Int_Tables_number	1
_symmetry_cell_setting	triclinic
loop_
_symmetry_equiv_pos_as_xyz
  x,y,z
_cell_length_a	13.032831
_cell_length_b	18.101395
_cell_length_c	13.032268
_cell_angle_alpha	97.146252
_cell_angle_beta	90.886977
_cell_angle_gamma	82.835691
loop_
_atom_site_label
_atom_site_type_symbol
_atom_site_fract_x
_atom_site_fract_y
_atom_site_fract_z
Zn1	Zn	1.498320	-0.500117	-0.780796
Zn2	Zn	1.831654	-0.166783	-0.447463
Zn3	Zn	2.164987	0.166550	-0.114130
Zn4	Zn	1.520028	-0.610451	-0.608808
Zn5	Zn	1.853361	-0.277118	-0.275475
Zn6	Zn	2.186694	0.056216	0.057859
Zn7	Zn	1.348189	-0.469181	-0.587040
Zn8	Zn	1.681522	-0.135847	-0.253707
Zn9	Zn	2.014855	0.197486	0.079627
Zn10	Zn	1.326277	-0.606447	-0.758934
Zn11	Zn	1.659610	-0.273114	-0.425600
Zn12	Zn	1.992944	0.060220	-0.092267
O13	O	1.423203	-0.546549	-0.683894
O14	O	1.756537	-0.213215	-0.350561
O15	O	2.089870	0.120118	-0.017228
O16	O	1.645116	-0.529375	-0.776242
O17	O	1.978449	-0.196042	-0.442908
O18	O	2.311782	0.137292	-0.109575
O19	O	1.515487	-0.580440	-0.462005
O20	O	1.848821	-0.247107	-0.128671
O21	O	2.182154	0.086227	0.204662
O22	O	1.368189	-0.369663	-0.612782
O23	O	1.701523	-0.036330	-0.279448
O24	O	2.034856	0.297004	0.053885
O25	O	1.661064	-0.610437	-0.649882
O26	O	1.994397	-0.277104	-0.316549
O27	O	2.327731	0.056230	0.016784
O28	O	1.478491	-0.392391	-0.755134
O29	O	1.811824	-0.059058	-0.421801
O30	O	2.145157	0.274275	-0.088467
O31	O	1.389238	-0.476650	-0.446012
O32	O	1.722571	-0.143316	-0.112678
O33	O	2.055905	0.190017	0.220655
O34	O	1.201366	-0.472767	-0.591582
O35	O	1.534699	-0.139434	-0.258249
O36	O	1.868033	0.193900	0.075085
O37	O	1.330844	-0.603613	-0.905750
O38	O	1.664178	-0.270280	-0.572416
O39	O	1.997511	0.063054	-0.239083
O40	O	1.185268	-0.573616	-0.717872
O41	O	1.518601	-0.240283	-0.384538
O42	O	1.851934	0.093051	-0.051205
O43	O	1.457244	-0.525493	-0.921812
O44	O	1.790577	-0.192159	-0.588479
O45	O	2.123910	0.141174	-0.255146
O46	O	1.494241	-0.713541	-0.628683
O47	O	1.827574	-0.380208	-0.295349
O48	O	2.160907	-0.046875	0.037984
O49	O	1.351893	-0.710600	-0.738979
O50	O	1.685226	-0.377266	-0.405646
O51	O	2.018559	-0.043933	-0.072313
C52	C	1.156001	-0.519401	-0.649993
C53	C	1.489334	-0.186067	-0.316660
C54	C	1.822668	0.147266	0.016674
C55	C	1.041687	-0.507806	-0.635514
C56	C	1.375021	-0.174473	-0.302181
C57	C	1.708354	0.158860	0.031153
C58	C	0.982797	-0.552600	-0.691451
C59	C	1.316130	-0.219267	-0.358118
C60	C	1.649464	0.114067	-0.024784
C61	C	0.864648	-0.540618	-0.676488
C62	C	1.197981	-0.207285	-0.343154
C63	C	1.531315	0.126049	-0.009821
C64	C	1.423070	-0.738943	-0.683847
C65	C	1.756403	-0.405610	-0.350513
C66	C	2.089736	-0.072276	-0.017180
C67	C	1.423102	-0.821262	-0.683873
C68	C	1.756435	-0.487929	-0.350539
C69	C	2.089769	-0.154596	-0.017206
C70	C	1.423321	-1.120381	-0.683957
C71	C	1.756654	-0.787047	-0.350623
C72	C	2.089987	-0.453714	-0.017290
C73	C	1.333919	-1.087270	-0.753573
C74	C	1.667252	-0.753936	-0.420240
C75	C	2.000585	-0.420603	-0.086906
C76	C	1.333573	-1.001594	-0.753276
C77	C	1.666907	-0.668260	-0.419943
C78	C	2.000240	-0.334927	-0.086609
C79	C	1.423212	-0.971985	-0.683916
C80	C	1.756545	-0.638651	-0.350583
C81	C	2.089879	-0.305318	-0.017249
C82	C	1.407642	-0.991648	-0.571811
C83	C	1.740975	-0.658315	-0.238478
C84	C	2.074308	-0.324982	0.094855
C85	C	1.407070	-1.077279	-0.572223
C86	C	1.740403	-0.743946	-0.238890
C87	C	2.073737	-0.410613	0.094443
C88	C	1.528588	-1.101951	-0.725513
C89	C	1.861921	-0.768617	-0.392180
C90	C	2.195255	-0.435284	-0.058846
C91	C	1.527646	-1.016421	-0.727809
C92	C	1.860980	-0.683088	-0.394476
C93	C	2.194313	-0.349755	-0.061142
C94	C	1.423153	-0.888117	-0.683886
C95	C	1.756487	-0.554784	-0.350553
C96	C	2.089820	-0.221451	-0.017220
C97	C	1.423378	-1.204247	-0.683979
C98	C	1.756711	-0.870914	-0.350645
C99	C	2.090045	-0.537580	-0.017312
C100	C	1.691449	-0.573804	-0.717929
C101	C	2.024782	-0.240470	-0.384596
C102	C	2.358116	0.092863	-0.051262
C103	C	1.805759	-0.585418	-0.732432
C104	C	2.139093	-0.252085	-0.399099
C105	C	2.472426	0.081249	-0.065766
C106	C	1.389178	-0.567557	-0.952140
C107	C	1.722512	-0.234224	-0.618807
C108	C	2.055845	0.099110	-0.285473
C109	C	1.374679	-0.576509	-1.066450
C110	C	1.708012	-0.243176	-0.733117
C111	C	2.041346	0.090157	-0.399784
C112	C	1.423363	-0.353408	-0.683968
C113	C	1.756696	-0.020075	-0.350635
C114	C	2.090029	0.313259	-0.017302
C115	C	1.423431	-0.271103	-0.684000
C116	C	1.756764	0.062231	-0.350667
C117	C	2.090097	0.395564	-0.017333
C118	C	1.430755	-0.541848	-1.125361
C119	C	1.764088	-0.208515	-0.792028
C120	C	2.097421	0.124818	-0.458694
C121	C	1.415770	-0.551100	-1.243507
C122	C	1.749104	-0.217767	-0.910173
C123	C	2.082437	0.115567	-0.576840
C124	C	1.457155	-0.525575	-0.416700
C125	C	1.790488	-0.192242	-0.083367
C126	C	2.123822	0.141092	0.249967
C127	C	1.471854	-0.516434	-0.302416
C128	C	1.805187	-0.183101	0.030918
C129	C	2.138520	0.150233	0.364251
H130	H	1.019848	-0.599818	-0.750422
H131	H	1.353181	-0.266485	-0.417089
H132	H	1.686514	0.066849	-0.083755
H133	H	0.842804	-0.632638	-0.791410
H134	H	1.176137	-0.299305	-0.458077
H135	H	1.509471	0.034029	-0.124744
H136	H	0.827601	-0.493392	-0.617521
H137	H	1.160934	-0.160058	-0.284187
H138	H	1.494268	0.173275	0.049146
H139	H	1.470108	-1.098787	-0.517844
H140	H	1.803442	-0.765454	-0.184511
H141	H	2.136775	-0.432120	0.148822
H142	H	1.004636	-0.460583	-0.576551
H143	H	1.337969	-0.127250	-0.243218
H144	H	1.671302	0.206083	0.090116
H145	H	1.341720	-0.988702	-0.835969
H146	H	1.675053	-0.655369	-0.502636
H147	H	2.008386	-0.322036	-0.169303
H148	H	1.530954	-0.479903	-1.265390
H149	H	1.864288	-0.146569	-0.932056
H150	H	2.197621	0.186764	-0.598723
H151	H	1.356658	-0.587621	-1.280533
H152	H	1.689991	-0.254288	-0.947199
H153	H	2.023324	0.079045	-0.613866
H154	H	1.341850	-1.115992	-0.836504
H155	H	1.675183	-0.782658	-0.503170
H156	H	2.008516	-0.449325	-0.169837
H157	H	1.256075	-1.099292	-0.725253
H158	H	1.589408	-0.765959	-0.391919
H159	H	1.922741	-0.432625	-0.058586
H160	H	1.255269	-0.971539	-0.724662
H161	H	1.588602	-0.638205	-0.391329
H162	H	1.921935	-0.304872	-0.057995
H163	H	1.330530	-1.087401	-0.538622
H164	H	1.663863	-0.754067	-0.205289
H165	H	1.997196	-0.420734	0.128044
H166	H	1.471316	-0.972170	-0.517925
H167	H	1.804650	-0.638837	-0.184592
H168	H	2.137983	-0.305504	0.148742
H169	H	1.331997	-0.960395	-0.537896
H170	H	1.665331	-0.627061	-0.204562
H171	H	1.998664	-0.293728	0.128771
H172	H	1.545469	-1.132313	-0.806592
H173	H	1.878802	-0.798980	-0.473258
H174	H	2.212135	-0.465647	-0.139925
H175	H	1.315571	-0.613028	-1.103481
H176	H	1.648904	-0.279695	-0.770147
H177	H	1.982237	0.053639	-0.436814
H178	H	1.539638	-1.004566	-0.810379
H179	H	1.872971	-0.671233	-0.477046
H180	H	2.206305	-0.337900	-0.143713
H181	H	1.596674	-0.997101	-0.681897
H182	H	1.930007	-0.663767	-0.348564
H183	H	2.263340	-0.330434	-0.015231
H184	H	1.595027	-1.123643	-0.674977
H185	H	1.928360	-0.790310	-0.341643
H186	H	2.261694	-0.456977	-0.008310
H187	H	1.489853	-0.505321	-1.088329
H188	H	1.823186	-0.171988	-0.754996
H189	H	2.156520	0.161346	-0.421662
