data_functionalizedCrystal
_audit_creation_method	'MofGen! by Chris Wilmer'
_symmetry_space_group_name_H-M	'P1'
_symmetry_Int_Tables_number	1
_symmetry_cell_setting	triclinic
loop_
_symmetry_equiv_pos_as_xyz
  x,y,z
_cell_length_a	19.188933
_cell_length_b	19.188930
_cell_length_c	18.266242
_cell_angle_alpha	89.988525
_cell_angle_beta	89.992377
_cell_angle_gamma	83.145175
loop_
_atom_site_label
_atom_site_type_symbol
_atom_site_fract_x
_atom_site_fract_y
_atom_site_fract_z
O1	O	0.926148	0.087175	-0.060865
O2	O	0.722837	0.098908	-0.060873
O3	O	0.830360	-0.008614	-0.060854
O4	O	0.818626	0.194697	-0.060883
O5	O	0.830342	-0.008620	0.060908
O6	O	0.722819	0.098902	0.060889
O7	O	0.926130	0.087170	0.060897
Zn8	Zn	0.824472	0.093035	0.080226
Zn9	Zn	0.824496	0.093042	-0.080201
O10	O	0.818608	0.194692	0.060879
C11	C	0.696817	0.098525	0.000008
C12	C	0.619313	0.097384	0.000005
C13	C	0.066067	0.089242	-0.066358
C14	C	0.138892	0.090310	-0.066361
C15	C	0.175299	0.090844	0.000011
C16	C	0.138878	0.090292	0.066391
C17	C	0.066056	0.089217	0.066392
N18	N	0.284311	0.132260	0.049409
N19	N	0.353489	0.133283	0.049403
C20	C	0.394707	0.094082	0.000012
N21	N	0.364134	0.053828	-0.049385
N22	N	0.294949	0.052808	-0.049382
C23	C	0.254262	0.092009	0.000017
C24	C	0.510084	0.095787	-0.066367
C25	C	0.582911	0.096851	-0.066368
C26	C	0.582894	0.096840	0.066386
C27	C	0.510071	0.095769	0.066385
C28	C	0.473669	0.095246	0.000006
C29	C	0.829971	-0.034628	0.000029
C30	C	0.828830	-0.112132	0.000035
C31	C	0.891921	-0.157056	0.000041
C32	C	0.890849	-0.229880	0.000029
C33	C	0.826683	-0.257777	0.000026
C34	C	0.763584	-0.212843	0.000016
C35	C	0.764658	-0.140021	0.000021
N36	N	0.777630	-0.365784	0.041462
N37	N	0.776614	-0.434962	0.041460
C38	C	0.823445	-0.477185	0.000011
N39	N	0.871340	-0.447618	-0.041425
N40	N	0.872358	-0.378433	-0.041419
C41	C	0.825512	-0.336739	0.000021
C42	C	0.885378	-0.601073	0.000004
C43	C	0.884304	-0.673898	-0.000013
C44	C	0.757037	-0.656860	-0.000019
C45	C	0.758113	-0.584037	-0.000010
C46	C	0.822286	-0.556148	0.000005
C47	C	0.952150	0.087553	0.000015
C48	C	1.029655	0.088694	0.000013
C49	C	0.818997	0.220705	-0.000006
C50	C	0.820137	0.298210	-0.000017
N51	N	0.824461	0.093030	0.189713
N52	N	0.824512	0.093042	-0.189688
C53	C	0.872087	0.045442	0.228030
C54	C	0.872092	0.045439	0.304675
C55	C	0.824476	0.093035	0.342999
C56	C	0.776841	0.140626	0.304673
C57	C	0.776833	0.140624	0.228030
N58	N	0.815400	0.154843	0.463323
N59	N	0.815412	0.154843	0.536131
C60	C	0.824496	0.093045	0.573922
N61	N	0.833581	0.031245	0.536154
N62	N	0.833573	0.031245	0.463339
C63	C	0.824479	0.093043	0.426106
C64	C	0.872130	0.045450	0.695346
C65	C	0.872129	0.045446	0.771992
C66	C	0.776882	0.140640	0.771990
C67	C	0.776879	0.140638	0.695345
C68	C	0.824506	0.093044	0.657028
H69	H	0.036409	0.088774	0.120441
H70	H	0.036434	0.088813	-0.120409
C71	C	0.924521	-0.006903	0.814146
C72	C	0.976923	-0.059238	0.771997
C73	C	1.029315	-0.111588	0.814153
C74	C	1.029306	-0.111603	0.898458
C75	C	0.976902	-0.059267	0.940612
C76	C	0.924510	-0.006917	0.898456
H77	H	0.976931	-0.059228	0.709586
H78	H	1.068107	-0.150330	0.782948
H79	H	1.068090	-0.150356	0.929664
H80	H	0.976894	-0.059277	1.003023
H81	H	0.885718	0.031826	0.929661
H82	H	0.738109	0.179391	0.803193
C83	C	0.955964	-0.570387	0.000010
C84	C	0.974194	-0.522685	0.063244
C85	C	1.044779	-0.492000	0.063250
C86	C	1.097134	-0.509018	0.000021
C87	C	1.078905	-0.556723	-0.063219
C88	C	1.008320	-0.587408	-0.063224
H89	H	0.935437	-0.510085	0.110055
H90	H	1.058273	-0.456686	0.110064
H91	H	1.149385	-0.486304	0.000025
H92	H	1.117662	-0.569323	-0.110029
H93	H	0.994826	-0.622722	-0.110039
H94	H	0.706738	-0.547459	-0.000010
C95	C	0.695253	-0.090601	0.000021
C96	C	0.642619	-0.093567	-0.063210
C97	C	0.573214	-0.044145	-0.063207
C98	C	0.556443	0.008243	0.000025
C99	C	0.609079	0.011212	0.063261
C100	C	0.678484	-0.038210	0.063258
H101	H	0.655032	-0.132351	-0.110023
H102	H	0.534249	-0.046344	-0.110019
H103	H	0.505065	0.044828	0.000027
H104	H	0.596665	0.049995	0.110074
H105	H	0.717448	-0.036012	0.110070
H106	H	0.935682	-0.710475	-0.000012
H107	H	0.704792	-0.679573	-0.000025
H108	H	0.738099	0.179391	0.664145
H109	H	0.910867	0.006687	0.196834
H110	H	0.738070	0.179379	0.335881
H111	H	0.738049	0.179376	0.196831
C112	C	0.178956	0.090917	-0.139374
C113	C	0.138917	0.090341	-0.212386
C114	C	0.178979	0.090950	-0.285398
C115	C	0.259080	0.092134	-0.285397
C116	C	0.299124	0.092710	-0.212382
C117	C	0.259062	0.092102	-0.139370
H118	H	0.079618	0.089464	-0.212389
H119	H	0.149336	0.090523	-0.339449
H120	H	0.288736	0.092585	-0.339445
H121	H	0.358423	0.093587	-0.212379
H122	H	0.288705	0.092528	-0.085319
H123	H	0.711340	-0.235562	0.000012
C124	C	0.924488	-0.006907	0.346834
C125	C	0.976895	-0.059236	0.304684
C126	C	1.029292	-0.111581	0.346840
C127	C	1.029283	-0.111598	0.431145
C128	C	0.976874	-0.059267	0.473299
C129	C	0.924476	-0.006922	0.431143
H130	H	0.976904	-0.059225	0.242273
H131	H	1.068089	-0.150319	0.315634
H132	H	1.068070	-0.150347	0.462351
H133	H	0.976865	-0.059278	0.535710
H134	H	0.885680	0.031817	0.462349
C135	C	0.178922	0.090881	0.139402
C136	C	0.259022	0.092069	0.139404
C137	C	0.299066	0.092654	0.212418
C138	C	0.259009	0.092052	0.285429
C139	C	0.178904	0.090865	0.285429
C140	C	0.138860	0.090279	0.212415
H141	H	0.288679	0.092515	0.085354
H142	H	0.358365	0.093533	0.212417
H143	H	0.288652	0.092485	0.339477
H144	H	0.149247	0.090419	0.339478
H145	H	0.079561	0.089400	0.212416
C146	C	0.470037	0.095199	-0.139380
C147	C	0.488166	0.034732	-0.194127
C148	C	0.448120	0.034142	-0.267139
C149	C	0.389946	0.094020	-0.285404
C150	C	0.371814	0.154492	-0.230655
C151	C	0.411860	0.155081	-0.157643
H152	H	0.531232	-0.009597	-0.180608
H153	H	0.461543	-0.010623	-0.307667
H154	H	0.360302	0.093584	-0.339451
H155	H	0.328748	0.198821	-0.244174
H156	H	0.398437	0.199847	-0.117115
H157	H	0.910909	0.006694	0.664147
H158	H	0.612557	0.097291	-0.120417
H159	H	0.480423	0.095326	0.120432
C160	C	0.960253	-0.279307	0.000043
C161	C	1.030838	-0.248631	0.000061
C162	C	1.100241	-0.298057	0.000077
C163	C	1.099059	-0.378158	0.000076
C164	C	1.028471	-0.408838	0.000059
C165	C	0.959068	-0.359413	0.000042
H166	H	1.031716	-0.189332	0.000061
H167	H	1.152496	-0.275345	0.000090
H168	H	1.150435	-0.414745	0.000089
H169	H	1.027593	-0.468138	0.000058
H170	H	0.906813	-0.382125	0.000030
H171	H	0.612537	0.097273	0.120428
H172	H	0.944175	-0.134354	0.000050
