data_functionalizedCrystal
_audit_creation_method	'MofGen! by Chris Wilmer'
_symmetry_space_group_name_H-M	'P1'
_symmetry_Int_Tables_number	1
_symmetry_cell_setting	triclinic
loop_
_symmetry_equiv_pos_as_xyz
  x,y,z
_cell_length_a	18.215407
_cell_length_b	19.805405
_cell_length_c	18.215399
_cell_angle_alpha	90.028342
_cell_angle_beta	90.016885
_cell_angle_gamma	90.024169
loop_
_atom_site_label
_atom_site_type_symbol
_atom_site_fract_x
_atom_site_fract_y
_atom_site_fract_z
Zn1	Zn	1.125059	-0.269514	0.416068
Zn2	Zn	1.625059	0.230486	0.916068
Zn3	Zn	1.124964	-0.382705	0.293001
Zn4	Zn	1.624964	0.117295	0.793001
Zn5	Zn	1.001993	-0.269531	0.293020
Zn6	Zn	1.501993	0.230469	0.793020
Zn7	Zn	1.001953	-0.382661	0.416032
Zn8	Zn	1.501953	0.117339	0.916032
O9	O	1.063492	-0.326103	0.354530
O10	O	1.563492	0.173897	0.854530
O11	O	1.228031	-0.284540	0.399750
O12	O	1.728031	0.215460	0.899750
O13	O	1.108629	-0.367718	0.190020
O14	O	1.608629	0.132282	0.690020
O15	O	1.018374	-0.174812	0.309366
O16	O	1.518374	0.325188	0.809366
O17	O	1.227961	-0.367702	0.309334
O18	O	1.727961	0.132298	0.809334
O19	O	1.108790	-0.174799	0.399768
O20	O	1.608790	0.325201	0.899768
O21	O	1.018282	-0.284569	0.190033
O22	O	1.518282	0.215431	0.690033
O23	O	0.899003	-0.284526	0.309331
O24	O	1.399003	0.215474	0.809331
O25	O	1.018307	-0.367626	0.519021
O26	O	1.518307	0.132374	1.019021
O27	O	0.898974	-0.367642	0.399707
O28	O	1.398974	0.132358	0.899707
O29	O	1.108752	-0.284497	0.519047
O30	O	1.608752	0.215503	1.019047
O31	O	1.108591	-0.477416	0.309299
O32	O	1.608591	0.022584	0.809299
O33	O	1.018215	-0.477383	0.399688
O34	O	1.518215	0.022617	0.899688
C35	C	0.872286	-0.326082	0.354517
C36	C	1.372286	0.173918	0.854517
C37	C	0.790487	-0.326089	0.354529
C38	C	1.290487	0.173911	0.854529
C39	C	0.602328	-0.282876	0.401683
C40	C	1.102328	0.217124	0.901683
C41	C	0.525470	-0.282882	0.401686
C42	C	1.025470	0.217118	0.901686
C43	C	0.525408	-0.369348	0.307390
C44	C	1.025408	0.130652	0.807390
C45	C	0.602266	-0.369338	0.307384
C46	C	1.102266	0.130662	0.807384
C47	C	0.640724	-0.326103	0.354535
C48	C	1.140724	0.173897	0.854535
C49	C	0.487008	-0.326119	0.354543
C50	C	0.987008	0.173881	0.854543
C51	C	0.403674	-0.326125	0.354546
C52	C	0.903674	0.173875	0.854546
C53	C	0.724063	-0.326096	0.354532
C54	C	1.224063	0.173904	0.854532
C55	C	1.063409	-0.501959	0.354504
C56	C	1.563409	-0.001959	0.854504
C57	C	1.063440	-0.577191	0.354517
C58	C	1.563440	-0.077191	0.854517
C59	C	1.110492	-0.612470	0.401626
C60	C	1.610492	-0.112470	0.901626
C61	C	1.110518	-0.683158	0.401640
C62	C	1.610518	-0.183158	0.901640
C63	C	1.063496	-0.718566	0.354540
C64	C	1.563496	-0.218566	0.854540
C65	C	1.016439	-0.683282	0.307428
C66	C	1.516439	-0.183282	0.807428
C67	C	1.016409	-0.612595	0.307419
C68	C	1.516409	-0.112595	0.807419
C69	C	1.016557	-0.968355	0.307466
C70	C	1.516557	-0.468355	0.807466
C71	C	1.016592	-1.039047	0.307478
C72	C	1.516592	-0.539047	0.807478
C73	C	1.110666	-1.038919	0.401687
C74	C	1.610666	-0.538919	0.901687
C75	C	1.110637	-0.968232	0.401678
C76	C	1.610637	-0.468232	0.901678
C77	C	1.063577	-0.932953	0.354569
C78	C	1.563577	-0.432953	0.854569
C79	C	1.063548	-0.856305	0.354556
C80	C	1.563548	-0.356305	0.854556
C81	C	1.063529	-0.795213	0.354549
C82	C	1.563529	-0.295213	0.854549
C83	C	1.255445	-0.326124	0.354544
C84	C	1.755445	0.173876	0.854544
C85	C	1.337244	-0.326133	0.354549
C86	C	1.837244	0.173867	0.854549
C87	C	1.063536	-0.326055	0.546483
C88	C	1.563536	0.173945	1.046483
C89	C	1.063554	-0.326034	0.628282
C90	C	1.563554	0.173966	1.128282
C91	C	1.063597	-0.149560	0.354573
C92	C	1.563597	0.350440	0.854573
C93	C	1.063641	-0.074328	0.354591
C94	C	1.563641	0.425672	0.854591
C95	C	1.063492	-0.326101	0.163324
C96	C	1.563492	0.173899	0.663324
C97	C	1.063616	-0.325931	0.081525
C98	C	1.563616	0.174069	0.581525
C99	C	1.110676	-0.282691	0.893355
C100	C	1.610676	0.217309	1.393355
C101	C	1.110667	-0.282709	0.816496
C102	C	1.610667	0.217291	1.316496
C103	C	1.016492	-0.369280	0.816458
C104	C	1.516492	0.130720	1.316458
C105	C	1.016505	-0.369264	0.893316
C106	C	1.516505	0.130736	1.393316
C107	C	1.063596	-0.325966	0.931762
C108	C	1.563596	0.174034	1.431762
C109	C	1.063574	-0.326000	0.778046
C110	C	1.563574	0.174000	1.278046
C111	C	1.063564	-0.326020	0.694712
C112	C	1.563564	0.173980	1.194712
C113	C	1.063607	-0.325946	1.015101
C114	C	1.563607	0.174054	1.515101
H115	H	1.148786	-0.583646	0.439977
H116	H	1.648786	-0.083646	0.939977
H117	H	0.633639	-0.247669	0.440074
H118	H	1.133639	0.252331	0.940074
H119	H	0.494212	-0.247681	0.440077
H120	H	0.994212	0.252319	0.940077
O121	O	0.487935	-0.411327	0.261664
O122	O	0.987935	0.088673	0.761664
C123	C	0.369505	-0.449637	0.219852
C124	C	0.869505	0.050363	0.719852
C125	C	0.411850	-0.402071	0.271686
C126	C	0.911850	0.097929	0.771686
H127	H	0.307983	-0.442160	0.227926
H128	H	0.807983	0.057840	0.727926
H129	H	0.384551	-0.504242	0.232673
H130	H	0.884551	-0.004242	0.732673
H131	H	0.384642	-0.437689	0.160540
H132	H	0.884642	0.062311	0.660540
H133	H	0.396736	-0.413958	0.331015
H134	H	0.896736	0.086042	0.831015
H135	H	0.396800	-0.347480	0.258802
H136	H	0.896800	0.152520	0.758802
H137	H	0.633528	-0.404540	0.268987
H138	H	1.133528	0.095460	0.768987
O139	O	0.970954	-0.934014	0.261667
O140	O	1.470954	-0.434014	0.761667
C141	C	0.961082	-0.854301	0.162259
C142	C	1.461082	-0.354301	0.662259
C143	C	1.012811	-0.893143	0.214094
C144	C	1.512811	-0.393143	0.714094
H145	H	0.994903	-0.821258	0.123773
H146	H	1.494903	-0.321258	0.623773
H147	H	0.922578	-0.821172	0.195967
H148	H	1.422578	-0.321172	0.695967
H149	H	0.927465	-0.891762	0.128628
H150	H	1.427465	-0.391762	0.628628
H151	H	1.046475	-0.855731	0.247737
H152	H	1.546475	-0.355731	0.747737
H153	H	1.051267	-0.926282	0.180344
H154	H	1.551267	-0.426282	0.680344
H155	H	1.148982	-1.067651	0.440047
H156	H	1.648982	-0.567651	0.940047
H157	H	1.148839	-0.711880	0.439995
H158	H	1.648839	-0.211880	0.939995
H159	H	1.149020	-0.247434	0.924656
H160	H	1.649020	0.252566	1.424656
O161	O	1.156337	-0.933942	0.447500
O162	O	1.656337	-0.433942	0.947500
C163	C	1.249679	-0.941277	0.540921
C164	C	1.749679	-0.441277	1.040921
C165	C	1.197951	-0.980192	0.489073
C166	C	1.697951	-0.480192	0.989073
H167	H	1.283349	-0.978653	0.574536
H168	H	1.783349	-0.478653	1.074536
H169	H	1.215888	-0.908206	0.579416
H170	H	1.715888	-0.408206	1.079416
H171	H	1.288134	-0.908154	0.507152
H172	H	1.788134	-0.408154	1.007152
H173	H	1.159486	-1.013352	0.522783
H174	H	1.659486	-0.513352	1.022783
H175	H	1.231788	-1.013221	0.450577
H176	H	1.731788	-0.513221	0.950577
O177	O	0.970656	-0.717645	0.261754
O178	O	1.470656	-0.217645	0.761754
C179	C	0.845506	-0.739359	0.225893
C180	C	1.345506	-0.239359	0.725893
C181	C	0.897269	-0.700415	0.277679
C182	C	1.397269	-0.200415	0.777679
H183	H	0.786163	-0.725432	0.238739
H184	H	1.286163	-0.225432	0.738739
H185	H	0.853547	-0.795950	0.233992
H186	H	1.353547	-0.295950	0.733992
H187	H	0.858496	-0.725492	0.166566
H188	H	1.358496	-0.225492	0.666566
H189	H	0.884311	-0.714226	0.337025
H190	H	1.384311	-0.214226	0.837025
H191	H	0.889219	-0.643834	0.269516
H192	H	1.389219	-0.143834	0.769516
H193	H	0.978298	-1.067874	0.269122
H194	H	1.478298	-0.567874	0.769122
H195	H	0.978094	-0.583871	0.269059
H196	H	1.478094	-0.083871	0.769059
H197	H	1.149005	-0.247470	0.785228
H198	H	1.649005	0.252530	1.285228
O199	O	0.970875	-0.411380	0.930659
O200	O	1.470875	0.088620	1.430659
C201	C	0.960955	-0.502723	1.017433
C202	C	1.460955	-0.002723	1.517433
C203	C	1.012707	-0.455078	0.975176
C204	C	1.512707	0.044922	1.475176
H205	H	0.994754	-0.538055	1.053447
H206	H	1.494754	-0.038055	1.553447
H207	H	0.927308	-0.533718	0.976784
H208	H	1.427308	-0.033718	1.476784
H209	H	0.922480	-0.471630	1.053392
H210	H	1.422480	0.028370	1.553392
H211	H	1.051226	-0.486119	0.939217
H212	H	1.551226	0.013881	1.439217
H213	H	1.046302	-0.424081	1.015865
H214	H	1.546302	0.075919	1.515865
O215	O	0.970769	-0.411269	0.778996
O216	O	1.470769	0.088731	1.278996
C217	C	0.929038	-0.449686	0.660577
C218	C	1.429038	0.050314	1.160577
C219	C	0.980847	-0.402089	0.702908
C220	C	1.480847	0.097911	1.202908
H221	H	0.937179	-0.442290	0.599052
H222	H	1.437179	0.057710	1.099052
H223	H	0.869690	-0.437792	0.675631
H224	H	1.369690	0.062208	1.175631
H225	H	0.941927	-0.504254	0.675716
H226	H	1.441927	-0.004254	1.175716
H227	H	0.968025	-0.347505	0.687792
H228	H	1.468025	0.152495	1.187792
H229	H	1.040180	-0.414041	0.687850
H230	H	1.540180	0.085959	1.187850
