data_functionalizedCrystal
_audit_creation_method	'MofGen! by Chris Wilmer'
_symmetry_space_group_name_H-M	'P1'
_symmetry_Int_Tables_number	1
_symmetry_cell_setting	triclinic
loop_
_symmetry_equiv_pos_as_xyz
  x,y,z
_cell_length_a	20.919309
_cell_length_b	20.919354
_cell_length_c	16.704494
_cell_angle_alpha	86.855984
_cell_angle_beta	60.956690
_cell_angle_gamma	60.709567
loop_
_atom_site_label
_atom_site_type_symbol
_atom_site_fract_x
_atom_site_fract_y
_atom_site_fract_z
Zr1	Zr	0.686400	0.650687	-0.174799
O2	O	0.809983	0.558268	-0.296361
O3	O	0.556269	0.675237	-0.132999
O4	O	0.676236	0.686709	-0.298581
O5	O	0.700317	0.542047	-0.005322
O6	O	0.675667	0.792328	-0.305491
O7	O	0.690016	0.546795	-0.130778
O8	O	0.461068	0.771806	-0.009295
O9	O	0.914916	0.562570	-0.301518
O10	O	0.611794	0.769098	-0.125807
O11	O	0.619907	0.686732	-0.027024
O12	O	0.761152	0.700240	-0.221975
O13	O	0.769264	0.617874	-0.123192
Zr14	Zr	0.701921	0.811565	0.014270
Zr15	Zr	0.685492	0.819137	-0.185819
Zr16	Zr	0.702829	0.643114	0.025290
Zr17	Zr	0.853756	0.657548	-0.183025
Zr18	Zr	0.534565	0.804703	0.022496
O19	O	0.832052	0.787015	-0.027530
O20	O	0.808692	0.797782	-0.312030
O21	O	0.833343	0.547500	-0.011861
O22	O	0.578338	0.903984	0.135832
O23	O	0.554978	0.914751	-0.148668
O24	O	0.579629	0.664469	0.151501
O25	O	0.688004	0.920205	-0.155207
O26	O	0.712085	0.775542	0.138052
O27	O	0.712655	0.669923	0.144962
O28	O	0.698305	0.915457	-0.029750
O29	O	0.914194	0.696465	-0.310278
O30	O	0.474127	0.765786	0.149749
O31	O	0.473405	0.899682	0.140989
O32	O	0.460347	0.905701	-0.018054
O33	O	0.927975	0.556550	-0.142475
O34	O	0.927253	0.690446	-0.151234
O35	O	0.627169	0.762011	0.061446
O36	O	0.619057	0.844377	-0.037337
O37	O	0.768415	0.775519	-0.133505
O38	O	0.776527	0.693153	-0.034722
C39	C	0.484824	0.722544	-0.069975
C40	C	0.413777	0.719631	-0.066483
C41	C	0.695296	0.520420	-0.066480
C42	C	0.695682	0.448909	-0.061802
C43	C	0.673611	0.740598	-0.330545
C44	C	0.666636	0.743813	-0.415487
C45	C	0.376165	0.761254	-0.116406
C46	C	0.309405	0.758519	-0.113116
C47	C	0.280262	0.714156	-0.059907
C48	C	0.317878	0.672531	-0.009978
C49	C	0.384633	0.675271	-0.013263
C50	C	0.078914	0.703736	-0.047403
C51	C	0.012156	0.700997	-0.044123
C52	C	0.003686	0.786987	-0.147260
C53	C	0.070446	0.789719	-0.150545
C54	C	0.108053	0.748098	-0.100612
C55	C	0.212025	0.711357	-0.056545
C56	C	0.176285	0.750901	-0.103969
C57	C	0.903497	0.739708	-0.090554
C58	C	0.974544	0.742621	-0.094046
C59	C	0.698132	0.044329	-0.031813
C60	C	0.697767	0.111523	-0.036218
C61	C	0.691917	0.147726	-0.107541
C62	C	0.686421	0.116737	-0.174458
C63	C	0.686780	0.049547	-0.170049
C64	C	0.690545	0.350729	-0.124309
C65	C	0.690189	0.417922	-0.128716
C66	C	0.701534	0.412705	0.009526
C67	C	0.701897	0.345511	0.013926
C68	C	0.696397	0.314530	-0.052988
C69	C	0.691546	0.216408	-0.112047
C70	C	0.696761	0.245852	-0.048477
C71	C	0.693025	0.941831	-0.094049
C72	C	0.692640	1.013343	-0.098727
C73	C	0.809474	0.677971	-0.675515
C74	C	0.802924	0.680990	-0.755329
C75	C	0.646990	0.752873	-0.654931
C76	C	0.653539	0.749855	-0.575117
C77	C	0.734783	0.712401	-0.585414
C78	C	0.741332	0.709378	-0.505598
C79	C	0.585398	0.781266	-0.405202
C80	C	0.578849	0.784284	-0.485016
C81	C	0.714711	0.721654	0.170016
C82	C	0.721685	0.718439	0.254958
C83	C	0.483689	0.933249	-0.083759
C84	C	0.412256	1.001848	-0.084945
C85	C	0.505374	0.713071	0.180305
C86	C	0.441302	0.706944	0.268740
C87	C	0.504239	0.923777	0.166521
C88	C	0.439781	0.989161	0.250278
C89	C	0.884083	0.538475	-0.327050
C90	C	0.948541	0.473090	-0.410806
C91	C	0.904633	0.529002	-0.076770
C92	C	0.976065	0.460404	-0.075584
C93	C	0.882947	0.749180	-0.340834
C94	C	0.947019	0.755308	-0.429269
C95	C	0.374919	0.994768	-0.131691
C96	C	0.307809	1.059219	-0.132824
C97	C	0.278032	1.130748	-0.087205
C98	C	0.315376	1.137826	-0.040458
C99	C	0.382490	1.073377	-0.039331
C100	C	0.415005	0.743361	0.356459
C101	C	0.354812	0.737601	0.439560
C102	C	0.320913	0.695427	0.434941
C103	C	0.347216	0.659006	0.347213
C104	C	0.407412	0.664762	0.264113
C105	C	0.405276	1.062867	0.238046
C106	C	0.344720	1.124310	0.316736
C107	C	0.318665	1.112044	0.407656
C108	C	0.353176	1.038330	0.419886
C109	C	0.413736	0.976890	0.341197
C110	C	0.983053	0.399385	-0.398576
C111	C	1.043630	0.337943	-0.477266
C112	C	1.069689	0.350209	-0.568187
C113	C	1.035174	0.423922	-0.580416
C114	C	0.974602	0.485362	-0.501727
C115	C	1.013408	0.467484	-0.028846
C116	C	1.080536	0.403035	-0.027736
C117	C	1.110314	0.331506	-0.073358
C118	C	1.072967	0.324427	-0.120101
C119	C	1.005846	0.388876	-0.121217
C120	C	0.980900	0.797487	-0.424619
C121	C	1.041094	0.803259	-0.507706
C122	C	1.067412	0.766847	-0.595442
C123	C	1.033525	0.724666	-0.600090
C124	C	0.973327	0.718899	-0.517004
H125	H	0.278780	0.792413	-0.153766
C126	C	0.208334	0.799702	-0.162493
H127	H	0.176372	0.824105	-0.191755
H128	H	0.267754	0.768522	-0.209512
H129	H	0.200638	0.836596	-0.122310
C130	C	0.423544	1.081173	0.012105
H131	H	0.396187	1.133004	0.039118
H132	H	0.483239	1.060856	-0.031557
H133	H	0.416515	1.054481	0.060507
H134	H	0.863745	0.652954	-0.828691
C135	C	0.436328	0.624709	0.167626
H136	H	0.477037	0.634169	0.118789
H137	H	0.387710	0.643331	0.161669
H138	H	0.462090	0.571908	0.162889
H139	H	0.426480	1.072869	0.164021
C140	C	0.708334	0.305689	0.092379
H141	H	0.707770	0.261231	0.085415
H142	H	0.660732	0.338621	0.152172
H143	H	0.760490	0.292630	0.087934
H144	H	0.441822	0.916876	0.351169
C145	C	0.325881	0.777675	0.536048
H146	H	0.354683	0.803625	0.526890
H147	H	0.339742	0.741362	0.571007
H148	H	0.265366	0.812774	0.569766
C149	C	0.452295	0.789742	0.361560
H150	H	0.428014	0.810593	0.425709
H151	H	0.438758	0.829336	0.330454
H152	H	0.513124	0.757900	0.331679
H153	H	0.681652	0.146220	-0.232529
H154	H	0.188290	0.675236	-0.013222
H155	H	1.164969	0.279034	-0.072443
H156	H	0.094172	0.825844	-0.193872
H157	H	1.116430	0.771549	-0.663089
C158	C	1.062488	0.684610	-0.696602
H159	H	1.103200	0.694082	-0.745412
H160	H	1.013892	0.703218	-0.702597
H161	H	1.088262	0.631807	-0.701346
C162	C	0.557631	0.794070	-0.643621
H163	H	0.564432	0.790933	-0.704062
H164	H	0.526464	0.845569	-0.612347
H165	H	0.526872	0.771112	-0.607488
H166	H	0.291122	1.196074	-0.003318
H167	H	0.271898	0.690746	0.502613
C168	C	0.309912	0.612628	0.342143
H169	H	0.270287	0.614430	0.404201
H170	H	0.355389	0.561713	0.310169
H171	H	0.281023	0.633148	0.308944
H172	H	0.316626	1.184325	0.306762
H173	H	1.097223	0.266180	-0.157245
H174	H	0.269352	1.162080	0.471722
H175	H	0.415259	0.641374	0.027387
C176	C	0.830696	0.668189	-0.516922
H177	H	0.874239	0.648124	-0.582017
H178	H	0.836704	0.628289	-0.485443
H179	H	0.836281	0.702753	-0.490306
H180	H	0.512702	0.814780	-0.476646
H181	H	0.331953	1.028354	0.493924
H182	H	0.945748	0.684549	-0.520803
H183	H	0.961840	0.389383	-0.324550
H184	H	0.223383	1.183221	-0.088129
H185	H	0.706010	0.437937	0.064006
H186	H	0.702902	0.014854	0.026262
H187	H	0.524579	0.809297	-0.331829
C188	C	-0.019903	0.652198	0.014409
H189	H	-0.065039	0.656522	0.009203
H190	H	-0.040781	0.669017	0.078659
H191	H	0.026335	0.600942	-0.008544
C192	C	1.081579	0.256867	-0.463797
H193	H	1.057369	0.258367	-0.398377
H194	H	1.142363	0.232624	-0.494154
H195	H	1.068397	0.229596	-0.490538
H196	H	0.399891	0.797376	-0.159739
C197	C	0.680737	0.015460	-0.243650
H198	H	0.681778	-0.029736	-0.230804
H199	H	0.728221	0.004545	-0.304888
H200	H	0.628463	0.050544	-0.240651
H201	H	0.975442	0.383100	-0.159273
C202	C	0.951958	0.837547	-0.328121
H203	H	0.980757	0.863499	-0.337265
H204	H	0.965816	0.801231	-0.293165
H205	H	0.891443	0.872645	-0.294407
C206	C	0.683740	0.457752	-0.207166
H207	H	0.680505	0.429682	-0.246380
H208	H	0.733238	0.461077	-0.243876
H209	H	0.633481	0.507069	-0.179630
C210	C	0.703809	0.145605	0.037387
H211	H	0.707355	0.114416	0.080489
H212	H	0.654028	0.194703	0.070655
H213	H	0.753786	0.148710	0.006424
C214	C	1.136304	0.282619	-0.654736
H215	H	1.153114	0.236968	-0.634421
H216	H	1.185432	0.286103	-0.693413
H217	H	1.111450	0.283081	-0.689759
H218	H	1.068679	0.837605	-0.503903
C219	C	1.063837	0.437405	-0.680431
H220	H	1.104845	0.390252	-0.725535
H221	H	1.089155	0.466656	-0.690556
H222	H	1.015186	0.463612	-0.686907
H223	H	0.875626	0.647467	-0.683899
H224	H	0.946501	0.545376	-0.511696
H225	H	0.686069	0.325508	-0.178795
H226	H	0.399161	0.936532	-0.168851
H227	H	0.989169	0.525720	0.008311
C228	C	0.266734	1.051418	-0.184236
H229	H	0.294072	0.999585	-0.211225
H230	H	0.273748	1.078106	-0.232637
H231	H	0.207038	1.071740	-0.140551
C232	C	0.120281	0.657946	0.007512
H233	H	0.093370	0.631126	0.039660
H234	H	0.112947	0.691258	0.051976
H235	H	0.180055	0.623188	-0.035232
C236	C	-0.037690	0.832775	-0.202169
H237	H	-0.081626	0.824797	-0.192587
H238	H	0.005058	0.816860	-0.267495
H239	H	-0.062048	0.884928	-0.180284
C240	C	0.285825	0.623730	0.048548
H241	H	0.240688	0.628053	0.043348
H242	H	0.264953	0.640546	0.112797
H243	H	0.332066	0.572476	0.025590
H244	H	1.110933	0.408813	0.010331
C245	C	0.685112	0.256231	-0.190501
H246	H	0.681888	0.228158	-0.229723
H247	H	0.734609	0.259559	-0.227202
H248	H	0.634850	0.305546	-0.162971
H249	H	0.701520	0.216375	0.009597
