data_functionalizedCrystal
_audit_creation_method	'MofGen! by Chris Wilmer'
_symmetry_space_group_name_H-M	'P1'
_symmetry_Int_Tables_number	1
_symmetry_cell_setting	triclinic
loop_
_symmetry_equiv_pos_as_xyz
  x,y,z
_cell_length_a	19.805405
_cell_length_b	19.077105
_cell_length_c	19.805399
_cell_angle_alpha	87.684312
_cell_angle_beta	89.970699
_cell_angle_gamma	87.722641
loop_
_atom_site_label
_atom_site_type_symbol
_atom_site_fract_x
_atom_site_fract_y
_atom_site_fract_z
Zn1	Zn	-0.311118	1.075967	-0.424213
Zn2	Zn	0.022215	1.409300	-0.090880
Zn3	Zn	0.355549	1.742633	0.242454
Zn4	Zn	-0.424303	1.075878	-0.311018
Zn5	Zn	-0.090970	1.409211	0.022315
Zn6	Zn	0.242364	1.742545	0.355649
Zn7	Zn	-0.306582	0.958271	-0.306498
Zn8	Zn	0.026751	1.291605	0.026835
Zn9	Zn	0.360085	1.624938	0.360169
Zn10	Zn	-0.419714	0.958233	-0.419627
Zn11	Zn	-0.086381	1.291567	-0.086294
Zn12	Zn	0.246952	1.624900	0.247040
O13	O	-0.365429	1.017087	-0.365339
O14	O	-0.032096	1.350421	-0.032006
O15	O	0.301237	1.683754	0.301328
O16	O	-0.329951	1.174446	-0.413008
O17	O	0.003382	1.507779	-0.079675
O18	O	0.336716	1.841112	0.253658
O19	O	-0.408709	1.060256	-0.215701
O20	O	-0.075376	1.393589	0.117632
O21	O	0.257958	1.726923	0.450966
O22	O	-0.212469	0.973937	-0.322141
O23	O	0.120864	1.307270	0.011193
O24	O	0.454198	1.640603	0.344526
O25	O	-0.413107	1.174381	-0.329844
O26	O	-0.079774	1.507714	0.003489
O27	O	0.253559	1.841047	0.336822
O28	O	-0.215802	1.060407	-0.408625
O29	O	0.117532	1.393740	-0.075292
O30	O	0.450865	1.727074	0.258041
O31	O	-0.322220	0.973851	-0.212380
O32	O	0.011113	1.307184	0.120953
O33	O	0.344447	1.640517	0.454287
O34	O	-0.317770	0.859775	-0.317694
O35	O	0.015563	1.193109	0.015640
O36	O	0.348896	1.526442	0.348973
O37	O	-0.405287	0.973872	-0.514953
O38	O	-0.071953	1.307205	-0.181619
O39	O	0.261380	1.640539	0.151714
O40	O	-0.400888	0.859748	-0.400809
O41	O	-0.067555	1.193081	-0.067476
O42	O	0.265778	1.526414	0.265857
O43	O	-0.325501	1.060370	-0.518322
O44	O	0.007832	1.393704	-0.184989
O45	O	0.341165	1.727037	0.148345
O46	O	-0.518409	1.060219	-0.325397
O47	O	-0.185075	1.393553	0.007936
O48	O	0.148258	1.726886	0.341269
O49	O	-0.515037	0.973786	-0.405192
O50	O	-0.181704	1.307119	-0.071859
O51	O	0.151629	1.640453	0.261475
C52	C	-0.358340	0.834224	-0.358264
C53	C	-0.025006	1.167557	-0.024930
C54	C	0.308327	1.500891	0.308403
C55	C	-0.355323	0.755994	-0.355253
C56	C	-0.021990	1.089328	-0.021920
C57	C	0.311344	1.422661	0.311414
C58	C	-0.397246	0.719246	-0.397044
C59	C	-0.063913	1.052579	-0.063711
C60	C	0.269421	1.385912	0.269622
C61	C	-0.394403	0.645740	-0.394219
C62	C	-0.061069	0.979074	-0.060885
C63	C	0.272264	1.312407	0.272448
C64	C	-0.349639	0.608985	-0.349598
C65	C	-0.016306	0.942319	-0.016265
C66	C	0.317028	1.275652	0.317069
C67	C	-0.307712	0.645739	-0.307805
C68	C	0.025622	0.979072	0.025528
C69	C	0.358955	1.312406	0.358862
C70	C	-0.310552	0.719243	-0.310634
C71	C	0.022781	1.052576	0.022699
C72	C	0.356115	1.385909	0.356032
C73	C	-0.336493	0.389152	-0.336506
C74	C	-0.003160	0.722485	-0.003172
C75	C	0.330174	1.055819	0.330161
C76	C	-0.333657	0.315643	-0.333678
C77	C	-0.000324	0.648976	-0.000344
C78	C	0.333009	0.982310	0.332989
C79	C	-0.420348	0.315650	-0.420093
C80	C	-0.087014	0.648983	-0.086759
C81	C	0.246319	0.982316	0.246574
C82	C	-0.423187	0.389155	-0.422915
C83	C	-0.089854	0.722488	-0.089582
C84	C	0.243480	1.055821	0.243751
C85	C	-0.381257	0.425902	-0.381125
C86	C	-0.047924	0.759235	-0.047792
C87	C	0.285410	1.092569	0.285542
N88	N	-0.346733	0.533851	-0.346707
N89	N	-0.013400	0.867185	-0.013374
N90	N	0.319934	1.200518	0.319960
N91	N	-0.384160	0.501035	-0.384020
N92	N	-0.050827	0.834368	-0.050686
N93	N	0.282507	1.167701	0.282647
C94	C	-0.541282	1.017008	-0.365303
C95	C	-0.207949	1.350341	-0.031970
C96	C	0.125384	1.683675	0.301364
C97	C	-0.616515	1.017039	-0.365313
C98	C	-0.283182	1.350372	-0.031980
C99	C	0.050151	1.683705	0.301354
C100	C	-0.653594	1.062088	-0.323811
C101	C	-0.320261	1.395421	0.009522
C102	C	0.013072	1.728755	0.342856
C103	C	-0.724284	1.062118	-0.323827
C104	C	-0.390950	1.395451	0.009506
C105	C	-0.057617	1.728785	0.342840
C106	C	-0.757893	1.017094	-0.365342
C107	C	-0.424560	1.350428	-0.032009
C108	C	-0.091226	1.683761	0.301325
C109	C	-0.720809	0.972043	-0.406849
C110	C	-0.387476	1.305376	-0.073515
C111	C	-0.054143	1.638710	0.259818
C112	C	-0.650121	0.972017	-0.406836
C113	C	-0.316788	1.305350	-0.073502
C114	C	0.016546	1.638684	0.259831
C115	C	-1.005887	0.972147	-0.406903
C116	C	-0.672553	1.305480	-0.073570
C117	C	-0.339220	1.638813	0.259764
C118	C	-1.076580	0.972174	-0.406911
C119	C	-0.743246	1.305508	-0.073578
C120	C	-0.409913	1.638841	0.259755
C121	C	-1.080049	1.062248	-0.323894
C122	C	-0.746716	1.395581	0.009439
C123	C	-0.413383	1.728914	0.342772
C124	C	-1.009361	1.062222	-0.323881
C125	C	-0.676028	1.395555	0.009452
C126	C	-0.342694	1.728888	0.342786
C127	C	-0.972283	1.017173	-0.365390
C128	C	-0.638950	1.350507	-0.032057
C129	C	-0.305617	1.683840	0.301276
C130	C	-0.895634	1.017142	-0.365373
C131	C	-0.562301	1.350476	-0.032040
C132	C	-0.228967	1.683809	0.301294
C133	C	-0.834541	1.017121	-0.365356
C134	C	-0.501208	1.350455	-0.032023
C135	C	-0.167875	1.683788	0.301311
C136	C	-0.188890	1.017186	-0.365390
C137	C	0.144443	1.350519	-0.032057
C138	C	0.477776	1.683853	0.301276
C139	C	-0.113660	1.017228	-0.365412
C140	C	0.219673	1.350561	-0.032079
C141	C	0.553007	1.683895	0.301254
C142	C	-0.365388	1.017127	-0.541883
C143	C	-0.032055	1.350460	-0.208550
C144	C	0.301278	1.683793	0.124783
C145	C	-0.365371	1.017144	-0.617116
C146	C	-0.032037	1.350477	-0.283783
C147	C	0.301296	1.683810	0.049551
C148	C	-0.372547	1.200665	-0.372442
C149	C	-0.039214	1.533998	-0.039109
C150	C	0.294120	1.867331	0.294225
C151	C	-0.375580	1.278894	-0.375469
C152	C	-0.042247	1.612228	-0.042136
C153	C	0.291086	1.945561	0.291198
C154	C	-0.323824	1.062184	-0.654216
C155	C	0.009509	1.395518	-0.320882
C156	C	0.342842	1.728851	0.012451
C157	C	-0.323805	1.062191	-0.724904
C158	C	0.009528	1.395525	-0.391571
C159	C	0.342862	1.728858	-0.058238
C160	C	-0.365336	1.017161	-0.758492
C161	C	-0.032003	1.350494	-0.425159
C162	C	0.301331	1.683828	-0.091826
C163	C	-0.406884	0.972115	-0.721387
C164	C	-0.073551	1.305449	-0.388054
C165	C	0.259783	1.638782	-0.054721
C166	C	-0.406899	0.972105	-0.650700
C167	C	-0.073566	1.305439	-0.317366
C168	C	0.259767	1.638772	0.015967
C169	C	-0.406822	0.972155	-1.006462
C170	C	-0.073489	1.305489	-0.673129
C171	C	0.259844	1.638822	-0.339796
C172	C	-0.406805	0.972170	-1.077155
C173	C	-0.073472	1.305504	-0.743822
C174	C	0.259861	1.638837	-0.410488
C175	C	-0.323728	1.062241	-1.080667
C176	C	0.009605	1.395575	-0.747334
C177	C	0.342939	1.728908	-0.414000
C178	C	-0.323743	1.062231	-1.009979
C179	C	0.009590	1.395564	-0.676646
C180	C	0.342923	1.728898	-0.343313
C181	C	-0.365289	1.017183	-0.972881
C182	C	-0.031955	1.350517	-0.639547
C183	C	0.301378	1.683850	-0.306214
C184	C	-0.365308	1.017175	-0.896232
C185	C	-0.031975	1.350508	-0.562898
C186	C	0.301359	1.683842	-0.229565
C187	C	-0.365320	1.017172	-0.835140
C188	C	-0.031987	1.350506	-0.501806
C189	C	0.301346	1.683839	-0.168473
C190	C	-0.365423	1.017088	-0.189483
C191	C	-0.032090	1.350422	0.143850
C192	C	0.301244	1.683755	0.477184
C193	C	-0.365255	1.017208	-0.114256
C194	C	-0.031922	1.350541	0.219077
C195	C	0.301412	1.683875	0.552411
H196	H	-0.271261	0.615807	-0.271477
H197	H	0.062072	0.949140	0.061857
H198	H	0.395405	1.282474	0.395190
C199	C	-1.113549	0.922652	-0.452586
C200	C	-0.780216	1.255986	-0.119253
C201	C	-0.446882	1.589319	0.214081
H202	H	-1.081344	0.895824	-0.477311
H203	H	-0.748010	1.229158	-0.143978
H204	H	-0.414677	1.562491	0.189356
H205	H	-1.139980	0.892010	-0.425493
H206	H	-0.806647	1.225343	-0.092159
H207	H	-0.473314	1.558677	0.241174
H208	H	-1.142124	0.949578	-0.483142
H209	H	-0.808791	1.282911	-0.149808
H210	H	-0.475458	1.616245	0.183525
H211	H	-0.454484	0.285722	-0.454117
H212	H	-0.121151	0.619055	-0.120784
H213	H	0.212183	0.952389	0.212550
H214	H	-0.276410	0.749163	-0.276607
H215	H	0.056923	1.082496	0.056726
H216	H	0.390256	1.415829	0.390060
H217	H	-0.289898	1.098919	-1.110881
H218	H	0.043436	1.432252	-0.777548
H219	H	0.376769	1.765586	-0.444215
H220	H	-0.626234	1.098748	-0.290001
H221	H	-0.292901	1.432082	0.043332
H222	H	0.040432	1.765415	0.376665
C223	C	-0.765068	1.111669	-0.278171
C224	C	-0.431734	1.445002	0.055162
C225	C	-0.098401	1.778336	0.388495
H226	H	-0.734927	1.138472	-0.253438
H227	H	-0.401593	1.471806	0.079895
H228	H	-0.068260	1.805139	0.413228
H229	H	-0.793787	1.142332	-0.305274
H230	H	-0.460454	1.475666	0.028059
H231	H	-0.127121	1.808999	0.361392
H232	H	-0.791642	1.084767	-0.247622
H233	H	-0.458309	1.418101	0.085711
H234	H	-0.124976	1.751434	0.419044
H235	H	-0.440626	0.935498	-1.104500
H236	H	-0.107293	1.268832	-0.771167
H237	H	0.226041	1.602165	-0.437833
C238	C	-0.972394	1.111750	-0.278217
C239	C	-0.639061	1.445083	0.055116
C240	C	-0.305728	1.778416	0.388450
H241	H	-1.004602	1.138590	-0.253506
H242	H	-0.671269	1.471923	0.079827
H243	H	-0.337936	1.805256	0.413160
H244	H	-0.943817	1.084838	-0.247659
H245	H	-0.610483	1.418171	0.085675
H246	H	-0.277150	1.751504	0.419008
H247	H	-0.945966	1.142391	-0.305321
H248	H	-0.612633	1.475724	0.028012
H249	H	-0.279300	1.809058	0.361345
H250	H	-0.975703	0.935465	-0.440700
H251	H	-0.642370	1.268799	-0.107366
H252	H	-0.309037	1.602132	0.225967
C253	C	-0.452568	0.922584	-0.758332
C254	C	-0.119234	1.255917	-0.424999
C255	C	0.214099	1.589250	-0.091665
H256	H	-0.446614	0.929045	-0.805745
H257	H	-0.113281	1.262378	-0.472412
H258	H	0.220052	1.595712	-0.139078
H259	H	-0.440833	0.875298	-0.744919
H260	H	-0.107499	1.208631	-0.411586
H261	H	0.225834	1.541965	-0.078252
H262	H	-0.498448	0.932862	-0.747131
H263	H	-0.165115	1.266196	-0.413798
H264	H	0.168219	1.599529	-0.080464
C265	C	-0.290384	0.429565	-0.290526
C266	C	0.042950	0.762898	0.042807
C267	C	0.376283	1.096232	0.376140
H268	H	-0.263326	0.397145	-0.263540
H269	H	0.070007	0.730479	0.069793
H270	H	0.403340	1.063812	0.403126
H271	H	-0.262031	0.458266	-0.317567
H272	H	0.071302	0.791599	0.015766
H273	H	0.404636	1.124932	0.349100
H274	H	-0.317353	0.458211	-0.262090
H275	H	0.015980	0.791544	0.071244
H276	H	0.349313	1.124877	0.404577
C277	C	-0.757778	0.922516	-0.452513
C278	C	-0.424444	1.255850	-0.119180
C279	C	-0.091111	1.589183	0.214154
H280	H	-0.805187	0.928977	-0.446572
H281	H	-0.471854	1.262311	-0.113238
H282	H	-0.138521	1.595644	0.220095
H283	H	-0.746553	0.932782	-0.498394
H284	H	-0.413220	1.266115	-0.165061
H285	H	-0.079887	1.599448	0.168273
H286	H	-0.744404	0.875227	-0.440732
H287	H	-0.411071	1.208561	-0.107399
H288	H	-0.077738	1.541894	0.225934
H289	H	-0.440723	0.935421	-0.620494
H290	H	-0.107390	1.268755	-0.287160
H291	H	0.225943	1.602088	0.046173
C292	C	-1.120836	1.111806	-0.278239
C293	C	-0.787503	1.445139	0.055094
C294	C	-0.454170	1.778472	0.388428
H295	H	-1.167750	1.105380	-0.284195
H296	H	-0.834416	1.438714	0.049138
H297	H	-0.501083	1.772047	0.382471
H298	H	-1.108893	1.101526	-0.232355
H299	H	-0.775559	1.434860	0.100978
H300	H	-0.442226	1.768193	0.434312
H301	H	-1.111036	1.159087	-0.290011
H302	H	-0.777702	1.492420	0.043322
H303	H	-0.444369	1.825754	0.376656
H304	H	-0.297198	0.285719	-0.297346
H305	H	0.036136	0.619052	0.035987
H306	H	0.369469	0.952386	0.369320
C307	C	-0.609334	0.922464	-0.452489
C308	C	-0.276001	1.255797	-0.119156
C309	C	0.057332	1.589131	0.214178
H310	H	-0.639474	0.895649	-0.477213
H311	H	-0.306140	1.228983	-0.143879
H312	H	0.027193	1.562316	0.189454
H313	H	-0.582761	0.949362	-0.483036
H314	H	-0.249427	1.282695	-0.149702
H315	H	0.083906	1.616029	0.183631
H316	H	-0.580613	0.891800	-0.425381
H317	H	-0.247280	1.225133	-0.092048
H318	H	0.086053	1.558466	0.241285
H319	H	-0.433700	0.749166	-0.433377
H320	H	-0.100366	1.082500	-0.100044
H321	H	0.232967	1.415833	0.233290
H322	H	-0.290007	1.098855	-0.626874
H323	H	0.043326	1.432189	-0.293540
H324	H	0.376659	1.765522	0.039793
C325	C	-0.278108	1.111740	-0.765711
C326	C	0.055226	1.445073	-0.432378
C327	C	0.388559	1.778406	-0.099045
H328	H	-0.253383	1.138563	-0.735584
H329	H	0.079951	1.471896	-0.402251
H330	H	0.413284	1.805230	-0.068917
H331	H	-0.247564	1.084841	-0.792252
H332	H	0.085769	1.418174	-0.458919
H333	H	0.419103	1.751507	-0.125585
H334	H	-0.305188	1.142396	-0.794467
H335	H	0.028145	1.475729	-0.461134
H336	H	0.361478	1.809062	-0.127800
C337	C	-0.278057	1.111762	-0.973036
C338	C	0.055276	1.445095	-0.639703
C339	C	0.388609	1.778428	-0.306369
H340	H	-0.253305	1.138583	-1.005256
H341	H	0.080028	1.471917	-0.671923
H342	H	0.413361	1.805250	-0.338589
H343	H	-0.305140	1.142410	-0.946639
H344	H	0.028193	1.475743	-0.613306
H345	H	0.361526	1.809076	-0.279973
H346	H	-0.247527	1.084843	-0.944429
H347	H	0.085806	1.418176	-0.611095
H348	H	0.419139	1.751509	-0.277762
C349	C	-0.452524	0.922611	-0.965660
C350	C	-0.119190	1.255945	-0.632326
C351	C	0.214143	1.589278	-0.298993
H352	H	-0.446583	0.929046	-0.918750
H353	H	-0.113249	1.262379	-0.585416
H354	H	0.220084	1.595712	-0.252083
H355	H	-0.498396	0.932888	-0.977630
H356	H	-0.165063	1.266222	-0.644297
H357	H	0.168271	1.599555	-0.310964
H358	H	-0.440778	0.875327	-0.975417
H359	H	-0.107444	1.208661	-0.642084
H360	H	0.225889	1.541994	-0.308751
C361	C	-0.440559	0.605320	-0.440148
C362	C	-0.107226	0.938653	-0.106814
C363	C	0.226107	1.271987	0.226519
H364	H	-0.467643	0.637737	-0.467109
H365	H	-0.134310	0.971071	-0.133776
H366	H	0.199023	1.304404	0.199558
H367	H	-0.413638	0.576649	-0.468598
H368	H	-0.080305	0.909982	-0.135265
H369	H	0.253028	1.243316	0.198068
H370	H	-0.468896	0.576644	-0.413056
H371	H	-0.135562	0.909977	-0.079722
H372	H	0.197771	1.243310	0.253611
H373	H	-0.459640	0.419076	-0.459249
H374	H	-0.126306	0.752409	-0.125916
H375	H	0.207027	1.085743	0.207418
