data_functionalizedCrystal
_audit_creation_method	'MofGen! by Chris Wilmer'
_symmetry_space_group_name_H-M	'P1'
_symmetry_Int_Tables_number	1
_symmetry_cell_setting	triclinic
loop_
_symmetry_equiv_pos_as_xyz
  x,y,z
_cell_length_a	21.295419
_cell_length_b	21.295417
_cell_length_c	18.101390
_cell_angle_alpha	89.962939
_cell_angle_beta	89.980651
_cell_angle_gamma	90.045308
loop_
_atom_site_label
_atom_site_type_symbol
_atom_site_fract_x
_atom_site_fract_y
_atom_site_fract_z
Zn1	Zn	0.962323	-0.250337	-0.418712
Zn2	Zn	1.462323	0.249663	0.081288
Zn3	Zn	0.962235	-0.355617	-0.294862
Zn4	Zn	1.462235	0.144383	0.205138
Zn5	Zn	0.857056	-0.250393	-0.294885
Zn6	Zn	1.357056	0.249607	0.205115
Zn7	Zn	0.857016	-0.355599	-0.418662
Zn8	Zn	1.357016	0.144401	0.081338
O9	O	0.909658	-0.302986	-0.356780
O10	O	1.409658	0.197014	0.143220
O11	O	1.050401	-0.264286	-0.402295
O12	O	1.550401	0.235714	0.097705
O13	O	0.948263	-0.341689	-0.191232
O14	O	1.448263	0.158311	0.308768
O15	O	0.871074	-0.162296	-0.311342
O16	O	1.371074	0.337704	0.188658
O17	O	1.050336	-0.341635	-0.311302
O18	O	1.550336	0.158365	0.188698
O19	O	0.948413	-0.162255	-0.402317
O20	O	1.448413	0.337745	0.097683
O21	O	0.870988	-0.264382	-0.191249
O22	O	1.370988	0.235618	0.308751
O23	O	0.768961	-0.264364	-0.311293
O24	O	1.268961	0.235636	0.188707
O25	O	0.871005	-0.341605	-0.522302
O26	O	1.371005	0.158395	-0.022302
O27	O	0.768932	-0.341659	-0.402231
O28	O	1.268932	0.158341	0.097769
O29	O	0.948374	-0.264269	-0.522339
O30	O	1.448374	0.235731	-0.022339
O31	O	0.948224	-0.443704	-0.311253
O32	O	1.448224	0.056296	0.188747
O33	O	0.870920	-0.443691	-0.402209
O34	O	1.370920	0.056309	0.097791
C35	C	0.746106	-0.303016	-0.356759
C36	C	1.246106	0.196984	0.143241
C37	C	0.676138	-0.303045	-0.356768
C38	C	1.176138	0.196955	0.143232
C39	C	0.643327	-0.262835	-0.404221
C40	C	1.143327	0.237165	0.095779
C41	C	0.577585	-0.262818	-0.404224
C42	C	1.077585	0.237182	0.095776
C43	C	0.544655	-0.303022	-0.356782
C44	C	1.044655	0.196978	0.143218
C45	C	0.577474	-0.343235	-0.309319
C46	C	1.077474	0.156765	0.190681
C47	C	0.643215	-0.343246	-0.309313
C48	C	1.143215	0.156754	0.190687
N49	N	0.441380	-0.358101	-0.350994
N50	N	0.941380	0.141899	0.149006
N51	N	0.378929	-0.358088	-0.351005
N52	N	0.878929	0.141912	0.148995
C53	C	0.346581	-0.302989	-0.356798
C54	C	0.846581	0.197011	0.143202
N55	N	0.379043	-0.247903	-0.362595
N56	N	0.879043	0.252097	0.137405
N57	N	0.441500	-0.247916	-0.362588
N58	N	0.941500	0.252084	0.137412
C59	C	0.473370	-0.303014	-0.356783
C60	C	0.973370	0.196986	0.143217
C61	C	0.242485	-0.262758	-0.404257
C62	C	0.742485	0.237242	0.095743
C63	C	0.176741	-0.262740	-0.404254
C64	C	0.676741	0.237260	0.095746
C65	C	0.176631	-0.343162	-0.309354
C66	C	0.676631	0.156838	0.190646
C67	C	0.242374	-0.343175	-0.309352
C68	C	0.742374	0.156825	0.190648
C69	C	0.275296	-0.302973	-0.356807
C70	C	0.775296	0.197027	0.143193
C71	C	0.909575	-0.466538	-0.356739
C72	C	1.409575	0.033462	0.143261
C73	C	0.909597	-0.536506	-0.356746
C74	C	1.409597	-0.036506	0.143254
C75	C	0.949885	-0.569358	-0.309434
C76	C	1.449885	-0.069358	0.190566
C77	C	0.949915	-0.635101	-0.309451
C78	C	1.449915	-0.135101	0.190549
C79	C	0.909645	-0.667988	-0.356772
C80	C	1.409645	-0.167988	0.143228
C81	C	0.869354	-0.635128	-0.404093
C82	C	1.369354	-0.135128	0.095907
C83	C	0.869330	-0.569387	-0.404080
C84	C	1.369330	-0.069387	0.095920
N85	N	0.854578	-0.771268	-0.362411
N86	N	1.354578	-0.271268	0.137589
N87	N	0.854602	-0.833719	-0.362418
N88	N	1.354602	-0.333719	0.137582
C89	C	0.909716	-0.866063	-0.356814
C90	C	1.409716	-0.366063	0.143186
N91	N	0.964805	-0.833596	-0.351188
N92	N	1.464805	-0.333596	0.148812
N93	N	0.964780	-0.771139	-0.351176
N94	N	1.464780	-0.271139	0.148824
C95	C	0.909667	-0.739274	-0.356791
C96	C	1.409667	-0.239274	0.143209
C97	C	0.950039	-0.970201	-0.309518
C98	C	1.450039	-0.470201	0.190482
C99	C	0.950070	-1.035945	-0.309540
C100	C	1.450070	-0.535945	0.190460
C101	C	0.869503	-1.035971	-0.404178
C102	C	1.369503	-0.535971	0.095822
C103	C	0.869478	-0.970228	-0.404160
C104	C	1.369478	-0.470228	0.095840
C105	C	0.909745	-0.937347	-0.356826
C106	C	1.409745	-0.437347	0.143174
C107	C	1.073848	-0.302956	-0.356802
C108	C	1.573848	0.197044	0.143198
C109	C	1.143816	-0.302944	-0.356811
C110	C	1.643816	0.197056	0.143189
C111	C	0.909695	-0.302929	-0.549942
C112	C	1.409695	0.197071	-0.049942
C113	C	0.909711	-0.302904	-0.632256
C114	C	1.409711	0.197096	-0.132256
C115	C	0.909758	-0.138796	-0.356838
C116	C	1.409758	0.361204	0.143162
C117	C	0.909800	-0.068828	-0.356862
C118	C	1.409800	0.431172	0.143138
C119	C	0.909745	-0.302865	-0.931348
C120	C	1.409745	0.197135	-0.431348
C121	C	0.958584	-0.254379	-0.900046
C122	C	1.458584	0.245621	-0.400046
C123	C	0.958431	-0.254199	-0.814427
C124	C	1.458431	0.245801	-0.314427
C125	C	0.909729	-0.302884	-0.782965
C126	C	1.409729	0.197116	-0.282965
C127	C	0.843413	-0.284879	-0.814040
C128	C	1.343413	0.215121	-0.314040
C129	C	0.843706	-0.284515	-0.899685
C130	C	1.343706	0.215485	-0.399685
C131	C	0.926638	-0.369482	-0.899754
C132	C	1.426638	0.130518	-0.399754
C133	C	0.928093	-0.369142	-0.814104
C134	C	1.428093	0.130858	-0.314104
C135	C	0.909715	-0.302897	-0.699105
C136	C	1.409715	0.197103	-0.199105
C137	C	0.909754	-0.302851	-1.015207
C138	C	1.409754	0.197149	-0.515207
C139	C	0.909657	-0.302998	-0.164370
C140	C	1.409657	0.197002	0.335630
C141	C	0.909763	-0.302845	-0.082056
C142	C	1.409763	0.197155	0.417944
H143	H	0.550658	-0.375968	-0.270691
H144	H	1.050658	0.124032	0.229309
H145	H	0.947250	-0.204847	-0.793959
H146	H	1.447250	0.295153	-0.293959
H147	H	0.269292	-0.230020	-0.442893
H148	H	0.769292	0.269980	0.057107
C149	C	0.679308	-0.387485	-0.257112
C150	C	1.179308	0.112515	0.242888
N151	N	0.706494	-0.420807	-0.217795
N152	N	1.206494	0.079193	0.282205
H153	H	0.982829	-0.943429	-0.270978
H154	H	1.482829	-0.443429	0.229022
H155	H	0.550865	-0.230071	-0.442865
H156	H	1.050865	0.269929	0.057135
C157	C	1.025236	-0.269423	-0.927870
C158	C	1.525236	0.230577	-0.427870
N159	N	1.075442	-0.280757	-0.948829
N160	N	1.575442	0.219243	-0.448829
H161	H	0.670129	-0.230099	-0.442863
H162	H	1.170129	0.269901	0.057137
C163	C	0.140650	-0.218503	-0.456458
C164	C	0.640650	0.281497	0.043542
N165	N	0.113465	-0.185183	-0.495781
N166	N	0.613465	0.314817	0.004219
H167	H	0.149821	-0.375897	-0.270725
H168	H	0.649821	0.124103	0.229275
C169	C	0.994233	-0.671246	-0.257398
C170	C	1.494233	-0.171246	0.242602
N171	N	1.027613	-0.698469	-0.218190
N172	N	1.527613	-0.198469	0.281810
H173	H	0.976895	-0.382720	-0.793793
H174	H	1.476895	0.117280	-0.293793
H175	H	0.836718	-1.062747	-0.442711
H176	H	1.336718	-0.562747	0.057289
H177	H	0.269088	-0.375920	-0.270714
H178	H	0.769088	0.124080	0.229286
H179	H	0.947543	-0.205302	-0.921588
H180	H	1.447543	0.294698	-0.421588
H181	H	0.829385	-0.235819	-0.919681
H182	H	1.329385	0.264181	-0.419681
H183	H	0.836522	-0.542638	-0.442608
H184	H	1.336522	-0.042638	0.057392
C185	C	0.825171	-0.934089	-0.456223
C186	C	1.325171	-0.434089	0.043777
N187	N	0.791803	-0.906869	-0.495447
N188	N	1.291803	-0.406869	0.004553
H189	H	0.982881	-1.062692	-0.271014
H190	H	1.482881	-0.562692	0.228986
C191	C	0.792916	-0.331114	-0.786499
C192	C	1.292916	0.168886	-0.286499
N193	N	0.754883	-0.365939	-0.765752
N194	N	1.254883	0.134061	-0.265752
C195	C	0.792872	-0.330146	-0.927659
C196	C	1.292872	0.169854	-0.427659
N197	N	0.754581	-0.364511	-0.948725
N198	N	1.254581	0.135489	-0.448725
H199	H	1.007606	-0.265473	-0.793418
H200	H	1.507606	0.234527	-0.293418
H201	H	0.828832	-0.236724	-0.792606
H202	H	1.328832	0.263276	-0.292606
H203	H	0.974147	-0.385881	-0.921397
H204	H	1.474147	0.114119	-0.421397
C205	C	0.883527	-0.420568	-0.785174
C206	C	1.383527	0.079432	-0.285174
N207	N	0.849954	-0.459301	-0.763385
N208	N	1.349954	0.040699	-0.263385
H209	H	0.891069	-0.405610	-0.920001
H210	H	1.391069	0.094390	-0.420001
H211	H	0.836568	-0.661909	-0.442623
H212	H	1.336568	-0.161909	0.057377
H213	H	0.982675	-0.542589	-0.270894
H214	H	1.482675	-0.042589	0.229106
