data_functionalizedCrystal
_audit_creation_method	'MofGen! by Chris Wilmer'
_symmetry_space_group_name_H-M	'P1'
_symmetry_Int_Tables_number	1
_symmetry_cell_setting	triclinic
loop_
_symmetry_equiv_pos_as_xyz
  x,y,z
_cell_length_a	8.965430
_cell_length_b	14.971486
_cell_length_c	14.971494
_cell_angle_alpha	96.384157
_cell_angle_beta	90.002137
_cell_angle_gamma	89.998857
loop_
_atom_site_label
_atom_site_type_symbol
_atom_site_fract_x
_atom_site_fract_y
_atom_site_fract_z
O1	O	-0.123862	-1.186948	0.116556
O2	O	0.376138	-0.686948	0.616556
O3	O	-0.123902	-0.926548	0.130514
O4	O	0.376098	-0.426548	0.630514
O5	O	-0.123878	-1.063724	-0.006665
O6	O	0.376122	-0.563724	0.493335
O7	O	-0.123886	-1.049773	0.253734
O8	O	0.376114	-0.549773	0.753734
O9	O	0.124201	-1.063712	-0.006656
O10	O	0.624201	-0.563712	0.493344
O11	O	0.124177	-0.926537	0.130523
O12	O	0.624177	-0.426537	0.630523
O13	O	0.124217	-1.186936	0.116565
O14	O	0.624217	-0.686936	0.616565
Cu15	Cu	0.146848	-1.056736	0.123545
Cu16	Cu	0.646848	-0.556736	0.623545
Cu17	Cu	-0.146534	-1.056749	0.123534
Cu18	Cu	0.353466	-0.556749	0.623534
O19	O	0.124192	-1.049761	0.253744
O20	O	0.624192	-0.549761	0.753744
C21	C	0.000132	-0.893218	0.129895
C22	C	0.500132	-0.393218	0.629895
C23	C	0.000117	-0.793921	0.128024
C24	C	0.500117	-0.293921	0.628024
N25	N	0.353198	-1.056732	0.123552
N26	N	0.853198	-0.556732	0.623552
N27	N	-0.352883	-1.056759	0.123520
N28	N	0.147117	-0.556759	0.623520
C29	C	0.450492	-0.993274	0.186972
C30	C	0.950492	-0.493274	0.686972
C31	C	0.549918	-1.074121	0.204414
C32	C	1.049918	-0.574121	0.704414
C33	C	0.549899	-0.975920	0.106117
C34	C	1.049899	-0.475920	0.606117
C35	C	0.450434	-1.137620	0.141035
C36	C	0.950434	-0.637620	0.641035
C37	C	0.450407	-1.039366	0.042702
C38	C	0.950407	-0.539366	0.542702
C39	C	0.549788	-1.120271	0.060110
C40	C	1.049788	-0.620271	0.560110
C41	C	0.000159	-1.063093	-0.039985
C42	C	0.500159	-0.563093	0.460015
C43	C	0.000152	-1.061219	-0.139281
C44	C	0.500152	-0.561219	0.360719
C45	C	0.000179	-1.220267	0.117184
C46	C	0.500179	-0.720267	0.617184
C47	C	0.000185	-1.319564	0.119055
C48	C	0.500185	-0.819564	0.619055
C49	C	0.000116	-0.736698	0.208613
C50	C	0.500116	-0.236698	0.708613
C51	C	0.000139	-0.643398	0.206850
C52	C	0.500139	-0.143398	0.706850
C53	C	0.000151	-0.607323	0.124497
C54	C	0.500151	-0.107323	0.624497
C55	C	0.000156	-0.664554	0.043902
C56	C	0.500156	-0.164554	0.543902
C57	C	0.000144	-0.757851	0.045666
C58	C	0.500144	-0.257851	0.545666
C59	C	0.000177	-0.470091	0.040231
C60	C	0.500177	0.029909	0.540231
C61	C	0.000186	-0.376787	0.038466
C62	C	0.500186	0.123213	0.538466
C63	C	0.000171	-0.355638	0.201415
C64	C	0.500171	0.144362	0.701415
C65	C	0.000159	-0.448936	0.203179
C66	C	0.500159	0.051064	0.703179
C67	C	0.000162	-0.506160	0.122583
C68	C	0.500162	-0.006160	0.622583
C69	C	-0.135077	-1.060347	-0.185931
C70	C	0.364923	-0.560347	0.314069
C71	C	-0.135079	-1.058581	-0.279230
C72	C	0.364921	-0.558581	0.220770
C73	C	0.000150	-1.057693	-0.325879
C74	C	0.500150	-0.557693	0.174121
C75	C	0.135390	-1.058562	-0.279222
C76	C	0.635390	-0.558562	0.220778
C77	C	0.135390	-1.060322	-0.185924
C78	C	0.635390	-0.560322	0.314076
C79	C	0.135379	-1.054896	-0.473685
C80	C	0.635379	-0.554896	0.026315
C81	C	0.135379	-1.053138	-0.566990
C82	C	0.635379	-0.553138	-0.066990
C83	C	-0.135091	-1.053155	-0.566991
C84	C	0.364909	-0.553155	-0.066991
C85	C	-0.135090	-1.054915	-0.473693
C86	C	0.364910	-0.554915	0.026307
C87	C	0.000151	-1.055786	-0.427043
C88	C	0.500151	-0.555786	0.072957
C89	C	0.000152	-1.050392	0.287064
C90	C	0.500152	-0.550392	0.787064
C91	C	0.000150	-1.052266	0.386360
C92	C	0.500150	-0.552266	0.886360
H93	H	0.406894	-0.939658	0.240653
H94	H	0.906894	-0.439658	0.740653
O95	O	-0.280945	-1.055863	-0.423379
O96	O	0.219055	-0.555863	0.076621
H97	H	-0.345796	-1.116440	-0.449194
H98	H	0.154204	-0.616440	0.050806
O99	O	0.607911	-1.093577	0.294950
O100	O	1.107911	-0.593577	0.794950
H101	H	0.568184	-1.040791	0.347492
H102	H	1.068184	-0.540791	0.847492
O103	O	0.281223	-1.052192	-0.617317
O104	O	0.781223	-0.552192	-0.117317
H105	H	0.287667	-0.990483	-0.651934
H106	H	0.787667	-0.490483	-0.151934
O107	O	0.281246	-1.061264	-0.135605
O108	O	0.781246	-0.561264	0.364395
H109	H	0.287719	-1.122978	-0.100998
H110	H	0.787719	-0.622978	0.399002
H111	H	-0.245208	-1.052444	-0.604978
H112	H	0.254792	-0.552444	-0.104978
O113	O	0.392826	-1.228183	0.160664
O114	O	0.892826	-0.728183	0.660664
H115	H	0.269029	-1.227449	0.160560
H116	H	0.769029	-0.727449	0.660560
O117	O	0.607192	-1.191441	-0.010956
O118	O	1.107192	-0.691441	0.489044
H119	H	0.730986	-1.190560	-0.010855
H120	H	1.230986	-0.690560	0.489145
H121	H	0.000176	-0.309041	0.267038
H122	H	0.500176	0.190959	0.767038
H123	H	-0.245197	-1.057874	-0.317209
H124	H	0.254803	-0.557874	0.182791
H125	H	0.000135	-0.478304	0.270238
H126	H	0.500135	0.021696	0.770238
H127	H	0.245507	-1.055586	-0.435703
H128	H	0.745507	-0.555586	0.064297
O129	O	0.000218	-0.337871	-0.050354
O130	O	0.500218	0.162129	0.449646
H131	H	0.000244	-0.393335	-0.106101
H132	H	0.500244	0.106665	0.393899
O133	O	-0.280940	-1.061298	-0.135625
O134	O	0.219060	-0.561298	0.364375
H135	H	-0.287417	-1.123020	-0.101030
H136	H	0.212583	-0.623020	0.398970
H137	H	0.245496	-1.057834	-0.317210
H138	H	0.745496	-0.557834	0.182790
H139	H	0.406663	-1.024634	-0.025635
H140	H	0.906663	-0.524634	0.474365
H141	H	0.000181	-0.516681	-0.025399
H142	H	0.500181	-0.016681	0.474601
H143	H	0.593594	-0.907567	0.091384
H144	H	1.093594	-0.407567	0.591384
H145	H	0.000187	-0.635174	-0.023152
H146	H	0.500187	-0.135174	0.476848
H147	H	0.000105	-0.766062	0.275674
H148	H	0.500105	-0.266062	0.775674
O149	O	0.000139	-0.581676	0.293770
O150	O	0.500139	-0.081676	0.793770
H151	H	0.000110	-0.622435	0.351330
H152	H	0.500110	-0.122435	0.851330
H153	H	0.000144	-0.804442	-0.019958
H154	H	0.500144	-0.304442	0.480042
