data_functionalizedCrystal
_audit_creation_method	'MofGen! by Chris Wilmer'
_symmetry_space_group_name_H-M	'P1'
_symmetry_Int_Tables_number	1
_symmetry_cell_setting	triclinic
loop_
_symmetry_equiv_pos_as_xyz
  x,y,z
_cell_length_a	17.038272
_cell_length_b	14.044220
_cell_length_c	13.101039
_cell_angle_alpha	93.659868
_cell_angle_beta	93.604737
_cell_angle_gamma	87.849783
loop_
_atom_site_label
_atom_site_type_symbol
_atom_site_fract_x
_atom_site_fract_y
_atom_site_fract_z
O1	O	0.185592	-1.277881	-0.085106
O2	O	0.178751	-1.001361	-0.085132
O3	O	0.068241	-1.137977	-0.085111
O4	O	0.296101	-1.141265	-0.085127
O5	O	0.076185	-1.128176	0.085317
O6	O	0.186694	-0.991560	0.085296
O7	O	0.193535	-1.268080	0.085322
Zn8	Zn	0.191376	-1.128264	0.112368
Zn9	Zn	0.180910	-1.141177	-0.112178
O10	O	0.304045	-1.131464	0.085301
C11	C	0.179728	-0.960905	0.000079
C12	C	0.170796	-0.854960	0.000069
C13	C	0.042876	-1.130087	0.000103
C14	C	-0.044541	-1.121168	0.000101
N15	N	0.198518	-1.119458	0.265616
C16	C	-0.088926	-1.203056	0.000110
C17	C	-0.171064	-1.194670	0.000100
C18	C	-0.208815	-1.104396	0.000088
C19	C	-0.164424	-1.022502	0.000076
C20	C	-0.082288	-1.030889	0.000079
C21	C	-0.456646	-1.074767	0.000071
C22	C	-0.538788	-1.066386	0.000071
C23	C	-0.545423	-1.238555	0.000093
C24	C	-0.463285	-1.246934	0.000102
C25	C	-0.418901	-1.165040	0.000085
C26	C	-0.292773	-1.095822	0.000080
C27	C	-0.334945	-1.173615	0.000085
C28	C	0.329410	-1.139354	0.000085
C29	C	0.416827	-1.148273	0.000080
C30	C	0.192558	-1.308536	0.000109
C31	C	0.201490	-1.414482	0.000112
C32	C	0.154468	-0.660980	0.000091
C33	C	0.217813	-0.608455	0.000090
C34	C	0.208729	-0.500518	0.000102
C35	C	0.163552	-0.768927	0.000079
N36	N	0.173762	-1.149990	-0.265426
C37	C	0.208243	-1.107478	0.474656
C38	C	0.164040	-1.161967	0.525540
C39	C	0.169451	-1.155301	0.641858
C40	C	0.202833	-1.114143	0.358328
H41	H	-0.207199	-1.261352	0.000109
H42	H	-0.420519	-1.008083	0.000057
H43	H	0.250148	-1.055826	0.518445
O44	O	-0.298195	-1.261261	-0.000040
C45	C	-0.255008	-1.276349	-0.088317
H46	H	-0.241200	-1.204557	-0.117759
H47	H	-0.291174	-1.319162	-0.150117
C48	C	-0.194590	-1.420149	-0.025334
C49	C	-0.177625	-1.331973	-0.061489
H50	H	-0.146858	-1.454465	-0.008788
H51	H	-0.223688	-1.409987	0.034138
H52	H	-0.224730	-1.455816	-0.076840
H53	H	-0.147494	-1.296304	-0.009979
H54	H	-0.148520	-1.342131	-0.120953
H55	H	0.278868	-0.644550	0.000081
H56	H	0.122133	-1.213624	0.481746
O57	O	-0.052303	-1.290781	-0.000062
C58	C	-0.078517	-1.346181	-0.088313
H59	H	-0.102026	-1.297052	-0.150009
H60	H	-0.127335	-1.393841	-0.068356
C61	C	0.019421	-1.469021	-0.052556
C62	C	-0.009446	-1.408680	-0.128336
H63	H	0.062026	-1.507577	-0.077242
H64	H	0.037081	-1.431699	0.006903
H65	H	-0.021267	-1.508728	-0.035932
H66	H	0.031239	-1.368966	-0.144949
H67	H	-0.027098	-1.445997	-0.187799
O68	O	-0.426743	-1.334702	0.000072
C69	C	-0.483531	-1.405181	0.000107
H70	H	-0.542609	-1.375828	-0.032172
H71	H	-0.489484	-1.426046	0.081875
C72	C	-0.385157	-1.529685	-0.027060
C73	C	-0.457716	-1.493636	-0.066714
H74	H	-0.369232	-1.584251	-0.068274
H75	H	-0.346897	-1.482203	-0.027080
H76	H	-0.390128	-1.547065	0.041079
H77	H	-0.452742	-1.476246	-0.134847
H78	H	-0.495975	-1.541118	-0.066707
H79	H	-0.195167	-0.948998	0.000060
H80	H	0.093419	-0.624887	0.000100
H81	H	-0.581568	-1.305228	0.000105
H82	H	-0.046151	-0.964207	0.000072
O83	O	-0.575436	-0.978679	-0.000131
C84	C	-0.557448	-0.933433	-0.088397
H85	H	-0.539678	-0.989658	-0.150078
H86	H	-0.506779	-0.883467	-0.068454
C87	C	-0.652074	-0.806497	-0.052674
C88	C	-0.630255	-0.875554	-0.128436
H89	H	-0.696982	-0.770791	-0.077370
H90	H	-0.664191	-0.836978	0.006794
H91	H	-0.609843	-0.764869	-0.036062
H92	H	-0.672481	-0.917188	-0.145038
H93	H	-0.618146	-0.845079	-0.187908
O94	O	-0.329542	-1.008191	-0.000059
C95	C	-0.380948	-1.003260	-0.088341
H96	H	-0.397494	-1.078438	-0.117768
H97	H	-0.350536	-0.967555	-0.150147
C98	C	-0.435507	-0.852217	-0.025392
C99	C	-0.455835	-0.944552	-0.061530
H100	H	-0.481700	-0.816000	-0.008856
H101	H	-0.400872	-0.855537	0.034084
H102	H	-0.410163	-0.822476	-0.076903
H103	H	-0.481170	-0.974296	-0.010014
H104	H	-0.490476	-0.941236	-0.120997
