data_functionalizedCrystal
_audit_creation_method	'MofGen! by Chris Wilmer'
_symmetry_space_group_name_H-M	'P1'
_symmetry_Int_Tables_number	1
_symmetry_cell_setting	triclinic
loop_
_symmetry_equiv_pos_as_xyz
  x,y,z
_cell_length_a	10.654562
_cell_length_b	9.130313
_cell_length_c	10.654550
_cell_angle_alpha	89.999890
_cell_angle_beta	95.512497
_cell_angle_gamma	90.003070
loop_
_atom_site_label
_atom_site_type_symbol
_atom_site_fract_x
_atom_site_fract_y
_atom_site_fract_z
O1	O	1.667825	0.121892	-0.176469
O2	O	1.302348	0.121873	-0.193259
O3	O	1.493490	0.121877	-0.002125
O4	O	1.476683	0.121887	-0.367603
O5	O	1.493487	-0.121721	-0.002130
O6	O	1.302346	-0.121726	-0.193264
O7	O	1.667822	-0.121707	-0.176474
Cu8	Cu	1.485084	-0.143959	-0.184869
Cu9	Cu	1.485087	0.144125	-0.184863
O10	O	1.476681	-0.121711	-0.367608
C11	C	1.255549	0.000071	-0.192025
C12	C	1.116107	0.000064	-0.188327
N13	N	1.485091	-0.346582	-0.184873
C14	C	1.569750	-0.423232	-0.100268
C15	C	1.569747	-0.576568	-0.100253
C16	C	1.400421	-0.576592	-0.269459
C17	C	1.400419	-0.423258	-0.269467
C18	C	1.654422	-0.346556	-0.015674
C19	C	1.739089	-0.423206	0.068937
C20	C	1.739086	-0.576543	0.068952
C21	C	1.654415	-0.653229	-0.015644
C22	C	1.050575	-0.132710	-0.186605
C23	C	0.919553	-0.132686	-0.183140
C24	C	0.919605	0.132899	-0.183125
C25	C	1.050626	0.132873	-0.186580
C26	C	1.116056	-0.265519	-0.188351
C27	C	1.050523	-0.398304	-0.186630
C28	C	0.919501	-0.398280	-0.183165
C29	C	0.854011	-0.265470	-0.181421
C30	C	1.714621	0.000098	-0.177708
C31	C	1.854064	0.000115	-0.181406
C32	C	1.492254	0.000080	0.044671
C33	C	1.488563	0.000085	0.184114
N34	N	1.485089	0.346748	-0.184850
C35	C	1.477916	0.000090	-0.414403
C36	C	1.481608	0.000094	-0.553847
C37	C	1.601103	0.000086	0.263595
C38	C	1.597627	0.000096	0.394615
C39	C	1.369059	0.000097	0.366662
C40	C	1.372537	0.000098	0.235644
C41	C	1.717129	0.000073	0.212064
C42	C	1.829680	0.000072	0.291546
C43	C	1.826203	0.000083	0.422567
C44	C	1.710176	0.000093	0.474106
H45	H	1.654435	-0.221701	-0.015681
H46	H	0.747324	-0.265461	-0.178597
C47	C	1.832224	-0.338858	0.161979
H48	H	1.820113	-0.236559	0.149845
H49	H	1.817873	-0.363971	0.245934
H50	H	1.916156	-0.363994	0.147538
C51	C	0.847568	0.278975	-0.181223
H52	H	0.760149	0.259973	-0.178931
H53	H	0.877974	0.333536	-0.108681
H54	H	0.860122	0.333527	-0.254908
H55	H	1.222740	-0.265554	-0.191176
C56	C	1.122556	-0.544382	-0.188546
H57	H	1.209972	-0.525383	-0.190867
H58	H	1.110008	-0.598946	-0.114873
H59	H	1.092137	-0.598929	-0.261100
H60	H	1.654411	-0.778087	-0.015616
C61	C	1.832211	-0.660854	0.162019
H62	H	1.882640	-0.593223	0.212389
H63	H	1.786590	-0.720669	0.214733
H64	H	1.884880	-0.720669	0.116343
H65	H	1.331487	-0.639040	-0.338335
H66	H	0.866149	-0.506400	-0.181754
H67	H	1.103983	0.240990	-0.187989
C68	C	1.720958	0.000070	0.067947
H69	H	1.806175	0.000074	0.048638
H70	H	1.679528	-0.084875	0.033146
H71	H	1.679548	0.085033	0.033149
C72	C	1.957298	0.000062	0.234858
H73	H	1.943253	0.000042	0.145445
H74	H	2.003692	0.085010	0.262067
H75	H	2.003675	-0.084897	0.262078
C76	C	1.307303	-0.338937	-0.362536
H77	H	1.256889	-0.406561	-0.412929
H78	H	1.254637	-0.279119	-0.316871
H79	H	1.352942	-0.279125	-0.415246
H80	H	1.917847	0.000097	0.487279
C81	C	1.706354	0.000112	0.618227
H82	H	1.789997	0.000108	0.658185
H83	H	1.663360	0.085059	0.642701
H84	H	1.663361	-0.084848	0.642708
H85	H	1.274595	0.000104	0.408637
H86	H	1.280896	0.000095	0.170928
