data_functionalizedCrystal
_audit_creation_method	'MofGen! by Chris Wilmer'
_symmetry_space_group_name_H-M	'P1'
_symmetry_Int_Tables_number	1
_symmetry_cell_setting	triclinic
loop_
_symmetry_equiv_pos_as_xyz
  x,y,z
_cell_length_a	11.169417
_cell_length_b	13.897448
_cell_length_c	11.169409
_cell_angle_alpha	89.967011
_cell_angle_beta	90.019824
_cell_angle_gamma	89.979553
loop_
_atom_site_label
_atom_site_type_symbol
_atom_site_fract_x
_atom_site_fract_y
_atom_site_fract_z
Zn1	Zn	1.834885	0.383914	0.678537
Zn2	Zn	1.834742	0.545250	0.477852
Zn3	Zn	1.634171	0.383973	0.477872
Zn4	Zn	1.634146	0.545171	0.678497
O5	O	1.734486	0.464577	0.578189
O6	O	2.002816	0.405324	0.651925
O7	O	1.808087	0.523914	0.309905
O8	O	1.660867	0.248984	0.504516
O9	O	2.002711	0.523857	0.504482
O10	O	1.808330	0.248940	0.651944
O11	O	1.660728	0.405424	0.309919
O12	O	1.466218	0.405348	0.504476
O13	O	1.660824	0.523723	0.846452
O14	O	1.466200	0.523780	0.651875
O15	O	1.808306	0.405248	0.846482
O16	O	1.808063	0.680221	0.504443
O17	O	1.660686	0.680163	0.651856
C18	C	1.422662	0.464562	0.578174
C19	C	1.289262	0.464579	0.578196
C20	C	1.734389	0.715191	0.578169
C21	C	1.734457	0.822405	0.578200
C22	C	1.734575	1.018700	0.578286
C23	C	1.734506	0.909468	0.578242
C24	C	2.047529	0.464592	0.578206
C25	C	2.180929	0.464599	0.578213
C26	C	1.734579	0.464470	0.891232
C27	C	1.734618	0.464424	1.024632
C28	C	1.734607	1.212984	0.578251
C29	C	1.734632	1.105770	0.578313
C30	C	1.734464	0.464614	0.266365
C31	C	1.734657	0.464388	0.132965
