data_functionalizedCrystal
_audit_creation_method	'MofGen! by Chris Wilmer'
_symmetry_space_group_name_H-M	'P1'
_symmetry_Int_Tables_number	1
_symmetry_cell_setting	triclinic
loop_
_symmetry_equiv_pos_as_xyz
  x,y,z
_cell_length_a	17.019282
_cell_length_b	15.500215
_cell_length_c	10.723024
_cell_angle_alpha	93.157403
_cell_angle_beta	83.927098
_cell_angle_gamma	89.309895
loop_
_atom_site_label
_atom_site_type_symbol
_atom_site_fract_x
_atom_site_fract_y
_atom_site_fract_z
O1	O	1.047260	-0.006109	0.158445
O2	O	1.380594	0.327225	0.491779
O3	O	1.713927	0.660558	0.825112
O4	O	0.818487	0.010943	0.179961
O5	O	1.151820	0.344276	0.513294
O6	O	1.485154	0.677610	0.846628
O7	O	0.938151	0.002021	-0.012483
O8	O	1.271484	0.335354	0.320850
O9	O	1.604817	0.668687	0.654184
O10	O	0.927597	0.002814	0.350889
O11	O	1.260930	0.336147	0.684223
O12	O	1.594263	0.669480	1.017556
O13	O	0.931564	-0.141378	-0.022789
O14	O	1.264897	0.191956	0.310544
O15	O	1.598231	0.525289	0.643878
O16	O	0.811900	-0.132455	0.169655
O17	O	1.145234	0.200878	0.502989
O18	O	1.478567	0.534211	0.836322
O19	O	1.040674	-0.149507	0.148140
O20	O	1.374007	0.183826	0.481473
O21	O	1.707341	0.517160	0.814806
Cu22	Cu	0.925686	-0.154075	0.157956
Cu23	Cu	1.259019	0.179259	0.491290
Cu24	Cu	1.592353	0.512592	0.824623
Cu25	Cu	0.933475	0.015511	0.170144
Cu26	Cu	1.266808	0.348844	0.503478
Cu27	Cu	1.600142	0.682177	0.836811
O28	O	0.921010	-0.140585	0.340584
O29	O	1.254344	0.192749	0.673917
O30	O	1.587677	0.526082	1.007250
C31	C	0.785900	-0.058573	0.174199
C32	C	1.119234	0.274761	0.507532
C33	C	1.452567	0.608094	0.840865
C34	C	0.698616	-0.052067	0.172368
C35	C	1.031949	0.281266	0.505701
C36	C	1.365283	0.614600	0.839035
C37	C	0.654024	-0.127179	0.165887
C38	C	0.987357	0.206154	0.499220
C39	C	1.320691	0.539488	0.832554
C40	C	0.572012	-0.121069	0.164147
C41	C	0.905346	0.212265	0.497480
C42	C	1.238679	0.545598	0.830813
C43	C	0.534594	-0.039845	0.168897
C44	C	0.867927	0.293488	0.502230
C45	C	1.201260	0.626821	0.835563
C46	C	0.579192	0.035272	0.175374
C47	C	0.912525	0.368606	0.508708
C48	C	1.245859	0.701939	0.842041
C49	C	0.661203	0.029161	0.177106
C50	C	0.994536	0.362494	0.510439
C51	C	1.327869	0.695828	0.843772
C52	C	0.287154	-0.017483	0.163942
C53	C	0.620488	0.315850	0.497275
C54	C	0.953821	0.649184	0.830609
C55	C	0.205137	-0.011377	0.162214
C56	C	0.538471	0.321956	0.495547
C57	C	0.871804	0.655289	0.828881
C58	C	0.197964	-0.167719	0.150984
C59	C	0.531297	0.165614	0.484318
C60	C	0.864630	0.498948	0.817651
C61	C	0.279976	-0.173823	0.152724
C62	C	0.613309	0.159510	0.486057
C63	C	0.946642	0.492844	0.819390
C64	C	0.324567	-0.098706	0.159195
C65	C	0.657901	0.234628	0.492528
C66	C	0.991234	0.567961	0.825861
C67	C	0.450764	-0.033598	0.167122
C68	C	0.784098	0.299736	0.500455
C69	C	1.117431	0.633069	0.833788
C70	C	0.408396	-0.104954	0.160960
C71	C	0.741729	0.228379	0.494294
C72	C	1.075062	0.561713	0.827627
N73	N	0.920213	-0.273352	0.149383
N74	N	1.253546	0.059981	0.482717
N75	N	1.586880	0.393314	0.816050
C76	C	0.966229	-0.322054	0.221522
C77	C	1.299562	0.011280	0.554855
C78	C	1.632895	0.344613	0.888189
C79	C	0.962100	-0.412319	0.215030
C80	C	1.295433	-0.078986	0.548364
C81	C	1.628767	0.254347	0.881697
C82	C	0.911951	-0.453881	0.136406
C83	C	1.245285	-0.120548	0.469739
C84	C	1.578618	0.212785	0.803073
C85	C	0.865934	-0.405173	0.064259
C86	C	1.199267	-0.071840	0.397592
C87	C	1.532601	0.261493	0.730926
C88	C	0.870067	-0.314910	0.070745
C89	C	1.203401	0.018423	0.404078
C90	C	1.536734	0.351757	0.737411
C91	C	0.897070	-0.726241	0.113046
C92	C	1.230403	-0.392907	0.446379
C93	C	1.563737	-0.059574	0.779713
C94	C	0.892938	-0.816511	0.106569
C95	C	1.226272	-0.483177	0.439902
C96	C	1.559605	-0.149844	0.773235
C97	C	0.989106	-0.823650	0.257339
C98	C	1.322439	-0.490317	0.590672
C99	C	1.655773	-0.156984	0.924006
C100	C	0.993231	-0.733385	0.263823
C101	C	1.326565	-0.400051	0.597157
C102	C	1.659898	-0.066718	0.930490
C103	C	0.947217	-0.684685	0.191672
C104	C	1.280551	-0.351351	0.525005
C105	C	1.613884	-0.018018	0.858338
C106	C	0.907728	-0.546147	0.129772
C107	C	1.241062	-0.212814	0.463105
C108	C	1.574395	0.120520	0.796438
C109	C	0.951445	-0.592421	0.198300
C110	C	1.284778	-0.259088	0.531633
C111	C	1.618112	0.074246	0.864967
C112	C	1.073261	-0.079989	0.153902
C113	C	1.406594	0.253344	0.487235
C114	C	1.739927	0.586677	0.820569
C115	C	1.160545	-0.086489	0.155733
C116	C	1.493879	0.246844	0.489066
C117	C	1.827212	0.580177	0.822400
C118	C	0.934089	-0.069620	-0.064120
C119	C	1.267423	0.263713	0.269214
C120	C	1.600756	0.597046	0.602547
C121	C	0.931792	-0.069446	-0.202626
C122	C	1.265125	0.263887	0.130708
C123	C	1.598458	0.597221	0.464041
N124	N	0.938954	0.134788	0.178707
N125	N	1.272287	0.468121	0.512041
N126	N	1.605621	0.801454	0.845374
C127	C	0.998749	-0.074435	-0.279002
C128	C	1.332083	0.258898	0.054331
C129	C	1.665416	0.592231	0.387665
C130	C	0.996376	-0.074255	-0.422156
C131	C	1.329709	0.259078	-0.088823
C132	C	1.663043	0.592411	0.244511
C133	C	0.925072	-0.068942	0.392220
C134	C	1.258405	0.264391	0.725554
C135	C	1.591738	0.597725	1.058887
C136	C	0.927370	-0.069111	0.530727
C137	C	1.260703	0.264223	0.864060
C138	C	1.594036	0.597556	1.197394
H139	H	0.697509	0.090325	0.182385
H140	H	1.030842	0.423659	0.515719
H141	H	1.364175	0.756992	0.849052
H142	H	1.034070	-0.699551	0.327844
H143	H	1.367403	-0.366218	0.661177
H144	H	1.700737	-0.032885	0.994511
H145	H	0.548720	0.101406	0.179233
H146	H	0.882053	0.434739	0.512566
H147	H	1.215387	0.768073	0.845899
H148	H	0.859602	-0.686600	0.054294
H149	H	1.192935	-0.353267	0.387627
H150	H	1.526269	-0.019933	0.720961
H151	H	0.852097	-0.850347	0.042543
H152	H	1.185430	-0.517014	0.375877
H153	H	1.518764	-0.183681	0.709210
H154	H	0.438866	-0.171086	0.157087
H155	H	0.772199	0.162248	0.490420
H156	H	1.105533	0.495581	0.823754
H157	H	1.007060	-0.288220	0.285554
H158	H	1.340394	0.045113	0.618887
H159	H	1.673727	0.378446	0.952221
H160	H	0.832596	-0.275258	0.012002
H161	H	1.165930	0.058075	0.345335
H162	H	1.499263	0.391409	0.678668
H163	H	1.057831	-0.078844	-0.238410
H164	H	1.391164	0.254489	0.094923
H165	H	1.724498	0.587822	0.428256
C166	C	1.039724	-0.877228	0.336690
C167	C	1.373058	-0.543894	0.670024
C168	C	1.706391	-0.210561	1.003357
N169	N	1.077855	-0.917583	0.396456
N170	N	1.411189	-0.584249	0.729789
N171	N	1.744522	-0.250916	1.063123
C172	C	0.522962	-0.203699	0.157046
C173	C	0.856296	0.129635	0.490380
C174	C	1.189629	0.462968	0.823713
N175	N	0.486018	-0.265939	0.151707
N176	N	0.819351	0.067394	0.485040
N177	N	1.152684	0.400728	0.818374
H178	H	0.992279	-0.558578	0.262311
H179	H	1.325612	-0.225244	0.595644
H180	H	1.658945	0.108089	0.928978
H181	H	0.174673	0.054768	0.166086
H182	H	0.508007	0.388101	0.499419
H183	H	0.841340	0.721434	0.832753
H184	H	0.825106	-0.439021	0.000235
H185	H	1.158439	-0.105687	0.333568
H186	H	1.491772	0.227646	0.666902
C187	C	0.852558	-0.591874	0.043299
C188	C	1.185891	-0.258541	0.376632
C189	C	1.519224	0.074793	0.709966
N190	N	0.811003	-0.626318	-0.021831
N191	N	1.144336	-0.292985	0.311503
N192	N	1.477669	0.040348	0.644836
H193	H	1.053697	-0.078531	-0.487782
H194	H	1.387030	0.254803	-0.154449
H195	H	1.720363	0.588136	0.178885
C196	C	0.851971	-0.063498	-0.257457
C197	C	1.185305	0.269836	0.075876
C198	C	1.518638	0.603169	0.409209
N199	N	0.791848	-0.059020	-0.298755
N200	N	1.125182	0.274313	0.034578
N201	N	1.458515	0.607647	0.367912
C202	C	0.336195	0.065150	0.171050
C203	C	0.669529	0.398483	0.504383
C204	C	1.002862	0.731816	0.837716
N205	N	0.373136	0.127393	0.176399
N206	N	0.706470	0.460726	0.509732
N207	N	1.039803	0.794059	0.843065
H208	H	0.684483	-0.193320	0.162029
H209	H	1.017817	0.140013	0.495363
H210	H	1.351150	0.473347	0.828696
H211	H	0.420289	0.032535	0.170988
H212	H	0.753622	0.365868	0.504322
H213	H	1.086956	0.699201	0.837655
H214	H	0.310436	-0.239964	0.148850
H215	H	0.643770	0.093370	0.482183
H216	H	0.977103	0.426703	0.815517
C217	C	0.148907	-0.250343	0.143854
C218	C	0.482241	0.082990	0.477187
C219	C	0.815574	0.416324	0.810520
N220	N	0.111958	-0.312578	0.138476
N221	N	0.445292	0.020755	0.471810
N222	N	0.778625	0.354088	0.805143
H223	H	0.870045	-0.064845	-0.403655
H224	H	1.203379	0.268489	-0.070322
H225	H	1.536712	0.601822	0.263011
H226	H	0.999572	-0.451968	0.273771
H227	H	1.332906	-0.118635	0.607105
H228	H	1.666239	0.214698	0.940438
