data_functionalizedCrystal
_audit_creation_method	'MofGen! by Chris Wilmer'
_symmetry_space_group_name_H-M	'P1'
_symmetry_Int_Tables_number	1
_symmetry_cell_setting	triclinic
loop_
_symmetry_equiv_pos_as_xyz
  x,y,z
_cell_length_a	15.944551
_cell_length_b	9.065218
_cell_length_c	8.140239
_cell_angle_alpha	90.001686
_cell_angle_beta	89.998231
_cell_angle_gamma	84.257312
loop_
_atom_site_label
_atom_site_type_symbol
_atom_site_fract_x
_atom_site_fract_y
_atom_site_fract_z
O1	O	-1.115964	-0.190270	-0.136435
O2	O	-0.871592	-0.213728	-0.136475
O3	O	-0.998829	0.012762	-0.136451
O4	O	-0.988727	-0.416759	-0.136459
O5	O	-0.998822	0.012764	0.136776
O6	O	-0.871585	-0.213725	0.136752
O7	O	-1.115956	-0.190267	0.136792
Zn8	Zn	-0.993769	-0.201996	0.180152
Zn9	Zn	-0.993779	-0.201999	-0.179836
O10	O	-0.988719	-0.416757	0.136768
C11	C	-0.840287	-0.212753	0.000133
C12	C	-0.747019	-0.209833	0.000118
N13	N	-0.993769	-0.201993	0.425835
C14	C	-1.147261	-0.191242	0.000180
C15	C	-1.240530	-0.194162	0.000185
C16	C	-0.531045	-0.062466	0.000152
C17	C	-0.470547	-0.130900	-0.134564
C18	C	-0.576253	-0.204551	0.000137
C19	C	-0.470563	-0.130931	0.134816
C20	C	-0.411301	-0.199439	0.000163
C21	C	-0.516983	-0.273024	-0.134691
C22	C	-0.517005	-0.273035	0.134811
C23	C	-0.456525	-0.341573	0.000061
C24	C	-0.671277	-0.207493	0.000121
C25	C	-0.316278	-0.196509	0.000168
C26	C	-0.997854	0.067727	0.000160
C27	C	-0.994951	0.231502	0.000151
C28	C	-0.989694	-0.471722	0.000153
C29	C	-0.992597	-0.635497	0.000151
N30	N	-0.993786	-0.201991	-0.425519
H31	H	-0.449985	-0.070804	-0.248456
O32	O	-0.569859	0.078129	0.000082
C33	C	-0.657980	0.073478	0.001491
H34	H	-0.673444	-0.037163	0.054082
H35	H	-0.688447	0.167731	0.080790
H36	H	-0.683304	0.086105	-0.129257
O37	O	-0.541457	-0.344801	-0.270550
C38	C	-0.582432	-0.468683	-0.222485
H39	H	-0.608054	-0.450935	-0.092478
H40	H	-0.636697	-0.482913	-0.310383
H41	H	-0.535680	-0.572372	-0.225727
H42	H	-0.424261	-0.459614	-0.000016
O43	O	-0.541547	-0.344452	0.270851
C44	C	-0.518121	-0.269173	0.412616
H45	H	-0.510444	-0.148896	0.380342
H46	H	-0.569075	-0.272775	0.510371
H47	H	-0.455905	-0.324973	0.461771
H48	H	-0.450018	-0.070807	0.248705
