data_functionalizedCrystal
_audit_creation_method	'MofGen! by Chris Wilmer'
_symmetry_space_group_name_H-M	'P1'
_symmetry_Int_Tables_number	1
_symmetry_cell_setting	triclinic
loop_
_symmetry_equiv_pos_as_xyz
  x,y,z
_cell_length_a	29.839131
_cell_length_b	29.839134
_cell_length_c	18.101390
_cell_angle_alpha	90.030791
_cell_angle_beta	89.964218
_cell_angle_gamma	89.963233
loop_
_atom_site_label
_atom_site_type_symbol
_atom_site_fract_x
_atom_site_fract_y
_atom_site_fract_z
Zn1	Zn	-0.178892	-0.686751	-0.418945
Zn2	Zn	0.071108	-0.436751	-0.168945
Zn3	Zn	0.321108	-0.186751	0.081055
Zn4	Zn	0.571108	0.063249	0.331055
Zn5	Zn	-0.254028	-0.686674	-0.295097
Zn6	Zn	-0.004028	-0.436674	-0.045097
Zn7	Zn	0.245972	-0.186674	0.204903
Zn8	Zn	0.495972	0.063326	0.454903
Zn9	Zn	-0.178906	-0.611625	-0.295093
Zn10	Zn	0.071094	-0.361625	-0.045093
Zn11	Zn	0.321094	-0.111625	0.204907
Zn12	Zn	0.571094	0.138375	0.454907
Zn13	Zn	-0.253989	-0.611582	-0.418872
Zn14	Zn	-0.003989	-0.361582	-0.168872
Zn15	Zn	0.246011	-0.111582	0.081128
Zn16	Zn	0.496011	0.138418	0.331128
O17	O	-0.216454	-0.649158	-0.357002
O18	O	0.033546	-0.399158	-0.107002
O19	O	0.283546	-0.149158	0.142998
O20	O	0.533546	0.100842	0.392998
O21	O	-0.188869	-0.749608	-0.402548
O22	O	0.061131	-0.499608	-0.152548
O23	O	0.311131	-0.249608	0.097452
O24	O	0.561131	0.000392	0.347452
O25	O	-0.244085	-0.676704	-0.191463
O26	O	0.005915	-0.426704	0.058537
O27	O	0.255915	-0.176704	0.308537
O28	O	0.505915	0.073296	0.558537
O29	O	-0.116037	-0.621641	-0.311550
O30	O	0.133963	-0.371641	-0.061550
O31	O	0.383963	-0.121641	0.188450
O32	O	0.633963	0.128359	0.438450
O33	O	-0.244071	-0.749551	-0.311558
O34	O	0.005929	-0.499551	-0.061558
O35	O	0.255929	-0.249551	0.188442
O36	O	0.505929	0.000449	0.438442
O37	O	-0.116027	-0.676836	-0.402544
O38	O	0.133973	-0.426836	-0.152544
O39	O	0.383973	-0.176836	0.097456
O40	O	0.633973	0.073164	0.347456
O41	O	-0.188893	-0.621566	-0.191460
O42	O	0.061107	-0.371566	0.058540
O43	O	0.311107	-0.121566	0.308540
O44	O	0.561107	0.128434	0.558540
O45	O	-0.188856	-0.548752	-0.311480
O46	O	0.061144	-0.298752	-0.061480
O47	O	0.311144	-0.048752	0.188520
O48	O	0.561144	0.201248	0.438520
O49	O	-0.244006	-0.621567	-0.522515
O50	O	0.005994	-0.371567	-0.272515
O51	O	0.255994	-0.121567	-0.022515
O52	O	0.505994	0.128433	0.227485
O53	O	-0.244020	-0.548720	-0.402421
O54	O	0.005980	-0.298720	-0.152421
O55	O	0.255980	-0.048720	0.097579
O56	O	0.505980	0.201280	0.347579
O57	O	-0.188832	-0.676794	-0.522568
O58	O	0.061168	-0.426794	-0.272568
O59	O	0.311168	-0.176794	-0.022568
O60	O	0.561168	0.073206	0.227432
O61	O	-0.316890	-0.676663	-0.311487
O62	O	-0.066890	-0.426663	-0.061487
O63	O	0.183110	-0.176663	0.188513
O64	O	0.433110	0.073337	0.438513
O65	O	-0.316862	-0.621493	-0.402425
O66	O	-0.066862	-0.371493	-0.152425
O67	O	0.183138	-0.121493	0.097575
O68	O	0.433138	0.128507	0.347575
C69	C	-0.216436	-0.532435	-0.356942
C70	C	0.033564	-0.282435	-0.106942
C71	C	0.283564	-0.032435	0.143058
C72	C	0.533564	0.217565	0.393058
C73	C	-0.216439	-0.482501	-0.356935
C74	C	0.033561	-0.232501	-0.106935
C75	C	0.283561	0.017499	0.143065
C76	C	0.533561	0.267499	0.393065
C77	C	-0.245224	-0.172851	-0.404273
C78	C	0.004776	0.077149	-0.154273
C79	C	0.254776	0.327149	0.095727
C80	C	0.504776	0.577149	0.345727
C81	C	-0.245238	0.014823	-0.404297
C82	C	0.004762	0.264823	-0.154297
C83	C	0.254762	0.514823	0.095703
C84	C	0.504762	0.764823	0.345703
O85	O	-0.269689	0.039093	-0.444525
O86	O	-0.019689	0.289093	-0.194525
O87	O	0.230311	0.539093	0.055475
O88	O	0.480311	0.789093	0.305475
N89	N	-0.216476	0.038284	-0.357024
N90	N	0.033524	0.288284	-0.107024
N91	N	0.283524	0.538284	0.142976
N92	N	0.533524	0.788284	0.392976
C93	C	-0.187706	0.014825	-0.309745
C94	C	0.062294	0.264825	-0.059745
C95	C	0.312294	0.514825	0.190255
C96	C	0.562294	0.764825	0.440255
O97	O	-0.163240	0.039087	-0.269542
O98	O	0.086760	0.289087	-0.019542
O99	O	0.336760	0.539087	0.230458
O100	O	0.586760	0.789087	0.480458
C101	C	-0.187690	-0.172847	-0.309725
C102	C	0.062310	0.077153	-0.059725
C103	C	0.312310	0.327153	0.190275
C104	C	0.562310	0.577153	0.440275
C105	C	-0.216457	-0.196307	-0.356996
C106	C	0.033543	0.053693	-0.106996
C107	C	0.283543	0.303693	0.143004
C108	C	0.533543	0.553693	0.393004
C109	C	-0.273988	-0.196310	-0.451540
C110	C	-0.023988	0.053690	-0.201540
C111	C	0.226012	0.303690	0.048460
C112	C	0.476012	0.553690	0.298460
C113	C	-0.273986	-0.243225	-0.451531
C114	C	-0.023986	0.006775	-0.201531
C115	C	0.226014	0.256775	0.048469
C116	C	0.476014	0.506775	0.298469
C117	C	-0.245220	-0.266681	-0.404254
C118	C	0.004780	-0.016681	-0.154254
C119	C	0.254780	0.233319	0.095746
C120	C	0.504780	0.483319	0.345746
C121	C	-0.216455	-0.243222	-0.356987
C122	C	0.033545	0.006778	-0.106987
C123	C	0.283545	0.256778	0.143013
C124	C	0.533545	0.506778	0.393013
C125	C	-0.158919	-0.196306	-0.262451
C126	C	0.091081	0.053694	-0.012451
C127	C	0.341081	0.303694	0.237549
C128	C	0.591081	0.553694	0.487549
C129	C	-0.158916	-0.243227	-0.262452
C130	C	0.091084	0.006773	-0.012452
C131	C	0.341084	0.256773	0.237548
C132	C	0.591084	0.506773	0.487548
C133	C	-0.187683	-0.266686	-0.309722
C134	C	0.062317	-0.016686	-0.059722
C135	C	0.312317	0.233314	0.190278
C136	C	0.562317	0.483314	0.440278
C137	C	-0.187687	-0.313594	-0.309701
C138	C	0.062313	-0.063594	-0.059701
C139	C	0.312313	0.186406	0.190299
C140	C	0.562313	0.436406	0.440299
N141	N	-0.216449	-0.337055	-0.356974
N142	N	0.033551	-0.087055	-0.106974
N143	N	0.283551	0.162945	0.143026
N144	N	0.533551	0.412945	0.393026
C145	C	-0.245215	-0.313599	-0.404251
C146	C	0.004785	-0.063599	-0.154251
C147	C	0.254785	0.186401	0.095749
C148	C	0.504785	0.436401	0.345749
C149	C	-0.187718	0.113355	-0.309757
C150	C	0.062282	0.363355	-0.059757
C151	C	0.312282	0.613355	0.190243
C152	C	0.562282	0.863355	0.440243
C153	C	-0.187722	0.160273	-0.309761
C154	C	0.062278	0.410273	-0.059761
C155	C	0.312278	0.660273	0.190239
C156	C	0.562278	0.910273	0.440239
C157	C	-0.245253	0.160268	-0.404314
C158	C	0.004747	0.410268	-0.154314
C159	C	0.254747	0.660268	0.095686
C160	C	0.504747	0.910268	0.345686
C161	C	-0.245251	0.113349	-0.404306
C162	C	0.004749	0.363349	-0.154306
C163	C	0.254749	0.613349	0.095694
C164	C	0.504749	0.863349	0.345694
C165	C	-0.216480	0.089894	-0.357030
C166	C	0.033520	0.339894	-0.107030
C167	C	0.283520	0.589894	0.142970
C168	C	0.533520	0.839894	0.392970
C169	C	-0.245209	-0.412125	-0.404227
C170	C	0.004791	-0.162125	-0.154227
C171	C	0.254791	0.087875	0.095773
C172	C	0.504791	0.337875	0.345773
C173	C	-0.245205	-0.459045	-0.404211
C174	C	0.004795	-0.209045	-0.154211
C175	C	0.254795	0.040955	0.095789
C176	C	0.504795	0.290955	0.345789
C177	C	-0.187673	-0.459035	-0.309662
C178	C	0.062327	-0.209035	-0.059662
C179	C	0.312327	0.040965	0.190338
C180	C	0.562327	0.290965	0.440338
C181	C	-0.187678	-0.412120	-0.309674
C182	C	0.062322	-0.162120	-0.059674
C183	C	0.312322	0.087880	0.190326
C184	C	0.562322	0.337880	0.440326
C185	C	-0.216447	-0.388666	-0.356963
C186	C	0.033553	-0.138666	-0.106963
C187	C	0.283553	0.111334	0.143037
C188	C	0.533553	0.361334	0.393037
O189	O	-0.163245	-0.337893	-0.269499
O190	O	0.086755	-0.087893	-0.019499
O191	O	0.336755	0.162107	0.230501
O192	O	0.586755	0.412107	0.480501
O193	O	-0.269671	-0.337869	-0.444459
O194	O	-0.019671	-0.087869	-0.194459
O195	O	0.230329	0.162131	0.055541
O196	O	0.480329	0.412131	0.305541
C197	C	-0.245226	-0.125935	-0.404282
C198	C	0.004774	0.124065	-0.154282
C199	C	0.254774	0.374065	0.095718
C200	C	0.504774	0.624065	0.345718
C201	C	-0.216462	-0.102476	-0.357015
C202	C	0.033538	0.147524	-0.107015
C203	C	0.283538	0.397524	0.142985
C204	C	0.533538	0.647524	0.392985
C205	C	-0.187695	-0.125932	-0.309738
C206	C	0.062305	0.124068	-0.059738
C207	C	0.312305	0.374068	0.190262
C208	C	0.562305	0.624068	0.440262
C209	C	-0.216466	-0.055558	-0.357018
C210	C	0.033534	0.194442	-0.107018
C211	C	0.283534	0.444442	0.142982
C212	C	0.533534	0.694442	0.392982
C213	C	-0.245233	-0.032102	-0.404295
C214	C	0.004767	0.217898	-0.154295
C215	C	0.254767	0.467898	0.095705
C216	C	0.504767	0.717898	0.345705
C217	C	-0.273995	-0.055563	-0.451568
C218	C	-0.023995	0.194437	-0.201568
C219	C	0.226005	0.444437	0.048432
C220	C	0.476005	0.694437	0.298432
C221	C	-0.273993	-0.102479	-0.451559
C222	C	-0.023993	0.147521	-0.201559
C223	C	0.226007	0.397521	0.048441
C224	C	0.476007	0.647521	0.298441
C225	C	-0.158933	-0.102470	-0.262465
C226	C	0.091067	0.147530	-0.012465
C227	C	0.341067	0.397530	0.237535
C228	C	0.591067	0.647530	0.487535
C229	C	-0.158938	-0.055555	-0.262477
C230	C	0.091062	0.194445	-0.012477
C231	C	0.341062	0.444445	0.237523
C232	C	0.591062	0.694445	0.487523
C233	C	-0.187704	-0.032099	-0.309754
C234	C	0.062296	0.217901	-0.059754
C235	C	0.312296	0.467901	0.190246
C236	C	0.562296	0.717901	0.440246
C237	C	-0.333176	-0.649077	-0.356965
C238	C	-0.083176	-0.399077	-0.106965
C239	C	0.166824	-0.149077	0.143035
C240	C	0.416824	0.100923	0.393035
C241	C	-0.383111	-0.649083	-0.356974
C242	C	-0.133111	-0.399083	-0.106974
C243	C	0.116889	-0.149083	0.143026
C244	C	0.366889	0.100917	0.393026
C245	C	-0.692756	-0.677937	-0.309720
C246	C	-0.442756	-0.427937	-0.059720
C247	C	-0.192756	-0.177937	0.190280
C248	C	0.057244	0.072063	0.440280
C249	C	-0.880429	-0.677993	-0.309749
C250	C	-0.630429	-0.427993	-0.059749
C251	C	-0.380429	-0.177993	0.190251
C252	C	-0.130429	0.072007	0.440251
O253	O	-0.904696	-0.702461	-0.269543
O254	O	-0.654696	-0.452461	-0.019543
O255	O	-0.404696	-0.202461	0.230457
O256	O	-0.154696	0.047539	0.480457
N257	N	-0.903896	-0.649251	-0.357057
N258	N	-0.653896	-0.399251	-0.107057
N259	N	-0.403896	-0.149251	0.142943
N260	N	-0.153896	0.100749	0.392943
C261	C	-0.880441	-0.620496	-0.404366
C262	C	-0.630441	-0.370496	-0.154366
C263	C	-0.380441	-0.120496	0.095634
C264	C	-0.130441	0.129504	0.345634
O265	O	-0.904708	-0.596054	-0.444611
O266	O	-0.654708	-0.346054	-0.194611
O267	O	-0.404708	-0.096054	0.055389
O268	O	-0.154708	0.153946	0.305389
C269	C	-0.692769	-0.620443	-0.404340
C270	C	-0.442769	-0.370443	-0.154340
C271	C	-0.192769	-0.120443	0.095660
C272	C	0.057231	0.129557	0.345660
C273	C	-0.669305	-0.649183	-0.357023
C274	C	-0.419305	-0.399183	-0.107023
C275	C	-0.169305	-0.149183	0.142977
C276	C	0.080695	0.100817	0.392977
C277	C	-0.669292	-0.706675	-0.262407
C278	C	-0.419292	-0.456675	-0.012407
C279	C	-0.169292	-0.206675	0.237593
C280	C	0.080708	0.043325	0.487593
C281	C	-0.622376	-0.706659	-0.262397
C282	C	-0.372376	-0.456659	-0.012397
C283	C	-0.122376	-0.206659	0.237603
C284	C	0.127624	0.043341	0.487603
C285	C	-0.598925	-0.677905	-0.309701
C286	C	-0.348925	-0.427905	-0.059701
C287	C	-0.098925	-0.177905	0.190299
C288	C	0.151075	0.072095	0.440299
C289	C	-0.622390	-0.649167	-0.357014
C290	C	-0.372390	-0.399167	-0.107014
C291	C	-0.122390	-0.149167	0.142986
C292	C	0.127610	0.100833	0.392986
C293	C	-0.669316	-0.591690	-0.451652
C294	C	-0.419316	-0.341690	-0.201652
C295	C	-0.169316	-0.091690	0.048348
C296	C	0.080684	0.158310	0.298348
C297	C	-0.622395	-0.591680	-0.451643
C298	C	-0.372395	-0.341680	-0.201643
C299	C	-0.122395	-0.091680	0.048357
C300	C	0.127605	0.158320	0.298357
C301	C	-0.598930	-0.620420	-0.404326
C302	C	-0.348930	-0.370420	-0.154326
C303	C	-0.098930	-0.120420	0.095674
C304	C	0.151070	0.129580	0.345674
C305	C	-0.552023	-0.620397	-0.404307
C306	C	-0.302023	-0.370397	-0.154307
C307	C	-0.052023	-0.120397	0.095693
C308	C	0.197977	0.129603	0.345693
N309	N	-0.528556	-0.649139	-0.356998
N310	N	-0.278556	-0.399139	-0.106998
N311	N	-0.028556	-0.149139	0.143002
N312	N	0.221444	0.100861	0.393002
C313	C	-0.552007	-0.677893	-0.309695
C314	C	-0.302007	-0.427893	-0.059695
C315	C	-0.052007	-0.177893	0.190305
C316	C	0.197993	0.072107	0.440305
C317	C	-0.978972	-0.620525	-0.404375
C318	C	-0.728972	-0.370525	-0.154375
C319	C	-0.478972	-0.120525	0.095625
C320	C	-0.228972	0.129475	0.345625
C321	C	-1.025890	-0.620537	-0.404381
C322	C	-0.775890	-0.370537	-0.154381
C323	C	-0.525890	-0.120537	0.095619
C324	C	-0.275890	0.129463	0.345619
C325	C	-1.025874	-0.678035	-0.309764
C326	C	-0.775874	-0.428035	-0.059764
C327	C	-0.525874	-0.178035	0.190236
C328	C	-0.275874	0.071965	0.440236
C329	C	-0.978956	-0.678020	-0.309755
C330	C	-0.728956	-0.428020	-0.059755
C331	C	-0.478956	-0.178020	0.190245
C332	C	-0.228956	0.071980	0.440245
C333	C	-0.955505	-0.649266	-0.357066
C334	C	-0.705505	-0.399266	-0.107066
C335	C	-0.455505	-0.149266	0.142934
C336	C	-0.205505	0.100734	0.392934
C337	C	-0.453482	-0.677857	-0.309678
C338	C	-0.203482	-0.427857	-0.059678
C339	C	0.046518	-0.177857	0.190322
C340	C	0.296518	0.072143	0.440322
C341	C	-0.406562	-0.677837	-0.309671
C342	C	-0.156562	-0.427837	-0.059671
C343	C	0.093438	-0.177837	0.190329
C344	C	0.343438	0.072163	0.440329
C345	C	-0.406582	-0.620341	-0.404290
C346	C	-0.156582	-0.370341	-0.154290
C347	C	0.093418	-0.120341	0.095710
C348	C	0.343418	0.129659	0.345710
C349	C	-0.453497	-0.620359	-0.404295
C350	C	-0.203497	-0.370359	-0.154295
C351	C	0.046503	-0.120359	0.095705
C352	C	0.296503	0.129641	0.345705
C353	C	-0.476946	-0.649121	-0.356987
C354	C	-0.226946	-0.399121	-0.106987
C355	C	0.023054	-0.149121	0.143013
C356	C	0.273054	0.100879	0.393013
O357	O	-0.527728	-0.595945	-0.444498
O358	O	-0.277728	-0.345945	-0.194498
O359	O	-0.027728	-0.095945	0.055502
O360	O	0.222272	0.154055	0.305502
O361	O	-0.527733	-0.702338	-0.269468
O362	O	-0.277733	-0.452338	-0.019468
O363	O	-0.027733	-0.202338	0.230532
O364	O	0.222267	0.047662	0.480532
C365	C	-0.739672	-0.677953	-0.309729
C366	C	-0.489672	-0.427953	-0.059729
C367	C	-0.239672	-0.177953	0.190271
C368	C	0.010328	0.072047	0.440271
C369	C	-0.763136	-0.649215	-0.357042
C370	C	-0.513136	-0.399215	-0.107042
C371	C	-0.263136	-0.149215	0.142958
C372	C	-0.013136	0.100785	0.392958
C373	C	-0.739685	-0.620461	-0.404346
C374	C	-0.489685	-0.370461	-0.154346
C375	C	-0.239685	-0.120461	0.095654
C376	C	0.010315	0.129539	0.345654
C377	C	-0.810054	-0.649227	-0.357048
C378	C	-0.560054	-0.399227	-0.107048
C379	C	-0.310054	-0.149227	0.142952
C380	C	-0.060054	0.100773	0.392952
C381	C	-0.833505	-0.677981	-0.309745
C382	C	-0.583505	-0.427981	-0.059745
C383	C	-0.333505	-0.177981	0.190255
C384	C	-0.083505	0.072019	0.440255
C385	C	-0.810038	-0.706723	-0.262436
C386	C	-0.560038	-0.456723	-0.012436
C387	C	-0.310038	-0.206723	0.237564
C388	C	-0.060038	0.043277	0.487564
C389	C	-0.763123	-0.706707	-0.262426
C390	C	-0.513123	-0.456707	-0.012426
C391	C	-0.263123	-0.206707	0.237574
C392	C	-0.013123	0.043293	0.487574
C393	C	-0.763151	-0.591719	-0.451654
C394	C	-0.513151	-0.341719	-0.201654
C395	C	-0.263151	-0.091719	0.048346
C396	C	-0.013151	0.158281	0.298346
C397	C	-0.810067	-0.591737	-0.451660
C398	C	-0.560067	-0.341737	-0.201660
C399	C	-0.310067	-0.091737	0.048340
C400	C	-0.060067	0.158263	0.298340
C401	C	-0.833518	-0.620491	-0.404356
C402	C	-0.583518	-0.370491	-0.154356
C403	C	-0.333518	-0.120491	0.095644
C404	C	-0.083518	0.129509	0.345644
C405	C	-0.099275	-0.649252	-0.357055
C406	C	0.150725	-0.399252	-0.107055
C407	C	0.400725	-0.149252	0.142945
C408	C	0.650725	0.100748	0.392945
C409	C	-0.049341	-0.649291	-0.357077
C410	C	0.200659	-0.399291	-0.107077
C411	C	0.450659	-0.149291	0.142923
C412	C	0.700659	0.100709	0.392923
C413	C	-0.216413	-0.649185	-0.550164
C414	C	0.033587	-0.399185	-0.300164
C415	C	0.283587	-0.149185	-0.050164
C416	C	0.533587	0.100815	0.199836
C417	C	-0.216395	-0.649196	-0.632478
C418	C	0.033605	-0.399196	-0.382478
C419	C	0.283605	-0.149196	-0.132478
C420	C	0.533605	0.100804	0.117522
C421	C	-0.216474	0.233664	-0.357049
C422	C	0.033526	0.483664	-0.107049
C423	C	0.283526	0.733664	0.142951
C424	C	0.533526	0.983664	0.392951
C425	C	-0.216489	0.183729	-0.357038
C426	C	0.033511	0.433729	-0.107038
C427	C	0.283511	0.683729	0.142962
C428	C	0.533511	0.933729	0.392962
C429	C	-0.216367	-0.649220	-0.931569
C430	C	0.033633	-0.399220	-0.681569
C431	C	0.283633	-0.149220	-0.431569
C432	C	0.533633	0.100780	-0.181569
C433	C	-0.181776	-0.684082	-0.900277
C434	C	0.068224	-0.434082	-0.650277
C435	C	0.318224	-0.184082	-0.400277
C436	C	0.568224	0.065918	-0.150277
C437	C	-0.181647	-0.683973	-0.814659
C438	C	0.068353	-0.433973	-0.564659
C439	C	0.318353	-0.183973	-0.314659
C440	C	0.568353	0.066027	-0.064659
C441	C	-0.216381	-0.649209	-0.783186
C442	C	0.033619	-0.399209	-0.533186
C443	C	0.283619	-0.149209	-0.283186
C444	C	0.533619	0.100791	-0.033186
C445	C	-0.203515	-0.601883	-0.814246
C446	C	0.046485	-0.351883	-0.564246
C447	C	0.296485	-0.101883	-0.314246
C448	C	0.546485	0.148117	-0.064246
C449	C	-0.203255	-0.602092	-0.899891
C450	C	0.046745	-0.352092	-0.649891
C451	C	0.296745	-0.102092	-0.399891
C452	C	0.546745	0.147908	-0.149891
C453	C	-0.263914	-0.661267	-0.899981
C454	C	-0.013914	-0.411267	-0.649981
C455	C	0.236086	-0.161267	-0.399981
C456	C	0.486086	0.088733	-0.149981
C457	C	-0.263672	-0.662306	-0.814331
C458	C	-0.013672	-0.412306	-0.564331
C459	C	0.236328	-0.162306	-0.314331
C460	C	0.486328	0.087694	-0.064331
C461	C	-0.216390	-0.649199	-0.699327
C462	C	0.033610	-0.399199	-0.449327
C463	C	0.283610	-0.149199	-0.199327
C464	C	0.533610	0.100801	0.050673
C465	C	-0.216358	-0.649227	-1.015428
C466	C	0.033642	-0.399227	-0.765428
C467	C	0.283642	-0.149227	-0.515428
C468	C	0.533642	0.100773	-0.265428
C469	C	-0.216462	-0.649157	-0.164591
C470	C	0.033538	-0.399157	0.085409
C471	C	0.283538	-0.149157	0.335409
C472	C	0.533538	0.100843	0.585409
C473	C	-0.216353	-0.649233	-0.082277
C474	C	0.033647	-0.399233	0.167723
C475	C	0.283647	-0.149233	0.417723
C476	C	0.533647	0.100767	0.667723
H477	H	-0.135507	-0.121564	-0.223966
H478	H	0.114493	0.128436	0.026034
H479	H	0.364493	0.378436	0.276034
H480	H	0.614493	0.628436	0.526034
Cl481	Cl	-1.055382	-0.584400	-0.463859
Cl482	Cl	-0.805382	-0.334400	-0.213859
Cl483	Cl	-0.555382	-0.084400	0.036141
Cl484	Cl	-0.305382	0.165600	0.286141
H485	H	-0.164302	0.179370	-0.271261
H486	H	0.085698	0.429370	-0.021261
H487	H	0.335698	0.679370	0.228739
H488	H	0.585698	0.929370	0.478739
H489	H	-0.168499	-0.591878	-0.919881
H490	H	0.081501	-0.341878	-0.669881
H491	H	0.331501	-0.091878	-0.419881
H492	H	0.581501	0.158122	-0.169881
Cl493	Cl	-0.377067	-0.713971	-0.250182
Cl494	Cl	-0.127067	-0.463971	-0.000182
Cl495	Cl	0.122933	-0.213971	0.249818
Cl496	Cl	0.372933	0.036029	0.499818
Cl497	Cl	-0.150447	-0.585827	-0.781155
Cl498	Cl	0.099553	-0.335827	-0.531155
Cl499	Cl	0.349553	-0.085827	-0.281155
Cl500	Cl	0.599553	0.164173	-0.031155
Cl501	Cl	-0.240454	-0.560621	-0.931849
Cl502	Cl	0.009546	-0.310621	-0.681849
Cl503	Cl	0.259546	-0.060621	-0.431849
Cl504	Cl	0.509546	0.189379	-0.181849
H505	H	-0.472568	-0.701278	-0.271157
H506	H	-0.222568	-0.451278	-0.021157
H507	H	0.027432	-0.201278	0.228843
H508	H	0.277432	0.048722	0.478843
H509	H	-0.603275	-0.730063	-0.223870
H510	H	-0.353275	-0.480063	0.026130
H511	H	-0.103275	-0.230063	0.276130
H512	H	0.146725	0.019937	0.526130
H513	H	-0.959882	-0.597109	-0.442902
H514	H	-0.709882	-0.347109	-0.192902
H515	H	-0.459882	-0.097109	0.057098
H516	H	-0.209882	0.152891	0.307098
H517	H	-0.297418	-0.121575	-0.490052
H518	H	-0.047418	0.128425	-0.240052
H519	H	0.202582	0.378425	0.009948
H520	H	0.452582	0.628425	0.259948
Cl521	Cl	-0.698765	-0.742829	-0.202932
Cl522	Cl	-0.448765	-0.492829	0.047068
Cl523	Cl	-0.198765	-0.242829	0.297068
Cl524	Cl	0.051235	0.007171	0.547068
H525	H	-0.289689	-0.635878	-0.920221
H526	H	-0.039689	-0.385878	-0.670221
H527	H	0.210311	-0.135878	-0.420221
H528	H	0.460311	0.114122	-0.170221
Cl529	Cl	-0.949463	-0.714152	-0.250270
Cl530	Cl	-0.699463	-0.464152	-0.000270
Cl531	Cl	-0.449463	-0.214152	0.249730
Cl532	Cl	-0.199463	0.035848	0.499730
Cl533	Cl	-0.122744	-0.272711	-0.203016
Cl534	Cl	0.127256	-0.022711	0.046984
Cl535	Cl	0.377256	0.227289	0.296984
Cl536	Cl	0.627256	0.477289	0.546984
H537	H	-0.603304	-0.568266	-0.490172
H538	H	-0.353304	-0.318266	-0.240172
H539	H	-0.103304	-0.068266	0.009828
H540	H	0.146696	0.181734	0.259828
H541	H	-0.135495	-0.177214	-0.223956
H542	H	0.114505	0.072786	0.026044
H543	H	0.364505	0.322786	0.276044
H544	H	0.614505	0.572786	0.526044
Cl545	Cl	-0.281373	-0.488533	-0.463641
Cl546	Cl	-0.031373	-0.238533	-0.213641
Cl547	Cl	0.218627	0.011467	0.036359
Cl548	Cl	0.468627	0.261467	0.286359
Cl549	Cl	-0.310160	-0.026067	-0.510998
Cl550	Cl	-0.060160	0.223933	-0.260998
Cl551	Cl	0.189840	0.473933	-0.010998
Cl552	Cl	0.439840	0.723933	0.239002
Cl553	Cl	-1.055364	-0.714182	-0.250296
Cl554	Cl	-0.805364	-0.464182	-0.000296
Cl555	Cl	-0.555364	-0.214182	0.249704
Cl556	Cl	-0.305364	0.035818	0.499704
H557	H	-0.164254	-0.393018	-0.271181
H558	H	0.085746	-0.143018	-0.021181
H559	H	0.335746	0.106982	0.228819
H560	H	0.585746	0.356982	0.478819
H561	H	-0.744021	-0.730110	-0.223896
H562	H	-0.494021	-0.480110	0.026104
H563	H	-0.244021	-0.230110	0.276104
H564	H	0.005979	0.019890	0.526104
Cl565	Cl	-0.151510	-0.488532	-0.250232
Cl566	Cl	0.098490	-0.238532	-0.000232
Cl567	Cl	0.348490	0.011468	0.249768
Cl568	Cl	0.598490	0.261468	0.499768
H569	H	-0.135513	-0.036458	-0.223977
H570	H	0.114487	0.213542	0.026023
H571	H	0.364487	0.463542	0.276023
H572	H	0.614487	0.713542	0.526023
Cl573	Cl	-0.127264	-0.671662	-0.783046
Cl574	Cl	0.122736	-0.421662	-0.533046
Cl575	Cl	0.372736	-0.171662	-0.283046
Cl576	Cl	0.622736	0.078338	-0.033046
H577	H	-0.268635	-0.393035	-0.442736
H578	H	-0.018635	-0.143035	-0.192736
H579	H	0.231365	0.106965	0.057264
H580	H	0.481365	0.356965	0.307264
Cl581	Cl	-0.310150	-0.272710	-0.510965
Cl582	Cl	-0.060150	-0.022710	-0.260965
Cl583	Cl	0.189850	0.227290	-0.010965
Cl584	Cl	0.439850	0.477290	0.239035
H585	H	-0.688412	-0.568284	-0.490180
H586	H	-0.438412	-0.318284	-0.240180
H587	H	-0.188412	-0.068284	0.009820
H588	H	0.061588	0.181716	0.259820
Cl589	Cl	-0.482996	-0.584219	-0.463765
Cl590	Cl	-0.232996	-0.334219	-0.213765
Cl591	Cl	0.017004	-0.084219	0.036235
Cl592	Cl	0.267004	0.165781	0.286235
Cl593	Cl	-0.377091	-0.584198	-0.463757
Cl594	Cl	-0.127091	-0.334198	-0.213757
Cl595	Cl	0.122909	-0.084198	0.036243
Cl596	Cl	0.372909	0.165802	0.286243
H597	H	-0.829140	-0.730134	-0.223917
H598	H	-0.579140	-0.480134	0.026083
H599	H	-0.329140	-0.230134	0.276083
H600	H	-0.079140	0.019866	0.526083
H601	H	-0.189705	-0.719066	-0.793661
H602	H	0.060295	-0.469066	-0.543661
H603	H	0.310295	-0.219066	-0.293661
H604	H	0.560295	0.030934	-0.043661
Cl605	Cl	-0.839559	-0.555602	-0.511150
Cl606	Cl	-0.589559	-0.305602	-0.261150
Cl607	Cl	-0.339559	-0.055602	-0.011150
Cl608	Cl	-0.089559	0.194398	0.238850
H609	H	-0.275629	-0.695171	-0.921635
H610	H	-0.025629	-0.445171	-0.671635
H611	H	0.224371	-0.195171	-0.421635
H612	H	0.474371	0.054829	-0.171635
Cl613	Cl	-0.281414	0.189764	-0.463753
Cl614	Cl	-0.031414	0.439764	-0.213753
Cl615	Cl	0.218586	0.689764	0.036247
Cl616	Cl	0.468586	0.939764	0.286247
Cl617	Cl	-0.733677	-0.555567	-0.511128
Cl618	Cl	-0.483677	-0.305567	-0.261128
Cl619	Cl	-0.233677	-0.055567	-0.011128
Cl620	Cl	0.016323	0.194433	0.238872
H621	H	-0.227934	-0.575204	-0.793856
H622	H	0.022066	-0.325204	-0.543856
H623	H	0.272066	-0.075204	-0.293856
H624	H	0.522066	0.174796	-0.043856
Cl625	Cl	-0.278652	-0.716078	-0.782997
Cl626	Cl	-0.028652	-0.466078	-0.532997
Cl627	Cl	0.221348	-0.216078	-0.282997
Cl628	Cl	0.471348	0.033922	-0.032997
Cl629	Cl	-0.310157	-0.166831	-0.510982
Cl630	Cl	-0.060157	0.083169	-0.260982
Cl631	Cl	0.189843	0.333169	-0.010982
Cl632	Cl	0.439843	0.583169	0.239018
H633	H	-0.268675	0.094252	-0.442799
H634	H	-0.018675	0.344252	-0.192799
H635	H	0.231325	0.594252	0.057201
H636	H	0.481325	0.844252	0.307201
Cl637	Cl	-0.194059	-0.738442	-0.932105
Cl638	Cl	0.055941	-0.488442	-0.682105
Cl639	Cl	0.305941	-0.238442	-0.432105
Cl640	Cl	0.555941	0.011558	-0.182105
Cl641	Cl	-0.127695	-0.671930	-0.933528
Cl642	Cl	0.122305	-0.421930	-0.683528
Cl643	Cl	0.372305	-0.171930	-0.433528
Cl644	Cl	0.622305	0.078070	-0.183528
H645	H	-0.164288	0.094262	-0.271256
H646	H	0.085712	0.344262	-0.021256
H647	H	0.335712	0.594262	0.228744
H648	H	0.585712	0.844262	0.478744
Cl649	Cl	-0.305604	-0.625950	-0.781259
Cl650	Cl	-0.055604	-0.375950	-0.531259
Cl651	Cl	0.194396	-0.125950	-0.281259
Cl652	Cl	0.444396	0.124050	-0.031259
