data_functionalizedCrystal
_audit_creation_method	'MofGen! by Chris Wilmer'
_symmetry_space_group_name_H-M	'P1'
_symmetry_Int_Tables_number	1
_symmetry_cell_setting	triclinic
loop_
_symmetry_equiv_pos_as_xyz
  x,y,z
_cell_length_a	12.759401
_cell_length_b	12.759400
_cell_length_c	12.759393
_cell_angle_alpha	89.970195
_cell_angle_beta	89.979062
_cell_angle_gamma	90.016169
loop_
_atom_site_label
_atom_site_type_symbol
_atom_site_fract_x
_atom_site_fract_y
_atom_site_fract_z
Zn1	Zn	1.606267	-0.418173	-0.594025
Zn2	Zn	1.606158	-0.593888	-0.418347
Zn3	Zn	1.430565	-0.418229	-0.418360
Zn4	Zn	1.430558	-0.593815	-0.593985
O5	O	1.518387	-0.506026	-0.506179
O6	O	1.753273	-0.441489	-0.570733
O7	O	1.582823	-0.570641	-0.271328
O8	O	1.453921	-0.271200	-0.441685
O9	O	1.753193	-0.570587	-0.441663
O10	O	1.583008	-0.271159	-0.570745
O11	O	1.453816	-0.441584	-0.271337
O12	O	1.283543	-0.441513	-0.441646
O13	O	1.453908	-0.570461	-0.741011
O14	O	1.283538	-0.570516	-0.570676
O15	O	1.583001	-0.441418	-0.741041
O16	O	1.582815	-0.740900	-0.441624
O17	O	1.453803	-0.740846	-0.570664
C18	C	1.245420	-0.506013	-0.506159
C19	C	1.128643	-0.506033	-0.506175
C20	C	1.073805	-0.573307	-0.573255
C21	C	0.964081	-0.573311	-0.573276
C22	C	0.964042	-0.438764	-0.439127
C23	C	1.073764	-0.438756	-0.439112
C24	C	1.518325	-0.778994	-0.506161
C25	C	1.518394	-0.895770	-0.506188
C26	C	1.585581	-0.950521	-0.573447
C27	C	1.585640	-1.060245	-0.573475
C28	C	1.451323	-1.060458	-0.438977
C29	C	1.451260	-0.950736	-0.438955
C30	C	1.792420	-0.506040	-0.506201
C31	C	1.909197	-0.506046	-0.506210
C32	C	1.518466	-0.505925	-0.780213
C33	C	1.518499	-0.505882	-0.896990
C34	C	1.518478	-0.231993	-0.506221
C35	C	1.518517	-0.115216	-0.506239
C36	C	1.585723	-0.438679	-0.951869
C37	C	1.585740	-0.438633	-1.061593
C38	C	1.451308	-0.573004	-1.061549
C39	C	1.451286	-0.573044	-0.951827
C40	C	1.518369	-0.506051	-0.233212
C41	C	1.518539	-0.505798	-0.116436
H42	H	1.118485	-0.628086	-0.627864
N43	N	1.378801	-0.645424	-1.120695
H44	H	1.389011	-0.635200	-1.198532
H45	H	1.395104	-0.720473	-1.101515
H46	H	0.919438	-0.628090	-0.627901
N47	N	1.657969	-0.891229	-0.645972
H48	H	1.706655	-0.845693	-0.603313
H49	H	1.700468	-0.942629	-0.688575
N50	N	1.378756	-0.645510	-0.892626
H51	H	1.336179	-0.688050	-0.944013
H52	H	1.421478	-0.694154	-0.847089
N53	N	1.658100	-1.119315	-0.646009
H54	H	1.615395	-1.164835	-0.694665
H55	H	1.700609	-1.067790	-0.688534
N56	N	0.904843	-0.366233	-0.366775
H57	H	0.859336	-0.317600	-0.409545
H58	H	0.859360	-0.408975	-0.318045
N59	N	1.132920	-0.366179	-0.366771
H60	H	1.081507	-0.323563	-0.324287
H61	H	1.178419	-0.408874	-0.318070
N62	N	1.378789	-0.891674	-0.366410
H63	H	1.336275	-0.943141	-0.323815
H64	H	1.421555	-0.846147	-0.317820
N65	N	1.378927	-1.119742	-0.366454
H66	H	1.389165	-1.197559	-0.376667
H67	H	1.395314	-1.100597	-0.291433
N68	N	1.658234	-0.366138	-1.120785
H69	H	1.700803	-0.323597	-1.069393
H70	H	1.706849	-0.408881	-1.166319
N71	N	1.658212	-0.366243	-0.892720
H72	H	1.700799	-0.323662	-0.944140
H73	H	1.615455	-0.317636	-0.847195
