data_functionalizedCrystal
_audit_creation_method	'MofGen! by Chris Wilmer'
_symmetry_space_group_name_H-M	'P1'
_symmetry_Int_Tables_number	1
_symmetry_cell_setting	triclinic
loop_
_symmetry_equiv_pos_as_xyz
  x,y,z
_cell_length_a	6.394989
_cell_length_b	17.699083
_cell_length_c	16.776229
_cell_angle_alpha	90.001114
_cell_angle_beta	90.003593
_cell_angle_gamma	84.890363
loop_
_atom_site_label
_atom_site_type_symbol
_atom_site_fract_x
_atom_site_fract_y
_atom_site_fract_z
O1	O	-0.264131	-1.006774	-0.066171
O2	O	0.235869	-0.506774	0.433829
O3	O	-0.298495	-0.786746	-0.066197
O4	O	0.201505	-0.286746	0.433803
O5	O	0.022767	-0.899883	-0.066184
O6	O	0.522767	-0.399883	0.433816
O7	O	-0.585393	-0.893637	-0.066184
O8	O	-0.085393	-0.393637	0.433816
O9	O	0.022786	-0.899868	0.066392
O10	O	0.522786	-0.399868	0.566392
O11	O	-0.298476	-0.786731	0.066380
O12	O	0.201524	-0.286731	0.566380
O13	O	-0.264112	-1.006758	0.066405
O14	O	0.235888	-0.506758	0.566405
Zn15	Zn	-0.281290	-0.896742	0.087442
Zn16	Zn	0.218710	-0.396742	0.587442
Zn17	Zn	-0.281316	-0.896763	-0.087233
Zn18	Zn	0.218684	-0.396763	0.412767
O19	O	-0.585374	-0.893621	0.066393
O20	O	-0.085374	-0.393621	0.566393
C21	C	-0.297254	-0.758529	0.000088
C22	C	0.202746	-0.258529	0.500088
C23	C	-0.293560	-0.674473	0.000078
C24	C	0.206440	-0.174473	0.500078
C25	C	-0.265353	-1.034976	0.000119
C26	C	0.234647	-0.534976	0.500119
C27	C	-0.269047	-1.119031	0.000123
C28	C	0.230953	-0.619031	0.500123
N29	N	-0.281271	-0.896733	0.206653
N30	N	0.218729	-0.396733	0.706653
C31	C	0.100592	-0.898640	0.000101
C32	C	0.600592	-0.398640	0.500101
C33	C	0.336808	-0.894866	0.000100
C34	C	0.836808	-0.394866	0.500100
N35	N	-0.281319	-0.896777	-0.206444
N36	N	0.218681	-0.396777	0.293556
C37	C	-0.482134	-0.627777	0.000079
C38	C	0.017866	-0.127777	0.500079
C39	C	-0.478651	-0.548798	0.000089
C40	C	0.021349	-0.048798	0.500089
C41	C	-0.286591	-0.516517	0.000093
C42	C	0.213409	-0.016517	0.500093
C43	C	-0.098003	-0.563220	0.000095
C44	C	0.401997	-0.063220	0.500095
C45	C	-0.101488	-0.642197	0.000091
C46	C	0.398512	-0.142197	0.500091
C47	C	-0.083942	-0.244713	0.000115
C48	C	0.416058	0.255287	0.500115
C49	C	-0.080470	-0.165730	0.000117
C50	C	0.419530	0.334270	0.500117
C51	C	-0.461104	-0.151314	0.000113
C52	C	0.038896	0.348686	0.500113
C53	C	-0.464590	-0.230291	0.000109
C54	C	0.035410	0.269709	0.500109
C55	C	-0.276002	-0.276987	0.000115
C56	C	0.223998	0.223013	0.500115
C57	C	-0.279782	-0.362625	0.000105
C58	C	0.220218	0.137375	0.500105
C59	C	-0.282810	-0.430881	0.000097
C60	C	0.217190	0.069119	0.500097
C61	C	-0.139075	-0.946847	0.248376
C62	C	0.360925	-0.446847	0.748376
C63	C	-0.139073	-0.946851	0.331828
C64	C	0.360927	-0.446851	0.831828
C65	C	-0.281280	-0.896745	0.373556
C66	C	0.218720	-0.396745	0.873556
C67	C	-0.423483	-0.846626	0.331828
C68	C	0.076517	-0.346626	0.831828
C69	C	-0.423473	-0.846619	0.248377
C70	C	0.076527	-0.346619	0.748377
C71	C	-0.423524	-0.846654	0.668375
C72	C	0.076476	-0.346654	1.168375
C73	C	-0.423527	-0.846667	0.751831
C74	C	0.076473	-0.346667	1.251831
C75	C	-0.139124	-0.946886	0.751826
C76	C	0.360876	-0.446886	1.251826
C77	C	-0.139114	-0.946879	0.668375
C78	C	0.360886	-0.446879	1.168375
C79	C	-0.281309	-0.896758	0.626654
C80	C	0.218691	-0.396758	1.126654
C81	C	-0.281307	-0.896753	0.536166
C82	C	0.218693	-0.396753	1.036166
C83	C	-0.281294	-0.896753	0.464043
C84	C	0.218706	-0.396753	0.964043
H85	H	-0.638531	-0.654053	0.000075
H86	H	-0.138531	-0.154053	0.500075
H87	H	-0.539263	-0.805825	0.365808
H88	H	-0.039263	-0.305825	0.865808
H89	H	-0.539333	-0.805862	0.785805
H90	H	-0.039333	-0.305862	1.285805
F91	F	0.012274	-1.000181	0.203974
F92	F	0.512274	-0.500181	0.703974
H93	H	0.052069	-0.680217	0.000090
H94	H	0.552069	-0.180217	0.500090
F95	F	-0.661818	-0.101610	0.000110
F96	F	-0.161818	0.398390	0.500110
F97	F	-0.574862	-0.793314	0.623979
F98	F	-0.074862	-0.293314	1.123979
F99	F	0.116771	-0.294400	0.000122
F100	F	0.616771	0.205600	0.500122
F101	F	0.123956	-0.131376	0.000122
F102	F	0.623956	0.368624	0.500122
F103	F	-0.669005	-0.264642	0.000100
F104	F	-0.169005	0.235358	0.500100
F105	F	0.012233	-1.000210	0.623969
F106	F	0.512233	-0.500210	1.123969
F107	F	-0.679358	-0.499103	0.000086
F108	F	-0.179358	0.000897	0.500086
F109	F	0.106403	-0.528862	0.000105
F110	F	0.606403	-0.028862	0.500105
F111	F	0.012222	-1.000228	0.796235
F112	F	0.512222	-0.500228	1.296235
H113	H	-0.023285	-0.987656	0.365798
H114	H	0.476715	-0.487656	0.865798
H115	H	-0.539261	-0.805811	0.214407
H116	H	-0.039261	-0.305811	0.714407
