data_functionalizedCrystal
_audit_creation_method	'MofGen! by Chris Wilmer'
_symmetry_space_group_name_H-M	'P1'
_symmetry_Int_Tables_number	1
_symmetry_cell_setting	triclinic
loop_
_symmetry_equiv_pos_as_xyz
  x,y,z
_cell_length_a	11.026607
_cell_length_b	15.995292
_cell_length_c	10.065875
_cell_angle_alpha	98.790453
_cell_angle_beta	79.302338
_cell_angle_gamma	96.027316
loop_
_atom_site_label
_atom_site_type_symbol
_atom_site_fract_x
_atom_site_fract_y
_atom_site_fract_z
O1	O	1.627812	0.340985	-0.113471
O2	O	1.274519	0.301061	-0.113476
O3	O	1.460860	0.200593	-0.113475
O4	O	1.441471	0.441453	-0.113472
O5	O	1.425327	0.219849	0.113513
O6	O	1.238986	0.320317	0.113513
O7	O	1.592279	0.360241	0.113517
Zn8	Zn	1.409991	0.343336	0.149555
Zn9	Zn	1.456807	0.317966	-0.149513
O10	O	1.405938	0.460709	0.113517
C11	C	1.211544	0.303323	0.000018
C12	C	1.076837	0.281367	0.000016
C13	C	1.442305	0.178906	0.000015
C14	C	1.439941	0.085596	0.000005
C15	C	1.003013	0.341992	0.000016
C16	C	0.863786	0.319300	0.000014
C17	C	1.431242	-0.253452	0.000018
C18	C	1.565658	-0.209824	0.000526
C19	C	1.568295	-0.112807	0.000010
C20	C	1.435558	-0.085246	0.000012
C21	C	1.388607	-0.135479	-0.129606
C22	C	1.387004	-0.232522	-0.129710
C23	C	1.343850	-0.210895	0.128419
C24	C	1.348567	-0.113507	0.130127
C25	C	1.437991	0.009816	0.000005
C26	C	1.428806	-0.348516	0.000016
C27	C	1.655255	0.357979	0.000021
C28	C	1.789963	0.379934	0.000014
C29	C	1.424493	0.482395	0.000023
C30	C	1.426859	0.575705	0.000025
N31	N	1.378049	0.360652	0.353660
N32	N	1.488758	0.300645	-0.353618
C33	C	1.445686	0.323984	0.421439
C34	C	1.421112	0.337318	0.578606
H35	H	1.042882	0.410695	0.000025
H36	H	1.635838	-0.094314	-0.093067
H37	H	1.345003	0.378583	0.636927
H38	H	1.289309	-0.262435	-0.135581
H39	H	1.564858	0.259373	0.588061
C40	C	0.810419	0.227729	-0.000060
C41	C	0.682944	0.223422	-0.000095
C42	C	0.633743	0.139082	-0.000183
H43	H	0.824538	0.207264	0.079072
H44	H	0.849387	0.193903	-0.079250
H45	H	0.643989	0.257236	0.079087
H46	H	0.668791	0.243870	-0.079222
H47	H	0.672711	0.105256	-0.079373
H48	H	0.647871	0.118624	0.078951
H49	H	0.547250	0.136147	-0.000219
C50	C	0.843354	0.471492	-0.000081
C51	C	0.970841	0.475795	-0.000125
C52	C	1.020070	0.560119	-0.000244
H53	H	0.804466	0.505393	0.079043
H54	H	0.829172	0.491869	-0.079279
H55	H	0.985013	0.455429	0.079065
H56	H	1.009761	0.441912	-0.079244
H57	H	1.005889	0.580496	-0.079442
H58	H	0.981174	0.594013	0.078882
H59	H	1.106577	0.563048	-0.000286
C60	C	1.023889	0.189702	-0.000201
C61	C	1.081639	0.140067	-0.116966
C62	C	1.032911	0.055618	-0.117203
H63	H	0.937391	0.186501	-0.000272
H64	H	1.038181	0.169281	0.078913
H65	H	1.067337	0.160482	-0.196059
H66	H	1.168133	0.143242	-0.116920
H67	H	1.047203	0.035197	-0.038090
H68	H	0.946415	0.052427	-0.117271
H69	H	1.072095	0.021929	-0.196420
H70	H	1.606413	-0.077962	0.092923
C71	C	1.393671	-0.068184	0.258154
C72	C	1.315393	-0.093926	0.373422
C73	C	1.356919	-0.052199	0.491380
H74	H	1.393076	-0.008614	0.260745
H75	H	1.475536	-0.082003	0.257398
H76	H	1.233549	-0.080101	0.374178
H77	H	1.315979	-0.153490	0.370876
H78	H	1.438785	-0.066018	0.490624
H79	H	1.356323	0.007370	0.493957
H80	H	1.303821	-0.069664	0.569602
C81	C	1.653808	-0.248683	-0.122552
C82	C	1.747404	-0.284292	-0.078250
C83	C	1.828617	-0.320105	-0.191593
H84	H	1.689667	-0.205921	-0.177036
H85	H	1.609547	-0.291597	-0.174997
H86	H	1.791660	-0.241382	-0.025828
H87	H	1.711582	-0.327064	-0.023782
H88	H	1.784356	-0.363020	-0.244038
H89	H	1.864467	-0.277339	-0.246069
H90	H	1.892125	-0.344277	-0.161550
H91	H	1.602948	-0.222122	0.093481
H92	H	1.244714	-0.239734	0.129294
H93	H	1.291684	-0.118743	-0.134423
H94	H	1.450402	-0.116563	-0.226069
H95	H	1.448741	-0.260539	-0.226603
H96	H	1.301946	0.401914	0.411986
H97	H	1.370826	-0.224265	0.226669
H98	H	1.521781	0.282715	0.363115
C99	C	1.217706	-0.088264	0.140352
C100	C	1.169586	-0.126991	0.024700
C101	C	1.049033	-0.103765	0.034068
H102	H	1.219097	-0.028372	0.145724
H103	H	1.167171	-0.106147	0.219782
H104	H	1.220107	-0.109103	-0.054708
H105	H	1.168164	-0.186882	0.019306
H106	H	0.998498	-0.121648	0.113498
H107	H	1.050436	-0.043873	0.039443
H108	H	1.016364	-0.130043	-0.044392
