data_functionalizedCrystal
_audit_creation_method	'MofGen! by Chris Wilmer'
_symmetry_space_group_name_H-M	'P1'
_symmetry_Int_Tables_number	1
_symmetry_cell_setting	triclinic
loop_
_symmetry_equiv_pos_as_xyz
  x,y,z
_cell_length_a	10.686220
_cell_length_b	18.101395
_cell_length_c	10.686551
_cell_angle_alpha	85.593544
_cell_angle_beta	90.308082
_cell_angle_gamma	94.412841
loop_
_atom_site_label
_atom_site_type_symbol
_atom_site_fract_x
_atom_site_fract_y
_atom_site_fract_z
Zn1	Zn	1.972201	-0.180552	-0.562382
Zn2	Zn	1.955907	-0.314596	-0.352620
Zn3	Zn	1.746310	-0.199497	-0.368699
Zn4	Zn	1.762338	-0.313095	-0.578398
O5	O	1.859189	-0.251935	-0.465525
O6	O	2.145585	-0.191033	-0.521125
O7	O	1.914577	-0.307884	-0.179207
O8	O	1.776386	-0.093345	-0.394418
O9	O	2.133614	-0.289514	-0.367014
O10	O	1.942347	-0.079426	-0.536716
O11	O	1.760587	-0.223322	-0.191020
O12	O	1.572891	-0.221866	-0.409948
O13	O	1.803703	-0.286956	-0.751819
O14	O	1.584666	-0.305327	-0.564013
O15	O	1.957888	-0.189578	-0.740052
O16	O	1.930118	-0.418036	-0.382544
O17	O	1.787904	-0.416933	-0.548422
C18	C	1.533261	-0.265490	-0.490464
C19	C	1.393831	-0.271305	-0.501162
C20	C	1.859018	-0.444354	-0.465501
C21	C	1.859063	-0.526665	-0.465524
C22	C	1.859343	-0.825742	-0.465570
C23	C	1.770109	-0.793732	-0.570159
C24	C	1.769626	-0.708148	-0.569891
C25	C	1.859204	-0.677366	-0.465548
C26	C	1.813255	-0.716429	-0.336079
C27	C	1.812677	-0.802072	-0.336708
C28	C	1.994649	-0.786916	-0.489270
C29	C	1.994091	-0.701157	-0.492229
C30	C	1.859127	-0.593511	-0.465527
C31	C	1.859417	-0.909597	-0.465582
C32	C	2.186389	-0.238328	-0.440489
C33	C	2.325822	-0.232529	-0.429821
C34	C	1.884401	-0.235986	-0.792725
C35	C	1.895145	-0.229190	-0.932159
C36	C	1.859396	-0.058762	-0.465574
C37	C	1.859485	0.023558	-0.465595
C38	C	1.834147	-0.267765	-0.139591
C39	C	1.823646	-0.274343	-0.000140
H40	H	1.345381	-0.308959	-0.570423
H41	H	1.754211	-0.318204	-0.951665
C42	C	1.854259	-0.725852	-0.114527
C43	C	1.897662	-0.690007	-0.228610
H44	H	1.906388	-0.709551	-0.048187
H45	H	1.770535	-0.714266	-0.100473
H46	H	1.856439	-0.778049	-0.117546
H47	H	1.895473	-0.637810	-0.225593
H48	H	1.981407	-0.701588	-0.242666
H49	H	1.799551	-0.681391	-0.666208
H50	H	1.799836	-0.808581	-0.666812
C51	C	2.150991	-0.620560	-0.604924
C52	C	2.040646	-0.665808	-0.620804
H53	H	2.179734	-0.598751	-0.684309
H54	H	2.134638	-0.582523	-0.552132
H55	H	2.213445	-0.649726	-0.567577
H56	H	1.978190	-0.636640	-0.658142
H57	H	2.056995	-0.703850	-0.673616
H58	H	1.670643	-0.820464	-0.555499
C59	C	1.460298	-0.224229	-0.249935
C60	C	1.391214	-0.181704	-0.336318
H61	H	1.500680	-0.192849	-0.192215
H62	H	1.405444	-0.260895	-0.205734
H63	H	1.521638	-0.247774	-0.293274
H64	H	1.329868	-0.158163	-0.292979
H65	H	1.446073	-0.145024	-0.380522
C66	C	1.553694	-0.752378	-0.537887
C67	C	1.634518	-0.687570	-0.549759
H68	H	1.470283	-0.739672	-0.525445
H69	H	1.557321	-0.777862	-0.612076
H70	H	1.578655	-0.783544	-0.468072
H71	H	1.609563	-0.656405	-0.619579
H72	H	1.630886	-0.662073	-0.475561
H73	H	1.964584	-0.185336	-0.980627
C74	C	1.676495	-0.913905	-0.308224
C75	C	1.678749	-0.836468	-0.308025
H76	H	1.593811	-0.935135	-0.290512
H77	H	1.701733	-0.926798	-0.388290
H78	H	1.732399	-0.932298	-0.245988
H79	H	1.622851	-0.818074	-0.370267
H80	H	1.653495	-0.823568	-0.227948
C81	C	1.960813	-0.856100	-0.670939
C82	C	2.048530	-0.807949	-0.613830
H83	H	1.994067	-0.869081	-0.747845
H84	H	1.943184	-0.899744	-0.616821
H85	H	1.885706	-0.832124	-0.686902
H86	H	2.123634	-0.831928	-0.597859
H87	H	2.066176	-0.764298	-0.667961
C88	C	2.143020	-0.732504	-0.331508
C89	C	2.089697	-0.672297	-0.395793
H90	H	2.202043	-0.714686	-0.271969
H91	H	2.078940	-0.764087	-0.289357
H92	H	2.184259	-0.759561	-0.389602
H93	H	2.048450	-0.645243	-0.337699
H94	H	2.153787	-0.640701	-0.437945
H95	H	1.874301	-0.823621	-0.256670
H96	H	1.715034	-0.700458	-0.314229
H97	H	2.061256	-0.807605	-0.412970
