data_functionalizedCrystal
_audit_creation_method	'MofGen! by Chris Wilmer'
_symmetry_space_group_name_H-M	'P1'
_symmetry_Int_Tables_number	1
_symmetry_cell_setting	triclinic
loop_
_symmetry_equiv_pos_as_xyz
  x,y,z
_cell_length_a	18.050582
_cell_length_b	14.908571
_cell_length_c	14.908178
_cell_angle_alpha	90.179240
_cell_angle_beta	86.678937
_cell_angle_gamma	93.308132
loop_
_atom_site_label
_atom_site_type_symbol
_atom_site_fract_x
_atom_site_fract_y
_atom_site_fract_z
Zn1	Zn	-0.463318	-1.353955	-0.437499
Zn2	Zn	-0.129984	-1.020621	-0.104166
Zn3	Zn	0.203349	-0.687288	0.229167
Zn4	Zn	-0.331566	-1.345195	-0.587860
Zn5	Zn	0.001767	-1.011862	-0.254527
Zn6	Zn	0.335100	-0.678528	0.078806
Zn7	Zn	-0.332425	-1.203601	-0.428824
Zn8	Zn	0.000908	-0.870268	-0.095491
Zn9	Zn	0.334242	-0.536934	0.237842
Zn10	Zn	-0.449003	-1.194895	-0.579133
Zn11	Zn	-0.115670	-0.861561	-0.245800
Zn12	Zn	0.217663	-0.528228	0.087533
O13	O	-0.394078	-1.274411	-0.508329
O14	O	-0.060745	-0.941078	-0.174996
O15	O	0.272589	-0.607745	0.158337
O16	O	-0.451472	-1.478618	-0.464728
O17	O	-0.118139	-1.145284	-0.131394
O18	O	0.215195	-0.811951	0.201939
O19	O	-0.227754	-1.326390	-0.566786
O20	O	0.105580	-0.993057	-0.233452
O21	O	0.438913	-0.659724	0.099881
O22	O	-0.356138	-1.230855	-0.304144
O23	O	-0.022805	-0.897522	0.029190
O24	O	0.310528	-0.564189	0.362523
O25	O	-0.354675	-1.472182	-0.575197
O26	O	-0.021341	-1.138849	-0.241864
O27	O	0.311992	-0.805515	0.091469
O28	O	-0.452304	-1.341320	-0.310517
O29	O	-0.118971	-1.007986	0.022816
O30	O	0.214362	-0.674653	0.356149
O31	O	-0.228384	-1.222362	-0.449943
O32	O	0.104949	-0.889028	-0.116609
O33	O	0.438282	-0.555695	0.216724
O34	O	-0.342258	-1.076621	-0.441480
O35	O	-0.008925	-0.743288	-0.108147
O36	O	0.324409	-0.409955	0.225186
O37	O	-0.554829	-1.216016	-0.560323
O38	O	-0.221496	-0.882683	-0.226990
O39	O	0.111838	-0.549350	0.106343
O40	O	-0.427908	-1.070225	-0.551912
O41	O	-0.094574	-0.736891	-0.218578
O42	O	0.238759	-0.403558	0.114755
O43	O	-0.565346	-1.332877	-0.456266
O44	O	-0.232012	-0.999544	-0.122932
O45	O	0.101321	-0.666211	0.210401
O46	O	-0.340795	-1.317948	-0.712534
O47	O	-0.007461	-0.984615	-0.379201
O48	O	0.325872	-0.651281	-0.045867
O49	O	-0.427075	-1.207523	-0.706122
O50	O	-0.093742	-0.874189	-0.372789
O51	O	0.239592	-0.540856	-0.039456
C52	C	-0.383623	-1.040798	-0.494808
C53	C	-0.050290	-0.707465	-0.161475
C54	C	0.283043	-0.374131	0.171858
C55	C	-0.379167	-0.940856	-0.489046
C56	C	-0.045834	-0.607523	-0.155712
C57	C	0.287500	-0.274189	0.177621
C58	C	-0.382306	-1.260864	-0.741956
C59	C	-0.048972	-0.927531	-0.408623
C60	C	0.284361	-0.594198	-0.075290
C61	C	-0.377298	-1.255151	-0.841908
C62	C	-0.043965	-0.921818	-0.508574
C63	C	0.289369	-0.588485	-0.175241
C64	C	-0.587788	-1.274453	-0.508289
C65	C	-0.254454	-0.941119	-0.174955
C66	C	0.078879	-0.607786	0.158378
C67	C	-0.670335	-1.274470	-0.508272
C68	C	-0.337002	-0.941137	-0.174938
C69	C	-0.003669	-0.607804	0.158395
C70	C	-0.913449	-1.210983	-0.564764
C71	C	-0.580116	-0.877650	-0.231430
C72	C	-0.246783	-0.544317	0.101903
C73	C	-0.867202	-1.193738	-0.481475
C74	C	-0.533869	-0.860404	-0.148142
C75	C	-0.200535	-0.527071	0.185191
C76	C	-0.967466	-1.274554	-0.508144
C77	C	-0.634132	-0.941221	-0.174810
C78	C	-0.300799	-0.607887	0.158523
C79	C	-0.866625	-1.291716	-0.591488
C80	C	-0.533291	-0.958382	-0.258155
C81	C	-0.199958	-0.625049	0.075179
C82	C	-0.821475	-1.274510	-0.508211
C83	C	-0.488142	-0.941177	-0.174877
C84	C	-0.154809	-0.607844	0.158456
C85	C	-0.922306	-1.257269	-0.424809
C86	C	-0.588973	-0.923936	-0.091476
C87	C	-0.255639	-0.590602	0.241857
C88	C	-0.921732	-1.355282	-0.534879
C89	C	-0.588399	-1.021949	-0.201546
C90	C	-0.255065	-0.688615	0.131787
C91	C	-0.875511	-1.338071	-0.451536
C92	C	-0.542178	-1.004738	-0.118203
C93	C	-0.208845	-0.671404	0.215130
C94	C	-1.051567	-1.274577	-0.508106
C95	C	-0.718234	-0.941243	-0.174773
C96	C	-0.384900	-0.607910	0.158560
C97	C	-0.737376	-1.274488	-0.508239
C98	C	-0.404043	-0.941155	-0.174906
C99	C	-0.070710	-0.607822	0.158428
C100	C	-0.201128	-1.274426	-0.508308
C101	C	0.132206	-0.941092	-0.174974
C102	C	0.465539	-0.607759	0.158359
C103	C	-0.118601	-1.274597	-0.508082
C104	C	0.214732	-0.941264	-0.174748
C105	C	0.548065	-0.607930	0.158585
C106	C	-0.404574	-1.508937	-0.521904
C107	C	-0.071241	-1.175604	-0.188570
C108	C	0.262092	-0.842270	0.144763
C109	C	-0.409047	-1.608878	-0.527688
C110	C	-0.075714	-1.275544	-0.194355
C111	C	0.257620	-0.942211	0.138978
C112	C	-0.459844	-0.746431	-0.593388
C113	C	-0.126510	-0.413098	-0.260054
C114	C	0.206823	-0.079765	0.073279
C115	C	-0.455659	-0.652527	-0.587976
C116	C	-0.122326	-0.319193	-0.254643
C117	C	0.211007	0.014140	0.078691
C118	C	-0.366618	-0.659140	-0.472807
C119	C	-0.033285	-0.325807	-0.139473
C120	C	0.300049	0.007526	0.193860
C121	C	-0.370803	-0.753045	-0.478218
C122	C	-0.037469	-0.419712	-0.144885
C123	C	0.295864	-0.086378	0.188448
C124	C	-0.417416	-0.796687	-0.538512
C125	C	-0.084083	-0.463354	-0.205178
C126	C	0.249251	-0.130020	0.128155
C127	C	-0.421596	-0.890593	-0.543927
C128	C	-0.088263	-0.557260	-0.210594
C129	C	0.245071	-0.223927	0.122739
C130	C	-0.332559	-0.897205	-0.428754
C131	C	0.000774	-0.563872	-0.095421
C132	C	0.334107	-0.230539	0.237912
C133	C	-0.328375	-0.803301	-0.423342
C134	C	0.004958	-0.469967	-0.090009
C135	C	0.338292	-0.136634	0.243324
C136	C	-0.468124	-1.359355	-1.036208
C137	C	-0.134790	-1.026021	-0.702875
C138	C	0.198543	-0.692688	-0.369542
C139	C	-0.463421	-1.353990	-1.130122
C140	C	-0.130088	-1.020656	-0.796788
C141	C	0.203246	-0.687323	-0.463455
C142	C	-0.363194	-1.239052	-1.123649
C143	C	-0.029861	-0.905719	-0.790316
C144	C	0.303472	-0.572386	-0.456982
C145	C	-0.367897	-1.244417	-1.029736
C146	C	-0.034564	-0.911084	-0.696402
C147	C	0.298770	-0.577751	-0.363069
C148	C	-0.420363	-1.304571	-0.986019
C149	C	-0.087029	-0.971238	-0.652686
C150	C	0.246304	-0.637905	-0.319352
C151	C	-0.425061	-1.309940	-0.892104
C152	C	-0.091728	-0.976607	-0.558771
C153	C	0.241605	-0.643274	-0.225437
C154	C	-0.324838	-1.194999	-0.885633
C155	C	0.008495	-0.861666	-0.552299
C156	C	0.341828	-0.528332	-0.218966
C157	C	-0.320136	-1.189634	-0.979546
C158	C	0.013198	-0.856301	-0.646213
C159	C	0.346531	-0.522968	-0.312880
C160	C	-0.405914	-1.288036	-0.273792
C161	C	-0.072580	-0.954702	0.059542
C162	C	0.260753	-0.621369	0.392875
C163	C	-0.410957	-1.293842	-0.173846
C164	C	-0.077624	-0.960508	0.159488
C165	C	0.255709	-0.627175	0.492821
H166	H	-0.843335	-1.125450	-0.458885
H167	H	-0.510002	-0.792116	-0.125552
H168	H	-0.176668	-0.458783	0.207781
N169	N	-0.954435	-1.237910	-0.331449
N170	N	-0.621101	-0.904577	0.001885
N171	N	-0.287768	-0.571243	0.335218
H172	H	-1.010365	-1.238019	-0.332004
H173	H	-0.677032	-0.904685	0.001329
H174	H	-0.343698	-0.571352	0.334663
H175	H	-0.934051	-1.177135	-0.311213
H176	H	-0.600718	-0.843802	0.022120
H177	H	-0.267384	-0.510468	0.355454
N178	N	-0.316345	-0.612058	-0.407783
N179	N	0.016988	-0.278725	-0.074450
N180	N	0.350321	0.054608	0.258883
H181	H	-0.290100	-0.658143	-0.373838
H182	H	0.043234	-0.324809	-0.040505
H183	H	0.376567	0.008524	0.292828
H184	H	-0.346993	-0.575520	-0.363975
H185	H	-0.013659	-0.242186	-0.030641
H186	H	0.319674	0.091147	0.302692
H187	H	-0.290426	-0.767755	-0.374251
H188	H	0.042908	-0.434421	-0.040918
H189	H	0.376241	-0.101088	0.292416
H190	H	-0.298010	-0.938134	-0.384072
H191	H	0.035323	-0.604800	-0.050739
H192	H	0.368657	-0.271467	0.282595
N193	N	-0.834361	-1.310968	-0.684812
N194	N	-0.501027	-0.977635	-0.351478
N195	N	-0.167694	-0.644301	-0.018145
H196	H	-0.875843	-1.319147	-0.727270
H197	H	-0.542510	-0.985813	-0.393937
H198	H	-0.209176	-0.652480	-0.060603
H199	H	-0.806299	-1.367598	-0.683729
H200	H	-0.472966	-1.034265	-0.350396
H201	H	-0.139632	-0.700931	-0.017063
N202	N	-0.471866	-0.937668	-0.608959
N203	N	-0.138532	-0.604335	-0.275625
N204	N	0.194801	-0.271002	0.057708
H205	H	-0.498109	-0.891578	-0.642899
H206	H	-0.164776	-0.558245	-0.309565
H207	H	0.168557	-0.224912	0.023768
H208	H	-0.509859	-0.978763	-0.574657
H209	H	-0.176526	-0.645429	-0.241324
H210	H	0.156808	-0.312096	0.092010
N211	N	-0.501418	-0.598320	-0.647164
N212	N	-0.168085	-0.264987	-0.313831
N213	N	0.165248	0.068346	0.019503
H214	H	-0.531580	-0.640220	-0.686179
H215	H	-0.198247	-0.306886	-0.352846
H216	H	0.135087	0.026447	-0.019513
H217	H	-0.467301	-0.556941	-0.686483
H218	H	-0.133967	-0.223608	-0.353149
H219	H	0.199366	0.109725	-0.019816
H220	H	-0.285946	-1.150393	-0.844758
H221	H	0.047387	-0.817060	-0.511424
H222	H	0.380721	-0.483727	-0.178091
H223	H	-0.510839	-1.408341	-1.000614
H224	H	-0.177505	-1.075007	-0.667281
H225	H	0.155828	-0.741674	-0.333947
H226	H	-0.502317	-1.398595	-1.170983
H227	H	-0.168983	-1.065262	-0.837649
H228	H	0.164350	-0.731929	-0.504316
N229	N	-0.853384	-1.409269	-0.388083
N230	N	-0.520051	-1.075936	-0.054749
N231	N	-0.186718	-0.742603	0.278584
H232	H	-0.873819	-1.396173	-0.325201
H233	H	-0.540486	-1.062839	0.008132
H234	H	-0.207153	-0.729506	0.341465
H235	H	-0.797393	-1.409188	-0.388915
H236	H	-0.464060	-1.075854	-0.055582
H237	H	-0.130727	-0.742521	0.277751
N238	N	-0.306607	-1.174181	-1.170809
N239	N	0.026726	-0.840848	-0.837475
N240	N	0.360059	-0.507515	-0.504142
H241	H	-0.310877	-1.179100	-1.237918
H242	H	0.022456	-0.845767	-0.904585
H243	H	0.355789	-0.512433	-0.571251
H244	H	-0.255029	-1.189169	-1.155232
H245	H	0.078304	-0.855835	-0.821898
H246	H	0.411637	-0.522502	-0.488565
N247	N	-0.953370	-1.445710	-0.564825
N248	N	-0.620036	-1.112377	-0.231492
N249	N	-0.286703	-0.779043	0.101841
H250	H	-0.933055	-1.458636	-0.627798
H251	H	-0.599722	-1.125302	-0.294465
H252	H	-0.266388	-0.791969	0.038869
H253	H	-1.009331	-1.445165	-0.563948
H254	H	-0.675997	-1.111832	-0.230615
H255	H	-0.342664	-0.778499	0.102718
N256	N	-0.263547	-1.124761	-1.026700
N257	N	0.069786	-0.791428	-0.693367
N258	N	0.403119	-0.458094	-0.360034
H259	H	-0.267813	-1.129675	-1.093810
H260	H	0.065520	-0.796342	-0.760477
H261	H	0.398853	-0.463009	-0.427144
H262	H	-0.211970	-1.139749	-1.011120
H263	H	0.121363	-0.806415	-0.677787
H264	H	0.454696	-0.473082	-0.344453
H265	H	-0.930296	-1.157207	-0.612550
H266	H	-0.596963	-0.823874	-0.279217
H267	H	-0.263629	-0.490540	0.054117
H268	H	-0.497794	-0.781965	-0.642486
H269	H	-0.164461	-0.448632	-0.309152
H270	H	0.168873	-0.115298	0.024181
N271	N	-0.481644	-1.374820	-0.844948
N272	N	-0.148310	-1.041486	-0.511615
N273	N	0.185023	-0.708153	-0.178282
H274	H	-0.511188	-1.408708	-0.890997
H275	H	-0.177854	-1.075374	-0.557664
H276	H	0.155479	-0.742041	-0.224331
H277	H	-0.516296	-1.340414	-0.803872
H278	H	-0.182962	-1.007081	-0.470539
H279	H	0.150371	-0.673747	-0.137206
