data_functionalizedCrystal
_audit_creation_method	'MofGen! by Chris Wilmer'
_symmetry_space_group_name_H-M	'P1'
_symmetry_Int_Tables_number	1
_symmetry_cell_setting	triclinic
loop_
_symmetry_equiv_pos_as_xyz
  x,y,z
_cell_length_a	11.026607
_cell_length_b	7.088899
_cell_length_c	8.559649
_cell_angle_alpha	82.341319
_cell_angle_beta	89.182341
_cell_angle_gamma	84.555439
loop_
_atom_site_label
_atom_site_type_symbol
_atom_site_fract_x
_atom_site_fract_y
_atom_site_fract_z
O1	O	1.539923	0.158970	0.634255
O2	O	1.193532	0.158975	0.560053
O3	O	1.397245	0.158970	0.373330
O4	O	1.336210	0.158975	0.820978
O5	O	1.416254	-0.159005	0.408078
O6	O	1.212541	-0.159001	0.594801
O7	O	1.558932	-0.159005	0.669003
Cu8	Cu	1.387472	-0.188037	0.635075
Cu9	Cu	1.364992	0.188006	0.593981
O10	O	1.355219	-0.159001	0.855726
C11	C	1.159101	-0.000012	0.563738
C12	C	1.028190	-0.000010	0.522931
C13	C	0.943884	-0.000008	0.635606
C14	C	0.808579	-0.000006	0.593432
N15	N	1.403293	-0.452525	0.663979
C16	C	1.593362	-0.000014	0.665317
C17	C	1.724273	-0.000003	0.706123
N18	N	1.349182	0.452495	0.565067
C19	C	1.411375	-0.000014	0.332504
C20	C	1.425142	-0.000004	0.159083
C21	C	1.341089	-0.000012	0.896551
C22	C	1.327321	-0.000010	1.069971
H23	H	0.971876	-0.000017	0.763293
H24	H	1.519431	-0.000020	0.102700
H25	H	1.233039	-0.000015	0.126349
H26	H	0.780591	0.000042	0.465732
C27	C	0.762072	-0.000000	0.878636
N28	N	0.790543	0.000006	1.008570
H29	H	1.000196	0.000037	0.395239
C30	C	1.273474	-0.437195	0.426530
N31	N	1.216478	-0.354108	0.322162
C32	C	1.479067	-0.562827	0.802445
N33	N	1.536143	-0.645919	0.906738
