data_functionalizedCrystal
_audit_creation_method	'MofGen! by Chris Wilmer'
_symmetry_space_group_name_H-M	'P1'
_symmetry_Int_Tables_number	1
_symmetry_cell_setting	triclinic
loop_
_symmetry_equiv_pos_as_xyz
  x,y,z
_cell_length_a	14.519709
_cell_length_b	14.519709
_cell_length_c	12.996460
_cell_angle_alpha	89.992910
_cell_angle_beta	90.000034
_cell_angle_gamma	83.680145
loop_
_atom_site_label
_atom_site_type_symbol
_atom_site_fract_x
_atom_site_fract_y
_atom_site_fract_z
O1	O	1.223869	0.120893	-0.085435
O2	O	1.473869	0.370893	0.164565
O3	O	1.723869	0.620893	0.414565
O4	O	1.973869	0.870893	0.664565
O5	O	0.955392	0.135129	-0.085467
O6	O	1.205392	0.385129	0.164533
O7	O	1.455392	0.635129	0.414533
O8	O	1.705392	0.885129	0.664533
O9	O	1.096749	-0.006227	-0.085441
O10	O	1.346749	0.243773	0.164559
O11	O	1.596749	0.493773	0.414559
O12	O	1.846749	0.743773	0.664559
O13	O	1.082512	0.262250	-0.085461
O14	O	1.332512	0.512250	0.164539
O15	O	1.582512	0.762250	0.414539
O16	O	1.832512	1.012250	0.664539
O17	O	1.096734	-0.006235	0.085693
O18	O	1.346734	0.243765	0.335693
O19	O	1.596734	0.493765	0.585693
O20	O	1.846734	0.743765	0.835693
O21	O	0.955377	0.135122	0.085667
O22	O	1.205377	0.385122	0.335667
O23	O	1.455377	0.635122	0.585667
O24	O	1.705377	0.885122	0.835667
O25	O	1.223854	0.120885	0.085699
O26	O	1.473854	0.370885	0.335699
O27	O	1.723854	0.620885	0.585699
O28	O	1.973854	0.870885	0.835699
Cu29	Cu	1.089614	0.128003	0.101309
Cu30	Cu	1.339614	0.378003	0.351309
Cu31	Cu	1.589614	0.628003	0.601309
Cu32	Cu	1.839614	0.878003	0.851309
Cu33	Cu	1.089632	0.128012	-0.101077
Cu34	Cu	1.339632	0.378012	0.148923
Cu35	Cu	1.589632	0.628012	0.398923
Cu36	Cu	1.839632	0.878012	0.648923
O37	O	1.082497	0.262242	0.085673
O38	O	1.332497	0.512242	0.335673
O39	O	1.582497	0.762242	0.585673
O40	O	1.832497	1.012242	0.835673
C41	C	1.096078	-0.040591	0.000126
C42	C	1.346078	0.209409	0.250126
C43	C	1.596078	0.459409	0.500126
C44	C	1.846078	0.709409	0.750126
C45	C	1.094090	-0.142972	0.000126
C46	C	1.344090	0.107028	0.250126
C47	C	1.594090	0.357028	0.500126
C48	C	1.844090	0.607028	0.750126
C49	C	0.921025	0.134462	0.000096
C50	C	1.171025	0.384462	0.250096
C51	C	1.421025	0.634462	0.500096
C52	C	1.671025	0.884462	0.750096
C53	C	0.818643	0.132474	0.000084
C54	C	1.068643	0.382474	0.250084
C55	C	1.318643	0.632474	0.500084
C56	C	1.568643	0.882474	0.750084
C57	C	1.086770	-0.517868	0.000099
C58	C	1.336770	-0.267868	0.250099
C59	C	1.586770	-0.017868	0.500099
C60	C	1.836770	0.232132	0.750099
C61	C	1.088803	-0.413560	0.000107
C62	C	1.338803	-0.163560	0.250107
C63	C	1.588803	0.086440	0.500107
C64	C	1.838803	0.336440	0.750107
C65	C	1.090430	-0.330423	0.000114
C66	C	1.340430	-0.080423	0.250114
C67	C	1.590430	0.169577	0.500114
C68	C	1.840430	0.419577	0.750114
C69	C	1.092463	-0.226109	0.000120
C70	C	1.342463	0.023891	0.250120
C71	C	1.592463	0.273891	0.500120
C72	C	1.842463	0.523891	0.750120
C73	C	0.443748	0.125154	0.000132
C74	C	0.693748	0.375154	0.250132
C75	C	0.943748	0.625154	0.500132
C76	C	1.193748	0.875154	0.750132
C77	C	0.548056	0.127187	0.000118
C78	C	0.798056	0.377187	0.250118
C79	C	1.048056	0.627187	0.500118
C80	C	1.298056	0.877187	0.750118
C81	C	0.631192	0.128814	0.000107
C82	C	0.881192	0.378814	0.250107
C83	C	1.131192	0.628814	0.500107
C84	C	1.381192	0.878814	0.750107
C85	C	0.735507	0.130847	0.000095
C86	C	0.985507	0.380847	0.250095
C87	C	1.235507	0.630847	0.500095
C88	C	1.485507	0.880847	0.750095
C89	C	1.258221	0.121553	0.000134
C90	C	1.508221	0.371553	0.250134
C91	C	1.758221	0.621553	0.500134
C92	C	2.008221	0.871553	0.750134
C93	C	1.360602	0.123541	0.000139
C94	C	1.610602	0.373541	0.250139
C95	C	1.860602	0.623541	0.500139
C96	C	2.110602	0.873541	0.750139
C97	C	1.083168	0.296605	0.000103
C98	C	1.333168	0.546605	0.250103
C99	C	1.583168	0.796605	0.500103
C100	C	1.833168	1.046605	0.750103
C101	C	1.085156	0.398987	0.000096
C102	C	1.335156	0.648987	0.250096
C103	C	1.585156	0.898987	0.500096
C104	C	1.835156	1.148987	0.750096
N105	N	1.089609	0.127996	0.243656
N106	N	1.339609	0.377996	0.493656
N107	N	1.589609	0.627996	0.743656
N108	N	1.839609	0.877996	0.993656
N109	N	1.089644	0.128012	-0.243424
N110	N	1.339644	0.378012	0.006576
N111	N	1.589644	0.628012	0.256576
N112	N	1.839644	0.878012	0.506576
C113	C	1.089630	0.128013	0.663470
C114	C	1.339630	0.378013	0.913470
C115	C	1.589630	0.628013	1.163470
C116	C	1.839630	0.878013	1.413470
C117	C	1.089622	0.128011	0.546665
C118	C	1.339622	0.378011	0.796665
C119	C	1.589622	0.628011	1.046665
C120	C	1.839622	0.878011	1.296665
C121	C	1.089620	0.128005	0.453567
C122	C	1.339620	0.378005	0.703567
C123	C	1.589620	0.628005	0.953567
C124	C	1.839620	0.878005	1.203567
C125	C	1.089610	0.128002	0.336754
C126	C	1.339610	0.378002	0.586754
C127	C	1.589610	0.628002	0.836754
C128	C	1.839610	0.878002	1.086754
