data_functionalizedCrystal
_audit_creation_method	'MofGen! by Chris Wilmer'
_symmetry_space_group_name_H-M	'P1'
_symmetry_Int_Tables_number	1
_symmetry_cell_setting	triclinic
loop_
_symmetry_equiv_pos_as_xyz
  x,y,z
_cell_length_a	21.606444
_cell_length_b	21.606444
_cell_length_c	21.606444
_cell_angle_alpha	59.999490
_cell_angle_beta	90.000833
_cell_angle_gamma	60.011779
loop_
_atom_site_label
_atom_site_type_symbol
_atom_site_fract_x
_atom_site_fract_y
_atom_site_fract_z
Zr1	Zr	0.596383	0.677374	-0.081190
O2	O	0.497587	0.806472	-0.180003
O3	O	0.626648	0.548275	-0.050906
O4	O	0.626673	0.677379	-0.180018
O5	O	0.497567	0.677364	0.050964
O6	O	0.728522	0.677384	-0.180021
O7	O	0.497562	0.677368	-0.050890
O8	O	0.728477	0.446440	0.050937
O9	O	0.497612	0.908308	-0.179994
O10	O	0.715591	0.601378	-0.037984
O11	O	0.639585	0.601372	0.038032
O12	O	0.639615	0.753375	-0.113981
O13	O	0.563609	0.753369	-0.037966
Zr14	Zr	0.758830	0.677374	0.081250
Zr15	Zr	0.758822	0.677381	-0.081196
Zr16	Zr	0.596392	0.677367	0.081256
Zr17	Zr	0.596423	0.839789	-0.081177
Zr18	Zr	0.758790	0.514958	0.081237
O19	O	0.728566	0.806472	0.050966
O20	O	0.728554	0.806482	-0.180011
O21	O	0.497599	0.806462	0.050974
O22	O	0.857626	0.548275	0.180063
O23	O	0.857614	0.548285	-0.050914
O24	O	0.626659	0.548265	0.180071
O25	O	0.857646	0.677384	-0.050903
O26	O	0.728541	0.677368	0.180078
O27	O	0.626691	0.677364	0.180082
O28	O	0.857651	0.677379	0.050951
O29	O	0.626729	0.908313	-0.179999
O30	O	0.728484	0.446434	0.180059
O31	O	0.857601	0.446440	0.180055
O32	O	0.857594	0.446445	0.050932
O33	O	0.497619	0.908302	-0.050872
O34	O	0.626736	0.908308	-0.050876
O35	O	0.715598	0.601372	0.114041
O36	O	0.791604	0.601378	0.038026
O37	O	0.715628	0.753375	-0.037971
O38	O	0.639623	0.753369	0.038044
C39	C	0.677557	0.474217	0.000014
C40	C	0.677540	0.405267	0.000008
C41	C	0.733763	-0.074201	0.056157
C42	C	0.733747	-0.009393	0.056150
C43	C	0.677637	0.079096	0.000039
C44	C	0.621545	0.102778	-0.056072
C45	C	0.621565	0.037970	-0.056067
C46	C	0.621464	0.364140	-0.056095
C47	C	0.621447	0.428948	-0.056095
C48	C	0.733646	0.316777	0.056121
C49	C	0.733666	0.251970	0.056126
C50	C	0.677576	0.275656	0.000014
C51	C	0.677595	0.205383	0.000022
C52	C	0.677614	0.149368	0.000033
C53	C	0.474421	0.677365	0.000037
C54	C	0.405461	0.677362	0.000040
C55	C	0.412721	0.598022	0.039707
C56	C	0.347923	0.598024	0.039708
C57	C	0.275867	0.677368	0.000036
C58	C	0.268610	0.756714	-0.039632
C59	C	0.333406	0.756711	-0.039628
C60	C	0.007291	0.756729	-0.039649
C61	C	-0.057507	0.756727	-0.039652
C62	C	0.021809	0.598043	0.039687
C63	C	0.086605	0.598039	0.039691
C64	C	0.079342	0.677385	0.000026
C65	C	0.149603	0.677382	0.000027
C66	C	0.205607	0.677372	0.000031
C67	C	0.880793	0.677382	0.000023
C68	C	0.949752	0.677385	0.000020
C69	C	0.677596	0.677382	-0.203165
C70	C	0.677593	0.677385	-0.272127
C71	C	0.677657	0.880531	0.000046
C72	C	0.677673	0.949480	0.000052
C73	C	0.637934	0.756726	-0.344196
C74	C	0.637940	0.756723	-0.408990
C75	C	0.677602	0.677380	-0.401715
C76	C	0.717266	0.598033	-0.329639
C77	C	0.717263	0.598037	-0.264846
C78	C	0.717278	0.598018	-0.590942
C79	C	0.717276	0.598021	-0.655743
C80	C	0.637955	0.756705	-0.735087
C81	C	0.637952	0.756708	-0.670293
C82	C	0.677619	0.677362	-0.598223
C83	C	0.677613	0.677366	-0.527966
C84	C	0.677604	0.677375	-0.471971
C85	C	0.677617	0.677365	0.203225
C86	C	0.677620	0.677362	0.272187
C87	C	0.880743	0.474225	0.000006
C88	C	0.949685	0.405279	-0.000002
C89	C	0.677567	0.474208	0.203208
C90	C	0.677554	0.405255	0.272165
C91	C	0.880753	0.474217	0.203201
C92	C	0.949699	0.405267	0.272155
C93	C	0.474460	0.880531	-0.203141
C94	C	0.405514	0.949480	-0.272095
C95	C	0.474471	0.880522	0.000054
C96	C	0.405528	0.949469	0.000062
C97	C	0.677646	0.880540	-0.203148
C98	C	0.677660	0.949492	-0.272105
C99	C	0.942383	0.372900	-0.039689
C100	C	1.007156	0.308127	-0.039711
C101	C	1.079230	0.275728	-0.000042
C102	C	1.086530	0.308112	0.039646
C103	C	1.021758	0.372889	0.039664
C104	C	0.717225	0.372874	0.344231
C105	C	0.717210	0.308095	0.409030
C106	C	0.677527	0.275693	0.401760
C107	C	0.637850	0.308081	0.329687
C108	C	0.637862	0.372863	0.264890
C109	C	1.021758	0.372891	0.264858
C110	C	1.086546	0.308114	0.329641
C111	C	1.079274	0.275711	0.401722
C112	C	1.007208	0.308093	0.409018
C113	C	0.942421	0.372873	0.344235
C114	C	0.333456	0.981864	-0.264798
C115	C	0.268667	1.046661	-0.329581
C116	C	0.275939	1.079068	-0.401662
C117	C	0.348006	1.046682	-0.408958
C118	C	0.412792	0.981890	-0.344175
C119	C	0.412830	0.981854	0.039742
C120	C	0.348058	1.046645	0.039747
C121	C	0.275984	1.079047	0.000076
C122	C	0.268683	1.046659	-0.039609
C123	C	0.333455	0.981873	-0.039618
C124	C	0.717351	0.981873	-0.264811
C125	C	0.717378	1.046653	-0.329598
C126	C	0.677710	1.079055	-0.401676
C127	C	0.638017	1.046667	-0.408968
C128	C	0.637995	0.981884	-0.344183
H129	H	0.575750	0.501004	-0.101787
H130	H	1.145220	0.281755	0.323687
F131	F	0.759479	0.513589	-0.321897
H132	H	-0.116180	0.821342	-0.071958
H133	H	0.001367	0.821338	-0.071960
F134	F	1.148233	0.206765	0.470664
H135	H	0.353841	0.533417	0.072010
H136	H	0.883703	0.399279	-0.072001
H137	H	0.779353	0.179919	0.101820
F138	F	0.595740	0.841153	-0.811795
F139	F	0.999480	0.273598	0.485738
F140	F	0.677522	0.206745	0.470731
H141	H	0.575862	0.174832	-0.101761
H142	H	0.353918	1.073076	-0.467653
H143	H	0.605653	0.821318	-0.676224
F144	F	0.191977	1.081115	-0.321800
H145	H	0.471389	0.533411	0.072016
F146	F	0.865732	0.407319	0.352013
F147	F	0.561763	0.389358	-0.115811
F148	F	0.595796	1.081166	-0.485686
F149	F	0.595741	0.947435	-0.351957
H150	H	0.749575	0.533406	-0.649811
H151	H	0.605632	0.821337	-0.350128
F152	F	0.759481	0.513592	-0.188143
F153	F	0.489481	0.947427	-0.351953
H154	H	1.131965	0.222981	-0.000062
H155	H	1.145221	0.281724	0.071943
H156	H	0.605559	0.399219	0.206213
F157	F	0.561869	0.063178	-0.115784
F158	F	0.325672	0.947409	-0.081849
F159	F	0.999370	0.273670	-0.081952
H160	H	0.209992	1.073050	-0.071909
F161	F	1.029541	0.407337	0.081911
H162	H	0.145274	0.533429	0.071993
F163	F	0.793481	-0.168377	0.115882
F164	F	0.759468	0.407344	0.351985
F165	F	0.029535	0.513595	0.081905
F166	F	0.489531	0.947384	0.081967
F167	F	0.759443	0.273636	0.485728
F168	F	0.325699	0.947384	-0.188090
F169	F	0.759470	0.513571	-0.514247
H170	H	0.327491	0.821318	-0.071920
F171	F	0.793443	-0.034603	0.115866
F172	F	0.595619	0.273587	0.321962
H173	H	1.027693	0.399264	0.206172
H174	H	0.223180	1.131825	-0.454406
F175	F	0.355843	1.081100	0.081990
H176	H	0.779318	0.297497	0.101809
F177	F	0.759575	0.947400	-0.188106
F178	F	0.207054	1.147998	0.000093
H179	H	0.209936	0.821317	-0.071929
F180	F	0.759622	1.081114	-0.321821
H181	H	0.677734	1.131806	-0.454423
H182	H	0.605648	0.821330	-0.467670
