data_functionalizedCrystal
_audit_creation_method	'MofGen! by Chris Wilmer'
_symmetry_space_group_name_H-M	'P1'
_symmetry_Int_Tables_number	1
_symmetry_cell_setting	triclinic
loop_
_symmetry_equiv_pos_as_xyz
  x,y,z
_cell_length_a	16.109301
_cell_length_b	11.026607
_cell_length_c	15.186229
_cell_angle_alpha	90.002180
_cell_angle_beta	90.001245
_cell_angle_gamma	96.023749
loop_
_atom_site_label
_atom_site_type_symbol
_atom_site_fract_x
_atom_site_fract_y
_atom_site_fract_z
O1	O	1.126504	0.155972	0.073169
O2	O	0.887351	0.175383	0.073183
O3	O	0.987106	-0.010968	0.073174
O4	O	1.026748	0.342323	0.073178
O5	O	0.987096	-0.010972	-0.073283
O6	O	0.887340	0.175378	-0.073274
O7	O	1.126493	0.155968	-0.073288
Zn8	Zn	1.006915	0.165673	-0.096534
Zn9	Zn	1.006929	0.165678	0.096429
O10	O	1.026738	0.342318	-0.073279
C11	C	0.856253	0.174594	-0.000044
C12	C	0.763604	0.172237	-0.000039
C13	C	0.979788	-0.056178	-0.000053
C14	C	0.957987	-0.190883	-0.000049
C15	C	0.557080	0.277333	-0.000048
C16	C	0.470027	0.275108	-0.000053
C17	C	0.456769	0.054010	-0.000052
C18	C	0.543821	0.056235	-0.000053
C19	C	0.593975	0.167900	-0.000046
C20	C	0.419869	0.163450	-0.000051
C21	C	0.325481	0.161038	-0.000057
C22	C	0.688369	0.170314	-0.000042
C23	C	1.018183	-0.264713	-0.000051
C24	C	0.995652	-0.403938	-0.000046
C25	C	1.157591	0.156756	-0.000059
C26	C	1.250240	0.159114	-0.000059
C27	C	1.034056	0.387529	-0.000050
C28	C	1.055857	0.522234	-0.000049
N29	N	1.006912	0.165668	-0.228227
C30	C	1.051110	0.083179	-0.546149
C31	C	1.051108	0.083180	-0.453960
C32	C	0.962737	0.248170	-0.453962
C33	C	0.962745	0.248175	-0.546150
C34	C	1.006929	0.165672	-0.592241
C35	C	1.006920	0.165669	-0.407864
C36	C	1.006917	0.165670	-0.307908
C37	C	1.006934	0.165673	-0.692204
N38	N	1.006938	0.165673	0.228122
H39	H	0.439992	0.364219	-0.000056
H40	H	0.926768	0.315357	-0.583681
C41	C	0.401597	-0.068816	-0.000050
C42	C	0.339920	-0.100755	-0.076097
C43	C	0.284749	-0.223583	-0.076091
C44	C	0.291254	-0.314471	-0.000038
C45	C	0.352933	-0.282533	0.076014
C46	C	0.408104	-0.159706	0.076008
H47	H	0.335103	-0.033473	-0.132400
H48	H	0.239090	-0.247225	-0.132390
H49	H	0.250413	-0.405395	-0.000034
H50	H	0.357751	-0.349816	0.132318
H51	H	0.453763	-0.136064	0.132308
H52	H	1.087090	0.016003	-0.583675
C53	C	0.914128	0.338911	-0.403261
C54	C	0.819148	0.336841	-0.415954
C55	C	0.770535	0.427582	-0.365256
C56	C	0.816901	0.520393	-0.301866
C57	C	0.911885	0.522467	-0.289171
C58	C	0.960499	0.431726	-0.339869
H59	H	0.784821	0.268133	-0.462881
H60	H	0.700220	0.426046	-0.374654
H61	H	0.780914	0.587565	-0.264337
H62	H	0.946213	0.591175	-0.242243
H63	H	1.030813	0.433262	-0.330470
H64	H	1.087086	0.016008	-0.416434
H65	H	0.573861	-0.032883	-0.000054
C66	C	0.865828	-0.244723	-0.000042
C67	C	0.831575	-0.327811	-0.076089
C68	C	0.739414	-0.381647	-0.076082
C69	C	0.681506	-0.352394	-0.000028
C70	C	0.715759	-0.269301	0.076025
C71	C	0.807920	-0.215466	0.076018
H72	H	0.874442	-0.349470	-0.132394
H73	H	0.714058	-0.443157	-0.132382
H74	H	0.613283	-0.392246	-0.000023
H75	H	0.672892	-0.247643	0.132330
H76	H	0.833276	-0.153955	0.132318
H77	H	0.597913	0.368257	-0.000049
H78	H	1.086399	-0.224848	-0.000060
H79	H	0.927432	-0.443797	-0.000037
H80	H	1.124077	-0.437909	0.000014
