data_functionalizedCrystal
_audit_creation_method	'MofGen! by Chris Wilmer'
_symmetry_space_group_name_H-M	'P1'
_symmetry_Int_Tables_number	1
_symmetry_cell_setting	triclinic
loop_
_symmetry_equiv_pos_as_xyz
  x,y,z
_cell_length_a	19.377625
_cell_length_b	19.375551
_cell_length_c	14.560438
_cell_angle_alpha	68.963044
_cell_angle_beta	75.509344
_cell_angle_gamma	64.080744
loop_
_atom_site_label
_atom_site_type_symbol
_atom_site_fract_x
_atom_site_fract_y
_atom_site_fract_z
Zr1	Zr	0.847138	0.619897	-0.196078
O2	O	0.763909	0.738057	-0.275650
O3	O	0.851443	0.501741	-0.191919
O4	O	0.882028	0.619897	-0.354344
O5	O	0.733324	0.619899	0.037915
O6	O	0.999328	0.619892	-0.393402
O7	O	0.733324	0.619901	-0.113225
O8	O	0.944617	0.408532	-0.102853
O9	O	0.788035	0.831260	-0.252634
O10	O	0.966443	0.550335	-0.194848
O11	O	0.878903	0.550337	-0.052904
O12	O	0.914913	0.689451	-0.244139
O13	O	0.827373	0.689454	-0.102196
Zr14	Zr	1.034218	0.619887	-0.017320
Zr15	Zr	1.034218	0.619890	-0.258371
Zr16	Zr	0.847137	0.619894	0.044973
Zr17	Zr	0.885616	0.768544	-0.159369
Zr18	Zr	0.995739	0.471240	-0.054029
O19	O	1.029913	0.738043	-0.021479
O20	O	1.029913	0.738047	-0.364224
O21	O	0.763909	0.738054	0.067094
O22	O	1.117446	0.501726	0.062252
O23	O	1.117447	0.501730	-0.280492
O24	O	0.851442	0.501737	0.150825
O25	O	1.148032	0.619885	-0.251313
O26	O	0.999327	0.619887	0.140946
O27	O	0.882027	0.619891	0.180004
O28	O	1.148031	0.619883	-0.100173
O29	O	0.936739	0.831254	-0.302149
O30	O	0.944616	0.408530	0.088751
O31	O	1.093320	0.408524	0.039236
O32	O	1.093320	0.408526	-0.152368
O33	O	0.788035	0.831258	-0.061030
O34	O	0.936739	0.831252	-0.110545
O35	O	0.966442	0.550333	0.030741
O36	O	1.053982	0.550330	-0.111202
O37	O	1.002453	0.689447	-0.160494
O38	O	0.914913	0.689449	-0.018550
C39	C	0.892547	0.433957	-0.152616
C40	C	0.876212	0.370853	-0.168200
C41	C	1.079410	-0.093403	0.025870
C42	C	1.064116	-0.152722	0.011197
C43	C	0.961444	-0.050082	-0.086948
C44	C	0.976732	0.009248	-0.072287
C45	C	1.035716	-0.012419	-0.015876
C46	C	0.933037	0.090231	-0.114034
C47	C	0.948322	0.149555	-0.099370
C48	C	1.007301	0.127896	-0.042960
C49	C	1.051000	0.046904	-0.001213
C50	C	0.874050	0.111896	-0.170439
C51	C	0.830355	0.192879	-0.212185
C52	C	0.845643	0.252205	-0.197528
C53	C	0.904622	0.230546	-0.141117
C54	C	0.801944	0.333196	-0.239275
C55	C	0.817229	0.392520	-0.224611
C56	C	0.919907	0.289870	-0.126453
C57	C	0.706669	0.619901	-0.028779
C58	C	0.627249	0.619904	-0.002334
C59	C	0.366030	0.619887	-0.331627
C60	C	0.291404	0.619884	-0.306745
C61	C	0.291425	0.619882	-0.140227
C62	C	0.366050	0.619890	-0.165096
C63	C	0.403347	0.619891	-0.260797
C64	C	0.403367	0.619893	-0.094267
C65	C	0.477988	0.619896	-0.119133
C66	C	0.515291	0.619895	-0.214828
C67	C	0.477967	0.619894	-0.285663
C68	C	0.366071	0.619886	0.001436
C69	C	0.403388	0.619890	0.072265
C70	C	0.478008	0.619898	0.047398
C71	C	0.515311	0.619898	-0.048298
C72	C	0.515331	0.619900	0.118233
C73	C	0.589952	0.619903	0.093367
C74	C	0.589931	0.619901	-0.073164
C75	C	1.174686	0.619883	-0.184619
C76	C	1.254107	0.619880	-0.211064
C77	C	0.940678	0.619895	-0.408218
C78	C	0.940678	0.619896	-0.510550
C79	C	0.988808	0.805826	-0.060782
C80	C	1.005143	0.868931	-0.045198
C81	C	0.913777	0.692512	-0.584355
C82	C	0.913778	0.692508	-0.680506
C83	C	0.967583	0.547266	-0.629035
C84	C	0.967586	0.547271	-0.532888
C85	C	0.882710	0.776367	-0.614072
C86	C	0.882711	0.776363	-0.710222
C87	C	0.940677	0.619889	0.194820
C88	C	0.940677	0.619888	0.297152
C89	C	1.126556	0.433948	-0.230536
C90	C	1.189642	0.370840	-0.272565
C91	C	0.892547	0.433954	0.148902
C92	C	0.876212	0.370849	0.235651
C93	C	1.126555	0.433945	0.070983
C94	C	1.189641	0.370836	0.131287
C95	C	0.754800	0.805839	-0.284381
C96	C	0.691715	0.868948	-0.344685
C97	C	0.754799	0.805836	0.017138
C98	C	0.691714	0.868943	0.059167
C99	C	0.988809	0.805830	-0.362301
C100	C	1.005144	0.868935	-0.449049
C101	C	1.173572	0.341207	-0.335974
C102	C	1.232843	0.281919	-0.375483
C103	C	1.308181	0.252261	-0.351576
C104	C	1.324250	0.281901	-0.288162
C105	C	1.264981	0.341192	-0.248660
C106	C	0.914235	0.341211	0.320062
C107	C	0.898885	0.281925	0.401584
C108	C	0.845516	0.252274	0.398691
C109	C	0.807488	0.281917	0.314272
C110	C	0.822834	0.341206	0.232755
C111	C	1.264969	0.341199	0.085510
C112	C	1.324254	0.281909	0.142162
C113	C	1.308207	0.252255	0.244590
C114	C	1.232872	0.281899	0.290368
C115	C	1.173590	0.341191	0.233717
C116	C	0.616388	0.898593	-0.298907
C117	C	0.557108	0.957900	-0.355554
C118	C	0.573156	0.987558	-0.457981
C119	C	0.648490	0.957910	-0.503760
C120	C	0.707769	0.898608	-0.447112
C121	C	0.707785	0.898583	0.122568
C122	C	0.648518	0.957888	0.162054
C123	C	0.573181	0.987547	0.138144
C124	C	0.557111	0.957905	0.074734
C125	C	0.616378	0.898606	0.035244
C126	C	1.058517	0.898568	-0.446128
C127	C	1.073881	0.957855	-0.527636
C128	C	1.035866	0.987511	-0.612062
C129	C	0.982490	0.957873	-0.614982
C130	C	0.967131	0.898583	-0.533478
H131	H	1.099034	0.029259	0.044718
C132	C	1.090705	0.373823	-0.362293
N133	N	1.028292	0.398391	-0.382127
H134	H	0.861605	0.063588	-0.182372
H135	H	0.769102	0.874471	-0.484398
C136	C	1.407126	0.249263	-0.261866
N137	N	1.469549	0.224674	-0.242054
C138	C	1.052769	1.052733	-0.701711
N139	N	1.065502	1.101860	-0.769231
C140	C	0.940708	0.990475	-0.707880
N141	N	0.909246	1.015026	-0.777858
H142	H	0.989502	0.488140	-0.472800
H143	H	1.356434	0.203982	-0.383747
C144	C	0.908404	0.866004	-0.536700
N145	N	0.864167	0.841471	-0.539132
H146	H	1.278075	0.365312	-0.197025
H147	H	0.920394	0.808565	-0.615915
H148	H	0.769123	0.874439	0.142052
H149	H	0.791871	0.365329	0.164026
H150	H	0.495772	0.982029	-0.318262
H151	H	0.782329	0.210510	-0.258111
C152	C	0.666210	0.990477	0.231811
N153	N	0.679537	1.015019	0.284353
H154	H	1.117343	0.981980	-0.525239
C155	C	1.282640	0.373812	-0.027160
N156	N	1.295957	0.398376	-0.112023
C157	C	0.997174	0.467383	-0.653614
N158	N	1.019460	0.407213	-0.672125
H159	H	0.305312	0.619880	0.021679
C160	C	1.215231	0.249264	0.403040
N161	N	1.201945	0.224676	0.487905
C162	C	0.597375	0.619901	-0.242182
N163	N	0.659201	0.619907	-0.262786
H164	H	0.833027	0.203997	0.465074
H165	H	0.821886	0.802390	-0.576423
H166	H	1.127444	-0.111048	0.071800
C167	C	0.598719	0.865986	-0.186235
N168	N	0.585405	0.841434	-0.101369
C169	C	0.507936	1.052786	-0.520284
N170	N	0.458808	1.101912	-0.567206
H171	H	1.099700	-0.218665	0.045199
H172	H	0.661548	0.982065	-0.587162
H173	H	1.112254	0.365314	0.271002
C174	C	0.940732	0.249321	0.494429
N175	N	0.972254	0.224763	0.564356
C176	C	0.748786	0.249287	0.311103
N177	N	0.704575	0.224704	0.308716
C178	C	0.518996	0.619901	-0.390942
N179	N	0.549900	0.619905	-0.470233
H180	H	0.957693	0.365347	0.322436
C181	C	0.896565	-0.026258	-0.149000
N182	N	0.847699	-0.008312	-0.195742
C183	C	0.474231	0.990528	0.048458
N184	N	0.411802	1.015095	0.028677
C185	C	1.024115	0.193155	-0.026830
N186	N	1.036781	0.242308	-0.014684
C187	C	0.737060	0.357018	-0.301318
N188	N	0.688190	0.374961	-0.348051
H189	H	1.219744	0.257794	-0.427114
C190	C	1.100348	0.865953	-0.353270
N191	N	1.131863	0.841386	-0.283335
C192	C	0.407058	0.619895	-0.436905
N193	N	0.437962	0.619898	-0.516197
H194	H	0.524929	1.035833	0.170306
H195	H	0.261050	0.619878	-0.062306
C196	C	0.769164	0.481606	-0.270537
N197	N	0.732959	0.548707	-0.305128
C198	C	0.362365	0.619857	0.177545
N199	N	0.331470	0.619823	0.256846
C200	C	0.250353	0.619894	-0.384676
N201	N	0.219432	0.619904	-0.443374
C202	C	0.474308	0.619862	0.223513
N203	N	0.443413	0.619822	0.302816
C204	C	0.938868	0.811478	-0.785996
N205	N	0.981176	0.837911	-0.843065
H206	H	1.385590	0.257780	0.104872
C207	C	1.373427	0.187026	0.306893
N208	N	1.422552	0.137892	0.353814
C209	C	0.630998	0.619919	0.171279
N210	N	0.661914	0.619933	0.229964
H211	H	0.821173	0.808556	-0.731202
H212	H	0.620297	0.619910	-0.151097
H213	H	0.967941	0.272225	-0.080523
H214	H	0.603281	0.874475	-0.016377
