data_functionalizedCrystal
_audit_creation_method	'MofGen! by Chris Wilmer'
_symmetry_space_group_name_H-M	'P1'
_symmetry_Int_Tables_number	1
_symmetry_cell_setting	triclinic
loop_
_symmetry_equiv_pos_as_xyz
  x,y,z
_cell_length_a	16.959455
_cell_length_b	16.959454
_cell_length_c	16.959447
_cell_angle_alpha	90.026736
_cell_angle_beta	90.019044
_cell_angle_gamma	90.018257
loop_
_atom_site_label
_atom_site_type_symbol
_atom_site_fract_x
_atom_site_fract_y
_atom_site_fract_z
Zn1	Zn	-1.208384	0.314704	-0.447028
Zn2	Zn	-1.208306	0.446897	-0.314858
Zn3	Zn	-1.076212	0.314732	-0.314855
Zn4	Zn	-1.076177	0.446840	-0.446985
O5	O	-1.142270	0.380793	-0.380931
O6	O	-1.318984	0.332252	-0.429514
O7	O	-1.190766	0.429400	-0.204246
O8	O	-1.093792	0.204117	-0.332404
O9	O	-1.318927	0.429373	-0.332409
O10	O	-1.190898	0.204097	-0.429511
O11	O	-1.093717	0.332299	-0.204244
O12	O	-0.965597	0.332244	-0.332363
O13	O	-1.093732	0.429277	-0.557602
O14	O	-0.965571	0.429304	-0.429439
O15	O	-1.190864	0.332197	-0.557633
O16	O	-1.190732	0.557500	-0.332368
O17	O	-1.093657	0.557459	-0.429442
C18	C	-0.936904	0.380772	-0.380896
C19	C	-0.849047	0.380781	-0.380900
C20	C	-0.807763	0.330174	-0.330436
C21	C	-0.807777	0.431393	-0.431372
C22	C	-0.725231	0.431401	-0.431380
C23	C	-0.683948	0.380794	-0.380917
C24	C	-0.725209	0.330179	-0.330445
C25	C	-0.683963	0.482010	-0.481857
C26	C	-0.601412	0.482019	-0.481868
C27	C	-0.560127	0.431416	-0.431400
C28	C	-0.601394	0.380799	-0.380925
C29	C	-0.560110	0.330192	-0.330461
C30	C	-0.601376	0.279579	-0.279982
C31	C	-0.683924	0.279575	-0.279977
C32	C	-0.477579	0.431419	-0.431405
C33	C	-0.477557	0.330197	-0.330470
C34	C	-1.142204	0.586160	-0.380918
C35	C	-1.142248	0.674016	-0.380939
C36	C	-1.142303	0.380728	-0.587100
C37	C	-1.142317	0.380700	-0.674956
C38	C	-0.348438	0.380812	-0.380957
C39	C	-0.436295	0.380812	-0.380942
C40	C	-1.142358	0.174625	-0.380962
C41	C	-1.142395	0.086768	-0.380975
C42	C	-1.091796	1.045500	-0.431472
C43	C	-1.192964	1.045483	-0.330471
C44	C	-1.192936	0.962937	-0.330464
C45	C	-1.142337	0.921669	-0.380961
C46	C	-1.091765	0.962947	-0.431465
C47	C	-1.243501	0.921654	-0.279955
C48	C	-1.243475	0.839103	-0.279945
C49	C	-1.192879	0.797833	-0.330446
C50	C	-1.142306	0.839116	-0.380953
C51	C	-1.091707	0.797847	-0.431450
C52	C	-1.041137	0.839128	-0.481962
C53	C	-1.041170	0.921677	-0.481966
C54	C	-1.192847	0.715284	-0.330442
C55	C	-1.091676	0.715294	-0.431443
C56	C	-1.091839	0.431162	-1.046418
C57	C	-1.192983	0.330072	-1.046446
C58	C	-1.192962	0.330088	-0.963900
C59	C	-1.142380	0.380643	-0.922609
C60	C	-1.091818	0.431182	-0.963865
C61	C	-1.243529	0.279557	-0.922639
C62	C	-1.243510	0.279572	-0.840088
C63	C	-1.192923	0.330124	-0.798795
C64	C	-1.142359	0.380663	-0.840056
C65	C	-1.091776	0.431218	-0.798765
C66	C	-1.041207	0.481755	-0.840024
C67	C	-1.041231	0.481733	-0.922573
C68	C	-1.192899	0.330145	-0.716247
C69	C	-1.091755	0.431238	-0.716212
C70	C	-1.142283	0.380801	-0.175565
C71	C	-1.142422	0.380607	-0.087709
H72	H	-0.717583	0.523209	-0.522944
H73	H	-1.000063	0.522880	-0.956173
H74	H	-0.567751	0.238371	-0.238898
H75	H	-1.284690	0.955260	-0.238837
H76	H	-1.234154	1.079089	-0.289354
C77	C	-1.299206	0.319208	-0.623428
C78	C	-1.248483	0.274604	-0.670897
H79	H	-1.333525	0.284915	-0.595437
H80	H	-1.269075	0.349306	-0.587025
H81	H	-1.329428	0.353644	-0.655634
H82	H	-1.218257	0.240172	-0.638691
H83	H	-1.278617	0.244492	-0.707304
C84	C	-1.002543	0.813650	-0.615768
C85	C	-0.985522	0.793761	-0.537469
H86	H	-0.968206	0.785642	-0.650034
H87	H	-1.055634	0.800076	-0.627375
H88	H	-0.995319	0.868721	-0.622999
H89	H	-0.992751	0.738690	-0.530237
H90	H	-0.932418	0.807329	-0.525858
H91	H	-1.050626	1.079115	-0.472600
H92	H	-1.284651	0.805497	-0.238817
H93	H	-0.717530	0.238368	-0.238880
H94	H	-1.234016	0.681677	-0.289312
H95	H	-0.443949	0.288987	-0.289374
H96	H	-0.567821	0.523233	-0.522970
H97	H	-1.284686	0.238422	-0.806502
C98	C	-0.452209	0.470058	-0.565193
C99	C	-0.432217	0.487040	-0.486891
H100	H	-0.424207	0.504401	-0.599448
H101	H	-0.438698	0.416968	-0.576833
H102	H	-0.507281	0.477301	-0.572402
H103	H	-0.377146	0.479791	-0.479680
H104	H	-0.445723	0.540143	-0.475247
C105	C	-1.053078	0.689832	-0.565250
C106	C	-1.036056	0.669935	-0.486954
H107	H	-1.018737	0.661832	-0.599519
H108	H	-1.106167	0.676254	-0.576860
H109	H	-1.045860	0.744905	-0.572474
H110	H	-1.043280	0.614863	-0.479729
H111	H	-0.982954	0.683508	-0.475340
C112	C	-0.833244	0.470045	-0.565151
C113	C	-0.853157	0.487014	-0.486842
H114	H	-0.861267	0.504382	-0.599396
H115	H	-0.778183	0.477300	-0.572374
H116	H	-0.846790	0.416946	-0.576794
H117	H	-0.839606	0.540112	-0.475197
H118	H	-0.908231	0.479766	-0.479615
H119	H	-1.050665	0.472305	-1.080015
C120	C	-1.231550	0.196228	-1.071898
C121	C	-1.248583	0.274505	-1.091830
H122	H	-1.265880	0.161923	-1.099917
H123	H	-1.178457	0.184659	-1.085430
H124	H	-1.238776	0.189014	-1.016829
H125	H	-1.241352	0.281721	-1.146899
H126	H	-1.301689	0.286078	-1.078304
C127	C	-0.991786	0.531171	-0.724477
C128	C	-1.036159	0.486819	-0.670828
H129	H	-0.957470	0.565488	-0.696457
H130	H	-0.961569	0.496721	-0.756671
H131	H	-1.026229	0.561393	-0.756678
H132	H	-1.001716	0.456592	-0.638631
H133	H	-1.066378	0.521273	-0.638620
H134	H	-0.999998	0.955295	-0.523089
H135	H	-1.284715	0.238403	-0.956263
H136	H	-1.000026	0.522920	-0.806395
H137	H	-0.841365	0.288969	-0.289335
