data_functionalizedCrystal
_audit_creation_method	'MofGen! by Chris Wilmer'
_symmetry_space_group_name_H-M	'P1'
_symmetry_Int_Tables_number	1
_symmetry_cell_setting	triclinic
loop_
_symmetry_equiv_pos_as_xyz
  x,y,z
_cell_length_a	10.654550
_cell_length_b	15.944551
_cell_length_c	9.730223
_cell_angle_alpha	89.997716
_cell_angle_beta	89.996251
_cell_angle_gamma	83.991820
loop_
_atom_site_label
_atom_site_type_symbol
_atom_site_fract_x
_atom_site_fract_y
_atom_site_fract_z
O1	O	1.666308	0.117973	-0.114406
O2	O	2.166308	0.617973	0.385594
O3	O	1.300684	0.129213	-0.114384
O4	O	1.800684	0.629213	0.385616
O5	O	1.493480	0.001376	-0.114384
O6	O	1.993480	0.501376	0.385616
O7	O	1.473511	0.245810	-0.114407
O8	O	1.973511	0.745810	0.385593
O9	O	1.493478	0.001379	0.114196
O10	O	1.993478	0.501379	0.614196
O11	O	1.300681	0.129216	0.114196
O12	O	1.800681	0.629216	0.614196
O13	O	1.666305	0.117976	0.114174
O14	O	2.166305	0.617976	0.614174
Zn15	Zn	1.483493	0.123597	0.150477
Zn16	Zn	1.983493	0.623597	0.650477
Zn17	Zn	1.483496	0.123592	-0.150687
Zn18	Zn	1.983496	0.623592	0.349313
O19	O	1.473509	0.245813	0.114173
O20	O	1.973509	0.745813	0.614173
C21	C	1.253895	0.128389	-0.000092
C22	C	1.753895	0.628389	0.499908
C23	C	1.114484	0.125920	-0.000083
C24	C	1.614484	0.625920	0.499917
C25	C	1.034024	0.201188	-0.000110
C26	C	1.534024	0.701188	0.499890
C27	C	0.903034	0.198863	-0.000134
C28	C	1.403034	0.698863	0.499866
C29	C	0.932975	0.045995	-0.000108
C30	C	1.432975	0.545995	0.499892
C31	C	1.063963	0.048321	-0.000075
C32	C	1.563963	0.548321	0.499925
C33	C	1.016737	0.289446	-0.000131
C34	C	1.516737	0.789446	0.499869
C35	C	0.885746	0.287121	-0.000154
C36	C	1.385746	0.787121	0.499846
C37	C	1.492650	-0.029921	-0.000093
C38	C	1.992650	0.470079	0.499907
C39	C	1.490165	-0.123182	-0.000092
C40	C	1.990165	0.376818	0.499908
C41	C	1.364720	-0.338765	-0.000104
C42	C	1.864720	0.161235	0.499896
C43	C	1.422971	-0.399443	0.112596
C44	C	1.922971	0.100557	0.612596
C45	C	1.485668	-0.293934	-0.000103
C46	C	1.985668	0.206066	0.499897
C47	C	1.423002	-0.399430	-0.112765
C48	C	1.923002	0.100570	0.387235
C49	C	1.481317	-0.458872	-0.000119
C50	C	1.981317	0.041128	0.499881
C51	C	1.543953	-0.353384	0.112691
C52	C	2.043953	0.146616	0.612691
C53	C	1.543967	-0.353364	-0.112772
C54	C	2.043967	0.146636	0.387228
C55	C	1.602306	-0.414024	-0.000045
C56	C	2.102306	0.085976	0.499955
C57	C	1.488172	-0.198917	-0.000092
C58	C	1.988172	0.301083	0.499908
C59	C	1.478822	-0.553887	-0.000119
C60	C	1.978822	-0.053887	0.499881
C61	C	1.713094	0.118800	-0.000122
C62	C	2.213094	0.618800	0.499878
C63	C	1.852505	0.121269	-0.000140
C64	C	2.352505	0.621269	0.499860
C65	C	1.474339	0.277110	-0.000120
C66	C	1.974339	0.777110	0.499880
C67	C	1.476824	0.370371	-0.000130
C68	C	1.976824	0.870371	0.499870
N69	N	1.483500	0.123599	0.356013
N70	N	1.983500	0.623599	0.856013
N71	N	1.483499	0.123583	-0.356224
N72	N	1.983499	0.623583	0.143776
C73	C	1.568892	0.067012	0.427939
C74	C	2.068892	0.567012	0.927939
C75	C	1.568889	0.067002	0.571822
C76	C	2.068889	0.567002	1.071822
C77	C	1.398098	0.180173	0.571840
C78	C	1.898098	0.680173	1.071840
C79	C	1.398096	0.180178	0.427959
C80	C	1.898096	0.680178	0.927959
C81	C	1.667501	0.001676	0.427931
C82	C	2.167501	0.501676	0.927931
C83	C	1.667498	0.001666	0.571814
C84	C	2.167498	0.501666	1.071814
H85	H	1.045621	0.323965	0.095532
H86	H	1.545621	0.823965	0.595532
H87	H	1.702787	-0.446602	0.000013
H88	H	2.202787	0.053398	0.500013
H89	H	1.371831	-0.419804	-0.208051
H90	H	1.871831	0.080196	0.291949
F91	F	1.233500	-0.295989	0.000044
F92	F	1.733500	0.204011	0.500044
F93	F	1.610777	-0.326665	-0.237324
F94	F	2.110777	0.173335	0.262676
F95	F	0.879195	-0.036588	-0.000099
F96	F	1.379195	0.463412	0.499901
H97	H	1.052030	0.317547	-0.098821
H98	H	1.552030	0.817547	0.401179
H99	H	0.839729	0.313795	0.098527
H100	H	1.339729	0.813795	0.598527
F101	F	1.793401	0.020470	0.622853
F102	F	2.293401	0.520470	1.122853
F103	F	1.610765	-0.326870	0.237363
F104	F	2.110765	0.173130	0.737363
H105	H	0.843584	0.320374	-0.095825
H106	H	1.343584	0.820374	0.404175
H107	H	1.371814	-0.419846	0.207881
H108	H	1.871814	0.080154	0.707881
F109	F	1.640565	-0.082708	0.376887
F110	F	2.140565	0.417292	0.876887
F111	F	1.786331	0.028424	0.369584
F112	F	2.286331	0.528424	0.869584
H113	H	1.328552	0.226248	0.369398
H114	H	1.828552	0.726248	0.869398
F115	F	1.628638	-0.078074	0.630147
F116	F	2.128638	0.421926	1.130147
F117	F	1.149591	-0.031790	-0.000019
F118	F	1.649591	0.468210	0.499981
F119	F	1.307208	0.240385	0.648421
F120	F	1.807208	0.740385	1.148421
