data_functionalizedCrystal
_audit_creation_method	'MofGen! by Chris Wilmer'
_symmetry_space_group_name_H-M	'P1'
_symmetry_Int_Tables_number	1
_symmetry_cell_setting	triclinic
loop_
_symmetry_equiv_pos_as_xyz
  x,y,z
_cell_length_a	16.109302
_cell_length_b	17.038272
_cell_length_c	14.586319
_cell_angle_alpha	89.995924
_cell_angle_beta	89.994552
_cell_angle_gamma	87.286668
loop_
_atom_site_label
_atom_site_type_symbol
_atom_site_fract_x
_atom_site_fract_y
_atom_site_fract_z
O1	O	1.110268	0.100498	-0.076283
O2	O	0.869094	0.113004	-0.076276
O3	O	0.988247	-0.007065	-0.076272
O4	O	0.991114	0.220566	-0.076287
O5	O	0.988238	-0.007067	0.076209
O6	O	0.869085	0.113002	0.076205
O7	O	1.110259	0.100496	0.076198
Cu8	Cu	0.989671	0.106749	0.090124
Cu9	Cu	0.989682	0.106751	-0.090202
O10	O	0.991105	0.220564	0.076194
C11	C	0.838079	0.112496	-0.000034
C12	C	0.745675	0.110977	-0.000032
C13	C	0.533080	0.107463	0.083077
C14	C	0.446258	0.106028	0.083074
C15	C	0.446279	0.106034	-0.083169
C16	C	0.533099	0.107464	-0.083165
C17	C	0.576498	0.108183	-0.000039
C18	C	0.402855	0.105317	-0.000046
C19	C	0.308719	0.103760	-0.000050
C20	C	0.670640	0.109738	-0.000035
C21	C	0.985636	-0.036194	-0.000032
C22	C	0.977856	-0.122987	-0.000032
C23	C	1.049277	-0.173101	-0.000033
C24	C	1.041963	-0.254652	-0.000041
C25	C	0.963227	-0.286086	-0.000042
C26	C	0.891801	-0.235965	-0.000044
C27	C	0.899116	-0.154416	-0.000042
C28	C	0.937385	-0.531844	-0.000054
C29	C	0.930075	-0.613399	-0.000053
C30	C	1.080238	-0.632080	-0.000052
C31	C	1.087546	-0.550529	-0.000045
C32	C	1.016120	-0.500415	-0.000051
C33	C	0.955749	-0.369444	-0.000048
C34	C	1.023599	-0.417059	-0.000052
C35	C	1.141274	0.101003	-0.000045
C36	C	1.233677	0.102523	-0.000054
C37	C	0.993717	0.249693	-0.000048
C38	C	1.001496	0.336486	-0.000054
N39	N	0.989670	0.106747	0.216956
N40	N	0.989689	0.106747	-0.217034
C41	C	1.042451	0.053598	0.451964
C42	C	1.042453	0.053596	0.547945
C43	C	0.936902	0.159898	0.547951
C44	C	0.936896	0.159895	0.451972
C45	C	0.989675	0.106746	0.403981
C46	C	0.989683	0.106747	0.595942
C47	C	0.989686	0.106745	0.700009
C48	C	0.989672	0.106747	0.299907
H49	H	0.568451	0.108047	-0.150852
H50	H	0.893932	0.203171	0.587035
H51	H	0.568412	0.108049	0.150763
H52	H	1.085426	0.010318	0.587011
C53	C	1.100497	-0.004869	0.399177
H54	H	1.131922	-0.036527	0.441504
H55	H	1.137093	0.023260	0.361723
H56	H	1.068278	-0.037426	0.361747
H57	H	0.410933	0.105449	-0.150847
H58	H	0.410911	0.105442	0.150755
C59	C	1.120526	-0.309775	-0.000033
H60	H	1.168465	-0.279374	-0.000019
H61	H	1.120806	-0.341973	-0.053206
H62	H	1.120784	-0.341977	0.053147
C63	C	1.135887	-0.138531	-0.000032
H64	H	1.177374	-0.180060	-0.000042
H65	H	1.141861	-0.107111	0.053141
H66	H	1.141864	-0.107104	-0.053212
C67	C	0.843463	-0.647975	-0.000070
H68	H	0.801971	-0.606450	-0.000085
H69	H	0.837476	-0.679404	0.053101
H70	H	0.837505	-0.679395	-0.053253
H71	H	0.893916	0.203175	0.412901
C72	C	1.174153	-0.515953	-0.000038
H73	H	1.168280	-0.460208	-0.000025
H74	H	1.203815	-0.533149	-0.053208
H75	H	1.203791	-0.533163	0.053146
C76	C	1.158801	-0.687203	-0.000055
H77	H	1.206740	-0.656801	-0.000049
H78	H	1.159073	-0.719400	-0.053229
H79	H	1.159068	-0.719406	0.053125
C80	C	0.858819	-0.476729	-0.000045
H81	H	0.810882	-0.507133	-0.000033
H82	H	0.858546	-0.444522	-0.053215
H83	H	0.858551	-0.444536	0.053138
H84	H	0.827693	-0.261565	-0.000050
C85	C	0.820554	-0.099290	-0.000038
H86	H	0.772614	-0.129689	-0.000031
H87	H	0.820290	-0.067086	-0.053211
H88	H	0.820282	-0.067094	0.053142
H89	H	1.087705	-0.391462	-0.000072
H90	H	0.891642	-0.395047	-0.000046
