data_functionalizedCrystal
_audit_creation_method	'MofGen! by Chris Wilmer'
_symmetry_space_group_name_H-M	'P1'
_symmetry_Int_Tables_number	1
_symmetry_cell_setting	triclinic
loop_
_symmetry_equiv_pos_as_xyz
  x,y,z
_cell_length_a	12.645330
_cell_length_b	16.959455
_cell_length_c	16.959447
_cell_angle_alpha	90.014322
_cell_angle_beta	89.973930
_cell_angle_gamma	89.985361
loop_
_atom_site_label
_atom_site_type_symbol
_atom_site_fract_x
_atom_site_fract_y
_atom_site_fract_z
Zn1	Zn	-0.422105	-1.208397	-0.446932
Zn2	Zn	0.077895	-0.708397	0.053068
Zn3	Zn	-0.599396	-1.208325	-0.314763
Zn4	Zn	-0.099396	-0.708325	0.185237
Zn5	Zn	-0.422138	-1.076225	-0.314770
Zn6	Zn	0.077862	-0.576225	0.185230
Zn7	Zn	-0.599317	-1.076195	-0.446902
Zn8	Zn	-0.099317	-0.576195	0.053098
O9	O	-0.510739	-1.142286	-0.380842
O10	O	-0.010739	-0.642286	0.119158
O11	O	-0.445642	-1.318998	-0.429410
O12	O	0.054358	-0.818998	0.070590
O13	O	-0.575930	-1.190784	-0.204153
O14	O	-0.075930	-0.690784	0.295847
O15	O	-0.273786	-1.093801	-0.332316
O16	O	0.226214	-0.593801	0.167684
O17	O	-0.575898	-1.318945	-0.332306
O18	O	-0.075898	-0.818945	0.167694
O19	O	-0.273762	-1.190907	-0.429416
O20	O	0.226238	-0.690907	0.070584
O21	O	-0.445699	-1.093731	-0.204158
O22	O	0.054301	-0.593731	0.295842
O23	O	-0.445622	-0.965610	-0.332287
O24	O	0.054378	-0.465610	0.167713
O25	O	-0.575763	-1.093750	-0.557517
O26	O	-0.075763	-0.593750	-0.057517
O27	O	-0.575795	-0.965589	-0.429364
O28	O	-0.075795	-0.465589	0.070636
O29	O	-0.445565	-1.190878	-0.557539
O30	O	0.054435	-0.690878	-0.057539
O31	O	-0.747733	-1.190755	-0.332277
O32	O	-0.247733	-0.690755	0.167723
O33	O	-0.747675	-1.093680	-0.429358
O34	O	-0.247675	-0.593680	0.070642
C35	C	-0.510704	-0.936919	-0.380824
C36	C	-0.010704	-0.436919	0.119176
C37	C	-0.510715	-0.849063	-0.380835
C38	C	-0.010715	-0.349063	0.119165
C39	C	-0.786169	-1.142228	-0.380831
C40	C	-0.286169	-0.642228	0.119169
C41	C	-0.903999	-1.142276	-0.380852
C42	C	-0.403999	-0.642276	0.119148
C43	C	-0.510651	-1.142319	-0.587010
C44	C	-0.010651	-0.642319	-0.087010
C45	C	-0.510614	-1.142333	-0.674867
C46	C	-0.010614	-0.642333	-0.174867
C47	C	-1.071570	-1.081458	-0.442115
C48	C	-0.571570	-0.581458	0.057885
C49	C	-0.949011	-1.081147	-0.441918
C50	C	-0.449011	-0.581147	0.058082
C51	C	-0.948594	-1.119734	-0.297551
C52	C	-0.448594	-0.619734	0.202449
C53	C	-1.071192	-1.119363	-0.297922
C54	C	-0.571192	-0.619363	0.202078
C55	C	-1.071094	-1.226007	-0.402216
C56	C	-0.571094	-0.726007	0.097784
C57	C	-0.948487	-1.225494	-0.404038
C58	C	-0.448487	-0.725494	0.095962
C59	C	-0.234234	-1.142365	-0.380870
C60	C	0.265766	-0.642365	0.119130
C61	C	-0.116404	-1.142399	-0.380882
C62	C	0.383596	-0.642399	0.119118
C63	C	-0.510775	-1.348454	-0.380860
C64	C	-0.010775	-0.848454	0.119140
C65	C	-0.510790	-1.436310	-0.380868
C66	C	-0.010790	-0.936310	0.119132
C67	C	-0.442903	-0.477574	-0.330399
C68	C	0.057097	0.022426	0.169601
C69	C	-0.578663	-0.477600	-0.431329
C70	C	-0.078663	0.022400	0.068671
C71	C	-0.578648	-0.560146	-0.431325
C72	C	-0.078648	-0.060146	0.068675
C73	C	-0.510760	-0.601410	-0.380855
C74	C	-0.010760	-0.101410	0.119145
C75	C	-0.442888	-0.560128	-0.330391
C76	C	0.057112	-0.060128	0.169609
C77	C	-0.646526	-0.601434	-0.481782
C78	C	-0.146526	-0.101434	0.018218
C79	C	-0.646515	-0.683985	-0.481779
C80	C	-0.146515	-0.183985	0.018221
C81	C	-0.578621	-0.725251	-0.431313
C82	C	-0.078621	-0.225251	0.068687
C83	C	-0.510745	-0.683963	-0.380847
C84	C	-0.010745	-0.183963	0.119153
C85	C	-0.442857	-0.725227	-0.330378
C86	C	0.057143	-0.225227	0.169622
C87	C	-0.374975	-0.683941	-0.279916
C88	C	0.125025	-0.183941	0.220084
C89	C	-0.374994	-0.601393	-0.279925
C90	C	0.125006	-0.101393	0.220075
C91	C	-0.578602	-0.807799	-0.431304
C92	C	-0.078602	-0.307799	0.068696
C93	C	-0.442842	-0.807781	-0.330370
C94	C	0.057158	-0.307781	0.169630
C95	C	-0.578290	-1.091857	-1.046333
C96	C	-0.078290	-0.591857	-0.546333
C97	C	-0.442715	-1.192997	-1.046352
C98	C	0.057285	-0.692997	-0.546352
C99	C	-0.442737	-1.192976	-0.963806
C100	C	0.057263	-0.692976	-0.463806
C101	C	-0.510538	-1.142395	-0.922520
C102	C	-0.010538	-0.642395	-0.422520
C103	C	-0.578317	-1.091836	-0.963780
C104	C	-0.078317	-0.591836	-0.463780
C105	C	-0.374967	-1.243540	-0.922539
C106	C	0.125033	-0.743540	-0.422539
C107	C	-0.374988	-1.243522	-0.839988
C108	C	0.125012	-0.743522	-0.339988
C109	C	-0.442784	-1.192937	-0.798701
C110	C	0.057216	-0.692937	-0.298701
C111	C	-0.510565	-1.142375	-0.839966
C112	C	-0.010565	-0.642375	-0.339966
C113	C	-0.578366	-1.091794	-0.798680
C114	C	-0.078366	-0.591794	-0.298680
C115	C	-0.646142	-1.041227	-0.839944
C116	C	-0.146142	-0.541227	-0.339944
C117	C	-0.646113	-1.041251	-0.922492
C118	C	-0.146113	-0.541251	-0.422492
C119	C	-0.442813	-1.192913	-0.716153
C120	C	0.057187	-0.692913	-0.216153
C121	C	-0.578393	-1.091773	-0.716127
C122	C	-0.078393	-0.591773	-0.216127
C123	C	-0.510750	-1.142298	-0.175475
C124	C	-0.010750	-0.642298	0.324525
C125	C	-0.510489	-1.142437	-0.087619
C126	C	-0.010489	-0.642437	0.412381
H127	H	-0.918856	-1.095249	-0.503685
H128	H	-0.418856	-0.595249	-0.003685
H129	H	-0.633874	-0.841410	-0.472387
H130	H	-0.133874	-0.341410	0.027613
H131	H	-0.701350	-1.000048	-0.806318
H132	H	-0.201350	-0.500048	-0.306318
H133	H	-1.101937	-1.246571	-0.461927
H134	H	-0.601937	-0.746571	0.038073
H135	H	-0.701296	-1.000085	-0.956097
H136	H	-0.201296	-0.500085	-0.456097
Br137	Br	-0.350773	-0.421548	-0.261924
Br138	Br	0.149227	0.078452	0.238076
H139	H	-0.633940	-0.443998	-0.472414
H140	H	-0.133940	0.056002	0.027586
Br141	Br	-0.283007	-1.312145	-0.783995
Br142	Br	0.216993	-0.812145	-0.283995
Br143	Br	-0.670261	-1.023230	-1.102330
Br144	Br	-0.170261	-0.523230	-0.602330
Br145	Br	-0.670405	-1.023118	-0.660102
Br146	Br	-0.170405	-0.523118	-0.160102
Br147	Br	-0.897575	-1.018927	-0.266880
Br148	Br	-0.397575	-0.518927	0.233120
H149	H	-1.100982	-1.095430	-0.504085
H150	H	-0.600982	-0.595430	-0.004085
Br151	Br	-0.899905	-1.253831	-0.506219
Br152	Br	-0.399905	-0.753831	-0.006219
H153	H	-0.387520	-1.234182	-1.079971
H154	H	0.112480	-0.734182	-0.579971
H155	H	-0.319774	-1.284725	-0.956160
H156	H	0.180226	-0.784725	-0.456160
H157	H	-0.387634	-1.234086	-0.682559
H158	H	0.112366	-0.734086	-0.182559
H159	H	-0.319706	-0.717549	-0.238821
H160	H	0.180294	-0.217549	0.261179
H161	H	-0.701804	-0.567831	-0.522866
H162	H	-0.201804	-0.067831	-0.022866
H163	H	-0.701788	-0.717593	-0.522869
H164	H	-0.201788	-0.217593	-0.022869
H165	H	-1.102467	-1.019862	-0.428161
H166	H	-0.602467	-0.519862	0.071839
H167	H	-0.387553	-0.841372	-0.289276
H168	H	0.112447	-0.341372	0.210724
H169	H	-0.919440	-1.162714	-0.250681
H170	H	-0.419440	-0.662714	0.249319
Br171	Br	-0.897400	-1.305161	-0.335124
Br172	Br	-0.397400	-0.805161	0.164876
Br173	Br	-1.120637	-1.190125	-0.219284
Br174	Br	-0.620637	-0.690125	0.280716
Br175	Br	-1.119013	-1.017497	-0.267799
Br176	Br	-0.619013	-0.517497	0.232201
Br177	Br	-1.119437	-1.301686	-0.327897
Br178	Br	-0.619437	-0.801686	0.172103
Br179	Br	-0.282875	-0.545358	-0.211448
Br180	Br	0.217125	-0.045358	0.288552
Br181	Br	-0.900268	-0.977835	-0.418367
Br182	Br	-0.400268	-0.477835	0.081633
