data_functionalizedCrystal
_audit_creation_method	'MofGen! by Chris Wilmer'
_symmetry_space_group_name_H-M	'P1'
_symmetry_Int_Tables_number	1
_symmetry_cell_setting	triclinic
loop_
_symmetry_equiv_pos_as_xyz
  x,y,z
_cell_length_a	13.033748
_cell_length_b	13.031981
_cell_length_c	13.033109
_cell_angle_alpha	90.863362
_cell_angle_beta	89.076084
_cell_angle_gamma	105.194673
loop_
_atom_site_label
_atom_site_type_symbol
_atom_site_fract_x
_atom_site_fract_y
_atom_site_fract_z
Zn1	Zn	1.610024	-0.256252	-0.354087
Zn2	Zn	1.566060	-0.412636	-0.165042
Zn3	Zn	1.415413	-0.261902	-0.203324
Zn4	Zn	1.409832	-0.456439	-0.353982
O5	O	1.500332	-0.346807	-0.269109
O6	O	1.751020	-0.256300	-0.313033
O7	O	1.530013	-0.376674	-0.027953
O8	O	1.461963	-0.114291	-0.239389
O9	O	1.718720	-0.371195	-0.174142
O10	O	1.604943	-0.110139	-0.350154
O11	O	1.419333	-0.265930	-0.056079
O12	O	1.267845	-0.308404	-0.239287
O13	O	1.452452	-0.445850	-0.496163
O14	O	1.263745	-0.451329	-0.349974
O15	O	1.599532	-0.298774	-0.496240
O16	O	1.524601	-0.565308	-0.174040
O17	O	1.409821	-0.597490	-0.312854
C18	C	1.227724	-0.385234	-0.298774
C19	C	1.111100	-0.401701	-0.311486
C20	C	1.061131	-0.338242	-0.262497
C21	C	0.940594	-0.355260	-0.275634
C22	C	1.461866	-0.619477	-0.239300
C23	C	1.445510	-0.736117	-0.226572
C24	C	1.508927	-0.785994	-0.275766
C25	C	1.492023	-0.906547	-0.262612
C26	C	1.774005	-0.308231	-0.239329
C27	C	1.890628	-0.291792	-0.226638
C28	C	1.530273	-0.376568	-0.534095
C29	C	1.543033	-0.389250	-0.647016
C30	C	1.538980	-0.073071	-0.299053
C31	C	1.555449	0.043579	-0.311813
C32	C	1.493959	-0.340111	-0.711276
C33	C	1.507145	-0.353217	-0.827986
C34	C	1.470578	-0.317078	-0.005156
C35	C	1.458064	-0.304071	0.107755
H36	H	1.575732	-0.739450	-0.327627
O37	O	1.365857	-0.791500	-0.164573
C38	C	1.290858	-0.813152	0.006433
C39	C	1.381115	-0.750331	-0.063671
H40	H	1.303175	-0.779906	0.088031
H41	H	1.211204	-0.805633	-0.022789
H42	H	1.291415	-0.900489	0.005962
H43	H	1.380657	-0.662971	-0.063231
H44	H	1.460727	-0.757939	-0.034424
O45	O	1.116711	-0.258416	-0.200930
C46	C	1.287505	-0.168739	-0.131620
C47	C	1.224698	-0.259169	-0.201395
H48	H	1.374819	-0.169332	-0.131955
H49	H	1.280064	-0.089140	-0.161164
H50	H	1.254103	-0.180845	-0.050017
H51	H	1.258057	-0.247165	-0.283014
H52	H	1.232137	-0.338735	-0.171765
O53	O	1.432265	-0.278346	-0.673669
C54	C	1.362785	-0.209054	-0.523058
C55	C	1.432706	-0.279016	-0.565505
H56	H	1.363100	-0.209590	-0.435603
H57	H	1.395489	-0.124119	-0.551041
H58	H	1.277932	-0.241721	-0.551117
H59	H	1.517573	-0.246444	-0.537464
H60	H	1.399914	-0.363941	-0.537529
O61	O	1.635283	-0.900993	-0.373605
C62	C	1.824036	-0.847415	-0.407282
C63	C	1.733729	-0.910248	-0.337237
H64	H	1.903653	-0.854857	-0.377893
H65	H	1.811894	-0.880703	-0.488877
H66	H	1.823415	-0.760096	-0.406892
H67	H	1.734296	-0.997576	-0.337539
H68	H	1.745904	-0.876873	-0.255675
H69	H	0.937079	-0.224861	-0.174964
O70	O	0.885201	-0.435242	-0.337152
C71	C	0.831899	-0.624064	-0.370357
C72	C	0.894650	-0.533594	-0.300591
H73	H	0.839535	-0.703600	-0.340837
H74	H	0.744533	-0.623657	-0.369960
H75	H	0.865237	-0.611895	-0.451979
H76	H	0.861403	-0.545701	-0.218938
H77	H	0.982010	-0.534026	-0.301077
O78	O	1.055840	-0.481626	-0.373135
C79	C	1.062946	-0.627786	-0.486065
C80	C	1.125647	-0.537328	-0.416257
H81	H	1.119362	-0.672832	-0.520965
H82	H	0.998648	-0.684607	-0.438940
H83	H	1.024413	-0.592830	-0.550031
H84	H	1.164248	-0.572190	-0.352280
H85	H	1.189887	-0.480520	-0.463452
H86	H	1.425206	-0.953092	-0.210758
O87	O	1.568921	-0.414907	-0.865589
C88	C	1.638306	-0.484295	-1.016200
C89	C	1.568332	-0.414386	-0.973752
H90	H	1.637834	-0.483914	-1.103655
H91	H	1.723210	-0.451617	-0.988276
H92	H	1.605612	-0.569178	-0.988081
H93	H	1.600931	-0.329487	-1.001853
H94	H	1.483438	-0.447151	-1.001669
H95	H	1.406282	-0.252296	-0.860863
H96	H	1.594807	-0.441025	-0.678405
