data_functionalizedCrystal
_audit_creation_method	'MofGen! by Chris Wilmer'
_symmetry_space_group_name_H-M	'P1'
_symmetry_Int_Tables_number	1
_symmetry_cell_setting	triclinic
loop_
_symmetry_equiv_pos_as_xyz
  x,y,z
_cell_length_a	10.654562
_cell_length_b	16.109301
_cell_length_c	15.186229
_cell_angle_alpha	90.005701
_cell_angle_beta	90.006776
_cell_angle_gamma	83.975792
loop_
_atom_site_label
_atom_site_type_symbol
_atom_site_fract_x
_atom_site_fract_y
_atom_site_fract_z
O1	O	1.666246	0.116824	0.073290
O2	O	1.300619	0.127938	0.073279
O3	O	1.493477	0.001410	0.073276
O4	O	1.473388	0.243352	0.073293
O5	O	1.493462	0.001407	-0.073182
O6	O	1.300604	0.127935	-0.073178
O7	O	1.666231	0.116821	-0.073168
Zn8	Zn	1.483415	0.122377	-0.096426
Zn9	Zn	1.483435	0.122381	0.096538
O10	O	1.473374	0.243349	-0.073164
C11	C	1.253825	0.127118	0.000049
C12	C	1.114416	0.124670	0.000044
C13	C	1.048892	0.123527	-0.079783
C14	C	0.917901	0.121233	-0.079768
C15	C	0.917968	0.121230	0.079908
C16	C	1.048958	0.123518	0.079892
C17	C	1.048852	0.123532	-0.171970
C18	C	0.917861	0.121238	-0.171956
C19	C	1.492656	-0.029571	0.000047
C20	C	1.490216	-0.121881	0.000045
C21	C	1.713025	0.117640	0.000064
C22	C	1.852435	0.120089	0.000075
C23	C	1.598981	-0.343504	0.000062
C24	C	1.596679	-0.430238	0.000069
C25	C	1.367860	-0.411731	0.000059
C26	C	1.370164	-0.324998	0.000058
C27	C	1.485728	-0.290887	0.000055
C28	C	1.481122	-0.464354	0.000064
C29	C	1.478626	-0.558395	0.000071
C30	C	1.488225	-0.196840	0.000049
C31	C	1.474195	0.274330	0.000067
C32	C	1.476634	0.366640	0.000074
N33	N	1.483411	0.122374	-0.228119
C34	C	1.568843	0.066367	-0.546039
C35	C	1.568840	0.066367	-0.453849
C36	C	1.398013	0.178392	-0.453856
C37	C	1.398023	0.178395	-0.546044
C38	C	1.483437	0.122377	-0.592133
C39	C	1.483423	0.122375	-0.407756
C40	C	1.483419	0.122375	-0.307799
C41	C	1.483443	0.122378	-0.692096
N42	N	1.483449	0.122378	0.228230
H43	H	1.077601	0.184166	-0.200570
N44	N	1.723623	-0.306715	0.000063
H45	H	1.729684	-0.271133	0.054352
H46	H	1.729598	-0.271192	-0.054268
N47	N	0.879737	0.040926	-0.209851
H48	H	0.957660	0.003808	-0.228174
H49	H	0.823751	0.053859	-0.262816
N50	N	1.247998	-0.268248	0.000044
H51	H	1.243855	-0.231856	-0.054248
H52	H	1.243925	-0.231899	0.054371
H53	H	1.328475	0.224010	-0.583577
H54	H	1.273772	-0.439515	0.000060
N55	N	1.119642	0.124747	0.165987
H56	H	1.184179	0.074248	0.169527
H57	H	1.058216	0.123702	0.216523
N58	N	1.718829	-0.486991	0.000066
H59	H	1.722984	-0.523383	0.054359
H60	H	1.792313	-0.452162	0.000029
H61	H	0.870792	0.178696	-0.207343
H62	H	0.864656	0.120292	0.144917
H63	H	1.638394	0.020755	-0.583562
N64	N	1.660949	0.005956	-0.404125
H65	H	1.750073	0.016075	-0.420156
H66	H	1.646397	-0.053114	-0.420195
N67	N	1.111160	0.047427	-0.218871
H68	H	1.089901	-0.004606	-0.187550
H69	H	1.205647	0.049124	-0.218897
H70	H	1.328469	0.223999	-0.416322
