data_functionalizedCrystal
_audit_creation_method	'MofGen! by Chris Wilmer'
_symmetry_space_group_name_H-M	'P1'
_symmetry_Int_Tables_number	1
_symmetry_cell_setting	triclinic
loop_
_symmetry_equiv_pos_as_xyz
  x,y,z
_cell_length_a	19.077105
_cell_length_b	25.639239
_cell_length_c	19.076919
_cell_angle_alpha	87.731593
_cell_angle_beta	89.923776
_cell_angle_gamma	87.734929
loop_
_atom_site_label
_atom_site_type_symbol
_atom_site_fract_x
_atom_site_fract_y
_atom_site_fract_z
Zn1	Zn	1.058187	-0.252939	0.440398
Zn2	Zn	1.558187	0.247061	0.940398
Zn3	Zn	1.062799	-0.337004	0.322884
Zn4	Zn	1.562799	0.162996	0.822884
Zn5	Zn	0.945407	-0.245935	0.318192
Zn6	Zn	1.445407	0.254065	0.818192
Zn7	Zn	0.940620	-0.336689	0.435637
Zn8	Zn	1.440620	0.163311	0.935637
O9	O	1.001753	-0.293142	0.379278
O10	O	1.501753	0.206858	0.879278
O11	O	1.157129	-0.267153	0.428766
O12	O	1.657129	0.232847	0.928766
O13	O	1.051160	-0.322124	0.223931
O14	O	1.551160	0.177876	0.723931
O15	O	0.960440	-0.173702	0.334431
O16	O	1.460440	0.326298	0.834431
O17	O	1.160518	-0.328916	0.342429
O18	O	1.660518	0.171084	0.842429
O19	O	1.043299	-0.178848	0.424215
O20	O	1.543299	0.321152	0.924215
O21	O	0.964912	-0.255216	0.220483
O22	O	1.464912	0.244784	0.720483
O23	O	0.846441	-0.254910	0.329815
O24	O	1.346441	0.245090	0.829815
O25	O	0.952283	-0.328378	0.534600
O26	O	1.452283	0.171622	1.034600
O27	O	0.842925	-0.321587	0.416101
O28	O	1.342925	0.178413	0.916101
O29	O	1.038658	-0.266848	0.538097
O30	O	1.538658	0.233152	1.038097
O31	O	1.046519	-0.410124	0.337813
O32	O	1.546519	0.089876	0.837813
O33	O	0.956755	-0.409893	0.420652
O34	O	1.456755	0.090107	0.920652
C35	C	0.819187	-0.287455	0.371933
C36	C	1.319187	0.212545	0.871933
C37	C	0.741083	-0.285035	0.368807
C38	C	1.241083	0.214965	0.868807
C39	C	0.702581	-0.318661	0.412193
C40	C	1.202581	0.181339	0.912193
C41	C	0.629194	-0.316381	0.409259
C42	C	1.129194	0.183619	0.909259
C43	C	0.594312	-0.280476	0.362936
C44	C	1.094312	0.219524	0.862936
C45	C	0.632820	-0.246846	0.319549
C46	C	1.132820	0.253154	0.819549
C47	C	0.706205	-0.249125	0.322486
C48	C	1.206205	0.250875	0.822486
C49	C	0.375028	-0.269932	0.349344
C50	C	0.875028	0.230068	0.849344
C51	C	0.301638	-0.267658	0.346409
C52	C	0.801638	0.232342	0.846409
C53	C	0.298017	-0.337192	0.436121
C54	C	0.798017	0.162808	0.936121
C55	C	0.371404	-0.339469	0.439051
C56	C	0.871404	0.160531	0.939051
C57	C	0.409905	-0.305837	0.395666
C58	C	0.909905	0.194163	0.895666
N59	N	0.519299	-0.278146	0.359935
N60	N	1.019299	0.221854	0.859935
N61	N	0.484917	-0.308166	0.398671
N62	N	0.984917	0.191834	0.898671
C63	C	1.001636	-0.428980	0.379241
C64	C	1.501636	0.071020	0.879241
C65	C	1.001650	-0.487094	0.379251
C66	C	1.501650	0.012906	0.879251
C67	C	1.048607	-0.847575	0.336225
C68	C	1.548607	-0.347575	0.836225
C69	C	1.048634	-0.902180	0.336235
C70	C	1.548634	-0.402180	0.836235
O71	O	1.088438	-0.930513	0.299613
O72	O	1.588438	-0.430513	0.799613
N73	N	1.001875	-0.929386	0.379329
N74	N	1.501875	-0.429386	0.879329
C75	C	0.955090	-0.901983	0.422421
C76	C	1.455090	-0.401983	0.922421
O77	O	0.915321	-0.930137	0.459077
O78	O	1.415321	-0.430137	0.959077
C79	C	0.955067	-0.847379	0.422413
C80	C	1.455067	-0.347379	0.922413
C81	C	1.001825	-0.820176	0.379311
C82	C	1.501825	-0.320176	0.879311
C83	C	1.095362	-0.820372	0.293127
C84	C	1.595362	-0.320372	0.793127
C85	C	1.095334	-0.765771	0.293116
C86	C	1.595334	-0.265771	0.793116
C87	C	1.048551	-0.738372	0.336202
C88	C	1.548551	-0.238372	0.836202
C89	C	1.001797	-0.765574	0.379300
C90	C	1.501797	-0.265574	0.879300
C91	C	0.908287	-0.819977	0.465508
C92	C	1.408287	-0.319977	0.965508
C93	C	0.908268	-0.765369	0.465497
C94	C	1.408268	-0.265369	0.965497
C95	C	0.955026	-0.738167	0.422395
C96	C	1.455026	-0.238167	0.922395
C97	C	0.954987	-0.683574	0.422375
C98	C	1.454987	-0.183574	0.922375
N99	N	1.001746	-0.656368	0.379282
N100	N	1.501746	-0.156368	0.879282
C101	C	1.048528	-0.683767	0.336195
C102	C	1.548528	-0.183767	0.836195
C103	C	0.955143	-1.016656	0.422434
C104	C	1.455143	-0.516656	0.922434
C105	C	0.955162	-1.071259	0.422438
C106	C	1.455162	-0.571259	0.922438
C107	C	1.048707	-1.071452	0.336253
C108	C	1.548707	-0.571452	0.836253
C109	C	1.048684	-1.016848	0.336246
C110	C	1.548684	-0.516848	0.836246
C111	C	1.001902	-0.989450	0.379340
C112	C	1.501902	-0.489450	0.879340
C113	C	1.048466	-0.569100	0.336174
C114	C	1.548466	-0.069100	0.836174
C115	C	1.048432	-0.514493	0.336164
C116	C	1.548432	-0.014493	0.836164
C117	C	0.954890	-0.514304	0.422351
C118	C	1.454890	-0.014304	0.922351
C119	C	0.954921	-0.568906	0.422359
C120	C	1.454921	-0.068906	0.922359
C121	C	1.001715	-0.596303	0.379268
C122	C	1.501715	-0.096303	0.879268
O123	O	0.915205	-0.655207	0.458982
O124	O	1.415205	-0.155207	0.958982
O125	O	1.088298	-0.655607	0.299552
O126	O	1.588298	-0.155607	0.799552
C127	C	1.185032	-0.298851	0.386652
C128	C	1.685032	0.201149	0.886652
C129	C	1.263135	-0.301284	0.389794
C130	C	1.763135	0.198716	0.889794
C131	C	0.994422	-0.298359	0.562557
C132	C	1.494422	0.201641	1.062557
C133	C	0.991298	-0.300582	0.640660
C134	C	1.491298	0.199418	1.140660
C135	C	1.001889	-0.156774	0.379331
C136	C	1.501889	0.343226	0.879331
C137	C	1.001947	-0.098662	0.379354
C138	C	1.501947	0.401338	0.879354
C139	C	1.009096	-0.287908	0.196713
C140	C	1.509096	0.212092	0.696713
C141	C	1.012356	-0.285541	0.118616
C142	C	1.512356	0.214459	0.618616
C143	C	1.034799	-0.269593	0.679175
C144	C	1.534799	0.230407	1.179175
C145	C	1.031855	-0.271680	0.752561
C146	C	1.531855	0.228320	1.252561
C147	C	0.985413	-0.304759	0.787430
C148	C	1.485413	0.195241	1.287430
C149	C	0.941907	-0.335750	0.748910
C150	C	1.441907	0.164250	1.248910
C151	C	0.944848	-0.333660	0.675526
C152	C	1.444848	0.166340	1.175526
C153	C	0.971792	-0.314442	1.006711
C154	C	1.471792	0.185558	1.506711
C155	C	0.968856	-0.316531	1.080100
C156	C	1.468856	0.183469	1.580100
C157	C	1.058803	-0.252460	1.083746
C158	C	1.558803	0.247540	1.583746
C159	C	1.061742	-0.250375	1.010361
C160	C	1.561742	0.249625	1.510361
C161	C	1.018234	-0.281364	0.971846
C162	C	1.518234	0.218636	1.471846
N163	N	0.982404	-0.306894	0.862442
N164	N	1.482404	0.193106	1.362442
N165	N	1.021240	-0.279226	0.896836
N166	N	1.521240	0.220774	1.396836
H167	H	0.406367	-0.242551	0.314012
H168	H	0.906367	0.257449	0.814012
H169	H	0.904091	-0.362682	0.777306
H170	H	1.404091	0.137318	1.277306
Cl171	Cl	0.890156	-0.372619	0.627106
Cl172	Cl	1.390156	0.127381	1.127106
H173	H	0.737553	-0.221740	0.287160
H174	H	1.237553	0.278260	0.787160
Cl175	Cl	0.257787	-0.222521	0.288164
Cl176	Cl	0.757787	0.277479	0.788164
Cl177	Cl	0.588967	-0.201705	0.261318
Cl178	Cl	1.088967	0.298295	0.761318
H179	H	0.870208	-0.842116	0.500603
H180	H	1.370208	-0.342116	1.000603
H181	H	0.936374	-0.339684	0.975362
H182	H	1.436374	0.160316	1.475362
H183	H	1.067280	-0.246446	0.783917
H184	H	1.567280	0.253554	1.283917
Cl185	Cl	0.415251	-0.384609	0.497286
Cl186	Cl	0.915251	0.115391	0.997286
Cl187	Cl	0.249611	-0.379470	0.490657
Cl188	Cl	0.749611	0.120530	0.990657
H189	H	1.086507	-0.492346	0.301063
H190	H	1.586507	0.007654	0.801063
Cl191	Cl	0.896126	-0.603104	0.476530
Cl192	Cl	1.396126	-0.103104	0.976530
H193	H	0.730976	-0.347900	0.449912
H194	H	1.230976	0.152100	0.949912
H195	H	0.917081	-1.093402	0.457529
H196	H	1.417081	-0.593402	0.957529
Cl197	Cl	1.107292	-0.603533	0.282001
Cl198	Cl	1.607292	-0.103533	0.782001
Cl199	Cl	0.580794	-0.358656	0.463804
Cl200	Cl	1.080794	0.141344	0.963804
H201	H	1.133410	-0.743625	0.258020
H202	H	1.633410	-0.243625	0.758020
H203	H	1.099562	-0.223440	0.981975
H204	H	1.599562	0.276560	1.481975
H205	H	1.133461	-0.842675	0.258040
H206	H	1.633461	-0.342675	0.758040
Cl207	Cl	1.093190	-0.228007	0.635347
Cl208	Cl	1.593190	0.271993	1.135347
Cl209	Cl	1.107468	-0.982656	0.282060
Cl210	Cl	1.607468	-0.482656	0.782060
Cl211	Cl	0.896084	-0.479850	0.476518
Cl212	Cl	1.396084	0.020150	0.976518
Cl213	Cl	1.113492	-0.213503	1.132168
Cl214	Cl	1.613492	0.286497	1.632168
H215	H	0.870174	-0.743065	0.500592
H216	H	1.370174	-0.243065	1.000592
Cl217	Cl	1.107518	-1.105907	0.282085
Cl218	Cl	1.607518	-0.605907	0.782085
Cl219	Cl	0.896320	-0.982218	0.476608
Cl220	Cl	1.396320	-0.482218	0.976608
Cl221	Cl	0.910463	-0.358117	1.123935
Cl222	Cl	1.410463	0.141883	1.623935
