data_functionalizedCrystal
_audit_creation_method	'MofGen! by Chris Wilmer'
_symmetry_space_group_name_H-M	'P1'
_symmetry_Int_Tables_number	1
_symmetry_cell_setting	triclinic
loop_
_symmetry_equiv_pos_as_xyz
  x,y,z
_cell_length_a	19.188930
_cell_length_b	10.540539
_cell_length_c	9.616153
_cell_angle_alpha	90.002114
_cell_angle_beta	89.982857
_cell_angle_gamma	83.835136
loop_
_atom_site_label
_atom_site_type_symbol
_atom_site_fract_x
_atom_site_fract_y
_atom_site_fract_z
O1	O	-0.927200	-0.158461	0.116087
O2	O	-0.724031	-0.179794	0.115991
O3	O	-0.830251	0.015681	0.116039
O4	O	-0.820981	-0.353936	0.116038
O5	O	-0.830243	0.015670	-0.115252
O6	O	-0.724024	-0.179805	-0.115301
O7	O	-0.927193	-0.158472	-0.115205
Zn8	Zn	-0.825607	-0.169140	-0.151975
Zn9	Zn	-0.825617	-0.169126	0.152761
O10	O	-0.820973	-0.353947	-0.115253
C11	C	-0.698012	-0.179108	0.000333
C12	C	-0.620493	-0.177035	0.000296
C13	C	-0.829552	0.062963	0.000396
C14	C	-0.827472	0.203866	0.000402
C15	C	-0.953212	-0.159157	0.000456
C16	C	-1.030731	-0.161231	0.000502
C17	C	-0.576334	-0.291733	0.000318
C18	C	-0.503497	-0.289785	0.000333
C19	C	-0.474823	-0.173132	0.000355
C20	C	-0.518992	-0.058418	0.000325
C21	C	-0.591827	-0.060370	0.000296
N22	N	-0.366251	-0.083961	0.079130
N23	N	-0.297060	-0.082115	0.079160
C24	C	-0.255375	-0.167245	0.000440
N25	N	-0.285494	-0.254310	-0.078295
N26	N	-0.354691	-0.256159	-0.078320
C27	C	-0.395846	-0.171003	0.000386
C28	C	-0.132237	-0.279838	0.000476
C29	C	-0.059400	-0.277885	0.000483
C30	C	-0.074896	-0.046516	0.000489
C31	C	-0.147732	-0.048472	0.000468
C32	C	-0.176398	-0.165137	0.000468
C33	C	-0.821672	-0.401229	0.000393
C34	C	-0.823752	-0.542131	0.000396
N35	N	-0.825605	-0.169149	-0.359950
C36	C	-0.747771	0.385536	0.000884
C37	C	-0.749879	0.238965	0.000364
C38	C	-0.864809	0.266340	-0.131659
C39	C	-0.862161	0.412826	-0.131771
C40	C	-0.863748	0.413392	0.131251
C41	C	-0.864462	0.266425	0.132998
C42	C	-0.768760	-0.273700	-0.419017
C43	C	-0.768566	-0.273407	-0.580185
C44	C	-0.809350	-0.036592	-0.580743
C45	C	-0.808930	-0.037231	-0.419526
C46	C	-0.898897	-0.195912	-0.419300
C47	C	-0.898432	-0.198899	-0.580529
N48	N	-0.825625	-0.169106	0.360736
H49	H	-0.599669	-0.386731	0.000321
F50	F	-0.781286	-0.402895	-0.368354
F51	F	-0.956365	-0.105817	-0.633087
F52	F	-0.826083	0.448887	-0.260834
F53	F	-0.739051	-0.006434	-0.370438
H54	H	-0.941205	-0.119673	-0.381087
H55	H	-0.627783	0.033035	0.000279
H56	H	-0.714686	-0.256833	-0.378558
F57	F	-0.711479	0.182435	0.124098
F58	F	-0.697496	-0.251024	-0.630671
F59	F	-0.012401	-0.399970	0.000498
F60	F	-0.830923	0.453902	0.262084
H61	H	-0.848740	0.042913	-0.380447
H62	H	-0.910766	-0.296393	-0.618756
F63	F	-0.044384	0.077637	0.000498
H64	H	-0.717123	0.413465	0.095585
F65	F	-0.456491	-0.411867	0.000352
F66	F	-0.862016	0.067573	-0.630752
F67	F	-0.740276	-0.005018	-0.633579
H68	H	-0.914436	-0.290496	-0.378644
H69	H	-0.495641	0.036562	0.000362
F70	F	-0.707762	0.424560	-0.121904
F71	F	-0.162748	-0.404002	0.000466
H72	H	-0.921790	0.245241	-0.136543
H73	H	-0.720288	0.196552	-0.094487
F74	F	-0.194732	0.073608	0.000452
F75	F	-0.829034	0.211652	0.260712
H76	H	-0.917964	0.462024	-0.137737
F77	F	-0.830901	0.209910	-0.260148
F78	F	-0.938405	0.236391	0.143466
H79	H	-0.778313	-0.371906	-0.619755
H80	H	-0.919792	0.461852	0.132166
