data_functionalizedCrystal
_audit_creation_method	'MofGen! by Chris Wilmer'
_symmetry_space_group_name_H-M	'P1'
_symmetry_Int_Tables_number	1
_symmetry_cell_setting	triclinic
loop_
_symmetry_equiv_pos_as_xyz
  x,y,z
_cell_length_a	17.699103
_cell_length_b	9.065215
_cell_length_c	7.540329
_cell_angle_alpha	89.997574
_cell_angle_beta	89.991453
_cell_angle_gamma	84.152879
loop_
_atom_site_label
_atom_site_type_symbol
_atom_site_fract_x
_atom_site_fract_y
_atom_site_fract_z
O1	O	0.110961	1.957128	-0.147485
O2	O	0.120066	1.527574	-0.147494
O3	O	0.005420	1.754472	-0.147455
O4	O	0.225608	1.730230	-0.147524
O5	O	0.005419	1.754458	0.147510
O6	O	0.120065	1.527560	0.147471
O7	O	0.110960	1.957114	0.147480
Cu8	Cu	0.115512	1.742336	0.174408
Cu9	Cu	0.115514	1.742352	-0.174422
O10	O	0.225606	1.730216	0.147441
C11	C	0.119191	1.472606	-0.000013
C12	C	0.116576	1.308840	-0.000015
C13	C	-0.022784	1.753591	0.000032
C14	C	-0.106822	1.750970	0.000047
C15	C	-0.622657	1.734947	-0.160855
C16	C	-0.543695	1.737408	-0.160839
C17	C	-0.504228	1.738628	-0.000043
C18	C	-0.543728	1.737402	0.160748
C19	C	-0.622690	1.734952	0.160730
C20	C	-0.225285	1.747284	0.160822
C21	C	-0.146317	1.749730	0.160827
C22	C	-0.146290	1.749740	-0.160747
C23	C	-0.225252	1.747290	-0.160765
C24	C	-0.264745	1.746072	0.000025
C25	C	-0.350366	1.743407	0.000006
C26	C	-0.418608	1.741282	-0.000022
C27	C	0.253810	1.731097	-0.000050
C28	C	0.337848	1.733718	-0.000076
C29	C	0.111835	2.012082	-0.000005
C30	C	0.114450	2.175848	-0.000015
N31	N	0.115511	1.742336	0.419757
N32	N	0.115510	1.742364	-0.419771
H33	H	-0.654785	1.733940	-0.291794
C34	C	-0.268665	1.746008	-0.337653
N35	N	-0.301364	1.745070	-0.470889
H36	H	-0.114125	1.750736	-0.291670
H37	H	-0.257431	1.746295	0.291747
H38	H	-0.654845	1.733950	0.291653
H39	H	-0.114185	1.750716	0.291775
H40	H	-0.511542	1.738412	-0.291761
H41	H	-0.511588	1.738405	0.291671
