data_functionalizedCrystal
_audit_creation_method	'MofGen! by Chris Wilmer'
_symmetry_space_group_name_H-M	'P1'
_symmetry_Int_Tables_number	1
_symmetry_cell_setting	triclinic
loop_
_symmetry_equiv_pos_as_xyz
  x,y,z
_cell_length_a	13.897449
_cell_length_b	12.759400
_cell_length_c	12.759393
_cell_angle_alpha	89.968436
_cell_angle_beta	90.020530
_cell_angle_gamma	89.984036
loop_
_atom_site_label
_atom_site_type_symbol
_atom_site_fract_x
_atom_site_fract_y
_atom_site_fract_z
Zn1	Zn	1.474721	0.418168	0.594038
Zn2	Zn	1.474624	0.593887	0.418359
Zn3	Zn	1.313411	0.418227	0.418372
Zn4	Zn	1.313400	0.593810	0.593994
O5	O	1.394039	0.506023	0.506191
O6	O	1.609690	0.441486	0.570747
O7	O	1.453202	0.570642	0.271339
O8	O	1.334854	0.271198	0.441698
O9	O	1.609618	0.570586	0.441676
O10	O	1.453368	0.271155	0.570760
O11	O	1.334760	0.441585	0.271349
O12	O	1.178428	0.441510	0.441655
O13	O	1.334836	0.570454	0.741021
O14	O	1.178420	0.570510	0.570684
O15	O	1.453358	0.441411	0.741054
O16	O	1.453192	0.740898	0.441633
O17	O	1.334742	0.740841	0.570671
C18	C	1.143425	0.506009	0.506167
C19	C	1.036211	0.506028	0.506181
C20	C	1.393982	0.778991	0.506169
C21	C	1.394045	0.895767	0.506194
C22	C	1.394106	0.505917	0.780224
C23	C	1.394135	0.505872	0.897001
C24	C	0.839915	0.506032	0.506209
C25	C	0.949148	0.506027	0.506191
C26	C	1.645632	0.506038	0.506215
C27	C	1.752846	0.506044	0.506226
C28	C	1.394123	0.231990	0.506236
C29	C	1.394158	0.115213	0.506255
C30	C	1.455791	0.950624	0.439078
C31	C	1.455850	1.060348	0.439111
C32	C	1.332410	1.060349	0.573378
C33	C	1.332356	0.950627	0.573350
C34	C	1.517480	0.895764	0.371922
C35	C	1.579230	0.950621	0.304800
C36	C	1.579289	1.060345	0.304833
C37	C	1.517598	1.115212	0.371987
C38	C	1.394027	0.506053	0.233223
C39	C	1.394185	0.505802	0.116447
C40	C	1.455858	0.438673	0.951882
C41	C	1.455881	0.438635	1.061606
C42	C	1.332456	0.573004	1.061559
C43	C	1.332429	0.573036	0.951836
C44	C	1.517564	0.371509	0.897046
C45	C	1.579293	0.304305	0.951927
C46	C	1.579316	0.304267	1.061651
C47	C	1.517610	0.371433	1.116494
H48	H	1.629462	0.905943	0.250131
O49	O	1.272373	0.638174	0.898482
C50	C	1.210084	0.578385	0.835001
H51	H	1.204157	0.495625	0.868079
H52	H	1.239885	0.574800	0.751846
C53	C	1.117076	0.731362	0.792677
C54	C	1.109789	0.629717	0.833309
H55	H	1.055210	0.763026	0.791629
H56	H	1.159043	0.771644	0.835442
H57	H	1.141913	0.728360	0.723385
H58	H	1.084964	0.632721	0.902604
H59	H	1.067816	0.589436	0.790556
O60	O	1.639303	1.113472	0.239539
C61	C	1.693754	1.041519	0.180284
H62	H	1.654204	0.963345	0.176590
H63	H	1.766989	1.029749	0.218821
C64	C	1.756303	1.180433	0.073028
C65	C	1.707724	1.084421	0.068483
H66	H	1.764925	1.206898	0.004066
H67	H	1.719622	1.228911	0.112951
H68	H	1.817328	1.170612	0.105147
H69	H	1.646696	1.094246	0.036377
H70	H	1.744396	1.035946	0.028552
H71	H	1.517659	1.204557	0.372017
O72	O	1.272514	1.113806	0.638503
C73	C	1.285818	1.222413	0.624152
H74	H	1.317457	1.237433	0.543107
H75	H	1.337169	1.253456	0.686528
C76	C	1.149384	1.260377	0.733237
C77	C	1.188236	1.278826	0.633692
H78	H	1.089193	1.295177	0.739127
H79	H	1.140422	1.187207	0.742910
H80	H	1.192186	1.286247	0.785206
H81	H	1.145441	1.252945	0.581727
H82	H	1.197189	1.351993	0.624012
O83	O	1.639193	0.239156	0.898495
C84	C	1.625922	0.253577	0.789882
H85	H	1.594306	0.334661	0.774872
H86	H	1.574564	0.191268	0.758754
C87	C	1.762340	0.144379	0.751999
C88	C	1.723516	0.243971	0.733563
H89	H	1.822539	0.138449	0.717257
H90	H	1.771280	0.134660	0.825173
H91	H	1.719533	0.092466	0.726059
H92	H	1.766317	0.295882	0.759515
H93	H	1.714586	0.253699	0.660392
H94	H	1.629571	0.249539	1.106332
O95	O	1.517785	0.371298	1.223081
C96	C	1.585475	0.297561	1.259764
H97	H	1.641819	0.282869	1.196542
H98	H	1.547256	0.220946	1.279251
C99	C	1.565728	0.358404	1.436565
C100	C	1.634936	0.340365	1.358918
H101	H	1.596236	0.384804	1.497730
H102	H	1.520121	0.408080	1.411852
H103	H	1.533885	0.294553	1.452791
H104	H	1.666770	0.404218	1.342683
H105	H	1.680550	0.290701	1.383630
O106	O	1.272617	0.638219	1.114993
C107	C	1.285862	0.623764	1.223605
H108	H	1.360316	0.589352	1.238603
H109	H	1.228672	0.567806	1.254754
C110	C	1.185565	0.772315	1.261487
C111	C	1.277014	0.730058	1.279909
H112	H	1.180103	0.837880	1.296220
H113	H	1.176638	0.782052	1.188313
H114	H	1.137917	0.725673	1.287445
H115	H	1.324660	0.776694	1.253939
H116	H	1.285949	0.720332	1.353080
H117	H	1.282078	0.905962	0.628003
H118	H	1.517436	0.806422	0.371886
H119	H	1.517555	0.371534	0.807703
