data_functionalizedCrystal
_audit_creation_method	'MofGen! by Chris Wilmer'
_symmetry_space_group_name_H-M	'P1'
_symmetry_Int_Tables_number	1
_symmetry_cell_setting	triclinic
loop_
_symmetry_equiv_pos_as_xyz
  x,y,z
_cell_length_a	8.559649
_cell_length_b	14.472310
_cell_length_c	8.634740
_cell_angle_alpha	89.997140
_cell_angle_beta	85.174486
_cell_angle_gamma	90.012175
loop_
_atom_site_label
_atom_site_type_symbol
_atom_site_fract_x
_atom_site_fract_y
_atom_site_fract_z
O1	O	2.112237	0.076826	-0.051389
O2	O	1.659074	0.076830	0.026822
O3	O	1.864205	0.076827	-0.234219
O4	O	1.907107	0.076830	0.209652
O5	O	1.864145	-0.076855	-0.234198
O6	O	1.659015	-0.076852	0.026843
O7	O	2.112178	-0.076856	-0.051368
Cu8	Cu	1.885591	-0.090886	-0.012261
Cu9	Cu	1.885661	0.090861	-0.012285
O10	O	1.907047	-0.076852	0.209673
C11	C	1.600427	-0.000010	0.032760
C12	C	1.425763	-0.000009	0.050402
N13	N	1.885552	-0.218717	-0.012246
C14	C	1.885658	-0.592808	-0.012291
C15	C	1.775401	-0.553641	0.127021
C16	C	1.775769	-0.446553	0.127438
C17	C	1.885604	-0.407217	-0.012268
C18	C	2.054653	-0.446055	0.002854
C19	C	2.054062	-0.553177	0.003822
C20	C	1.828272	-0.553338	-0.167266
C21	C	1.824680	-0.446211	-0.165762
C22	C	1.885584	-0.302329	-0.012260
C23	C	1.885690	-0.697696	-0.012298
C24	C	2.170825	-0.000013	-0.057305
C25	C	2.345489	-0.000008	-0.074948
C26	C	1.854456	-0.000013	-0.290508
C27	C	1.825478	-0.000008	-0.458259
N28	N	1.885711	0.218692	-0.012314
C29	C	1.916796	-0.000011	0.265962
C30	C	1.945774	-0.000010	0.433714
H31	H	1.410386	-0.000005	-0.195763
N32	N	1.344332	-0.000001	0.201967
N33	N	1.197801	0.000003	0.216572
H34	H	1.140287	0.000008	0.323612
N35	N	1.668460	-0.000029	-0.503219
N36	N	1.577583	-0.064815	-0.462299
H37	H	1.466686	-0.064833	-0.494060
N38	N	2.161295	-0.414089	-0.122075
N39	N	2.113782	-0.362200	-0.223890
H40	H	2.189095	-0.339622	-0.312125
H41	H	2.070943	0.000023	-0.530433
N42	N	1.619011	-0.413623	0.120488
N43	N	1.508573	-0.469756	0.115275
H44	H	1.397817	-0.446506	0.110660
N45	N	1.824935	-0.414369	0.272194
N46	N	1.833754	-0.329585	0.297659
H47	H	1.868486	-0.306854	0.399897
N48	N	2.112847	-0.584500	0.144864
N49	N	2.154021	-0.527247	0.241901
H50	H	2.195539	-0.549364	0.341517
H51	H	1.650185	-0.579428	0.121256
H52	H	1.814186	-0.580550	0.241799
N53	N	2.114037	-0.412381	0.142135
N54	N	2.032168	-0.359790	0.230463
H55	H	2.074100	-0.336007	0.328835
H56	H	1.706359	-0.580405	-0.186620
N57	N	2.161652	-0.585670	-0.119897
N58	N	2.236944	-0.529230	-0.206674
H59	H	2.312936	-0.552174	-0.294045
H60	H	1.700202	-0.420828	-0.177690
N61	N	1.916563	-0.412628	-0.300009
N62	N	2.060215	-0.429390	-0.317427
H63	H	2.125126	-0.405672	-0.412235
H64	H	1.908393	-0.578666	-0.270709
