data_functionalizedCrystal
_audit_creation_method	'MofGen! by Chris Wilmer'
_symmetry_space_group_name_H-M	'P1'
_symmetry_Int_Tables_number	1
_symmetry_cell_setting	triclinic
loop_
_symmetry_equiv_pos_as_xyz
  x,y,z
_cell_length_a	17.699083
_cell_length_b	23.532357
_cell_length_c	16.776229
_cell_angle_alpha	89.987808
_cell_angle_beta	89.998886
_cell_angle_gamma	83.055654
loop_
_atom_site_label
_atom_site_type_symbol
_atom_site_fract_x
_atom_site_fract_y
_atom_site_fract_z
O1	O	1.003696	0.072022	-0.066186
O2	O	1.253696	0.322022	0.183814
O3	O	1.503696	0.572022	0.433814
O4	O	1.753696	0.822022	0.683814
O5	O	0.783268	0.081392	-0.066214
O6	O	1.033268	0.331392	0.183786
O7	O	1.283268	0.581392	0.433786
O8	O	1.533268	0.831392	0.683786
O9	O	0.900149	-0.006208	-0.066183
O10	O	1.150149	0.243792	0.183817
O11	O	1.400149	0.493792	0.433817
O12	O	1.650149	0.743792	0.683817
O13	O	0.886815	0.159621	-0.066217
O14	O	1.136815	0.409621	0.183783
O15	O	1.386815	0.659621	0.433783
O16	O	1.636815	0.909621	0.683783
O17	O	0.900133	-0.006213	0.066394
O18	O	1.150133	0.243787	0.316394
O19	O	1.400133	0.493787	0.566394
O20	O	1.650133	0.743787	0.816394
O21	O	0.783252	0.081386	0.066363
O22	O	1.033252	0.331386	0.316363
O23	O	1.283252	0.581386	0.566363
O24	O	1.533252	0.831386	0.816363
O25	O	1.003680	0.072016	0.066390
O26	O	1.253680	0.322016	0.316390
O27	O	1.503680	0.572016	0.566390
O28	O	1.753680	0.822016	0.816390
Zn29	Zn	0.893464	0.076700	0.087426
Zn30	Zn	1.143464	0.326700	0.337426
Zn31	Zn	1.393464	0.576700	0.587426
Zn32	Zn	1.643464	0.826700	0.837426
Zn33	Zn	0.893484	0.076708	-0.087249
Zn34	Zn	1.143484	0.326708	0.162751
Zn35	Zn	1.393484	0.576708	0.412751
Zn36	Zn	1.643484	0.826708	0.662751
O37	O	0.886800	0.159616	0.066359
O38	O	1.136800	0.409616	0.316359
O39	O	1.386800	0.659616	0.566359
O40	O	1.636800	0.909616	0.816359
C41	C	0.755065	0.081053	0.000071
C42	C	1.005065	0.331053	0.250071
C43	C	1.255065	0.581053	0.500071
C44	C	1.505065	0.831053	0.750071
C45	C	0.671052	0.080046	0.000062
C46	C	0.921052	0.330046	0.250062
C47	C	1.171052	0.580046	0.500062
C48	C	1.421052	0.830046	0.750062
C49	C	0.899807	-0.027428	0.000108
C50	C	1.149807	0.222572	0.250108
C51	C	1.399807	0.472572	0.500108
C52	C	1.649807	0.722572	0.750108
C53	C	0.898805	-0.090650	0.000115
C54	C	1.148805	0.159350	0.250115
C55	C	1.398805	0.409350	0.500115
C56	C	1.648805	0.659350	0.750115
C57	C	0.622158	0.131465	0.000051
C58	C	0.872158	0.381465	0.250051
C59	C	1.122158	0.631465	0.500051
C60	C	1.372158	0.881465	0.750051
C61	C	0.543220	0.130515	0.000062
C62	C	0.793220	0.380515	0.250062
C63	C	1.043220	0.630515	0.500062
C64	C	1.293220	0.880515	0.750062
C65	C	0.513177	0.078146	0.000077
C66	C	0.763177	0.328146	0.250077
C67	C	1.013177	0.578146	0.500077
C68	C	1.263177	0.828146	0.750077
C69	C	0.562077	0.026723	0.000090
C70	C	0.812077	0.276723	0.250090
C71	C	1.062077	0.526723	0.500090
C72	C	1.312077	0.776723	0.750090
C73	C	0.641014	0.027673	0.000085
C74	C	0.891014	0.277673	0.250085
C75	C	1.141014	0.527673	0.500085
C76	C	1.391014	0.777673	0.750085
C77	C	0.243735	0.022889	0.000110
C78	C	0.493735	0.272889	0.250110
C79	C	0.743735	0.522889	0.500110
C80	C	0.993735	0.772889	0.750110
C81	C	0.164792	0.021942	0.000113
C82	C	0.414792	0.271942	0.250113
C83	C	0.664792	0.521942	0.500113
C84	C	0.914792	0.771942	0.750113
C85	C	0.145940	0.125731	0.000087
C86	C	0.395940	0.375731	0.250087
C87	C	0.645940	0.625731	0.500087
C88	C	0.895940	0.875731	0.750087
C89	C	0.224877	0.126681	0.000082
C90	C	0.474877	0.376681	0.250082
C91	C	0.724877	0.626681	0.500082
C92	C	0.974877	0.876681	0.750082
C93	C	0.273770	0.075259	0.000099
C94	C	0.523770	0.325259	0.250099
C95	C	0.773770	0.575259	0.500099
C96	C	1.023770	0.825259	0.750099
C97	C	0.359364	0.076289	0.000089
C98	C	0.609364	0.326289	0.250089
C99	C	0.859364	0.576289	0.500089
C100	C	1.109364	0.826289	0.750089
C101	C	0.427585	0.077115	0.000081
C102	C	0.677585	0.327115	0.250081
C103	C	0.927585	0.577115	0.500081
C104	C	1.177585	0.827115	0.750081
C105	C	0.892518	-0.482676	-0.072196
C106	C	1.142518	-0.232676	0.177804
C107	C	1.392518	0.017324	0.427804
C108	C	1.642518	0.267324	0.677804
C109	C	0.891565	-0.542078	-0.072201
C110	C	1.141565	-0.292078	0.177799
C111	C	1.391565	-0.042078	0.427799
C112	C	1.641565	0.207922	0.677799
O113	O	0.891053	-0.572794	-0.133661
O114	O	1.141053	-0.322794	0.116339
O115	O	1.391053	-0.072794	0.366339
O116	O	1.641053	0.177206	0.616339
N117	N	0.891084	-0.571794	0.000066
N118	N	1.141084	-0.321794	0.250066
N119	N	1.391084	-0.071794	0.500066
N120	N	1.641084	0.178206	0.750066
C121	C	0.891548	-0.542103	0.072342
C122	C	1.141548	-0.292103	0.322342
C123	C	1.391548	-0.042103	0.572342
C124	C	1.641548	0.207897	0.822342
O125	O	0.891051	-0.572833	0.133809
O126	O	1.141051	-0.322833	0.383809
O127	O	1.391051	-0.072833	0.633809
O128	O	1.641051	0.177167	0.883809
C129	C	0.892496	-0.482701	0.072345
C130	C	1.142496	-0.232701	0.322345
C131	C	1.392496	0.017299	0.572345
C132	C	1.642496	0.267299	0.822345
C133	C	0.892985	-0.452990	0.000074
C134	C	1.142985	-0.202990	0.250074
C135	C	1.392985	0.047010	0.500074
C136	C	1.642985	0.297010	0.750074
C137	C	0.893006	-0.452964	-0.144461
C138	C	1.143006	-0.202964	0.105539
C139	C	1.393006	0.047036	0.355539
C140	C	1.643006	0.297036	0.605539
C141	C	0.893960	-0.393566	-0.144456
C142	C	1.143960	-0.143566	0.105544
C143	C	1.393960	0.106434	0.355544
C144	C	1.643960	0.356434	0.605544
C145	C	0.894427	-0.363880	-0.072186
C146	C	1.144427	-0.113880	0.177814
C147	C	1.394427	0.136120	0.427814
C148	C	1.644427	0.386120	0.677814
C149	C	0.893939	-0.393592	0.000079
C150	C	1.143939	-0.143592	0.250079
C151	C	1.393939	0.106408	0.500079
C152	C	1.643939	0.356408	0.750079
C153	C	0.892955	-0.453011	0.144620
C154	C	1.142955	-0.203011	0.394620
C155	C	1.392955	0.046989	0.644620
C156	C	1.642955	0.296989	0.894620
C157	C	0.893902	-0.393606	0.144618
C158	C	1.143902	-0.143606	0.394618
C159	C	1.393902	0.106394	0.644618
C160	C	1.643902	0.356394	0.894618
C161	C	0.894391	-0.363894	0.072347
C162	C	1.144391	-0.113894	0.322347
C163	C	1.394391	0.136106	0.572347
C164	C	1.644391	0.386106	0.822347
C165	C	0.895360	-0.304508	0.072354
C166	C	1.145360	-0.054508	0.322354
C167	C	1.395360	0.195492	0.572354
C168	C	1.645360	0.445492	0.822354
N169	N	0.895842	-0.274792	0.000088
N170	N	1.145842	-0.024792	0.250088
N171	N	1.395842	0.225208	0.500088
N172	N	1.645842	0.475208	0.750088
C173	C	0.895375	-0.304479	-0.072182
C174	C	1.145375	-0.054479	0.177818
C175	C	1.395375	0.195521	0.427818
C176	C	1.645375	0.445521	0.677818
C177	C	0.889557	-0.666850	0.072328
C178	C	1.139557	-0.416850	0.322328
C179	C	1.389557	-0.166850	0.572328
C180	C	1.639557	0.083150	0.822328
C181	C	0.888614	-0.726252	0.072325
C182	C	1.138614	-0.476252	0.322325
C183	C	1.388614	-0.226252	0.572325
C184	C	1.638614	0.023748	0.822325
C185	C	0.888630	-0.726222	-0.072217
C186	C	1.138630	-0.476222	0.177783
C187	C	1.388630	-0.226222	0.427783
C188	C	1.638630	0.023778	0.677783
C189	C	0.889577	-0.666821	-0.072214
C190	C	1.139577	-0.416821	0.177786
C191	C	1.389577	-0.166821	0.427786
C192	C	1.639577	0.083179	0.677786
C193	C	0.890038	-0.637135	0.000062
C194	C	1.140038	-0.387135	0.250062
C195	C	1.390038	-0.137135	0.500062
C196	C	1.640038	0.112865	0.750062
C197	C	0.897380	-0.179739	-0.072166
C198	C	1.147380	0.070261	0.177834
C199	C	1.397380	0.320261	0.427834
C200	C	1.647380	0.570261	0.677834
C201	C	0.898338	-0.120336	-0.072155
C202	C	1.148338	0.129664	0.177845
C203	C	1.398338	0.379664	0.427845
C204	C	1.648338	0.629664	0.677845
C205	C	0.898319	-0.120370	0.072387
C206	C	1.148319	0.129630	0.322387
C207	C	1.398319	0.379630	0.572387
C208	C	1.648319	0.629630	0.822387
C209	C	0.897365	-0.179768	0.072376
C210	C	1.147365	0.070232	0.322376
C211	C	1.397365	0.320232	0.572376
C212	C	1.647365	0.570232	0.822376
C213	C	0.896893	-0.209451	0.000093
C214	C	1.146893	0.040549	0.250093
C215	C	1.396893	0.290549	0.500093
C216	C	1.646893	0.540549	0.750093
O217	O	0.895869	-0.273754	0.133784
O218	O	1.145869	-0.023754	0.383784
O219	O	1.395869	0.226246	0.633784
O220	O	1.645869	0.476246	0.883784
O221	O	0.895862	-0.273740	-0.133640
O222	O	1.145862	-0.023740	0.116360
O223	O	1.395862	0.226260	0.366360
O224	O	1.645862	0.476260	0.616360
C225	C	1.031883	0.072355	0.000104
C226	C	1.281883	0.322355	0.250104
C227	C	1.531883	0.572355	0.500104
C228	C	1.781883	0.822355	0.750104
C229	C	1.115896	0.073362	0.000108
C230	C	1.365896	0.323362	0.250108
C231	C	1.615896	0.573362	0.500108
C232	C	1.865896	0.823362	0.750108
C233	C	0.887141	0.180836	0.000067
C234	C	1.137141	0.430836	0.250067
C235	C	1.387141	0.680836	0.500067
C236	C	1.637141	0.930836	0.750067
C237	C	0.888144	0.244058	0.000054
C238	C	1.138144	0.494058	0.250054
C239	C	1.388144	0.744058	0.500054
C240	C	1.638144	0.994058	0.750054
N241	N	0.893456	0.076695	0.206637
N242	N	1.143456	0.326695	0.456637
N243	N	1.393456	0.576695	0.706637
N244	N	1.643456	0.826695	0.956637
N245	N	0.893499	0.076708	-0.206461
N246	N	1.143499	0.326708	0.043539
N247	N	1.393499	0.576708	0.293539
N248	N	1.643499	0.826708	0.543539
C249	C	0.945226	0.037922	0.248368
C250	C	1.195226	0.287922	0.498368
C251	C	1.445226	0.537922	0.748368
C252	C	1.695226	0.787922	0.998368
C253	C	0.945230	0.037922	0.331820
C254	C	1.195230	0.287922	0.581820
C255	C	1.445230	0.537922	0.831820
C256	C	1.695230	0.787922	1.081820
C257	C	0.893467	0.076697	0.373540
C258	C	1.143467	0.326697	0.623540
C259	C	1.393467	0.576697	0.873540
C260	C	1.643467	0.826697	1.123540
C261	C	0.841691	0.115473	0.331803
C262	C	1.091691	0.365473	0.581803
C263	C	1.341691	0.615473	0.831803
C264	C	1.591691	0.865473	1.081803
C265	C	0.841684	0.115470	0.248353
C266	C	1.091684	0.365470	0.498353
C267	C	1.341684	0.615470	0.748353
C268	C	1.591684	0.865470	0.998353
C269	C	0.841718	0.115484	0.668351
C270	C	1.091718	0.365484	0.918351
C271	C	1.341718	0.615484	1.168351
C272	C	1.591718	0.865484	1.418351
C273	C	0.841731	0.115485	0.751807
C274	C	1.091731	0.365485	1.001807
C275	C	1.341731	0.615485	1.251807
C276	C	1.591731	0.865485	1.501807
C277	C	0.945265	0.037935	0.751818
C278	C	1.195265	0.287935	1.001818
C279	C	1.445265	0.537935	1.251818
C280	C	1.695265	0.787935	1.501818
C281	C	0.945258	0.037933	0.668367
C282	C	1.195258	0.287933	0.918367
C283	C	1.445258	0.537933	1.168367
C284	C	1.695258	0.787933	1.418367
C285	C	0.893479	0.076706	0.626638
C286	C	1.143479	0.326706	0.876638
C287	C	1.393479	0.576706	1.126638
C288	C	1.643479	0.826706	1.376638
C289	C	0.893474	0.076705	0.536150
C290	C	1.143474	0.326705	0.786150
C291	C	1.393474	0.576705	1.036150
C292	C	1.643474	0.826705	1.286150
C293	C	0.893475	0.076701	0.464027
C294	C	1.143475	0.326701	0.714027
C295	C	1.393475	0.576701	0.964027
C296	C	1.643475	0.826701	1.214027
H297	H	0.646612	0.174111	0.000038
H298	H	0.896612	0.424111	0.250038
H299	H	1.146612	0.674111	0.500038
H300	H	1.396612	0.924111	0.750038
F301	F	0.888128	-0.757827	-0.149135
F302	F	1.138128	-0.507827	0.100865
F303	F	1.388128	-0.257827	0.350865
F304	F	1.638128	-0.007827	0.600865
H305	H	0.799560	0.147055	0.634381
H306	H	1.049560	0.397055	0.884381
H307	H	1.299560	0.647055	1.134381
H308	H	1.549560	0.897055	1.384381
F309	F	0.786580	0.156736	0.203941
F310	F	1.036580	0.406736	0.453941
F311	F	1.286580	0.656736	0.703941
F312	F	1.536580	0.906736	0.953941
F313	F	0.898817	-0.088765	0.149298
F314	F	1.148817	0.161235	0.399298
F315	F	1.398817	0.411235	0.649298
F316	F	1.648817	0.661235	0.899298
H317	H	0.249333	0.169326	0.000066
H318	H	0.499333	0.419326	0.250066
H319	H	0.749333	0.669326	0.500066
H320	H	0.999333	0.919326	0.750066
H321	H	0.898738	-0.096147	-0.131009
H322	H	1.148738	0.153853	0.118991
H323	H	1.398738	0.403853	0.368991
H324	H	1.648738	0.653853	0.618991
F325	F	1.000329	-0.003346	0.376233
F326	F	1.250329	0.246654	0.626233
F327	F	1.500329	0.496654	0.876233
F328	F	1.750329	0.746654	1.126233
F329	F	0.530102	-0.029013	0.000111
F330	F	0.780102	0.220987	0.250111
F331	F	1.030102	0.470987	0.500111
F332	F	1.280102	0.720987	0.750111
H333	H	0.892558	-0.477193	0.203471
H334	H	1.142558	-0.227193	0.453471
H335	H	1.392558	0.022807	0.703471
H336	H	1.642558	0.272807	0.953471
H337	H	0.894266	-0.369438	0.203475
H338	H	1.144266	-0.119438	0.453475
H339	H	1.394266	0.130562	0.703475
H340	H	1.644266	0.380562	0.953475
H341	H	0.889934	-0.642684	0.131187
H342	H	1.139934	-0.392684	0.381187
H343	H	1.389934	-0.142684	0.631187
H344	H	1.639934	0.107316	0.881187
H345	H	0.896974	-0.203961	0.131225
H346	H	1.146974	0.046039	0.381225
H347	H	1.396974	0.296039	0.631225
H348	H	1.646974	0.546039	0.881225
H349	H	0.799577	0.147062	0.785774
H350	H	1.049577	0.397062	1.035774
H351	H	1.299577	0.647062	1.285774
H352	H	1.549577	0.897062	1.535774
F353	F	1.000353	-0.003336	0.623969
F354	F	1.250353	0.246664	0.873969
F355	F	1.500353	0.496664	1.123969
F356	F	1.750353	0.746664	1.373969
F357	F	0.890096	-0.635205	-0.149134
F358	F	1.140096	-0.385205	0.100866
F359	F	1.390096	-0.135205	0.350866
F360	F	1.640096	0.114795	0.600866
F361	F	0.786596	0.156739	0.376206
F362	F	1.036596	0.406739	0.626206
F363	F	1.286596	0.656739	0.876206
F364	F	1.536596	0.906739	1.126206
F365	F	0.491186	0.185243	0.000047
F366	F	0.741186	0.435243	0.250047
F367	F	0.991186	0.685243	0.500047
F368	F	1.241186	0.935243	0.750047
F369	F	1.000370	-0.003333	0.796235
F370	F	1.250370	0.246667	1.046235
F371	F	1.500370	0.496667	1.296235
F372	F	1.750370	0.746667	1.546235
H373	H	0.987381	0.006349	0.214405
H374	H	1.237381	0.256349	0.464405
H375	H	1.487381	0.506349	0.714405
H376	H	1.737381	0.756349	0.964405
H377	H	0.106121	0.167602	0.000077
H378	H	0.356121	0.417602	0.250077
H379	H	0.606121	0.667602	0.500077
H380	H	0.856121	0.917602	0.750077
H381	H	0.283535	-0.018983	0.000125
H382	H	0.533535	0.231017	0.250125
H383	H	0.783535	0.481017	0.500125
H384	H	1.033535	0.731017	0.750125
F385	F	0.132821	-0.033799	0.000129
F386	F	0.382821	0.216201	0.250129
F387	F	0.632821	0.466201	0.500129
F388	F	0.882821	0.716201	0.750129
H389	H	0.896992	-0.203899	-0.131026
H390	H	1.146992	0.046101	0.118974
H391	H	1.396992	0.296101	0.368974
H392	H	1.646992	0.546101	0.618974
F393	F	0.693051	-0.027054	0.000099
F394	F	0.943051	0.222946	0.250099
F395	F	1.193051	0.472946	0.500099
F396	F	1.443051	0.722946	0.750099
H397	H	0.892623	-0.477128	-0.203316
H398	H	1.142623	-0.227128	0.046684
H399	H	1.392623	0.022872	0.296684
H400	H	1.642623	0.272872	0.546684
F401	F	0.894476	-0.361952	-0.221378
F402	F	1.144476	-0.111952	0.028622
F403	F	1.394476	0.138048	0.278622
F404	F	1.644476	0.388048	0.528622
H405	H	0.888228	-0.750439	0.131176
H406	H	1.138228	-0.500439	0.381176
H407	H	1.388228	-0.250439	0.631176
H408	H	1.638228	-0.000439	0.881176
