data_functionalizedCrystal
_audit_creation_method	'MofGen! by Chris Wilmer'
_symmetry_space_group_name_H-M	'P1'
_symmetry_Int_Tables_number	1
_symmetry_cell_setting	triclinic
loop_
_symmetry_equiv_pos_as_xyz
  x,y,z
_cell_length_a	12.594517
_cell_length_b	12.594516
_cell_length_c	21.395356
_cell_angle_alpha	89.978924
_cell_angle_beta	89.993050
_cell_angle_gamma	90.011939
loop_
_atom_site_label
_atom_site_type_symbol
_atom_site_fract_x
_atom_site_fract_y
_atom_site_fract_z
Zn1	Zn	1.627219	-0.423881	-0.354133
Zn2	Zn	2.127219	0.076119	0.145867
Zn3	Zn	1.627124	-0.601875	-0.249368
Zn4	Zn	2.127124	-0.101875	0.250632
Zn5	Zn	1.449237	-0.423898	-0.249387
Zn6	Zn	1.949237	0.076102	0.250613
Zn7	Zn	1.449205	-0.601805	-0.354126
Zn8	Zn	1.949205	-0.101805	0.145874
O9	O	1.538197	-0.512865	-0.301754
O10	O	2.038197	-0.012865	0.198246
O11	O	1.776152	-0.447514	-0.340231
O12	O	2.276152	0.052486	0.159769
O13	O	1.603501	-0.578303	-0.161693
O14	O	2.103501	-0.078303	0.338307
O15	O	1.472900	-0.274950	-0.263292
O16	O	1.972900	0.225050	0.236708
O17	O	1.776083	-0.578286	-0.263261
O18	O	2.276083	-0.078286	0.236739
O19	O	1.603663	-0.274937	-0.340249
O20	O	2.103663	0.225063	0.159751
O21	O	1.472808	-0.447544	-0.161707
O22	O	1.972808	0.052456	0.338293
O23	O	1.300287	-0.447476	-0.263286
O24	O	1.800287	0.052524	0.236714
O25	O	1.472846	-0.578166	-0.441805
O26	O	1.972846	-0.078166	0.058195
O27	O	1.300264	-0.578183	-0.340237
O28	O	1.800264	-0.078183	0.159763
O29	O	1.603632	-0.447446	-0.441810
O30	O	2.103632	0.052554	0.058190
O31	O	1.603470	-0.750812	-0.263254
O32	O	2.103470	-0.250812	0.236746
O33	O	1.472754	-0.750760	-0.340219
O34	O	1.972754	-0.250760	0.159781
C35	C	1.261656	-0.512825	-0.301763
C36	C	1.761656	-0.012825	0.198237
C37	C	1.143350	-0.512833	-0.301782
C38	C	1.643350	-0.012833	0.198218
C39	C	1.074115	-0.584064	-0.343555
C40	C	1.574115	-0.084064	0.156445
C41	C	1.003305	-0.487020	-0.358963
C42	C	1.503305	0.012980	0.141037
C43	C	1.003362	-0.609957	-0.286360
C44	C	1.503362	-0.109957	0.213640
C45	C	1.074098	-0.415738	-0.317220
C46	C	1.574098	0.084262	0.182780
C47	C	1.074161	-0.538740	-0.244591
C48	C	1.574161	-0.038740	0.255409
C49	C	1.003383	-0.441629	-0.259977
C50	C	1.503383	0.058371	0.240023
C51	C	1.538127	-0.789406	-0.301747
C52	C	2.038127	-0.289406	0.198253
C53	C	1.538194	-0.907711	-0.301766
C54	C	2.038194	-0.407711	0.198234
C55	C	1.467091	-0.976975	-0.343598
C56	C	1.967091	-0.476975	0.156402
C57	C	1.441165	-1.047830	-0.286428
C58	C	1.941165	-0.547830	0.213572
C59	C	1.564217	-1.047655	-0.358945
C60	C	2.064217	-0.547655	0.141055
C61	C	1.512217	-0.977008	-0.244566
C62	C	2.012217	-0.477008	0.255434
C63	C	1.635314	-0.976827	-0.317121
C64	C	2.135314	-0.476827	0.182879
C65	C	1.609426	-1.047650	-0.259913
C66	C	2.109426	-0.547650	0.240087
C67	C	1.815817	-0.512906	-0.301744
C68	C	2.315817	-0.012906	0.198256
C69	C	1.934123	-0.512923	-0.301740
C70	C	2.434123	-0.012923	0.198260
C71	C	1.538296	-0.235244	-0.301773
C72	C	2.038296	0.264756	0.198227
C73	C	1.538338	-0.116938	-0.301782
C74	C	2.038338	0.383062	0.198218
C75	C	1.538246	-0.512796	-0.465177
C76	C	2.038246	-0.012796	0.034823
C77	C	1.538267	-0.512767	-0.534818
C78	C	2.038267	-0.012767	-0.034818
C79	C	1.606467	-0.444532	-1.036618
C80	C	2.106467	0.055468	-0.536618
C81	C	1.606459	-0.444557	-0.971183
C82	C	2.106459	0.055443	-0.471183
C83	C	1.538358	-0.512625	-0.938457
C84	C	2.038358	-0.012625	-0.438457
C85	C	1.470280	-0.580692	-0.971171
C86	C	1.970280	-0.080692	-0.471171
C87	C	1.470298	-0.580672	-1.036606
C88	C	1.970298	-0.080672	-0.536606
C89	C	1.442432	-0.521048	-0.834791
C90	C	1.942432	-0.021048	-0.334791
C91	C	1.442412	-0.521060	-0.769358
C92	C	1.942412	-0.021060	-0.269358
C93	C	1.538304	-0.512694	-0.736636
C94	C	2.038304	-0.012694	-0.236636
C95	C	1.634218	-0.504292	-0.769355
C96	C	2.134218	-0.004292	-0.269355
C97	C	1.634236	-0.504272	-0.834789
C98	C	2.134236	-0.004272	-0.334789
C99	C	1.538332	-0.512655	-0.867504
C100	C	2.038332	-0.012655	-0.367504
C101	C	1.606374	-0.444664	-0.632976
C102	C	2.106374	0.055336	-0.132976
C103	C	1.606367	-0.444697	-0.567540
C104	C	2.106367	0.055303	-0.067540
C105	C	1.470179	-0.580827	-0.567530
C106	C	1.970179	-0.080827	-0.067530
C107	C	1.470195	-0.580799	-0.632965
C108	C	1.970195	-0.080799	-0.132965
C109	C	1.538291	-0.512712	-0.665684
C110	C	2.038291	-0.012712	-0.165684
C111	C	1.538209	-0.512856	-0.138966
C112	C	2.038209	-0.012856	0.361034
C113	C	1.538394	-0.512585	-0.069325
C114	C	2.038394	-0.012585	0.430675
H115	H	0.972284	-0.692054	-0.273336
H116	H	1.472284	-0.192054	0.226664
Cl117	Cl	1.384609	-0.666355	-0.674085
Cl118	Cl	1.884609	-0.166355	-0.174085
Cl119	Cl	1.122071	-0.676891	-0.398162
Cl120	Cl	1.622071	-0.176891	0.101838
Cl121	Cl	1.314456	-1.095979	-0.266378
Cl122	Cl	1.814456	-0.595979	0.233622
H123	H	1.414734	-0.636253	-0.540885
H124	H	1.914734	-0.136253	-0.040885
H125	H	1.661921	-0.389095	-1.063254
H126	H	2.161921	0.110905	-0.563254
H127	H	1.717361	-0.945619	-0.330124
H128	H	2.217361	-0.445619	0.169876
H129	H	1.490170	-0.946103	-0.196203
H130	H	1.990170	-0.446103	0.303797
Cl131	Cl	1.702359	-1.095263	-0.205246
Cl132	Cl	2.202359	-0.595263	0.294754
H133	H	1.364313	-0.527901	-0.742723
H134	H	1.864313	-0.027901	-0.242723
H135	H	1.586169	-1.078688	-0.407294
H136	H	2.086169	-0.578688	0.092706
H137	H	0.972181	-0.465140	-0.407311
H138	H	1.472181	0.034860	0.092689
Cl139	Cl	0.955728	-0.348584	-0.205408
Cl140	Cl	1.455728	0.151416	0.294592
H141	H	1.364340	-0.527862	-0.861427
H142	H	1.864340	-0.027862	-0.361427
H143	H	1.661892	-0.389136	-0.944548
H144	H	2.161892	0.110864	-0.444548
Cl145	Cl	1.754808	-0.493726	-0.875920
Cl146	Cl	2.254808	0.006274	-0.375920
H147	H	1.712302	-0.497475	-0.742714
H148	H	2.212302	0.002525	-0.242714
H149	H	1.414834	-0.636116	-0.944522
H150	H	1.914834	-0.136116	-0.444522
Cl151	Cl	1.691960	-0.359053	-0.674112
Cl152	Cl	2.191960	0.140947	-0.174112
Cl153	Cl	1.121863	-0.288946	-0.337418
Cl154	Cl	1.621863	0.211054	0.162582
H155	H	1.661808	-0.389283	-0.540911
H156	H	2.161808	0.110717	-0.040911
Cl157	Cl	1.122215	-0.572546	-0.169954
Cl158	Cl	1.622215	-0.072546	0.330046
Cl159	Cl	1.374095	-0.929057	-0.398136
Cl160	Cl	1.874095	-0.429057	0.101864
H161	H	1.414863	-0.636092	-1.063235
H162	H	1.914863	-0.136092	-0.563235
