data_functionalizedCrystal
_audit_creation_method	'MofGen! by Chris Wilmer'
_symmetry_space_group_name_H-M	'P1'
_symmetry_Int_Tables_number	1
_symmetry_cell_setting	triclinic
loop_
_symmetry_equiv_pos_as_xyz
  x,y,z
_cell_length_a	10.489711
_cell_length_b	27.732048
_cell_length_c	9.565339
_cell_angle_alpha	89.995294
_cell_angle_beta	89.994873
_cell_angle_gamma	83.584832
loop_
_atom_site_label
_atom_site_type_symbol
_atom_site_fract_x
_atom_site_fract_y
_atom_site_fract_z
O1	O	1.691081	0.068119	-0.116327
O2	O	1.319598	0.074535	-0.116321
O3	O	1.516877	0.001002	-0.116298
O4	O	1.493802	0.141651	-0.116351
O5	O	1.516862	0.001007	0.116222
O6	O	1.319583	0.074539	0.116199
O7	O	1.691065	0.068123	0.116193
Zn8	Zn	1.505322	0.071332	0.153114
Zn9	Zn	1.505342	0.071326	-0.153242
O10	O	1.493787	0.141656	0.116170
C11	C	1.272080	0.074055	-0.000059
C12	C	1.130512	0.072615	-0.000056
C13	C	0.946181	0.116835	-0.000088
C14	C	1.039306	0.094744	-0.114722
C15	C	1.039264	0.094737	0.114524
C16	C	0.971412	0.047933	-0.114813
C17	C	0.971360	0.047932	0.114536
C18	C	1.064458	0.025807	-0.000126
C19	C	1.516385	-0.017005	-0.000034
C20	C	1.514926	-0.070669	-0.000022
C21	C	1.622323	-0.408811	-0.000096
C22	C	1.616911	-0.610504	-0.000115
O23	O	1.715118	-0.641144	-0.000178
N24	N	1.499933	-0.630362	-0.000112
C25	C	1.384300	-0.599792	-0.000113
O26	O	1.284679	-0.621310	-0.000125
C27	C	1.389713	-0.398100	-0.000103
C28	C	1.506698	-0.378245	-0.000093
C29	C	1.739299	-0.388956	-0.000087
C30	C	1.740651	-0.338536	-0.000074
C31	C	1.625026	-0.307970	-0.000071
C32	C	1.508050	-0.327825	-0.000080
C33	C	1.274081	-0.367531	-0.000114
C34	C	1.275444	-0.317105	-0.000116
C35	C	1.392430	-0.297251	-0.000105
C36	C	1.393777	-0.246839	-0.000064
N37	N	1.510755	-0.226982	-0.000068
C38	C	1.626380	-0.257547	-0.000071
C39	C	1.381466	-0.705684	-0.000115
C40	C	1.380113	-0.756107	-0.000115
C41	C	1.612725	-0.766816	-0.000120
C42	C	1.614077	-0.716392	-0.000110
C43	C	1.498444	-0.685827	-0.000118
C44	C	1.629210	-0.151660	-0.000044
C45	C	1.630551	-0.101235	-0.000026
C46	C	1.397940	-0.090531	-0.000028
C47	C	1.396597	-0.140951	-0.000039
C48	C	1.512243	-0.171516	-0.000051
O49	O	1.295623	-0.216170	-0.000017
O50	O	1.725987	-0.236020	-0.000090
C51	C	1.620971	-0.459231	-0.000108
C52	C	1.503995	-0.479086	-0.000118
C53	C	1.388371	-0.448521	-0.000114
C54	C	1.502642	-0.529509	-0.000117
C55	C	1.618266	-0.560075	-0.000121
C56	C	1.735244	-0.540217	-0.000124
C57	C	1.736596	-0.489797	-0.000112
C58	C	1.271393	-0.468378	-0.000111
C59	C	1.270050	-0.518799	-0.000122
C60	C	1.385675	-0.549364	-0.000125
C61	C	1.738584	0.068603	-0.000072
C62	C	1.880152	0.070043	-0.000085
C63	C	1.494279	0.159663	-0.000097
C64	C	1.495737	0.213327	-0.000118
N65	N	1.505317	0.071336	0.362193
N66	N	1.505357	0.071318	-0.362321
C67	C	1.414055	0.105331	0.453385
C68	C	1.529124	0.115106	0.546558
C69	C	1.390298	0.061565	0.546576
C70	C	1.620443	0.081133	0.453314
C71	C	1.481542	0.027573	0.453323
C72	C	1.596695	0.037329	0.546454
H73	H	1.069436	0.114542	-0.211648
O74	O	1.321914	0.139629	0.404786
C75	C	1.200953	0.129709	0.454310
H76	H	1.214004	0.106692	0.553102
H77	H	1.139702	0.165269	0.479018
H78	H	1.151343	0.109145	0.370858
O79	O	1.741463	-0.181395	0.000137
C80	C	1.747653	-0.210878	0.120574
H81	H	1.646470	-0.213791	0.160715
H82	H	1.795947	-0.248599	0.093488
H83	H	1.805548	-0.194087	0.204907
H84	H	0.894801	0.155294	-0.000217
H85	H	1.717750	0.089434	0.412520
H86	H	1.181280	-0.292221	-0.000124
O87	O	1.552932	0.159280	0.595362
C88	C	1.456493	0.195028	0.547925
H89	H	1.366342	0.177386	0.521789
H90	H	1.433727	0.223394	0.633221
H91	H	1.491426	0.213209	0.450411
H92	H	1.069342	0.114545	0.211439
O93	O	1.744309	-0.082029	-0.000083
C94	C	1.846068	-0.119823	-0.000059
H95	H	1.811003	-0.154193	-0.044086
H96	H	1.927807	-0.108999	-0.067565
H97	H	1.881679	-0.126839	0.111491
O98	O	1.850349	-0.470594	-0.000173
C99	C	1.952098	-0.508392	-0.000144
H100	H	1.917023	-0.542761	-0.044166
H101	H	2.033841	-0.497573	-0.067653
H102	H	1.987707	-0.515408	0.111406
H103	H	1.303801	-0.065635	-0.000020
O104	O	1.125559	-0.020104	0.000070
C105	C	1.202152	-0.027204	0.121037
H106	H	1.163557	-0.000350	0.205221
H107	H	1.199636	-0.065820	0.160955
H108	H	1.305194	-0.021182	0.094753
H109	H	1.829390	-0.565113	-0.000121
O110	O	1.457325	-0.016515	0.404246
C111	C	1.345635	-0.010984	0.321151
H112	H	1.329022	0.027833	0.280336
H113	H	1.357781	-0.037241	0.229189
H114	H	1.259789	-0.019070	0.386732
O115	O	0.935157	0.024485	0.230352
C116	C	0.847870	0.056078	0.308671
H117	H	0.799852	0.085658	0.237360
H118	H	0.771760	0.034749	0.356229
H119	H	0.901413	0.073372	0.395756
H120	H	1.673973	0.008572	0.587061
H121	H	1.174780	-0.534959	-0.000118
O122	O	1.158984	-0.438740	-0.000286
C123	C	1.087918	-0.447792	-0.120724
H124	H	1.120024	-0.485920	-0.160890
H125	H	0.981475	-0.444627	-0.093629
H126	H	1.104786	-0.420147	-0.205041
H127	H	1.835913	-0.322375	-0.000071
O128	O	0.935625	0.024411	-0.230673
C129	C	0.849235	0.056011	-0.310032
H130	H	0.863147	0.095199	-0.284060
H131	H	0.868046	0.049147	-0.426111
H132	H	0.746657	0.049239	-0.284100
O133	O	1.851744	-0.418574	-0.000023
C134	C	1.955263	-0.390226	-0.000053
H135	H	1.922103	-0.352715	0.043959
H136	H	2.036212	-0.408534	0.067464
H137	H	1.991182	-0.386507	-0.111602
O138	O	1.727828	-0.697187	-0.000176
C139	C	1.829582	-0.734984	-0.000139
H140	H	1.794512	-0.769354	-0.044152
H141	H	1.911322	-0.724164	-0.067653
H142	H	1.865193	-0.741995	0.111412
O143	O	1.269016	-0.676066	-0.000049
C144	C	1.165492	-0.704411	-0.000076
H145	H	1.198642	-0.741925	0.043939
H146	H	1.084535	-0.686105	0.067441
H147	H	1.129589	-0.708125	-0.111624
O148	O	1.274184	0.051681	0.595209
C149	C	1.192343	0.045225	0.481437
H150	H	1.252379	0.034541	0.384660
H151	H	1.129750	0.015359	0.507263
H152	H	1.128722	0.080554	0.460390
O153	O	1.724928	-0.796581	-0.000197
C154	C	1.698632	-0.845341	-0.000167
H155	H	1.598486	-0.847617	-0.044167
H156	H	1.772380	-0.867925	-0.067694
H157	H	1.703768	-0.859911	0.111381
O158	O	1.266553	-0.775447	-0.000298
C159	C	1.258799	-0.804278	-0.120743
H160	H	1.359577	-0.816486	-0.160888
H161	H	1.208609	-0.837467	-0.093665
H162	H	1.201943	-0.782197	-0.205069
H163	H	1.178819	-0.383687	-0.000132
H164	H	1.301338	-0.157118	-0.000009
