data_functionalizedCrystal
_audit_creation_method	'MofGen! by Chris Wilmer'
_symmetry_space_group_name_H-M	'P1'
_symmetry_Int_Tables_number	1
_symmetry_cell_setting	triclinic
loop_
_symmetry_equiv_pos_as_xyz
  x,y,z
_cell_length_a	10.540539
_cell_length_b	10.540539
_cell_length_c	10.868271
_cell_angle_alpha	89.997005
_cell_angle_beta	89.997750
_cell_angle_gamma	84.525492
loop_
_atom_site_label
_atom_site_type_symbol
_atom_site_fract_x
_atom_site_fract_y
_atom_site_fract_z
O1	O	1.685887	0.178901	-0.102258
O2	O	2.185887	0.678901	0.397742
O3	O	1.316474	0.195757	-0.102273
O4	O	1.816474	0.695757	0.397727
O5	O	1.509608	0.002623	-0.102263
O6	O	2.009608	0.502623	0.397737
O7	O	1.492752	0.372036	-0.102267
O8	O	1.992752	0.872036	0.397733
O9	O	1.509592	0.002615	0.102381
O10	O	2.009592	0.502615	0.602381
O11	O	1.316458	0.195749	0.102372
O12	O	1.816458	0.695749	0.602372
O13	O	1.685871	0.178894	0.102387
O14	O	2.185871	0.678894	0.602387
Zn15	Zn	1.501162	0.187320	0.134871
Zn16	Zn	2.001162	0.687320	0.634871
Zn17	Zn	1.501183	0.187330	-0.134757
Zn18	Zn	2.001183	0.687330	0.365243
O19	O	1.492736	0.372028	0.102378
O20	O	1.992736	0.872028	0.602378
C21	C	1.269163	0.194489	0.000048
C22	C	1.769163	0.694489	0.500048
C23	C	1.128215	0.190707	0.000042
C24	C	1.628215	0.690707	0.500042
C25	C	0.944788	0.045790	0.000521
C26	C	1.444788	0.545790	0.500521
C27	C	1.091406	0.049624	0.000047
C28	C	1.591406	0.549624	0.500047
C29	C	1.066551	0.258607	-0.116816
C30	C	1.566551	0.758607	0.383184
C31	C	0.920007	0.253792	-0.116901
C32	C	1.420007	0.753792	0.383099
C33	C	0.919500	0.256653	0.115818
C34	C	1.419500	0.756653	0.615818
C35	C	1.066482	0.257953	0.117350
C36	C	1.566482	0.757953	0.617350
C37	C	1.508336	-0.044684	0.000057
C38	C	2.008336	0.455316	0.500057
C39	C	1.504554	-0.185632	0.000050
C40	C	2.004554	0.314368	0.500050
C41	C	1.359637	-0.369059	-0.000415
C42	C	1.859637	0.130941	0.499585
C43	C	1.363471	-0.222441	0.000046
C44	C	1.863471	0.277559	0.500046
C45	C	1.572441	-0.247294	0.116915
C46	C	2.072441	0.252706	0.616915
C47	C	1.567626	-0.393839	0.117013
C48	C	2.067626	0.106161	0.617013
C49	C	1.570513	-0.394348	-0.115706
C50	C	2.070513	0.105652	0.384294
C51	C	1.571813	-0.247366	-0.117251
C52	C	2.071813	0.252634	0.382749
C53	C	1.733182	0.180161	0.000064
C54	C	2.233182	0.680161	0.500064
C55	C	1.874130	0.183943	0.000061
C56	C	2.374130	0.683943	0.500061
C57	C	1.494008	0.419335	0.000055
C58	C	1.994008	0.919335	0.500055
C59	C	1.497790	0.560283	0.000054
C60	C	1.997790	1.060283	0.500054
N61	N	1.501157	0.187313	0.318885
N62	N	2.001157	0.687313	0.818885
N63	N	1.501198	0.187328	-0.318771
N64	N	2.001198	0.687328	0.181229
C65	C	1.501176	0.187328	0.569891
C66	C	2.001176	0.687328	1.069891
C67	C	1.501161	0.187323	0.430214
C68	C	2.001161	0.687323	0.930214
H69	H	0.916196	-0.009949	0.084327
H70	H	1.416196	0.490051	0.584327
Br71	Br	1.740359	-0.473060	-0.117012
Br72	Br	2.240359	0.026940	0.382988
H73	H	1.107438	0.208350	0.203801
H74	H	1.607438	0.708350	0.703801
H75	H	1.524859	-0.425898	-0.204282
H76	H	2.024859	0.074102	0.295718
Br77	Br	1.745129	-0.210044	0.124171
Br78	Br	2.245129	0.289956	0.624171
Br79	Br	1.274440	-0.151420	-0.139583
Br80	Br	1.774440	0.348580	0.360417
H81	H	1.090708	0.360811	0.124405
H82	H	1.590708	0.860811	0.624405
H83	H	1.304126	-0.399270	0.082917
H84	H	1.804126	0.100730	0.582917
Br85	Br	1.273784	-0.152837	0.139895
Br86	Br	1.773784	0.347163	0.639895
H87	H	1.134013	-0.003802	0.083817
H88	H	1.634013	0.496198	0.583817
H89	H	1.088904	0.362215	-0.121165
H90	H	1.588904	0.862215	0.378835
Br91	Br	1.160958	-0.039640	-0.140057
Br92	Br	1.660958	0.460360	0.359943
Br93	Br	0.866917	0.180545	0.263456
Br94	Br	1.366917	0.680545	0.763456
Br95	Br	0.894444	-0.046723	-0.138369
Br96	Br	1.394444	0.453277	0.361631
Br97	Br	0.872991	0.170161	-0.262493
Br98	Br	1.372991	0.670161	0.237507
H99	H	1.669091	-0.441808	0.122319
H100	H	2.169091	0.058192	0.622319
Br101	Br	1.266750	-0.416715	-0.140101
Br102	Br	1.766750	0.083285	0.359899
Br103	Br	1.483977	-0.440852	0.262607
Br104	Br	1.983977	0.059148	0.762607
H105	H	0.872038	0.355257	-0.122206
H106	H	1.372038	0.855257	0.377794
H107	H	1.109147	0.211446	-0.203784
H108	H	1.609147	0.711446	0.296216
Br109	Br	1.493825	-0.176304	0.261864
Br110	Br	1.993825	0.323696	0.761864
H111	H	1.522141	-0.206505	-0.203705
H112	H	2.022141	0.293495	0.296295
H113	H	1.674674	-0.223145	-0.124304
H114	H	2.174674	0.276855	0.375696
H115	H	0.872273	0.358557	0.116606
H116	H	1.372273	0.858557	0.616606
