data_functionalizedCrystal
_audit_creation_method	'MofGen! by Chris Wilmer'
_symmetry_space_group_name_H-M	'P1'
_symmetry_Int_Tables_number	1
_symmetry_cell_setting	triclinic
loop_
_symmetry_equiv_pos_as_xyz
  x,y,z
_cell_length_a	19.121215
_cell_length_b	19.121063
_cell_length_c	21.395364
_cell_angle_alpha	87.573606
_cell_angle_beta	92.454287
_cell_angle_gamma	95.002544
loop_
_atom_site_label
_atom_site_type_symbol
_atom_site_fract_x
_atom_site_fract_y
_atom_site_fract_z
Zn1	Zn	1.063649	-0.234487	0.403764
Zn2	Zn	1.058561	-0.352125	0.303265
Zn3	Zn	0.946007	-0.239480	0.294702
Zn4	Zn	0.940925	-0.357125	0.403707
O5	O	1.002286	-0.295804	0.351360
O6	O	1.161440	-0.245910	0.394041
O7	O	1.043629	-0.337179	0.214451
O8	O	0.965869	-0.140350	0.305609
O9	O	1.157701	-0.332338	0.320205
O10	O	1.052300	-0.136682	0.385737
O11	O	0.960936	-0.254419	0.208160
O12	O	0.846868	-0.259268	0.305554
O13	O	0.957206	-0.340860	0.491392
O14	O	0.843134	-0.345701	0.385639
O15	O	1.047372	-0.250759	0.491435
O16	O	1.038700	-0.451255	0.320149
O17	O	0.952273	-0.454929	0.393943
C18	C	0.819470	-0.303569	0.344661
C19	C	0.741260	-0.306908	0.341811
C20	C	0.298821	-0.328045	0.323780
C21	C	0.372308	-0.324904	0.326453
C22	C	0.410997	-0.278409	0.366300
C23	C	0.376195	-0.235047	0.403472
C24	C	0.302710	-0.238185	0.400795
C25	C	0.632973	-0.266684	0.376306
C26	C	0.706463	-0.263551	0.378981
C27	C	0.702571	-0.353408	0.301961
C28	C	0.629084	-0.356544	0.299291
C29	C	0.594289	-0.313180	0.336460
C30	C	0.486112	-0.275199	0.369035
C31	C	0.519175	-0.316387	0.333722
C32	C	0.994402	-0.478623	0.357983
C33	C	0.991094	-0.556831	0.360840
C34	C	1.034572	-0.591635	0.323796
C35	C	1.031465	-0.665120	0.326487
C36	C	0.984875	-0.703798	0.366218
C37	C	0.941394	-0.668988	0.403266
C38	C	0.944506	-0.595505	0.400579
C39	C	0.973231	-0.925767	0.376257
C40	C	0.970121	-0.999256	0.378941
C41	C	1.060193	-0.995382	0.302162
C42	C	1.063298	-0.921897	0.299475
C43	C	1.019820	-0.887094	0.336525
C44	C	0.981696	-0.778911	0.368968
C45	C	1.023003	-0.811982	0.333778
C46	C	1.185815	-0.288010	0.358085
C47	C	1.264025	-0.284688	0.360950
C48	C	1.002290	-0.295810	0.514783
C49	C	1.002292	-0.295813	0.584425
C50	C	1.010219	-0.112271	0.344725
C51	C	1.013600	-0.034060	0.341897
C52	C	1.045344	-0.338892	1.089496
C53	C	1.045342	-0.338897	1.024061
C54	C	1.002290	-0.295808	0.988063
C55	C	0.959223	-0.252725	1.017505
C56	C	0.959220	-0.252726	1.082939
C57	C	0.999478	-0.232646	0.881899
C58	C	0.999485	-0.232644	0.816466
C59	C	1.002293	-0.295805	0.786242
C60	C	1.005108	-0.358970	0.821459
C61	C	1.005106	-0.358971	0.886893
C62	C	1.002287	-0.295802	0.917110
C63	C	1.045352	-0.338894	0.685855
C64	C	1.045345	-0.338901	0.620419
C65	C	0.959230	-0.252723	0.613863
C66	C	0.959232	-0.252723	0.679299
C67	C	1.002297	-0.295807	0.715291
C68	C	1.002279	-0.295814	1.188572
C69	C	1.002285	-0.295811	1.118931
H70	H	0.604651	-0.231376	0.406575
C71	C	0.418750	-0.183904	0.447304
H72	H	0.467499	-0.188249	0.443580
H73	H	0.408740	-0.137123	0.436055
H74	H	0.406271	-0.194799	0.489325
C75	C	0.911861	-0.205342	0.711681
H76	H	0.918017	-0.211522	0.755807
H77	H	0.924187	-0.157622	0.699631
H78	H	0.864141	-0.217668	0.699590
H79	H	0.517621	-0.237344	0.401480
C80	C	0.925395	-0.887493	0.417000
H81	H	0.897196	-0.921055	0.441039
H82	H	0.953493	-0.857646	0.444258
H83	H	0.895969	-0.860171	0.390831
H84	H	1.080408	-0.373977	1.118798
C85	C	1.085823	-0.549095	0.280092
H86	H	1.111277	-0.580351	0.258420
H87	H	1.060146	-0.521606	0.250739
H88	H	1.117678	-0.519092	0.304159
C89	C	0.264433	-0.190496	0.441687
H90	H	0.297998	-0.162361	0.465807
H91	H	0.237078	-0.161017	0.415610
H92	H	0.234616	-0.218693	0.468881
H93	H	0.903463	-0.700486	0.435620
H94	H	1.066870	-0.693454	0.296321
C95	C	1.074250	-0.769441	0.290075
H96	H	1.099704	-0.800691	0.268397
H97	H	1.048567	-0.741952	0.260728
H98	H	1.106105	-0.739438	0.314143
H99	H	0.909102	-0.567168	0.430744
H100	H	0.487672	-0.354241	0.301276
C101	C	1.092710	-0.386283	0.991673
H102	H	1.086539	-0.380113	0.947548
H103	H	1.140430	-0.373972	1.003758
H104	H	1.080370	-0.434003	1.003726
C105	C	1.114551	-0.879356	0.255774
H106	H	1.140006	-0.910609	0.234101
H107	H	1.088873	-0.851867	0.226423
H108	H	1.146405	-0.849352	0.279843
C109	C	0.410582	-0.372598	0.285565
H110	H	0.377015	-0.400743	0.261456
H111	H	0.440398	-0.344408	0.258371
H112	H	0.437937	-0.402078	0.311647
H113	H	1.007396	-0.410402	0.915565
H114	H	1.095592	-1.023727	0.271999
C115	C	1.008192	-0.428451	0.788222
H116	H	1.007781	-0.419408	0.744208
H117	H	1.050056	-0.449132	0.801328
H118	H	0.968631	-0.459674	0.798616
C119	C	1.092718	-0.386287	0.725449
H120	H	1.118356	-0.411952	0.698545
H121	H	1.124538	-0.358063	0.751123
H122	H	1.064476	-0.418093	0.751099
H123	H	0.597589	-0.394405	0.266842
H124	H	0.932191	-1.030745	0.411307
H125	H	0.943761	-0.810412	0.401317
H126	H	0.924157	-0.217643	1.106903
C127	C	1.092713	-0.386291	0.588041
H128	H	1.118364	-0.411943	0.618850
H129	H	1.064478	-0.418097	0.562637
H130	H	1.124534	-0.358062	0.562666
H131	H	0.924174	-0.217641	0.584554
H132	H	0.924168	-0.217643	0.988190
C133	C	0.740848	-0.401098	0.261073
H134	H	0.790154	-0.392568	0.268368
H135	H	0.726774	-0.448907	0.271443
H136	H	0.729237	-0.391229	0.218174
C137	C	0.996393	-0.163166	0.777733
H138	H	0.994708	-0.125551	0.805103
H139	H	1.036987	-0.155263	0.753465
H140	H	0.955563	-0.165817	0.750743
C141	C	0.256267	-0.379191	0.279951
H142	H	0.207517	-0.374857	0.283683
H143	H	0.268743	-0.368304	0.237931
H144	H	0.266281	-0.425973	0.291207
C145	C	0.996392	-0.163164	0.915139
H146	H	0.994727	-0.125546	0.884796
H147	H	0.955566	-0.165809	0.939203
H148	H	1.036991	-0.155269	0.941919
H149	H	0.737962	-0.225684	0.411428
