data_functionalizedCrystal
_audit_creation_method	'MofGen! by Chris Wilmer'
_symmetry_space_group_name_H-M	'P1'
_symmetry_Int_Tables_number	1
_symmetry_cell_setting	triclinic
loop_
_symmetry_equiv_pos_as_xyz
  x,y,z
_cell_length_a	16.109301
_cell_length_b	14.853559
_cell_length_c	14.586319
_cell_angle_alpha	89.997993
_cell_angle_beta	90.003489
_cell_angle_gamma	83.546519
loop_
_atom_site_label
_atom_site_type_symbol
_atom_site_fract_x
_atom_site_fract_y
_atom_site_fract_z
O1	O	1.103294	0.115877	0.076185
O2	O	1.603294	0.615877	0.576185
O3	O	0.861251	0.130298	0.076198
O4	O	1.361251	0.630298	0.576198
O5	O	0.988741	-0.008153	0.076190
O6	O	1.488741	0.491847	0.576190
O7	O	0.975804	0.254329	0.076193
O8	O	1.475804	0.754329	0.576193
O9	O	0.988726	-0.008145	-0.076290
O10	O	1.488726	0.491855	0.423710
O11	O	0.861236	0.130306	-0.076283
O12	O	1.361236	0.630306	0.423717
O13	O	1.103278	0.115885	-0.076295
O14	O	1.603278	0.615885	0.423705
Cu15	Cu	0.982255	0.123097	-0.090212
Cu16	Cu	1.482255	0.623097	0.409788
Cu17	Cu	0.982274	0.123087	0.090114
Cu18	Cu	1.482274	0.623087	0.590114
O19	O	0.975788	0.254337	-0.076288
O20	O	1.475788	0.754337	0.423712
C21	C	0.830268	0.129718	-0.000041
C22	C	1.330268	0.629718	0.499959
C23	C	0.737970	0.127967	-0.000036
C24	C	1.237970	0.627967	0.499964
C25	C	0.429077	0.204395	-0.000051
C26	C	0.929077	0.704395	0.499949
C27	C	0.515800	0.206050	-0.000046
C28	C	1.015800	0.706050	0.499954
C29	C	0.535447	0.041781	-0.000035
C30	C	1.035447	0.541781	0.499965
C31	C	0.448726	0.040128	-0.000034
C32	C	0.948726	0.540128	0.499966
C33	C	0.395543	0.121438	-0.000047
C34	C	0.895543	0.621438	0.499953
C35	C	0.568986	0.124745	-0.000043
C36	C	1.068986	0.624745	0.499957
C37	C	0.663015	0.126538	-0.000037
C38	C	1.163015	0.626538	0.499963
C39	C	0.301508	0.119646	-0.000051
C40	C	0.801508	0.619646	0.499949
C41	C	0.988149	-0.041737	-0.000048
C42	C	1.488149	0.458263	0.499952
C43	C	0.986396	-0.141818	-0.000043
C44	C	1.486396	0.358182	0.499957
C45	C	0.978968	-0.564986	0.083075
C46	C	1.478968	-0.064986	0.583075
C47	C	0.978951	-0.564971	-0.083166
C48	C	1.478951	-0.064971	0.416834
C49	C	0.980605	-0.470941	-0.083167
C50	C	1.480605	0.029059	0.416833
C51	C	0.981439	-0.423928	-0.000046
C52	C	1.481439	0.076072	0.499954
C53	C	0.980619	-0.470946	0.083076
C54	C	1.480619	0.029054	0.583076
C55	C	0.981416	-0.423915	-0.166287
C56	C	1.481416	0.076085	0.333713
C57	C	0.983069	-0.329878	-0.166291
C58	C	1.483069	0.170122	0.333709
C59	C	0.983909	-0.282865	-0.083169
C60	C	1.483909	0.217135	0.416831
C61	C	0.983090	-0.329888	-0.000044
C62	C	1.483090	0.170112	0.499956
C63	C	0.983925	-0.282876	0.083077
C64	C	1.483925	0.217124	0.583077
C65	C	0.983112	-0.329899	0.166203
C66	C	1.483112	0.170101	0.666203
C67	C	0.981460	-0.423932	0.166198
C68	C	1.481460	0.076068	0.666198
C69	C	0.985562	-0.188831	-0.083164
C70	C	1.485562	0.311169	0.416836
C71	C	0.985576	-0.188836	0.083079
C72	C	1.485576	0.311164	0.583079
C73	C	1.134261	0.116465	-0.000055
C74	C	1.634261	0.616465	0.499945
C75	C	1.226559	0.118217	-0.000053
C76	C	1.726559	0.618217	0.499947
C77	C	0.976381	0.287921	-0.000047
C78	C	1.476381	0.787921	0.499953
C79	C	0.978134	0.388002	-0.000046
C80	C	1.478134	0.888002	0.499954
N81	N	0.982249	0.123103	-0.217044
N82	N	1.482249	0.623103	0.282956
C83	C	1.032747	0.177786	-0.452052
C84	C	1.532747	0.677786	0.047948
C85	C	1.032755	0.177779	-0.548033
C86	C	1.532755	0.677779	-0.048033
C87	C	0.931787	0.068384	-0.548039
C88	C	1.431787	0.568384	-0.048039
C89	C	0.931784	0.068387	-0.452059
C90	C	1.431784	0.568387	0.047941
C91	C	0.982262	0.123092	-0.404068
C92	C	1.482262	0.623092	0.095932
C93	C	0.982274	0.123084	-0.596029
C94	C	1.482274	0.623084	-0.096029
C95	C	0.982283	0.123077	-0.700096
C96	C	1.482283	0.623077	-0.200096
C97	C	0.982254	0.123098	-0.299995
C98	C	1.482254	0.623098	0.200005
N99	N	0.982287	0.123073	0.216946
N100	N	1.482287	0.623073	0.716946
H101	H	0.986259	-0.150566	0.150767
H102	H	1.486259	0.349434	0.650767
H103	H	1.073866	0.222315	-0.587098
H104	H	1.573866	0.722315	-0.087098
H105	H	0.978266	-0.603254	-0.150839
H106	H	1.478266	-0.103254	0.349161
N107	N	0.412550	-0.049351	-0.000024
N108	N	0.912550	0.450649	0.499976
H109	H	0.459398	-0.100610	-0.000023
H110	H	0.959398	0.399390	0.499977
H111	H	0.376991	-0.053614	-0.056549
H112	H	0.876991	0.446386	0.443451
N113	N	0.983957	-0.279172	-0.255947
N114	N	1.483957	0.220828	0.244053
H115	H	1.036143	-0.247488	-0.259650
H116	H	1.536143	0.252512	0.240350
H117	H	0.933113	-0.232874	-0.259601
H118	H	1.433113	0.267126	0.240399
N119	N	1.087199	0.236772	-0.400285
N120	N	1.587199	0.736772	0.099715
H121	H	1.051054	0.280892	-0.360469
H122	H	1.551054	0.780892	0.139531
H123	H	1.119177	0.271356	-0.445306
H124	H	1.619177	0.771356	0.054694
N125	N	0.592808	-0.045913	-0.000028
N126	N	1.092808	0.454087	0.499972
H127	H	0.652835	-0.032280	-0.000033
H128	H	1.152835	0.467720	0.499967
H129	H	0.581932	-0.082066	-0.056553
H130	H	1.081932	0.417934	0.443447
H131	H	0.986204	-0.150546	-0.150844
H132	H	1.486204	0.349454	0.349156
H133	H	0.890689	0.023846	-0.587124
H134	H	1.390689	0.523846	-0.087124
H135	H	0.978309	-0.603276	0.150754
H136	H	1.478309	-0.103276	0.650754
N137	N	0.983931	-0.279178	0.255854
N138	N	1.483931	0.220822	0.755854
H139	H	0.985072	-0.212469	0.243235
H140	H	1.485072	0.287531	0.743235
H141	H	1.035124	-0.302898	0.292206
H142	H	1.535124	0.197102	0.792206
H143	H	0.890672	0.023844	-0.412990
H144	H	1.390672	0.523844	0.087010
N145	N	0.980535	-0.474620	-0.255934
N146	N	1.480535	0.025380	0.244066
H147	H	0.979379	-0.541327	-0.243320
H148	H	1.479379	-0.041327	0.256680
H149	H	1.032327	-0.465495	-0.292216
H150	H	1.532327	0.034505	0.207784
H151	H	0.980797	-0.462227	0.233875
H152	H	1.480797	0.037773	0.733875
N153	N	0.371727	0.292098	-0.000076
N154	N	0.871727	0.792098	0.499924
H155	H	0.382526	0.328299	0.056443
H156	H	0.882526	0.828299	0.556443
H157	H	0.311720	0.278403	-0.000118
H158	H	0.811720	0.778403	0.499882
N159	N	0.551970	0.295525	-0.000041
N160	N	1.051970	0.795525	0.499959
H161	H	0.505117	0.346779	-0.000046
H162	H	1.005117	0.846779	0.499954
H163	H	0.587524	0.299792	-0.056564
H164	H	1.087524	0.799792	0.443436
