data_functionalizedCrystal
_audit_creation_method	'MofGen! by Chris Wilmer'
_symmetry_space_group_name_H-M	'P1'
_symmetry_Int_Tables_number	1
_symmetry_cell_setting	triclinic
loop_
_symmetry_equiv_pos_as_xyz
  x,y,z
_cell_length_a	16.120530
_cell_length_b	12.594516
_cell_length_c	16.120297
_cell_angle_alpha	92.876309
_cell_angle_beta	90.128140
_cell_angle_gamma	87.107535
loop_
_atom_site_label
_atom_site_type_symbol
_atom_site_fract_x
_atom_site_fract_y
_atom_site_fract_z
Zn1	Zn	1.247525	-0.539250	-0.534592
Zn2	Zn	1.254502	-0.708694	-0.395543
Zn3	Zn	1.115513	-0.521264	-0.388509
Zn4	Zn	1.108459	-0.707714	-0.527512
O5	O	1.181500	-0.619231	-0.461539
O6	O	1.364818	-0.569665	-0.522053
O7	O	1.241937	-0.676714	-0.278244
O8	O	1.133056	-0.374708	-0.407906
O9	O	1.369944	-0.694154	-0.419895
O10	O	1.230045	-0.387922	-0.515233
O11	O	1.139822	-0.539010	-0.273076
O12	O	0.998209	-0.538060	-0.401042
O13	O	1.121034	-0.692484	-0.644817
O14	O	0.993027	-0.675043	-0.503166
O15	O	1.223205	-0.568715	-0.650019
O16	O	1.235097	-0.857506	-0.413030
O17	O	1.127800	-0.856786	-0.509987
C18	C	0.965445	-0.604494	-0.450573
C19	C	0.873015	-0.598217	-0.445901
C20	C	0.703784	-0.586731	-0.437379
C21	C	0.660053	-0.651812	-0.485759
C22	C	0.565887	-0.645422	-0.481018
C23	C	0.797959	-0.593120	-0.442120
C24	C	1.181462	-0.895768	-0.461523
C25	C	1.181520	-1.014079	-0.461547
C26	C	1.239941	-1.083693	-0.408875
C27	C	1.256413	-1.160447	-0.485802
C28	C	1.165150	-1.148134	-0.384674
C29	C	1.198029	-1.089279	-0.538516
C30	C	1.106733	-1.076955	-0.437335
C31	C	1.123174	-1.153678	-0.514313
C32	C	1.398398	-0.634025	-0.472548
C33	C	1.490827	-0.640330	-0.477240
C34	C	1.170555	-0.632496	-0.678434
C35	C	1.165890	-0.638149	-0.770862
C36	C	1.181559	-0.341616	-0.461575
C37	C	1.181585	-0.223313	-0.461590
C38	C	1.157344	-0.648444	-0.940087
C39	C	1.205819	-0.589709	-0.983851
C40	C	1.201064	-0.595437	-1.078014
C41	C	1.162098	-0.642717	-0.845915
C42	C	1.192450	-0.605943	-0.245490
C43	C	1.197275	-0.600001	-0.153071
H44	H	1.289351	-1.052958	-0.364374
H45	H	1.112277	-0.703028	-0.973335
C46	C	0.658829	-0.504992	-0.376611
H47	H	0.600520	-0.511380	-0.381352
H48	H	0.672402	-0.435191	-0.389565
H49	H	0.675817	-0.518000	-0.321416
H50	H	1.319686	-1.196913	-0.506304
H51	H	1.211836	-1.063357	-0.603597
H52	H	0.693335	-0.712328	-0.530741
C53	C	1.056469	-1.194956	-0.574581
H54	H	1.068260	-1.174828	-0.629162
H55	H	1.003459	-1.165174	-0.557834
H56	H	1.056553	-1.270346	-0.573938
C57	C	1.266713	-0.515972	-0.938943
H58	H	1.296500	-0.479870	-0.978787
H59	H	1.304611	-0.557143	-0.906903
H60	H	1.236590	-0.465398	-0.903440
H61	H	1.151277	-1.174187	-0.319645
C62	C	1.021288	-1.027649	-0.409609
H63	H	1.009716	-1.047608	-0.354932
H64	H	0.979698	-1.052610	-0.446482
H65	H	1.021742	-0.952300	-0.410287
