data_functionalizedCrystal
_audit_creation_method	'MofGen! by Chris Wilmer'
_symmetry_space_group_name_H-M	'P1'
_symmetry_Int_Tables_number	1
_symmetry_cell_setting	triclinic
loop_
_symmetry_equiv_pos_as_xyz
  x,y,z
_cell_length_a	16.992694
_cell_length_b	15.995350
_cell_length_c	16.053802
_cell_angle_alpha	92.567808
_cell_angle_beta	87.249047
_cell_angle_gamma	87.080299
loop_
_atom_site_label
_atom_site_type_symbol
_atom_site_fract_x
_atom_site_fract_y
_atom_site_fract_z
O1	O	1.043694	0.174244	-0.069318
O2	O	0.815410	0.172295	-0.069342
O3	O	0.935792	0.051799	-0.069329
O4	O	0.923312	0.294739	-0.069332
O5	O	0.929166	0.058403	0.069530
O6	O	0.808784	0.178898	0.069516
O7	O	1.037068	0.180847	0.069540
Zn8	Zn	0.921874	0.180921	0.091575
Zn9	Zn	0.930604	0.172221	-0.091377
O10	O	0.916685	0.301343	0.069527
C11	C	0.782884	0.173091	0.000083
C12	C	0.695841	0.165614	0.000074
C13	C	0.645600	0.237749	0.000074
C14	C	0.563813	0.230720	0.000085
C15	C	0.532268	0.151555	0.000091
C16	C	0.582515	0.079414	0.000094
C17	C	0.664300	0.086444	0.000088
C18	C	0.288669	0.122417	0.000114
C19	C	0.206878	0.115392	0.000117
C20	C	0.188181	0.266699	0.000110
C21	C	0.269969	0.273722	0.000099
C22	C	0.320209	0.201582	0.000106
N23	N	0.448669	0.144368	0.000100
N24	N	0.403806	0.208770	0.000103
C25	C	0.931963	0.023872	0.000099
C26	C	0.930417	-0.069182	0.000094
C27	C	0.924861	-0.407302	0.000096
C28	C	0.839142	-0.365620	-0.000225
C29	C	0.840674	-0.268811	0.000089
C30	C	0.927617	-0.239557	0.000095
C31	C	0.966120	-0.274034	0.079392
C32	C	0.963963	-0.370810	0.079459
C33	C	0.973269	-0.378559	-0.078449
C34	C	0.973299	-0.281665	-0.079497
C35	C	0.929179	-0.144755	0.000096
C36	C	0.923302	-0.502103	0.000100
C37	C	1.069593	0.180051	0.000113
C38	C	1.156637	0.187528	0.000117
C39	C	0.920515	0.329270	0.000097
C40	C	0.922061	0.422324	0.000097
N41	N	0.915921	0.186859	0.216434
N42	N	0.936563	0.166277	-0.216236
C43	C	0.967163	0.135608	0.260134
C44	C	0.963006	0.139770	0.347541
C45	C	0.907611	0.195187	0.391245
C46	C	0.856364	0.246439	0.347539
C47	C	0.860518	0.242273	0.260135
C48	C	0.889469	0.213363	0.652653
C49	C	0.885321	0.217528	0.740064
C50	C	0.991962	0.110857	0.740059
C51	C	0.996114	0.106699	0.652652
C52	C	0.944864	0.157948	0.608954
N53	N	0.903363	0.199444	0.480589
N54	N	0.949109	0.153686	0.519612
H55	H	0.329565	0.063675	0.000120
C56	C	0.751363	0.351449	0.338759
C57	C	0.795467	0.307350	0.395577
H58	H	0.713764	0.389049	0.368416
H59	H	0.785615	0.382150	0.304663
H60	H	0.724788	0.313053	0.304673
H61	H	0.822047	0.345745	0.429659
H62	H	0.761209	0.276647	0.429687
C63	C	0.848168	0.350387	0.161822
C64	C	0.804194	0.298609	0.212094
H65	H	0.813392	0.385162	0.132161
H66	H	0.879174	0.384336	0.195910
H67	H	0.881750	0.316776	0.123290
H68	H	0.770616	0.332220	0.250630
H69	H	0.773174	0.264657	0.178002
H70	H	0.802329	-0.384808	0.056318
C71	C	1.065033	0.133507	0.445831
C72	C	1.019333	0.083442	0.395583
H73	H	1.099803	0.098729	0.475495
H74	H	1.094852	0.168633	0.411725
H75	H	1.031434	0.167102	0.484360
H76	H	1.052932	0.049850	0.357049
H77	H	0.989511	0.048301	0.429692
H78	H	0.556824	0.014956	0.000111
C79	C	0.783650	0.319227	0.661450
C80	C	0.833142	0.269703	0.604627
H81	H	0.748879	0.354014	0.631796
H82	H	0.753831	0.284093	0.695548
H83	H	0.814678	0.353171	0.695533
H84	H	0.802114	0.235754	0.570548
H85	H	0.862963	0.304841	0.570515
C86	C	0.773953	0.233165	0.838389
C87	C	0.824426	0.278440	0.788114
H88	H	0.736366	0.270769	0.868057
H89	H	0.747371	0.194790	0.804301
H90	H	0.803894	0.203240	0.876914
H91	H	0.794485	0.308360	0.749584
H92	H	0.851010	0.316830	0.822205
H93	H	0.930299	-0.388357	0.138731
C94	C	0.674572	-0.063821	0.000081
C95	C	0.719528	0.007151	0.000081
H96	H	0.708669	-0.112774	0.000073
H97	H	0.639983	-0.061115	0.048504
H98	H	0.644584	-0.065712	-0.048343
H99	H	0.749512	0.009045	0.048508
H100	H	0.754131	0.004444	-0.048347
H101	H	0.522910	0.289461	0.000084
H102	H	0.804493	-0.240478	0.057023
C103	C	1.072475	-0.215081	-0.160561
C104	C	1.059184	-0.255458	-0.085960
H105	H	1.125493	-0.198883	-0.164542
H106	H	1.063306	-0.252202	-0.206508
H107	H	1.037647	-0.166763	-0.161218
H108	H	1.094008	-0.303780	-0.085305
H109	H	1.068361	-0.218334	-0.040000
C110	C	0.773152	-0.305316	-0.123309
C111	C	0.799452	-0.237086	-0.076641
H112	H	0.747695	-0.285731	-0.170674
H113	H	0.816912	-0.342165	-0.141149
H114	H	0.737000	-0.334316	-0.089753
H115	H	0.835608	-0.208089	-0.110194
H116	H	0.755687	-0.200223	-0.058801
C117	C	1.004305	0.002737	0.838359
C118	C	1.048285	0.054517	0.788095
H119	H	1.039078	-0.032051	0.868010
H120	H	0.970730	0.036340	0.876891
H121	H	0.973292	-0.031206	0.804258
H122	H	1.079294	0.088465	0.822196
H123	H	1.081874	0.020911	0.749558
C124	C	1.043209	-0.036491	0.626240
C125	C	1.056987	0.045591	0.604838
H126	H	1.080784	-0.074270	0.596784
H127	H	1.047936	-0.041141	0.684585
H128	H	0.991563	-0.049733	0.611852
H129	H	1.108631	0.058835	0.619232
H130	H	1.052267	0.050243	0.546481
H131	H	0.807588	-0.389148	-0.057091
C132	C	1.101183	-0.343777	0.087190
C133	C	1.048700	-0.408433	0.084337
H134	H	1.153492	-0.367002	0.090210
H135	H	1.097576	-0.312772	0.038299
H136	H	1.088079	-0.307715	0.135006
H137	H	1.061800	-0.444492	0.036517
H138	H	1.052310	-0.439452	0.133233
H139	H	0.295647	0.338187	0.000085
C140	C	0.618896	0.386602	0.000077
C141	C	0.680270	0.324772	0.000069
H142	H	0.640299	0.440327	0.000081
H143	H	0.589691	0.378411	-0.048341
H144	H	0.585082	0.383007	0.048505
H145	H	0.714081	0.328362	-0.048362
H146	H	0.709488	0.332966	0.048492
H147	H	1.036506	-0.406115	-0.078977
C148	C	0.891524	-0.297859	0.206162
C149	C	0.922671	-0.234597	0.159055
H150	H	0.864702	-0.273512	0.255343
H151	H	0.855607	-0.327618	0.174080
H152	H	0.933146	-0.335341	0.221022
H153	H	0.881049	-0.197117	0.144189
H154	H	0.958591	-0.204824	0.191143
C155	C	1.078515	0.119900	0.161784
C156	C	1.028020	0.074668	0.212076
H157	H	1.116077	0.082268	0.132115
H158	H	1.048591	0.149840	0.123267
H159	H	1.105133	0.158260	0.195867
H160	H	1.001398	0.036312	0.177992
H161	H	1.057948	0.044714	0.250597
H162	H	0.147268	0.325432	0.000106
H163	H	1.029854	-0.255493	0.082346
C164	C	0.233569	-0.033469	0.000132
C165	C	0.172202	0.028367	0.000125
H166	H	0.212159	-0.087190	0.000140
H167	H	0.267385	-0.029888	-0.048287
H168	H	0.262773	-0.025272	0.048559
H169	H	0.143002	0.020174	-0.048305
H170	H	0.138373	0.024784	0.048549
H171	H	0.948107	-0.403833	-0.138552
H172	H	0.945181	-0.259275	-0.138159
