data_functionalizedCrystal
_audit_creation_method	'MofGen! by Chris Wilmer'
_symmetry_space_group_name_H-M	'P1'
_symmetry_Int_Tables_number	1
_symmetry_cell_setting	triclinic
loop_
_symmetry_equiv_pos_as_xyz
  x,y,z
_cell_length_a	13.033286
_cell_length_b	18.101397
_cell_length_c	13.033109
_cell_angle_alpha	97.149218
_cell_angle_beta	90.884484
_cell_angle_gamma	82.851152
loop_
_atom_site_label
_atom_site_type_symbol
_atom_site_fract_x
_atom_site_fract_y
_atom_site_fract_z
Zn1	Zn	1.645902	-0.477115	-0.381327
Zn2	Zn	1.895902	-0.227115	-0.131327
Zn3	Zn	2.145902	0.022885	0.118673
Zn4	Zn	2.395902	0.272885	0.368673
Zn5	Zn	1.623948	-0.583519	-0.209365
Zn6	Zn	1.873948	-0.333519	0.040635
Zn7	Zn	2.123948	-0.083519	0.290635
Zn8	Zn	2.373948	0.166481	0.540635
Zn9	Zn	1.452107	-0.446216	-0.231267
Zn10	Zn	1.702107	-0.196216	0.018733
Zn11	Zn	1.952107	0.053784	0.268733
Zn12	Zn	2.202107	0.303784	0.518733
Zn13	Zn	1.473901	-0.587419	-0.403155
Zn14	Zn	1.723901	-0.337419	-0.153155
Zn15	Zn	1.973901	-0.087419	0.096845
Zn16	Zn	2.223901	0.162581	0.346845
O17	O	1.548965	-0.523567	-0.306278
O18	O	1.798965	-0.273567	-0.056278
O19	O	2.048965	-0.023567	0.193722
O20	O	2.298965	0.226433	0.443722
O21	O	1.786889	-0.502528	-0.340214
O22	O	2.036889	-0.252528	-0.090214
O23	O	2.286889	-0.002528	0.159786
O24	O	2.536889	0.247472	0.409786
O25	O	1.582844	-0.550742	-0.068368
O26	O	1.832844	-0.300742	0.181632
O27	O	2.082844	-0.050742	0.431632
O28	O	2.332844	0.199258	0.681632
O29	O	1.477882	-0.346691	-0.251204
O30	O	1.727882	-0.096691	-0.001204
O31	O	1.977882	0.153309	0.248796
O32	O	2.227882	0.403309	0.498796
O33	O	1.770759	-0.580703	-0.213875
O34	O	2.020759	-0.330703	0.036125
O35	O	2.270759	-0.080703	0.286125
O36	O	2.520759	0.169297	0.536125
O37	O	1.620262	-0.369392	-0.361452
O38	O	1.870262	-0.119392	-0.111452
O39	O	2.120262	0.130608	0.138548
O40	O	2.370262	0.380608	0.388548
O41	O	1.456594	-0.449867	-0.084460
O42	O	1.706594	-0.199867	0.165540
O43	O	1.956594	0.050133	0.415540
O44	O	2.206594	0.300133	0.665540
O45	O	1.311099	-0.453648	-0.272370
O46	O	1.561099	-0.203648	-0.022370
O47	O	1.811099	0.046352	0.227630
O48	O	2.061099	0.296352	0.477630
O49	O	1.515026	-0.587350	-0.544161
O50	O	1.765026	-0.337350	-0.294161
O51	O	2.015026	-0.087350	-0.044161
O52	O	2.265026	0.162650	0.205839
O53	O	1.327111	-0.557389	-0.398655
O54	O	1.577111	-0.307389	-0.148655
O55	O	1.827111	-0.057389	0.101345
O56	O	2.077111	0.192611	0.351345
O57	O	1.641395	-0.506310	-0.528124
O58	O	1.891395	-0.256310	-0.278124
O59	O	2.141395	-0.006310	-0.028124
O60	O	2.391395	0.243690	0.221876
O61	O	1.603976	-0.687660	-0.235041
O62	O	1.853976	-0.437660	0.014959
O63	O	2.103976	-0.187660	0.264959
O64	O	2.353976	0.062340	0.514959
O65	O	1.493738	-0.690525	-0.377417
O66	O	1.743738	-0.440525	-0.127417
O67	O	1.993738	-0.190525	0.122583
O68	O	2.243738	0.059475	0.372583
C69	C	1.281794	-0.502589	-0.340259
C70	C	1.531794	-0.252589	-0.090259
C71	C	1.781794	-0.002589	0.159741
C72	C	2.031794	0.247411	0.409741
C73	C	1.167500	-0.493635	-0.354820
C74	C	1.417500	-0.243635	-0.104820
C75	C	1.667500	0.006365	0.145180
C76	C	1.917500	0.256365	0.395180
C77	C	1.108551	-0.528243	-0.298704
C78	C	1.358551	-0.278243	-0.048704
C79	C	1.608551	-0.028243	0.201296
C80	C	1.858551	0.221757	0.451296
C81	C	0.990423	-0.518989	-0.313753
C82	C	1.240423	-0.268989	-0.063753
C83	C	1.490423	-0.018989	0.186247
C84	C	1.740423	0.231011	0.436247
C85	C	1.548870	-0.715966	-0.306240
C86	C	1.798870	-0.465966	-0.056240
C87	C	2.048870	-0.215966	0.193760
C88	C	2.298870	0.034034	0.443760
C89	C	1.548928	-0.798286	-0.306246
C90	C	1.798928	-0.548286	-0.056246
C91	C	2.048928	-0.298286	0.193754
C92	C	2.298928	-0.048286	0.443754
C93	C	1.549072	-1.097396	-0.306323
C94	C	1.799072	-0.847396	-0.056323
C95	C	2.049072	-0.597396	0.193677
C96	C	2.299072	-0.347396	0.443677
C97	C	1.618182	-1.064199	-0.216559
C98	C	1.868182	-0.814199	0.033441
C99	C	2.118182	-0.564199	0.283441
C100	C	2.368182	-0.314199	0.533441
C101	C	1.618483	-0.978622	-0.216730
C102	C	1.868483	-0.728622	0.033270
C103	C	2.118483	-0.478622	0.283270
C104	C	2.368483	-0.228622	0.533270
C105	C	1.549000	-0.949004	-0.306284
C106	C	1.799000	-0.699004	-0.056284
C107	C	2.049000	-0.449004	0.193716
C108	C	2.299000	-0.199004	0.443716
C109	C	1.592143	-0.993304	-0.410940
C110	C	1.842143	-0.743304	-0.160940
C111	C	2.092143	-0.493304	0.089060
C112	C	2.342143	-0.243304	0.339060
C113	C	1.592701	-1.078953	-0.410428
C114	C	1.842701	-0.828953	-0.160428
C115	C	2.092701	-0.578953	0.089572
C116	C	2.342701	-0.328953	0.339572
C117	C	1.436726	-1.054552	-0.292395
C118	C	1.686726	-0.804552	-0.042395
C119	C	1.936726	-0.554552	0.207605
C120	C	2.186726	-0.304552	0.457605
C121	C	1.436956	-0.968699	-0.289907
C122	C	1.686956	-0.718699	-0.039907
C123	C	1.936956	-0.468699	0.210093
C124	C	2.186956	-0.218699	0.460093
C125	C	1.548959	-0.865139	-0.306268
C126	C	1.798959	-0.615139	-0.056268
C127	C	2.048959	-0.365139	0.193732
C128	C	2.298959	-0.115139	0.443732
C129	C	1.549116	-1.181262	-0.306345
C130	C	1.799116	-0.931262	-0.056345
C131	C	2.049116	-0.681262	0.193655
C132	C	2.299116	-0.431262	0.443655
C133	C	1.817179	-0.544627	-0.272166
C134	C	2.067179	-0.294627	-0.022166
C135	C	2.317179	-0.044627	0.227834
C136	C	2.567179	0.205373	0.477834
C137	C	1.931476	-0.553602	-0.257630
C138	C	2.181476	-0.303602	-0.007630
C139	C	2.431476	-0.053602	0.242370
C140	C	2.681476	0.196398	0.492370
C141	C	1.583090	-0.550712	-0.574498
C142	C	1.833090	-0.300712	-0.324498
C143	C	2.083090	-0.050712	-0.074498
C144	C	2.333090	0.199288	0.175502
C145	C	1.597633	-0.562279	-0.688798
C146	C	1.847633	-0.312279	-0.438798
C147	C	2.097633	-0.062279	-0.188798
C148	C	2.347633	0.187721	0.061202
C149	C	1.549090	-0.330422	-0.306336
C150	C	1.799090	-0.080422	-0.056336
C151	C	2.049090	0.169578	0.193664
C152	C	2.299090	0.419578	0.443664
C153	C	1.549144	-0.248115	-0.306361
C154	C	1.799144	0.001885	-0.056361
C155	C	2.049144	0.251885	0.193639
C156	C	2.299144	0.501885	0.443639
C157	C	1.541650	-0.517525	-0.747718
C158	C	1.791650	-0.267525	-0.497718
C159	C	2.041650	-0.017525	-0.247718
C160	C	2.291650	0.232475	0.002282
C161	C	1.556679	-0.529479	-0.865852
C162	C	1.806679	-0.279479	-0.615852
C163	C	2.056679	-0.029479	-0.365852
C164	C	2.306679	0.220521	-0.115852
C165	C	1.515031	-0.496479	-0.039095
C166	C	1.765031	-0.246479	0.210905
C167	C	2.015031	0.003521	0.460905
C168	C	2.265031	0.253521	0.710905
C169	C	1.500688	-0.484719	0.075230
C170	C	1.750688	-0.234719	0.325230
C171	C	2.000688	0.015281	0.575230
C172	C	2.250688	0.265281	0.825230
H173	H	1.130514	-0.457159	-0.414006
H174	H	1.380514	-0.207159	-0.164006
H175	H	1.630514	0.042841	0.085994
H176	H	1.880514	0.292841	0.335994
F177	F	1.581067	-0.938685	-0.114752
F178	F	1.831067	-0.688685	0.135248
F179	F	2.081067	-0.438685	0.385248
F180	F	2.331067	-0.188685	0.635248
H181	H	0.968457	-0.590091	-0.198450
H182	H	1.218457	-0.340091	0.051550
H183	H	1.468457	-0.090091	0.301550
H184	H	1.718457	0.159909	0.551550
H185	H	1.701423	-0.966266	-0.224849
H186	H	1.951423	-0.716266	0.025151
H187	H	2.201423	-0.466266	0.275151
H188	H	2.451423	-0.216266	0.525151
H189	H	1.145538	-0.564725	-0.239525
H190	H	1.395538	-0.314725	0.010475
H191	H	1.645538	-0.064725	0.260475
H192	H	1.895538	0.185275	0.510475
F193	F	0.942090	-0.471309	-0.391121
F194	F	1.192090	-0.221309	-0.141121
F195	F	1.442090	0.028691	0.108879
F196	F	1.692090	0.278691	0.358879
F197	F	1.394756	-0.929376	-0.189330
F198	F	1.644756	-0.679376	0.060670
F199	F	1.894756	-0.429376	0.310670
F200	F	2.144756	-0.179376	0.560670
H201	H	1.589788	-1.075245	-0.138255
H202	H	1.839788	-0.825245	0.111745
H203	H	2.089788	-0.575245	0.361745
H204	H	2.339788	-0.325245	0.611745
H205	H	1.700655	-1.093798	-0.224523
H206	H	1.950655	-0.843798	0.025477
H207	H	2.200655	-0.593798	0.275477
H208	H	2.450655	-0.343798	0.525477
H209	H	1.675230	-1.107498	-0.423835
H210	H	1.925230	-0.857498	-0.173835
H211	H	2.175230	-0.607498	0.076165
H212	H	2.425230	-0.357498	0.326165
F213	F	1.633869	-0.591137	-0.914224
F214	F	1.883869	-0.341137	-0.664224
F215	F	2.133869	-0.091137	-0.414224
F216	F	2.383869	0.158863	-0.164224
H217	H	1.441626	-0.437551	-0.887762
H218	H	1.691626	-0.187551	-0.637762
H219	H	1.941626	0.062449	-0.387762
H220	H	2.191626	0.312449	-0.137762
F221	F	1.530730	-1.108519	-0.499849
F222	F	1.780730	-0.858519	-0.249849
F223	F	2.030730	-0.608519	0.000151
F224	F	2.280730	-0.358519	0.250151
H225	H	1.656687	-0.609445	-0.725813
H226	H	1.906687	-0.359445	-0.475813
H227	H	2.156687	-0.109445	-0.225813
H228	H	2.406687	0.140555	0.024187
F229	F	1.529137	-0.969042	-0.499934
F230	F	1.779137	-0.719042	-0.249934
F231	F	2.029137	-0.469042	0.000066
F232	F	2.279137	-0.219042	0.250066
F233	F	1.698917	-0.976431	-0.429134
F234	F	1.948917	-0.726431	-0.179134
F235	F	2.198917	-0.476431	0.070866
F236	F	2.448917	-0.226431	0.320866
H237	H	1.385064	-1.076069	-0.357943
H238	H	1.635064	-0.826069	-0.107943
H239	H	1.885064	-0.576069	0.142057
H240	H	2.135064	-0.326069	0.392057
F241	F	1.388900	-1.069832	-0.195320
F242	F	1.638900	-0.819832	0.054680
F243	F	1.888900	-0.569832	0.304680
F244	F	2.138900	-0.319832	0.554680
F245	F	1.364571	-0.941495	-0.370557
F246	F	1.614571	-0.691495	-0.120557
F247	F	1.864571	-0.441495	0.129443
F248	F	2.114571	-0.191495	0.379443
H249	H	1.482590	-0.470362	-0.710703
H250	H	1.732590	-0.220362	-0.460703
H251	H	1.982590	0.029638	-0.210703
H252	H	2.232590	0.279638	0.039297
