data_functionalizedCrystal
_audit_creation_method	'MofGen! by Chris Wilmer'
_symmetry_space_group_name_H-M	'P1'
_symmetry_Int_Tables_number	1
_symmetry_cell_setting	triclinic
loop_
_symmetry_equiv_pos_as_xyz
  x,y,z
_cell_length_a	19.288864
_cell_length_b	17.699083
_cell_length_c	18.366186
_cell_angle_alpha	89.992864
_cell_angle_beta	89.977106
_cell_angle_gamma	83.209630
loop_
_atom_site_label
_atom_site_type_symbol
_atom_site_fract_x
_atom_site_fract_y
_atom_site_fract_z
O1	O	0.921465	0.094417	-0.060785
O2	O	1.421465	0.594417	0.439215
O3	O	0.719219	0.107154	-0.060735
O4	O	1.219219	0.607154	0.439265
O5	O	0.826056	-0.009412	-0.060755
O6	O	1.326056	0.490588	0.439245
O7	O	0.814628	0.210983	-0.060765
O8	O	1.314628	0.710983	0.439235
O9	O	0.826038	-0.009417	0.060345
O10	O	1.326038	0.490583	0.560345
O11	O	0.719201	0.107148	0.060364
O12	O	1.219201	0.607148	0.560364
O13	O	0.921446	0.094412	0.060315
O14	O	1.421446	0.594412	0.560315
Zn15	Zn	0.820321	0.100779	0.079567
Zn16	Zn	1.320321	0.600779	0.579567
Zn17	Zn	0.820345	0.100786	-0.079987
Zn18	Zn	1.320345	0.600786	0.420013
O19	O	0.814610	0.210977	0.060335
O20	O	1.314610	0.710977	0.560335
C21	C	0.693333	0.106741	-0.000179
C22	C	1.193333	0.606741	0.499821
C23	C	0.616228	0.105511	-0.000160
C24	C	1.116228	0.605511	0.499840
C25	C	0.571613	0.173906	-0.000174
C26	C	1.071613	0.673906	0.499826
C27	C	0.499164	0.172751	-0.000182
C28	C	0.999164	0.672751	0.499818
C29	C	0.471334	0.103196	-0.000190
C30	C	0.971334	0.603196	0.499810
C31	C	0.515959	0.034791	-0.000172
C32	C	1.015959	0.534791	0.499828
C33	C	0.588406	0.035949	-0.000156
C34	C	1.088406	0.535949	0.499844
C35	C	0.363014	0.048520	-0.042639
C36	C	0.863014	0.548520	0.457361
C37	C	0.290568	0.047365	-0.042659
C38	C	0.790568	0.547365	0.457341
C39	C	0.247884	0.099622	-0.000234
C40	C	0.747884	0.599622	0.499766
C41	C	0.277654	0.153047	0.042200
C42	C	0.777654	0.653047	0.542200
C43	C	0.350101	0.154205	0.042216
C44	C	0.850101	0.654205	0.542216
C45	C	0.392779	0.101932	-0.000206
C46	C	0.892779	0.601932	0.499794
C47	C	0.124712	0.166769	-0.000256
C48	C	0.624712	0.666769	0.499744
C49	C	0.052262	0.165610	-0.000260
C50	C	0.552262	0.665610	0.499740
C51	C	0.069059	0.027649	-0.000257
C52	C	0.569059	0.527649	0.499743
C53	C	0.141507	0.028809	-0.000246
C54	C	0.641507	0.528809	0.499754
C55	C	0.169329	0.098371	-0.000249
C56	C	0.669329	0.598371	0.499751
C57	C	0.825637	-0.037611	-0.000205
C58	C	1.325637	0.462389	0.499795
C59	C	0.824409	-0.121627	-0.000204
C60	C	1.324409	0.378373	0.499796
C61	C	0.887120	-0.170336	-0.000219
C62	C	1.387120	0.329664	0.499781
C63	C	0.885961	-0.249278	-0.000225
C64	C	1.385961	0.250722	0.499775
C65	C	0.822091	-0.279509	-0.000211
C66	C	1.322091	0.220491	0.499789
C67	C	0.759375	-0.230794	-0.000199
C68	C	1.259375	0.269206	0.499801
C69	C	0.760535	-0.151854	-0.000198
C70	C	1.260535	0.348146	0.499802
C71	C	0.754699	-0.549150	-0.000204
C72	C	1.254699	-0.049150	0.499796
C73	C	0.753545	-0.628097	-0.000203
C74	C	1.253545	-0.128097	0.499797
C75	C	0.880126	-0.646575	-0.000230
C76	C	1.380126	-0.146575	0.499770
C77	C	0.881285	-0.567635	-0.000230
C78	C	1.381285	-0.067635	0.499770
C79	C	0.818570	-0.518926	-0.000221
C80	C	1.318570	-0.018926	0.499779
C81	C	0.819827	-0.433329	-0.000216
C82	C	1.319827	0.066671	0.499784
C83	C	0.820834	-0.365105	-0.000211
C84	C	1.320834	0.134895	0.499789
C85	C	0.947332	0.094824	-0.000243
C86	C	1.447332	0.594824	0.499757
C87	C	1.024437	0.096054	-0.000267
C88	C	1.524437	0.596054	0.499733
C89	C	0.815028	0.239176	-0.000217
C90	C	1.315028	0.739176	0.499783
C91	C	0.816257	0.323193	-0.000222
C92	C	1.316257	0.823193	0.499778
N93	N	0.820310	0.100773	0.188458
N94	N	1.320310	0.600773	0.688458
N95	N	0.820361	0.100786	-0.188878
N96	N	1.320361	0.600786	0.311122
C97	C	0.867632	0.049183	0.226550
C98	C	1.367632	0.549183	0.726550
C99	C	0.867637	0.049180	0.302777
C100	C	1.367637	0.549180	0.802777
C101	C	0.820325	0.100780	0.340911
C102	C	1.320325	0.600780	0.840911
C103	C	0.772993	0.152373	0.302810
C104	C	1.272993	0.652373	0.802810
C105	C	0.772986	0.152370	0.226583
C106	C	1.272986	0.652370	0.726583
C107	C	0.811108	0.169742	0.461669
C108	C	1.311108	0.669742	0.961669
C109	C	0.811121	0.169746	0.537894
C110	C	1.311121	0.669746	1.037894
C111	C	0.820345	0.100789	0.576018
C112	C	1.320345	0.600789	1.076018
C113	C	0.829571	0.031825	0.537908
C114	C	1.329571	0.531825	1.037908
C115	C	0.829563	0.031822	0.461681
C116	C	1.329563	0.531822	0.961681
C117	C	0.820328	0.100788	0.423565
C118	C	1.320328	0.600788	0.923565
C119	C	0.867675	0.049191	0.696765
C120	C	1.367675	0.549191	1.196765
C121	C	0.867674	0.049187	0.772994
C122	C	1.367674	0.549187	1.272994
C123	C	0.773034	0.152387	0.773025
C124	C	1.273034	0.652387	1.273025
C125	C	0.773031	0.152385	0.696797
C126	C	1.273031	0.652385	1.196797
C127	C	0.820355	0.100788	0.658672
C128	C	1.320355	0.600788	1.158672
H129	H	0.493296	-0.021841	-0.000188
H130	H	0.993296	0.478159	0.499812
H131	H	0.707371	-0.255414	-0.000193
H132	H	1.207371	0.244586	0.499807
C133	C	0.637485	-0.039289	-0.000149
C134	C	1.137485	0.460711	0.499851
H135	H	0.610538	-0.080881	-0.000159
H136	H	1.110538	0.419119	0.499841
H137	H	0.666077	-0.041709	0.042084
H138	H	1.166077	0.458291	0.542084
H139	H	0.666114	-0.041699	-0.042382
H140	H	1.166114	0.458301	0.457618
C141	C	0.685717	-0.495578	-0.000195
C142	C	1.185717	0.004422	0.499805
H143	H	0.695550	-0.444233	-0.000207
H144	H	1.195550	0.055767	0.499793
H145	H	0.659512	-0.504720	0.042039
H146	H	1.159512	-0.004720	0.542039
H147	H	0.659535	-0.504720	-0.042427
H148	H	1.159535	-0.004720	0.457573
C149	C	0.957378	-0.137089	-0.000233
C150	C	1.457378	0.362911	0.499767
H151	H	0.994559	-0.177408	-0.000250
H152	H	1.494559	0.322592	0.499750
H153	H	0.960457	-0.106684	0.041996
H154	H	1.460457	0.393316	0.541996
H155	H	0.960466	-0.106675	-0.042470
H156	H	1.460466	0.393325	0.457530
H157	H	0.906174	0.007168	0.333797
H158	H	1.406174	0.507168	0.833797
C159	C	0.720938	0.209119	0.344750
C160	C	1.220938	0.709119	0.844750
H161	H	0.692744	0.239837	0.311143
H162	H	1.192744	0.739837	0.811143
H163	H	0.745856	0.240565	0.374474
H164	H	1.245856	0.740565	0.874474
H165	H	0.692080	0.181953	0.374498
H166	H	1.192080	0.681953	0.874498
H167	H	0.931192	-0.686243	-0.000241
H168	H	1.431192	-0.186243	0.499759
C169	C	0.691555	-0.098270	-0.000183
C170	C	1.191555	0.401730	0.499817
H171	H	0.701392	-0.046927	-0.000192
H172	H	1.201392	0.453073	0.499808
H173	H	0.665349	-0.107413	0.042052
H174	H	1.165349	0.392587	0.542052
H175	H	0.665370	-0.107407	-0.042414
H176	H	1.165370	0.392593	0.457586
H177	H	0.462831	0.228448	-0.000192
H178	H	0.962831	0.728448	0.499808
H179	H	0.906165	0.007168	0.195510
H180	H	1.406165	0.507168	0.695510
H181	H	0.734500	0.194397	0.665781
H182	H	1.234500	0.694397	1.165781
C183	C	0.839712	-0.044031	0.579833
C184	C	1.339712	0.455969	1.079833
H185	H	0.838386	-0.034156	0.630689
H186	H	1.338386	0.465844	1.130689
H187	H	0.883561	-0.071146	0.567326
H188	H	1.383561	0.428854	1.067326
H189	H	0.803432	-0.073584	0.567360
H190	H	1.303432	0.426416	1.067360
C191	C	0.839700	-0.044029	0.419760
C192	C	1.339700	0.455971	0.919760
H193	H	0.845290	-0.085099	0.453376
H194	H	1.345290	0.414901	0.953376
H195	H	0.880084	-0.045629	0.389921
H196	H	1.380084	0.454371	0.889921
H197	H	0.799966	-0.048161	0.390129
H198	H	1.299966	0.451839	0.890129
C199	C	0.800978	0.245601	0.579809
C200	C	1.300978	0.745601	1.079809
H201	H	0.795472	0.286668	0.546188
H202	H	1.295472	0.786668	1.046188
H203	H	0.840660	0.249695	0.609520
H204	H	1.340660	0.749695	1.109520
H205	H	0.760532	0.247243	0.609568
H206	H	1.260532	0.747243	1.109568
C207	C	0.257828	-0.011402	-0.089331
C208	C	0.757828	0.488598	0.410669
H209	H	0.293624	-0.042368	-0.114584
H210	H	0.793624	0.457632	0.385416
H211	H	0.226400	0.014307	-0.123457
H212	H	0.726400	0.514307	0.376543
H213	H	0.233271	-0.042413	-0.058739
H214	H	0.733271	0.457587	0.441261
C215	C	0.720937	0.209128	0.184678
C216	C	1.220937	0.709128	0.684678
H217	H	0.727709	0.201735	0.133819
H218	H	1.227709	0.701735	0.633819
H219	H	0.728395	0.259620	0.197161
H220	H	1.228395	0.759620	0.697161
H221	H	0.674594	0.201035	0.197190
H222	H	1.174594	0.701035	0.697190
H223	H	0.906207	0.007175	0.665722
H224	H	1.406207	0.507175	1.165722
H225	H	0.906208	0.007172	0.804009
H226	H	1.406208	0.507172	1.304009
C227	C	0.683285	-0.661349	-0.000198
C228	C	1.183285	-0.161349	0.499802
H229	H	0.646099	-0.621035	-0.000201
H230	H	1.146099	-0.121035	0.499799
H231	H	0.680190	-0.691765	0.042032
H232	H	1.180190	-0.191765	0.542032
H233	H	0.680218	-0.691755	-0.042434
H234	H	1.180218	-0.191755	0.457566
C235	C	0.951542	-0.534384	-0.000247
C236	C	1.451542	-0.034384	0.499753
H237	H	0.988725	-0.574701	-0.000264
H238	H	1.488725	-0.074701	0.499736
H239	H	0.954621	-0.503977	0.041980
H240	H	1.454621	-0.003977	0.541980
H241	H	0.954627	-0.503971	-0.042485
H242	H	1.454627	-0.003971	0.457515
C243	C	0.720992	0.209145	0.814962
C244	C	1.220992	0.709145	1.314962
H245	H	0.727776	0.201762	0.865816
H246	H	1.227776	0.701762	1.365816
H247	H	0.674651	0.201055	0.802495
H248	H	1.174651	0.701055	1.302495
H249	H	0.728451	0.259641	0.802458
H250	H	1.228451	0.759641	1.302458
C251	C	0.602217	0.250419	-0.000174
C252	C	1.102217	0.750419	0.499826
H253	H	0.651754	0.241316	-0.000169
H254	H	1.151754	0.741316	0.499831
H255	H	0.586868	0.278574	0.042050
H256	H	1.086868	0.778574	0.542050
H257	H	0.586917	0.278568	-0.042416
H258	H	1.086917	0.778568	0.457584
H259	H	0.803585	0.225898	0.430635
H260	H	1.303585	0.725898	0.930635
H261	H	0.242902	0.195599	0.076747
H262	H	0.742902	0.695599	0.576747
C263	C	0.382847	0.212960	0.088897
C264	C	0.882847	0.712960	0.588897
H265	H	0.347055	0.243916	0.114167
H266	H	0.847055	0.743916	0.614167
H267	H	0.407408	0.243973	0.058317
H268	H	0.907408	0.743973	0.558317
H269	H	0.414273	0.187233	0.123020
H270	H	0.914273	0.687233	0.623020
H271	H	0.015936	0.221308	-0.000268
H272	H	0.515936	0.721308	0.499732
C273	C	0.155319	0.243282	-0.000253
C274	C	0.655319	0.743282	0.499747
H275	H	0.118368	0.283852	-0.000252
H276	H	0.618368	0.783852	0.499748
H277	H	0.183253	0.246604	-0.042479
H278	H	0.683253	0.746604	0.457521
H279	H	0.183209	0.246598	0.041987
H280	H	0.683209	0.746598	0.541987
H281	H	0.177834	-0.026886	-0.000238
H282	H	0.677834	0.473114	0.499762
C283	C	0.038458	-0.048863	-0.000262
C284	C	0.538458	0.451137	0.499738
H285	H	0.075409	-0.089432	-0.000248
H286	H	0.575409	0.410568	0.499752
H287	H	0.010567	-0.052183	-0.042495
H288	H	0.510567	0.447817	0.457505
H289	H	0.010526	-0.052181	0.041970
H290	H	0.510526	0.447819	0.541970
C291	C	0.409959	-0.008961	-0.089315
C292	C	0.909959	0.491039	0.410685
H293	H	0.381854	-0.040934	-0.114599
H294	H	0.881854	0.459066	0.385401
H295	H	0.441928	-0.039075	-0.058729
H296	H	0.941928	0.460925	0.441271
H297	H	0.435048	0.017671	-0.123426
H298	H	0.935048	0.517671	0.376574
H299	H	0.937027	-0.288934	-0.000235
H300	H	1.437027	0.211066	0.499765
