data_functionalizedCrystal
_audit_creation_method	'MofGen! by Chris Wilmer'
_symmetry_space_group_name_H-M	'P1'
_symmetry_Int_Tables_number	1
_symmetry_cell_setting	triclinic
loop_
_symmetry_equiv_pos_as_xyz
  x,y,z
_cell_length_a	18.050591
_cell_length_b	15.297327
_cell_length_c	15.296720
_cell_angle_alpha	72.680778
_cell_angle_beta	99.656035
_cell_angle_gamma	80.295981
loop_
_atom_site_label
_atom_site_type_symbol
_atom_site_fract_x
_atom_site_fract_y
_atom_site_fract_z
Zn1	Zn	0.985502	0.461333	-0.589979
Zn2	Zn	0.985418	0.589955	-0.461373
Zn3	Zn	0.887310	0.434450	-0.434482
Zn4	Zn	0.835305	0.616780	-0.616795
O5	O	0.923384	0.525630	-0.525657
O6	O	1.089408	0.478419	-0.572950
O7	O	0.994133	0.546849	-0.327685
O8	O	0.922135	0.307882	-0.432632
O9	O	1.089346	0.572917	-0.478464
O10	O	0.994276	0.327633	-0.546875
O11	O	0.922053	0.432601	-0.307928
O12	O	0.776495	0.458613	-0.458635
O13	O	0.833500	0.618637	-0.743358
O14	O	0.738287	0.592570	-0.592579
O15	O	0.943849	0.504431	-0.723657
O16	O	0.943705	0.723648	-0.504467
O17	O	0.833418	0.743356	-0.618655
C18	C	0.730446	0.525586	-0.525600
C19	C	0.647899	0.525594	-0.525601
C20	C	0.882883	0.567525	-0.768190
C21	C	0.865624	0.585378	-0.871543
C22	C	0.882926	0.767248	-0.567409
C23	C	0.865681	0.870619	-0.585302
C24	C	0.469192	0.452700	-0.452892
C25	C	0.409424	0.533566	-0.444678
C26	C	0.496757	0.525629	-0.525648
C27	C	0.409439	0.444793	-0.533865
C28	C	0.350762	0.525656	-0.525690
C29	C	0.438076	0.606532	-0.517397
C30	C	0.438098	0.517708	-0.606614
C31	C	0.378337	0.598638	-0.598441
C32	C	0.580861	0.525612	-0.525621
C33	C	0.266658	0.525682	-0.525719
C34	C	1.117075	0.525674	-0.525715
C35	C	1.199614	0.525693	-0.525740
C36	C	0.964016	0.283071	-0.483763
C37	C	0.981331	0.179707	-0.465910
C38	C	1.046891	1.120861	-0.398092
C39	C	1.063094	1.023738	-0.381277
C40	C	1.013742	0.985453	-0.432282
C41	C	0.948184	1.044301	-0.500105
C42	C	0.931976	1.141432	-0.516917
C43	C	0.898828	1.006025	-0.551106
C44	C	0.833270	1.064873	-0.618930
C45	C	0.817065	1.161994	-0.635739
C46	C	0.866417	1.200279	-0.584734
C47	C	0.915036	0.908894	-0.534294
C48	C	0.800122	0.929465	-0.653119
C49	C	0.783918	1.026588	-0.669935
C50	C	1.046791	0.397866	-1.121848
C51	C	1.063011	0.381093	-1.024743
C52	C	1.013666	0.432163	-0.986438
C53	C	0.948098	0.500008	-1.045248
C54	C	0.931879	0.516788	-1.142363
C55	C	0.898754	0.551085	-1.006953
C56	C	0.833186	0.618930	-1.065763
C57	C	0.816970	0.635706	-1.162869
C58	C	0.866315	0.584637	-1.201174
C59	C	0.914972	0.534305	-0.909838
C60	C	0.800060	0.653227	-0.930353
C61	C	0.783840	0.670000	-1.027458
C62	C	0.963781	0.483830	-0.284056
C63	C	0.981227	0.465715	-0.180659
H64	H	0.396484	0.540285	-0.376226
O65	O	0.850451	0.600852	-1.295491
C66	C	0.777853	0.582583	-1.323788
H67	H	0.763292	0.532366	-1.260813
H68	H	0.731776	0.651390	-1.352377
C69	C	0.798345	0.599191	-1.478496
C70	C	0.780465	0.537507	-1.401150
H71	H	0.799954	0.571390	-1.526220
H72	H	0.847255	0.611503	-1.459433
H73	H	0.759945	0.656526	-1.502308
H74	H	0.818869	0.480178	-1.377333
H75	H	0.731561	0.525184	-1.420211
H76	H	1.086964	0.356298	-1.153047
H77	H	1.026876	0.418503	-0.907370
O78	O	1.126804	0.966495	-0.315513
C79	C	1.175280	0.919419	-0.358780
H80	H	1.139709	0.917036	-0.426697
H81	H	1.222357	0.958568	-0.375532
C82	C	1.256375	0.821257	-0.208253
C83	C	1.212686	0.818323	-0.291666
H84	H	1.279453	0.758897	-0.166853
H85	H	1.223718	0.852975	-0.179102
H86	H	1.295601	0.853885	-0.222225
H87	H	1.173456	0.785705	-0.277693
H88	H	1.245337	0.786597	-0.320812
O89	O	0.720221	1.083628	-0.735875
C90	C	0.680122	1.029017	-0.777276
H91	H	0.721548	0.960313	-0.768547
H92	H	0.631149	1.012864	-0.741380
C93	C	0.595635	1.168377	-0.893505
C94	C	0.646517	1.083997	-0.882790
H95	H	0.574902	1.202291	-0.958589
H96	H	0.622648	1.205170	-0.865611
H97	H	0.554831	1.154903	-0.863585
H98	H	0.687325	1.097471	-0.912698
H99	H	0.619509	1.047207	-0.910692
H100	H	0.763585	0.690958	-1.210751
O101	O	0.752274	0.892263	-0.702764
C102	C	0.793871	0.846384	-0.753121
H103	H	0.846511	0.876606	-0.763996
H104	H	0.813531	0.767817	-0.711634
C105	C	0.676990	0.824458	-0.836123
C106	C	0.741640	0.861582	-0.849487
H107	H	0.644771	0.833828	-0.895564
H108	H	0.648965	0.855364	-0.802195
H109	H	0.693384	0.758988	-0.801548
H110	H	0.725246	0.927052	-0.884051
H111	H	0.769661	0.830687	-0.883424
O112	O	0.753460	1.219268	-0.701683
C113	C	0.776305	1.285755	-0.771518
H114	H	0.835649	1.294613	-0.741303
H115	H	0.779168	1.260192	-0.833950
C116	C	0.644344	1.370065	-0.841393
C117	C	0.717228	1.380951	-0.804280
H118	H	0.607901	1.428786	-0.861606
H119	H	0.628952	1.325270	-0.794347
H120	H	0.646740	1.348760	-0.893415
H121	H	0.714833	1.402244	-0.752252
H122	H	0.732618	1.425752	-0.851319
O123	O	0.453317	0.688091	-0.508896
C124	C	0.438432	0.696490	-0.423810
H125	H	0.395945	0.652176	-0.400308
H126	H	0.494707	0.670703	-0.367431
C127	C	0.455728	0.854786	-0.467639
C128	C	0.403540	0.800365	-0.438778
H129	H	0.434208	0.918862	-0.476870
H130	H	0.465759	0.849128	-0.524962
H131	H	0.502620	0.833286	-0.420652
H132	H	0.356653	0.821858	-0.485770
H133	H	0.393500	0.806030	-0.381463
H134	H	0.339248	0.660383	-0.659997
H135	H	0.396486	0.376424	-0.540769
H136	H	0.968413	0.860988	-0.479071
H137	H	0.451064	0.510959	-0.675039
O138	O	1.029452	0.891139	-0.416123
C139	C	1.039029	0.874035	-0.499631
H140	H	1.008032	0.939248	-0.562862
H141	H	1.103192	0.857093	-0.498681
C142	C	1.042756	0.710048	-0.429059
C143	C	1.004680	0.790142	-0.506721
H144	H	1.021572	0.658297	-0.433431
H145	H	1.036307	0.721570	-0.372796
H146	H	1.096223	0.695942	-0.428275
H147	H	0.951216	0.804253	-0.507497
H148	H	1.011119	0.778620	-0.562984
H149	H	0.968358	0.479064	-0.861964
O150	O	1.094852	1.158126	-0.348679
C151	C	1.124555	1.223437	-0.411373
H152	H	1.121793	1.206786	-0.479538
H153	H	1.088748	1.297605	-0.427306
C154	C	1.212491	1.237535	-0.282534
C155	C	1.209105	1.217078	-0.366252
H156	H	1.264644	1.233616	-0.254700
H157	H	1.192478	1.193537	-0.240295
H158	H	1.182648	1.299340	-0.295823
H159	H	1.238940	1.155270	-0.352961
H160	H	1.229125	1.261066	-0.408488
O161	O	1.126711	0.315129	-0.967748
C162	C	1.166797	0.273666	-1.022379
H163	H	1.125360	0.282396	-1.091036
H164	H	1.215764	0.309521	-1.038607
C165	C	1.251306	0.157425	-0.883064
C166	C	1.200410	0.168141	-0.967386
H167	H	1.272044	0.092333	-0.849141
H168	H	1.224302	0.185361	-0.846257
H169	H	1.292106	0.187310	-0.896599
H170	H	1.159607	0.138266	-0.953849
H171	H	1.227409	0.140197	-1.004190
H172	H	0.759880	0.694814	-0.899166
O173	O	0.515944	0.379263	-0.379332
C174	C	0.501603	0.387985	-0.294144
H175	H	0.475158	0.464799	-0.305595
H176	H	0.459836	0.342991	-0.269537
C177	C	0.610561	0.260189	-0.204796
C178	C	0.578087	0.354533	-0.218859
H179	H	0.657739	0.239550	-0.158355
H180	H	0.620222	0.254309	-0.262189
H181	H	0.575748	0.222705	-0.184295
H182	H	0.612896	0.392016	-0.239371
H183	H	0.568434	0.360418	-0.161468
O184	O	0.720235	0.736014	-1.084650
C185	C	0.743072	0.805777	-1.151223
H186	H	0.805482	0.806482	-1.122966
H187	H	0.738160	0.789735	-1.219853
C188	C	0.613693	0.901835	-1.204113
C189	C	0.690344	0.902706	-1.169403
H190	H	0.581167	0.961625	-1.215332
H191	H	0.598306	0.854833	-1.159264
H192	H	0.609611	0.888463	-1.261301
H193	H	0.694427	0.916066	-1.112211
H194	H	0.705730	0.949713	-1.214244
H195	H	0.853229	1.279364	-0.598424
