data_functionalizedCrystal
_audit_creation_method	'MofGen! by Chris Wilmer'
_symmetry_space_group_name_H-M	'P1'
_symmetry_Int_Tables_number	1
_symmetry_cell_setting	triclinic
loop_
_symmetry_equiv_pos_as_xyz
  x,y,z
_cell_length_a	10.489741
_cell_length_b	17.038272
_cell_length_c	8.965430
_cell_angle_alpha	90.000179
_cell_angle_beta	89.998843
_cell_angle_gamma	87.825365
loop_
_atom_site_label
_atom_site_type_symbol
_atom_site_fract_x
_atom_site_fract_y
_atom_site_fract_z
O1	O	1.704377	0.110369	-0.123948
O2	O	1.334150	0.120730	-0.123972
O3	O	1.517063	0.001722	-0.123948
O4	O	1.521464	0.229378	-0.123972
O5	O	1.517047	0.001729	0.124130
O6	O	1.334134	0.120738	0.124107
O7	O	1.704361	0.110377	0.124130
Cu8	Cu	1.519246	0.115558	0.146770
Cu9	Cu	1.519265	0.115549	-0.146612
O10	O	1.521448	0.229386	0.124107
C11	C	1.286537	0.119951	0.000065
C12	C	1.144689	0.117610	0.000056
C13	C	1.069466	0.041889	0.000078
C14	C	0.980693	0.077655	-0.122238
C15	C	0.980713	0.077681	0.122348
C16	C	1.057784	0.153408	-0.122361
C17	C	1.057813	0.153423	0.122335
C18	C	0.969072	0.189244	-0.000011
C19	C	1.513053	-0.027426	0.000091
C20	C	1.501111	-0.114288	0.000089
C21	C	1.610749	-0.163767	0.000098
C22	C	1.599521	-0.245383	0.000083
C23	C	1.478654	-0.277518	0.000070
C24	C	1.369007	-0.228032	0.000057
C25	C	1.380237	-0.146418	0.000062
C26	C	1.438983	-0.523505	0.000047
C27	C	1.427762	-0.605126	0.000048
C28	C	1.658277	-0.622471	0.000071
C29	C	1.669495	-0.540855	0.000084
C30	C	1.559849	-0.491376	0.000063
C31	C	1.467174	-0.360942	0.000060
C32	C	1.571330	-0.407954	0.000063
C33	C	1.751974	0.111156	0.000091
C34	C	1.893822	0.113497	0.000089
C35	C	1.525458	0.258533	0.000065
C36	C	1.537400	0.345395	0.000056
N37	N	1.519243	0.115564	0.353119
N38	N	1.519278	0.115537	-0.352961
C39	C	1.434622	0.170583	0.450415
C40	C	1.551599	0.186413	0.549834
C41	C	1.402315	0.099741	0.549828
C42	C	1.636282	0.131430	0.450350
C43	C	1.486918	0.044727	0.450335
C44	C	1.603976	0.060527	0.549709
H45	H	1.091846	0.185439	0.225745
H46	H	1.349700	-0.483229	0.000031
C47	C	1.768264	0.149217	0.392382
C48	C	1.856723	0.091840	0.443792
C49	C	1.978300	0.108203	0.390383
H50	H	1.791541	0.199337	0.427231
H51	H	1.767455	0.149103	0.286418
H52	H	1.857536	0.091962	0.549735
H53	H	1.833488	0.041715	0.408948
H54	H	1.977492	0.108089	0.284418
H55	H	2.001564	0.158324	0.425234
H56	H	2.038332	0.069272	0.425245
C57	C	1.588329	0.266205	0.608219
C58	C	1.699492	0.257486	0.694014
C59	C	1.733362	0.330975	0.747805
H60	H	1.521152	0.287937	0.668124
H61	H	1.603098	0.300238	0.526592
H62	H	1.684716	0.223466	0.775629
H63	H	1.766693	0.235767	0.634140
H64	H	1.748132	0.365008	0.666178
H65	H	1.666178	0.352701	0.807704
H66	H	1.808795	0.325070	0.806011
C67	C	1.296496	-0.639976	-0.000288
C68	C	1.229723	-0.614914	-0.127954
C69	C	1.108812	-0.647012	-0.128324
H70	H	1.250804	-0.623061	0.086110
H71	H	1.305468	-0.695672	-0.000364
H72	H	1.220745	-0.559230	-0.127865
H73	H	1.275376	-0.631828	-0.214373
H74	H	1.117785	-0.702708	-0.128399
H75	H	1.063132	-0.630095	-0.041920
H76	H	1.063496	-0.630018	-0.214950
C77	C	1.450562	-0.035183	0.392203
C78	C	1.538091	-0.092808	0.444726
C79	C	1.504616	-0.166430	0.391217
H80	H	1.451607	-0.034836	0.286262
H81	H	1.367433	-0.046389	0.426245
H82	H	1.621199	-0.081605	0.410676
H83	H	1.537059	-0.093180	0.550661
H84	H	1.421487	-0.177636	0.425259
H85	H	1.505661	-0.166074	0.285277
H86	H	1.563992	-0.205538	0.426857
C87	C	1.270559	0.081791	0.608295
C88	C	1.278399	0.013134	0.694146
C89	C	1.157053	-0.003413	0.748041
H90	H	1.214347	0.074661	0.526758
H91	H	1.239148	0.124271	0.668185
H92	H	1.309792	-0.029336	0.634259
H93	H	1.334587	0.020246	0.775705
H94	H	1.125643	0.039066	0.807930
H95	H	1.100850	-0.010540	0.666495
H96	H	1.162358	-0.049994	0.806307
H97	H	0.946731	0.045631	0.225757
H98	H	1.709172	-0.137610	0.000117
C99	C	1.335835	-0.395682	-0.000023
C100	C	1.242209	-0.334886	-0.000060
C101	C	1.121206	-0.366861	-0.000164
H102	H	1.326481	-0.427153	0.086458
H103	H	1.326609	-0.427134	-0.086575
H104	H	1.251431	-0.303447	0.086483
H105	H	1.251521	-0.303410	-0.086534
H106	H	1.111981	-0.398313	-0.086715
H107	H	1.111867	-0.398332	0.086319
H108	H	1.057667	-0.325616	-0.000202
H109	H	1.675635	0.013985	0.593034
H110	H	1.270594	-0.254202	0.000038
C111	C	1.718711	-0.298972	0.000180
C112	C	1.826964	-0.253362	0.000244
C113	C	1.936789	-0.302701	0.000354
H114	H	1.719319	-0.331187	-0.086308
H115	H	1.719179	-0.331160	0.086724
H116	H	1.826496	-0.221188	-0.086291
H117	H	1.826398	-0.221149	0.086726
H118	H	1.937257	-0.334888	0.086899
H119	H	1.937383	-0.334913	-0.086135
H120	H	2.010251	-0.271762	0.000412
C121	C	1.261047	-0.092825	0.000127
C122	C	1.152792	-0.138433	0.000154
C123	C	1.042970	-0.089092	0.000225
H124	H	1.260467	-0.060612	-0.086361
H125	H	1.260555	-0.060637	0.086671
H126	H	1.153284	-0.170608	-0.086381
H127	H	1.153331	-0.170645	0.086636
H128	H	1.042478	-0.056904	0.086769
H129	H	1.042402	-0.056881	-0.086265
H130	H	0.969506	-0.120029	0.000257
H131	H	1.113334	-0.020359	-0.000069
C132	C	1.339476	0.232796	0.392342
C133	C	1.373941	0.306825	0.442731
C134	C	1.286341	0.364156	0.389245
H135	H	1.256568	0.222167	0.427828
H136	H	1.339599	0.232106	0.286381
H137	H	1.373805	0.307514	0.548669
H138	H	1.456834	0.317479	0.407249
H139	H	1.286464	0.363465	0.283284
H140	H	1.203439	0.353519	0.424735
H141	H	1.309720	0.414391	0.423414
H142	H	0.946688	0.045612	-0.225643
H143	H	0.925476	0.251558	-0.000084
C144	C	1.102622	0.196143	-0.260467
C145	C	0.996768	0.220501	-0.346150
C146	C	1.038026	0.259877	-0.473372
H147	H	1.156618	0.161803	-0.317811
H148	H	1.148404	0.240684	-0.231295
H149	H	0.951008	0.175967	-0.375324
H150	H	0.942762	0.254850	-0.288851
H151	H	1.083807	0.304417	-0.444200
H152	H	1.092022	0.225532	-0.530703
H153	H	0.966211	0.276415	-0.531516
C154	C	1.800839	-0.506119	0.000028
C155	C	1.894455	-0.566920	-0.000000
C156	C	2.015463	-0.534952	-0.000059
H157	H	1.810176	-0.474655	0.086522
H158	H	1.810090	-0.474661	-0.086511
H159	H	1.885208	-0.598365	0.086530
H160	H	1.885160	-0.598389	-0.086487
H161	H	2.024715	-0.503494	-0.086598
H162	H	2.024787	-0.503489	0.086436
H163	H	2.078997	-0.576200	-0.000092
H164	H	1.747544	-0.662765	0.000085
H165	H	1.669740	-0.381786	0.000040
