data_functionalizedCrystal
_audit_creation_method	'MofGen! by Chris Wilmer'
_symmetry_space_group_name_H-M	'P1'
_symmetry_Int_Tables_number	1
_symmetry_cell_setting	triclinic
loop_
_symmetry_equiv_pos_as_xyz
  x,y,z
_cell_length_a	16.120490
_cell_length_b	14.908520
_cell_length_c	14.908308
_cell_angle_alpha	83.639235
_cell_angle_beta	89.450064
_cell_angle_gamma	90.579997
loop_
_atom_site_label
_atom_site_type_symbol
_atom_site_fract_x
_atom_site_fract_y
_atom_site_fract_z
Zn1	Zn	1.217784	-0.460943	0.603378
Zn2	Zn	1.717784	0.039057	1.103378
Zn3	Zn	1.217690	-0.603583	0.460743
Zn4	Zn	1.717690	-0.103583	0.960743
Zn5	Zn	1.087714	-0.444655	0.444473
Zn6	Zn	1.587714	0.055345	0.944473
Zn7	Zn	1.070715	-0.603678	0.603506
Zn8	Zn	1.570715	-0.103678	1.103506
O9	O	1.148476	-0.528215	0.528025
O10	O	1.648476	-0.028215	1.028025
O11	O	1.333716	-0.486641	0.591213
O12	O	1.833716	0.013359	1.091213
O13	O	1.207523	-0.575644	0.332335
O14	O	1.707523	-0.075644	0.832335
O15	O	1.112121	-0.320568	0.458689
O16	O	1.612121	0.179432	0.958689
O17	O	1.333647	-0.591438	0.486420
O18	O	1.833647	-0.091438	0.986420
O19	O	1.207684	-0.332535	0.575436
O20	O	1.707684	0.167465	1.075436
O21	O	1.112030	-0.458880	0.320382
O22	O	1.612030	0.041120	0.820382
O23	O	0.969514	-0.458973	0.458813
O24	O	1.469514	0.041027	0.958813
O25	O	1.083150	-0.591601	0.729738
O26	O	1.583150	-0.091601	1.229738
O27	O	0.957026	-0.575807	0.575654
O28	O	1.457026	-0.075807	1.075654
O29	O	1.191201	-0.486734	0.729644
O30	O	1.691201	0.013266	1.229644
O31	O	1.191041	-0.729843	0.486543
O32	O	1.691041	-0.229843	0.986543
O33	O	1.083059	-0.729913	0.591431
O34	O	1.583059	-0.229913	1.091431
C35	C	1.135216	-0.762615	0.540787
C36	C	1.635216	-0.262615	1.040787
C37	C	1.129618	-0.862898	0.546282
C38	C	1.629618	-0.362898	1.046282
C39	C	0.933207	-0.515633	0.515482
C40	C	1.433207	-0.015633	1.015482
C41	C	0.841111	-0.510274	0.510139
C42	C	1.341111	-0.010274	1.010139
C43	C	1.231643	-1.051218	0.447487
C44	C	1.731643	-0.551218	0.947487
C45	C	1.226386	-1.145444	0.452646
C46	C	1.726386	-0.645444	0.952646
C47	C	1.113851	-1.145576	0.561765
C48	C	1.613851	-0.645576	1.061765
C49	C	1.119108	-1.051351	0.556605
C50	C	1.619108	-0.551351	1.056605
C51	C	1.178005	-1.004175	0.499463
C52	C	1.678005	-0.504175	0.999463
C53	C	1.183258	-0.909948	0.494299
C54	C	1.683258	-0.409948	0.994299
C55	C	1.070727	-0.910082	0.603422
C56	C	1.570727	-0.410082	1.103422
C57	C	1.065470	-1.004307	0.608582
C58	C	1.565470	-0.504307	1.108582
C59	C	0.625299	-0.556008	0.555742
C60	C	1.125299	-0.056008	1.055742
C61	C	0.672496	-0.500497	0.500383
C62	C	1.172496	-0.000497	1.000383
C63	C	0.766322	-0.505939	0.505813
C64	C	1.266322	-0.005939	1.005813
C65	C	0.531464	-0.550568	0.550313
C66	C	1.031464	-0.050568	1.050313
C67	C	1.364586	-0.540846	0.540617
C68	C	1.864586	-0.040846	1.040617
C69	C	1.456679	-0.546228	0.545983
C70	C	1.956679	-0.046228	1.045983
C71	C	1.135290	-0.540995	0.763341
C72	C	1.635290	-0.040995	1.263341
C73	C	1.129671	-0.546441	0.863619
C74	C	1.629671	-0.046441	1.363619
C75	C	1.161809	-0.292902	0.515234
C76	C	1.661809	0.207098	1.015234
C77	C	1.167491	-0.192625	0.509783
C78	C	1.667491	0.307375	1.009783
C79	C	1.161662	-0.515422	0.293623
C80	C	1.661662	-0.015422	0.793623
C81	C	1.167456	-0.509731	0.193341
C82	C	1.667456	-0.009731	0.693341
C83	C	1.231624	-0.447456	1.051955
C84	C	1.731624	0.052544	1.551955
C85	C	1.226347	-0.452570	1.146175
C86	C	1.726347	0.047430	1.646175
C87	C	1.113837	-0.561779	1.146281
C88	C	1.613837	-0.061779	1.646281
C89	C	1.119114	-0.556664	1.052061
C90	C	1.619114	-0.056664	1.552061
C91	C	1.178010	-0.499502	1.004901
C92	C	1.678010	0.000498	1.504901
C93	C	1.183290	-0.494393	0.910680
C94	C	1.683290	0.005607	1.410680
C95	C	1.070777	-0.603596	0.910787
C96	C	1.570777	-0.103596	1.410787
C97	C	1.065500	-0.608711	1.005007
C98	C	1.565500	-0.108711	1.505007
H99	H	1.231213	-0.871538	0.447769
H100	H	1.731213	-0.371538	0.947769
N101	N	1.295152	-0.385818	1.001084
N102	N	1.795152	0.114182	1.501084
H103	H	1.328319	-0.353625	1.045191
H104	H	1.828319	0.146375	1.545191
H105	H	1.265982	-0.339973	0.957755
H106	H	1.765982	0.160027	1.457755
H107	H	1.231248	-0.447850	0.872284
H108	H	1.731248	0.052150	1.372284
N109	N	0.632695	-0.432132	0.432194
N110	N	1.132695	0.067868	0.932194
H111	H	0.597085	-0.390330	0.464609
H112	H	1.097085	0.109670	0.964609
H113	H	0.597101	-0.464487	0.390300
H114	H	1.097101	0.035513	0.890300
N115	N	0.665106	-0.624377	0.623914
N116	N	1.165106	-0.124377	1.123914
H117	H	0.727461	-0.618622	0.618170
H118	H	1.227461	-0.118622	1.118170
H119	H	0.647186	-0.687159	0.612407
H120	H	1.147186	-0.187159	1.112407
N121	N	1.284166	-0.396427	1.196927
N122	N	1.784166	0.103573	1.696927
H123	H	1.322273	-0.359439	1.152751
H124	H	1.822273	0.140561	1.652751
H125	H	1.318244	-0.437505	1.240253
H126	H	1.818244	0.062495	1.740253
H127	H	1.065886	-0.608317	1.184694
H128	H	1.565886	-0.108317	1.684694
N129	N	1.001963	-0.670342	1.055871
N130	N	1.501963	-0.170342	1.555871
H131	H	1.006749	-0.665679	1.122699
H132	H	1.506749	-0.165679	1.622699
H133	H	1.012122	-0.734638	1.043668
H134	H	1.512122	-0.234638	1.543668
N135	N	1.012924	-0.659708	0.860031
N136	N	1.512924	-0.159708	1.360031
H137	H	0.974809	-0.696686	0.904206
H138	H	1.474809	-0.196686	1.404206
H139	H	1.046458	-0.701313	0.825163
H140	H	1.546458	-0.201313	1.325163
H141	H	1.279594	-1.012807	0.400953
H142	H	1.779594	-0.512807	0.900953
H143	H	1.270065	-1.183743	0.410323
H144	H	1.770065	-0.683743	0.910323
H145	H	1.017520	-1.042731	0.655108
H146	H	1.517520	-0.542731	1.155108
N147	N	1.050335	-1.196466	0.623397
N148	N	1.550335	-0.696466	1.123397
H149	H	1.055148	-1.263295	0.618778
H150	H	1.555148	-0.763295	1.118778
H151	H	0.992876	-1.175845	0.604953
H152	H	1.492876	-0.675845	1.104953
N153	N	1.012865	-0.859343	0.659482
N154	N	1.512865	-0.359343	1.159482
H155	H	1.025129	-0.792493	0.647542
H156	H	1.525129	-0.292493	1.147542
H157	H	1.021179	-0.880024	0.725577
H158	H	1.521179	-0.380024	1.225577
