data_functionalizedCrystal
_audit_creation_method	'MofGen! by Chris Wilmer'
_symmetry_space_group_name_H-M	'P1'
_symmetry_Int_Tables_number	1
_symmetry_cell_setting	triclinic
loop_
_symmetry_equiv_pos_as_xyz
  x,y,z
_cell_length_a	12.759401
_cell_length_b	10.686551
_cell_length_c	12.759400
_cell_angle_alpha	85.594842
_cell_angle_beta	90.016169
_cell_angle_gamma	85.604840
loop_
_atom_site_label
_atom_site_type_symbol
_atom_site_fract_x
_atom_site_fract_y
_atom_site_fract_z
Zn1	Zn	1.651856	-0.713460	-0.372571
Zn2	Zn	1.638265	-0.502460	-0.561773
Zn3	Zn	1.462673	-0.502476	-0.386113
Zn4	Zn	1.476144	-0.713411	-0.548217
O5	O	1.557234	-0.607952	-0.467169
O6	O	1.797075	-0.685484	-0.397676
O7	O	1.603647	-0.325881	-0.549812
O8	O	1.487819	-0.530490	-0.237294
O9	O	1.787089	-0.530464	-0.536682
O10	O	1.626811	-0.685499	-0.227345
O11	O	1.474640	-0.325893	-0.420755
O12	O	1.317438	-0.530443	-0.407610
O13	O	1.510778	-0.889999	-0.513577
O14	O	1.327335	-0.685416	-0.526707
O15	O	1.639873	-0.890034	-0.384531
O16	O	1.616708	-0.530416	-0.706998
O17	O	1.497599	-0.685401	-0.697038
C18	C	1.284265	-0.607927	-0.467157
C19	C	1.167490	-0.607946	-0.467176
C20	C	1.117801	-0.688513	-0.529300
C21	C	1.008078	-0.688538	-0.529303
C22	C	0.997743	-0.527417	-0.405054
C23	C	1.107464	-0.527400	-0.405047
C24	C	0.867688	-0.837303	-0.557493
C25	C	0.817994	-0.917859	-0.619634
C26	C	0.854816	-0.937015	-0.720941
C27	C	0.941329	-0.875596	-0.760128
C28	C	0.991016	-0.795030	-0.697993
C29	C	0.954198	-0.775898	-0.596670
C30	C	1.247856	-0.378634	-0.376868
C31	C	1.297545	-0.298061	-0.314737
C32	C	1.260725	-0.278892	-0.213430
C33	C	1.174207	-0.340289	-0.174248
C34	C	1.124518	-0.420862	-0.236378
C35	C	1.161346	-0.440033	-0.337684
C36	C	1.578344	-0.937082	-0.446031
C37	C	1.587340	-1.077338	-0.437024
C38	C	1.831269	-0.607978	-0.467181
C39	C	1.948047	-0.607989	-0.467186
C40	C	1.557171	-0.607929	-0.740137
C41	C	1.557242	-0.607962	-0.856912
C42	C	1.536267	-0.280102	-0.488148
C43	C	1.527475	-0.139846	-0.496859
C44	C	1.629591	-0.688744	-0.906499
C45	C	1.629652	-0.688778	-1.016221
C46	C	1.485013	-0.527238	-1.026759
C47	C	1.484948	-0.527211	-0.917039
C48	C	1.676727	-0.837672	-1.156533
C49	C	1.749091	-0.918443	-1.206124
C50	C	1.852821	-0.937916	-1.169169
C51	C	1.884207	-0.876599	-1.082625
C52	C	1.811848	-0.795819	-1.033039
C53	C	1.708105	-0.776370	-1.069991
C54	C	1.437883	-0.378315	-0.776726
C55	C	1.365528	-0.297527	-0.727138
C56	C	1.261796	-0.278042	-0.764092
C57	C	1.230412	-0.339336	-0.850642
C58	C	1.302767	-0.420124	-0.900229
C59	C	1.406499	-0.439611	-0.863267
C60	C	1.557329	-0.608002	-0.193132
C61	C	1.557369	-0.608023	-0.076354
H62	H	1.054076	-0.470863	-0.204464
H63	H	1.469344	-1.086063	-0.554982
C64	C	1.480201	-0.265729	-0.293027
C65	C	1.392635	-0.230565	-0.357833
H66	H	1.538898	-0.224054	-0.319637
H67	H	1.495707	-0.354200	-0.291690
H68	H	1.465385	-0.242760	-0.223803
H69	H	1.407448	-0.253542	-0.427055
H70	H	1.377127	-0.142074	-0.359181
H71	H	1.061453	-0.745023	-0.729898
H72	H	1.723527	-0.968367	-1.276589
C73	C	1.195615	-0.235548	-0.016624
C74	C	1.133728	-0.319227	-0.062885
H75	H	1.170627	-0.222548	0.052129
H76	H	1.191639	-0.157504	-0.057951
H77	H	1.266549	-0.269854	-0.012660
H78	H	1.062795	-0.284916	-0.066856
H79	H	1.137694	-0.397285	-0.021547
C80	C	1.659844	-1.279492	-0.364511
C81	C	1.665823	-1.149941	-0.358553
H82	H	1.708290	-1.324311	-0.316061
H83	H	1.676569	-1.301013	-0.433726
H84	H	1.590618	-1.301013	-0.347769
H85	H	1.735047	-1.128418	-0.375302
H86	H	1.649104	-1.128412	-0.289322
C87	C	1.882912	-1.076410	-1.307437
C88	C	1.932363	-1.026707	-1.223675
H89	H	1.932014	-1.131234	-1.341082
H90	H	1.857167	-1.009754	-1.356462
H91	H	1.826027	-1.121968	-1.281568
H92	H	1.989243	-0.981140	-1.249545
H93	H	1.958123	-1.093373	-1.174642
C94	C	0.824959	-0.455903	-0.349896
C95	C	0.931759	-0.438879	-0.336769
H96	H	0.784226	-0.401235	-0.307742
H97	H	0.812441	-0.540712	-0.329187
H98	H	0.805776	-0.437286	-0.421661
H99	H	0.950944	-0.457506	-0.265004
H100	H	0.944282	-0.354051	-0.357472
C101	C	1.208308	-0.361941	-0.561629
C102	C	1.288332	-0.399702	-0.488233
H103	H	1.233297	-0.374951	-0.630380
H104	H	1.187680	-0.275226	-0.557118
H105	H	1.149683	-0.410056	-0.547175
H106	H	1.346955	-0.351581	-0.502682
H107	H	1.308975	-0.486433	-0.492748
C108	C	1.694298	-0.902463	-0.858879
C109	C	1.709042	-0.777517	-0.840402
H110	H	1.743344	-0.957270	-0.818069
H111	H	1.704696	-0.914032	-0.931313
H112	H	1.624859	-0.920828	-0.839770
H113	H	1.778479	-0.759150	-0.859519
H114	H	1.698652	-0.765943	-0.767952
C115	C	1.310256	-0.069160	-0.196062
C116	C	1.315340	-0.190317	-0.145136
H117	H	1.343976	-0.014485	-0.153901
H118	H	1.238788	-0.039031	-0.206814
H119	H	1.344572	-0.071796	-0.262005
H120	H	1.281017	-0.187682	-0.079197
H121	H	1.386821	-0.220452	-0.134371
H122	H	1.837402	-0.745894	-0.962578
H123	H	1.968678	-0.892449	-1.052550
C124	C	1.186928	-0.563366	-0.965572
C125	C	1.268274	-0.487514	-0.995361
H126	H	1.165642	-0.604975	-1.024301
H127	H	1.128999	-0.512464	-0.941342
H128	H	1.210986	-0.624116	-0.910881
H129	H	1.244215	-0.426758	-1.050048
H130	H	1.326215	-0.538420	-1.019607
H131	H	1.592260	-0.821837	-1.186622
C132	C	1.420899	-0.455538	-1.199634
C133	C	1.405560	-0.438465	-1.092855
H134	H	1.371853	-0.400723	-1.240435
H135	H	1.410908	-0.540298	-1.212157
H136	H	1.490338	-0.437151	-1.218726
H137	H	1.336124	-0.456861	-1.073761
H138	H	1.415543	-0.353686	-1.080325
C139	C	0.752814	-1.061523	-0.485633
C140	C	0.722911	-0.985383	-0.576555
H141	H	0.694114	-1.103211	-0.459047
H142	H	0.777133	-1.010805	-0.434136
H143	H	0.807467	-1.122206	-0.502061
H144	H	0.668264	-0.924694	-0.560125
H145	H	0.698577	-1.036105	-0.628062
H146	H	0.971295	-0.891189	-0.842627
C147	C	1.059503	-0.234082	-0.829462
C148	C	1.116385	-0.317927	-0.891267
H149	H	0.989106	-0.220869	-0.854540
H150	H	1.090973	-0.156151	-0.833409
H151	H	1.059841	-0.268377	-0.758524
H152	H	1.116054	-0.283628	-0.962204
H153	H	1.084907	-0.395873	-0.887330
H154	H	1.202885	-0.212254	-0.723710
C155	C	1.314577	-0.155237	-0.596208
C156	C	1.399999	-0.230228	-0.631946
H157	H	1.335854	-0.113712	-0.537428
H158	H	1.259385	-0.206708	-0.576088
H159	H	1.290572	-0.094418	-0.650869
H160	H	1.423999	-0.291054	-0.577288
H161	H	1.455209	-0.178753	-0.652063
H162	H	1.522346	-0.394191	-0.746617
H163	H	0.814348	-1.002608	-0.771536
C164	C	1.252107	-0.858193	-0.533209
C165	C	1.183786	-0.777057	-0.597580
H166	H	1.292845	-0.912854	-0.575364
H167	H	1.212422	-0.906557	-0.484403
H168	H	1.297400	-0.810191	-0.496217
H169	H	1.138487	-0.825059	-0.634567
H170	H	1.223474	-0.728689	-0.646405
H171	H	0.837707	-0.821726	-0.474996
