data_functionalizedCrystal
_audit_creation_method	'MofGen! by Chris Wilmer'
_symmetry_space_group_name_H-M	'P1'
_symmetry_Int_Tables_number	1
_symmetry_cell_setting	triclinic
loop_
_symmetry_equiv_pos_as_xyz
  x,y,z
_cell_length_a	17.077404
_cell_length_b	17.077402
_cell_length_c	17.077396
_cell_angle_alpha	90.029784
_cell_angle_beta	90.019501
_cell_angle_gamma	90.023108
loop_
_atom_site_label
_atom_site_type_symbol
_atom_site_fract_x
_atom_site_fract_y
_atom_site_fract_z
Zn1	Zn	-1.200055	0.312503	-0.443836
Zn2	Zn	-0.700055	0.812503	0.056164
Zn3	Zn	-1.199962	0.443778	-0.312567
Zn4	Zn	-0.699962	0.943778	0.187433
Zn5	Zn	-1.068786	0.312531	-0.312584
Zn6	Zn	-0.568786	0.812531	0.187416
Zn7	Zn	-1.068754	0.443732	-0.443790
Zn8	Zn	-0.568754	0.943732	0.056210
O9	O	-1.134389	0.378136	-0.378194
O10	O	-0.634389	0.878136	0.121806
O11	O	-1.309889	0.329925	-0.426434
O12	O	-0.809889	0.829925	0.073566
O13	O	-1.182536	0.426399	-0.202722
O14	O	-0.682536	0.926399	0.297278
O15	O	-1.086252	0.202680	-0.330021
O16	O	-0.586252	0.702680	0.169979
O17	O	-1.309821	0.426372	-0.329992
O18	O	-0.809821	0.926372	0.170008
O19	O	-1.182694	0.202660	-0.426451
O20	O	-0.682694	0.702660	0.073549
O21	O	-1.086162	0.329972	-0.202734
O22	O	-0.586162	0.829972	0.297266
O23	O	-0.958935	0.329927	-0.329976
O24	O	-0.458935	0.829927	0.170024
O25	O	-1.086197	0.426293	-0.553643
O26	O	-0.586197	0.926293	-0.053643
O27	O	-0.958912	0.426320	-0.426373
O28	O	-0.458912	0.926320	0.073627
O29	O	-1.182663	0.329880	-0.553677
O30	O	-0.682663	0.829880	-0.053677
O31	O	-1.182505	0.553619	-0.329948
O32	O	-0.682505	1.053619	0.170052
O33	O	-1.086107	0.553585	-0.426357
O34	O	-0.586107	1.053585	0.073643
C35	C	-0.930441	0.378122	-0.378172
C36	C	-0.430441	0.878122	0.121828
C37	C	-0.843192	0.378135	-0.378182
C38	C	-0.343192	0.878135	0.121818
C39	C	-1.134314	0.582084	-0.378163
C40	C	-0.634314	1.082084	0.121837
C41	C	-1.134353	0.669334	-0.378176
C42	C	-0.634353	1.169334	0.121824
C43	C	-1.134437	0.378078	-0.582938
C44	C	-0.634437	0.878078	-0.082938
C45	C	-1.134457	0.378054	-0.670188
C46	C	-0.634457	0.878054	-0.170188
C47	C	-1.339134	0.378151	-0.378216
C48	C	-0.839134	0.878151	0.121784
C49	C	-1.426383	0.378157	-0.378226
C50	C	-0.926383	0.878157	0.121774
C51	C	-0.802210	0.428402	-0.428295
C52	C	-0.302210	0.928402	0.071705
C53	C	-0.720229	0.428404	-0.428308
C54	C	-0.220229	0.928404	0.071692
C55	C	-0.679232	0.378141	-0.378202
C56	C	-0.179232	0.878141	0.121798
C57	C	-0.720220	0.327869	-0.328087
C58	C	-0.220220	0.827869	0.171913
C59	C	-0.802199	0.327863	-0.328079
C60	C	-0.302199	0.827863	0.171921
C61	C	-0.549350	0.327884	-0.328106
C62	C	-0.049350	0.827884	0.171894
C63	C	-0.467365	0.327890	-0.328112
C64	C	0.032635	0.827890	0.171888
C65	C	-0.467380	0.428424	-0.428335
C66	C	0.032620	0.928424	0.071665
C67	C	-0.549359	0.428419	-0.428327
C68	C	-0.049359	0.928419	0.071673
C69	C	-0.590341	0.378147	-0.378210
C70	C	-0.090341	0.878147	0.121790
C71	C	-1.134487	0.173392	-0.378243
C72	C	-0.634487	0.673392	0.121757
C73	C	-1.134528	0.086142	-0.378263
C74	C	-0.634528	0.586142	0.121737
C75	C	-1.184598	0.710316	-0.328029
C76	C	-0.684598	1.210316	0.171971
C77	C	-1.184637	0.792296	-0.328049
C78	C	-0.684637	1.292296	0.171951
C79	C	-1.134425	0.833293	-0.378212
C80	C	-0.634425	1.333293	0.121788
C81	C	-1.084178	0.792305	-0.428364
C82	C	-0.584178	1.292305	0.071636
C83	C	-1.084144	0.710327	-0.428348
C84	C	-0.584144	1.210327	0.071652
C85	C	-1.084250	0.963175	-0.428394
C86	C	-0.584250	1.463175	0.071606
C87	C	-1.084283	1.045160	-0.428410
C88	C	-0.584283	1.545160	0.071590
C89	C	-1.184743	1.045145	-0.328096
C90	C	-0.684743	1.545145	0.171904
C91	C	-1.184709	0.963166	-0.328079
C92	C	-0.684709	1.463166	0.171921
C93	C	-1.134461	0.922184	-0.378230
C94	C	-0.634461	1.422184	0.121770
C95	C	-1.184689	0.327847	-0.711197
C96	C	-0.684689	0.827847	-0.211197
C97	C	-1.184698	0.327821	-0.793178
C98	C	-0.684698	0.827821	-0.293178
C99	C	-1.134479	0.378006	-0.834148
C100	C	-0.634479	0.878006	-0.334148
C101	C	-1.084242	0.428214	-0.793133
C102	C	-0.584242	0.928214	-0.293133
C103	C	-1.084229	0.428236	-0.711154
C104	C	-0.584229	0.928236	-0.211154
C105	C	-1.084274	0.428167	-0.964003
C106	C	-0.584274	0.928167	-0.464003
C107	C	-1.084288	0.428147	-1.045988
C108	C	-0.584288	0.928147	-0.545988
C109	C	-1.184742	0.327752	-1.046027
C110	C	-0.684742	0.827752	-0.546027
C111	C	-1.184730	0.327774	-0.964048
C112	C	-0.684730	0.827774	-0.464048
C113	C	-1.134493	0.377984	-0.923039
C114	C	-0.634493	0.877984	-0.423039
C115	C	-1.134387	0.378137	-0.174246
C116	C	-0.634387	0.878137	0.325754
C117	C	-1.134519	0.377941	-0.086997
C118	C	-0.634519	0.877941	0.413003
H119	H	-0.835584	0.469334	-0.469094
H120	H	-0.335584	0.969334	0.030906
C121	C	-1.239932	0.918071	-0.272884
C122	C	-0.739932	1.418071	0.227116
N123	N	-1.281525	0.884105	-0.231309
N124	N	-0.781525	1.384105	0.268691
H125	H	-1.225660	1.078516	-0.287263
H126	H	-0.725660	1.578516	0.212737
H127	H	-0.686866	0.469337	-0.469114
H128	H	-0.186866	0.969337	0.030886
C129	C	-1.029014	0.483404	-0.918896
C130	C	-0.529014	0.983404	-0.418896
N131	N	-0.987397	0.525011	-0.884920
N132	N	-0.487397	1.025011	-0.384920
C133	C	-1.028972	0.483468	-0.666045
C134	C	-0.528972	0.983468	-0.166045
N135	N	-0.987349	0.525070	-0.632070
N136	N	-0.487349	1.025070	-0.132070
C137	C	-0.594428	0.272584	-0.272972
C138	C	-0.094428	0.772584	0.227028
N139	N	-0.628381	0.230936	-0.231443
N140	N	-0.128381	0.730936	0.268557
C141	C	-1.028967	0.918097	-0.483557
C142	C	-0.528967	1.418097	0.016443
N143	N	-0.987323	0.884144	-0.525099
N144	N	-0.487323	1.384144	-0.025099
C145	C	-0.594455	0.483714	-0.483441
C146	C	-0.094455	0.983714	0.016559
N147	N	-0.628420	0.525363	-0.524955
N148	N	-0.128420	1.025363	-0.024955
C149	C	-0.422299	0.483720	-0.483467
C150	C	0.077701	0.983720	0.016533
N151	N	-0.388340	0.525369	-0.524991
N152	N	0.111660	1.025369	-0.024991
C153	C	-1.239971	0.272566	-0.918982
C154	C	-0.739971	0.772566	-0.418982
N155	N	-1.281577	0.230980	-0.885039
N156	N	-0.781577	0.730980	-0.385039
H157	H	-1.043411	1.078538	-0.469272
H158	H	-0.543411	1.578538	0.030728
H159	H	-1.225551	0.825660	-0.287214
H160	H	-0.725551	1.325660	0.212786
C161	C	-0.422270	0.272596	-0.272997
C162	C	0.077730	0.772596	0.227003
N163	N	-0.388304	0.230947	-0.231483
N164	N	0.111696	0.730947	0.268517
H165	H	-1.225483	0.676941	-0.287177
H166	H	-0.725483	1.176941	0.212823
C167	C	-1.028870	0.665247	-0.483513
C168	C	-0.528870	1.165247	0.016487
N169	N	-0.987239	0.631294	-0.525068
N170	N	-0.487239	1.131294	-0.025068
H171	H	-0.686834	0.286941	-0.287293
H172	H	-0.186834	0.786941	0.212707
H173	H	-1.043350	0.469073	-0.826498
H174	H	-0.543350	0.969073	-0.326498
H175	H	-1.043298	0.825692	-0.469211
H176	H	-0.543298	1.325692	0.030789
C177	C	-0.847278	0.272567	-0.272948
C178	C	-0.347278	0.772567	0.227052
N179	N	-0.881231	0.230915	-0.231424
N180	N	-0.381231	0.730915	0.268576
C181	C	-1.239933	0.272638	-0.666137
C182	C	-0.739933	0.772638	-0.166137
N183	N	-1.281543	0.231050	-0.632201
N184	N	-0.781543	0.731050	-0.132201
H185	H	-1.225603	0.286940	-0.826563
H186	H	-0.725603	0.786940	-0.326563
H187	H	-1.225645	0.286868	-1.079420
H188	H	-0.725645	0.786868	-0.579420
C189	C	-1.029040	0.483348	-1.091054
C190	C	-0.529040	0.983348	-0.591054
N191	N	-0.987425	0.524925	-1.124997
N192	N	-0.487425	1.024925	-0.624997
