data_functionalizedCrystal
_audit_creation_method	'MofGen! by Chris Wilmer'
_symmetry_space_group_name_H-M	'P1'
_symmetry_Int_Tables_number	1
_symmetry_cell_setting	triclinic
loop_
_symmetry_equiv_pos_as_xyz
  x,y,z
_cell_length_a	21.395362
_cell_length_b	19.805405
_cell_length_c	21.395356
_cell_angle_alpha	89.970920
_cell_angle_beta	89.957023
_cell_angle_gamma	90.042288
loop_
_atom_site_label
_atom_site_type_symbol
_atom_site_fract_x
_atom_site_fract_y
_atom_site_fract_z
Zn1	Zn	0.957872	-0.269193	-0.354580
Zn2	Zn	0.957784	-0.382381	-0.249800
Zn3	Zn	0.853089	-0.269243	-0.249781
Zn4	Zn	0.853064	-0.382377	-0.354504
O5	O	0.905452	-0.325799	-0.302166
O6	O	1.045539	-0.284189	-0.340720
O7	O	0.943870	-0.367396	-0.162119
O8	O	0.867036	-0.174520	-0.263706
O9	O	1.045474	-0.367348	-0.263738
O10	O	0.944020	-0.174483	-0.340701
O11	O	0.866951	-0.284274	-0.162105
O12	O	0.765408	-0.284270	-0.263633
O13	O	0.866994	-0.367341	-0.442192
O14	O	0.765390	-0.367389	-0.340573
O15	O	0.943996	-0.284185	-0.442247
O16	O	0.943846	-0.477097	-0.263665
O17	O	0.866908	-0.477094	-0.340591
C18	C	0.742665	-0.325835	-0.302093
C19	C	0.673024	-0.325866	-0.302077
C20	C	0.640317	-0.369204	-0.342080
C21	C	0.574882	-0.369187	-0.342108
C22	C	0.542155	-0.325840	-0.302122
C23	C	0.574869	-0.282494	-0.262116
C24	C	0.640303	-0.282507	-0.262094
C25	C	0.438431	-0.320397	-0.245717
C26	C	0.372998	-0.320389	-0.245738
C27	C	0.340335	-0.325796	-0.302191
C28	C	0.373112	-0.331225	-0.358624
C29	C	0.438546	-0.331239	-0.358602
C30	C	0.471203	-0.325821	-0.302142
C31	C	0.236676	-0.369118	-0.342227
C32	C	0.171239	-0.369096	-0.342256
C33	C	0.171228	-0.282407	-0.262259
C34	C	0.236663	-0.282425	-0.262236
C35	C	0.269383	-0.325784	-0.302219
C36	C	0.905382	-0.501655	-0.302136
C37	C	0.905409	-0.576887	-0.302144
C38	C	0.945509	-0.612210	-0.262130
C39	C	0.945536	-0.682898	-0.262144
C40	C	0.905459	-0.718262	-0.302169
C41	C	0.865357	-0.682934	-0.342187
C42	C	0.865334	-0.612247	-0.342175
C43	C	0.865449	-0.968007	-0.342233
C44	C	0.865474	-1.038699	-0.342240
C45	C	0.945651	-1.038659	-0.262202
C46	C	0.945628	-0.967972	-0.262191
C47	C	0.905529	-0.932650	-0.302210
C48	C	0.905501	-0.856001	-0.302196
C49	C	0.905483	-0.794909	-0.302181
C50	C	1.068876	-0.325763	-0.302239
C51	C	1.138517	-0.325748	-0.302271
C52	C	0.905502	-0.325757	-0.465589
C53	C	0.905523	-0.325739	-0.535231
C54	C	0.905540	-0.149256	-0.302210
C55	C	0.905578	-0.074024	-0.302229
C56	C	0.865482	-0.282452	-0.567927
C57	C	0.865479	-0.282440	-0.633362
C58	C	0.905530	-0.325707	-0.666099
C59	C	0.945574	-0.369002	-0.633395
C60	C	0.945570	-0.369018	-0.567961
C61	C	0.961982	-0.331011	-0.769804
C62	C	0.961987	-0.330990	-0.835237
C63	C	0.905540	-0.325661	-0.867920
C64	C	0.849087	-0.320338	-0.835161
C65	C	0.849084	-0.320354	-0.769727
C66	C	0.905538	-0.325694	-0.737051
C67	C	0.865493	-0.282358	-0.971569
C68	C	0.865490	-0.282351	-1.037005
C69	C	0.945590	-0.368909	-1.037037
C70	C	0.945587	-0.368920	-0.971601
C71	C	0.905540	-0.325642	-0.938871
C72	C	0.905439	-0.325792	-0.139378
C73	C	0.905540	-0.325619	-0.069738
H74	H	0.465231	-0.335657	-0.404552
F75	F	0.789008	-0.314663	-0.869939
F76	F	0.822655	-0.574654	-0.384765
H77	H	0.978305	-1.067427	-0.229618
F78	F	0.136431	-0.415221	-0.384838
F79	F	0.271501	-0.415260	-0.384783
H80	H	0.548247	-0.404477	-0.374685
F81	F	0.988218	-0.720489	-0.219558
F82	F	0.822771	-0.930424	-0.384825
H83	H	0.803118	-0.316022	-0.743058
F84	F	0.988190	-0.415091	-0.533162
F85	F	0.540038	-0.236359	-0.219563
H86	H	0.666932	-0.247215	-0.229519
F87	F	0.338120	-0.314611	-0.185677
F88	F	0.988195	-0.415052	-0.668237
F89	F	0.822817	-1.076335	-0.384843
H90	H	0.144582	-0.247110	-0.229705
F91	F	0.675137	-0.415348	-0.384635
H92	H	0.346519	-0.335627	-0.404594
H93	H	0.832879	-0.247104	-1.063625
F94	F	1.022067	-0.336660	-0.870095
F95	F	0.822707	-0.720573	-0.384788
F96	F	1.022064	-0.336688	-0.735027
H97	H	0.978142	-0.583421	-0.229535
F98	F	0.988211	-0.414961	-1.071873
H99	H	0.832869	-0.247214	-0.541282
H100	H	0.263293	-0.247138	-0.229658
H101	H	0.465020	-0.315991	-0.199743
F102	F	0.822871	-0.236355	-0.668167
F103	F	0.822869	-0.236301	-0.936733
H104	H	0.978261	-0.939181	-0.229597
H105	H	0.978195	-0.404168	-0.944980
