data_functionalizedCrystal
_audit_creation_method	'MofGen! by Chris Wilmer'
_symmetry_space_group_name_H-M	'P1'
_symmetry_Int_Tables_number	1
_symmetry_cell_setting	triclinic
loop_
_symmetry_equiv_pos_as_xyz
  x,y,z
_cell_length_a	10.540510
_cell_length_b	15.944551
_cell_length_c	9.016244
_cell_angle_alpha	89.997613
_cell_angle_beta	89.990439
_cell_angle_gamma	84.006024
loop_
_atom_site_label
_atom_site_type_symbol
_atom_site_fract_x
_atom_site_fract_y
_atom_site_fract_z
O1	O	1.684309	0.118249	-0.123353
O2	O	1.314739	0.129428	-0.123354
O3	O	1.509616	0.001623	-0.123340
O4	O	1.489432	0.246054	-0.123367
O5	O	1.509580	0.001629	0.123340
O6	O	1.314703	0.129434	0.123326
O7	O	1.684273	0.118255	0.123328
Cu8	Cu	1.499484	0.123845	0.145851
Cu9	Cu	1.499527	0.123838	-0.145878
O10	O	1.489395	0.246060	0.123314
C11	C	1.267428	0.128598	-0.000014
C12	C	1.126512	0.126106	-0.000014
C13	C	0.907848	0.214891	-0.000591
C14	C	1.054407	0.217550	-0.000026
C15	C	1.082369	0.079298	0.140854
C16	C	0.935636	0.077287	0.140964
C17	C	0.935897	0.075377	-0.139558
C18	C	1.082179	0.079714	-0.141412
C19	C	1.508760	-0.029673	0.000000
C20	C	1.506248	-0.122934	0.000001
C21	C	1.379449	-0.338537	-0.000020
C22	C	1.438312	-0.399205	0.121609
C23	C	1.501703	-0.293686	-0.000010
C24	C	1.438377	-0.399194	-0.121599
C25	C	1.497304	-0.458625	-0.000028
C26	C	1.560600	-0.353126	0.121719
C27	C	1.560647	-0.353108	-0.121598
C28	C	1.619599	-0.413758	0.000060
C29	C	1.504234	-0.198669	0.000001
C30	C	1.494783	-0.553641	-0.000028
C31	C	1.731583	0.119085	-0.000016
C32	C	1.872499	0.121577	-0.000026
C33	C	1.490251	0.277356	-0.000030
C34	C	1.492764	0.370617	-0.000041
N35	N	1.499464	0.123849	0.351037
C36	C	1.394896	0.191989	0.586062
C37	C	1.395127	0.192242	0.414171
C38	C	1.631915	0.143778	0.413373
C39	C	1.631337	0.144263	0.585318
C40	C	1.472884	0.035561	0.585590
C41	C	1.469837	0.036131	0.413636
N42	N	1.499527	0.123838	0.648936
H43	H	0.894968	0.109280	0.246258
H44	H	0.892971	0.104212	-0.246329
N45	N	1.628993	-0.326258	0.258102
H46	H	1.719430	-0.354344	0.258538
H47	H	1.630134	-0.263001	0.257228
H48	H	1.721165	-0.446318	0.000129
N49	N	0.906394	-0.013304	0.149448
H50	H	0.988791	-0.051756	0.153108
H51	H	0.854878	-0.021572	0.241777
N52	N	1.573935	-0.031643	0.639441
H53	H	1.660531	-0.018020	0.604637
H54	H	1.572547	-0.033684	0.751381
N55	N	1.148374	-0.008721	-0.152677
H56	H	1.082696	-0.050527	-0.151427
H57	H	1.198473	-0.014791	-0.248254
N58	N	0.849581	0.261820	0.132461
H59	H	0.753732	0.262312	0.128992
H60	H	0.883313	0.232855	0.226214
N61	N	1.737515	0.079823	0.359217
H62	H	1.700423	0.037214	0.293593
H63	H	1.801417	0.109467	0.300888
N64	N	0.851368	0.262052	-0.134297
H65	H	0.791755	0.312122	-0.100523
H66	H	0.922076	0.282216	-0.196177
H67	H	1.386667	-0.419577	-0.224434
N68	N	1.369799	-0.426233	0.257818
H69	H	1.293936	-0.455878	0.226797
H70	H	1.429981	-0.465902	0.318694
H71	H	1.296129	0.180184	0.627457
N72	N	1.245036	-0.295207	0.000136
H73	H	1.247673	-0.232071	-0.000806
H74	H	1.198450	-0.312729	-0.090787
N75	N	1.417674	0.278991	0.359646
H76	H	1.417916	0.279517	0.247631
H77	H	1.347518	0.321637	0.397406
H78	H	1.411675	0.257112	0.629248
H79	H	1.082295	0.254395	0.101116
H80	H	1.130675	0.011979	0.146101
N81	N	1.629113	-0.326041	-0.257803
H82	H	1.582864	-0.342619	-0.349633
H83	H	1.631009	-0.262850	-0.256133
N84	N	1.264718	0.176364	0.358332
H85	H	1.206563	0.169137	0.445416
H86	H	1.228242	0.225843	0.296272
N87	N	1.122626	0.122356	0.279719
H88	H	1.169446	0.172172	0.251700
H89	H	1.044603	0.142454	0.340075
N90	N	1.662434	0.229569	0.638427
H91	H	1.676386	0.266506	0.550143
H92	H	1.589286	0.256743	0.699951
H93	H	1.711628	0.096624	0.626906
N94	N	1.663754	0.228122	0.356304
H95	H	1.595839	0.273696	0.389262
H96	H	1.749174	0.240306	0.397047
N97	N	1.347714	0.010441	0.643094
H98	H	1.307008	0.056037	0.710801
H99	H	1.288915	0.002654	0.556879
N100	N	1.092642	0.266076	-0.133764
H101	H	1.188134	0.267905	-0.133645
H102	H	1.066533	0.237340	-0.227081
H103	H	1.110349	0.113771	-0.245625
H104	H	0.914677	0.006720	-0.140503
H105	H	1.372404	0.021025	0.372896
N106	N	1.564224	-0.034279	0.356744
H107	H	1.627813	-0.010206	0.289285
H108	H	1.610586	-0.063738	0.443255
