data_functionalizedCrystal
_audit_creation_method	'MofGen! by Chris Wilmer'
_symmetry_space_group_name_H-M	'P1'
_symmetry_Int_Tables_number	1
_symmetry_cell_setting	triclinic
loop_
_symmetry_equiv_pos_as_xyz
  x,y,z
_cell_length_a	15.625110
_cell_length_b	27.732048
_cell_length_c	14.750779
_cell_angle_alpha	77.459753
_cell_angle_beta	120.099500
_cell_angle_gamma	83.482788
loop_
_atom_site_label
_atom_site_type_symbol
_atom_site_fract_x
_atom_site_fract_y
_atom_site_fract_z
O1	O	1.286208	0.014836	0.367963
O2	O	0.998925	0.035475	0.267940
O3	O	1.151494	-0.045613	0.321078
O4	O	1.133639	0.095924	0.314825
O5	O	1.194623	-0.068533	0.495750
O6	O	1.042054	0.012555	0.442612
O7	O	1.329338	-0.008084	0.542635
Zn8	Zn	1.192544	-0.001404	0.520356
Zn9	Zn	1.135719	0.028795	0.290219
O10	O	1.176769	0.073004	0.489497
C11	C	0.983747	0.025353	0.342484
C12	C	0.874267	0.029332	0.304367
C13	C	0.696449	0.047435	0.155437
C14	C	0.799326	0.043694	0.191264
C15	C	0.846353	0.018709	0.381687
C16	C	0.743478	0.022450	0.345875
C17	C	0.668533	0.036813	0.232749
C18	C	0.715561	0.011828	0.423188
C19	C	0.612696	0.015567	0.387379
C20	C	0.537747	0.029928	0.274257
C21	C	0.565668	0.040552	0.196940
C22	C	0.790508	-0.002538	0.536314
C23	C	0.762592	-0.013160	0.613627
C24	C	0.659724	-0.009418	0.577817
C25	C	0.584775	0.004943	0.464696
C26	C	0.631803	-0.020042	0.655135
C27	C	0.528938	-0.016303	0.619325
C28	C	0.481910	0.008682	0.428887
C29	C	1.172685	-0.075065	0.408287
C30	C	1.171559	-0.128674	0.407903
C31	C	1.254600	-0.470921	0.436766
C32	C	1.250411	-0.672405	0.435294
O33	O	1.326347	-0.706799	0.461690
N34	N	1.159947	-0.687784	0.403798
C35	C	1.070522	-0.652787	0.372661
O36	O	0.993479	-0.670489	0.345828
C37	C	1.074710	-0.451302	0.374126
C38	C	1.165183	-0.435928	0.405634
C39	C	1.345065	-0.455546	0.468270
C40	C	1.346112	-0.405179	0.468644
C41	C	1.256695	-0.370186	0.437512
C42	C	1.166230	-0.385561	0.406007
C43	C	0.985285	-0.416305	0.342982
C44	C	0.986339	-0.365931	0.343348
C45	C	1.076811	-0.350557	0.374856
C46	C	1.077861	-0.300201	0.375249
N47	N	1.168325	-0.284822	0.406745
C48	C	1.257742	-0.319815	0.437877
C49	C	1.068331	-0.758570	0.371897
C50	C	1.067284	-0.808941	0.371532
C51	C	1.247173	-0.828556	0.434163
C52	C	1.248220	-0.778185	0.434535
C53	C	1.158795	-0.743191	0.403392
C54	C	1.259935	-0.214039	0.438659
C55	C	1.260976	-0.163667	0.439034
C56	C	1.081086	-0.144056	0.376398
C57	C	1.080047	-0.194424	0.376028
C58	C	1.169478	-0.229415	0.407158
O59	O	1.001962	-0.265779	0.348855
O60	O	1.334769	-0.302100	0.464683
C61	C	1.253552	-0.521288	0.436392
C62	C	1.163088	-0.536663	0.404888
C63	C	1.073670	-0.501671	0.373756
C64	C	1.162041	-0.587034	0.404523
C65	C	1.251458	-0.622027	0.435655
C66	C	1.341922	-0.606648	0.467150
C67	C	1.342970	-0.556281	0.467524
C68	C	0.983206	-0.517049	0.342260
C69	C	0.982166	-0.567418	0.341891
C70	C	1.071584	-0.602410	0.373022
C71	C	1.344515	0.002039	0.468089
C72	C	1.453993	-0.001940	0.506199
C73	C	1.155577	0.102456	0.402286
C74	C	1.156701	0.156067	0.402664
N75	N	1.231332	-0.022014	0.677422
N76	N	1.096938	0.049401	0.133156
C77	C	0.988607	0.106942	0.944702
C78	C	1.015795	0.092502	1.054670
C79	C	1.150922	0.020721	1.101696
C80	C	1.123742	0.035153	0.991728
C81	C	1.042585	0.078264	0.913239
C82	C	1.177720	0.006476	0.960266
C83	C	1.150546	0.020909	0.850309
C84	C	1.069394	0.064019	0.771815
C85	C	1.015411	0.092697	0.803282
C86	C	1.258882	-0.036633	1.038758
C87	C	1.312860	-0.065310	1.007296
C88	C	1.285681	-0.050880	0.897335
C89	C	1.204529	-0.007770	0.818841
C90	C	1.339664	-0.079558	0.865868
C91	C	1.312490	-0.065125	0.755911
C92	C	1.177354	0.006663	0.708884
H93	H	0.874266	-0.005581	0.565466
Br94	Br	0.859372	-0.588276	0.299133
Br95	Br	0.733524	-0.039541	0.808659
Br96	Br	0.959741	-0.096557	0.334150
H97	H	1.405750	-0.114656	0.929789
Br98	Br	0.864309	-0.032652	0.767151
H99	H	1.334653	-0.151154	0.464696
Br100	Br	1.371009	-0.757326	0.477299
H101	H	1.217004	-0.014379	1.165614
Br102	Br	0.491048	-0.030729	0.724250
Br103	Br	0.862492	-0.437155	0.300213
H104	H	1.419783	-0.392666	0.494297
Br105	Br	1.295766	-0.056215	1.187989
Br106	Br	1.381307	-0.261519	0.480906
Br107	Br	1.423004	-0.123814	1.113823
Br108	Br	1.385753	-0.104043	0.713211
H109	H	1.417882	-0.484033	0.493619
Br110	Br	0.837208	0.058109	0.086327
H111	H	0.910390	-0.488562	0.316906
H112	H	1.319980	-0.857056	0.459512
H113	H	0.907386	0.007013	0.473796
Br114	Br	1.067196	0.065166	0.602353
H115	H	0.993617	-0.821456	0.345893
H116	H	0.420883	0.020383	0.336767
Br117	Br	0.942531	0.131430	1.097360
Br118	Br	0.946954	-0.711084	0.329626
H119	H	1.047272	0.075771	0.682283
Br120	Br	0.864967	-0.318442	0.301076
H121	H	1.006384	-0.206946	0.350401
Br122	Br	1.465759	-0.535424	0.510281
H123	H	1.414730	-0.635149	0.492503
Br124	Br	0.878449	0.165445	0.838170
Br125	Br	0.398144	0.034992	0.225655
Br126	Br	0.463945	0.060055	0.043407
H127	H	0.635423	0.059137	0.063317
Br128	Br	0.905252	0.151200	0.696751
