data_functionalizedCrystal
_audit_creation_method	'MofGen! by Chris Wilmer'
_symmetry_space_group_name_H-M	'P1'
_symmetry_Int_Tables_number	1
_symmetry_cell_setting	triclinic
loop_
_symmetry_equiv_pos_as_xyz
  x,y,z
_cell_length_a	10.723023
_cell_length_b	9.798715
_cell_length_c	10.654550
_cell_angle_alpha	90.001980
_cell_angle_beta	84.476225
_cell_angle_gamma	90.003230
loop_
_atom_site_label
_atom_site_type_symbol
_atom_site_fract_x
_atom_site_fract_y
_atom_site_fract_z
O1	O	1.657214	0.113473	0.176142
O2	O	1.294064	0.113479	0.193004
O3	O	1.483989	0.113471	0.001832
O4	O	1.467289	0.113481	0.367313
O5	O	1.483974	-0.113511	0.001832
O6	O	1.294050	-0.113503	0.193003
O7	O	1.657200	-0.113509	0.176142
Zn8	Zn	1.475623	-0.149544	0.184572
Zn9	Zn	1.475641	0.149514	0.184573
O10	O	1.467275	-0.113501	0.367313
C11	C	1.247557	-0.000012	0.191777
C12	C	1.109002	-0.000010	0.188106
C13	C	1.047223	-0.117592	0.186469
C14	C	0.904019	-0.117593	0.182675
N15	N	1.475619	-0.353644	0.184571
C16	C	1.555363	-0.421424	0.103950
C17	C	1.555383	-0.578587	0.103946
C18	C	1.703707	-0.000015	0.177369
C19	C	1.842262	-0.000009	0.181039
C20	C	1.482755	-0.000019	-0.044966
C21	C	1.479087	-0.000014	-0.184408
N22	N	1.475655	0.353614	0.184564
C23	C	1.590911	-0.000020	-0.263911
C24	C	1.587457	-0.000010	-0.394931
C25	C	1.360344	0.000006	-0.366933
C26	C	1.363800	0.000006	-0.235915
C27	C	1.722034	-0.000034	-0.280077
C28	C	1.718579	-0.000025	-0.411097
C29	C	1.468508	-0.000008	0.414111
C30	C	1.472177	-0.000004	0.553554
H31	H	0.850889	-0.218259	0.181275
H32	H	1.767978	-0.095015	-0.452865
H33	H	0.895382	0.100663	0.182454
F34	F	1.776584	-0.128143	-0.233510
F35	F	1.644359	-0.345200	0.013509
F36	F	1.789075	0.124114	-0.241707
H37	H	1.758212	0.097979	-0.456746
F38	F	1.039570	0.131574	0.186258
H39	H	1.100349	-0.218258	0.187870
F40	F	1.386418	-0.570211	0.274795
H41	H	1.623660	-0.636875	0.034927
F42	F	1.386393	-0.429869	0.274782
H43	H	1.272741	0.000029	-0.171188
F44	F	1.237653	0.000030	-0.421763
