data_functionalizedCrystal
_audit_creation_method	'MofGen! by Chris Wilmer'
_symmetry_space_group_name_H-M	'P1'
_symmetry_Int_Tables_number	1
_symmetry_cell_setting	triclinic
loop_
_symmetry_equiv_pos_as_xyz
  x,y,z
_cell_length_a	10.489741
_cell_length_b	16.974897
_cell_length_c	15.455313
_cell_angle_alpha	83.675220
_cell_angle_beta	92.692689
_cell_angle_gamma	83.968987
loop_
_atom_site_label
_atom_site_type_symbol
_atom_site_fract_x
_atom_site_fract_y
_atom_site_fract_z
O1	O	0.151333	1.057023	-0.146252
O2	O	0.173272	0.826166	-0.130065
O3	O	-0.023409	0.946847	-0.138522
O4	O	0.348015	0.936342	-0.137795
O5	O	-0.012208	0.939946	0.006224
O6	O	0.184473	0.819265	0.014680
O7	O	0.162534	1.050121	-0.001506
Cu8	Cu	0.174527	0.934063	0.019804
Cu9	Cu	0.161280	0.942224	-0.151375
O10	O	0.359216	0.929440	0.006950
C11	C	0.178243	0.793154	-0.055620
C12	C	0.176352	0.705071	-0.049444
C13	C	0.169361	0.667444	-0.125436
C14	C	0.167605	0.584678	-0.119620
C15	C	0.172830	0.539542	-0.037811
C16	C	0.179826	0.577175	0.038188
C17	C	0.181591	0.659938	0.032371
C18	C	0.168215	0.291613	-0.011954
C19	C	0.166445	0.208844	-0.006143
C20	C	0.154227	0.216353	-0.163952
C21	C	0.155985	0.299118	-0.169761
C22	C	0.162987	0.336743	-0.093763
N23	N	0.171032	0.454943	-0.031864
N24	N	0.164795	0.421340	-0.099710
C25	C	-0.065323	0.942603	-0.066094
C26	C	-0.206901	0.940229	-0.065929
C27	C	-0.273363	0.863443	-0.060551
C28	C	-0.360756	0.896314	0.008273
C29	C	-0.371774	0.903136	-0.134437
C30	C	-0.292424	0.973128	0.002952
C31	C	-0.303438	0.979943	-0.139821
C32	C	-0.390803	1.012868	-0.070984
C33	C	0.401130	0.933684	-0.065480
C34	C	0.542707	0.936059	-0.065650
C35	C	0.157563	1.083133	-0.075954
C36	C	0.159455	1.171217	-0.082135
N37	N	0.183843	0.928328	0.140201
N38	N	0.151954	0.947965	-0.271773
C39	C	0.100316	0.979616	0.182001
C40	C	0.107373	0.975286	0.273113
C41	C	0.197964	0.919672	0.322422
C42	C	0.281494	0.868379	0.280615
C43	C	0.274430	0.872706	0.189506
C44	C	0.228420	0.900999	0.595312
C45	C	0.235481	0.896678	0.686427
C46	C	0.061357	1.003584	0.678918
C47	C	0.054306	1.007909	0.587807
C48	C	0.137832	0.956613	0.546009
N49	N	0.205182	0.915247	0.415552
N50	N	0.130607	0.961035	0.452880
H51	H	0.165101	0.704188	-0.192055
F52	F	-0.269888	1.026135	-0.221663
H53	H	-0.441605	1.076056	-0.075374
F54	F	-0.027535	1.058172	0.723408
H55	H	0.173908	0.322237	0.049930
H56	H	0.296433	0.859233	0.561287
H57	H	-0.406697	0.873513	-0.192499
H58	H	-0.222326	0.800307	-0.056053
H59	H	-0.386388	0.860947	0.070886
F60	F	0.377904	0.809186	0.333095
H61	H	0.170737	0.172093	0.060480
F62	F	0.003901	1.038812	0.129531
F63	F	0.185397	0.529135	0.125256
F64	F	0.160166	0.544636	-0.200503
H65	H	0.148529	0.185710	-0.225825
F66	F	0.018473	1.029871	0.317600
F67	F	0.189036	0.699983	0.113253
H68	H	-0.257628	1.002710	0.061079
F69	F	0.331909	0.837483	0.738900
F70	F	0.150417	0.347150	-0.256834
F71	F	-0.042109	1.067100	0.535329
F72	F	0.363328	0.818115	0.145021
