data_functionalizedCrystal
_audit_creation_method	'MofGen! by Chris Wilmer'
_symmetry_space_group_name_H-M	'P1'
_symmetry_Int_Tables_number	1
_symmetry_cell_setting	triclinic
loop_
_symmetry_equiv_pos_as_xyz
  x,y,z
_cell_length_a	9.065218
_cell_length_b	15.500215
_cell_length_c	9.065218
_cell_angle_alpha	93.142982
_cell_angle_beta	85.015885
_cell_angle_gamma	93.145084
loop_
_atom_site_label
_atom_site_type_symbol
_atom_site_fract_x
_atom_site_fract_y
_atom_site_fract_z
O1	O	1.966602	0.071943	0.222556
O2	O	2.466602	0.571943	0.722556
O3	O	1.537317	0.071944	0.240303
O4	O	2.037317	0.571944	0.740303
O5	O	1.760833	0.071942	0.016787
O6	O	2.260833	0.571942	0.516787
O7	O	1.743087	0.071945	0.446072
O8	O	2.243087	0.571945	0.946072
O9	O	1.748412	-0.071948	0.004380
O10	O	2.248412	0.428052	0.504380
O11	O	1.524896	-0.071945	0.227896
O12	O	2.024896	0.428055	0.727896
O13	O	1.954181	-0.071946	0.210150
O14	O	2.454181	0.428054	0.710150
Cu15	Cu	1.738404	-0.085084	0.217890
Cu16	Cu	2.238404	0.414916	0.717890
Cu17	Cu	1.753094	0.085082	0.232563
Cu18	Cu	2.253094	0.585082	0.732563
O19	O	1.730666	-0.071944	0.433666
O20	O	2.230666	0.428056	0.933666
C21	C	1.476120	-0.000001	0.232394
C22	C	1.976120	0.499999	0.732394
C23	C	1.312277	-0.000000	0.227294
C24	C	1.812277	0.500000	0.727294
N25	N	1.728083	-0.204770	0.207570
N26	N	2.228083	0.295230	0.707570
C27	C	1.814864	-0.250042	0.294411
C28	C	2.314864	0.249958	0.794411
C29	C	1.807078	-0.340615	0.286597
C30	C	2.307078	0.159385	0.786597
C31	C	1.712502	-0.385914	0.191948
C32	C	2.212502	0.114086	0.691948
C33	C	1.625719	-0.340636	0.105096
C34	C	2.125719	0.159364	0.605096
C35	C	1.633514	-0.250064	0.112904
C36	C	2.133514	0.249936	0.612904
C37	C	1.684438	-0.659383	0.163827
C38	C	2.184438	-0.159383	0.663827
C39	C	1.676646	-0.749960	0.156030
C40	C	2.176646	-0.249960	0.656030
C41	C	1.858008	-0.749934	0.337530
C42	C	2.358008	-0.249934	0.837530
C43	C	1.865788	-0.659361	0.345335
C44	C	2.365788	-0.159361	0.845335
C45	C	1.779010	-0.614090	0.258478
C46	C	2.279010	-0.114090	0.758478
C47	C	1.704538	-0.478495	0.183961
C48	C	2.204538	0.021505	0.683961
C49	C	1.786983	-0.521511	0.266457
C50	C	2.286983	-0.021511	0.766457
C51	C	2.015378	0.000000	0.218059
C52	C	2.515378	0.500000	0.718059
C53	C	2.179222	0.000005	0.223159
C54	C	2.679222	0.500005	0.723159
C55	C	1.752917	-0.000002	-0.044403
C56	C	2.252917	0.499998	0.455597
C57	C	1.747818	0.000003	-0.208245
C58	C	2.247818	0.500003	0.291755
N59	N	1.763426	0.204767	0.242872
N60	N	2.263426	0.704767	0.742872
C61	C	1.738582	0.000001	0.494856
C62	C	2.238582	0.500001	0.994856
C63	C	1.743682	0.000003	0.658699
C64	C	2.243682	0.500003	1.158699
H65	H	1.891869	-0.213166	0.371494
H66	H	2.391869	0.286834	0.871494
H67	H	1.942805	-0.622484	0.422404
H68	H	2.442805	-0.122484	0.922404
H69	H	1.562847	-0.213204	0.042188
H70	H	2.062847	0.286796	0.542188
C71	C	1.953468	-0.799733	0.433050
C72	C	2.453468	-0.299733	0.933050
H73	H	1.935294	-0.860162	0.414839
H74	H	2.435294	-0.360162	0.914839
H75	H	1.928681	-0.784890	0.534909
H76	H	2.428681	-0.284890	1.034909
H77	H	2.055340	-0.784879	0.408306
H78	H	2.555340	-0.284879	0.908306
C79	C	1.572615	-0.799792	0.051909
C80	C	2.072615	-0.299792	0.551909
H81	H	1.580392	-0.860217	0.059717
H82	H	2.080392	-0.360217	0.559717
H83	H	1.599966	-0.784955	-0.047392
H84	H	2.099966	-0.284955	0.452608
H85	H	1.473295	-0.784957	0.079199
H86	H	1.973295	-0.284957	0.579199
C87	C	1.902531	-0.390411	0.382129
C88	C	2.402531	0.109589	0.882129
H89	H	1.959958	-0.350461	0.439631
H90	H	2.459958	0.149539	0.939631
H91	H	1.966598	-0.425738	0.319570
H92	H	2.466598	0.074262	0.819570
H93	H	1.839917	-0.425747	0.446151
H94	H	2.339917	0.074253	0.946151
C95	C	1.588971	-0.609596	0.068302
C96	C	2.088971	-0.109596	0.568302
H97	H	1.531518	-0.649549	0.010831
H98	H	2.031518	-0.149549	0.510831
H99	H	1.651564	-0.574260	0.004276
H100	H	2.151564	-0.074260	0.504276
H101	H	1.524903	-0.574270	0.130878
H102	H	2.024903	-0.074270	0.630878
H103	H	1.548721	-0.377525	0.028023
H104	H	2.048721	0.122475	0.528023
H105	H	1.863991	-0.484625	0.343515
H106	H	2.363991	0.015375	0.843515
H107	H	1.627534	-0.515387	0.106898
H108	H	2.127534	-0.015387	0.606898
