data_functionalizedCrystal
_audit_creation_method	'MofGen! by Chris Wilmer'
_symmetry_space_group_name_H-M	'P1'
_symmetry_Int_Tables_number	1
_symmetry_cell_setting	triclinic
loop_
_symmetry_equiv_pos_as_xyz
  x,y,z
_cell_length_a	11.169417
_cell_length_b	16.120484
_cell_length_c	16.120297
_cell_angle_alpha	84.385569
_cell_angle_beta	87.118439
_cell_angle_gamma	92.926269
loop_
_atom_site_label
_atom_site_type_symbol
_atom_site_fract_x
_atom_site_fract_y
_atom_site_fract_z
Zn1	Zn	1.773031	-0.356726	0.489383
Zn2	Zn	1.772879	-0.489415	0.356693
Zn3	Zn	1.583045	-0.349664	0.349636
Zn4	Zn	1.561557	-0.496459	0.496424
O5	O	1.672628	-0.423066	0.423034
O6	O	1.940959	-0.374335	0.471788
O7	O	1.756627	-0.464974	0.238795
O8	O	1.617304	-0.233635	0.362274
O9	O	1.940848	-0.471821	0.374301
O10	O	1.756885	-0.238823	0.464945
O11	O	1.617157	-0.362299	0.233610
O12	O	1.412246	-0.369129	0.369102
O13	O	1.580679	-0.483826	0.612452
O14	O	1.396459	-0.476979	0.476946
O15	O	1.736048	-0.381165	0.607279
O16	O	1.735791	-0.607315	0.381129
O17	O	1.580533	-0.612490	0.483789
C18	C	1.360805	-0.423053	0.423023
C19	C	1.227403	-0.423068	0.423039
C20	C	1.655845	-0.640231	0.434007
C21	C	1.648772	-0.733137	0.438729
C22	C	1.635866	-0.903237	0.447368
C23	C	1.709604	-0.942055	0.398714
C24	C	1.702423	-1.036705	0.403521
C25	C	1.643045	-0.808579	0.442562
C26	C	1.985668	-0.423080	0.423046
C27	C	2.119068	-0.423086	0.423051
C28	C	1.655984	-0.434069	0.641041
C29	C	1.648891	-0.438758	0.733942
C30	C	1.689508	-0.205054	0.412037
C31	C	1.696702	-0.112150	0.407350
C32	C	1.689281	-0.412046	0.205873
C33	C	1.696625	-0.407121	0.112960
C34	C	1.635899	-0.447300	0.904033
C35	C	1.709613	-0.398582	0.942875
C36	C	1.702384	-0.403335	1.037519
C37	C	1.643126	-0.442548	0.809380
H38	H	1.778126	-0.904204	0.353450
Cl39	Cl	1.530074	-0.961673	0.517245
H40	H	1.778150	-0.353303	0.905048
Cl41	Cl	1.530092	-0.517206	0.962431
