data_functionalizedCrystal
_audit_creation_method	'MofGen! by Chris Wilmer'
_symmetry_space_group_name_H-M	'P1'
_symmetry_Int_Tables_number	1
_symmetry_cell_setting	triclinic
loop_
_symmetry_equiv_pos_as_xyz
  x,y,z
_cell_length_a	29.839135
_cell_length_b	29.839131
_cell_length_c	29.839125
_cell_angle_alpha	90.017709
_cell_angle_beta	90.015488
_cell_angle_gamma	90.043950
loop_
_atom_site_label
_atom_site_type_symbol
_atom_site_fract_x
_atom_site_fract_y
_atom_site_fract_z
Zn1	Zn	0.686720	-0.178886	0.254047
Zn2	Zn	1.186720	0.321114	0.754047
Zn3	Zn	0.686652	-0.253998	0.178917
Zn4	Zn	1.186652	0.246002	0.678917
Zn5	Zn	0.611602	-0.178886	0.178925
Zn6	Zn	1.111602	0.321114	0.678925
Zn7	Zn	0.611550	-0.253993	0.254014
Zn8	Zn	1.111550	0.246007	0.754014
O9	O	0.649131	-0.216441	0.216476
O10	O	1.149131	0.283559	0.716476
O11	O	0.749578	-0.188852	0.244092
O12	O	1.249578	0.311148	0.744092
O13	O	0.676690	-0.244036	0.116051
O14	O	1.176690	0.255964	0.616051
O15	O	0.621617	-0.116019	0.188908
O16	O	1.121617	0.383981	0.688908
O17	O	0.749528	-0.244036	0.188894
O18	O	1.249528	0.255964	0.688894
O19	O	0.676805	-0.116019	0.244099
O20	O	1.176805	0.383981	0.744099
O21	O	0.621551	-0.188852	0.116057
O22	O	1.121551	0.311148	0.616057
O23	O	0.548728	-0.188847	0.188876
O24	O	1.048728	0.311153	0.688876
O25	O	0.621528	-0.244028	0.316886
O26	O	1.121528	0.255972	0.816886
O27	O	0.548690	-0.244028	0.244043
O28	O	1.048690	0.255972	0.744043
O29	O	0.676755	-0.188847	0.316910
O30	O	1.176755	0.311153	0.816910
O31	O	0.676639	-0.316865	0.188862
O32	O	1.176639	0.183135	0.688862
O33	O	0.621462	-0.316861	0.244035
O34	O	1.121462	0.183139	0.744035
C35	C	0.532408	-0.216437	0.216457
C36	C	1.032408	0.283563	0.716457
C37	C	0.482474	-0.216447	0.216459
C38	C	0.982474	0.283553	0.716459
C39	C	0.649050	-0.333163	0.216454
C40	C	1.149050	0.166837	0.716454
C41	C	0.649056	-0.383098	0.216459
C42	C	1.149056	0.116902	0.716459
C43	C	0.677914	-0.692730	0.187789
C44	C	1.177914	-0.192730	0.687789
C45	C	0.677969	-0.880403	0.187807
C46	C	1.177969	-0.380403	0.687807
O47	O	0.702441	-0.904659	0.163413
O48	O	1.202441	-0.404659	0.663413
N49	N	0.649224	-0.903883	0.216510
N50	N	1.149224	-0.403883	0.716510
C51	C	0.620465	-0.880441	0.245213
C52	C	1.120465	-0.380441	0.745213
O53	O	0.596020	-0.904718	0.269630
O54	O	1.096020	-0.404718	0.769630
C55	C	0.620412	-0.692769	0.245197
C56	C	1.120412	-0.192769	0.745197
C57	C	0.649156	-0.669292	0.216489
C58	C	1.149156	-0.169292	0.716489
C59	C	0.706656	-0.669253	0.159084
C60	C	1.206656	-0.169253	0.659084
C61	C	0.706640	-0.622338	0.159078
C62	C	1.206640	-0.122338	0.659078
C63	C	0.677882	-0.598900	0.187778
C64	C	1.177882	-0.098900	0.687778
C65	C	0.649140	-0.622377	0.216483
C66	C	1.149140	-0.122377	0.716483
C67	C	0.591656	-0.669328	0.273902
C68	C	1.091656	-0.169328	0.773902
C69	C	0.591646	-0.622407	0.273897
C70	C	1.091646	-0.122407	0.773897
C71	C	0.620390	-0.598930	0.245188
C72	C	1.120390	-0.098930	0.745188
C73	C	0.620367	-0.552023	0.245177
C74	C	1.120367	-0.052023	0.745177
N75	N	0.649112	-0.528543	0.216474
N76	N	1.149112	-0.028543	0.716474
C77	C	0.677869	-0.551982	0.187774
C78	C	1.177869	-0.051982	0.687774
C79	C	0.620494	-0.978972	0.245218
C80	C	1.120494	-0.478972	0.745218
C81	C	0.620507	-1.025889	0.245222
C82	C	1.120507	-0.525889	0.745222
C83	C	0.678012	-1.025849	0.187816
C84	C	1.178012	-0.525849	0.687816
C85	C	0.677997	-0.978930	0.187811
C86	C	1.177997	-0.478930	0.687811
C87	C	0.649239	-0.955492	0.216515
C88	C	1.149239	-0.455492	0.716515
C89	C	0.677834	-0.453456	0.187764
C90	C	1.177834	0.046544	0.687764
C91	C	0.677814	-0.406536	0.187759
C92	C	1.177814	0.093464	0.687759
C93	C	0.620311	-0.406581	0.245167
C94	C	1.120311	0.093419	0.745167
C95	C	0.620329	-0.453497	0.245170
C96	C	1.120329	0.046503	0.745170
C97	C	0.649094	-0.476933	0.216467
C98	C	1.149094	0.023067	0.716467
O99	O	0.595912	-0.527738	0.269561
O100	O	1.095912	-0.027738	0.769561
O101	O	0.702318	-0.527697	0.163367
O102	O	1.202318	-0.027697	0.663367
C103	C	0.677930	-0.739646	0.187795
C104	C	1.177930	-0.239646	0.687795
C105	C	0.649188	-0.763123	0.216501
C106	C	1.149188	-0.263123	0.716501
C107	C	0.620430	-0.739684	0.245200
C108	C	1.120430	-0.239684	0.745200
C109	C	0.649200	-0.810041	0.216504
C110	C	1.149200	-0.310041	0.716504
C111	C	0.677958	-0.833479	0.187804
C112	C	1.177958	-0.333479	0.687804
C113	C	0.706703	-0.810000	0.159101
C114	C	1.206703	-0.310000	0.659101
C115	C	0.706687	-0.763084	0.159095
C116	C	1.206687	-0.263084	0.659095
C117	C	0.591685	-0.763164	0.273904
C118	C	1.091685	-0.263164	0.773904
C119	C	0.591703	-0.810079	0.273907
C120	C	1.091703	-0.310079	0.773907
C121	C	0.620461	-0.833518	0.245207
C122	C	1.120461	-0.333518	0.745207
C123	C	0.172854	-0.187750	0.245260
C124	C	0.672854	0.312250	0.745260
C125	C	-0.014819	-0.187753	0.245273
C126	C	0.485181	0.312247	0.745273
O127	O	-0.039065	-0.163344	0.269738
O128	O	0.460935	0.336656	0.769738
N129	N	-0.038311	-0.216441	0.216492
N130	N	0.461689	0.283559	0.716492
C131	C	-0.014882	-0.245129	0.187705
C132	C	0.485118	0.254871	0.687705
O133	O	-0.039169	-0.269527	0.163223
O134	O	0.460831	0.230473	0.663223
C135	C	0.172791	-0.245123	0.187690
C136	C	0.672791	0.254877	0.687690
C137	C	0.196280	-0.216436	0.216475
C138	C	0.696280	0.283564	0.716475
C139	C	0.196343	-0.159065	0.274042
C140	C	0.696343	0.340935	0.774042
C141	C	0.243258	-0.159066	0.274040
C142	C	0.743258	0.340934	0.774040
C143	C	0.266684	-0.187752	0.245256
C144	C	0.766684	0.312248	0.745256
C145	C	0.243195	-0.216437	0.216474
C146	C	0.743195	0.283563	0.716474
C147	C	0.196219	-0.273808	0.158901
C148	C	0.696219	0.226192	0.658901
C149	C	0.243140	-0.273803	0.158899
C150	C	0.743140	0.226197	0.658899
C151	C	0.266630	-0.245116	0.187684
C152	C	0.766630	0.254884	0.687684
C153	C	0.313537	-0.245125	0.187688
C154	C	0.813537	0.254875	0.687688
N155	N	0.337029	-0.216437	0.216468
N156	N	0.837029	0.283563	0.716468
C157	C	0.313602	-0.187750	0.245252
C158	C	0.813602	0.312250	0.745252
C159	C	-0.113412	-0.245130	0.187715
C160	C	0.386588	0.254870	0.687715
C161	C	-0.160330	-0.245133	0.187720
C162	C	0.339670	0.254867	0.687720
C163	C	-0.160265	-0.187756	0.245287
C164	C	0.339735	0.312244	0.745287
C165	C	-0.113346	-0.187756	0.245284
C166	C	0.386654	0.312244	0.745284
C167	C	-0.089921	-0.216442	0.216495
C168	C	0.410079	0.283558	0.716495
C169	C	0.412128	-0.187755	0.245246
C170	C	0.912128	0.312245	0.745246
C171	C	0.459048	-0.187760	0.245243
C172	C	0.959048	0.312240	0.745243
C173	C	0.458978	-0.245135	0.187675
C174	C	0.958978	0.254865	0.687675
C175	C	0.412063	-0.245132	0.187679
C176	C	0.912063	0.254868	0.687679
C177	C	0.388639	-0.216438	0.216467
C178	C	0.888639	0.283562	0.716467
O179	O	0.337811	-0.269518	0.163231
O180	O	0.837811	0.230482	0.663231
O181	O	0.337898	-0.163349	0.269724
O182	O	0.837898	0.336651	0.769724
C183	C	0.125938	-0.187749	0.245262
C184	C	0.625938	0.312251	0.745262
C185	C	0.102449	-0.216434	0.216479
C186	C	0.602449	0.283566	0.716479
C187	C	0.125875	-0.245120	0.187695
C188	C	0.625875	0.254880	0.687695
C189	C	0.055531	-0.216436	0.216483
C190	C	0.555531	0.283564	0.716483
C191	C	0.032105	-0.187749	0.245267
C192	C	0.532105	0.312251	0.745267
C193	C	0.055596	-0.159061	0.274048
C194	C	0.555596	0.340939	0.774048
C195	C	0.102512	-0.159062	0.274046
C196	C	0.602512	0.340938	0.774046
C197	C	0.102384	-0.273808	0.158915
C198	C	0.602384	0.226192	0.658915
C199	C	0.055468	-0.273805	0.158919
C200	C	0.555468	0.226195	0.658919
C201	C	0.032042	-0.245119	0.187703
C202	C	0.532042	0.254881	0.687703
C203	C	0.766309	-0.216445	0.216495
C204	C	1.266309	0.283555	0.716495
C205	C	0.816244	-0.216446	0.216504
C206	C	1.316244	0.283554	0.716504
C207	C	0.649143	-0.216437	0.333654
C208	C	1.149143	0.283563	0.833654
C209	C	0.649148	-0.216435	0.383589
C210	C	1.149148	0.283565	0.883589
C211	C	0.649225	-0.099262	0.216508
C212	C	1.149225	0.400738	0.716508
C213	C	0.649265	-0.049328	0.216522
C214	C	1.149265	0.450672	0.716522
C215	C	0.649145	-0.216412	0.099753
C216	C	1.149145	0.283588	0.599753
C217	C	0.649227	-0.216288	0.049819
C218	C	1.149227	0.283712	0.549819
C219	C	0.677935	-0.187627	0.693248
C220	C	1.177935	0.312373	1.193248
C221	C	0.677957	-0.187589	0.880921
C222	C	1.177957	0.312411	1.380921
O223	O	0.702400	-0.163138	0.905199
O224	O	1.202400	0.336862	1.405199
N225	N	0.649208	-0.216315	0.904374
N226	N	1.149208	0.283685	1.404374
C227	C	0.620449	-0.245050	0.880906
C228	C	1.120449	0.254950	1.380906
O229	O	0.595993	-0.269479	0.905160
O230	O	1.095993	0.230521	1.405160
C231	C	0.620425	-0.245086	0.693234
C232	C	1.120425	0.254914	1.193234
C233	C	0.649179	-0.216361	0.669783
C234	C	1.149179	0.283639	1.169783
C235	C	0.706687	-0.158905	0.669797
C236	C	1.206687	0.341095	1.169797
C237	C	0.706683	-0.158916	0.622882
C238	C	1.206683	0.341084	1.122882
C239	C	0.677927	-0.187650	0.599417
C240	C	1.177927	0.312350	1.099417
C241	C	0.649175	-0.216373	0.622868
C242	C	1.149175	0.283627	1.122868
C243	C	0.591663	-0.273819	0.669766
C244	C	1.091663	0.226181	1.169766
C245	C	0.591659	-0.273824	0.622845
C246	C	1.091659	0.226176	1.122845
C247	C	0.620414	-0.245100	0.599395
C248	C	1.120414	0.254900	1.099395
C249	C	0.620415	-0.245119	0.552487
C250	C	1.120415	0.254881	1.052487
N251	N	0.649164	-0.216393	0.529034
N252	N	1.149164	0.283607	1.029034
C253	C	0.677920	-0.187659	0.552499
C254	C	1.177920	0.312341	1.052499
C255	C	0.620464	-0.245030	0.979437
C256	C	1.120464	0.254970	1.479437
C257	C	0.620471	-0.245022	1.026354
C258	C	1.120471	0.254978	1.526354
C259	C	0.677979	-0.187560	1.026366
C260	C	1.177979	0.312440	1.526366
C261	C	0.677974	-0.187571	0.979448
C262	C	1.177974	0.312429	1.479448
C263	C	0.649214	-0.216304	0.955984
C264	C	1.149214	0.283696	1.455984
C265	C	0.677910	-0.187685	0.453973
C266	C	1.177910	0.312315	0.953973
C267	C	0.677904	-0.187701	0.407054
C268	C	1.177904	0.312299	0.907054
C269	C	0.620395	-0.245161	0.407046
C270	C	1.120395	0.254839	0.907046
C271	C	0.620402	-0.245147	0.453961
C272	C	1.120402	0.254853	0.953961
C273	C	0.649161	-0.216406	0.477424
C274	C	1.149161	0.283594	0.977424
O275	O	0.595982	-0.269553	0.528180
O276	O	1.095982	0.230447	1.028180
O277	O	0.702366	-0.163226	0.528237
O278	O	1.202366	0.336774	1.028237
C279	C	0.677939	-0.187616	0.740163
C280	C	1.177939	0.312384	1.240163
C281	C	0.649187	-0.216338	0.763614
C282	C	1.149187	0.283662	1.263614
C283	C	0.620431	-0.245072	0.740149
C284	C	1.120431	0.254928	1.240149
C285	C	0.649194	-0.216330	0.810532
C286	C	1.149194	0.283670	1.310532
C287	C	0.677950	-0.187596	0.833997
C288	C	1.177950	0.312404	1.333997
C289	C	0.706699	-0.158870	0.810544
C290	C	1.206699	0.341130	1.310544
C291	C	0.706695	-0.158881	0.763628
C292	C	1.206695	0.341119	1.263628
C293	C	0.591682	-0.273798	0.763602
C294	C	1.091682	0.226202	1.263602
C295	C	0.591689	-0.273785	0.810518
C296	C	1.091689	0.226215	1.310518
C297	C	0.620445	-0.245050	0.833983
C298	C	1.120445	0.254950	1.333983
H299	H	0.701220	-0.387423	0.164380
H300	H	1.201220	0.112577	0.664380
O301	O	0.563775	-0.599619	0.301828
O302	O	1.063775	-0.099619	0.801828
C303	C	0.589323	-0.572431	0.330858
C304	C	1.089323	-0.072431	0.830858
H305	H	0.624709	-0.586530	0.333667
H306	H	1.124709	-0.086530	0.833667
H307	H	0.573052	-0.571903	0.365417
H308	H	1.073052	-0.071903	0.865417
H309	H	0.590867	-0.536877	0.316966
H310	H	1.090867	-0.036877	0.816966
O311	O	0.705867	-0.159657	1.049234
O312	O	1.205867	0.340343	1.549234
C313	C	0.699709	-0.165820	1.095672
C314	C	1.199709	0.334180	1.595672
H315	H	0.665031	-0.180540	1.102067
H316	H	1.165031	0.319460	1.602067
H317	H	0.702774	-0.132166	1.113510
H318	H	1.202774	0.367834	1.613510
H319	H	0.726343	-0.189736	1.108991
H320	H	1.226343	0.310264	1.608991
H321	H	0.596984	-0.268557	0.387932
H322	H	1.096984	0.231443	0.887932
H323	H	0.568233	-0.297218	0.603743
H324	H	1.068233	0.202782	1.103743
H325	H	0.597061	-0.268417	1.045444
H326	H	1.097061	0.231583	1.545444
H327	H	0.730115	-0.135475	0.829657
H328	H	1.230115	0.364525	1.329657
H329	H	-0.094224	-0.164396	0.268723
H330	H	0.405776	0.335604	0.768723
H331	H	0.568248	-0.297209	0.688852
H332	H	1.068248	0.202791	1.188852
O333	O	0.734559	-0.130941	0.692606
O334	O	1.234559	0.369059	1.192606
C335	C	0.709016	-0.101920	0.719754
C336	C	1.209016	0.398080	1.219754
H337	H	0.673630	-0.099148	0.705617
H338	H	1.173630	0.400852	1.205617
H339	H	0.725293	-0.067348	0.720283
H340	H	1.225293	0.432652	1.220283
H341	H	0.707469	-0.115798	0.755313
H342	H	1.207469	0.384202	1.255313
H343	H	0.596895	-0.387490	0.268532
H344	H	1.096895	0.112510	0.768532
O345	O	0.734666	-0.692023	0.131280
O346	O	1.234666	-0.192023	0.631280
C347	C	0.763669	-0.719111	0.156902
C348	C	1.263669	-0.219111	0.656902
H349	H	0.766375	-0.704962	0.192293
H350	H	1.266375	-0.204962	0.692293
H351	H	0.798267	-0.719579	0.140714
H352	H	1.298267	-0.219579	0.640714
H353	H	0.749817	-0.754696	0.158419
H354	H	1.249817	-0.254696	0.658419
O355	O	0.705715	-0.476271	0.159866
O356	O	1.205715	0.023729	0.659866
C357	C	0.680174	-0.503446	0.130818
C358	C	1.180174	-0.003446	0.630818
H359	H	0.646117	-0.510507	0.146625
H360	H	1.146117	-0.010507	0.646625
H361	H	0.698492	-0.536420	0.124823
H362	H	1.198492	-0.036420	0.624823
H363	H	0.675259	-0.485386	0.097516
H364	H	1.175259	0.014614	0.597516
H365	H	0.177102	-0.297168	0.135460
H366	H	0.677102	0.202832	0.635460
O367	O	0.734543	-0.130977	0.600062
O368	O	1.234543	0.369023	1.100062
C369	C	0.708976	-0.101956	0.572940
C370	C	1.208976	0.398044	1.072940
H371	H	0.674924	-0.117813	0.565894
H372	H	1.174924	0.382187	1.065894
H373	H	0.727277	-0.095920	0.539956
H374	H	1.227277	0.404080	1.039956
H375	H	0.704052	-0.068670	0.591040
H376	H	1.204052	0.431330	1.091040
O377	O	0.265826	-0.301714	0.130920
O378	O	0.765826	0.198286	0.630920
C379	C	0.235028	-0.327023	0.105510
C380	C	0.735028	0.172977	0.605510
H381	H	0.201589	-0.328604	0.123911
H382	H	0.701589	0.171396	0.623911
H383	H	0.248553	-0.362413	0.100651
H384	H	0.748553	0.137587	0.600651
H385	H	0.230041	-0.310519	0.071420
H386	H	0.730041	0.189481	0.571420
O387	O	-0.183074	-0.159950	0.273269
O388	O	0.316926	0.340050	0.773269
C389	C	-0.210215	-0.185571	0.302249
C390	C	0.289785	0.314429	0.802249
H391	H	-0.217270	-0.219596	0.286347
H392	H	0.282730	0.280404	0.786347
H393	H	-0.243194	-0.167284	0.308299
H394	H	0.256806	0.332716	0.808299
H395	H	-0.192128	-0.190551	0.335534
H396	H	0.307872	0.309449	0.835534
H397	H	0.568248	-0.688435	0.297278
H398	H	1.068248	-0.188435	0.797278
H399	H	0.701427	-1.044940	0.164447
H400	H	1.201427	-0.544940	0.664447
O401	O	0.734609	-0.599605	0.131181
O402	O	1.234609	-0.099605	0.631181
C403	C	0.759984	-0.630362	0.105848
C404	C	1.259984	-0.130362	0.605848
H405	H	0.761528	-0.663796	0.124256
H406	H	1.261528	-0.163796	0.624256
H407	H	0.795383	-0.616776	0.101093
H408	H	1.295383	-0.116776	0.601093
H409	H	0.743562	-0.635382	0.071711
H410	H	1.243562	-0.135382	0.571711
H411	H	0.730118	-0.829092	0.135731
H412	H	1.230118	-0.329092	0.635731
H413	H	0.568274	-0.297180	0.829607
H414	H	1.068274	0.202820	1.329607
O415	O	0.389312	-0.273016	0.159680
O416	O	0.889312	0.226984	0.659680
C417	C	0.420052	-0.298346	0.134285
C418	C	0.920052	0.201654	0.634285
H419	H	0.453511	-0.279944	0.132764
H420	H	0.953511	0.220056	0.632764
H421	H	0.406484	-0.303086	0.098880
H422	H	0.906484	0.196914	0.598880
H423	H	0.425019	-0.332491	0.150676
H424	H	0.925019	0.167509	0.650676
H425	H	0.568292	-0.829190	0.297284
H426	H	1.068292	-0.329190	0.797284
O427	O	0.705869	-0.159830	0.476810
O428	O	1.205869	0.340170	0.976810
C429	C	0.734877	-0.185402	0.503943
C430	C	1.234877	0.314598	1.003943
H431	H	0.719005	-0.219444	0.510972
H432	H	1.219005	0.280556	1.010972
H433	H	0.740921	-0.167092	0.536935
H434	H	1.240921	0.332908	1.036935
H435	H	0.768161	-0.190347	0.485863
H436	H	1.268161	0.309653	0.985863
O437	O	0.592533	-0.956157	0.273039
O438	O	1.092533	-0.456157	0.773039
C439	C	0.563519	-0.929068	0.247431
C440	C	1.063519	-0.429068	0.747431
H441	H	0.579388	-0.922030	0.213402
H442	H	1.079388	-0.422030	0.713402
H443	H	0.557471	-0.896077	0.265724
H444	H	1.057471	-0.396077	0.765724
H445	H	0.530237	-0.947190	0.242459
H446	H	1.030237	-0.447190	0.742459
H447	H	0.701321	-0.164310	0.387962
H448	H	1.201321	0.335690	0.887962
O449	O	0.389398	-0.159933	0.273276
O450	O	0.889398	0.340067	0.773276
C451	C	0.400884	-0.169818	0.318030
C452	C	0.900884	0.330182	0.818030
H453	H	0.413751	-0.205713	0.320227
H454	H	0.913751	0.294287	0.820227
H455	H	0.370042	-0.165981	0.340238
H456	H	0.870042	0.334019	0.840238
H457	H	0.428144	-0.145754	0.329814
H458	H	0.928144	0.354246	0.829814
O459	O	0.705918	-0.159623	0.956739
O460	O	1.205918	0.340377	1.456739
C461	C	0.731307	-0.134272	0.987517
C462	C	1.231307	0.365728	1.487517
H463	H	0.712910	-0.132713	1.020958
H464	H	1.212910	0.367287	1.520958
H465	H	0.736127	-0.098876	0.973970
H466	H	1.236127	0.401124	1.473970
H467	H	0.765414	-0.150724	0.992509
H468	H	1.265414	0.349276	1.492509
H469	H	-0.179451	-0.268497	0.164285
H470	H	0.320549	0.231503	0.664285
H471	H	0.568265	-0.297198	0.744502
H472	H	1.068265	0.202802	1.244502
H473	H	0.568268	-0.744084	0.297275
H474	H	1.068268	-0.244084	0.797275
O475	O	0.592510	-0.272986	0.956716
O476	O	1.092510	0.227014	1.456716
C477	C	0.567132	-0.298327	0.987483
C478	C	1.067132	0.201673	1.487483
H479	H	0.585541	-0.299874	1.020927
H480	H	1.085541	0.200126	1.520927
H481	H	0.562306	-0.333726	0.973926
H482	H	1.062306	0.166274	1.473926
H483	H	0.533027	-0.281872	0.992474
H484	H	1.033027	0.218128	1.492474
O485	O	0.481809	-0.272956	0.159729
O486	O	0.981809	0.227044	0.659729
C487	C	0.528256	-0.266808	0.165909
C488	C	1.028256	0.233192	0.665909
H489	H	0.534689	-0.232162	0.180690
H490	H	1.034689	0.267838	0.680690
H491	H	0.546076	-0.269798	0.132253
H492	H	1.046076	0.230202	0.632253
H493	H	0.541559	-0.293494	0.189781
H494	H	1.041559	0.206506	0.689781
O495	O	0.173570	-0.131151	0.301943
O496	O	0.673570	0.368849	0.801943
C497	C	0.146432	-0.102098	0.276431
C498	C	0.646432	0.397902	0.776431
H499	H	0.160554	-0.099265	0.241050
H500	H	0.660554	0.400735	0.741050
H501	H	0.145937	-0.067551	0.292748
H502	H	0.645937	0.432449	0.792748
H503	H	0.110862	-0.115984	0.274867
H504	H	0.610862	0.384016	0.774867
O505	O	0.705962	-0.956196	0.159911
O506	O	1.205962	-0.456196	0.659911
C507	C	0.731335	-0.986950	0.134573
C508	C	1.231335	-0.486950	0.634573
H509	H	0.732883	-1.020385	0.152980
H510	H	1.232883	-0.520385	0.652980
H511	H	0.766732	-0.973363	0.129812
H512	H	1.266732	-0.473363	0.629812
H513	H	0.714907	-0.991971	0.100438
H514	H	1.214907	-0.491971	0.600438
O515	O	0.266003	-0.131152	0.302012
O516	O	0.766003	0.368848	0.802012
C517	C	0.235257	-0.105842	0.327421
C518	C	0.735257	0.394158	0.827421
H519	H	0.201809	-0.104268	0.309022
H520	H	0.701809	0.395732	0.809022
H521	H	0.248835	-0.070450	0.332273
H522	H	0.748835	0.429550	0.832273
H523	H	0.230267	-0.122342	0.361513
H524	H	0.730267	0.377658	0.861513
H525	H	0.596991	-0.268541	0.473056
H526	H	1.096991	0.231459	0.973056
O527	O	0.481885	-0.159956	0.273254
O528	O	0.981885	0.340044	0.773254
C529	C	0.509021	-0.185576	0.302217
C530	C	1.009021	0.314424	0.802217
H531	H	0.494856	-0.220963	0.304927
H532	H	0.994856	0.279037	0.804927
H533	H	0.509574	-0.169379	0.336820
H534	H	1.009574	0.330621	0.836820
H535	H	0.544574	-0.187101	0.288324
H536	H	1.044574	0.312899	0.788324
O537	O	-0.090729	-0.273042	0.159735
O538	O	0.409271	0.226958	0.659735
C539	C	-0.121530	-0.298353	0.134331
C540	C	0.378470	0.201647	0.634331
H541	H	-0.154967	-0.299932	0.152736
H542	H	0.345033	0.200068	0.652736
H543	H	-0.108007	-0.333743	0.129473
H544	H	0.391993	0.166257	0.629473
H545	H	-0.126522	-0.281851	0.100241
H546	H	0.373478	0.218149	0.600241
O547	O	0.592567	-1.048623	0.273148
O548	O	1.092567	-0.548623	0.773148
C549	C	0.567177	-1.017869	0.298469
C550	C	1.067177	-0.517869	0.798469
H551	H	0.585571	-0.984405	0.300036
H552	H	1.085571	-0.484405	0.800036
H553	H	0.562364	-1.031412	0.333863
H554	H	1.062364	-0.531412	0.833863
H555	H	0.533068	-1.012920	0.281984
H556	H	1.033068	-0.512920	0.781984
H557	H	0.036515	-0.135705	0.297486
H558	H	0.536515	0.364295	0.797486
H559	H	0.036347	-0.297170	0.135480
H560	H	0.536347	0.202830	0.635480
O561	O	0.592392	-0.476235	0.273097
O562	O	1.092392	0.023765	0.773097
C563	C	0.566998	-0.445485	0.298417
C564	C	1.066998	0.054515	0.798417
H565	H	0.585384	-0.412018	0.299981
H566	H	1.085384	0.087982	0.799981
H567	H	0.562188	-0.459027	0.333812
H568	H	1.062188	0.040973	0.833812
H569	H	0.532886	-0.440543	0.281933
H570	H	1.032886	0.059457	0.781933
O571	O	0.125257	-0.131151	0.302020
O572	O	0.625257	0.368849	0.802020
C573	C	0.094511	-0.105843	0.327431
C574	C	0.594511	0.394157	0.827431
H575	H	0.061063	-0.104265	0.309031
H576	H	0.561063	0.395735	0.809031
H577	H	0.108090	-0.070452	0.332288
H578	H	0.608090	0.429548	0.832288
H579	H	0.089518	-0.122346	0.361521
H580	H	0.589518	0.377654	0.861521
O581	O	0.125115	-0.301742	0.131001
O582	O	0.625115	0.198258	0.631001
C583	C	0.113604	-0.346529	0.140736
C584	C	0.613604	0.153471	0.640736
H585	H	0.100719	-0.348846	0.176623
H586	H	0.600719	0.151154	0.676623
H587	H	0.144436	-0.368724	0.136823
H588	H	0.644436	0.131276	0.636823
H589	H	0.086349	-0.358233	0.116633
H590	H	0.586349	0.141767	0.616633
O591	O	0.734589	-0.740332	0.131147
O592	O	1.234589	-0.240332	0.631147
C593	C	0.724799	-0.751821	0.086364
C594	C	1.224799	-0.251821	0.586364
H595	H	0.707535	-0.785903	0.085423
H596	H	1.207535	-0.285903	0.585423
H597	H	0.757237	-0.753407	0.066252
H598	H	1.257237	-0.253407	0.566252
H599	H	0.701709	-0.725444	0.071203
H600	H	1.201709	-0.225444	0.571203
O601	O	0.734640	-0.130934	0.740921
O602	O	1.234640	0.369066	1.240921
C603	C	0.760026	-0.105581	0.771701
C604	C	1.260026	0.394419	1.271701
H605	H	0.741626	-0.104023	0.805141
H606	H	1.241626	0.395977	1.305141
H607	H	0.764846	-0.070186	0.758155
H608	H	1.264846	0.429814	1.258155
H609	H	0.794133	-0.122033	0.776696
H610	H	1.294133	0.377967	1.276696
