data_functionalizedCrystal
_audit_creation_method	'MofGen! by Chris Wilmer'
_symmetry_space_group_name_H-M	'P1'
_symmetry_Int_Tables_number	1
_symmetry_cell_setting	triclinic
loop_
_symmetry_equiv_pos_as_xyz
  x,y,z
_cell_length_a	16.625546
_cell_length_b	12.759395
_cell_length_c	12.759387
_cell_angle_alpha	89.977170
_cell_angle_beta	90.035560
_cell_angle_gamma	89.978178
loop_
_atom_site_label
_atom_site_type_symbol
_atom_site_fract_x
_atom_site_fract_y
_atom_site_fract_z
Zn1	Zn	-0.320973	-1.606212	0.594035
Zn2	Zn	0.179027	-1.106212	1.094035
Zn3	Zn	-0.455828	-1.606079	0.418341
Zn4	Zn	0.044172	-1.106079	0.918341
Zn5	Zn	-0.321012	-1.430510	0.418365
Zn6	Zn	0.178988	-0.930510	0.918365
Zn7	Zn	-0.455766	-1.430479	0.593973
Zn8	Zn	0.044234	-0.930479	1.093973
O9	O	-0.388395	-1.518320	0.506179
O10	O	0.111605	-1.018320	1.006179
O11	O	-0.338872	-1.753215	0.570745
O12	O	0.161128	-1.253215	1.070745
O13	O	-0.437987	-1.582747	0.271323
O14	O	0.062013	-1.082747	0.771323
O15	O	-0.208174	-1.453886	0.441704
O16	O	0.291826	-0.953886	0.941704
O17	O	-0.437949	-1.753118	0.441663
O18	O	0.062051	-1.253118	0.941663
O19	O	-0.208146	-1.582974	0.570768
O20	O	0.291854	-1.082974	1.070768
O21	O	-0.338938	-1.453757	0.271341
O22	O	0.161062	-0.953757	0.771341
O23	O	-0.338877	-1.283485	0.441644
O24	O	0.161123	-0.783485	0.941644
O25	O	-0.437843	-1.453833	0.741003
O26	O	0.062157	-0.953833	1.241003
O27	O	-0.437880	-1.283462	0.570662
O28	O	0.062120	-0.783462	1.070662
O29	O	-0.338811	-1.582943	0.741048
O30	O	0.161189	-1.082943	1.241048
O31	O	-0.568652	-1.582716	0.441603
O32	O	-0.068652	-1.082716	0.941603
O33	O	-0.568606	-1.453704	0.570639
O34	O	-0.068606	-0.953704	1.070639
C35	C	-0.388377	-1.245352	0.506150
C36	C	0.111623	-0.745352	1.006150
C37	C	-0.388389	-1.128576	0.506162
C38	C	0.111611	-0.628576	1.006162
C39	C	-0.491662	-0.909167	0.640326
C40	C	0.008338	-0.409167	1.140326
C41	C	-0.543285	-0.964046	0.707387
C42	C	-0.043285	-0.464046	1.207387
C43	C	-0.543277	-1.073767	0.707377
C44	C	-0.043277	-0.573767	1.207377
C45	C	-0.491642	-1.128612	0.640295
C46	C	0.008358	-0.628612	1.140295
C47	C	-0.440019	-1.073733	0.573234
C48	C	0.059981	-0.573733	1.073234
C49	C	-0.440031	-0.964009	0.573254
C50	C	0.059969	-0.464009	1.073254
C51	C	-0.336766	-1.073697	0.439101
C52	C	0.163234	-0.573697	0.939101
C53	C	-0.336769	-0.963975	0.439115
C54	C	0.163231	-0.463975	0.939115
C55	C	-0.285131	-1.128542	0.372019
C56	C	0.214869	-0.628542	0.872019
C57	C	-0.233503	-1.073662	0.304962
C58	C	0.266497	-0.573662	0.804962
C59	C	-0.233513	-0.963934	0.304976
C60	C	0.266487	-0.463934	0.804976
C61	C	-0.285146	-0.909096	0.372054
C62	C	0.214854	-0.409096	0.872054
C63	C	-0.597886	-1.518220	0.506135
C64	C	-0.097886	-1.018220	1.006135
C65	C	-0.687507	-1.518274	0.506151
C66	C	-0.187507	-1.018274	1.006151
C67	C	-1.015682	-1.518457	0.506260
C68	C	-0.515682	-1.018457	1.006260
C69	C	-0.924374	-1.518403	0.506233
C70	C	-0.424374	-1.018403	1.006233
C71	C	-0.851597	-1.518365	0.506205
C72	C	-0.351597	-1.018365	1.006205
C73	C	-0.760283	-1.518312	0.506179
C74	C	-0.260283	-1.018312	1.006179
C75	C	-0.178086	-1.518448	0.506246
C76	C	0.321914	-1.018448	1.006246
C77	C	-0.088465	-1.518503	0.506274
C78	C	0.411535	-1.018503	1.006274
C79	C	-0.388316	-1.518399	0.780212
C80	C	0.111684	-1.018399	1.280212
C81	C	-0.388282	-1.518433	0.896989
C82	C	0.111718	-1.018433	1.396989
C83	C	-0.388409	-0.792353	0.506202
C84	C	0.111591	-0.292353	1.006202
C85	C	-0.388403	-0.909130	0.506197
C86	C	0.111597	-0.409130	1.006197
C87	C	-0.388415	-1.518301	0.233211
C88	C	0.111585	-1.018301	0.733211
C89	C	-0.388222	-1.518471	0.116435
C90	C	0.111778	-1.018471	0.616435
C91	C	-0.285167	-1.652885	0.897056
C92	C	0.214833	-1.152885	1.397056
C93	C	-0.233598	-1.720126	0.951951
C94	C	0.266402	-1.220126	1.451951
C95	C	-0.233568	-1.720151	1.061673
C96	C	0.266432	-1.220151	1.561673
C97	C	-0.285112	-1.652927	1.116502
C98	C	0.214888	-1.152927	1.616502
C99	C	-0.336682	-1.585686	1.061608
C100	C	0.163318	-1.085686	1.561608
C101	C	-0.336707	-1.585670	0.951884
C102	C	0.163293	-1.085670	1.451884
C103	C	-0.439791	-1.451231	1.061541
C104	C	0.060209	-0.951231	1.561541
C105	C	-0.439826	-1.451209	0.951819
C106	C	0.060174	-0.951209	1.451819
C107	C	-0.491335	-1.384006	1.116370
C108	C	0.008665	-0.884006	1.616370
C109	C	-0.542910	-1.316769	1.061476
C110	C	-0.042910	-0.816769	1.561476
C111	C	-0.542938	-1.316747	0.951747
C112	C	-0.042938	-0.816747	1.451747
C113	C	-0.491396	-1.383968	0.896924
C114	C	0.008604	-0.883968	1.396924
H115	H	-0.491666	-0.819826	0.640352
H116	H	0.008334	-0.319826	1.140352
N117	N	-0.598960	-1.132961	0.779700
N118	N	-0.098960	-0.632961	1.279700
H119	H	-0.586512	-1.113915	0.854801
H120	H	-0.086512	-0.613915	1.354801
H121	H	-0.591092	-1.210771	0.769419
H122	H	-0.091092	-0.710771	1.269419
H123	H	-0.191630	-1.774857	0.907297
H124	H	0.308370	-1.274857	1.407297
N125	N	-0.491316	-1.384020	1.234712
N126	N	0.008684	-0.884020	1.734712
H127	H	-0.476478	-1.311962	1.261127
H128	H	0.023522	-0.811962	1.761127
H129	H	-0.450837	-1.436862	1.261097
H130	H	0.049163	-0.936862	1.761097
N131	N	-0.491433	-1.383928	0.778583
N132	N	0.008567	-0.883928	1.278583
H133	H	-0.506273	-1.455979	0.752150
H134	H	-0.006273	-0.955979	1.252150
H135	H	-0.436113	-1.364604	0.752256
H136	H	0.063887	-0.864604	1.252256
H137	H	-0.285193	-1.652881	0.807715
H138	H	0.214807	-1.152881	1.307715
H139	H	-0.191571	-1.774898	1.106368
H140	H	0.308429	-1.274898	1.606368
N141	N	-0.285155	-0.790754	0.372063
N142	N	0.214845	-0.290754	0.872063
H143	H	-0.270404	-0.764364	0.444173
H144	H	0.229596	-0.264364	0.944173
H145	H	-0.340466	-0.764386	0.352579
H146	H	0.159534	-0.264386	0.852579
H147	H	-0.584869	-1.262035	1.106127
H148	H	-0.084869	-0.762035	1.606127
N149	N	-0.598559	-1.244228	0.892534
N150	N	-0.098559	-0.744228	1.392534
H151	H	-0.565794	-1.195559	0.847012
H152	H	-0.065794	-0.695559	1.347012
H153	H	-0.631195	-1.201716	0.943980
H154	H	-0.131195	-0.701716	1.443980
H155	H	-0.585327	-0.919379	0.762001
H156	H	-0.085327	-0.419379	1.262001
H157	H	-0.491647	-1.217953	0.640283
H158	H	0.008353	-0.717953	1.140283
H159	H	-0.285132	-1.217883	0.372011
H160	H	0.214868	-0.717883	0.872011
H161	H	-0.191475	-0.919258	0.250366
H162	H	0.308525	-0.419258	0.750366
N163	N	-0.177822	-1.132813	0.232610
N164	N	0.322178	-0.632813	0.732610
H165	H	-0.185655	-1.210648	0.242774
H166	H	0.314345	-0.710648	0.742774
H167	H	-0.120252	-1.113672	0.249104
H168	H	0.379748	-0.613672	0.749104
N169	N	-0.285061	-1.652924	1.234844
N170	N	0.214939	-1.152924	1.734844
H171	H	-0.244564	-1.705711	1.261300
H172	H	0.255436	-1.205711	1.761300
H173	H	-0.340391	-1.672164	1.261197
H174	H	0.159609	-1.172164	1.761197
