data_functionalizedCrystal
_audit_creation_method	'MofGen! by Chris Wilmer'
_symmetry_space_group_name_H-M	'P1'
_symmetry_Int_Tables_number	1
_symmetry_cell_setting	triclinic
loop_
_symmetry_equiv_pos_as_xyz
  x,y,z
_cell_length_a	8.559649
_cell_length_b	15.944551
_cell_length_c	7.088929
_cell_angle_alpha	96.219322
_cell_angle_beta	95.325015
_cell_angle_gamma	103.361299
loop_
_atom_site_label
_atom_site_type_symbol
_atom_site_fract_x
_atom_site_fract_y
_atom_site_fract_z
O1	O	2.103726	0.018804	-0.158960
O2	O	1.638527	-0.024575	-0.158963
O3	O	1.883829	0.120209	-0.158972
O4	O	1.858424	-0.125979	-0.158950
O5	O	1.916611	0.139597	0.159002
O6	O	1.671309	-0.005187	0.159011
O7	O	2.136508	0.038192	0.159014
Cu8	Cu	1.906902	0.018273	0.188046
Cu9	Cu	1.868133	-0.004656	-0.187995
O10	O	1.891206	-0.106591	0.159024
C11	C	1.595388	-0.018168	0.000024
C12	C	1.418009	-0.027954	0.000022
C13	C	1.875870	-0.147511	0.000039
C14	C	1.879033	-0.240553	0.000048
C15	C	2.038639	-0.445110	0.000019
C16	C	1.980685	-0.501350	0.156798
C17	C	1.884752	-0.410910	0.000031
C18	C	1.948328	-0.520453	-0.156699
C19	C	1.890286	-0.575467	0.000006
C20	C	1.826769	-0.465917	0.156939
C21	C	1.794420	-0.485021	-0.156699
C22	C	1.736358	-0.541248	0.000118
C23	C	1.881568	-0.316113	0.000047
C24	C	1.893460	-0.670264	0.000004
C25	C	2.179646	0.031785	0.000023
C26	C	2.357024	0.041570	0.000013
C27	C	1.899164	0.161128	0.000008
C28	C	1.896000	0.254169	-0.000013
N29	N	1.934181	0.034401	0.452533
N30	N	1.840866	-0.020776	-0.452482
H31	H	2.166390	-0.403551	0.000175
H32	H	2.059439	-0.509175	0.289345
C33	C	1.424234	0.166952	-0.163466
C34	C	1.469723	0.132033	0.000000
H35	H	1.493826	0.222798	-0.163476
H36	H	1.315835	0.172023	-0.163451
H37	H	1.432220	0.129721	-0.274333
H38	H	1.461726	0.169261	0.110868
H39	H	1.578150	0.126966	0.000003
H40	H	1.334510	-0.094967	0.000017
C41	C	2.217040	0.105431	0.514468
C42	C	2.064754	0.111596	0.562743
H43	H	2.297646	0.153085	0.582518
H44	H	2.218880	0.106535	0.380989
H45	H	2.237883	0.052494	0.547193
H46	H	2.043907	0.164529	0.530006
H47	H	2.062911	0.110499	0.696253
C48	C	1.618459	-0.405855	0.280807
C49	C	1.757440	-0.433683	0.336071
H50	H	1.575669	-0.385950	0.391397
H51	H	1.539996	-0.452937	0.207535
H52	H	1.645468	-0.359794	0.206035
H53	H	1.730429	-0.479748	0.410832
H54	H	1.835919	-0.386596	0.409375
C55	C	1.465880	-0.588356	-0.162387
C56	C	1.563781	-0.597141	0.000229
H57	H	1.359338	-0.622856	-0.162302
H58	H	1.508791	-0.607162	-0.273811
H59	H	1.463097	-0.529093	-0.161311
H60	H	1.566574	-0.656404	-0.000854
H61	H	1.520859	-0.578340	0.111682
H62	H	1.999781	-0.544422	-0.289236
H63	H	1.715720	-0.477171	-0.289251
H64	H	1.744156	-0.077955	0.465876
