data_functionalizedCrystal
_audit_creation_method	'MofGen! by Chris Wilmer'
_symmetry_space_group_name_H-M	'P1'
_symmetry_Int_Tables_number	1
_symmetry_cell_setting	triclinic
loop_
_symmetry_equiv_pos_as_xyz
  x,y,z
_cell_length_a	19.288864
_cell_length_b	23.532407
_cell_length_c	17.766277
_cell_angle_alpha	89.988964
_cell_angle_beta	89.976791
_cell_angle_gamma	82.992461
loop_
_atom_site_label
_atom_site_type_symbol
_atom_site_fract_x
_atom_site_fract_y
_atom_site_fract_z
O1	O	0.921134	0.071045	-0.062843
O2	O	1.421134	0.571045	0.437157
O3	O	0.718844	0.080629	-0.062793
O4	O	1.218844	0.580629	0.437207
O5	O	0.826089	-0.007082	-0.062806
O6	O	1.326089	0.492918	0.437194
O7	O	0.813889	0.158756	-0.062830
O8	O	1.313889	0.658756	0.437170
O9	O	0.826070	-0.007086	0.062383
O10	O	1.326070	0.492914	0.562383
O11	O	0.718825	0.080625	0.062396
O12	O	1.218825	0.580625	0.562396
O13	O	0.921115	0.071041	0.062345
O14	O	1.421115	0.571041	0.562345
Cu15	Cu	0.819968	0.075832	0.073801
Cu16	Cu	1.319968	0.575832	0.573801
Cu17	Cu	0.819991	0.075838	-0.074249
Cu18	Cu	1.319991	0.575838	0.425751
O19	O	0.813870	0.158752	0.062358
O20	O	1.313870	0.658752	0.562358
C21	C	0.692959	0.080319	-0.000192
C22	C	1.192959	0.580319	0.499808
C23	C	0.615858	0.079393	-0.000172
C24	C	1.115858	0.579393	0.499828
C25	C	0.571003	0.130858	-0.000191
C26	C	1.071003	0.630858	0.499809
C27	C	0.498559	0.129988	-0.000200
C28	C	0.998559	0.629988	0.499800
C29	C	0.470973	0.077651	-0.000203
C30	C	0.970973	0.577651	0.499797
C31	C	0.515838	0.026179	-0.000180
C32	C	1.015838	0.526179	0.499820
C33	C	0.588280	0.027050	-0.000164
C34	C	1.088280	0.527050	0.499836
C35	C	0.362844	0.036509	-0.044082
C36	C	0.862844	0.536509	0.455918
C37	C	0.290402	0.035640	-0.044102
C38	C	0.790402	0.535640	0.455898
C39	C	0.247535	0.074961	-0.000249
C40	C	0.747535	0.574961	0.499751
C41	C	0.277118	0.115162	0.043616
C42	C	0.777118	0.615162	0.543616
C43	C	0.349560	0.116033	0.043631
C44	C	0.849560	0.616033	0.543631
C45	C	0.392422	0.076700	-0.000220
C46	C	0.892422	0.576700	0.499780
C47	C	0.124127	0.125487	-0.000276
C48	C	0.624127	0.625487	0.499724
C49	C	0.051682	0.124615	-0.000279
C50	C	0.551682	0.624615	0.499721
C51	C	0.068962	0.020805	-0.000267
C52	C	0.568962	0.520805	0.499733
C53	C	0.141406	0.021678	-0.000256
C54	C	0.641406	0.521678	0.499744
C55	C	0.168984	0.074021	-0.000264
C56	C	0.668984	0.574021	0.499736
C57	C	0.825769	-0.028301	-0.000209
C58	C	1.325769	0.471699	0.499791
C59	C	0.824835	-0.091520	-0.000203
C60	C	1.324835	0.408480	0.499797
C61	C	0.882442	-0.490503	-0.000259
C62	C	1.382442	0.009497	0.499741
C63	C	0.881574	-0.549905	-0.000264
C64	C	1.381574	-0.049905	0.499736
O65	O	0.934976	-0.586539	-0.000306
O66	O	1.434976	-0.086539	0.499694
N67	N	0.817817	-0.572664	-0.000248
N68	N	1.317817	-0.072664	0.499752
C69	C	0.754923	-0.536017	-0.000234
C70	C	1.254923	-0.036017	0.499766
O71	O	0.700613	-0.560829	-0.000221
O72	O	1.200613	-0.060829	0.499779
C73	C	0.755792	-0.476616	-0.000234
C74	C	1.255792	0.023384	0.499766
C75	C	0.819553	-0.453861	-0.000242
C76	C	1.319553	0.046139	0.499758
C77	C	0.946198	-0.467748	-0.000269
C78	C	1.446198	0.032252	0.499731
C79	C	0.947065	-0.408350	-0.000262
C80	C	1.447065	0.091650	0.499738
C81	C	0.884177	-0.371707	-0.000245
C82	C	1.384177	0.128293	0.499755
C83	C	0.820420	-0.394463	-0.000236
C84	C	1.320420	0.105537	0.499764
C85	C	0.692899	-0.439970	-0.000225
C86	C	1.192899	0.060030	0.499775
C87	C	0.693773	-0.380565	-0.000225
C88	C	1.193773	0.119435	0.499775
C89	C	0.757534	-0.357810	-0.000234
C90	C	1.257534	0.142190	0.499766
C91	C	0.758399	-0.298422	-0.000212
C92	C	1.258399	0.201578	0.499788
N93	N	0.822156	-0.275664	-0.000229
N94	N	1.322156	0.224336	0.499771
C95	C	0.885045	-0.312307	-0.000245
C96	C	1.385045	0.187693	0.499755
C97	C	0.753104	-0.660763	-0.000235
C98	C	1.253104	-0.160763	0.499765
C99	C	0.752235	-0.720163	-0.000230
C100	C	1.252235	-0.220163	0.499770
C101	C	0.878886	-0.734047	-0.000262
C102	C	1.378886	-0.234047	0.499738
C103	C	0.879755	-0.674647	-0.000262
C104	C	1.379755	-0.174647	0.499738
C105	C	0.816861	-0.638005	-0.000252
C106	C	1.316861	-0.138005	0.499748
C107	C	0.886862	-0.187566	-0.000230
C108	C	1.386862	0.312434	0.499770
C109	C	0.887724	-0.128162	-0.000220
C110	C	1.387724	0.371838	0.499780
C111	C	0.761073	-0.114283	-0.000192
C112	C	1.261073	0.385717	0.499808
C113	C	0.760211	-0.173681	-0.000198
C114	C	1.260211	0.326319	0.499802
C115	C	0.823111	-0.210322	-0.000219
C116	C	1.323111	0.289678	0.499781
O117	O	0.705025	-0.261754	-0.000174
O118	O	1.205025	0.238246	0.499826
O119	O	0.939346	-0.287486	-0.000268
O120	O	1.439346	0.212514	0.499732
C121	C	0.947000	0.071351	-0.000257
C122	C	1.447000	0.571351	0.499743
C123	C	1.024101	0.072277	-0.000282
C124	C	1.524101	0.572277	0.499718
C125	C	0.814190	0.179971	-0.000240
C126	C	1.314190	0.679971	0.499760
C127	C	0.815124	0.243190	-0.000251
C128	C	1.315124	0.743190	0.499749
N129	N	0.819958	0.075828	0.177932
N130	N	1.319958	0.575828	0.677932
N131	N	0.820007	0.075837	-0.178379
N132	N	1.320007	0.575837	0.321621
C133	C	0.867461	0.037009	0.217313
C134	C	1.367461	0.537009	0.717313
C135	C	0.867465	0.037006	0.296115
C136	C	1.367465	0.537006	0.796115
C137	C	0.819973	0.075833	0.335532
C138	C	1.319973	0.575833	0.835532
C139	C	0.772460	0.114655	0.296142
C140	C	1.272460	0.614655	0.796142
C141	C	0.772453	0.114653	0.217341
C142	C	1.272453	0.614653	0.717341
C143	C	0.810514	0.127724	0.460364
C144	C	1.310514	0.627724	0.960364
C145	C	0.810526	0.127727	0.539163
C146	C	1.310526	0.627727	1.039163
C147	C	0.819991	0.075840	0.578579
C148	C	1.319991	0.575840	1.078579
C149	C	0.829459	0.023947	0.539186
C150	C	1.329459	0.523947	1.039186
C151	C	0.829452	0.023945	0.460385
C152	C	1.329452	0.523945	0.960385
C153	C	0.819975	0.075839	0.420978
C154	C	1.319975	0.575839	0.920978
C155	C	0.867501	0.037014	0.703406
C156	C	1.367501	0.537014	1.203406
C157	C	0.867501	0.037011	0.782209
C158	C	1.367501	0.537011	1.282209
C159	C	0.772499	0.114665	0.782234
C160	C	1.272499	0.614665	1.282234
C161	C	0.772496	0.114663	0.703433
C162	C	1.272496	0.614663	1.203433
C163	C	0.820001	0.075839	0.664023
C164	C	1.320001	0.575839	1.164023
H165	H	0.242216	0.147181	0.079326
H166	H	0.742216	0.647181	0.579326
Cl167	Cl	0.798629	0.192962	0.588677
Cl168	Cl	1.298629	0.692962	1.088677
Cl169	Cl	0.386748	0.166565	0.098776
Cl170	Cl	0.886748	0.666565	0.598776
Cl171	Cl	0.614702	-0.334504	-0.000213
Cl172	Cl	1.114702	0.165496	0.499787
Cl173	Cl	0.682017	-0.068207	-0.000173
Cl174	Cl	1.182017	0.431793	0.499827
H175	H	0.837159	-0.018307	0.428315
H176	H	1.337159	0.481693	0.928315
Cl177	Cl	0.927218	-0.011797	0.653861
Cl178	Cl	1.427218	0.488203	1.153861
H179	H	0.708291	-0.192209	-0.000170
H180	H	1.208291	0.307791	0.499830
H181	H	0.177928	-0.020230	-0.000244
H182	H	0.677928	0.479770	0.499756
Cl183	Cl	0.927177	-0.011801	0.167770
Cl184	Cl	1.427177	0.488199	0.667770
H185	H	0.700314	-0.738684	-0.000210
H186	H	1.200314	-0.238684	0.499790
Cl187	Cl	0.927190	-0.011799	0.345631
Cl188	Cl	1.427190	0.488201	0.845631
H189	H	0.015161	0.166526	-0.000291
H190	H	0.515161	0.666526	0.499709
Cl191	Cl	0.967887	-0.099561	-0.000233
Cl192	Cl	1.467887	0.400439	0.499767
H193	H	0.733790	0.146268	0.328239
H194	H	1.233790	0.646268	0.828239
Cl195	Cl	0.481159	-0.039617	-0.000180
Cl196	Cl	0.981159	0.460383	0.499820
Cl197	Cl	0.965937	-0.233620	-0.000256
Cl198	Cl	1.465937	0.266380	0.499744
H199	H	0.624802	-0.014860	-0.000149
H200	H	1.124802	0.485140	0.499851
Cl201	Cl	0.712731	0.163459	0.167830
Cl202	Cl	1.212731	0.663459	0.667830
Cl203	Cl	1.027227	-0.379753	-0.000294
Cl204	Cl	1.527227	0.120247	0.499706
Cl205	Cl	1.025269	-0.513803	-0.000288
Cl206	Cl	1.525269	-0.013803	0.499712
H207	H	0.837166	-0.018304	0.571276
H208	H	1.337166	0.481696	1.071276
H209	H	0.931675	-0.656124	-0.000270
H210	H	1.431675	-0.156124	0.499730
Cl211	Cl	0.957947	-0.780124	-0.000288
Cl212	Cl	1.457947	-0.280124	0.499712
H213	H	0.462031	0.171898	-0.000213
H214	H	0.962031	0.671898	0.499787
H215	H	0.146582	0.168107	-0.000271
H216	H	0.646582	0.668107	0.499729
Cl217	Cl	0.674030	-0.614704	-0.000214
Cl218	Cl	1.174030	-0.114704	0.499786
Cl219	Cl	0.253220	-0.014891	-0.099253
Cl220	Cl	0.753220	0.485109	0.400747
H221	H	0.046503	-0.021810	-0.000317
H222	H	0.546503	0.478190	0.499683
Cl223	Cl	0.927220	-0.011798	0.831720
Cl224	Cl	1.427220	0.488202	1.331720
Cl225	Cl	0.712779	0.163470	0.653920
Cl226	Cl	1.212779	0.663470	1.153920
Cl227	Cl	0.605669	0.196660	-0.000198
Cl228	Cl	1.105669	0.696660	0.499802
Cl229	Cl	0.798679	0.192961	0.410821
Cl230	Cl	1.298679	0.692961	0.910821
H231	H	0.397741	0.004488	-0.079797
H232	H	0.897741	0.504488	0.420203
Cl233	Cl	0.612736	-0.468560	-0.000219
Cl234	Cl	1.112736	0.031440	0.499781
H235	H	0.733827	0.146276	0.814328
H236	H	1.233827	0.646276	1.314328
