data_functionalizedCrystal
_audit_creation_method	'MofGen! by Chris Wilmer'
_symmetry_space_group_name_H-M	'P1'
_symmetry_Int_Tables_number	1
_symmetry_cell_setting	triclinic
loop_
_symmetry_equiv_pos_as_xyz
  x,y,z
_cell_length_a	19.188933
_cell_length_b	19.188930
_cell_length_c	18.266242
_cell_angle_alpha	89.988525
_cell_angle_beta	89.992377
_cell_angle_gamma	83.145175
loop_
_atom_site_label
_atom_site_type_symbol
_atom_site_fract_x
_atom_site_fract_y
_atom_site_fract_z
O1	O	0.926148	0.087175	-0.060865
O2	O	1.426148	0.587175	0.439135
O3	O	0.722837	0.098908	-0.060873
O4	O	1.222837	0.598908	0.439127
O5	O	0.830360	-0.008614	-0.060854
O6	O	1.330360	0.491386	0.439146
O7	O	0.818626	0.194697	-0.060883
O8	O	1.318626	0.694697	0.439117
O9	O	0.830342	-0.008620	0.060908
O10	O	1.330342	0.491380	0.560908
O11	O	0.722819	0.098902	0.060889
O12	O	1.222819	0.598902	0.560889
O13	O	0.926130	0.087170	0.060897
O14	O	1.426130	0.587170	0.560897
Zn15	Zn	0.824472	0.093035	0.080226
Zn16	Zn	1.324472	0.593035	0.580226
Zn17	Zn	0.824496	0.093042	-0.080201
Zn18	Zn	1.324496	0.593042	0.419799
O19	O	0.818608	0.194692	0.060879
O20	O	1.318608	0.694692	0.560879
C21	C	0.696817	0.098525	0.000008
C22	C	1.196817	0.598525	0.500008
C23	C	0.619313	0.097384	0.000005
C24	C	1.119313	0.597384	0.500005
C25	C	0.066067	0.089242	-0.066358
C26	C	0.566067	0.589242	0.433642
C27	C	0.138892	0.090310	-0.066361
C28	C	0.638892	0.590310	0.433639
C29	C	0.175299	0.090844	0.000011
C30	C	0.675299	0.590844	0.500011
C31	C	0.138878	0.090292	0.066391
C32	C	0.638878	0.590292	0.566391
C33	C	0.066056	0.089217	0.066392
C34	C	0.566056	0.589217	0.566392
N35	N	0.284311	0.132260	0.049409
N36	N	0.784311	0.632260	0.549409
N37	N	0.353489	0.133283	0.049403
N38	N	0.853489	0.633283	0.549403
C39	C	0.394707	0.094082	0.000012
C40	C	0.894707	0.594082	0.500012
N41	N	0.364134	0.053828	-0.049385
N42	N	0.864134	0.553828	0.450615
N43	N	0.294949	0.052808	-0.049382
N44	N	0.794949	0.552808	0.450618
C45	C	0.254262	0.092009	0.000017
C46	C	0.754262	0.592009	0.500017
C47	C	0.510084	0.095787	-0.066367
C48	C	1.010084	0.595787	0.433633
C49	C	0.582911	0.096851	-0.066368
C50	C	1.082911	0.596851	0.433632
C51	C	0.582894	0.096840	0.066386
C52	C	1.082894	0.596840	0.566386
C53	C	0.510071	0.095769	0.066385
C54	C	1.010071	0.595769	0.566385
C55	C	0.473669	0.095246	0.000006
C56	C	0.973669	0.595246	0.500006
C57	C	0.829971	-0.034628	0.000029
C58	C	1.329971	0.465372	0.500029
C59	C	0.828830	-0.112132	0.000035
C60	C	1.328830	0.387868	0.500035
C61	C	0.891921	-0.157056	0.000041
C62	C	1.391921	0.342944	0.500041
C63	C	0.890849	-0.229880	0.000029
C64	C	1.390849	0.270120	0.500029
C65	C	0.826683	-0.257777	0.000026
C66	C	1.326683	0.242223	0.500026
C67	C	0.763584	-0.212843	0.000016
C68	C	1.263584	0.287157	0.500016
C69	C	0.764658	-0.140021	0.000021
C70	C	1.264658	0.359979	0.500021
N71	N	0.777630	-0.365784	0.041462
N72	N	1.277630	0.134216	0.541462
N73	N	0.776614	-0.434962	0.041460
N74	N	1.276614	0.065038	0.541460
C75	C	0.823445	-0.477185	0.000011
C76	C	1.323445	0.022815	0.500011
N77	N	0.871340	-0.447618	-0.041425
N78	N	1.371340	0.052382	0.458575
N79	N	0.872358	-0.378433	-0.041419
N80	N	1.372358	0.121567	0.458581
C81	C	0.825512	-0.336739	0.000021
C82	C	1.325512	0.163261	0.500021
C83	C	0.885378	-0.601073	0.000004
C84	C	1.385378	-0.101073	0.500004
C85	C	0.884304	-0.673898	-0.000013
C86	C	1.384304	-0.173898	0.499987
C87	C	0.757037	-0.656860	-0.000019
C88	C	1.257037	-0.156860	0.499981
C89	C	0.758113	-0.584037	-0.000010
C90	C	1.258113	-0.084037	0.499990
C91	C	0.822286	-0.556148	0.000005
C92	C	1.322286	-0.056148	0.500005
C93	C	0.952150	0.087553	0.000015
C94	C	1.452150	0.587553	0.500015
C95	C	1.029655	0.088694	0.000013
C96	C	1.529655	0.588694	0.500013
C97	C	0.818997	0.220705	-0.000006
C98	C	1.318997	0.720705	0.499994
C99	C	0.820137	0.298210	-0.000017
C100	C	1.320137	0.798210	0.499983
N101	N	0.824461	0.093030	0.189713
N102	N	1.324461	0.593030	0.689713
N103	N	0.824512	0.093042	-0.189688
N104	N	1.324512	0.593042	0.310312
C105	C	0.872087	0.045442	0.228030
C106	C	1.372087	0.545442	0.728030
C107	C	0.872092	0.045439	0.304675
C108	C	1.372092	0.545439	0.804675
C109	C	0.824476	0.093035	0.342999
C110	C	1.324476	0.593035	0.842999
C111	C	0.776841	0.140626	0.304673
C112	C	1.276841	0.640626	0.804673
C113	C	0.776833	0.140624	0.228030
C114	C	1.276833	0.640624	0.728030
N115	N	0.815400	0.154843	0.463323
N116	N	1.315400	0.654843	0.963323
N117	N	0.815412	0.154843	0.536131
N118	N	1.315412	0.654843	1.036131
C119	C	0.824496	0.093045	0.573922
C120	C	1.324496	0.593045	1.073922
N121	N	0.833581	0.031245	0.536154
N122	N	1.333581	0.531245	1.036154
N123	N	0.833573	0.031245	0.463339
N124	N	1.333573	0.531245	0.963339
C125	C	0.824479	0.093043	0.426106
C126	C	1.324479	0.593043	0.926106
C127	C	0.872130	0.045450	0.695346
C128	C	1.372130	0.545450	1.195346
C129	C	0.872129	0.045446	0.771992
C130	C	1.372129	0.545446	1.271992
C131	C	0.776882	0.140640	0.771990
C132	C	1.276882	0.640640	1.271990
C133	C	0.776879	0.140638	0.695345
C134	C	1.276879	0.640638	1.195345
C135	C	0.824506	0.093044	0.657028
C136	C	1.324506	0.593044	1.157028
H137	H	0.480445	0.095359	-0.120417
H138	H	0.980445	0.595359	0.379583
H139	H	0.944175	-0.134354	0.000050
H140	H	1.444175	0.365646	0.500050
C141	C	0.725093	0.192375	0.186556
C142	C	1.225093	0.692375	0.686556
C143	C	0.683402	0.234069	0.236519
C144	C	1.183402	0.734069	0.736519
C145	C	0.635739	0.281758	0.198339
C146	C	1.135739	0.781758	0.698339
H147	H	0.696041	0.167412	0.156665
H148	H	1.196041	0.667412	0.656665
H149	H	0.750099	0.221417	0.156662
H150	H	1.250099	0.721417	0.656662
H151	H	0.658398	0.205031	0.266401
H152	H	1.158398	0.705031	0.766401
H153	H	0.712435	0.259048	0.266412
H154	H	1.212435	0.759048	0.766412
H155	H	0.660745	0.310800	0.168446
H156	H	1.160745	0.810800	0.668446
H157	H	0.606692	0.256788	0.168450
H158	H	1.106692	0.756788	0.668450
H159	H	0.607451	0.310057	0.232233
H160	H	1.107451	0.810057	0.732233
H161	H	0.612537	0.097273	0.120428
H162	H	1.112537	0.597273	0.620428
C163	C	0.725255	0.192426	0.653779
C164	C	1.225255	0.692426	1.153779
C165	C	0.736380	0.261009	0.672390
C166	C	1.236380	0.761009	1.172390
C167	C	0.688840	0.308736	0.634109
C168	C	1.188840	0.808736	1.134109
H169	H	0.678653	0.185054	0.666322
H170	H	1.178653	0.685054	1.166322
H171	H	0.732071	0.185657	0.602637
H172	H	1.232071	0.685657	1.102637
H173	H	0.729558	0.267775	0.723521
H174	H	1.229558	0.767775	1.223521
H175	H	0.782972	0.268403	0.659846
H176	H	1.282972	0.768403	1.159846
H177	H	0.695656	0.301967	0.582967
H178	H	1.195656	0.801967	1.082967
H179	H	0.642241	0.301357	0.646655
H180	H	1.142241	0.801357	1.146655
H181	H	0.696386	0.355274	0.646726
H182	H	1.196386	0.855274	1.146726
C183	C	0.470652	0.095222	0.138524
C184	C	0.970652	0.595222	0.638524
C185	C	0.518117	0.095937	0.196651
C186	C	1.018117	0.595937	0.696651
C187	C	0.481829	0.095440	0.263119
C188	C	0.981829	0.595440	0.763119
H189	H	0.447688	0.054108	0.141393
H190	H	0.947688	0.554108	0.641393
H191	H	0.436808	0.135526	0.141317
H192	H	0.936808	0.635526	0.641317
H193	H	0.551949	0.055637	0.193859
H194	H	1.051949	0.555637	0.693859
H195	H	0.541082	0.137048	0.193806
H196	H	1.041082	0.637048	0.693806
H197	H	0.447985	0.135744	0.265912
H198	H	0.947985	0.635744	0.765912
H199	H	0.458867	0.054325	0.265980
H200	H	0.958867	0.554325	0.765980
H201	H	0.514028	0.095931	0.302566
H202	H	1.014028	0.595931	0.802566
C203	C	0.693988	-0.243263	0.000051
C204	C	1.193988	0.256737	0.500051
C205	C	0.706551	-0.316654	0.000069
C206	C	1.206551	0.183346	0.500069
C207	C	0.642454	-0.344699	0.000107
C208	C	1.142454	0.155301	0.500107
H209	H	0.667973	-0.227899	-0.042400
H210	H	1.167973	0.272101	0.457600
H211	H	0.668006	-0.227877	0.042527
H212	H	1.168006	0.272123	0.542527
H213	H	0.732523	-0.332034	-0.042403
H214	H	1.232523	0.167966	0.457597
H215	H	0.732556	-0.332038	0.042518
H216	H	1.232556	0.167962	0.542518
H217	H	0.616472	-0.329313	0.042584
H218	H	1.116472	0.170687	0.542584
H219	H	0.616444	-0.329330	-0.042345
H220	H	1.116444	0.170670	0.457655
H221	H	0.650969	-0.394497	0.000127
H222	H	1.150969	0.105503	0.500127
C223	C	0.687440	-0.687274	0.000011
C224	C	1.187440	-0.187274	0.500011
C225	C	0.700002	-0.760665	0.000023
C226	C	1.200002	-0.260665	0.500023
C227	C	0.635905	-0.788710	0.000055
C228	C	1.135905	-0.288710	0.500055
H229	H	0.661427	-0.671906	-0.042440
H230	H	1.161427	-0.171906	0.457560
H231	H	0.661457	-0.671891	0.042488
H232	H	1.161457	-0.171891	0.542488
H233	H	0.725975	-0.776042	-0.042450
H234	H	1.225975	-0.276042	0.457550
H235	H	0.726005	-0.776053	0.042470
H236	H	1.226005	-0.276053	0.542470
H237	H	0.609921	-0.773326	0.042532
H238	H	1.109921	-0.273326	0.542532
H239	H	0.609896	-0.773336	-0.042396
H240	H	1.109896	-0.273336	0.457604
H241	H	0.644419	-0.838508	0.000070
H242	H	1.144419	-0.338508	0.500070
H243	H	0.942227	-0.266463	0.000031
H244	H	1.442227	0.233537	0.500031
H245	H	0.713280	-0.103444	0.000016
H246	H	1.213280	0.396556	0.500016
H247	H	0.937631	-0.578365	0.000012
H248	H	1.437631	-0.078365	0.500012
C249	C	0.923959	-0.006090	0.653729
C250	C	1.423959	0.493910	1.153729
C251	C	0.966588	0.031034	0.609760
C252	C	1.466588	0.531034	1.109760
C253	C	1.014369	-0.016410	0.571435
C254	C	1.514369	0.483590	1.071435
H255	H	0.899066	-0.035139	0.623762
H256	H	1.399066	0.464861	1.123762
H257	H	0.952359	-0.034401	0.687530
H258	H	1.452359	0.465599	1.187530
H259	H	0.938192	0.059333	0.575963
H260	H	1.438192	0.559333	1.075963
H261	H	0.991497	0.060081	0.639709
H262	H	1.491497	0.560081	1.139709
H263	H	1.042769	-0.044721	0.605236
H264	H	1.542769	0.455279	1.105236
H265	H	0.989470	-0.045457	0.541472
H266	H	1.489470	0.454543	1.041472
H267	H	1.043302	0.008772	0.541602
H268	H	1.543302	0.508772	1.041602
H269	H	0.935682	-0.710475	-0.000012
H270	H	1.435682	-0.210475	0.499988
H271	H	0.706738	-0.547459	-0.000010
H272	H	1.206738	-0.047459	0.499990
C273	C	0.622390	0.097588	-0.138456
C274	C	1.122390	0.597588	0.361544
C275	C	0.596655	0.157398	-0.178492
C276	C	1.096655	0.657398	0.321508
C277	C	0.633014	0.158106	-0.244900
C278	C	1.133014	0.658106	0.255100
H279	H	0.615928	0.056759	-0.165815
H280	H	1.115928	0.556759	0.334185
H281	H	0.670977	0.098338	-0.128984
H282	H	1.170977	0.598338	0.371016
H283	H	0.548081	0.156642	-0.187966
H284	H	1.048081	0.656642	0.312034
H285	H	0.603118	0.198236	-0.151155
H286	H	1.103118	0.698236	0.348845
H287	H	0.681600	0.158855	-0.235428
H288	H	1.181600	0.658855	0.264572
H289	H	0.626549	0.117274	-0.272252
H290	H	1.126549	0.617274	0.227748
H291	H	0.615562	0.198689	-0.272070
H292	H	1.115562	0.698689	0.227930
C293	C	0.026679	0.088627	-0.138501
C294	C	0.526679	0.588627	0.361499
C295	C	0.074164	0.089315	-0.196628
C296	C	0.574164	0.589315	0.303372
C297	C	0.037905	0.088737	-0.263096
C298	C	0.537905	0.588737	0.236904
H299	H	-0.007182	0.128901	-0.141372
H300	H	0.492818	0.628901	0.358628
H301	H	0.003742	0.047484	-0.141294
H302	H	0.503742	0.547484	0.358706
H303	H	0.097089	0.130455	-0.193837
H304	H	0.597089	0.630455	0.306163
H305	H	0.108026	0.049045	-0.193781
H306	H	0.608026	0.549045	0.306219
H307	H	0.014968	0.047593	-0.265889
H308	H	0.514968	0.547593	0.234111
H309	H	0.004045	0.129011	-0.265960
H310	H	0.504045	0.629011	0.234040
H311	H	0.070119	0.089197	-0.302543
H312	H	0.570119	0.589197	0.197457
H313	H	0.036409	0.088774	0.120441
H314	H	0.536409	0.588774	0.620441
H315	H	0.168544	0.090760	-0.120410
H316	H	0.668544	0.590760	0.379590
H317	H	0.738070	0.179379	0.335881
H318	H	1.238070	0.679379	0.835881
C319	C	0.923821	-0.006314	0.186561
C320	C	1.423821	0.493686	0.686561
C321	C	0.965519	-0.048003	0.236529
C322	C	1.465519	0.451997	0.736529
C323	C	1.013177	-0.095696	0.198354
C324	C	1.513177	0.404304	0.698354
H325	H	0.952870	0.018647	0.156644
H326	H	1.452870	0.518647	0.656644
H327	H	0.898811	-0.035358	0.156695
H328	H	1.398811	0.464642	0.656695
H329	H	0.990528	-0.018962	0.266383
H330	H	1.490528	0.481038	0.766383
H331	H	0.936491	-0.072979	0.266448
H332	H	1.436491	0.427021	0.766448
H333	H	0.988166	-0.124740	0.168487
H334	H	1.488166	0.375260	0.668487
H335	H	1.042220	-0.070729	0.168438
H336	H	1.542220	0.429271	0.668438
H337	H	1.041470	-0.123992	0.232251
H338	H	1.541470	0.376008	0.732251
C339	C	0.923921	-0.006254	0.813465
C340	C	1.423921	0.493746	1.313465
C341	C	0.965640	-0.047918	0.763500
C342	C	1.465640	0.452082	1.263500
C343	C	1.013367	-0.095544	0.801678
C344	C	1.513367	0.404456	1.301678
H345	H	0.898987	-0.035328	0.843379
H346	H	1.398987	0.464672	1.343379
H347	H	0.952943	0.018780	0.843335
H348	H	1.452943	0.518780	1.343335
H349	H	0.936623	-0.072949	0.733642
H350	H	1.436623	0.427051	1.233642
H351	H	0.990591	-0.018863	0.733584
H352	H	1.490591	0.481137	1.233584
H353	H	1.042388	-0.070511	0.831548
H354	H	1.542388	0.429489	1.331548
H355	H	0.988426	-0.124613	0.831591
H356	H	1.488426	0.375387	1.331591
H357	H	1.041683	-0.123815	0.767782
H358	H	1.541683	0.376185	1.267782
H359	H	0.738109	0.179391	0.803193
H360	H	1.238109	0.679391	1.303193
H361	H	0.168525	0.090726	0.120432
H362	H	0.668525	0.590726	0.620432
H363	H	0.910876	0.006686	0.335878
H364	H	1.410876	0.506686	0.835878
