data_functionalizedCrystal
_audit_creation_method	'MofGen! by Chris Wilmer'
_symmetry_space_group_name_H-M	'P1'
_symmetry_Int_Tables_number	1
_symmetry_cell_setting	triclinic
loop_
_symmetry_equiv_pos_as_xyz
  x,y,z
_cell_length_a	10.654550
_cell_length_b	10.540539
_cell_length_c	9.730223
_cell_angle_alpha	90.000775
_cell_angle_beta	89.996251
_cell_angle_gamma	84.505197
loop_
_atom_site_label
_atom_site_type_symbol
_atom_site_fract_x
_atom_site_fract_y
_atom_site_fract_z
O1	O	1.667897	0.178295	-0.114396
O2	O	1.302424	0.195282	-0.114373
O3	O	1.493499	0.002079	-0.114383
O4	O	1.476822	0.371498	-0.114386
O5	O	1.493496	0.002084	0.114197
O6	O	1.302422	0.195287	0.114207
O7	O	1.667895	0.178300	0.114184
Zn8	Zn	1.485158	0.186794	0.150487
Zn9	Zn	1.485161	0.186788	-0.150677
O10	O	1.476820	0.371503	0.114194
C11	C	1.255625	0.194038	-0.000080
C12	C	1.116180	0.190306	-0.000072
C13	C	1.036734	0.304061	-0.000093
C14	C	0.905712	0.300547	-0.000116
C15	C	0.933595	0.069513	-0.000104
C16	C	1.064614	0.073028	-0.000071
C17	C	1.020636	0.437446	-0.000106
C18	C	0.889614	0.433932	-0.000129
C19	C	1.492247	-0.045221	-0.000096
C20	C	1.488505	-0.186168	-0.000103
C21	C	1.345134	-0.369543	-0.000607
C22	C	1.348927	-0.222926	-0.000093
C23	C	1.555675	-0.247847	0.130423
C24	C	1.550912	-0.394389	0.130533
C25	C	1.553753	-0.394914	-0.129405
C26	C	1.555039	-0.247933	-0.131131
C27	C	1.714694	0.179545	-0.000112
C28	C	1.854139	0.183276	-0.000129
C29	C	1.478072	0.418803	-0.000096
C30	C	1.481813	0.559750	-0.000098
N31	N	1.485165	0.186798	0.356024
N32	N	1.485164	0.186774	-0.356213
C33	C	1.569795	0.101277	0.427945
C34	C	1.569791	0.101261	0.571828
C35	C	1.400525	0.272299	0.571855
C36	C	1.400523	0.272308	0.427975
C37	C	1.667523	0.002533	0.427931
C38	C	1.667520	0.002518	0.571814
H39	H	1.296074	-0.180306	-0.093659
H40	H	1.509014	-0.205228	0.227563
C41	C	1.689941	-0.458769	-0.130614
H42	H	1.702947	-0.512803	-0.052746
H43	H	1.747247	-0.395105	-0.127755
H44	H	1.703633	-0.507824	-0.212080
C45	C	1.790711	0.044298	0.367619
H46	H	1.786505	0.042890	0.270109
H47	H	1.859879	-0.012441	0.397753
H48	H	1.801732	0.128234	0.397770
C49	C	1.270935	-0.410319	0.125128
H50	H	1.188463	-0.367168	0.124024
H51	H	1.313036	-0.389246	0.206876
H52	H	1.265513	-0.499712	0.122036
C53	C	1.686512	-0.459246	0.138551
H54	H	1.744263	-0.395999	0.141738
H55	H	1.703371	-0.511429	0.059844
H56	H	1.695560	-0.510304	0.219049
H57	H	1.656802	-0.223748	-0.139019
H58	H	1.289998	-0.398125	-0.094209
C59	C	1.492726	-0.437508	-0.263053
H60	H	1.422793	-0.483343	-0.241237
H61	H	1.552840	-0.490760	-0.314025
H62	H	1.464862	-0.364686	-0.316335
C63	C	1.307440	0.366384	0.348859
H64	H	1.319556	0.354142	0.252864
H65	H	1.321835	0.451233	0.372453
H66	H	1.223495	0.351802	0.372437
H67	H	1.295701	-0.181149	0.093636
H68	H	1.501268	-0.422569	0.228111
H69	H	1.331611	0.341918	0.630454
H70	H	1.646046	-0.095040	0.388879
C71	C	1.694143	-0.217694	0.136987
H72	H	1.712261	-0.167095	0.060001
H73	H	1.747903	-0.294972	0.135775
H74	H	1.707683	-0.172385	0.219231
H75	H	1.636975	-0.089689	0.616432
H76	H	1.764039	0.024268	0.610858
H77	H	1.129295	-0.019602	-0.000034
H78	H	0.847900	0.484188	-0.095797
C79	C	1.488760	-0.192600	-0.261586
H80	H	1.529440	-0.230335	-0.340499
H81	H	1.492944	-0.103009	-0.263984
H82	H	1.403006	-0.210333	-0.260766
C83	C	0.876867	-0.059482	-0.000117
H84	H	0.787458	-0.045285	-0.000148
H85	H	0.904047	-0.106370	0.079597
H86	H	0.904087	-0.106366	-0.079835
C87	C	1.060292	0.507933	0.129114
H88	H	0.987692	0.534524	0.182244
H89	H	1.101102	0.580365	0.102540
H90	H	1.116535	0.452382	0.182289
H91	H	1.056307	0.479916	-0.098793
H92	H	0.843956	0.474245	0.098554
