data_functionalizedCrystal
_audit_creation_method	'MofGen! by Chris Wilmer'
_symmetry_space_group_name_H-M	'P1'
_symmetry_Int_Tables_number	1
_symmetry_cell_setting	triclinic
loop_
_symmetry_equiv_pos_as_xyz
  x,y,z
_cell_length_a	16.974800
_cell_length_b	16.974813
_cell_length_c	15.455313
_cell_angle_alpha	90.987683
_cell_angle_beta	89.026089
_cell_angle_gamma	83.627081
loop_
_atom_site_label
_atom_site_type_symbol
_atom_site_fract_x
_atom_site_fract_y
_atom_site_fract_z
O1	O	1.049303	0.100458	0.005495
O2	O	1.382637	0.433791	0.338829
O3	O	1.715970	0.767124	0.672162
O4	O	0.819898	0.112492	0.022451
O5	O	1.153232	0.445826	0.355785
O6	O	1.486565	0.779159	0.689118
O7	O	0.940611	-0.008229	0.005496
O8	O	1.273944	0.325104	0.338829
O9	O	1.607278	0.658438	0.672162
O10	O	0.928591	0.221179	0.022451
O11	O	1.261924	0.554512	0.355784
O12	O	1.595257	0.887845	0.689118
O13	O	0.933708	-0.001354	-0.137799
O14	O	1.267041	0.331979	0.195534
O15	O	1.600375	0.665313	0.528868
O16	O	0.812995	0.119367	-0.120843
O17	O	1.146329	0.452700	0.212490
O18	O	1.479662	0.786034	0.545823
O19	O	1.042400	0.107332	-0.137799
O20	O	1.375734	0.440666	0.195534
O21	O	1.709067	0.773999	0.528867
Cu22	Cu	0.927068	0.113978	-0.142405
Cu23	Cu	1.260401	0.447311	0.190928
Cu24	Cu	1.593734	0.780644	0.524262
Cu25	Cu	0.935231	0.105847	0.027057
Cu26	Cu	1.268564	0.439180	0.360391
Cu27	Cu	1.601898	0.772514	0.693724
O28	O	0.921688	0.228054	-0.120844
O29	O	1.255021	0.561387	0.212490
O30	O	1.588354	0.894720	0.545823
C31	C	0.787086	0.115346	-0.047175
C32	C	1.120419	0.448679	0.286158
C33	C	1.453753	0.782013	0.619492
C34	C	0.699600	0.113597	-0.041154
C35	C	1.032934	0.446931	0.292180
C36	C	1.366267	0.780264	0.625513
C37	C	0.654741	0.116521	-0.116437
C38	C	0.988075	0.449855	0.216897
C39	C	1.321408	0.783188	0.550230
C40	C	0.572541	0.114866	-0.110782
C41	C	0.905874	0.448199	0.222551
C42	C	1.239208	0.781533	0.555884
C43	C	0.535200	0.110292	-0.029844
C44	C	0.868534	0.443625	0.303490
C45	C	1.201867	0.776959	0.636823
C46	C	0.580066	0.107365	0.045445
C47	C	0.913399	0.440699	0.378778
C48	C	1.246732	0.774032	0.712111
C49	C	0.662265	0.109015	0.039789
C50	C	0.995599	0.442348	0.373123
C51	C	1.328932	0.775682	0.706456
C52	C	0.289764	0.104950	-0.004554
C53	C	0.623097	0.438284	0.328780
C54	C	0.956430	0.771617	0.662113
C55	C	0.207558	0.103303	0.001096
C56	C	0.540891	0.436636	0.334430
C57	C	0.874224	0.769970	0.667763
C58	C	0.200039	0.110802	-0.155132
C59	C	0.533372	0.444136	0.178202
C60	C	0.866705	0.777469	0.511535
C61	C	0.282240	0.112457	-0.160780
C62	C	0.615573	0.445790	0.172554
C63	C	0.948906	0.779123	0.505887
C64	C	0.327098	0.109526	-0.085492
C65	C	0.660432	0.442859	0.247842
C66	C	0.993765	0.776192	0.581175
N67	N	0.451178	0.108602	-0.024062
N68	N	0.784511	0.441935	0.309271
N69	N	1.117845	0.775269	0.642605
N70	N	0.411120	0.111210	-0.091275
N71	N	0.744453	0.444543	0.242059
N72	N	1.077787	0.777876	0.575392
C73	C	0.936574	-0.034153	-0.068171
C74	C	1.269907	0.299181	0.265163
C75	C	1.603241	0.632514	0.598496
C76	C	0.934820	-0.121639	-0.074186
C77	C	1.268153	0.211694	0.259147
C78	C	1.601487	0.545028	0.592480
C79	C	0.937761	-0.166483	0.001097
C80	C	1.271094	0.166850	0.334430
C81	C	1.604427	0.500183	0.667763
C82	C	0.936108	-0.248685	-0.004558
C83	C	1.269441	0.084648	0.328776
C84	C	1.602774	0.417981	0.662109
C85	C	0.931519	-0.286042	-0.085496
C86	C	1.264853	0.047291	0.247837
C87	C	1.598186	0.380625	0.581170
C88	C	0.928576	-0.241192	-0.160785
C89	C	1.261910	0.092142	0.172548
C90	C	1.595243	0.425475	0.505882
C91	C	0.930224	-0.158990	-0.155129
C92	C	1.263557	0.174343	0.178204
C93	C	1.596890	0.507676	0.511537
C94	C	0.926183	-0.531485	-0.110787
C95	C	1.259517	-0.198152	0.222546
C96	C	1.592850	0.135182	0.555880
C97	C	0.924538	-0.613692	-0.116437
C98	C	1.257872	-0.280359	0.216896
C99	C	1.591205	0.052974	0.550229
C100	C	0.932068	-0.621180	0.039791
C101	C	1.265402	-0.287847	0.373124
C102	C	1.598735	0.045486	0.706458
C103	C	0.933720	-0.538978	0.045439
C104	C	1.267054	-0.205644	0.378772
C105	C	1.600387	0.127689	0.712106
C106	C	0.930773	-0.494134	-0.029849
C107	C	1.264106	-0.160801	0.303484
C108	C	1.597439	0.172533	0.636818
N109	N	0.929832	-0.370066	-0.091278
N110	N	1.263165	-0.036733	0.242055
N111	N	1.596499	0.296601	0.575388
N112	N	0.932454	-0.410111	-0.024066
N113	N	1.265788	-0.076777	0.309268
N114	N	1.599121	0.256556	0.642601
C115	C	1.075213	0.104479	-0.068171
C116	C	1.408546	0.437812	0.265162
C117	C	1.741879	0.771145	0.598496
C118	C	1.162699	0.106227	-0.074187
C119	C	1.496032	0.439560	0.259147
C120	C	1.829365	0.772894	0.592480
C121	C	0.925725	0.253977	-0.047175
C122	C	1.259058	0.587310	0.286158
C123	C	1.592391	0.920644	0.619491
C124	C	0.927479	0.341463	-0.041154
C125	C	1.260812	0.674797	0.292179
C126	C	1.594146	1.008130	0.625512
N127	N	0.921331	0.119695	-0.261596
N128	N	1.254665	0.453029	0.071737
N129	N	1.587998	0.786362	0.405070
C130	C	0.972632	0.068428	-0.314194
C131	C	1.305966	0.401761	0.019140
C132	C	1.639299	0.735094	0.352473
C133	C	0.968302	0.072759	-0.404393
C134	C	1.301635	0.406093	-0.071060
C135	C	1.634968	0.739426	0.262273
C136	C	0.912673	0.128363	-0.441994
C137	C	1.246007	0.461696	-0.108660
C138	C	1.579340	0.795030	0.224673
C139	C	0.861367	0.179633	-0.389389
C140	C	1.194700	0.512966	-0.056056
C141	C	1.528034	0.846299	0.277277
C142	C	0.865694	0.175297	-0.299192
C143	C	1.199028	0.508630	0.034142
C144	C	1.532361	0.841964	0.367475
C145	C	0.893994	0.147057	-0.710950
C146	C	1.227328	0.480390	-0.377617
C147	C	1.560661	0.813724	-0.044284
C148	C	0.889672	0.151391	-0.801155
C149	C	1.223006	0.484724	-0.467822
C150	C	1.556339	0.818057	-0.134488
C151	C	0.996607	0.044516	-0.816153
C152	C	1.329940	0.377849	-0.482820
C153	C	1.663273	0.711182	-0.149486
C154	C	1.000932	0.040188	-0.725953
C155	C	1.334266	0.373521	-0.392619
C156	C	1.667599	0.706855	-0.059286
C157	C	0.949623	0.091455	-0.673356
C158	C	1.282957	0.424788	-0.340023
C159	C	1.616290	0.758122	-0.006690
N160	N	0.908247	0.132793	-0.534192
N161	N	1.241580	0.466127	-0.200859
N162	N	1.574914	0.799460	0.132475
N163	N	0.954046	0.087020	-0.581160
N164	N	1.287380	0.420353	-0.247826
N165	N	1.620713	0.753687	0.085507
N166	N	0.940973	0.100123	0.146247
N167	N	1.274307	0.433456	0.479581
N168	N	1.607640	0.766790	0.812914
H169	H	0.326278	0.102561	0.056751
H170	H	0.659612	0.435894	0.390085
H171	H	0.992945	0.769228	0.723418
H172	H	0.685137	0.120253	-0.182345
H173	H	1.018470	0.453586	0.150988
H174	H	1.351804	0.786919	0.484321
H175	H	0.312637	0.116177	-0.226689
H176	H	0.645970	0.449511	0.106644
H177	H	0.979304	0.782844	0.439978
F178	F	1.022901	0.018194	-0.460372
F179	F	1.356234	0.351527	-0.127039
F180	F	1.689568	0.684860	0.206295
H181	H	0.923799	-0.494985	-0.172093
H182	H	1.257132	-0.161651	0.161240
H183	H	1.590466	0.171682	0.494573
F184	F	0.540326	0.102473	0.131584
F185	F	0.873659	0.435806	0.464918
F186	F	1.206992	0.769140	0.798251
F187	F	0.152292	0.113919	-0.235253
F188	F	0.485625	0.447252	0.098080
F189	F	0.818958	0.780586	0.431413
H190	H	0.823919	0.217044	-0.256367
H191	H	1.157252	0.550377	0.076967
H192	H	1.490586	0.883710	0.410300
H193	H	0.941501	-0.136074	0.067006
H194	H	1.274834	0.197259	0.400339
H195	H	1.608168	0.530593	0.733672
H196	H	0.924836	-0.271613	-0.226687
H197	H	1.258169	0.061720	0.106647
H198	H	1.591502	0.395053	0.439980
F199	F	0.839390	0.201621	-0.654980
F200	F	1.172724	0.534954	-0.321647
F201	F	1.506057	0.868287	0.011686
H202	H	1.038379	0.002775	-0.858985
H203	H	1.371713	0.336109	-0.525651
H204	H	1.705046	0.669442	-0.192318
H205	H	0.937457	-0.508568	0.111348
H206	H	1.270791	-0.175235	0.444681
H207	H	1.604124	0.158099	0.778015
F208	F	0.710008	0.105900	0.119916
F209	F	1.043341	0.439233	0.453249
F210	F	1.376674	0.772567	0.786583
F211	F	0.939238	-0.296409	0.075569
F212	F	1.272572	0.036925	0.408903
F213	F	1.605905	0.370258	0.742236
H214	H	0.536022	0.117234	-0.172087
H215	H	0.869355	0.450567	0.161246
H216	H	1.202688	0.783901	0.494580
F217	F	0.167819	0.098437	0.087247
F218	F	0.501152	0.431770	0.420580
F219	F	0.834485	0.765103	0.753913
H220	H	1.017934	0.023153	-0.283586
H221	H	1.351267	0.356486	0.049747
H222	H	1.684601	0.689819	0.383080
F223	F	1.060139	-0.018990	-0.685937
F224	F	1.393472	0.314343	-0.352604
F225	F	1.726805	0.647676	-0.019270
F226	F	0.935204	-0.668912	0.119912
F227	F	1.268537	-0.335579	0.453245
F228	F	1.601871	-0.002245	0.786579
H229	H	0.920798	-0.644105	-0.182350
H230	H	1.254131	-0.310772	0.150983
H231	H	1.587465	0.022562	0.484316
F232	F	0.927093	-0.111264	-0.235256
F233	F	1.260426	0.222070	0.098077
F234	F	1.593760	0.555403	0.431411
F235	F	0.830462	0.210577	-0.841166
F236	F	1.163796	0.543910	-0.507832
F237	F	1.497129	0.877243	-0.174499
F238	F	0.802158	0.238808	-0.429407
F239	F	1.135492	0.572141	-0.096074
F240	F	1.468825	0.905474	0.237260
