data_functionalizedCrystal
_audit_creation_method	'MofGen! by Chris Wilmer'
_symmetry_space_group_name_H-M	'P1'
_symmetry_Int_Tables_number	1
_symmetry_cell_setting	triclinic
loop_
_symmetry_equiv_pos_as_xyz
  x,y,z
_cell_length_a	10.540539
_cell_length_b	10.540510
_cell_length_c	13.930277
_cell_angle_alpha	89.997952
_cell_angle_beta	89.994842
_cell_angle_gamma	84.519401
loop_
_atom_site_label
_atom_site_type_symbol
_atom_site_fract_x
_atom_site_fract_y
_atom_site_fract_z
O1	O	1.685873	0.178902	-0.079780
O2	O	2.185873	0.678902	0.420220
O3	O	1.316458	0.195758	-0.079791
O4	O	1.816458	0.695758	0.420209
O5	O	1.509614	0.002621	-0.079785
O6	O	2.009614	0.502621	0.420215
O7	O	1.492718	0.372039	-0.079786
O8	O	1.992718	0.872039	0.420214
O9	O	1.509586	0.002617	0.079877
O10	O	2.009586	0.502617	0.579877
O11	O	1.316431	0.195754	0.079871
O12	O	1.816431	0.695754	0.579871
O13	O	1.685846	0.178897	0.079882
O14	O	2.185846	0.678897	0.579882
Zn15	Zn	1.501134	0.187325	0.105226
Zn16	Zn	2.001134	0.687325	0.605226
Zn17	Zn	1.501170	0.187331	-0.105135
Zn18	Zn	2.001170	0.687331	0.394865
O19	O	1.492691	0.372034	0.079876
O20	O	1.992691	0.872034	0.579876
C21	C	1.269142	0.194492	0.000038
C22	C	1.769142	0.694492	0.500038
C23	C	1.128194	0.190710	0.000034
C24	C	1.628194	0.690710	0.500034
C25	C	1.508341	-0.044685	0.000044
C26	C	2.008341	0.455315	0.500044
C27	C	1.504574	-0.185635	0.000038
C28	C	2.004574	0.314365	0.500038
C29	C	1.638758	-0.403090	0.000408
C30	C	2.138758	0.096910	0.500408
C31	C	1.642776	-0.256495	0.000043
C32	C	2.142776	0.243505	0.500043
C33	C	1.433843	-0.230391	-0.091137
C34	C	1.933843	0.269609	0.408863
C35	C	1.430804	-0.377152	-0.091208
C36	C	1.930804	0.122848	0.408792
C37	C	1.427895	-0.376965	0.090357
C38	C	1.927895	0.123035	0.590357
C39	C	1.434450	-0.230624	0.091557
C40	C	1.934450	0.269376	0.591557
C41	C	0.944783	0.045791	0.000407
C42	C	1.444783	0.545791	0.500407
C43	C	1.091401	0.049624	0.000037
C44	C	1.591401	0.549624	0.500037
C45	C	1.066530	0.258608	-0.091138
C46	C	1.566530	0.758608	0.408862
C47	C	0.919986	0.253793	-0.091204
C48	C	1.419986	0.753793	0.408796
C49	C	0.919466	0.256659	0.090361
C50	C	1.419466	0.756659	0.590361
C51	C	1.066448	0.257958	0.091556
C52	C	1.566448	0.757958	0.591556
C53	C	1.733163	0.180164	0.000050
C54	C	2.233163	0.680164	0.500050
C55	C	1.874110	0.183946	0.000049
C56	C	2.374110	0.683946	0.500049
C57	C	1.493964	0.419340	0.000045
C58	C	1.993964	0.919340	0.500045
C59	C	1.497731	0.560290	0.000044
C60	C	1.997731	1.060290	0.500044
N61	N	1.501119	0.187320	0.248792
N62	N	2.001119	0.687320	0.748792
N63	N	1.501195	0.187325	-0.248701
N64	N	2.001195	0.687325	0.251299
C65	C	1.415637	0.272818	0.701059
C66	C	1.915637	0.772818	1.201059
C67	C	1.586738	0.101834	0.701034
C68	C	2.086738	0.601834	1.201034
C69	C	1.586723	0.101830	0.600538
C70	C	2.086723	0.601830	1.100538
C71	C	1.501165	0.187322	0.550298
C72	C	2.001165	0.687322	1.050298
C73	C	1.415622	0.272819	0.600554
C74	C	1.915622	0.772819	1.100554
C75	C	1.672272	0.016343	0.550275
C76	C	2.172272	0.516343	1.050275
C77	C	1.672262	0.016337	0.449773
C78	C	2.172262	0.516337	0.949773
C79	C	1.586697	0.101824	0.399531
C80	C	2.086697	0.601824	0.899531
C81	C	1.501150	0.187323	0.449793
C82	C	2.001150	0.687323	0.949793
C83	C	1.415592	0.272816	0.399553
C84	C	1.915592	0.772816	0.899553
C85	C	1.330038	0.358310	0.449813
C86	C	1.830038	0.858310	0.949813
C87	C	1.330057	0.358306	0.550312
C88	C	1.830057	0.858306	1.050312
C89	C	1.586677	0.101828	0.299032
C90	C	2.086677	0.601828	0.799032
C91	C	1.415577	0.272817	0.299048
C92	C	1.915577	0.772817	0.799048
H93	H	1.698119	-0.227152	0.065400
H94	H	2.198119	0.272848	0.565400
F95	F	1.119854	0.193021	0.179716
F96	F	1.619854	0.693021	0.679716
H97	H	1.482986	-0.199532	-0.158986
H98	H	1.982986	0.300468	0.341014
H99	H	1.090662	0.360818	0.097061
H100	H	1.590662	0.860818	0.597061
F101	F	1.095762	0.394024	-0.095590
F102	F	1.595762	0.894024	0.404410
H103	H	0.891793	0.203614	-0.159355
H104	H	1.391793	0.703614	0.340645
H105	H	1.741923	-0.053277	0.408857
H106	H	2.241923	0.446723	0.908857
H107	H	1.332102	-0.183002	-0.094530
H108	H	1.832102	0.316998	0.405470
F109	F	1.145958	-0.020409	-0.085670
F110	F	1.645958	0.479591	0.414330
H111	H	1.327438	-0.400147	-0.095342
H112	H	1.827438	0.099853	0.404658
H113	H	0.916193	-0.009948	0.065791
H114	H	1.416193	0.490052	0.565791
F115	F	0.857270	0.386414	-0.096614
F116	F	1.357270	0.886414	0.403386
F117	F	1.501712	-0.193220	0.179722
F118	F	2.001712	0.306780	0.679722
H119	H	1.345900	0.342431	0.258149
H120	H	1.845900	0.842431	0.758149
H121	H	1.741937	-0.053256	0.591183
H122	H	2.241937	0.446744	1.091183
F123	F	1.239014	0.449291	0.603806
F124	F	1.739014	0.949291	1.103806
F125	F	0.857725	0.389855	0.091167
F126	F	1.357725	0.889855	0.591167
H127	H	1.471803	-0.419149	0.159468
H128	H	1.971803	0.080851	0.659468
F129	F	1.677798	0.010858	0.754502
F130	F	2.177798	0.510858	1.254502
F131	F	1.238991	0.449302	0.396333
F132	F	1.738991	0.949302	0.896333
F133	F	1.677731	0.010852	0.245548
F134	F	2.177731	0.510852	0.745548
F135	F	1.122213	0.196965	-0.179827
F136	F	1.622213	0.696965	0.320173
H137	H	1.134009	-0.003801	0.065393
H138	H	1.634009	0.496199	0.565393
H139	H	1.692589	-0.445047	0.065794
H140	H	2.192589	0.054953	0.565794
H141	H	0.887913	0.210998	0.159469
H142	H	1.387913	0.710998	0.659469
F143	F	1.324584	0.363798	0.754547
F144	F	1.824584	0.863798	1.254547
H145	H	1.333551	-0.181558	0.097060
H146	H	1.833551	0.318442	0.597060
H147	H	1.698463	-0.228087	-0.065424
H148	H	2.198463	0.271913	0.434576
F149	F	1.708746	-0.459950	-0.084569
F150	F	2.208746	0.040050	0.415431
H151	H	1.324132	-0.399115	0.090968
H152	H	1.824132	0.100885	0.590968
F153	F	1.494021	-0.429718	-0.180284
F154	F	1.994021	0.070282	0.319716
H155	H	0.914593	-0.009708	-0.064613
H156	H	1.414593	0.490292	0.435387
