data_functionalizedCrystal
_audit_creation_method	'MofGen! by Chris Wilmer'
_symmetry_space_group_name_H-M	'P1'
_symmetry_Int_Tables_number	1
_symmetry_cell_setting	triclinic
loop_
_symmetry_equiv_pos_as_xyz
  x,y,z
_cell_length_a	8.634740
_cell_length_b	8.634740
_cell_length_c	8.140239
_cell_angle_alpha	89.998579
_cell_angle_beta	89.997817
_cell_angle_gamma	100.570307
loop_
_atom_site_label
_atom_site_type_symbol
_atom_site_fract_x
_atom_site_fract_y
_atom_site_fract_z
O1	O	2.122441	0.514104	-0.136596
O2	O	2.622441	1.014104	0.363404
O3	O	1.667084	0.470994	-0.136601
O4	O	2.167084	0.970994	0.363399
O5	O	1.873207	0.264871	-0.136595
O6	O	2.373207	0.764871	0.363405
O7	O	1.916317	0.720228	-0.136602
O8	O	2.416317	1.220228	0.363398
O9	O	1.873193	0.264866	0.136632
O10	O	2.373193	0.764866	0.636632
O11	O	1.667070	0.470990	0.136626
O12	O	2.167070	0.970990	0.636626
O13	O	2.122427	0.514100	0.136631
O14	O	2.622427	1.014100	0.636631
Zn15	Zn	1.894746	0.492544	0.180009
Zn16	Zn	2.394746	0.992544	0.680009
Zn17	Zn	1.894764	0.492550	-0.179979
Zn18	Zn	2.394764	0.992550	0.320021
O19	O	1.916303	0.720223	0.136625
O20	O	2.416303	1.220223	0.636625
C21	C	1.608176	0.461226	0.000012
C22	C	2.108176	0.961226	0.500012
C23	C	1.432666	0.432108	0.000010
C24	C	1.932666	0.932108	0.500010
C25	C	1.863434	0.205967	0.000016
C26	C	2.363434	0.705967	0.500016
C27	C	1.834316	0.030458	0.000009
C28	C	2.334316	0.530458	0.500009
C29	C	2.181335	0.523868	0.000015
C30	C	2.681335	1.023868	0.500015
C31	C	2.356844	0.552987	0.000006
C32	C	2.856844	1.052987	0.500006
C33	C	1.926076	0.779127	0.000011
C34	C	2.426076	1.279127	0.500011
C35	C	1.955195	0.954636	0.000007
C36	C	2.455195	1.454636	0.500007
N37	N	1.894745	0.492540	0.425692
N38	N	2.394745	0.992540	0.925692
N39	N	1.894776	0.492543	-0.425662
N40	N	2.394776	0.992543	0.074338
H41	H	1.426209	0.678761	0.000015
H42	H	1.926209	1.178761	0.500015
H43	H	1.363310	0.306341	-0.000031
H44	H	1.863310	0.806341	0.499969
C45	C	2.125104	0.048331	0.000016
C46	C	2.625104	0.548331	0.500016
N47	N	2.253083	0.118913	0.000027
N48	N	2.753083	0.618913	0.500027
C49	C	1.664397	-0.063244	0.000009
C50	C	2.164397	0.436756	0.500009
N51	N	1.536417	-0.133822	0.000014
N52	N	2.036417	0.366178	0.500014
