data_functionalizedCrystal
_audit_creation_method	'MofGen! by Chris Wilmer'
_symmetry_space_group_name_H-M	'P1'
_symmetry_Int_Tables_number	1
_symmetry_cell_setting	triclinic
loop_
_symmetry_equiv_pos_as_xyz
  x,y,z
_cell_length_a	14.048226
_cell_length_b	14.971486
_cell_length_c	14.971486
_cell_angle_alpha	96.385817
_cell_angle_beta	89.995493
_cell_angle_gamma	90.001501
loop_
_atom_site_label
_atom_site_type_symbol
_atom_site_fract_x
_atom_site_fract_y
_atom_site_fract_z
O1	O	-0.079047	-1.186947	0.116565
O2	O	0.420953	-0.686947	0.616565
O3	O	-0.079072	-0.926547	0.130523
O4	O	0.420928	-0.426547	0.630523
O5	O	-0.079057	-1.063726	-0.006656
O6	O	0.420943	-0.563726	0.493344
O7	O	-0.079062	-1.049768	0.253744
O8	O	0.420938	-0.549768	0.753744
O9	O	0.079264	-1.063710	-0.006664
O10	O	0.579264	-0.563710	0.493336
O11	O	0.079249	-0.926530	0.130515
O12	O	0.579249	-0.426530	0.630515
O13	O	0.079274	-1.186931	0.116556
O14	O	0.579274	-0.686931	0.616556
Zn15	Zn	0.104399	-1.056728	0.123535
Zn16	Zn	0.604399	-0.556728	0.623535
Zn17	Zn	-0.104197	-1.056750	0.123545
Zn18	Zn	0.395803	-0.556750	0.623545
O19	O	0.079259	-1.049751	0.253736
O20	O	0.579259	-0.549751	0.753736
C21	C	0.000085	-0.893214	0.129895
C22	C	0.500085	-0.393214	0.629895
C23	C	0.000075	-0.793917	0.128024
C24	C	0.500075	-0.293917	0.628024
N25	N	0.246759	-1.056720	0.123527
N26	N	0.746759	-0.556720	0.623527
C27	C	0.000102	-1.063094	-0.039985
C28	C	0.500102	-0.563094	0.460015
C29	C	0.000097	-1.061223	-0.139282
C30	C	0.500097	-0.561223	0.360718
N31	N	-0.246557	-1.056765	0.123546
N32	N	0.253443	-0.556765	0.623546
C33	C	0.296584	-1.117482	0.062809
C34	C	0.796584	-0.617482	0.562809
C35	C	0.396242	-1.117488	0.062808
C36	C	0.896242	-0.617488	0.562808
C37	C	0.446073	-1.056735	0.123531
C38	C	0.946073	-0.556735	0.623531
C39	C	0.396241	-0.995967	0.184252
C40	C	0.896241	-0.495967	0.684252
C41	C	0.296585	-0.995957	0.184247
C42	C	0.796585	-0.495957	0.684247
C43	C	0.603955	-0.995992	0.184258
C44	C	1.103955	-0.495992	0.684258
C45	C	0.703618	-0.996003	0.184264
C46	C	1.203618	-0.496003	0.684264
C47	C	0.703612	-1.117523	0.062819
C48	C	1.203612	-0.617523	0.562819
C49	C	0.603956	-1.117514	0.062815
C50	C	1.103956	-0.617514	0.562815
C51	C	0.554131	-1.056746	0.123537
C52	C	1.054131	-0.556746	0.623537
C53	C	0.000115	-1.220264	0.117185
C54	C	0.500115	-0.720264	0.617185
C55	C	0.000118	-1.319561	0.119056
C56	C	0.500118	-0.819561	0.619056
C57	C	0.000075	-0.736692	0.208614
C58	C	0.500075	-0.236692	0.708614
C59	C	0.000089	-0.643392	0.206850
C60	C	0.500089	-0.143392	0.706850
C61	C	0.000097	-0.607320	0.124497
C62	C	0.500097	-0.107320	0.624497
C63	C	0.000100	-0.664552	0.043902
C64	C	0.500100	-0.164552	0.543902
C65	C	0.000092	-0.757850	0.045666
C66	C	0.500092	-0.257850	0.545666
C67	C	0.000113	-0.470090	0.040231
C68	C	0.500113	0.029910	0.540231
C69	C	0.000119	-0.376786	0.038466
C70	C	0.500119	0.123214	0.538466
C71	C	0.000110	-0.355632	0.201415
C72	C	0.500110	0.144368	0.701415
C73	C	0.000102	-0.448930	0.203179
C74	C	0.500102	0.051070	0.703179
C75	C	0.000104	-0.506156	0.122584
C76	C	0.500104	-0.006156	0.622584
C77	C	0.000098	-1.050384	0.287065
C78	C	0.500098	-0.550384	0.787065
C79	C	0.000097	-1.052255	0.386362
C80	C	0.500097	-0.552255	0.886362
C81	C	-0.086205	-1.053143	0.433013
C82	C	0.413795	-0.553143	0.933013
C83	C	-0.086206	-1.054913	0.526311
C84	C	0.413794	-0.554913	1.026311
C85	C	0.000096	-1.055787	0.572958
C86	C	0.500096	-0.555787	1.072958
C87	C	0.086405	-1.054901	0.526300
C88	C	0.586405	-0.554901	1.026300
C89	C	0.086405	-1.053138	0.433002
C90	C	0.586405	-0.553138	0.933002
C91	C	0.086398	-1.058573	0.720763
C92	C	0.586398	-0.558573	1.220763
C93	C	0.086399	-1.060334	0.814067
C94	C	0.586399	-0.560334	1.314067
C95	C	-0.086212	-1.060348	0.814072
C96	C	0.413788	-0.560348	1.314072
C97	C	-0.086212	-1.058585	0.720774
C98	C	0.413788	-0.558585	1.220774
C99	C	0.000097	-1.057697	0.674123
C100	C	0.500097	-0.557697	1.174123
H101	H	0.256018	-1.166957	0.013365
H102	H	0.756018	-0.666957	0.513365
Br103	Br	0.000119	-0.615598	-0.067865
Br104	Br	0.500119	-0.115598	0.432135
Br105	Br	0.203524	-1.061542	0.877371
Br106	Br	0.703524	-0.561542	1.377371
Br107	Br	0.000119	-0.547754	-0.069150
Br108	Br	0.500119	-0.047754	0.430850
H109	H	0.436808	-1.166964	0.013367
H110	H	0.936808	-0.666964	0.513367
H111	H	0.000068	-0.766054	0.275675
H112	H	0.500068	-0.266054	0.775675
Br113	Br	0.771239	-0.913549	0.266677
Br114	Br	1.271239	-0.413549	0.766677
Br115	Br	0.203533	-1.057376	0.657449
Br116	Br	0.703533	-0.557376	1.157449
H117	H	0.000126	-0.347419	-0.028593
H118	H	0.500126	0.152581	0.471407
H119	H	0.563384	-1.166987	0.013375
H120	H	1.063384	-0.666987	0.513375
H121	H	0.000092	-0.804443	-0.019958
H122	H	0.500092	-0.304443	0.480042
H123	H	0.156681	-1.052414	0.395020
H124	H	0.656681	-0.552414	0.895020
Br125	Br	0.000107	-0.277970	0.310796
Br126	Br	0.500107	0.222030	0.810796
H127	H	0.000088	-0.596803	0.272474
H128	H	0.500088	-0.096803	0.772474
H129	H	0.744185	-1.167002	0.013377
H130	H	1.244185	-0.667002	0.513377
Br131	Br	-0.203346	-1.061499	0.877389
Br132	Br	0.296654	-0.561499	1.377389
H133	H	0.436819	-0.946496	0.233690
H134	H	0.936819	-0.446496	0.733690
H135	H	0.156673	-1.055618	0.564287
H136	H	0.656673	-0.555618	1.064287
Br137	Br	0.000078	-0.497885	0.314946
Br138	Br	0.500078	0.002115	0.814946
Br139	Br	0.536339	-0.913516	0.266664
Br140	Br	1.036339	-0.413516	0.766664
H141	H	-0.156482	-1.052423	0.395041
H142	H	0.343518	-0.552423	0.895041
Br143	Br	0.228966	-0.913485	0.266648
Br144	Br	0.728966	-0.413485	0.766648
H145	H	-0.156487	-1.057868	0.682797
H146	H	0.343513	-0.557868	1.182797
H147	H	-0.156482	-1.055638	0.564290
H148	H	0.343518	-0.555638	1.064290
