data_functionalizedCrystal
_audit_creation_method	'MofGen! by Chris Wilmer'
_symmetry_space_group_name_H-M	'P1'
_symmetry_Int_Tables_number	1
_symmetry_cell_setting	triclinic
loop_
_symmetry_equiv_pos_as_xyz
  x,y,z
_cell_length_a	17.699083
_cell_length_b	23.532407
_cell_length_c	16.776229
_cell_angle_alpha	89.988688
_cell_angle_beta	89.998886
_cell_angle_gamma	83.065847
loop_
_atom_site_label
_atom_site_type_symbol
_atom_site_fract_x
_atom_site_fract_y
_atom_site_fract_z
O1	O	1.003713	0.072020	-0.066185
O2	O	0.783287	0.081390	-0.066212
O3	O	0.900147	-0.006208	-0.066183
O4	O	0.886853	0.159617	-0.066214
O5	O	0.900132	-0.006213	0.066394
O6	O	0.783272	0.081384	0.066365
O7	O	1.003698	0.072015	0.066392
Zn8	Zn	0.893482	0.076699	0.087428
Zn9	Zn	0.893503	0.076706	-0.087248
O10	O	0.886838	0.159612	0.066363
C11	C	0.755084	0.081051	0.000073
C12	C	0.671071	0.080044	0.000063
C13	C	0.622189	0.131462	0.000054
C14	C	0.543251	0.130512	0.000065
C15	C	0.513196	0.078144	0.000079
C16	C	0.562084	0.026722	0.000090
C17	C	0.641021	0.027672	0.000086
C18	C	0.243740	0.022888	0.000111
C19	C	0.164797	0.021942	0.000113
C20	C	0.145970	0.125728	0.000090
C21	C	0.224907	0.126678	0.000085
C22	C	0.273788	0.075257	0.000101
C23	C	0.359382	0.076287	0.000091
C24	C	0.427603	0.077113	0.000083
C25	C	0.899801	-0.027427	0.000107
C26	C	0.898783	-0.090647	0.000113
C27	C	0.961554	-0.489570	0.000077
C28	C	0.960609	-0.548973	0.000071
O29	O	1.018799	-0.585550	0.000049
N30	N	0.891136	-0.571799	0.000063
C31	C	0.822604	-0.535218	0.000053
O32	O	0.763424	-0.560088	0.000045
C33	C	0.823550	-0.475816	0.000054
C34	C	0.893028	-0.452994	0.000070
C35	C	1.031026	-0.466747	0.000093
C36	C	1.031972	-0.407348	0.000100
C37	C	0.963445	-0.370772	0.000093
C38	C	0.893973	-0.393595	0.000078
C39	C	0.755019	-0.439237	0.000038
C40	C	0.755971	-0.379832	0.000038
C41	C	0.825448	-0.357009	0.000054
C42	C	0.826391	-0.297620	0.000078
N43	N	0.895864	-0.274795	0.000086
C44	C	0.964391	-0.311371	0.000093
C45	C	0.820622	-0.659966	0.000051
C46	C	0.819674	-0.719367	0.000056
C47	C	0.957680	-0.733118	0.000073
C48	C	0.958626	-0.673716	0.000073
C49	C	0.890095	-0.637141	0.000059
C50	C	0.966371	-0.186628	0.000110
C51	C	0.967310	-0.127223	0.000121
C52	C	0.829305	-0.113478	0.000100
C53	C	0.828365	-0.172877	0.000094
C54	C	0.896904	-0.209452	0.000096
O55	O	0.768232	-0.261008	0.000097
O56	O	1.023560	-0.286493	0.000091
C57	C	1.031901	0.072353	0.000105
C58	C	1.115914	0.073360	0.000110
C59	C	0.887184	0.180832	0.000071
C60	C	0.888202	0.244052	0.000060
N61	N	0.893474	0.076693	0.206639
N62	N	0.893517	0.076706	-0.206459
C63	C	0.945235	0.037921	0.248369
C64	C	0.945239	0.037921	0.331821
C65	C	0.893485	0.076696	0.373542
C66	C	0.841719	0.115470	0.331806
C67	C	0.841712	0.115467	0.248355
C68	C	0.841746	0.115481	0.668353
C69	C	0.841759	0.115482	0.751810
C70	C	0.945274	0.037935	0.751819
C71	C	0.945267	0.037932	0.668368
C72	C	0.893498	0.076704	0.626640
C73	C	0.893493	0.076703	0.536151
C74	C	0.893493	0.076699	0.464029
H75	H	0.503454	0.172382	0.000056
H76	H	1.086833	-0.496522	0.000096
O77	O	1.033561	-0.649101	0.000076
H78	H	1.081049	-0.684520	0.000074
O79	O	0.529674	-0.029763	0.000109
H80	H	0.466571	-0.021787	0.000103
H81	H	0.987387	0.006349	0.365797
H82	H	0.680820	-0.014197	0.000093
H83	H	0.987382	0.006348	0.214405
O84	O	1.042254	-0.102614	0.000131
H85	H	1.045990	-0.075894	0.054173
O86	O	0.746698	-0.620520	0.000058
H87	H	0.713428	-0.628621	-0.053975
O88	O	1.001082	-0.003892	0.623367
H89	H	1.037071	-0.030859	0.666405
H90	H	1.022182	-0.216401	0.000109
O91	O	1.106908	-0.382736	0.000094
H92	H	1.154393	-0.418156	0.000085
O93	O	0.744735	-0.743976	0.000054
H94	H	0.755581	-0.791427	0.000059
O95	O	0.785888	0.157288	0.203340
H96	H	0.749906	0.184256	0.246369
O97	O	0.296458	-0.032571	0.000128
H98	H	0.262294	-0.069143	0.000131
O99	O	1.001107	-0.003892	0.796824
H100	H	0.992415	0.002617	0.861862
H101	H	0.799612	0.147058	0.785777
H102	H	0.799595	0.147051	0.634384
H103	H	0.698442	-0.457808	0.000020
O104	O	0.785899	0.157296	0.376799
H105	H	0.794605	0.150790	0.441838
O106	O	0.257320	0.183163	0.000082
H107	H	0.237648	0.207874	-0.053951
H108	H	0.140330	-0.020705	0.000126
O109	O	0.654605	0.187945	0.000047
H110	H	0.607349	0.223539	0.000052
H111	H	0.700163	-0.350054	0.000025
H112	H	0.773512	-0.083687	0.000097
O113	O	0.093249	0.181193	0.000090
H114	H	0.033309	0.171738	0.000108
O115	O	1.031597	-0.772572	0.000078
H116	H	1.034471	-0.799952	-0.053964
H117	H	0.771791	-0.191460	0.000103
