data_functionalizedCrystal
_audit_creation_method	'MofGen! by Chris Wilmer'
_symmetry_space_group_name_H-M	'P1'
_symmetry_Int_Tables_number	1
_symmetry_cell_setting	triclinic
loop_
_symmetry_equiv_pos_as_xyz
  x,y,z
_cell_length_a	29.839131
_cell_length_b	13.032951
_cell_length_c	13.032268
_cell_angle_alpha	89.114265
_cell_angle_beta	97.140540
_cell_angle_gamma	97.157229
loop_
_atom_site_label
_atom_site_type_symbol
_atom_site_fract_x
_atom_site_fract_y
_atom_site_fract_z
Zn1	Zn	-0.303409	-1.498197	-0.780768
Zn2	Zn	-0.370340	-1.519878	-0.608765
Zn3	Zn	-0.284640	-1.348073	-0.587012
Zn4	Zn	-0.367907	-1.326129	-0.758886
O5	O	-0.331574	-1.423069	-0.683858
O6	O	-0.321161	-1.644985	-0.776213
O7	O	-0.352135	-1.515345	-0.461966
O8	O	-0.224271	-1.368097	-0.612768
O9	O	-0.370334	-1.660914	-0.649843
O10	O	-0.238061	-1.478393	-0.755120
O11	O	-0.289171	-1.389120	-0.445984
O12	O	-0.286812	-1.201250	-0.591549
O13	O	-0.366188	-1.330697	-0.905702
O14	O	-0.347988	-1.185128	-0.717824
O15	O	-0.318802	-1.457114	-0.921779
O16	O	-0.432875	-1.494067	-0.628625
O17	O	-0.431088	-1.351720	-0.738918
C18	C	-0.315100	-1.155874	-0.649952
C19	C	-0.308064	-1.041564	-0.635472
C20	C	-0.335235	-0.982663	-0.691401
C21	C	-0.327964	-0.864517	-0.676436
C22	C	-0.448282	-1.422890	-0.683783
C23	C	-0.498218	-1.422903	-0.683797
C24	C	-0.808804	-1.497296	-0.626539
C25	C	-0.996487	-1.497418	-0.626595
O26	O	-1.021542	-1.560528	-0.577854
N27	N	-1.019033	-1.423273	-0.683962
C28	C	-0.994655	-1.349095	-0.741325
O29	O	-1.018139	-1.286039	-0.790128
C30	C	-0.806974	-1.348979	-0.741274
C31	C	-0.784430	-1.423123	-0.683895
C32	C	-0.786260	-1.571435	-0.569166
C33	C	-0.739342	-1.571400	-0.569148
C34	C	-0.714968	-1.497227	-0.626504
C35	C	-0.737512	-1.423088	-0.683877
C36	C	-0.782598	-1.274807	-0.798641
C37	C	-0.735675	-1.274786	-0.798626
C38	C	-0.713131	-1.348930	-0.741247
C39	C	-0.666219	-1.348880	-0.741214
N40	N	-0.643673	-1.423026	-0.683848
C41	C	-0.668048	-1.497199	-0.626492
C42	C	-1.093191	-1.349160	-0.741346
C43	C	-1.140110	-1.349188	-0.741357
C44	C	-1.141939	-1.497513	-0.626629
C45	C	-1.095018	-1.497479	-0.626612
C46	C	-1.070645	-1.423306	-0.683979
C47	C	-0.569516	-1.497120	-0.626458
C48	C	-0.522593	-1.497076	-0.626442
C49	C	-0.520769	-1.348756	-0.741174
C50	C	-0.567687	-1.348796	-0.741186
C51	C	-0.592060	-1.422987	-0.683826
O52	O	-0.641136	-1.285811	-0.789939
O53	O	-0.644557	-1.560260	-0.577714
C54	C	-0.855722	-1.497331	-0.626557
C55	C	-0.878267	-1.423192	-0.683931
C56	C	-0.853892	-1.349019	-0.741286
C57	C	-0.925186	-1.423220	-0.683942
C58	C	-0.949561	-1.497393	-0.626586
C59	C	-0.927015	-1.571539	-0.569220
C60	C	-0.880097	-1.571504	-0.569202
C61	C	-0.876438	-1.274873	-0.798653
C62	C	-0.923356	-1.274913	-0.798665
C63	C	-0.947731	-1.349087	-0.741310
C64	C	-0.214412	-1.423274	-0.683959
C65	C	-0.164485	-1.423362	-0.684002
C66	C	-0.344317	-1.389039	-0.952099
C67	C	-0.349747	-1.374538	-1.066408
C68	C	-0.348107	-0.691308	-0.717889
C69	C	-0.355139	-0.805618	-0.732373
C70	C	-0.328722	-1.430622	-1.125325
C71	C	-0.334335	-1.415635	-1.243469
C72	C	-0.318851	-1.457026	-0.416667
C73	C	-0.313307	-1.471726	-0.302384
H74	H	-0.299315	-0.827481	-0.617475
O75	O	-0.360828	-1.345254	-1.287687
C76	C	-0.396373	-1.395928	-1.357251
H77	H	-0.402610	-1.481005	-1.335089
H78	H	-0.428712	-1.358510	-1.353825
H79	H	-0.386541	-1.389243	-1.439089
O80	O	-0.273835	-0.997412	-0.565243
C81	C	-0.231753	-1.020792	-0.591181
H82	H	-0.235250	-1.039994	-0.677071
H83	H	-0.204820	-0.951231	-0.573529
H84	H	-0.221159	-1.090056	-0.543918
O85	O	-0.497079	-1.276845	-0.797018
C86	C	-0.476657	-1.326916	-0.870872
H87	H	-0.496061	-1.407099	-0.887564
H88	H	-0.477584	-1.279631	-0.945266
H89	H	-0.439812	-1.334505	-0.839511
O90	O	-1.069457	-1.277066	-0.796919
C91	C	-1.035488	-1.218090	-0.729881
H92	H	-1.026989	-1.264307	-0.656588
H93	H	-1.003634	-1.198928	-0.770003
H94	H	-1.048374	-1.143347	-0.708846
H95	H	-0.586044	-1.288424	-0.787912
O96	O	-0.389273	-0.849723	-0.802864
C97	C	-0.382804	-0.810550	-0.902111
H98	H	-0.345366	-0.780324	-0.903737
H99	H	-0.393442	-0.874805	-0.961797
H100	H	-0.404373	-0.744848	-0.921053
O101	O	-0.500768	-1.569206	-0.570683
C102	C	-0.532345	-1.634664	-0.520047
H103	H	-0.568001	-1.632867	-0.562638
H104	H	-0.523230	-1.717075	-0.519419
H105	H	-0.531338	-1.606983	-0.437142
O106	O	-0.369357	-1.026949	-0.761809
C107	C	-0.350783	-1.080676	-0.836174
H108	H	-0.315975	-1.101281	-0.802061
H109	H	-0.374359	-1.154504	-0.859381
H110	H	-0.346997	-1.029689	-0.907213
H111	H	-0.291148	-1.530836	-1.265365
O112	O	-0.593230	-1.569055	-0.570683
C113	C	-0.613642	-1.519028	-0.496779
H114	H	-0.617617	-1.436472	-0.523084
H115	H	-0.648548	-1.562704	-0.488371
H116	H	-0.591266	-1.517456	-0.419121
O117	O	-0.804483	-1.202876	-0.854548
C118	C	-0.799223	-1.212259	-0.959893
H119	H	-0.791604	-1.293744	-0.975555
H120	H	-0.831936	-1.196930	-1.009591
H121	H	-0.769878	-1.153693	-0.979719
O122	O	-0.376239	-1.304082	-1.110459
C123	C	-0.421162	-1.329794	-1.087119
H124	H	-0.420851	-1.379153	-1.014111
H125	H	-0.436561	-1.255988	-1.074117
H126	H	-0.442401	-1.375028	-1.154255
H127	H	-0.720990	-1.631777	-0.522429
O128	O	-0.858241	-1.643501	-0.513319
C129	C	-0.863478	-1.634104	-0.407963
H130	H	-0.895021	-1.594857	-0.400801
H131	H	-0.867453	-1.714207	-0.371336
H132	H	-0.832194	-1.585653	-0.366560
O133	O	-0.809861	-1.643536	-0.513350
C134	C	-0.779894	-1.708973	-0.462739
H135	H	-0.743703	-1.667277	-0.453809
H136	H	-0.790281	-1.730293	-0.383116
H137	H	-0.781467	-1.782262	-0.510364
H138	H	-1.076665	-1.557854	-0.579890
O139	O	-1.165646	-1.569713	-0.571117
C140	C	-1.199612	-1.628626	-0.638215
H141	H	-1.189682	-1.624529	-0.720003
H142	H	-1.203216	-1.712538	-0.611213
H143	H	-1.233403	-1.596453	-0.637688
O144	O	-1.161999	-1.277249	-0.797248
C145	C	-1.156745	-1.286617	-0.902597
H146	H	-1.149125	-1.368098	-0.918272
H147	H	-1.189460	-1.271286	-0.952284
H148	H	-1.127403	-1.228044	-0.922424
O149	O	-0.711941	-1.202697	-0.854204
C150	C	-0.677974	-1.143710	-0.787172
H151	H	-0.669475	-1.189917	-0.713871
H152	H	-0.646119	-1.124554	-0.827293
H153	H	-0.690860	-1.068964	-0.766149
O154	O	-0.950727	-1.643706	-0.513682
C155	C	-0.984702	-1.702632	-0.580748
H156	H	-0.974774	-1.698594	-0.662538
H157	H	-0.988317	-1.786529	-0.553698
H158	H	-1.018487	-1.670426	-0.580240
O159	O	-0.945186	-1.202837	-0.854499
C160	C	-0.913603	-1.137354	-0.905096
H161	H	-0.882903	-1.179000	-0.914008
H162	H	-0.930315	-1.116056	-0.984726
H163	H	-0.902053	-1.064057	-0.857469
O164	O	-0.852704	-1.202782	-0.854217
C165	C	-0.818739	-1.143803	-0.787173
H166	H	-0.810241	-1.190020	-0.713879
H167	H	-0.786883	-1.124637	-0.827289
H168	H	-0.831627	-1.069062	-0.766140
H169	H	-0.306566	-1.489728	-1.088300
