data_functionalizedCrystal
_audit_creation_method	'MofGen! by Chris Wilmer'
_symmetry_space_group_name_H-M	'P1'
_symmetry_Int_Tables_number	1
_symmetry_cell_setting	triclinic
loop_
_symmetry_equiv_pos_as_xyz
  x,y,z
_cell_length_a	19.077409
_cell_length_b	17.640280
_cell_length_c	19.076919
_cell_angle_alpha	81.491119
_cell_angle_beta	94.476475
_cell_angle_gamma	81.515672
loop_
_atom_site_label
_atom_site_type_symbol
_atom_site_fract_x
_atom_site_fract_y
_atom_site_fract_z
Zn1	Zn	1.113878	-0.278068	-0.303365
Zn2	Zn	1.141913	-0.402605	-0.162158
Zn3	Zn	1.000738	-0.278094	-0.190208
Zn4	Zn	1.021377	-0.413444	-0.282690
O5	O	1.069476	-0.343053	-0.234605
O6	O	1.215391	-0.290041	-0.281547
O7	O	1.126281	-0.381563	-0.068080
O8	O	0.995375	-0.169326	-0.225611
O9	O	1.235988	-0.381538	-0.177803
O10	O	1.078499	-0.169307	-0.308746
O11	O	1.022560	-0.290085	-0.088688
O12	O	0.905681	-0.300595	-0.205563
O13	O	1.030552	-0.400011	-0.383232
O14	O	0.920845	-0.400036	-0.273509
O15	O	1.098512	-0.300551	-0.398422
O16	O	1.146294	-0.512807	-0.157755
O17	O	1.057737	-0.520770	-0.246310
C18	C	0.887906	-0.351495	-0.240337
C19	C	0.810232	-0.355126	-0.242802
C20	C	0.373857	-0.381109	-0.260526
C21	C	0.446841	-0.377703	-0.258195
C22	C	0.475398	-0.324149	-0.221744
C23	C	0.430968	-0.274004	-0.187614
C24	C	0.357986	-0.277415	-0.189940
C25	C	0.692820	-0.308392	-0.210998
C26	C	0.765807	-0.304983	-0.208676
C27	C	0.781676	-0.408683	-0.279257
C28	C	0.708691	-0.412086	-0.281584
C29	C	0.664268	-0.361944	-0.247451
N30	N	0.549999	-0.320664	-0.219363
N31	N	0.589669	-0.365433	-0.249828
C32	C	1.107316	-0.544990	-0.196760
C33	C	1.123567	-0.631377	-0.180591
C34	C	0.946297	-0.936359	-0.357686
C35	C	0.961569	-1.017532	-0.342470
C36	C	1.053837	-1.009177	-0.250347
C37	C	1.038575	-0.928001	-0.265557
C38	C	0.984803	-0.891599	-0.319227
C39	C	1.077081	-0.883241	-0.227099
C40	C	1.061817	-0.802072	-0.242305
C41	C	1.008047	-0.765664	-0.295971
C42	C	0.969539	-0.810430	-0.334434
C43	C	1.130849	-0.919644	-0.173426
C44	C	1.169355	-0.874884	-0.134967
C45	C	1.154095	-0.793714	-0.150177
C46	C	1.100324	-0.757306	-0.203843
C47	C	1.192602	-0.748948	-0.111714
C48	C	1.177338	-0.667779	-0.126921
C49	C	1.085060	-0.676138	-0.219049
C50	C	1.251756	-0.334578	-0.228852
C51	C	1.329432	-0.330967	-0.226400
C52	C	1.063707	-0.351487	-0.416894
C53	C	1.061248	-0.355081	-0.494575
C54	C	1.031507	-0.140327	-0.272613
C55	C	1.015327	-0.053937	-0.288810
C56	C	1.095474	-0.304989	-0.538978
C57	C	1.093155	-0.308363	-0.611969
C58	C	1.056613	-0.361835	-0.640553
C59	C	1.022383	-0.411930	-0.596143
C60	C	1.024698	-0.408551	-0.523156
C61	C	1.045891	-0.377490	-0.857995
C62	C	1.043580	-0.380866	-0.930988
C63	C	1.114351	-0.277298	-0.946808
C64	C	1.116667	-0.273927	-0.873817
C65	C	1.082433	-0.324019	-0.829415
N66	N	1.054244	-0.365287	-0.715159
N67	N	1.084799	-0.320563	-0.754811
C68	C	1.075253	-0.334593	-0.053035
C69	C	1.077806	-0.330774	0.024609
H70	H	1.041279	-0.646498	-0.262758
H71	H	0.350611	-0.424714	-0.290213
N72	N	1.134896	-0.247320	-0.508154
H73	H	1.174160	-0.276005	-0.470934
H74	H	1.156179	-0.216119	-0.547408
H75	H	1.236378	-0.778599	-0.068012
H76	H	1.097616	-1.038827	-0.206647
N77	N	0.987782	-0.462585	-0.475267
H78	H	1.023886	-0.495882	-0.437334
H79	H	0.950437	-0.431049	-0.451979
H80	H	1.018028	-0.418289	-0.821848
N81	N	0.829588	-0.462771	-0.316062
H82	H	0.852946	-0.431333	-0.353441
H83	H	0.867458	-0.495996	-0.279851
H84	H	1.013821	-0.424411	-0.954258
N85	N	0.310072	-0.223337	-0.153126
H86	H	0.286726	-0.254789	-0.115746
H87	H	0.339284	-0.188908	-0.129724
H88	H	1.146425	-0.230387	-0.850550
N89	N	0.494753	-0.431775	-0.295016
H90	H	0.545320	-0.421490	-0.288012
H91	H	0.492742	-0.487356	-0.274070
H92	H	0.685447	-0.455697	-0.311265
H93	H	0.992627	-0.455465	-0.619423
H94	H	1.208694	-0.631335	-0.095603
H95	H	1.121028	-0.267574	-0.648119
N96	N	0.796611	-0.247222	-0.169356
H97	H	0.757395	-0.215976	-0.148083
H98	H	0.833828	-0.275895	-0.130087
N99	N	0.644912	-0.254312	-0.174186
H100	H	0.674079	-0.219868	-0.150744
H101	H	0.607004	-0.221127	-0.210383
H102	H	1.143276	-0.985737	-0.161048
N103	N	1.227341	-0.914148	-0.077075
H104	H	1.231167	-0.972361	-0.073274
H105	H	1.274223	-0.898101	-0.089084
H106	H	0.930217	-1.053974	-0.373800
N107	N	0.461765	-0.216246	-0.148293
H108	H	0.514740	-0.221691	-0.151998
H109	H	0.438261	-0.161860	-0.170060
N110	N	1.151271	-0.223272	-0.994698
H111	H	1.144261	-0.233523	-1.045273
H112	H	1.130401	-0.167678	-0.992689
H113	H	0.995615	-0.699571	-0.308347
H114	H	0.902516	-0.906719	-0.401394
N115	N	0.911552	-0.771159	-0.392329
H116	H	0.889474	-0.811829	-0.414391
H117	H	0.873808	-0.737701	-0.371179
