data_functionalizedCrystal
_audit_creation_method	'MofGen! by Chris Wilmer'
_symmetry_space_group_name_H-M	'P1'
_symmetry_Int_Tables_number	1
_symmetry_cell_setting	triclinic
loop_
_symmetry_equiv_pos_as_xyz
  x,y,z
_cell_length_a	11.026607
_cell_length_b	11.295501
_cell_length_c	11.026607
_cell_angle_alpha	86.405476
_cell_angle_beta	71.413983
_cell_angle_gamma	93.596246
loop_
_atom_site_label
_atom_site_type_symbol
_atom_site_fract_x
_atom_site_fract_y
_atom_site_fract_z
O1	O	1.736063	0.099022	-0.542952
O2	O	1.369483	0.099024	-0.482189
O3	O	1.522391	0.099019	-0.329280
O4	O	1.583155	0.099028	-0.695861
O5	O	1.503713	-0.099032	-0.310613
O6	O	1.350805	-0.099027	-0.463521
O7	O	1.717385	-0.099028	-0.524285
Cu8	Cu	1.532390	-0.117111	-0.492198
Cu9	Cu	1.554478	0.117107	-0.514275
O10	O	1.564478	-0.099023	-0.677193
C11	C	1.312485	-0.000001	-0.461645
C12	C	1.170471	-0.000000	-0.428228
C13	C	1.116822	0.000003	-0.520498
C14	C	0.970043	0.000004	-0.485963
N15	N	1.516863	-0.281848	-0.476672
C16	C	1.681782	-0.531136	-0.641619
C17	C	1.670056	-0.655799	-0.629878
C18	C	1.481691	-0.655841	-0.441442
C19	C	1.493417	-0.531177	-0.453184
C20	C	1.593465	-0.468829	-0.553277
C21	C	1.605185	-0.344163	-0.565023
C22	C	1.416826	-0.344207	-0.376583
C23	C	1.405100	-0.468871	-0.364842
C24	C	1.774384	-0.000001	-0.544828
C25	C	1.916398	0.000006	-0.578246
C26	C	1.501842	-0.000005	-0.272287
C27	C	1.468426	-0.000000	-0.130273
N28	N	1.570013	0.281843	-0.529794
C29	C	1.585026	0.000003	-0.734187
C30	C	1.618443	0.000007	-0.876201
C31	C	1.560695	0.000001	-0.076624
C32	C	1.526160	0.000005	0.070154
H33	H	1.107740	0.000028	-0.323668
C34	C	1.757925	0.000248	0.040214
C35	C	1.827989	0.102155	0.056811
C36	C	1.956476	0.102425	-0.020178
H37	H	1.792810	-0.068736	0.064278
H38	H	1.762672	0.000310	-0.047346
H39	H	1.823250	0.102082	0.144352
H40	H	1.793144	0.171156	0.032738
H41	H	1.961223	0.102488	-0.107738
H42	H	1.991349	0.033437	0.003893
H43	H	2.004028	0.171573	-0.008936
H44	H	1.686644	-0.293401	-0.646528
H45	H	1.763235	-0.480371	-0.723129
C46	C	1.200232	-0.000054	-0.659997
C47	C	1.122289	-0.000079	-0.738427
C48	C	1.199077	-0.000146	-0.866941
H49	H	1.259242	0.068991	-0.683554
H50	H	1.246170	-0.069147	-0.670419
H51	H	1.076374	0.069008	-0.728012
H52	H	1.063281	-0.069119	-0.714911
H53	H	1.245014	-0.069240	-0.877363
H54	H	1.258084	0.068900	-0.890485
H55	H	1.146204	-0.000175	-0.920171
C56	C	1.296528	-0.536780	-0.256301
C57	C	1.305072	-0.659293	-0.264999
C58	C	1.205063	-0.721882	-0.165044
H59	H	1.303016	-0.516542	-0.176138
H60	H	1.216396	-0.516382	-0.262776
H61	H	1.385185	-0.679683	-0.258513
H62	H	1.298569	-0.679566	-0.345140
H63	H	1.124930	-0.701484	-0.171519
H64	H	1.211559	-0.701635	-0.084888
H65	H	1.210839	-0.805014	-0.170939
H66	H	0.979125	0.000001	-0.682816
C67	C	1.766033	-0.723233	-0.725962
C68	C	1.856137	-0.641943	-0.816144
C69	C	1.944565	-0.704018	-0.904688
H70	H	1.808837	-0.771860	-0.682162
H71	H	1.722088	-0.771845	-0.768671
H72	H	1.900078	-0.593351	-0.773440
H73	H	1.813370	-0.593313	-0.859975
H74	H	1.900619	-0.752630	-0.947397
H75	H	1.987359	-0.752643	-0.860878
H76	H	2.005703	-0.648872	-0.965894
H77	H	1.400248	-0.706627	-0.359941
H78	H	1.665258	-0.000007	-0.139357
C79	C	1.320726	-0.276634	-0.280774
C80	C	1.197145	-0.306982	-0.284990
C81	C	1.108581	-0.244751	-0.196766
H82	H	1.323260	-0.297014	-0.196772
H83	H	1.341937	-0.193444	-0.302089
H84	H	1.175940	-0.390152	-0.263667
H85	H	1.194570	-0.286599	-0.368971
H86	H	1.129793	-0.161562	-0.218082
H87	H	1.111126	-0.265136	-0.112771
H88	H	1.024724	-0.265325	-0.199623
H89	H	1.421591	0.000014	0.132882
C90	C	1.328999	0.000250	-0.046726
C91	C	1.278159	0.102157	-0.082544
C92	C	1.149726	0.102437	-0.005601
H93	H	1.281097	-0.068734	-0.057773
H94	H	1.324270	0.000318	0.040820
H95	H	1.282879	0.102078	-0.170069
H96	H	1.326025	0.171158	-0.071492
H97	H	1.144997	0.102505	0.081945
H98	H	1.101836	0.033448	-0.016655
H99	H	1.115218	0.171585	-0.029885
H100	H	0.907317	0.000032	-0.381396
