data_functionalizedCrystal
_audit_creation_method	'MofGen! by Chris Wilmer'
_symmetry_space_group_name_H-M	'P1'
_symmetry_Int_Tables_number	1
_symmetry_cell_setting	triclinic
loop_
_symmetry_equiv_pos_as_xyz
  x,y,z
_cell_length_a	17.038272
_cell_length_b	15.944551
_cell_length_c	14.421503
_cell_angle_alpha	89.996660
_cell_angle_beta	89.997443
_cell_angle_gamma	92.694853
loop_
_atom_site_label
_atom_site_type_symbol
_atom_site_fract_x
_atom_site_fract_y
_atom_site_fract_z
O1	O	1.037426	-0.182391	-0.076999
O2	O	1.537426	0.317609	0.423001
O3	O	0.809794	-0.179495	-0.077027
O4	O	1.309794	0.320505	0.422973
O5	O	0.929826	-0.059112	-0.077004
O6	O	1.429826	0.440888	0.422996
O7	O	0.917394	-0.302774	-0.077022
O8	O	1.417394	0.197226	0.422978
O9	O	0.929806	-0.059130	0.077220
O10	O	1.429806	0.440870	0.577220
O11	O	0.809774	-0.179512	0.077197
O12	O	1.309774	0.320488	0.577197
O13	O	1.037406	-0.182409	0.077224
O14	O	1.537406	0.317591	0.577224
Cu15	Cu	0.923588	-0.180962	0.091292
Cu16	Cu	1.423588	0.319038	0.591292
Cu17	Cu	0.923612	-0.180941	-0.091095
Cu18	Cu	1.423612	0.319059	0.408905
O19	O	0.917374	-0.302792	0.077201
O20	O	1.417374	0.197208	0.577201
C21	C	0.929300	-0.027790	0.000108
C22	C	1.429300	0.472210	0.500108
C23	C	0.927753	0.065567	0.000108
C24	C	1.427753	0.565567	0.500108
C25	C	0.780655	-0.176869	0.000082
C26	C	1.280655	0.323131	0.500082
C27	C	0.693860	-0.169010	0.000072
C28	C	1.193860	0.330990	0.500072
N29	N	0.923577	-0.180977	0.219574
N30	N	1.423577	0.319023	0.719574
C31	C	0.643767	-0.241168	0.000067
C32	C	1.143767	0.258832	0.500067
C33	C	0.562214	-0.233778	0.000080
C34	C	1.062214	0.266222	0.500080
C35	C	0.530756	-0.154230	0.000092
C36	C	1.030756	0.345770	0.500092
C37	C	0.580855	-0.082067	0.000099
C38	C	1.080855	0.417933	0.500099
C39	C	0.662406	-0.089457	0.000092
C40	C	1.162406	0.410543	0.500092
C41	C	0.284990	-0.128121	0.000118
C42	C	0.784990	0.371879	0.500118
C43	C	0.203433	-0.120736	0.000122
C44	C	0.703433	0.379264	0.500122
C45	C	0.184797	-0.272448	0.000105
C46	C	0.684797	0.227552	0.500105
C47	C	0.266351	-0.279831	0.000093
C48	C	0.766351	0.220169	0.500093
C49	C	0.316443	-0.207668	0.000105
C50	C	0.816443	0.292332	0.500105
C51	C	0.447396	-0.146675	0.000102
C52	C	0.947396	0.353325	0.500102
C53	C	0.399801	-0.215224	0.000101
C54	C	0.899801	0.284776	0.500101
C55	C	1.066545	-0.185034	0.000114
C56	C	1.566545	0.314966	0.500114
C57	C	1.153340	-0.192893	0.000118
C58	C	1.653340	0.307107	0.500118
C59	C	0.917900	-0.334114	0.000088
C60	C	1.417900	0.165886	0.500088
C61	C	0.919447	-0.427470	0.000081
C62	C	1.419447	0.072530	0.500081
C63	C	0.849653	0.286000	0.000086
C64	C	1.349653	0.786000	0.500086
C65	C	0.885910	0.344419	0.076132
C66	C	1.385910	0.844419	0.576132
C67	C	0.924953	0.236492	0.000101
C68	C	1.424953	0.736492	0.500101
C69	C	0.885947	0.344418	-0.075920
C70	C	1.385947	0.844418	0.424080
C71	C	0.922244	0.401598	0.000090
C72	C	1.422244	0.901598	0.500090
C73	C	0.961231	0.293682	0.076209
C74	C	1.461231	0.793682	0.576209
C75	C	0.961258	0.293676	-0.075911
C76	C	1.461258	0.793676	0.424089
C77	C	0.997570	0.352073	0.000153
C78	C	1.497570	0.852073	0.500153
C79	C	0.926512	0.141379	0.000108
C80	C	1.426512	0.641379	0.500108
C81	C	0.920691	0.496710	0.000089
C82	C	1.420691	0.996710	0.500089
N83	N	0.923629	-0.180920	-0.219376
N84	N	1.423629	0.319080	0.280624
C85	C	0.868065	-0.236614	0.469217
C86	C	1.368065	0.263386	0.969217
C87	C	0.938714	-0.257966	0.531027
C88	C	1.438714	0.242034	1.031027
C89	C	0.923596	-0.180958	0.408735
C90	C	1.423596	0.319042	0.908735
C91	C	0.852965	-0.159628	0.531019
C92	C	1.352965	0.340372	1.031019
C93	C	0.923608	-0.180942	0.591456
C94	C	1.423608	0.319058	1.091456
C95	C	0.994281	-0.202350	0.469184
C96	C	1.494281	0.297650	0.969184
C97	C	0.908486	-0.103975	0.469171
C98	C	1.408486	0.396025	0.969171
C99	C	0.979186	-0.125298	0.530953
C100	C	1.479186	0.374702	1.030953
C101	C	0.923588	-0.180970	0.303474
C102	C	1.423588	0.319030	0.803474
C103	C	0.923625	-0.180930	0.696715
C104	C	1.423625	0.319070	1.196715
H105	H	0.669373	-0.305944	0.000057
H106	H	1.169373	0.194056	0.500057
H107	H	0.421774	-0.081906	0.000138
H108	H	0.921774	0.418094	0.500138
C109	C	1.074995	-0.226826	0.432653
C110	C	1.574995	0.273174	0.932653
H111	H	1.074489	-0.226713	0.366780
H112	H	1.574489	0.273287	0.866780
H113	H	1.114464	-0.187539	0.454283
H114	H	1.614464	0.312461	0.954283
H115	H	1.085817	-0.281342	0.454348
H116	H	1.585817	0.218658	0.954348
H117	H	0.325766	-0.069360	0.000129
H118	H	0.825766	0.430640	0.500129
C119	C	0.842880	0.374653	0.162971
C120	C	1.342880	0.874653	0.662971
H121	H	0.877727	0.409834	0.198777
H122	H	1.377727	0.909834	0.698777
H123	H	0.798940	0.405251	0.144690
H124	H	1.298940	0.905251	0.644690
H125	H	0.825435	0.327519	0.199029
H126	H	1.325435	0.827519	0.699029
C127	C	1.042698	-0.061710	0.567353
C128	C	1.542698	0.438290	1.067353
H129	H	1.092823	-0.076994	0.546066
H130	H	1.592823	0.423006	1.046066
H131	H	1.032387	-0.007198	0.545238
H132	H	1.532387	0.492802	1.045238
H133	H	1.042077	-0.061724	0.633223
H134	H	1.542077	0.438276	1.133223
C135	C	0.891180	-0.016065	0.432426
C136	C	1.391180	0.483935	0.932426
H137	H	0.934294	0.005017	0.396181
H138	H	1.434294	0.505017	0.896181
H139	H	0.845118	-0.019594	0.395254
H140	H	1.345118	0.480406	0.895254
H141	H	0.883458	0.020621	0.483180
H142	H	1.383458	0.520621	0.983180
C143	C	0.546253	0.005434	0.000110
C144	C	1.046253	0.505434	0.500110
H145	H	0.490510	-0.000498	0.000103
H146	H	0.990510	0.499502	0.500103
H147	H	0.563446	0.035385	0.053892
H148	H	1.063446	0.535385	0.553892
H149	H	0.563449	0.035394	-0.053677
H150	H	1.063449	0.535394	0.446323
C151	C	0.765218	0.247035	0.000163
C152	C	1.265218	0.747035	0.500163
H153	H	0.757133	0.213693	-0.053895
H154	H	1.257133	0.713693	0.446105
H155	H	0.757490	0.212894	0.053672
H156	H	1.257490	0.712894	0.553672
H157	H	0.728939	0.290490	0.000744
H158	H	1.228939	0.790490	0.500744
H159	H	0.703192	-0.030699	0.000096
H160	H	1.203192	0.469301	0.500096
H161	H	0.425418	-0.279992	0.000097
H162	H	0.925418	0.220008	0.500097
H163	H	0.177823	-0.055955	0.000131
H164	H	0.677823	0.444045	0.500131
C165	C	1.082074	0.390844	0.000220
C166	C	1.582074	0.890844	0.500220
H167	H	1.108686	0.373425	0.054288
H168	H	1.608686	0.873425	0.554288
H169	H	1.109028	0.372702	-0.053280
H170	H	1.609028	0.872702	0.446720
H171	H	1.080638	0.450332	-0.000285
H172	H	1.580638	0.950332	0.499715
H173	H	0.793229	-0.141594	0.558183
H174	H	1.293229	0.358406	1.058183
C175	C	1.004203	0.263604	0.163161
C176	C	1.504203	0.763604	0.663161
H177	H	1.004895	0.204061	0.162652
H178	H	1.504895	0.704061	0.662652
H179	H	1.056589	0.286792	0.163391
H180	H	1.556589	0.786792	0.663391
H181	H	0.977618	0.281389	0.217088
H182	H	1.477618	0.781389	0.717088
C183	C	1.004255	0.263412	-0.162753
C184	C	1.504255	0.763412	0.337247
H185	H	0.977431	0.280677	-0.216736
H186	H	1.477431	0.780677	0.283264
H187	H	1.056507	0.286977	-0.163294
H188	H	1.556507	0.786977	0.336706
H189	H	1.005336	0.203902	-0.161817
H190	H	1.505336	0.703902	0.338183
C191	C	0.955999	-0.345899	0.567738
C192	C	1.455999	0.154101	1.067738
H193	H	1.002611	-0.342573	0.603965
H194	H	1.502611	0.157427	1.103965
H195	H	0.913308	-0.366542	0.604920
H196	H	1.413308	0.133458	1.104920
H197	H	0.962753	-0.382829	0.516967
H198	H	1.462753	0.117171	1.016967
H199	H	0.854097	0.366777	-0.140216
H200	H	1.354097	0.866777	0.359784
H201	H	0.821151	-0.283725	0.442110
H202	H	1.321151	0.216275	0.942110
H203	H	0.291958	-0.344607	0.000073
H204	H	0.791958	0.155393	0.500073
C205	C	0.129696	-0.351819	0.000104
C206	C	0.629696	0.148181	0.500104
H207	H	0.076621	-0.336028	0.000117
H208	H	0.576621	0.163972	0.500117
H209	H	0.139230	-0.384194	-0.053679
H210	H	0.639230	0.115806	0.446321
H211	H	0.139235	-0.384199	0.053890
H212	H	0.639235	0.115801	0.553890
C213	C	0.507115	-0.313152	0.000072
C214	C	1.007115	0.186848	0.500072
H215	H	0.537531	-0.361585	0.000053
H216	H	1.037531	0.138415	0.500053
H217	H	0.474916	-0.313434	0.053856
H218	H	0.974916	0.186566	0.553856
H219	H	0.474914	-0.313412	-0.053713
H220	H	0.974914	0.186588	0.446287
