data_functionalizedCrystal
_audit_creation_method	'MofGen! by Chris Wilmer'
_symmetry_space_group_name_H-M	'P1'
_symmetry_Int_Tables_number	1
_symmetry_cell_setting	triclinic
loop_
_symmetry_equiv_pos_as_xyz
  x,y,z
_cell_length_a	10.723024
_cell_length_b	10.723024
_cell_length_c	22.010155
_cell_angle_alpha	90.000463
_cell_angle_beta	90.018448
_cell_angle_gamma	84.467869
loop_
_atom_site_label
_atom_site_type_symbol
_atom_site_fract_x
_atom_site_fract_y
_atom_site_fract_z
O1	O	0.175055	1.657179	0.050520
O2	O	0.191808	1.294027	0.050521
O3	O	0.001856	1.483980	0.050518
O4	O	0.365008	1.467226	0.050523
O5	O	0.001794	1.483982	-0.050532
O6	O	0.191747	1.294029	-0.050529
O7	O	0.174993	1.657181	-0.050531
Cu8	Cu	0.183364	1.475605	-0.059757
Cu9	Cu	0.183437	1.475603	0.059747
O10	O	0.364946	1.467229	-0.050528
C11	C	0.190558	1.247528	-0.000003
C12	C	0.186911	1.108974	-0.000003
C13	C	0.293198	1.033991	-0.000001
C14	C	0.289431	0.890788	-0.000000
C15	C	-0.044675	1.482762	-0.000006
C16	C	-0.183229	1.479114	-0.000004
C17	C	-0.258212	1.585401	-0.000004
C18	C	-0.401415	1.581634	-0.000002
C19	C	0.411477	1.468447	-0.000002
C20	C	0.550031	1.472094	0.000000
C21	C	0.176243	1.703680	-0.000005
C22	C	0.179891	1.842234	-0.000001
N23	N	0.183480	1.475602	0.143800
C24	C	0.106830	1.399441	0.563578
C25	C	0.106816	1.399444	0.627186
O26	O	0.041689	1.334702	0.660077
N27	N	0.183352	1.475608	0.659007
C28	C	0.259898	1.551784	0.627217
O29	O	0.324996	1.616568	0.660124
C30	C	0.259905	1.551787	0.563610
C31	C	0.183373	1.475609	0.531793
C32	C	0.030304	1.323270	0.531761
C33	C	0.030320	1.323267	0.468157
C34	C	0.106863	1.399434	0.436372
C35	C	0.183389	1.475605	0.468190
C36	C	0.336443	1.627969	0.531821
C37	C	0.336442	1.627967	0.468211
C38	C	0.259911	1.551789	0.436393
C39	C	0.259948	1.551769	0.372801
N40	N	0.183412	1.475605	0.340980
C41	C	0.106869	1.399438	0.372765
C42	C	0.259877	1.551772	0.760795
C43	C	0.259877	1.551763	0.824400
C44	C	0.106794	1.399424	0.824365
C45	C	0.106800	1.399428	0.760758
C46	C	0.183341	1.475608	0.728974
C47	C	0.106910	1.399435	0.239194
C48	C	0.106937	1.399434	0.175585
C49	C	0.260015	1.551777	0.175626
C50	C	0.259994	1.551774	0.239229
C51	C	0.183431	1.475599	0.271012
O52	O	0.325039	1.616482	0.339870
O53	O	0.041771	1.334676	0.339851
N54	N	0.183329	1.475600	0.856191
H55	H	-0.216390	1.679187	-0.000008
N56	N	-0.235658	1.361442	0.000002
N57	N	-0.211869	1.285765	0.042597
H58	H	-0.248892	1.202654	0.042601
H59	H	-0.465848	1.672624	-0.000004
N60	N	0.338155	1.629613	0.271724
N61	N	0.406473	1.697632	0.243334
H62	H	0.461656	1.752629	0.266279
H63	H	0.044481	1.337396	0.734856
H64	H	0.088896	0.906659	0.000001
N65	N	0.338193	1.629598	0.143161
N66	N	0.406515	1.697615	0.171571
H67	H	0.461723	1.752585	0.148642
N68	N	0.069249	1.056524	-0.000018
N69	N	0.042069	0.986945	-0.042616
H70	H	-0.041033	0.949905	-0.042629
H71	H	0.044468	1.337404	0.850256
N72	N	0.338060	1.629586	0.856887
N73	N	0.324398	1.745752	0.849773
H74	H	0.379612	1.800724	0.872715
N75	N	0.410848	1.086464	-0.000006
N76	N	0.413742	1.202718	-0.000010
H77	H	0.496835	1.239777	-0.000014
N78	N	0.028758	1.321601	0.143095
N79	N	-0.039577	1.253602	0.171487
H80	H	-0.094791	1.198633	0.148543
N81	N	0.403586	0.809970	-0.000012
N82	N	0.479985	0.815106	-0.042610
H83	H	0.560612	0.758025	-0.042620
H84	H	-0.385544	1.381099	-0.000004
N85	N	0.028677	1.321638	0.271643
N86	N	-0.039650	1.253651	0.243217
H87	H	-0.094905	1.198708	0.266134
N88	N	-0.047866	1.245447	0.435671
N89	N	-0.116199	1.177455	0.464069
H90	H	-0.171426	1.122493	0.441129
H91	H	-0.032033	1.261245	0.557634
H92	H	0.322216	1.613804	0.734920
N93	N	0.414649	1.705771	0.564302
N94	N	0.482983	1.773759	0.535903
H95	H	0.538228	1.828706	0.558841
H96	H	0.398770	1.690006	0.442335
