data_functionalizedCrystal
_audit_creation_method	'MofGen! by Chris Wilmer'
_symmetry_space_group_name_H-M	'P1'
_symmetry_Int_Tables_number	1
_symmetry_cell_setting	triclinic
loop_
_symmetry_equiv_pos_as_xyz
  x,y,z
_cell_length_a	16.959455
_cell_length_b	16.959453
_cell_length_c	16.959447
_cell_angle_alpha	90.028432
_cell_angle_beta	90.015720
_cell_angle_gamma	90.024590
loop_
_atom_site_label
_atom_site_type_symbol
_atom_site_fract_x
_atom_site_fract_y
_atom_site_fract_z
Zn1	Zn	-1.208351	0.314695	-0.446949
Zn2	Zn	-0.875018	0.648029	-0.113615
Zn3	Zn	-0.541685	0.981362	0.219718
Zn4	Zn	-1.208260	0.446888	-0.314774
Zn5	Zn	-0.874927	0.780221	0.018559
Zn6	Zn	-0.541594	1.113554	0.351892
Zn7	Zn	-1.076180	0.314724	-0.314783
Zn8	Zn	-0.742846	0.648057	0.018551
Zn9	Zn	-0.409513	0.981391	0.351884
Zn10	Zn	-1.076131	0.446832	-0.446910
Zn11	Zn	-0.742798	0.780166	-0.113576
Zn12	Zn	-0.409464	1.113499	0.219757
O13	O	-1.142231	0.380785	-0.380854
O14	O	-0.808897	0.714118	-0.047521
O15	O	-0.475564	1.047451	0.285813
O16	O	-1.318950	0.332242	-0.429428
O17	O	-0.985617	0.665575	-0.096095
O18	O	-0.652283	0.998909	0.237239
O19	O	-1.190722	0.429391	-0.204165
O20	O	-0.857389	0.762724	0.129169
O21	O	-0.524055	1.096058	0.462502
O22	O	-1.093771	0.204109	-0.332335
O23	O	-0.760438	0.537442	0.000999
O24	O	-0.427105	0.870776	0.334332
O25	O	-1.318883	0.429363	-0.332320
O26	O	-0.985550	0.762696	0.001013
O27	O	-0.652217	1.096030	0.334346
O28	O	-1.190877	0.204088	-0.429436
O29	O	-0.857544	0.537421	-0.096103
O30	O	-0.524210	0.870755	0.237230
O31	O	-1.093683	0.332291	-0.204171
O32	O	-0.760350	0.665624	0.129163
O33	O	-0.427016	0.998957	0.462496
O34	O	-0.965562	0.332237	-0.332297
O35	O	-0.632229	0.665571	0.001036
O36	O	-0.298896	0.998904	0.334370
O37	O	-1.093688	0.429269	-0.557526
O38	O	-0.760355	0.762602	-0.224192
O39	O	-0.427021	1.095936	0.109141
O40	O	-0.965527	0.429297	-0.429370
O41	O	-0.632193	0.762630	-0.096037
O42	O	-0.298860	1.095963	0.237297
O43	O	-1.190830	0.332188	-0.557554
O44	O	-0.857496	0.665522	-0.224221
O45	O	-0.524163	0.998855	0.109112
O46	O	-1.190674	0.557491	-0.332283
O47	O	-0.857341	0.890825	0.001051
O48	O	-0.524008	1.224158	0.334384
O49	O	-1.093600	0.557451	-0.429362
O50	O	-0.760266	0.890784	-0.096029
O51	O	-0.426933	1.224117	0.237305
C52	C	-0.936864	0.380765	-0.380831
C53	C	-0.603531	0.714098	-0.047497
C54	C	-0.270198	1.047431	0.285836
C55	C	-0.849008	0.380775	-0.380840
C56	C	-0.515674	0.714108	-0.047506
C57	C	-0.182341	1.047442	0.285827
C58	C	-0.807697	0.431269	-0.330207
C59	C	-0.474364	0.764602	0.003126
C60	C	-0.141030	1.097936	0.336459
C61	C	-0.807765	0.330286	-0.431477
C62	C	-0.474432	0.663619	-0.098143
C63	C	-0.141098	0.996953	0.235190
C64	C	-0.725219	0.330291	-0.431485
C65	C	-0.391886	0.663625	-0.098151
C66	C	-0.058552	0.996958	0.235182
C67	C	-0.683908	0.380785	-0.380852
C68	C	-0.350575	0.714118	-0.047519
C69	C	-0.017242	1.047452	0.285814
C70	C	-0.725143	0.431274	-0.330212
C71	C	-0.391810	0.764607	0.003121
C72	C	-0.058477	1.097941	0.336455
C73	C	-0.683978	0.279798	-0.482118
C74	C	-0.350644	0.613131	-0.148785
C75	C	-0.017311	0.946464	0.184548
C76	C	-0.601427	0.279800	-0.482128
C77	C	-0.268093	0.613133	-0.148794
C78	C	0.065240	0.946467	0.184539
C79	C	-0.560115	0.330299	-0.431499
C80	C	-0.226781	0.663632	-0.098165
C81	C	0.106552	0.996965	0.235168
C82	C	-0.601355	0.380790	-0.380857
C83	C	-0.268021	0.714123	-0.047524
C84	C	0.065312	1.047457	0.285810
C85	C	-0.560044	0.431284	-0.330225
C86	C	-0.226711	0.764617	0.003108
C87	C	0.106623	1.097951	0.336442
C88	C	-0.601283	0.481780	-0.279587
C89	C	-0.267950	0.815114	0.053747
C90	C	0.065384	1.148447	0.387080
C91	C	-0.683831	0.481773	-0.279583
C92	C	-0.350498	0.815106	0.053750
C93	C	-0.017165	1.148439	0.387083
C94	C	-0.477566	0.330306	-0.431502
C95	C	-0.144233	0.663640	-0.098169
C96	C	0.189101	0.996973	0.235165
C97	C	-0.477491	0.431289	-0.330230
C98	C	-0.144157	0.764622	0.003104
C99	C	0.189176	1.097956	0.336437
C100	C	-1.142143	0.586151	-0.380834
C101	C	-0.808810	0.919484	-0.047501
C102	C	-0.475477	1.252818	0.285832
C103	C	-1.142178	0.674008	-0.380852
C104	C	-0.808845	1.007341	-0.047519
C105	C	-0.475511	1.340674	0.285814
C106	C	-0.348399	0.380802	-0.380873
C107	C	-0.015065	0.714135	-0.047540
C108	C	0.318268	1.047469	0.285794
C109	C	-0.436255	0.380800	-0.380870
C110	C	-0.102922	0.714133	-0.047537
C111	C	0.230411	1.047467	0.285797
C112	C	-1.091610	0.715290	-0.431363
C113	C	-0.758277	1.048623	-0.098030
C114	C	-0.424943	1.381956	0.235303
C115	C	-1.192784	0.715279	-0.330363
C116	C	-0.859451	1.048613	0.002970
C117	C	-0.526117	1.381946	0.336304
C118	C	-1.192821	0.797825	-0.330381
C119	C	-0.859488	1.131158	0.002952
C120	C	-0.526155	1.464492	0.336286
C121	C	-1.142253	0.839107	-0.380892
C122	C	-0.808920	1.172440	-0.047559
C123	C	-0.475587	1.505774	0.285775
C124	C	-1.091648	0.797843	-0.431385
C125	C	-0.758314	1.131176	-0.098051
C126	C	-0.424981	1.464510	0.235282
C127	C	-1.243432	0.839095	-0.279895
C128	C	-0.910099	1.172429	0.053438
C129	C	-0.576765	1.505762	0.386772
C130	C	-1.243472	0.921646	-0.279912
C131	C	-0.910139	1.254980	0.053422
C132	C	-0.576805	1.588313	0.386755
C133	C	-1.192899	0.962930	-0.330419
C134	C	-0.859566	1.296263	0.002914
C135	C	-0.526233	1.629596	0.336247
C136	C	-1.142291	0.921661	-0.380913
C137	C	-0.808958	1.254994	-0.047580
C138	C	-0.475624	1.588327	0.285753
C139	C	-1.091723	0.962942	-0.431424
C140	C	-0.758390	1.296276	-0.098091
C141	C	-0.425056	1.629609	0.235242
C142	C	-1.041110	0.921675	-0.481915
C143	C	-0.707777	1.255008	-0.148582
C144	C	-0.374443	1.588341	0.184752
C145	C	-1.041075	0.839126	-0.481892
C146	C	-0.707742	1.172460	-0.148559
C147	C	-0.374408	1.505793	0.184774
C148	C	-1.192934	1.045478	-0.330442
C149	C	-0.859601	1.378811	0.002891
C150	C	-0.526268	1.712145	0.336225
C151	C	-1.091761	1.045496	-0.431446
C152	C	-0.758427	1.378829	-0.098112
C153	C	-0.425094	1.712163	0.235221
C154	C	-1.142263	0.380719	-0.587022
C155	C	-0.808930	0.714053	-0.253689
C156	C	-0.475597	1.047386	0.079645
C157	C	-1.142278	0.380691	-0.674879
C158	C	-0.808944	0.714025	-0.341545
C159	C	-0.475611	1.047358	-0.008212
C160	C	-1.142335	1.174617	-0.380902
C161	C	-0.809001	1.507950	-0.047569
C162	C	-0.475668	1.841283	0.285764
C163	C	-1.142366	1.086760	-0.380953
C164	C	-0.809033	1.420093	-0.047620
C165	C	-0.475700	1.753427	0.285714
C166	C	-1.091795	0.431153	-1.046342
C167	C	-0.758461	0.764487	-0.713009
C168	C	-0.425128	1.097820	-0.379676
C169	C	-1.192949	0.330063	-1.046367
C170	C	-0.859616	0.663396	-0.713034
C171	C	-0.526283	0.996729	-0.379700
C172	C	-1.192928	0.330079	-0.963821
C173	C	-0.859595	0.663413	-0.630488
C174	C	-0.526262	0.996746	-0.297154
C175	C	-1.142340	0.380635	-0.922532
C176	C	-0.809007	0.713968	-0.589199
C177	C	-0.475674	1.047301	-0.255865
C178	C	-1.091774	0.431173	-0.963789
C179	C	-0.758440	0.764507	-0.630455
C180	C	-0.425107	1.097840	-0.297122
C181	C	-1.243500	0.279547	-0.922558
C182	C	-0.910166	0.612881	-0.589225
C183	C	-0.576833	0.946214	-0.255892
C184	C	-1.243481	0.279563	-0.840007
C185	C	-0.910148	0.612896	-0.506674
C186	C	-0.576815	0.946229	-0.173341
C187	C	-1.192889	0.330115	-0.798717
C188	C	-0.859556	0.663448	-0.465383
C189	C	-0.526222	0.996781	-0.132050
C190	C	-1.142319	0.380655	-0.839978
C191	C	-0.808986	0.713988	-0.506645
C192	C	-0.475653	1.047321	-0.173312
C193	C	-1.091732	0.431210	-0.798689
C194	C	-0.758398	0.764543	-0.465356
C195	C	-0.425065	1.097877	-0.132022
C196	C	-1.041158	0.481747	-0.839949
C197	C	-0.707824	0.815080	-0.506616
C198	C	-0.374491	1.148413	-0.173283
C199	C	-1.041181	0.481725	-0.922498
C200	C	-0.707848	0.815059	-0.589165
C201	C	-0.374515	1.148392	-0.255831
C202	C	-1.192865	0.330136	-0.716168
C203	C	-0.859532	0.663469	-0.382835
C204	C	-0.526199	0.996803	-0.049501
C205	C	-1.091711	0.431230	-0.716136
C206	C	-0.758377	0.764563	-0.382802
C207	C	-0.425044	1.097897	-0.049469
C208	C	-1.142243	0.380793	-0.175488
C209	C	-0.808910	0.714126	0.157846
C210	C	-0.475577	1.047460	0.491179
C211	C	-1.142382	0.380598	-0.087631
C212	C	-0.809049	0.713931	0.245702
C213	C	-0.475716	1.047265	0.579035
H214	H	-0.717415	0.522882	-0.238354
H215	H	-0.384082	0.856215	0.094979
H216	H	-0.050749	1.189549	0.428312
H217	H	-0.717619	0.238685	-0.523337
H218	H	-0.384286	0.572019	-0.190004
H219	H	-0.050952	0.905352	0.143330
H220	H	-1.234140	0.288907	-1.079990
H221	H	-0.900807	0.622241	-0.746656
H222	H	-0.567473	0.955574	-0.413323
H223	H	-0.999868	0.805521	-0.523001
H224	H	-0.666535	1.138855	-0.189667
H225	H	-0.333202	1.472188	0.143666
H226	H	-1.284690	0.238393	-0.956182
H227	H	-0.951357	0.571726	-0.622849
H228	H	-0.618024	0.905060	-0.289515
Cl229	Cl	-1.028217	0.494680	-1.098209
Cl230	Cl	-0.694884	0.828013	-0.764876
Cl231	Cl	-0.361550	1.161346	-0.431543
H232	H	-1.284607	0.805481	-0.238774
H233	H	-0.951274	1.138814	0.094559
H234	H	-0.617940	1.472148	0.427892
H235	H	-0.841277	0.472384	-0.288981
H236	H	-0.507944	0.805717	0.044352
H237	H	-0.174611	1.139051	0.377686
H238	H	-0.443861	0.472411	-0.289001
H239	H	-0.110528	0.805745	0.044332
H240	H	0.222806	1.139078	0.377665
Cl241	Cl	-0.425727	0.266825	-0.495150
Cl242	Cl	-0.092393	0.600158	-0.161817
Cl243	Cl	0.240940	0.933492	0.171517
Cl244	Cl	-0.549591	0.216325	-0.545790
Cl245	Cl	-0.216258	0.549658	-0.212457
Cl246	Cl	0.117075	0.882992	0.120877
H247	H	-0.841405	0.289173	-0.472695
H248	H	-0.508072	0.622506	-0.139362
H249	H	-0.174738	0.955839	0.193971
Cl250	Cl	-1.256561	1.097354	-0.266978
Cl251	Cl	-0.923227	1.430687	0.066355
Cl252	Cl	-0.589894	1.764020	0.399689
H253	H	-1.050581	1.079102	-0.472578
H254	H	-0.717248	1.412435	-0.139245
H255	H	-0.383915	1.745768	0.194088
Cl256	Cl	-1.307056	0.216029	-0.788145
Cl257	Cl	-0.973722	0.549363	-0.454811
Cl258	Cl	-0.640389	0.882696	-0.121478
Cl259	Cl	-0.977547	0.973582	-0.545417
Cl260	Cl	-0.644214	1.306915	-0.212084
Cl261	Cl	-0.310880	1.640248	0.121249
Cl262	Cl	-1.256444	0.266615	-0.664302
Cl263	Cl	-0.923110	0.599948	-0.330968
Cl264	Cl	-0.589777	0.933282	0.002365
H265	H	-1.050399	0.681687	-0.472470
H266	H	-0.717066	1.015021	-0.139137
H267	H	-0.383733	1.348354	0.194197
Cl268	Cl	-1.256358	0.663381	-0.266874
Cl269	Cl	-0.923025	0.996715	0.066460
Cl270	Cl	-0.589691	1.330048	0.399793
H271	H	-0.567637	0.522889	-0.238359
H272	H	-0.234304	0.856223	0.094974
H273	H	0.099030	1.189556	0.428308
Cl274	Cl	-1.307096	0.973518	-0.216437
Cl275	Cl	-0.973763	1.306851	0.116896
Cl276	Cl	-0.640430	1.640185	0.450230
Cl277	Cl	-0.977613	0.545255	-0.974372
Cl278	Cl	-0.644280	0.878589	-0.641039
Cl279	Cl	-0.310946	1.211922	-0.307706
H280	H	-0.999973	0.522912	-0.806321
H281	H	-0.666639	0.856246	-0.472988
H282	H	-0.333306	1.189579	-0.139654
Cl283	Cl	-1.028106	0.494785	-0.664236
Cl284	Cl	-0.694773	0.828118	-0.330903
Cl285	Cl	-0.361440	1.161452	0.002431
