data_functionalizedCrystal
_audit_creation_method	'MofGen! by Chris Wilmer'
_symmetry_space_group_name_H-M	'P1'
_symmetry_Int_Tables_number	1
_symmetry_cell_setting	triclinic
loop_
_symmetry_equiv_pos_as_xyz
  x,y,z
_cell_length_a	9.065218
_cell_length_b	10.654559
_cell_length_c	9.730223
_cell_angle_alpha	90.002029
_cell_angle_beta	90.002296
_cell_angle_gamma	84.752285
loop_
_atom_site_label
_atom_site_type_symbol
_atom_site_fract_x
_atom_site_fract_y
_atom_site_fract_z
O1	O	0.207299	1.668651	0.114291
O2	O	0.227029	1.303252	0.114292
O3	O	0.002480	1.493504	0.114289
O4	O	0.431847	1.478399	0.114294
O5	O	0.002475	1.493497	-0.114291
O6	O	0.227023	1.303245	-0.114288
O7	O	0.207293	1.668644	-0.114289
Zn8	Zn	0.217157	1.485943	-0.150580
Zn9	Zn	0.217165	1.485952	0.150584
O10	O	0.431842	1.478391	-0.114285
C11	C	0.225574	1.256445	0.000002
C12	C	0.221232	1.116985	0.000002
C13	C	0.084939	1.064905	-0.000003
C14	C	0.080868	0.933867	0.000007
C15	C	0.349393	0.906998	0.000023
C16	C	0.353463	1.038034	0.000022
C17	C	-0.070092	1.080417	-0.000018
C18	C	-0.074163	0.949378	-0.000007
C19	C	-0.052501	1.492049	0.000001
C20	C	-0.216320	1.487708	0.000008
C21	C	0.486823	1.479847	0.000005
C22	C	0.650642	1.484187	0.000008
C23	C	0.208748	1.715451	0.000004
C24	C	0.213090	1.854911	0.000013
N25	N	0.217151	1.485946	-0.356117
C26	C	0.126825	1.408770	-0.428066
C27	C	0.126832	1.408773	-0.571949
C28	C	0.307496	1.563139	-0.571921
C29	C	0.307495	1.563128	-0.428040
C30	C	0.022516	1.319651	-0.428083
C31	C	0.022523	1.319655	-0.571966
N32	N	0.217159	1.485959	0.356120
H33	H	-0.134787	0.919766	-0.095669
H34	H	0.457051	0.842701	0.000039
H35	H	-0.128513	1.121936	0.095636
O36	O	-0.116300	1.355791	-0.618649
C37	C	-0.324374	1.299660	-0.752052
C38	C	-0.167188	1.258571	-0.699242
H39	H	-0.365552	1.221090	-0.817246
H40	H	-0.402057	1.319929	-0.661000
H41	H	-0.321835	1.388435	-0.817087
H42	H	-0.169584	1.169774	-0.634229
H43	H	-0.089571	1.238386	-0.790355
H44	H	-0.088574	1.358742	-0.383456
H45	H	0.058775	1.220739	-0.389049
O46	O	0.395463	1.637974	-0.641728
C47	C	0.644326	1.689884	-0.685663
C48	C	0.544880	1.605025	-0.606551
H49	H	0.765147	1.663294	-0.657230
H50	H	0.628946	1.676625	-0.800875
H51	H	0.612484	1.792631	-0.657381
H52	H	0.576660	1.502247	-0.634718
H53	H	0.560274	1.618392	-0.491358
O54	O	-0.132920	0.906768	0.117864
C55	C	-0.113419	0.890655	0.364333
C56	C	-0.046751	0.939006	0.230956
H57	H	-0.043763	0.916677	0.455800
H58	H	-0.231670	0.935569	0.377082
H59	H	-0.114126	0.783831	0.358840
H60	H	-0.045940	1.045821	0.236354
H61	H	0.071464	0.893997	0.218255
O62	O	0.077818	1.206943	-0.624999
C63	C	0.181928	0.995203	-0.577265
C64	C	0.119293	1.122762	-0.517020
H65	H	0.215507	0.927116	-0.489993
H66	H	0.093782	0.954643	-0.643178
H67	H	0.282970	1.009452	-0.643241
H68	H	0.018272	1.108620	-0.450982
H69	H	0.207531	1.163281	-0.451185
O70	O	-0.126228	1.134617	-0.117680
C71	C	-0.338363	1.169893	-0.266595
C72	C	-0.274993	1.108473	-0.133289
H73	H	-0.458639	1.148756	-0.279272
H74	H	-0.332525	1.276211	-0.261194
H75	H	-0.270789	1.130106	-0.358067
H76	H	-0.342518	1.148159	-0.041748
H77	H	-0.280805	1.002158	-0.138809
H78	H	0.381060	1.625962	-0.369465
H79	H	0.464445	1.080431	0.000050
