data_functionalizedCrystal
_audit_creation_method	'MofGen! by Chris Wilmer'
_symmetry_space_group_name_H-M	'P1'
_symmetry_Int_Tables_number	1
_symmetry_cell_setting	triclinic
loop_
_symmetry_equiv_pos_as_xyz
  x,y,z
_cell_length_a	21.295420
_cell_length_b	21.295417
_cell_length_c	18.101389
_cell_angle_alpha	90.022566
_cell_angle_beta	90.019054
_cell_angle_gamma	90.026289
loop_
_atom_site_label
_atom_site_type_symbol
_atom_site_fract_x
_atom_site_fract_y
_atom_site_fract_z
Zn1	Zn	0.962321	-0.250746	0.418713
Zn2	Zn	0.962233	-0.356000	0.294863
Zn3	Zn	0.857054	-0.250740	0.294886
Zn4	Zn	0.857014	-0.355974	0.418663
O5	O	0.909656	-0.303365	0.356781
O6	O	1.050399	-0.264721	0.402296
O7	O	0.948262	-0.342045	0.191233
O8	O	0.871072	-0.162652	0.311342
O9	O	1.050334	-0.342051	0.311303
O10	O	0.948411	-0.162656	0.402318
O11	O	0.870987	-0.264712	0.191250
O12	O	0.768960	-0.264687	0.311294
O13	O	0.871002	-0.342006	0.522302
O14	O	0.768930	-0.342001	0.402232
O15	O	0.948371	-0.264696	0.522339
O16	O	0.948222	-0.444086	0.311254
O17	O	0.870918	-0.444066	0.402210
C18	C	0.746104	-0.303341	0.356760
C19	C	0.676136	-0.303346	0.356769
C20	C	0.176711	-0.263194	0.404249
C21	C	0.242453	-0.263190	0.404249
C22	C	0.275296	-0.303384	0.356798
C23	C	0.242392	-0.343597	0.309358
C24	C	0.176650	-0.343605	0.309364
N25	N	0.378492	-0.308121	0.291953
N26	N	0.440943	-0.308109	0.291948
C27	C	0.473371	-0.303363	0.356777
N28	N	0.440988	-0.298617	0.421610
N29	N	0.378531	-0.298625	0.421614
C30	C	0.346582	-0.303380	0.356786
C31	C	0.577553	-0.263151	0.404218
C32	C	0.643297	-0.263150	0.404219
C33	C	0.643234	-0.343555	0.309321
C34	C	0.577492	-0.343558	0.309327
C35	C	0.544655	-0.303353	0.356774
C36	C	0.909573	-0.466917	0.356740
C37	C	0.909595	-0.536885	0.356747
C38	C	0.949884	-0.569740	0.309435
C39	C	0.949913	-0.635483	0.309452
C40	C	0.909643	-0.668367	0.356773
C41	C	0.869352	-0.635504	0.404094
C42	C	0.869328	-0.569762	0.404081
N43	N	0.854576	-0.771630	0.362411
N44	N	0.854600	-0.834081	0.362419
C45	C	0.909714	-0.866442	0.356815
N46	N	0.964803	-0.833992	0.351189
N47	N	0.964778	-0.771535	0.351177
C48	C	0.909665	-0.739653	0.356792
C49	C	0.950037	-0.970583	0.309519
C50	C	0.950068	-1.036327	0.309541
C51	C	0.869501	-1.036346	0.404179
C52	C	0.869476	-0.970604	0.404161
C53	C	0.909743	-0.937726	0.356827
C54	C	1.073846	-0.303390	0.356803
C55	C	1.143814	-0.303400	0.356812
C56	C	0.909692	-0.303349	0.549943
C57	C	0.909707	-0.303342	0.632257
C58	C	0.909756	-0.139175	0.356838
C59	C	0.909798	-0.069207	0.356863
C60	C	0.909656	-0.303335	0.164371
C61	C	0.909762	-0.303165	0.082057
C62	C	0.909744	-0.303224	0.931348
C63	C	0.860898	-0.351711	0.900000
C64	C	0.861030	-0.351936	0.814381
C65	C	0.909725	-0.303283	0.782966
C66	C	0.976048	-0.321294	0.814063
C67	C	0.975776	-0.321613	0.899708
C68	C	0.892844	-0.236618	0.899780
C69	C	0.891368	-0.237003	0.814129
C70	C	0.909719	-0.303315	0.699106
C71	C	0.909755	-0.303194	1.015208
H72	H	0.149866	-0.376347	0.270734
C73	C	0.541304	-0.387777	0.257136
H74	H	0.570278	-0.411712	0.228871
H75	H	0.515657	-0.415242	0.285406
H76	H	0.515657	-0.363655	0.224920
C77	C	0.278513	-0.387814	0.257165
H78	H	0.249503	-0.411765	0.228918
H79	H	0.304157	-0.363696	0.224944
H80	H	0.304158	-0.415273	0.285442
C81	C	0.940896	-0.187813	0.927179
H82	H	0.971113	-0.207896	0.957709
H83	H	0.961362	-0.169221	0.886010
H84	H	0.919855	-0.156220	0.954743
C85	C	0.828648	-0.214448	0.928949
H86	H	0.811550	-0.245611	0.960654
H87	H	0.833814	-0.176371	0.955626
H88	H	0.800969	-0.207700	0.888558
H89	H	0.982827	-0.943813	0.270979
H90	H	0.550817	-0.230413	0.442852
H91	H	0.982723	-0.662239	0.270925
C92	C	0.994387	-1.072468	0.257494
H93	H	1.018359	-1.043469	0.229300
H94	H	1.021813	-1.098077	0.285854
H95	H	0.970326	-1.098149	0.225207
H96	H	0.842561	-0.223420	0.793804
C97	C	0.679484	-0.218921	0.456402
H98	H	0.650510	-0.194975	0.484653
H99	H	0.705132	-0.243033	0.488619
H100	H	0.705129	-0.191457	0.428120
C101	C	0.679354	-0.387769	0.257127
H102	H	0.723219	-0.382004	0.263914
H103	H	0.668568	-0.430078	0.267876
H104	H	0.668566	-0.378493	0.207387
C105	C	0.935925	-0.185608	0.785250
H106	H	0.966445	-0.203982	0.753672
H107	H	0.912487	-0.155235	0.758497
H108	H	0.956345	-0.165906	0.825771
H109	H	0.149979	-0.230459	0.442887
C110	C	0.994183	-0.533578	0.257379
H111	H	1.018186	-0.562566	0.229209
H112	H	0.970113	-0.507965	0.225080
H113	H	1.021590	-0.507900	0.285739
C114	C	0.825055	-0.671673	0.456144
H115	H	0.830834	-0.715533	0.449370
H116	H	0.834238	-0.660870	0.505910
H117	H	0.782759	-0.660938	0.445253
H118	H	1.013404	-0.287830	0.920447
H119	H	0.269243	-0.230447	0.442877
H120	H	0.836520	-0.543011	0.442609
C121	C	0.825208	-1.072511	0.456234
H122	H	0.830990	-1.116370	0.449465
H123	H	0.834392	-1.061703	0.505999
H124	H	0.782911	-1.061779	0.445345
H125	H	0.836667	-0.943851	0.442684
C126	C	0.995128	-0.387386	0.926704
H127	H	0.995136	-0.388159	0.979180
H128	H	0.966173	-0.417639	0.908569
H129	H	1.036024	-0.396932	0.909023
C130	C	0.794595	-0.336701	0.785973
H131	H	0.767280	-0.330323	0.826775
H132	H	0.795944	-0.299701	0.756720
H133	H	0.779566	-0.370691	0.756907
H134	H	0.811569	-0.340555	0.920592
C135	C	0.875812	-0.417998	0.929077
H136	H	0.911679	-0.416254	0.960235
H137	H	0.840953	-0.433431	0.956319
H138	H	0.884015	-0.445204	0.888613
H139	H	1.013420	-0.287089	0.793716
C140	C	0.995738	-0.386373	0.785099
H141	H	0.963634	-0.402654	0.754064
H142	H	1.033618	-0.382633	0.757751
H143	H	1.002094	-0.413988	0.825620
C144	C	0.876097	-0.418631	0.786699
H145	H	0.882171	-0.445691	0.827796
H146	H	0.842177	-0.433700	0.757561
H147	H	0.913241	-0.417652	0.757669
