data_functionalizedCrystal
_audit_creation_method	'MofGen! by Chris Wilmer'
_symmetry_space_group_name_H-M	'P1'
_symmetry_Int_Tables_number	1
_symmetry_cell_setting	triclinic
loop_
_symmetry_equiv_pos_as_xyz
  x,y,z
_cell_length_a	12.759401
_cell_length_b	12.759393
_cell_length_c	12.759399
_cell_angle_alpha	89.967969
_cell_angle_beta	90.016641
_cell_angle_gamma	89.980163
loop_
_atom_site_label
_atom_site_type_symbol
_atom_site_fract_x
_atom_site_fract_y
_atom_site_fract_z
Zn1	Zn	1.606252	-0.594017	-0.418161
Zn2	Zn	1.606145	-0.418336	-0.593880
Zn3	Zn	1.430554	-0.418352	-0.418220
Zn4	Zn	1.430541	-0.593973	-0.593803
O5	O	1.518373	-0.506170	-0.506016
O6	O	1.753259	-0.570724	-0.441478
O7	O	1.582813	-0.271317	-0.570635
O8	O	1.453911	-0.441680	-0.271191
O9	O	1.753180	-0.441652	-0.570578
O10	O	1.582995	-0.570740	-0.271148
O11	O	1.453807	-0.271329	-0.441579
O12	O	1.283531	-0.441637	-0.441505
O13	O	1.453889	-0.741000	-0.570447
O14	O	1.283522	-0.570665	-0.570504
O15	O	1.582983	-0.741032	-0.441403
O16	O	1.582801	-0.441609	-0.740891
O17	O	1.453785	-0.570649	-0.740834
C18	C	1.245406	-0.506149	-0.506003
C19	C	1.128629	-0.506165	-0.506023
C20	C	1.073790	-0.573244	-0.573296
C21	C	0.964066	-0.573265	-0.573300
C22	C	0.964030	-0.439118	-0.438756
C23	C	1.073752	-0.439104	-0.438747
C24	C	1.518446	-0.780203	-0.505910
C25	C	1.518478	-0.896980	-0.505865
C26	C	1.451328	-0.951848	-0.438653
C27	C	1.451353	-1.061572	-0.438620
C28	C	1.585685	-1.061551	-0.573015
C29	C	1.585654	-0.951829	-0.573052
C30	C	1.792406	-0.506191	-0.506030
C31	C	1.909183	-0.506200	-0.506036
C32	C	1.518309	-0.506146	-0.778984
C33	C	1.518377	-0.506171	-0.895760
C34	C	1.518360	-0.233202	-0.506046
C35	C	1.518533	-0.116426	-0.505796
C36	C	1.585632	-0.439056	-0.950617
C37	C	1.585700	-0.439091	-1.060341
C38	C	1.451248	-0.573359	-1.060342
C39	C	1.451187	-0.573328	-0.950620
C40	C	1.518466	-0.506217	-0.231983
C41	C	1.518506	-0.506237	-0.115206
H42	H	0.919420	-0.627889	-0.628078
O43	O	1.650852	-0.373682	-0.897440
C44	C	1.627945	-0.268957	-0.924341
H45	H	1.587604	-0.266767	-1.004042
H46	H	1.573915	-0.233504	-0.862664
C47	C	1.779953	-0.208098	-0.831486
C48	C	1.730413	-0.205408	-0.929381
H49	H	1.843159	-0.168897	-0.834591
H50	H	1.795384	-0.278653	-0.813358
H51	H	1.734917	-0.178556	-0.780099
H52	H	1.775444	-0.234962	-0.980763
H53	H	1.714992	-0.134856	-0.947518
H54	H	1.396629	-0.907193	-0.383945
H55	H	1.118403	-0.384480	-0.383959
O56	O	0.910770	-0.374084	-0.373262
C57	C	0.937635	-0.397207	-0.268577
H58	H	0.967835	-0.481145	-0.263369
H59	H	1.001307	-0.340922	-0.241044
C60	C	0.803086	-0.282015	-0.204847
C61	C	0.840169	-0.385113	-0.198450
H62	H	0.742966	-0.274551	-0.161587
H63	H	0.784988	-0.266433	-0.275375
H64	H	0.856155	-0.235123	-0.181905
H65	H	0.787105	-0.432002	-0.221404
H66	H	0.858255	-0.400703	-0.127923
H67	H	1.396672	-1.106240	-0.383891
H68	H	1.640338	-0.907154	-0.627788
H69	H	1.118467	-0.627852	-0.628073
O70	O	1.386009	-0.638486	-1.113798
C71	C	1.400499	-0.624139	-1.222405
H72	H	1.434961	-0.543094	-1.237429
H73	H	1.456430	-0.686515	-1.253445
C74	C	1.251895	-0.733227	-1.260365
C75	C	1.294213	-0.633682	-1.278818
H76	H	1.186335	-0.739118	-1.295164
H77	H	1.242135	-0.742896	-1.187194
H78	H	1.298514	-0.785196	-1.286232
H79	H	1.247601	-0.581716	-1.252939
H80	H	1.303964	-0.624004	-1.351986
H81	H	1.640467	-0.384441	-1.105000
H82	H	1.640379	-1.106222	-0.627715
O83	O	1.385752	-0.638561	-0.897488
C84	C	1.326474	-0.697855	-0.969434
H85	H	1.322895	-0.654842	-1.047688
H86	H	1.364914	-0.777683	-0.981004
C87	C	1.219022	-0.765719	-0.830574
C88	C	1.214620	-0.712887	-0.926684
H89	H	1.150027	-0.774997	-0.804203
H90	H	1.258961	-0.725775	-0.782101
H91	H	1.251061	-0.832237	-0.840229
H92	H	1.182594	-0.646365	-0.917026
H93	H	1.174673	-0.752820	-0.975154
