data_functionalizedCrystal
_audit_creation_method	'MofGen! by Chris Wilmer'
_symmetry_space_group_name_H-M	'P1'
_symmetry_Int_Tables_number	1
_symmetry_cell_setting	triclinic
loop_
_symmetry_equiv_pos_as_xyz
  x,y,z
_cell_length_a	12.759401
_cell_length_b	13.897448
_cell_length_c	12.759393
_cell_angle_alpha	89.967173
_cell_angle_beta	89.979527
_cell_angle_gamma	90.019217
loop_
_atom_site_label
_atom_site_type_symbol
_atom_site_fract_x
_atom_site_fract_y
_atom_site_fract_z
Zn1	Zn	1.606240	-0.383924	-0.594007
Zn2	Zn	1.939573	-0.050590	-0.260674
Zn3	Zn	2.272906	0.282743	0.072660
Zn4	Zn	1.606123	-0.545252	-0.418322
Zn5	Zn	1.939456	-0.211918	-0.084988
Zn6	Zn	2.272790	0.121415	0.248345
Zn7	Zn	1.430540	-0.383977	-0.418342
Zn8	Zn	1.763873	-0.050643	-0.085009
Zn9	Zn	2.097207	0.282690	0.248324
Zn10	Zn	1.430521	-0.545183	-0.593959
Zn11	Zn	1.763854	-0.211849	-0.260626
Zn12	Zn	2.097188	0.121484	0.072708
O13	O	1.518356	-0.464584	-0.506158
O14	O	1.851689	-0.131250	-0.172824
O15	O	2.185023	0.202083	0.160509
O16	O	1.753245	-0.405331	-0.570714
O17	O	2.086579	-0.071998	-0.237380
O18	O	2.419912	0.261336	0.095953
O19	O	1.582791	-0.523909	-0.271303
O20	O	1.916124	-0.190576	0.062030
O21	O	2.249457	0.142758	0.395363
O22	O	1.453903	-0.248988	-0.441673
O23	O	1.787237	0.084345	-0.108340
O24	O	2.120570	0.417679	0.224993
O25	O	1.753160	-0.523858	-0.441638
O26	O	2.086493	-0.190525	-0.108305
O27	O	2.419826	0.142809	0.225028
O28	O	1.582989	-0.248949	-0.570734
O29	O	1.916323	0.084384	-0.237400
O30	O	2.249656	0.417718	0.095933
O31	O	1.453790	-0.405421	-0.271318
O32	O	1.787124	-0.072088	0.062015
O33	O	2.120457	0.261246	0.395348
O34	O	1.283516	-0.405354	-0.441627
O35	O	1.616850	-0.072021	-0.108293
O36	O	1.950183	0.261312	0.225040
O37	O	1.453872	-0.523740	-0.740987
O38	O	1.787205	-0.190407	-0.407653
O39	O	2.120538	0.142926	-0.074320
O40	O	1.283503	-0.523792	-0.570652
O41	O	1.616836	-0.190458	-0.237318
O42	O	1.950169	0.142875	0.096015
O43	O	1.582971	-0.405264	-0.741022
O44	O	1.916305	-0.071931	-0.407689
O45	O	2.249638	0.261403	-0.074355
O46	O	1.582772	-0.680224	-0.441592
O47	O	1.916106	-0.346891	-0.108258
O48	O	2.249439	-0.013557	0.225075
O49	O	1.453758	-0.680173	-0.570632
O50	O	1.787092	-0.346840	-0.237298
O51	O	2.120425	-0.013507	0.096035
C52	C	1.245389	-0.464572	-0.506137
C53	C	1.578722	-0.131239	-0.172803
C54	C	1.912055	0.202095	0.160530
C55	C	1.128612	-0.464590	-0.506153
C56	C	1.461945	-0.131257	-0.172819
C57	C	1.795279	0.202077	0.160514
C58	C	1.073770	-0.526354	-0.573230
C59	C	1.407104	-0.193021	-0.239897
C60	C	1.740437	0.140312	0.093436
C61	C	0.964046	-0.526358	-0.573251
C62	C	1.297380	-0.193025	-0.239918
C63	C	1.630713	0.140309	0.093416
C64	C	0.964015	-0.402830	-0.439108
C65	C	1.297348	-0.069497	-0.105775
C66	C	1.630682	0.263836	0.227559
C67	C	1.073737	-0.402823	-0.439093
C68	C	1.407070	-0.069489	-0.105760
C69	C	1.740404	0.263844	0.227574
C70	C	1.518279	-0.715198	-0.506127
C71	C	1.851613	-0.381865	-0.172794
C72	C	2.184946	-0.048531	0.160539
C73	C	1.518343	-0.822412	-0.506149
C74	C	1.851676	-0.489079	-0.172816
C75	C	2.185009	-0.155745	0.160517
C76	C	1.518453	-1.018707	-0.506215
C77	C	1.851786	-0.685374	-0.172882
C78	C	2.185120	-0.352040	0.160451
C79	C	1.518389	-0.909475	-0.506182
C80	C	1.851722	-0.576141	-0.172848
C81	C	2.185055	-0.242808	0.160485
C82	C	1.792389	-0.464596	-0.506179
C83	C	2.125723	-0.131263	-0.172846
C84	C	2.459056	0.202070	0.160488
C85	C	1.909166	-0.464602	-0.506188
C86	C	2.242499	-0.131268	-0.172855
C87	C	2.575832	0.202065	0.160478
C88	C	1.518432	-0.464489	-0.780191
C89	C	1.851766	-0.131155	-0.446858
C90	C	2.185099	0.202178	-0.113524
C91	C	1.518465	-0.464448	-0.896968
C92	C	1.851798	-0.131115	-0.563634
C93	C	2.185132	0.202219	-0.230301
C94	C	1.518462	-0.212991	-0.506211
C95	C	1.851795	0.120343	-0.172878
C96	C	2.185128	0.453676	0.160456
C97	C	1.518507	-0.105777	-0.506234
C98	C	1.851840	0.227557	-0.172901
C99	C	2.185173	0.560890	0.160433
C100	C	1.585714	-0.402711	-1.061581
C101	C	1.919047	-0.069378	-0.728248
C102	C	2.252380	0.263955	-0.394914
C103	C	1.585694	-0.402749	-0.951857
C104	C	1.919027	-0.069415	-0.618524
C105	C	2.252360	0.263918	-0.285190
C106	C	1.451259	-0.526121	-0.951808
C107	C	1.784593	-0.192788	-0.618475
C108	C	2.117926	0.140545	-0.285142
C109	C	1.451286	-0.526088	-1.061531
C110	C	1.784619	-0.192755	-0.728197
C111	C	2.117952	0.140579	-0.394864
C112	C	1.518340	-0.464609	-0.233190
C113	C	1.851674	-0.131275	0.100143
C114	C	2.185007	0.202058	0.433476
C115	C	1.518511	-0.464377	-0.116414
C116	C	1.851845	-0.131044	0.216919
C117	C	2.185178	0.202289	0.550253
H118	H	0.919399	-0.576651	-0.627874
H119	H	1.252732	-0.243318	-0.294540
H120	H	1.586066	0.090015	0.038793
H121	H	1.396525	-0.576362	-0.907109
H122	H	1.729859	-0.243029	-0.573776
H123	H	2.063192	0.090304	-0.240442
H124	H	1.396560	-0.576309	-1.106177
H125	H	1.729894	-0.242976	-0.772844
H126	H	2.063227	0.090357	-0.439510
C127	C	0.903650	-0.334903	-0.365337
C128	C	1.236983	-0.001570	-0.032004
C129	C	1.570316	0.331764	0.301330
H130	H	0.830448	-0.343760	-0.374943
H131	H	1.163781	-0.010427	-0.041609
H132	H	1.497115	0.322906	0.291724
H133	H	0.921653	-0.270107	-0.380829
H134	H	1.254987	0.063227	-0.047496
H135	H	1.588320	0.396560	0.285838
H136	H	0.921597	-0.348952	-0.294715
H137	H	1.254930	-0.015618	0.038618
H138	H	1.588264	0.317715	0.371952
C139	C	1.134067	-0.334880	-0.365303
C140	C	1.467400	-0.001547	-0.031969
C141	C	1.800734	0.331787	0.301364
H142	H	1.085673	-0.298105	-0.325356
H143	H	1.419006	0.035229	0.007977
H144	H	1.752340	0.368562	0.341311
H145	H	1.176902	-0.292895	-0.405569
H146	H	1.510235	0.040438	-0.072236
H147	H	1.843569	0.373771	0.261098
H148	H	1.176836	-0.371733	-0.319447
H149	H	1.510169	-0.038399	0.013887
H150	H	1.843503	0.294934	0.347220
C151	C	1.659669	-0.334843	-1.121950
C152	C	1.993002	-0.001509	-0.788616
C153	C	2.326335	0.331824	-0.455283
H154	H	1.699696	-0.298130	-1.073574
H155	H	2.033030	0.035204	-0.740241
H156	H	2.366363	0.368537	-0.406907
H157	H	1.619514	-0.292797	-1.164761
H158	H	1.952847	0.040536	-0.831428
H159	H	2.286181	0.373870	-0.498094
H160	H	1.705443	-0.371740	-1.164745
H161	H	2.038776	-0.038407	-0.831411
H162	H	2.372109	0.294926	-0.498078
C163	C	1.659611	-0.334911	-0.891545
C164	C	1.992944	-0.001577	-0.558212
C165	C	2.326278	0.331756	-0.224878
H166	H	1.699643	-0.298151	-0.939950
H167	H	2.032976	0.035182	-0.606616
H168	H	2.366309	0.368516	-0.273283
H169	H	1.705366	-0.371820	-0.848738
H170	H	2.038699	-0.038486	-0.515405
H171	H	2.372032	0.294847	-0.182072
H172	H	1.619420	-0.292892	-0.848750
H173	H	1.952753	0.040441	-0.515416
H174	H	2.286087	0.373775	-0.182083
H175	H	1.118446	-0.576647	-0.627837
H176	H	1.451779	-0.243314	-0.294504
H177	H	1.785113	0.090020	0.038830
