data_functionalizedCrystal
_audit_creation_method	'MofGen! by Chris Wilmer'
_symmetry_space_group_name_H-M	'P1'
_symmetry_Int_Tables_number	1
_symmetry_cell_setting	triclinic
loop_
_symmetry_equiv_pos_as_xyz
  x,y,z
_cell_length_a	10.654555
_cell_length_b	10.654550
_cell_length_c	9.730223
_cell_angle_alpha	90.000193
_cell_angle_beta	90.001107
_cell_angle_gamma	84.485987
loop_
_atom_site_label
_atom_site_type_symbol
_atom_site_fract_x
_atom_site_fract_y
_atom_site_fract_z
O1	O	-1.667830	-0.176425	-0.114315
O2	O	-1.302352	-0.193224	-0.114311
O3	O	-1.493494	-0.002085	-0.114308
O4	O	-1.476688	-0.367564	-0.114318
O5	O	-1.493492	-0.002090	0.114272
O6	O	-1.302350	-0.193229	0.114269
O7	O	-1.667828	-0.176430	0.114265
Zn8	Zn	-1.485089	-0.184830	0.150559
Zn9	Zn	-1.485092	-0.184824	-0.150605
O10	O	-1.476686	-0.367568	0.114262
C11	C	-1.255553	-0.191992	-0.000021
C12	C	-1.116111	-0.188297	-0.000019
C13	C	-1.492259	0.044710	-0.000020
C14	C	-1.488567	0.184153	-0.000024
C15	C	-0.919582	-0.183095	-0.124627
C16	C	-1.050604	-0.186559	-0.124623
C17	C	-1.050590	-0.186558	0.124588
C18	C	-0.919571	-0.183084	0.124582
C19	C	-0.919590	-0.183102	-0.268507
C20	C	-1.050612	-0.186566	-0.268502
C21	C	-0.714627	-0.177663	-0.000026
C22	C	-0.854069	-0.181360	-0.000030
C23	C	-1.477921	-0.414364	-0.000029
C24	C	-1.481613	-0.553807	-0.000034
N25	N	-1.485096	-0.184834	0.356095
C26	C	-1.601109	0.263637	-0.000022
C27	C	-1.597632	0.394658	-0.000031
C28	C	-1.369063	0.366699	-0.000041
C29	C	-1.372541	0.235681	-0.000041
C30	C	-1.733071	0.279780	-0.000010
C31	C	-1.729595	0.410801	-0.000020
N32	N	-1.485094	-0.184810	-0.356141
C33	C	-1.569755	-0.100226	0.428023
C34	C	-1.569752	-0.100211	0.571906
C35	C	-1.400426	-0.269421	0.571921
C36	C	-1.400424	-0.269430	0.428041
C37	C	-1.667519	-0.002538	0.428015
C38	C	-1.667515	-0.002522	0.571898
H39	H	-0.866239	-0.181646	0.226041
H40	H	-1.102319	-0.097118	-0.313147
H41	H	-1.075446	-0.275248	-0.323734
Br42	Br	-1.219800	0.127812	-0.000087
Br43	Br	-1.616643	0.149508	0.646280
H44	H	-1.103937	-0.187962	0.226042
Br45	Br	-0.878202	-0.035311	-0.360587
H46	H	-1.274598	0.408669	-0.000055
H47	H	-1.764027	-0.024043	0.610947
Br48	Br	-0.833399	-0.332176	-0.342916
H49	H	-1.775092	0.244150	0.098686
H50	H	-1.784687	0.250423	-0.095664
H51	H	-1.779315	0.452558	0.095638
Br52	Br	-1.796060	0.486891	-0.164512
H53	H	-1.331477	-0.338313	0.369479
Br54	Br	-1.819484	-0.053545	0.353617
H55	H	-1.331487	-0.338296	0.630515
Br56	Br	-1.631783	0.158351	0.362913
