data_functionalizedCrystal
_audit_creation_method	'MofGen! by Chris Wilmer'
_symmetry_space_group_name_H-M	'P1'
_symmetry_Int_Tables_number	1
_symmetry_cell_setting	triclinic
loop_
_symmetry_equiv_pos_as_xyz
  x,y,z
_cell_length_a	16.992694
_cell_length_b	27.732048
_cell_length_c	15.455313
_cell_angle_alpha	92.637842
_cell_angle_beta	87.142206
_cell_angle_gamma	86.655439
loop_
_atom_site_label
_atom_site_type_symbol
_atom_site_fract_x
_atom_site_fract_y
_atom_site_fract_z
O1	O	1.042606	0.100467	-0.072038
O2	O	0.814336	0.099342	-0.072063
O3	O	0.935560	0.029815	-0.072033
O4	O	0.921382	0.169994	-0.072068
O5	O	0.928628	0.033773	0.072227
O6	O	0.807404	0.103301	0.072197
O7	O	1.035674	0.104425	0.072223
Cu8	Cu	0.920906	0.104225	0.085382
Cu9	Cu	0.929104	0.099543	-0.085222
O10	O	0.914450	0.173953	0.072193
C11	C	0.781675	0.099876	0.000064
C12	C	0.694684	0.095561	0.000055
C13	C	0.643939	0.137184	0.000046
C14	C	0.562201	0.133129	0.000059
C15	C	0.531209	0.087449	0.000075
C16	C	0.581960	0.045823	0.000087
C17	C	0.663696	0.049880	0.000080
C18	C	0.287814	0.070637	0.000102
C19	C	0.206071	0.066583	0.000106
C20	C	0.186318	0.153889	0.000080
C21	C	0.268057	0.157941	0.000068
C22	C	0.318800	0.116315	0.000084
N23	N	0.447660	0.083302	0.000086
N24	N	0.402347	0.120463	0.000080
C25	C	0.931796	0.013774	0.000100
C26	C	0.930900	-0.039919	0.000107
C27	C	0.996895	-0.375882	0.000069
C28	C	0.993571	-0.577686	0.000057
O29	O	1.053919	-0.606333	0.000026
N30	N	0.921689	-0.599917	0.000050
C31	C	0.850634	-0.571695	0.000040
O32	O	0.789419	-0.595235	0.000025
C33	C	0.853960	-0.369892	0.000046
C34	C	0.925846	-0.347663	0.000062
C35	C	1.068775	-0.353652	0.000084
C36	C	1.069605	-0.303204	0.000092
C37	C	0.998556	-0.274986	0.000085
C38	C	0.926676	-0.297215	0.000070
C39	C	0.782906	-0.341671	0.000030
C40	C	0.783744	-0.291218	0.000030
C41	C	0.855630	-0.268989	0.000046
C42	C	0.856457	-0.218549	0.000071
N43	N	0.928338	-0.196317	0.000078
C44	C	0.999387	-0.224535	0.000085
C45	C	0.848893	-0.677644	0.000038
C46	C	0.848061	-0.728095	0.000038
C47	C	0.990998	-0.734082	0.000054
C48	C	0.991829	-0.683630	0.000060
C49	C	0.920775	-0.655413	0.000046
C50	C	1.001126	-0.118591	0.000102
C51	C	1.001949	-0.068138	0.000114
C52	C	0.859013	-0.062155	0.000094
C53	C	0.858189	-0.112603	0.000087
C54	C	0.929251	-0.140820	0.000088
O55	O	0.796141	-0.189872	0.000092
O56	O	1.060595	-0.200987	0.000081
C57	C	0.996065	-0.426330	0.000062
C58	C	0.924185	-0.448559	0.000047
C59	C	0.853136	-0.420341	0.000039
C60	C	0.923354	-0.499010	0.000047
C61	C	0.994403	-0.527228	0.000054
C62	C	1.066285	-0.504997	0.000061
C63	C	1.067115	-0.454549	0.000069
C64	C	0.781254	-0.442573	0.000032
C65	C	0.780430	-0.493021	0.000025
C66	C	0.851480	-0.521240	0.000033
C67	C	1.068335	0.103892	0.000094
C68	C	1.155327	0.108206	0.000097
C69	C	0.918214	0.189993	0.000058
C70	C	0.919111	0.243687	0.000046
N71	N	0.915146	0.107517	0.205376
N72	N	0.934870	0.096247	-0.205217
C73	C	0.966664	0.077992	0.250783
C74	C	0.962315	0.080486	0.341590
C75	C	0.906451	0.112509	0.386988
C76	C	0.854928	0.142036	0.341575
C77	C	0.859274	0.139538	0.250770
C78	C	0.887693	0.123276	0.658565
C79	C	0.883353	0.125773	0.749377
C80	C	0.990739	0.064222	0.749385
C81	C	0.995083	0.061730	0.658578
C82	C	0.943557	0.091254	0.613173
N83	N	0.902006	0.115061	0.479807
N84	N	0.947999	0.088700	0.520356
H85	H	0.293284	0.195138	0.000044
H86	H	1.060489	-0.050041	0.000129
C87	C	0.821893	0.161000	0.799313
N88	N	0.775605	0.187533	0.836925
C89	C	1.148686	-0.278759	0.000101
N90	N	1.208254	-0.260351	0.000103
C91	C	0.793470	0.177257	0.391516
N92	N	0.747178	0.203786	0.429132
H93	H	0.725882	-0.268245	0.000017
C94	C	0.770722	-0.646611	0.000023
N95	N	0.711843	-0.623238	0.000015
H96	H	0.799653	-0.130703	0.000098
C97	C	0.506385	0.178918	0.000063
N98	N	0.464343	0.213409	0.000074
C99	C	0.831113	0.155821	0.608631
N100	N	0.788531	0.180360	0.571018
C101	C	0.171983	0.016330	0.000124
N102	N	0.146308	-0.021519	0.000134
C103	C	1.028119	0.042763	0.200853
N104	N	1.074405	0.016227	0.163249
H105	H	0.817322	0.163580	0.213800
C106	C	1.056534	0.026499	0.608647
N107	N	1.102819	-0.000037	0.571039
H108	H	0.721887	-0.511115	0.000020
H109	H	1.032688	0.040184	0.786363
H110	H	1.058992	-0.141559	0.000100
H111	H	0.801166	-0.039170	0.000091
H112	H	1.048849	-0.757066	0.000060
C113	C	1.146942	-0.384685	0.000102
N114	N	1.205822	-0.408056	0.000124
H115	H	0.144995	0.187778	0.000068
H116	H	0.669166	0.174382	0.000032
C117	C	0.768981	-0.752541	0.000032
N118	N	0.709416	-0.770952	0.000021
C119	C	0.343622	0.024846	0.000115
N120	N	0.385659	-0.009646	0.000123
C121	C	1.144439	-0.536047	0.000067
N122	N	1.203302	-0.559436	0.000067
C123	C	0.703825	-0.366112	0.000007
N124	N	0.644257	-0.384520	-0.000014
H125	H	0.556720	0.008630	0.000113
C126	C	1.018971	0.047993	0.391533
N127	N	1.061639	0.023513	0.429150
C128	C	1.070908	-0.659184	0.000070
N129	N	1.130474	-0.640773	0.000074
H130	H	0.705012	0.015986	0.000088
H131	H	0.723396	-0.419602	0.000024
H132	H	1.125651	-0.436454	0.000081
