data_functionalizedCrystal
_audit_creation_method	'MofGen! by Chris Wilmer'
_symmetry_space_group_name_H-M	'P1'
_symmetry_Int_Tables_number	1
_symmetry_cell_setting	triclinic
loop_
_symmetry_equiv_pos_as_xyz
  x,y,z
_cell_length_a	12.759401
_cell_length_b	12.759400
_cell_length_c	12.759393
_cell_angle_alpha	90.031564
_cell_angle_beta	89.980563
_cell_angle_gamma	89.985304
loop_
_atom_site_label
_atom_site_type_symbol
_atom_site_fract_x
_atom_site_fract_y
_atom_site_fract_z
Zn1	Zn	1.606256	0.418204	-0.594008
Zn2	Zn	1.606150	0.593923	-0.418328
Zn3	Zn	1.430557	0.418259	-0.418344
Zn4	Zn	1.430546	0.593842	-0.593966
O5	O	1.518377	0.506057	-0.506162
O6	O	1.753263	0.441525	-0.570714
O7	O	1.582818	0.570677	-0.271309
O8	O	1.453913	0.271230	-0.441671
O9	O	1.753185	0.570625	-0.441643
O10	O	1.582998	0.271190	-0.570730
O11	O	1.453811	0.441618	-0.271321
O12	O	1.283535	0.441539	-0.441630
O13	O	1.453894	0.570486	-0.740993
O14	O	1.283527	0.570539	-0.570659
O15	O	1.582987	0.441446	-0.741023
O16	O	1.582807	0.740933	-0.441603
O17	O	1.453791	0.740873	-0.570643
C18	C	1.245410	0.506037	-0.506143
C19	C	1.128633	0.506053	-0.506160
C20	C	0.964070	0.573343	-0.573257
C21	C	1.073794	0.573329	-0.573240
C22	C	1.073743	0.438794	-0.439084
C23	C	0.964021	0.438814	-0.439097
C24	C	0.909236	0.640616	-0.640350
C25	C	0.964118	0.707876	-0.707425
C26	C	1.073842	0.707863	-0.707408
C27	C	1.128684	0.640588	-0.640316
C28	C	1.518315	0.779024	-0.506140
C29	C	1.518384	0.895801	-0.506165
C30	C	1.518451	0.505951	-0.780195
C31	C	1.518482	0.505906	-0.896972
C32	C	1.792411	0.506078	-0.506181
C33	C	1.909187	0.506087	-0.506189
C34	C	1.518468	0.232023	-0.506207
C35	C	1.518507	0.115247	-0.506226
C36	C	1.585637	0.950659	-0.439048
C37	C	1.585702	1.060383	-0.439080
C38	C	1.451252	1.060381	-0.573350
C39	C	1.451193	0.950659	-0.573323
C40	C	1.652828	0.895801	-0.371891
C41	C	1.720086	0.950659	-0.304767
C42	C	1.720150	1.060383	-0.304800
C43	C	1.652957	1.115249	-0.371956
C44	C	1.585710	0.438708	-0.951851
C45	C	1.585735	0.438670	-1.061575
C46	C	1.451301	0.573036	-1.061531
C47	C	1.451272	0.573068	-0.951809
C48	C	1.652920	0.371545	-0.897014
C49	C	1.720155	0.304343	-0.951894
C50	C	1.720180	0.304305	-1.061618
C51	C	1.652970	0.371469	-1.116463
C52	C	1.518364	0.506087	-0.233194
C53	C	1.518537	0.505836	-0.116418
H54	H	0.919335	0.384042	-0.384490
C55	C	1.793375	1.119773	-0.231993
C56	C	1.897278	1.092911	-0.254964
C57	C	1.964774	1.147570	-0.187902
H58	H	1.783969	1.193000	-0.241537
H59	H	1.778094	1.101827	-0.161368
H60	H	1.912554	1.110865	-0.325571
H61	H	1.906717	1.019694	-0.245413
H62	H	1.949493	1.129624	-0.117277
H63	H	1.955359	1.220794	-0.197451
H64	H	2.035278	1.129345	-0.203472
H65	H	1.396546	1.105061	-0.628025
C66	C	1.378520	0.646093	-1.121128
C67	C	1.438008	0.713436	-1.184081
C68	C	1.371001	0.780764	-1.238984
H69	H	1.332747	0.606012	-1.164026
H70	H	1.338495	0.686181	-1.072760
H71	H	1.478015	0.673352	-1.232443
H72	H	1.483777	0.753540	-1.141209
H73	H	1.330976	0.820852	-1.190616
H74	H	1.325232	0.740674	-1.281877
H75	H	1.411354	0.826470	-1.281697
C76	C	1.133472	0.365790	-0.366368
C77	C	1.241309	0.380148	-0.380734
C78	C	1.296361	0.312901	-0.313778
H79	H	1.115587	0.381018	-0.295709
H80	H	1.115562	0.295198	-0.381879
H81	H	1.259211	0.450724	-0.365215
H82	H	1.259225	0.364913	-0.451379
H83	H	1.278452	0.242309	-0.329289
H84	H	1.278468	0.328135	-0.243123
H85	H	1.369534	0.322627	-0.323523
C86	C	1.378268	0.646166	-0.892406
C87	C	1.319451	0.705014	-0.963912
C88	C	1.252206	0.772380	-0.909229
H89	H	1.332395	0.606121	-0.849595
H90	H	1.418431	0.692006	-0.849629
H91	H	1.279292	0.659180	-1.006671
H92	H	1.365297	0.745080	-1.006726
H93	H	1.292369	0.818220	-0.866451
H94	H	1.206340	0.732327	-0.866419
H95	H	1.212298	0.812324	-0.957736
H96	H	1.653024	1.204594	-0.371985
C97	C	0.904523	0.780739	-0.780391
C98	C	0.841594	0.721332	-0.847858
C99	C	0.786693	0.788418	-0.915098
H100	H	0.861608	0.826496	-0.740253
H101	H	0.952891	0.820778	-0.820394
H102	H	0.793232	0.681312	-0.807859
H103	H	0.884484	0.675579	-0.888019
H104	H	0.835061	0.828457	-0.955101
H105	H	0.743783	0.834171	-0.874952
H106	H	0.743997	0.748120	-0.960889
C107	C	1.247814	0.640702	-0.640476
C108	C	1.284145	0.713992	-0.713583
C109	C	1.393878	0.714117	-0.713769
H110	H	1.272722	0.658827	-0.572703
H111	H	1.272700	0.572942	-0.658807
H112	H	1.259269	0.781737	-0.695246
H113	H	1.259266	0.695884	-0.781367
H114	H	1.418764	0.646357	-0.732100
H115	H	1.418776	0.732240	-0.645992
H116	H	1.418542	0.763836	-0.763377
H117	H	1.774867	0.249654	-0.907232
H118	H	1.396431	0.905993	-0.627977
C119	C	1.653010	0.371392	-0.777886
C120	C	1.726238	0.298176	-0.741605
C121	C	1.726340	0.297999	-0.631871
H122	H	1.671180	0.439140	-0.752921
H123	H	1.585231	0.353168	-0.753023
H124	H	1.794002	0.316405	-0.766457
H125	H	1.708085	0.230417	-0.766540
H126	H	1.658561	0.279775	-0.607008
H127	H	1.744508	0.365750	-0.606917
H128	H	1.776017	0.248316	-0.607240
H129	H	1.652780	0.806458	-0.371854
H130	H	0.819893	0.640632	-0.640374
H131	H	1.774798	0.905982	-0.250097
C132	C	1.653192	0.371540	-1.235593
C133	C	1.753210	0.398366	-1.271898
C134	C	1.753455	0.398462	-1.381632
H135	H	1.635120	0.303769	-1.260565
H136	H	1.603592	0.421200	-1.260433
H137	H	1.802795	0.348709	-1.247069
H138	H	1.771303	0.466139	-1.246956
H139	H	1.703854	0.448121	-1.406472
H140	H	1.735379	0.330688	-1.406593
H141	H	1.821313	0.416672	-1.406279
H142	H	1.118525	0.762637	-0.762016
H143	H	1.774917	0.249578	-1.106298
