data_functionalizedCrystal
_audit_creation_method	'MofGen! by Chris Wilmer'
_symmetry_space_group_name_H-M	'P1'
_symmetry_Int_Tables_number	1
_symmetry_cell_setting	triclinic
loop_
_symmetry_equiv_pos_as_xyz
  x,y,z
_cell_length_a	11.169417
_cell_length_b	11.169416
_cell_length_c	11.169409
_cell_angle_alpha	90.031307
_cell_angle_beta	90.020564
_cell_angle_gamma	90.011027
loop_
_atom_site_label
_atom_site_type_symbol
_atom_site_fract_x
_atom_site_fract_y
_atom_site_fract_z
Zn1	Zn	-1.834973	0.477683	-0.678551
Zn2	Zn	-1.334973	0.977683	-0.178551
Zn3	Zn	-1.834860	0.678423	-0.477871
Zn4	Zn	-1.334860	1.178423	0.022129
Zn5	Zn	-1.634256	0.477755	-0.477885
Zn6	Zn	-1.134256	0.977755	0.022115
Zn7	Zn	-1.634267	0.678325	-0.678516
Zn8	Zn	-1.134267	1.178325	-0.178516
O9	O	-1.734589	0.578047	-0.578206
O10	O	-1.234589	1.078047	-0.078206
O11	O	-2.002907	0.504321	-0.651939
O12	O	-1.502907	1.004321	-0.151939
O13	O	-1.808198	0.651875	-0.309923
O14	O	-1.308198	1.151875	0.190077
O15	O	-1.660924	0.309796	-0.504524
O16	O	-1.160924	0.809796	-0.004524
O17	O	-2.002825	0.651804	-0.504500
O18	O	-1.502825	1.151804	-0.004500
O19	O	-1.808390	0.309742	-0.651953
O20	O	-1.308390	0.809742	-0.151953
O21	O	-1.660815	0.504446	-0.309934
O22	O	-1.160815	1.004446	0.190066
O23	O	-1.466308	0.504351	-0.504491
O24	O	-0.966308	1.004351	-0.004491
O25	O	-1.660942	0.651638	-0.846470
O26	O	-1.160942	1.151638	-0.346470
O27	O	-1.466316	0.651709	-0.651893
O28	O	-0.966316	1.151709	-0.151893
O29	O	-1.808400	0.504227	-0.846496
O30	O	-1.308400	1.004227	-0.346496
O31	O	-1.808208	0.846360	-0.504467
O32	O	-1.308208	1.346360	-0.004467
O33	O	-1.660833	0.846288	-0.651880
O34	O	-1.160833	1.346288	-0.151880
C35	C	-1.422764	0.578028	-0.578190
C36	C	-0.922764	1.078028	-0.078190
C37	C	-1.289364	0.578049	-0.578212
C38	C	-0.789364	1.078049	-0.078212
C39	C	-1.734542	0.889871	-0.578194
C40	C	-1.234542	1.389871	-0.078194
C41	C	-1.734632	1.023271	-0.578229
C42	C	-1.234632	1.523271	-0.078229
C43	C	-1.734685	0.577914	-0.891248
C44	C	-1.234685	1.077914	-0.391248
C45	C	-1.734726	0.577857	-1.024649
C46	C	-1.234726	1.077857	-0.524649
C47	C	-2.047631	0.578066	-0.578222
C48	C	-1.547631	1.078066	-0.078222
C49	C	-2.181031	0.578074	-0.578229
C50	C	-1.681031	1.078074	-0.078229
C51	C	-1.734668	0.265004	-0.578244
C52	C	-1.234668	0.765004	-0.078244
C53	C	-1.734702	0.131604	-0.578260
C54	C	-1.234702	0.631604	-0.078260
C55	C	-1.734562	0.578092	-0.266381
C56	C	-1.234562	1.078092	0.233619
C57	C	-1.734754	0.577811	-0.132982
C58	C	-1.234754	1.077811	0.367018
