data_functionalizedCrystal
_audit_creation_method	'MofGen! by Chris Wilmer'
_symmetry_space_group_name_H-M	'P1'
_symmetry_Int_Tables_number	1
_symmetry_cell_setting	triclinic
loop_
_symmetry_equiv_pos_as_xyz
  x,y,z
_cell_length_a	17.038272
_cell_length_b	11.792254
_cell_length_c	10.268362
_cell_angle_alpha	89.995475
_cell_angle_beta	89.994496
_cell_angle_gamma	87.655077
loop_
_atom_site_label
_atom_site_type_symbol
_atom_site_fract_x
_atom_site_fract_y
_atom_site_fract_z
O1	O	0.107255	1.516299	-0.108301
O2	O	0.607255	2.016299	0.391699
O3	O	0.118293	1.186927	-0.108304
O4	O	0.618293	1.686927	0.391696
O5	O	-0.001050	1.349655	-0.108292
O6	O	0.498950	1.849655	0.391708
O7	O	0.226598	1.353570	-0.108313
O8	O	0.726598	1.853570	0.391687
O9	O	-0.001055	1.349639	0.108309
O10	O	0.498945	1.849639	0.608309
O11	O	0.118288	1.186911	0.108297
O12	O	0.618288	1.686911	0.608297
O13	O	0.107250	1.516283	0.108300
O14	O	0.607250	2.016283	0.608300
Cu15	Cu	0.112768	1.351596	0.128076
Cu16	Cu	0.612768	1.851596	0.628076
Cu17	Cu	0.112774	1.351614	-0.128080
Cu18	Cu	0.612774	1.851614	0.371920
O19	O	0.226593	1.353555	0.108288
O20	O	0.726593	1.853555	0.608288
C21	C	0.117595	1.144567	-0.000004
C22	C	0.617595	1.644567	0.499996
C23	C	0.115514	1.018372	-0.000005
C24	C	0.615514	1.518372	0.499995
C25	C	0.113823	0.915887	-0.000010
C26	C	0.613823	1.415887	0.499990
C27	C	0.111708	0.787315	-0.000011
C28	C	0.611708	1.287315	0.499989
C29	C	-0.030197	1.346086	0.000008
C30	C	0.469803	1.846086	0.500008
C31	C	-0.117037	1.335462	0.000008
C32	C	0.382963	1.835462	0.500008
C33	C	-0.166717	1.433002	0.000010
C34	C	0.333283	1.933002	0.500010
C35	C	-0.248312	1.423013	-0.000002
C36	C	0.251688	1.923013	0.499998
C37	C	-0.280225	1.315483	-0.000008
C38	C	0.219775	1.815483	0.499992
C39	C	-0.230539	1.217937	-0.000014
C40	C	0.269461	1.717937	0.499986
C41	C	-0.148946	1.227927	-0.000011
C42	C	0.351054	1.727927	0.499989
C43	C	-0.526140	1.280190	-0.000026
C44	C	-0.026140	1.780190	0.499974
C45	C	-0.607740	1.270208	-0.000025
C46	C	-0.107740	1.770208	0.499975
C47	C	-0.625508	1.475285	-0.000016
C48	C	-0.125508	1.975285	0.499984
C49	C	-0.543912	1.485266	-0.000005
C50	C	-0.043912	1.985266	0.499995
C51	C	-0.494233	1.387719	-0.000018
C52	C	0.005767	1.887719	0.499982
C53	C	-0.363628	1.305271	-0.000016
C54	C	0.136372	1.805271	0.499984
C55	C	-0.410831	1.397933	-0.000019
C56	C	0.089169	1.897933	0.499981
C57	C	0.255740	1.357123	-0.000015
C58	C	0.755740	1.857123	0.499985
C59	C	0.342580	1.367747	-0.000023
C60	C	0.842580	1.867747	0.499977
C61	C	0.107947	1.558642	-0.000003
C62	C	0.607947	2.058642	0.499997
C63	C	0.110029	1.684838	-0.000011
C64	C	0.610029	2.184838	0.499989
N65	N	0.112764	1.351591	0.308242
N66	N	0.612764	1.851591	0.808242
N67	N	0.112773	1.351627	-0.308245
N68	N	0.612773	1.851627	0.191755
C69	C	0.112773	1.351608	0.573912
C70	C	0.612773	1.851608	1.073912
C71	C	0.112770	1.351595	0.426074
C72	C	0.612770	1.851595	0.926074
H73	H	-0.140740	1.520564	0.000022
H74	H	0.359260	2.020564	0.500022
H75	H	-0.485701	1.200760	-0.000036
H76	H	0.014299	1.700760	0.499964
C77	C	-0.680155	1.582576	-0.000021
C78	C	-0.180155	2.082576	0.499979
H79	H	-0.733320	1.561230	-0.000035
H80	H	-0.233320	2.061230	0.499965
H81	H	-0.670441	1.626344	0.075510
H82	H	-0.170441	2.126344	0.575510
H83	H	-0.670426	1.626341	-0.075567
H84	H	-0.170426	2.126341	0.424433
C85	C	-0.302957	1.530307	0.000013
C86	C	0.197043	2.030307	0.500013
H87	H	-0.272264	1.595777	0.000036
H88	H	0.227736	2.095777	0.500036
H89	H	-0.335152	1.530690	-0.075520
H90	H	0.164848	2.030690	0.424480
H91	H	-0.335159	1.530658	0.075557
H92	H	0.164841	2.030658	0.575557
C93	C	-0.508813	1.603548	-0.000016
C94	C	-0.008813	2.103548	0.499984
H95	H	-0.550087	1.660210	-0.000030
H96	H	-0.050087	2.160210	0.499970
H97	H	-0.477355	1.611707	0.075515
H98	H	0.022645	2.111707	0.575515
H99	H	-0.477350	1.611705	-0.075562
H100	H	0.022650	2.111705	0.424438
H101	H	-0.633720	1.182640	-0.000009
H102	H	-0.133720	1.682640	0.499991
C103	C	-0.265642	1.099657	-0.000016
C104	C	0.234358	1.599657	0.499984
H105	H	-0.321351	1.107675	-0.000003
H106	H	0.178649	1.607675	0.499997
H107	H	-0.248615	1.059166	-0.075548
H108	H	0.251385	1.559166	0.424452
H109	H	-0.248622	1.059163	0.075528
H110	H	0.251378	1.559163	0.575528
C111	C	-0.094298	1.120634	-0.000010
C112	C	0.405702	1.620634	0.499990
H113	H	-0.124988	1.055161	-0.000002
H114	H	0.375012	1.555161	0.499998
H115	H	-0.062094	1.120275	-0.075543
H116	H	0.437906	1.620275	0.424457
H117	H	-0.062104	1.120261	0.075534
H118	H	0.437896	1.620261	0.575534
H119	H	-0.384844	1.485483	-0.000043
H120	H	0.115156	1.985483	0.499957
H121	H	-0.389621	1.217719	-0.000018
H122	H	0.110379	1.717719	0.499982
