data_functionalizedCrystal
_audit_creation_method	'MofGen! by Chris Wilmer'
_symmetry_space_group_name_H-M	'P1'
_symmetry_Int_Tables_number	1
_symmetry_cell_setting	triclinic
loop_
_symmetry_equiv_pos_as_xyz
  x,y,z
_cell_length_a	14.971482
_cell_length_b	10.654551
_cell_length_c	14.048226
_cell_angle_alpha	89.996418
_cell_angle_beta	89.994098
_cell_angle_gamma	84.048985
loop_
_atom_site_label
_atom_site_type_symbol
_atom_site_fract_x
_atom_site_fract_y
_atom_site_fract_z
O1	O	1.187840	0.163637	-0.079142
O2	O	0.927546	0.183240	-0.079146
O3	O	1.063677	-0.009365	-0.079145
O4	O	1.051709	0.356242	-0.079144
O5	O	1.063661	-0.009377	0.079177
O6	O	0.927530	0.183229	0.079175
O7	O	1.187823	0.163625	0.079179
Zn8	Zn	1.057674	0.173425	0.104314
Zn9	Zn	1.057696	0.173440	-0.104281
O10	O	1.051692	0.356230	0.079178
C11	C	0.894208	0.182358	0.000014
C12	C	0.794897	0.179734	0.000012
C13	C	0.748236	0.178491	0.086314
C14	C	0.654924	0.176005	0.086315
C15	C	0.608274	0.174770	0.000013
C16	C	0.654941	0.176009	-0.086295
C17	C	0.748252	0.178486	-0.086295
C18	C	0.460451	0.170849	-0.086289
C19	C	0.367133	0.168374	-0.086290
C20	C	0.367123	0.168368	0.086321
C21	C	0.460434	0.170845	0.086321
C22	C	0.507095	0.172086	0.000012
C23	C	1.062790	-0.056159	0.000014
C24	C	1.060160	-0.195574	0.000007
C25	C	1.058936	-0.261067	-0.086292
C26	C	1.056457	-0.392061	-0.086287
C27	C	1.056431	-0.392058	0.086323
C28	C	1.058904	-0.261066	0.086318
C29	C	1.058954	-0.261070	-0.185947
C30	C	1.056475	-0.392064	-0.185943
C31	C	1.221161	0.164507	0.000017
C32	C	1.320473	0.167131	0.000012
C33	C	1.052580	0.403025	0.000017
C34	C	1.055209	0.542439	0.000017
N35	N	1.057665	0.173414	0.246675
N36	N	1.057711	0.173441	-0.246642
C37	C	1.117964	0.088164	0.296493
C38	C	1.117970	0.088163	0.396151
C39	C	1.057681	0.173420	0.445988
C40	C	0.997377	0.258674	0.396163
C41	C	0.997367	0.258668	0.296507
C42	C	0.997402	0.258683	0.603877
C43	C	0.997413	0.258691	0.703539
C44	C	1.118005	0.088179	0.703521
C45	C	1.117995	0.088172	0.603865
C46	C	1.057692	0.173429	0.554047
H47	H	0.786212	0.179507	0.156591
H48	H	0.991244	-0.420928	-0.216875
C49	C	0.931050	0.352446	0.450987
N50	N	0.881091	0.423076	0.492280
H51	H	1.118292	-0.439016	-0.224205
C52	C	0.603600	0.174668	0.181254
N53	N	0.564942	0.173670	0.252767
H54	H	1.055407	-0.445397	0.156594
H55	H	0.997147	-0.214122	-0.224216
C56	C	1.147088	-0.222065	-0.227720
N57	N	1.213473	-0.192686	-0.259182
C58	C	1.184286	-0.005627	0.241682
N59	N	1.234240	-0.076278	0.200400
C60	C	0.315820	0.167010	-0.181226
N61	N	0.277170	0.165982	-0.252734
H62	H	1.167068	0.018745	0.436713
C63	C	1.184316	-0.005614	0.549047
N64	N	1.234267	-0.076259	0.507757
H65	H	1.167106	0.018760	0.744090
H66	H	1.059896	-0.207746	0.156591
C67	C	0.315796	0.166994	0.181262
N68	N	0.277131	0.165961	0.252769
H69	H	0.948319	0.328115	0.744112
C70	C	0.511775	0.172221	-0.181234
N71	N	0.550431	0.173263	-0.252745
H72	H	0.948294	0.328104	0.563318
H73	H	0.616951	0.174995	-0.156564
H74	H	0.498414	0.171858	0.156596
C75	C	0.799578	0.179856	-0.181234
N76	N	0.838235	0.180884	-0.252745
C77	C	0.931041	0.352460	0.241707
N78	N	0.881083	0.423108	0.200432
