data_functionalizedCrystal
_audit_creation_method	'MofGen! by Chris Wilmer'
_symmetry_space_group_name_H-M	'P1'
_symmetry_Int_Tables_number	1
_symmetry_cell_setting	triclinic
loop_
_symmetry_equiv_pos_as_xyz
  x,y,z
_cell_length_a	15.944493
_cell_length_b	17.038274
_cell_length_c	15.021413
_cell_angle_alpha	90.003767
_cell_angle_beta	89.993251
_cell_angle_gamma	92.706585
loop_
_atom_site_label
_atom_site_type_symbol
_atom_site_fract_x
_atom_site_fract_y
_atom_site_fract_z
O1	O	1.121743	-0.100610	-0.074037
O2	O	1.371743	0.149390	0.175963
O3	O	1.621743	0.399390	0.425963
O4	O	1.871743	0.649390	0.675963
O5	O	0.878078	-0.113089	-0.074043
O6	O	1.128078	0.136911	0.175957
O7	O	1.378078	0.386911	0.425957
O8	O	1.628078	0.636911	0.675957
O9	O	0.998462	0.006966	-0.074015
O10	O	1.248462	0.256966	0.175985
O11	O	1.498462	0.506966	0.425985
O12	O	1.748462	0.756966	0.675985
O13	O	1.001359	-0.220665	-0.074064
O14	O	1.251359	0.029335	0.175936
O15	O	1.501359	0.279335	0.425936
O16	O	1.751359	0.529335	0.675936
O17	O	0.998443	0.006949	0.074049
O18	O	1.248443	0.256949	0.324049
O19	O	1.498443	0.506949	0.574049
O20	O	1.748443	0.756949	0.824049
O21	O	0.878058	-0.113106	0.074021
O22	O	1.128058	0.136894	0.324021
O23	O	1.378058	0.386894	0.574021
O24	O	1.628058	0.636894	0.824021
O25	O	1.121724	-0.100627	0.074028
O26	O	1.371724	0.149373	0.324028
O27	O	1.621724	0.399373	0.574028
O28	O	1.871724	0.649373	0.824028
Zn29	Zn	0.999888	-0.106869	0.097533
Zn30	Zn	1.249888	0.143131	0.347533
Zn31	Zn	1.499888	0.393131	0.597533
Zn32	Zn	1.749888	0.643131	0.847533
Zn33	Zn	0.999913	-0.106847	-0.097548
Zn34	Zn	1.249913	0.143153	0.152452
Zn35	Zn	1.499913	0.393153	0.402452
Zn36	Zn	1.749913	0.643153	0.652452
O37	O	1.001339	-0.220682	0.074000
O38	O	1.251339	0.029318	0.324000
O39	O	1.501339	0.279318	0.574000
O40	O	1.751339	0.529318	0.824000
C41	C	0.846737	-0.112588	-0.000011
C42	C	1.096737	0.137412	0.249989
C43	C	1.346737	0.387412	0.499989
C44	C	1.596737	0.637412	0.749989
C45	C	0.753379	-0.111059	-0.000013
C46	C	1.003379	0.138941	0.249987
C47	C	1.253379	0.388941	0.499987
C48	C	1.503379	0.638941	0.749987
C49	C	0.522665	-0.181726	-0.000029
C50	C	0.772665	0.068274	0.249971
C51	C	1.022665	0.318274	0.499971
C52	C	1.272665	0.568274	0.749971
C53	C	0.469376	-0.143626	0.072987
C54	C	0.719376	0.106374	0.322987
C55	C	0.969376	0.356374	0.572987
C56	C	1.219376	0.606374	0.822987
C57	C	0.582456	-0.108225	-0.000010
C58	C	0.832456	0.141775	0.249990
C59	C	1.082456	0.391775	0.499990
C60	C	1.332456	0.641775	0.749990
C61	C	0.469398	-0.143592	-0.072993
C62	C	0.719398	0.106408	0.177007
C63	C	0.969398	0.356408	0.427007
C64	C	1.219398	0.606408	0.677007
C65	C	0.417351	-0.105494	-0.000012
C66	C	0.667351	0.144506	0.249988
C67	C	0.917351	0.394506	0.499988
C68	C	1.167351	0.644506	0.749988
C69	C	0.530397	-0.070145	0.073065
C70	C	0.780397	0.179855	0.323065
C71	C	1.030397	0.429855	0.573065
C72	C	1.280397	0.679855	0.823065
C73	C	0.530423	-0.070122	-0.072980
C74	C	0.780423	0.179878	0.177020
C75	C	1.030423	0.429878	0.427020
C76	C	1.280423	0.679878	0.677020
C77	C	0.477163	-0.031968	0.000053
C78	C	0.727163	0.218032	0.250053
C79	C	0.977163	0.468032	0.500053
C80	C	1.227163	0.718032	0.750053
C81	C	0.677568	-0.109801	-0.000009
C82	C	0.927568	0.140199	0.249991
C83	C	1.177568	0.390199	0.499991
C84	C	1.427568	0.640199	0.749991
C85	C	0.322241	-0.103912	-0.000007
C86	C	0.572241	0.146088	0.249993
C87	C	0.822241	0.396088	0.499993
C88	C	1.072241	0.646088	0.749993
C89	C	0.995818	0.036086	0.000021
C90	C	1.245818	0.286086	0.250021
C91	C	1.495818	0.536086	0.500021
C92	C	1.745818	0.786086	0.750021
C93	C	0.987958	0.122880	0.000034
C94	C	1.237958	0.372880	0.250034
C95	C	1.487958	0.622880	0.500034
C96	C	1.737958	0.872880	0.750034
C97	C	1.060117	0.172986	0.000044
C98	C	1.310117	0.422986	0.250044
C99	C	1.560117	0.672986	0.500044
C100	C	1.810117	0.922986	0.750044
C101	C	1.052727	0.254538	0.000048
C102	C	1.302727	0.504538	0.250048
C103	C	1.552727	0.754538	0.500048
C104	C	1.802727	1.004538	0.750048
C105	C	0.973178	0.285981	0.000049
C106	C	1.223178	0.535981	0.250049
C107	C	1.473178	0.785981	0.500049
C108	C	1.723178	1.035981	0.750049
C109	C	0.901014	0.235867	0.000036
C110	C	1.151014	0.485867	0.250036
C111	C	1.401014	0.735867	0.500036
C112	C	1.651014	0.985867	0.750036
C113	C	0.908405	0.154318	0.000025
C114	C	1.158405	0.404318	0.250025
C115	C	1.408405	0.654318	0.500025
C116	C	1.658405	0.904318	0.750025
C117	C	0.947068	0.531741	0.000074
C118	C	1.197068	0.781741	0.250074
C119	C	1.447068	1.031741	0.500074
C120	C	1.697068	1.281741	0.750074
C121	C	0.939683	0.613297	0.000087
C122	C	1.189683	0.863297	0.250087
C123	C	1.439683	1.113297	0.500087
C124	C	1.689683	1.363297	0.750087
C125	C	1.091396	0.631962	0.000097
C126	C	1.341396	0.881962	0.250097
C127	C	1.591396	1.131962	0.500097
C128	C	1.841396	1.381962	0.750097
C129	C	1.098780	0.550410	0.000092
C130	C	1.348780	0.800410	0.250092
C131	C	1.598780	1.050410	0.500092
C132	C	1.848780	1.300410	0.750092
C133	C	1.026616	0.500304	0.000075
C134	C	1.276616	0.750304	0.250075
C135	C	1.526616	1.000304	0.500075
C136	C	1.776616	1.250304	0.750075
C137	C	0.965622	0.369339	0.000055
C138	C	1.215622	0.619339	0.250055
C139	C	1.465622	0.869339	0.500055
C140	C	1.715622	1.119339	0.750055
C141	C	1.034172	0.416947	0.000062
C142	C	1.284172	0.666947	0.250062
C143	C	1.534172	0.916947	0.500062
C144	C	1.784172	1.166947	0.750062
C145	C	1.153065	-0.101128	-0.000006
C146	C	1.403065	0.148872	0.249994
C147	C	1.653065	0.398872	0.499994
C148	C	1.903065	0.648872	0.749994
C149	C	1.246422	-0.102658	-0.000011
C150	C	1.496422	0.147342	0.249989
C151	C	1.746422	0.397342	0.499989
C152	C	1.996422	0.647342	0.749989
C153	C	1.003983	0.750198	0.000000
C154	C	1.253983	1.000198	0.250000
C155	C	1.503983	1.250198	0.500000
C156	C	1.753983	1.500198	0.750000
C157	C	1.011841	0.663404	0.000097
C158	C	1.261841	0.913404	0.250097
C159	C	1.511841	1.163404	0.500097
C160	C	1.761841	1.413404	0.750097
N161	N	0.999877	-0.106884	0.230670
N162	N	1.249877	0.143116	0.480670
N163	N	1.499877	0.393116	0.730670
N164	N	1.749877	0.643116	0.980670
N165	N	0.999931	-0.106826	-0.230686
N166	N	1.249931	0.143174	0.019314
N167	N	1.499931	0.393174	0.269314
N168	N	1.749931	0.643174	0.519314
C169	C	0.944200	-0.162372	0.470341
C170	C	1.194200	0.087628	0.720341
C171	C	1.444200	0.337628	0.970341
C172	C	1.694200	0.587628	1.220341
C173	C	1.021185	-0.177536	0.529673
C174	C	1.271185	0.072464	0.779673
C175	C	1.521185	0.322464	1.029673
C176	C	1.771185	0.572464	1.279673
C177	C	0.999897	-0.106865	0.412277
C178	C	1.249897	0.143135	0.662277
C179	C	1.499897	0.393135	0.912277
C180	C	1.749897	0.643135	1.162277
C181	C	0.922933	-0.091718	0.529687
C182	C	1.172933	0.158282	0.779687
C183	C	1.422933	0.408282	1.029687
C184	C	1.672933	0.658282	1.279687
C185	C	0.999910	-0.106848	0.587701
C186	C	1.249910	0.143152	0.837701
C187	C	1.499910	0.393152	1.087701
C188	C	1.749910	0.643152	1.337701
C189	C	1.076923	-0.122064	0.470303
C190	C	1.326923	0.127936	0.720303
C191	C	1.576923	0.377936	0.970303
C192	C	1.826923	0.627936	1.220303
C193	C	0.978619	-0.036216	0.470311
C194	C	1.228619	0.213784	0.720311
C195	C	1.478619	0.463784	0.970311
C196	C	1.728619	0.713784	1.220311
C197	C	1.055657	-0.051350	0.529617
C198	C	1.305657	0.198650	0.779617
C199	C	1.555657	0.448650	1.029617
C200	C	1.805657	0.698650	1.279617
C201	C	0.999888	-0.106877	0.311220
C202	C	1.249888	0.143123	0.561220
C203	C	1.499888	0.393123	0.811220
C204	C	1.749888	0.643123	1.061220
C205	C	0.999927	-0.106835	0.688756
C206	C	1.249927	0.143165	0.938756
C207	C	1.499927	0.393165	1.188756
C208	C	1.749927	0.643165	1.438756
H209	H	0.442685	-0.174640	-0.134713
H210	H	0.692685	0.075360	0.115287
H211	H	0.942685	0.325360	0.365287
H212	H	1.192685	0.575360	0.615287
Cl213	Cl	0.571467	-0.022263	0.168467
Cl214	Cl	0.821467	0.227737	0.418467
Cl215	Cl	1.071467	0.477737	0.668467
Cl216	Cl	1.321467	0.727737	0.918467
Cl217	Cl	0.446290	0.065852	0.000139
Cl218	Cl	0.696290	0.315852	0.250139
Cl219	Cl	0.946290	0.565852	0.500139
Cl220	Cl	1.196290	0.815852	0.750139
Cl221	Cl	0.871564	-0.234899	0.430151
Cl222	Cl	1.121564	0.015101	0.680151
Cl223	Cl	1.371564	0.265101	0.930151
Cl224	Cl	1.621564	0.515101	1.180151
Cl225	Cl	1.160127	0.133467	0.000053
Cl226	Cl	1.410127	0.383467	0.250053
Cl227	Cl	1.660127	0.633467	0.500053
Cl228	Cl	1.910127	0.883467	0.750053
H229	H	1.111486	0.295332	0.000058
H230	H	1.361486	0.545332	0.250058
H231	H	1.611486	0.795332	0.500058
H232	H	1.861486	1.045332	0.750058
Cl233	Cl	0.822438	-0.071948	0.569961
Cl234	Cl	1.072438	0.178052	0.819961
Cl235	Cl	1.322438	0.428052	1.069961
Cl236	Cl	1.572438	0.678052	1.319961
Cl237	Cl	0.817687	0.091326	0.000010
Cl238	Cl	1.067687	0.341326	0.250010
Cl239	Cl	1.317687	0.591326	0.500010
Cl240	Cl	1.567687	0.841326	0.750010
Cl241	Cl	0.553777	-0.279472	0.000056
Cl242	Cl	0.803777	-0.029472	0.250056
Cl243	Cl	1.053777	0.220528	0.500056
Cl244	Cl	1.303777	0.470528	0.750056
Cl245	Cl	0.571723	-0.022231	-0.168268
Cl246	Cl	0.821723	0.227769	0.081732
Cl247	Cl	1.071723	0.477769	0.331732
Cl248	Cl	1.321723	0.727769	0.581732
Cl249	Cl	0.428106	-0.191559	0.168268
Cl250	Cl	0.678106	0.058441	0.418268
Cl251	Cl	0.928106	0.308441	0.668268
Cl252	Cl	1.178106	0.558441	0.918268
Cl253	Cl	1.198789	0.510888	0.000063
Cl254	Cl	1.448789	0.760888	0.250063
Cl255	Cl	1.698789	1.010888	0.500063
Cl256	Cl	1.948789	1.260888	0.750063
Cl257	Cl	1.128467	0.021137	0.569556
Cl258	Cl	1.378467	0.271137	0.819556
Cl259	Cl	1.628467	0.521137	1.069556
Cl260	Cl	1.878467	0.771137	1.319556
H261	H	1.150148	0.672766	0.000110
H262	H	1.400148	0.922766	0.250110
H263	H	1.650148	1.172766	0.500110
H264	H	1.900148	1.422766	0.750110
Cl265	Cl	0.839670	0.652824	0.000093
Cl266	Cl	1.089670	0.902824	0.250093
Cl267	Cl	1.339670	1.152824	0.500093
Cl268	Cl	1.589670	1.402824	0.750093
Cl269	Cl	0.801009	0.275396	0.000025
Cl270	Cl	1.051009	0.525396	0.250025
Cl271	Cl	1.301009	0.775396	0.500025
Cl272	Cl	1.551009	1.025396	0.750025
Cl273	Cl	0.856346	0.468761	0.000050
Cl274	Cl	1.106346	0.718761	0.250050
Cl275	Cl	1.356346	0.968761	0.500050
Cl276	Cl	1.606346	1.218761	0.750050
Cl277	Cl	1.134173	0.377417	0.000057
Cl278	Cl	1.384173	0.627417	0.250057
Cl279	Cl	1.634173	0.877417	0.500057
Cl280	Cl	1.884173	1.127417	0.750057
Cl281	Cl	0.865620	0.408874	0.000051
Cl282	Cl	1.115620	0.658874	0.250051
Cl283	Cl	1.365620	0.908874	0.500051
Cl284	Cl	1.615620	1.158874	0.750051
Cl285	Cl	1.048991	-0.269766	0.569932
Cl286	Cl	1.298991	-0.019766	0.819932
Cl287	Cl	1.548991	0.230234	1.069932
Cl288	Cl	1.798991	0.480234	1.319932
H289	H	1.142034	-0.134939	0.444328
H290	H	1.392034	0.115061	0.694328
H291	H	1.642034	0.365061	0.944328
H292	H	1.892034	0.615061	1.194328
H293	H	0.960588	0.023504	0.444216
H294	H	1.210588	0.273504	0.694216
H295	H	1.460588	0.523504	0.944216
H296	H	1.710588	0.773504	1.194216
