data_functionalizedCrystal
_audit_creation_method	'MofGen! by Chris Wilmer'
_symmetry_space_group_name_H-M	'P1'
_symmetry_Int_Tables_number	1
_symmetry_cell_setting	triclinic
loop_
_symmetry_equiv_pos_as_xyz
  x,y,z
_cell_length_a	23.096457
_cell_length_b	17.917603
_cell_length_c	17.917603
_cell_angle_alpha	60.138055
_cell_angle_beta	90.000770
_cell_angle_gamma	63.033951
loop_
_atom_site_label
_atom_site_type_symbol
_atom_site_fract_x
_atom_site_fract_y
_atom_site_fract_z
Zr1	Zr	0.590802	0.806868	-0.129087
O2	O	0.507725	0.951899	-0.249619
O3	O	0.612299	0.654640	-0.087437
O4	O	0.622788	0.796492	-0.242846
O5	O	0.493477	0.820740	0.023032
O6	O	0.718069	0.796494	-0.242850
O7	O	0.497235	0.810047	-0.094210
O8	O	0.699306	0.542746	0.035148
O9	O	0.512241	1.074488	-0.254967
O10	O	0.697371	0.719920	-0.075356
O11	O	0.623460	0.727899	0.012144
O12	O	0.635810	0.894912	-0.170831
O13	O	0.561898	0.902891	-0.083331
Zr14	Zr	0.736770	0.823925	0.057893
Zr15	Zr	0.742763	0.806870	-0.129094
Zr16	Zr	0.584808	0.823922	0.057900
Zr17	Zr	0.598005	1.002383	-0.137616
Zr18	Zr	0.729567	0.628410	0.066422
O19	O	0.715273	0.976153	0.016243
O20	O	0.723794	0.951903	-0.249629
O21	O	0.499203	0.976149	0.016253
O22	O	0.819847	0.678894	0.178425
O23	O	0.828369	0.654644	-0.087447
O24	O	0.603777	0.678890	0.178435
O25	O	0.834094	0.810053	-0.094226
O26	O	0.704783	0.834300	0.171652
O27	O	0.609503	0.834299	0.171656
O28	O	0.830336	0.820746	0.023016
O29	O	0.633030	1.074490	-0.254972
O30	O	0.694542	0.556303	0.183778
O31	O	0.815331	0.556305	0.183773
O32	O	0.820095	0.542748	0.035143
O33	O	0.507477	1.088044	-0.106337
O34	O	0.628266	1.088046	-0.106342
O35	O	0.691762	0.735881	0.099637
O36	O	0.765673	0.727902	0.012137
O37	O	0.704112	0.902894	-0.083338
O38	O	0.630201	0.910873	0.004162
C39	C	0.654776	0.570836	-0.024929
C40	C	0.651718	0.487835	-0.021308
C41	C	0.646132	0.335868	-0.014697
C42	C	0.681438	0.294920	-0.056495
C43	C	0.678330	0.210360	-0.052816
C44	C	0.649239	0.420436	-0.018375
C45	C	0.473705	0.815393	-0.035588
C46	C	0.409193	0.815392	-0.035585
C47	C	0.411023	0.724050	0.014243
C48	C	0.350407	0.724049	0.014247
C49	C	0.287963	0.815393	-0.035595
C50	C	0.286137	0.906748	-0.085426
C51	C	0.346752	0.906747	-0.085421
N52	N	0.170169	0.879707	-0.113030
N53	N	0.112590	0.879702	-0.113033
C54	C	0.105331	0.815401	-0.035611
N55	N	0.157834	0.751091	0.041814
N56	N	0.215420	0.751093	0.041815
C57	C	0.222233	0.815405	-0.035605
C58	C	0.041436	0.724052	0.014226
C59	C	-0.019182	0.724055	0.014232
C60	C	-0.083451	0.906756	-0.085449
C61	C	-0.022834	0.906751	-0.085446
C62	C	0.039608	0.815396	-0.035611
C63	C	0.853867	0.815400	-0.035606
C64	C	0.918378	0.815401	-0.035609
C65	C	0.671283	0.794063	-0.269490
C66	C	0.673827	0.786823	-0.348871
C67	C	0.672796	1.059956	-0.046265
C68	C	0.675853	1.142958	-0.049886
C69	C	0.678489	0.773598	-0.494226
C70	C	0.649084	0.857190	-0.576971
C71	C	0.651678	0.849832	-0.657852
C72	C	0.675896	0.780955	-0.413336
C73	C	0.656289	0.836729	0.198296
C74	C	0.653745	0.843970	0.277677
C75	C	0.844857	0.570840	-0.024938
C76	C	0.906311	0.487840	-0.021320
C77	C	0.647279	0.592169	0.208964
C78	C	0.641677	0.516408	0.291965
C79	C	0.837360	0.592173	0.208955
C80	C	0.896270	0.516413	0.291953
C81	C	0.490212	1.038620	-0.280149
C82	C	0.431302	1.114380	-0.363147
C83	C	0.482715	1.059953	-0.046256
C84	C	0.421261	1.142953	-0.049874
C85	C	0.680292	1.038623	-0.280157
C86	C	0.685895	1.114384	-0.363159
C87	C	0.899517	0.444695	-0.065300
C88	C	0.957255	0.366716	-0.061918
C89	C	1.021785	0.331879	-0.014552
C90	C	1.028577	0.375032	0.029428
C91	C	0.970841	0.453014	0.026041
C92	C	0.674699	0.484997	0.376622
C93	C	0.669433	0.413823	0.454617
C94	C	0.631148	0.374056	0.447954
C95	C	0.598122	0.405474	0.363289
C96	C	0.603385	0.476652	0.285295
C97	C	0.962521	0.476670	0.285257
C98	C	1.017880	0.405496	0.363235
C99	C	1.006984	0.374060	0.447910
C100	C	0.940726	0.413810	0.454604
C101	C	0.885369	0.484989	0.376627
C102	C	0.365051	1.154132	-0.356451
C103	C	0.309693	1.225331	-0.434430
C104	C	0.320589	1.256770	-0.519105
C105	C	0.386847	1.217015	-0.525800
C106	C	0.442203	1.145823	-0.447821
C107	C	0.428055	1.186105	-0.005903
C108	C	0.370319	1.264103	-0.009305
C109	C	0.305789	1.298943	-0.056674
C110	C	0.298996	1.255787	-0.100651
C111	C	0.356732	1.177795	-0.097253
C112	C	0.724185	1.154129	-0.356467
C113	C	0.729462	1.225305	-0.434448
C114	C	0.696444	1.256740	-0.519121
C115	C	0.658153	1.216988	-0.525811
C116	C	0.652880	1.145808	-0.447830
H117	H	0.461861	0.649661	0.054818
H118	H	0.971406	0.502254	0.216317
C119	C	0.812495	0.528687	0.384005
H120	H	0.813940	0.499757	0.445604
H121	H	0.790876	0.599835	0.353601
H122	H	0.787712	0.513404	0.357377
C123	C	0.398823	1.251597	-0.618944
H124	H	0.356362	1.299680	-0.664419
H125	H	0.425340	1.281427	-0.626832
H126	H	0.422146	1.195012	-0.623051
H127	H	0.621697	1.113455	-0.453292
H128	H	0.696330	0.388251	0.523548
H129	H	0.351896	0.649665	0.054824
C130	C	0.760509	1.119557	-0.263335
H131	H	0.751886	1.071477	-0.217843
H132	H	0.808011	1.089726	-0.255470
H133	H	0.744032	1.176145	-0.259235
C134	C	0.978321	0.500454	0.074435
H135	H	1.025023	0.468525	0.103135
H136	H	0.960197	0.570489	0.031818
H137	H	0.954369	0.491594	0.118225
C138	C	0.702243	1.335045	-0.604892
H139	H	0.729772	1.354217	-0.588772
H140	H	0.722256	1.306417	-0.637528
H141	H	0.658275	1.392825	-0.641283
C142	C	0.725422	0.333353	-0.108577
H143	H	0.721762	0.385976	-0.104256
H144	H	0.771482	0.279471	-0.083605
H145	H	0.710141	0.358346	-0.170010
C146	C	1.085288	0.246092	-0.010824
H147	H	1.071994	0.225384	-0.043795
H148	H	1.114441	0.269411	-0.036392
H149	H	1.108600	0.190543	0.050022
C150	C	0.949770	0.319252	-0.110288
H151	H	0.903068	0.351160	-0.138966
H152	H	0.973719	0.328095	-0.154079
H153	H	0.967898	0.249215	-0.067650
C154	C	0.771576	1.269031	-0.427078
H155	H	0.769998	1.315918	-0.485643
H156	H	0.753367	1.302283	-0.397417
H157	H	0.817353	1.215861	-0.393637
C158	C	0.612438	0.961336	-0.590616
H159	H	0.615473	0.952682	-0.533672
H160	H	0.633191	0.997795	-0.623289
H161	H	0.566032	0.997774	-0.623290
H162	H	0.705609	0.696512	-0.484131
H163	H	0.846979	0.473057	-0.103881
H164	H	1.081125	0.346656	0.067993
H165	H	0.626868	0.316099	0.511469
C166	C	0.716811	0.528735	0.383964
H167	H	0.715225	0.575622	0.325394
H168	H	0.698604	0.561989	0.413624
H169	H	0.762590	0.475571	0.417399
H170	H	0.631271	1.242594	-0.594762
C171	C	0.556021	0.361713	0.355971
H172	H	0.557628	0.314814	0.414551
H173	H	0.510240	0.414855	0.322543
H174	H	0.574235	0.328445	0.326319
C175	C	0.377802	1.311552	0.039082
H176	H	0.424503	1.279616	0.067791
H177	H	0.359686	1.381583	-0.003541
H178	H	0.353842	1.302707	0.082864
C179	C	0.928746	0.379227	0.547747
H180	H	0.881361	0.413092	0.540576
H181	H	0.947151	0.308424	0.581949
H182	H	0.950329	0.394847	0.578174
C183	C	0.259692	1.335066	-0.604873
H184	H	0.218676	1.354223	-0.588749
H185	H	0.262999	1.392846	-0.641280
H186	H	0.259825	1.306415	-0.637493
C187	C	0.353056	1.119562	-0.263317
H188	H	0.395508	1.071463	-0.217826
H189	H	0.329728	1.176146	-0.259216
H190	H	0.326536	1.089737	-0.255449
C191	C	0.602140	0.297450	0.037365
H192	H	0.605792	0.244841	0.033026
H193	H	0.617402	0.272462	0.098796
H194	H	0.556078	0.351345	0.012371
H195	H	0.576496	0.502217	0.216367
C196	C	0.236817	1.269040	-0.427050
H197	H	0.238261	1.240101	-0.365451
H198	H	0.215207	1.340186	-0.457442
H199	H	0.212027	1.253775	-0.453691
H200	H	1.071826	0.373137	0.357768
H201	H	0.496147	1.113457	-0.453284
H202	H	0.235291	0.981121	-0.126007
H203	H	1.052065	0.316101	0.511397
H204	H	0.258782	1.362449	-0.059434
C205	C	0.499030	1.147796	0.046208
H206	H	0.494798	1.184681	0.071897
H207	H	0.520121	1.078111	0.092643
H208	H	0.525955	1.156984	0.006222
H209	H	0.246449	1.284165	-0.139218
H210	H	0.345258	0.981131	-0.125995
C211	C	0.110121	0.623570	0.069058
H212	H	0.102527	0.569169	0.098749
H213	H	0.136434	0.615994	0.029817
H214	H	0.133771	0.623551	0.112454
H215	H	0.351191	1.142662	-0.133058
H216	H	-0.017687	0.649671	0.054815
H217	H	-0.024326	0.981131	-0.126028
C218	C	-0.152130	1.007237	-0.140272
H219	H	-0.144536	1.061639	-0.169946
H220	H	-0.175788	1.007269	-0.183667
H221	H	-0.178435	1.014801	-0.101016
