data_functionalizedCrystal
_audit_creation_method	'MofGen! by Chris Wilmer'
_symmetry_space_group_name_H-M	'P1'
_symmetry_Int_Tables_number	1
_symmetry_cell_setting	triclinic
loop_
_symmetry_equiv_pos_as_xyz
  x,y,z
_cell_length_a	10.489741
_cell_length_b	23.532407
_cell_length_c	9.565339
_cell_angle_alpha	89.995586
_cell_angle_beta	89.999100
_cell_angle_gamma	83.693926
loop_
_atom_site_label
_atom_site_type_symbol
_atom_site_fract_x
_atom_site_fract_y
_atom_site_fract_z
O1	O	1.691382	0.080340	-0.116190
O2	O	1.319936	0.087882	-0.116213
O3	O	1.516860	0.001253	-0.116175
O4	O	1.494458	0.166968	-0.116228
O5	O	1.516844	0.001259	0.116345
O6	O	1.319920	0.087887	0.116307
O7	O	1.691366	0.080345	0.116330
Zn8	Zn	1.505641	0.084117	0.153236
Zn9	Zn	1.505661	0.084110	-0.153119
O10	O	1.494442	0.166974	0.116293
C11	C	1.272415	0.087315	0.000045
C12	C	1.130842	0.085611	0.000037
C13	C	1.064535	0.030491	0.000067
C14	C	0.971550	0.056527	-0.114582
C15	C	0.971568	0.056545	0.114664
C16	C	1.039722	0.111668	-0.114708
C17	C	1.039750	0.111679	0.114642
C18	C	0.946792	0.137754	-0.000036
C19	C	1.516282	-0.019964	0.000089
C20	C	1.514566	-0.083192	0.000099
C21	C	1.620344	-0.481594	0.000029
C22	C	1.618751	-0.541005	0.000019
O23	O	1.716808	-0.577100	-0.000027
N24	N	1.501680	-0.564407	0.000012
C25	C	1.386194	-0.528395	0.000002
O26	O	1.286470	-0.553755	-0.000005
C27	C	1.387789	-0.468985	0.000003
C28	C	1.504868	-0.445587	0.000024
C29	C	1.737414	-0.458195	0.000048
C30	C	1.739007	-0.398788	0.000062
C31	C	1.623530	-0.362781	0.000056
C32	C	1.506460	-0.386180	0.000037
C33	C	1.272305	-0.432974	-0.000017
C34	C	1.273909	-0.373561	-0.000017
C35	C	1.390988	-0.350162	0.000003
C36	C	1.392576	-0.290766	0.000045
N37	N	1.509648	-0.267364	0.000051
C38	C	1.625125	-0.303371	0.000057
C39	C	1.382854	-0.653160	-0.000002
C40	C	1.381258	-0.712568	0.000008
C41	C	1.613816	-0.725174	0.000021
C42	C	1.615410	-0.665765	0.000022
C43	C	1.499926	-0.629758	0.000005
C44	C	1.628461	-0.178612	0.000086
C45	C	1.630043	-0.119200	0.000105
C46	C	1.397486	-0.106599	0.000084
C47	C	1.395903	-0.166006	0.000072
C48	C	1.511401	-0.202012	0.000068
O49	O	1.294571	-0.254636	0.000084
O50	O	1.724833	-0.278003	0.000046
C51	C	1.738887	0.080912	0.000070
C52	C	1.880460	0.082616	0.000069
C53	C	1.495021	0.188191	0.000026
C54	C	1.496736	0.251419	0.000006
N55	N	1.505636	0.084122	0.362316
N56	N	1.505676	0.084101	-0.362198
C57	C	1.414538	0.124171	0.453501
C58	C	1.529652	0.135693	0.546683
C59	C	1.390572	0.072603	0.546689
C60	C	1.620808	0.095670	0.453446
C61	C	1.481652	0.032557	0.453444
C62	C	1.596850	0.044059	0.546584
H63	H	1.722510	-0.207922	0.000077
H64	H	1.461303	-0.011026	0.412456
O65	O	1.553922	0.187661	0.595795
C66	C	1.582118	0.245713	0.798610
C67	C	1.554669	0.186828	0.743185
H68	H	1.582704	0.245063	0.917781
H69	H	1.679508	0.255873	0.758766
H70	H	1.504366	0.279814	0.760300
H71	H	1.632340	0.152689	0.781473
H72	H	1.457240	0.176718	0.783018
H73	H	1.718153	0.105455	0.412660
O74	O	0.935314	0.028713	0.230201
C75	C	0.760218	-0.003567	0.360346
C76	C	0.801097	0.027958	0.229437
H77	H	0.651699	-0.004176	0.359787
H78	H	0.809007	-0.049311	0.360211
H79	H	0.789690	0.019486	0.458018
H80	H	0.771632	0.004953	0.131696
H81	H	0.752318	0.073704	0.229696
H82	H	1.673989	0.010180	0.587197
H83	H	1.834344	-0.379743	0.000072
H84	H	1.293248	0.062870	0.587651
H85	H	1.115731	-0.014820	-0.000062
H86	H	0.941317	0.033202	-0.211498
O87	O	1.075797	0.139427	-0.230437
C88	C	1.250528	0.172209	-0.360241
C89	C	1.209849	0.140751	-0.229138
H90	H	1.358907	0.173299	-0.359220
H91	H	1.221962	0.148868	-0.457863
H92	H	1.200802	0.217788	-0.360649
H93	H	1.259554	0.095170	-0.228594
H94	H	1.238391	0.164136	-0.131575
O95	O	1.158538	-0.455665	-0.000294
C96	C	0.959267	-0.463007	-0.120764
C97	C	1.088084	-0.437285	-0.120636
H98	H	0.902257	-0.448147	-0.218035
H99	H	0.977857	-0.511657	-0.120858
H100	H	0.902281	-0.448226	-0.023421
H101	H	1.145135	-0.452023	-0.217962
H102	H	1.069403	-0.388638	-0.120468
H103	H	1.288807	-0.623845	-0.000004
O104	O	1.849481	-0.493250	-0.000007
C105	C	1.950140	-0.590354	0.000098
C106	C	1.823121	-0.550726	0.000115
H107	H	1.928872	-0.636832	0.000226
H108	H	2.007816	-0.581818	-0.097227
H109	H	2.007775	-0.581743	0.097392
H110	H	1.765383	-0.559314	-0.097113
H111	H	1.765541	-0.559270	0.097504
H112	H	0.895860	0.183113	-0.000113
H113	H	1.285921	-0.731613	0.000015
H114	H	1.070015	0.134984	0.211562
H115	H	1.725387	-0.100152	0.000125
H116	H	1.707843	-0.754503	0.000020
O117	O	1.161758	-0.338561	-0.000277
C118	C	1.028629	-0.264140	-0.120701
C119	C	1.155670	-0.303752	-0.120601
H120	H	1.023678	-0.235979	-0.217957
H121	H	0.944635	-0.291044	-0.120806
H122	H	1.023563	-0.236042	-0.023343
H123	H	1.160862	-0.331858	-0.217942
H124	H	1.239604	-0.276814	-0.120422
H125	H	1.710746	-0.646718	0.000038
O126	O	1.285236	-0.071673	-0.000116
C127	C	1.087026	-0.042676	-0.120669
C128	C	1.214088	-0.082274	-0.120584
H129	H	1.029480	-0.051225	-0.218072
H130	H	1.029259	-0.051252	-0.023440
H131	H	1.108323	0.003798	-0.120598
H132	H	1.192907	-0.128762	-0.120704
H133	H	1.271817	-0.073650	-0.217804
O134	O	1.322851	0.164685	0.404792
C135	C	1.244574	0.264813	0.397109
C136	C	1.348498	0.218991	0.452342
H137	H	1.265258	0.308729	0.435555
H138	H	1.244802	0.264217	0.277934
H139	H	1.146661	0.255406	0.437031
H140	H	1.446462	0.228367	0.412524
H141	H	1.348157	0.219597	0.571516
H142	H	1.300568	-0.185058	0.000094
