data_functionalizedCrystal
_audit_creation_method	'MofGen! by Chris Wilmer'
_symmetry_space_group_name_H-M	'P1'
_symmetry_Int_Tables_number	1
_symmetry_cell_setting	triclinic
loop_
_symmetry_equiv_pos_as_xyz
  x,y,z
_cell_length_a	15.944557
_cell_length_b	15.021413
_cell_length_c	17.699083
_cell_angle_alpha	90.003120
_cell_angle_beta	83.392192
_cell_angle_gamma	89.994532
loop_
_atom_site_label
_atom_site_type_symbol
_atom_site_fract_x
_atom_site_fract_y
_atom_site_fract_z
O1	O	-1.114320	0.073996	-0.097627
O2	O	-0.869746	0.074006	-0.109657
O3	O	-0.998943	0.073993	0.006535
O4	O	-0.985123	0.074009	-0.213819
O5	O	-0.998922	-0.074072	0.006519
O6	O	-0.869725	-0.074058	-0.109673
O7	O	-1.114300	-0.074069	-0.097644
Zn8	Zn	-0.992009	-0.097572	-0.103661
Zn9	Zn	-0.992036	0.097509	-0.103639
O10	O	-0.985103	-0.074055	-0.213836
C11	C	-0.838443	-0.000025	-0.109165
C12	C	-0.745200	-0.000021	-0.107665
C13	C	-0.474730	-0.000041	-0.031159
C14	C	-0.525224	-0.073043	-0.068049
C15	C	-0.409570	-0.000043	-0.102316
C16	C	-0.525224	0.072937	-0.068052
C17	C	-0.574477	-0.000031	-0.104941
C18	C	-0.458835	-0.073105	-0.139187
C19	C	-0.458833	0.072940	-0.139180
C20	C	-0.509293	-0.000079	-0.176121
C21	C	-0.314571	-0.000050	-0.100803
C22	C	-0.669472	-0.000029	-0.106460
N23	N	-0.991997	-0.230709	-0.103676
C24	C	-0.932247	-0.470387	-0.157378
C25	C	-1.008116	-0.529723	-0.172073
C26	C	-0.992018	-0.412316	-0.103657
C27	C	-0.916170	-0.529722	-0.088978
C28	C	-0.992032	-0.587740	-0.103640
C29	C	-1.067926	-0.470346	-0.118386
C30	C	-0.975929	-0.470340	-0.035262
C31	C	-1.051853	-0.529649	-0.049928
C32	C	-0.992009	-0.311259	-0.103668
C33	C	-0.992050	-0.688796	-0.103628
C34	C	-0.145604	-0.000040	-0.098125
C35	C	-0.238851	-0.000051	-0.099594
C36	C	-0.998437	-0.000040	0.034725
C37	C	-0.996952	-0.000040	0.118745
N38	N	-0.992055	0.230647	-0.103619
C39	C	-0.985608	-0.000021	-0.242025
C40	C	-0.987094	-0.000015	-0.326046
C41	C	-1.072788	-0.000044	0.167235
C42	C	-1.071387	-0.000036	0.246181
C43	C	-0.994149	-0.000030	0.276635
C44	C	-0.918308	-0.000023	0.228139
C45	C	-0.919709	-0.000025	0.149195
C46	C	-0.912653	-0.000016	0.546512
C47	C	-0.911257	-0.000017	0.625462
C48	C	-1.064330	-0.000027	0.643498
C49	C	-1.065732	-0.000029	0.564554
C50	C	-0.989891	-0.000017	0.516065
C51	C	-0.991411	-0.000024	0.430463
C52	C	-0.992628	-0.000030	0.362236
H53	H	-0.429954	-0.134890	-0.169223
C54	C	-0.530056	-0.000125	-0.258973
C55	C	-0.499897	-0.077407	-0.312501
C56	C	-0.520661	-0.077457	-0.395352
C57	C	-0.571584	-0.000225	-0.424674
C58	C	-0.601746	0.077063	-0.371145
C59	C	-0.580982	0.077114	-0.288295
H60	H	-0.462198	-0.134585	-0.290796
H61	H	-0.498334	-0.134672	-0.434977
H62	H	-0.586956	-0.000262	-0.486005
H63	H	-0.639445	0.134241	-0.392851
H64	H	-0.603310	0.134328	-0.248670
H65	H	-0.459206	-0.000117	0.030125
H66	H	-0.850898	-0.000006	0.507041
H67	H	-0.554209	-0.134765	-0.038005
C68	C	-0.419633	0.156323	-0.179724
C69	C	-0.446048	0.249646	-0.149809
C70	C	-0.406843	0.333037	-0.190343
C71	C	-0.341223	0.323104	-0.260792
C72	C	-0.314804	0.229777	-0.290711
C73	C	-0.354010	0.146386	-0.250177
H74	H	-0.494627	0.257002	-0.097655
H75	H	-0.426400	0.402124	-0.168195
H76	H	-0.312200	0.384835	-0.290797
H77	H	-0.266225	0.222420	-0.342865
H78	H	-0.334453	0.077299	-0.272325
C79	C	-1.120217	-0.564591	0.011457
C80	C	-1.191681	-0.624384	-0.011208
C81	C	-1.260047	-0.659327	0.050173
C82	C	-1.256948	-0.634478	0.134218
C83	C	-1.185480	-0.574682	0.156888
C84	C	-1.117115	-0.539739	0.095507
H85	H	-1.193978	-0.642781	-0.073427
H86	H	-1.312952	-0.703592	0.033391
H87	H	-1.307556	-0.660346	0.179656
H88	H	-1.183184	-0.556285	0.219107
H89	H	-1.064210	-0.495474	0.112289
C90	C	-0.564386	0.156314	-0.027436
C91	C	-0.660334	0.172007	-0.022010
C92	C	-0.699494	0.255379	0.018612
C93	C	-0.642704	0.323057	0.053807
C94	C	-0.546749	0.307365	0.048382
C95	C	-0.507590	0.223993	0.007761
H96	H	-0.702379	0.121906	-0.048065
H97	H	-0.770526	0.266995	0.022627
H98	H	-0.671692	0.384774	0.083878
H99	H	-0.504705	0.357466	0.074437
H100	H	-0.436558	0.212378	0.003745
C101	C	-0.864032	-0.435222	-0.218795
C102	C	-0.868044	-0.458686	-0.303001
C103	C	-0.799835	-0.423520	-0.364419
C104	C	-0.727614	-0.364889	-0.341631
C105	C	-0.723599	-0.341422	-0.257422
C106	C	-0.791809	-0.376588	-0.196004
H107	H	-0.921509	-0.502091	-0.319873
H108	H	-0.802807	-0.440892	-0.426756
H109	H	-0.677121	-0.338857	-0.387097
H110	H	-0.670134	-0.298018	-0.240549
H111	H	-0.788836	-0.359216	-0.133666
C112	C	-0.826290	-0.000003	0.658964
C113	C	-0.804301	0.076883	0.710766
C114	C	-0.719340	0.076896	0.744269
C115	C	-0.656368	0.000022	0.725969
C116	C	-0.678356	-0.076871	0.674165
C117	C	-0.763317	-0.076883	0.640662
H118	H	-0.850918	0.133795	0.724315
H119	H	-0.703063	0.133817	0.782618
H120	H	-0.593475	0.000031	0.750770
H121	H	-0.631739	-0.133783	0.660616
H122	H	-0.779594	-0.133804	0.602312
C123	C	-1.026508	-0.564970	-0.250200
C124	C	-0.961700	-0.624954	-0.297112
C125	C	-0.980080	-0.660197	-0.375243
C126	C	-1.063268	-0.635455	-0.406461
C127	C	-1.128083	-0.575467	-0.359549
C128	C	-1.109703	-0.540224	-0.281418
H129	H	-0.900113	-0.643273	-0.274003
H130	H	-0.932099	-0.704604	-0.409970
H131	H	-1.076874	-0.661544	-0.464298
H132	H	-1.189669	-0.557148	-0.382658
H133	H	-1.157683	-0.495817	-0.246691
H134	H	-0.962285	-0.444236	0.022552
C135	C	-1.154608	-0.435270	-0.135245
C136	C	-1.170606	-0.334309	-0.138402
C137	C	-1.257285	-0.299231	-0.155264
C138	C	-1.327966	-0.365113	-0.168969
C139	C	-1.311970	-0.466080	-0.165812
C140	C	-1.225291	-0.501158	-0.148950
H141	H	-1.118282	-0.285534	-0.128257
H142	H	-1.269126	-0.224488	-0.157601
H143	H	-1.392131	-0.339146	-0.181451
H144	H	-1.364293	-0.514855	-0.175957
H145	H	-1.213450	-0.575901	-0.146614
H146	H	-1.135684	-0.000055	0.142446
H147	H	-1.133140	-0.000042	0.285659
H148	H	-1.128627	-0.000038	0.539763
C149	C	-0.833342	-0.000015	0.261633
C150	C	-0.770405	0.076876	0.243341
C151	C	-0.685437	0.076882	0.276831
C152	C	-0.663406	-0.000004	0.328614
C153	C	-0.726344	-0.076901	0.346909
C154	C	-0.811313	-0.076907	0.313419
H155	H	-0.786713	0.133797	0.205005
H156	H	-0.638846	0.133806	0.263287
H157	H	-0.600507	-0.000000	0.353405
H158	H	-0.710037	-0.133822	0.385244
H159	H	-0.857904	-0.133831	0.326962
C160	C	-0.829510	-0.564955	-0.072208
C161	C	-0.749577	-0.541564	-0.125870
C162	C	-0.662916	-0.576794	-0.109107
C163	C	-0.656188	-0.635414	-0.038682
C164	C	-0.736124	-0.658807	0.014984
C165	C	-0.822785	-0.623577	-0.001779
H166	H	-0.754555	-0.498168	-0.178006
H167	H	-0.603742	-0.559477	-0.148834
H168	H	-0.592036	-0.661493	-0.026273
H169	H	-0.731146	-0.702204	0.067121
H170	H	-0.881959	-0.640895	0.037949
C171	C	-1.147759	-0.000030	0.696839
C172	C	-1.211080	-0.076924	0.693423
C173	C	-1.294506	-0.076930	0.746761
C174	C	-1.314611	-0.000042	0.803514
C175	C	-1.251289	0.076858	0.806932
C176	C	-1.167863	0.076864	0.753594
H177	H	-1.196198	-0.133846	0.651409
H178	H	-1.341381	-0.133856	0.744230
H179	H	-1.376368	-0.000046	0.842998
H180	H	-1.266171	0.133780	0.848946
H181	H	-1.120988	0.133790	0.756125
H182	H	-0.857956	-0.000021	0.109715
