data_functionalizedCrystal
_audit_creation_method	'MofGen! by Chris Wilmer'
_symmetry_space_group_name_H-M	'P1'
_symmetry_Int_Tables_number	1
_symmetry_cell_setting	triclinic
loop_
_symmetry_equiv_pos_as_xyz
  x,y,z
_cell_length_a	16.176319
_cell_length_b	17.699083
_cell_length_c	17.699083
_cell_angle_alpha	96.717152
_cell_angle_beta	89.992304
_cell_angle_gamma	90.006703
loop_
_atom_site_label
_atom_site_type_symbol
_atom_site_fract_x
_atom_site_fract_y
_atom_site_fract_z
O1	O	-0.068734	-1.004079	0.095710
O2	O	-0.068739	-0.783701	0.108163
O3	O	-0.068729	-0.900116	-0.008252
O4	O	-0.068744	-0.887664	0.212126
O5	O	0.068764	-0.900100	-0.008260
O6	O	0.068754	-0.783685	0.108156
O7	O	0.068759	-1.004063	0.095703
Cu8	Cu	0.081311	-0.893872	0.101929
Cu9	Cu	-0.081291	-0.893891	0.101937
O10	O	0.068749	-0.887648	0.212119
C11	C	0.000007	-0.755496	0.107713
C12	C	0.000005	-0.671478	0.106375
C13	C	0.000017	-0.899662	-0.036453
C14	C	0.000018	-0.898323	-0.120471
N15	N	0.195676	-0.893865	0.101922
N16	N	-0.195656	-0.893905	0.101938
C17	C	0.238945	-0.945429	0.050394
C18	C	0.325492	-0.945433	0.050393
C19	C	0.368769	-0.893875	0.101925
C20	C	0.325494	-0.842306	0.153455
C21	C	0.238948	-0.842299	0.153452
C22	C	0.674522	-0.842332	0.153469
C23	C	0.761074	-0.842344	0.153470
C24	C	0.761065	-0.945466	0.050411
C25	C	0.674520	-0.945459	0.050408
C26	C	0.631253	-0.893887	0.101935
C27	C	0.537409	-0.893882	0.101934
C28	C	0.462611	-0.893883	0.101930
C29	C	0.074954	-0.632002	0.105740
C30	C	0.074954	-0.553059	0.104471
C31	C	0.000006	-0.513594	0.103841
C32	C	-0.074948	-0.553075	0.104474
C33	C	-0.074948	-0.632017	0.105738
C34	C	-0.074950	-0.234713	0.099375
C35	C	-0.074945	-0.155765	0.098113
C36	C	0.074952	-0.155755	0.098107
C37	C	0.074952	-0.234697	0.099372
C38	C	-0.000001	-0.274172	0.100000
C39	C	-0.000001	-0.359771	0.101375
C40	C	0.000005	-0.427996	0.102472
C41	C	0.000010	-0.032269	0.096148
C42	C	0.000004	-0.116289	0.097472
C43	C	0.000020	-0.966657	-0.169092
C44	C	0.000013	-0.965395	-0.248036
C45	C	0.000009	-0.895798	-0.278356
C46	C	0.000004	-0.827459	-0.229729
C47	C	0.000005	-0.828722	-0.150787
C48	C	-0.000003	-0.822364	-0.548092
C49	C	-0.000002	-0.821106	-0.627040
C50	C	0.000005	-0.959036	-0.645341
C51	C	0.000006	-0.960299	-0.566399
C52	C	-0.000003	-0.891961	-0.517778
C53	C	0.000003	-0.893331	-0.432179
C54	C	0.000009	-0.894428	-0.363954
C55	C	0.000001	-0.888102	0.240319
C56	C	-0.000005	-0.889441	0.324337
H57	H	0.360721	-0.987420	0.008435
C58	C	0.000026	-1.043215	-0.135743
C59	C	0.071422	-1.099931	-0.154160
C60	C	0.071424	-1.176492	-0.120813
C61	C	0.000030	-1.196336	-0.069050
C62	C	-0.071371	-1.139619	-0.050630
C63	C	-0.071374	-1.063058	-0.083977
H64	H	0.124276	-1.085243	-0.192481
H65	H	0.124280	-1.218478	-0.134449
H66	H	0.000032	-1.253011	-0.044365
H67	H	-0.124226	-1.154308	-0.012310
H68	H	-0.124230	-1.021073	-0.070341
H69	H	0.000017	-1.021039	-0.287620
C70	C	0.000004	-0.753555	-0.097300
C71	C	-0.071396	-0.696495	-0.100596
C72	C	-0.071403	-0.621325	-0.047109
C73	C	-0.000010	-0.603216	0.009674
C74	C	0.071395	-0.660277	0.012973
C75	C	0.071402	-0.735447	-0.040514
H76	H	-0.124250	-0.709899	-0.142633
H77	H	-0.124262	-0.579084	-0.049551
H78	H	-0.000015	-0.547571	0.049268
H79	H	0.124249	-0.646873	0.055009
H80	H	0.124261	-0.777688	-0.038072
H81	H	0.796308	-0.800357	0.195435
C82	C	0.157405	-0.112332	0.097408
C83	C	0.219247	-0.131906	0.031887
C84	C	0.301698	-0.088486	0.031190
C85	C	0.322306	-0.025491	0.096015
C86	C	0.260462	-0.005914	0.161541
C87	C	0.178012	-0.049335	0.162238
H88	H	0.203993	-0.178541	-0.016105
H89	H	0.347479	-0.102978	-0.017317
H90	H	0.383341	0.006651	0.095500
H91	H	0.275716	0.040721	0.209533
H92	H	0.132231	-0.034842	0.210745
C93	C	-0.000006	-0.750903	-0.263082
C94	C	0.071388	-0.731055	-0.314843
C95	C	0.071378	-0.654497	-0.348196
C96	C	-0.000025	-0.597787	-0.329786
C97	C	-0.071424	-0.617634	-0.278022
C98	C	-0.071415	-0.694192	-0.244670
H99	H	0.124250	-0.773036	-0.328474
H100	H	0.124233	-0.639806	-0.386515
H101	H	-0.000032	-0.541115	-0.354475
H102	H	-0.124286	-0.575653	-0.264391
H103	H	-0.124270	-0.708883	-0.206350
H104	H	0.000014	-1.016972	-0.541717
C105	C	-0.157394	-0.112352	0.097414
C106	C	-0.219214	-0.131925	0.031886
C107	C	-0.301658	-0.088512	0.031189
C108	C	-0.322281	-0.025525	0.096018
C109	C	-0.260458	-0.005949	0.161550
C110	C	-0.178015	-0.049363	0.162248
H111	H	-0.203950	-0.178554	-0.016108
H112	H	-0.347423	-0.103003	-0.017323
H113	H	-0.383310	0.006612	0.095501
H114	H	-0.275723	0.040680	0.209545
H115	H	-0.132250	-0.034871	0.210759
H116	H	0.135983	-0.266825	0.099888
C117	C	-0.157397	-0.278128	0.100076
C118	C	-0.239836	-0.234713	0.099392
C119	C	-0.322288	-0.278132	0.100096
C120	C	-0.322300	-0.364965	0.101485
C121	C	-0.239857	-0.408384	0.102169
C122	C	-0.157406	-0.364966	0.101465
H123	H	-0.239830	-0.170430	0.098364
H124	H	-0.383317	-0.245990	0.099590
H125	H	-0.383335	-0.397106	0.102006
H126	H	-0.239863	-0.472668	0.103197
H127	H	-0.096377	-0.397108	0.101971
H128	H	0.203720	-0.800309	0.195410
C129	C	0.626915	-1.002171	-0.006278
C130	C	0.531718	-1.002163	-0.006282
C131	C	0.484114	-1.058874	-0.062971
C132	C	0.531706	-1.115592	-0.119656
C133	C	0.626908	-1.115602	-0.119655
C134	C	0.674513	-1.058892	-0.062966
H135	H	0.496483	-0.960175	0.035682
H136	H	0.413639	-1.058866	-0.062971
H137	H	0.496467	-1.157573	-0.161621
H138	H	0.662144	-1.157591	-0.161619
H139	H	0.744988	-1.058899	-0.062966
C140	C	-0.000014	-0.744545	-0.660394
C141	C	0.071373	-0.687804	-0.641997
C142	C	0.071363	-0.611248	-0.675352
C143	C	-0.000035	-0.591432	-0.727103
C144	C	-0.071427	-0.648174	-0.745502
C145	C	-0.071416	-0.724731	-0.712148
H146	H	0.124230	-0.702472	-0.603685
H147	H	0.124212	-0.569244	-0.661731
H148	H	-0.000042	-0.534761	-0.751794
H149	H	-0.124284	-0.633507	-0.783814
H150	H	-0.124265	-0.766735	-0.725768
H151	H	-0.000011	-0.766719	-0.508514
C152	C	0.373094	-0.785591	0.210142
C153	C	0.468291	-0.785630	0.210188
C154	C	0.515888	-0.728915	0.266878
C155	C	0.468288	-0.672160	0.323523
C156	C	0.373086	-0.672119	0.323478
C157	C	0.325489	-0.728834	0.266788
H158	H	0.503531	-0.827645	0.168255
H159	H	0.586363	-0.728946	0.266911
H160	H	0.503523	-0.630176	0.365488
H161	H	0.337846	-0.630104	0.365412
H162	H	0.255014	-0.728803	0.266756
H163	H	0.135986	-0.664128	0.106259
H164	H	0.135985	-0.520923	0.103941
H165	H	0.639301	-0.800341	0.195426
C166	C	-0.157392	-0.675445	0.106439
C167	C	-0.219220	-0.673316	0.040571
C168	C	-0.301666	-0.716743	0.041268
C169	C	-0.322284	-0.762300	0.107832
C170	C	-0.260455	-0.764430	0.173704
C171	C	-0.178008	-0.721003	0.173008
H172	H	-0.203959	-0.639591	-0.008708
H173	H	-0.347436	-0.715166	-0.007495
H174	H	-0.383316	-0.794447	0.108348
H175	H	-0.275716	-0.798155	0.222983
H176	H	-0.132238	-0.722580	0.221771
H177	H	0.203714	-0.987416	0.008435
H178	H	0.796303	-0.987456	0.008452
H179	H	-0.135973	-0.520937	0.103956
H180	H	0.000008	-1.014680	-0.684937
