data_functionalizedCrystal
_audit_creation_method	'MofGen! by Chris Wilmer'
_symmetry_space_group_name_H-M	'P1'
_symmetry_Int_Tables_number	1
_symmetry_cell_setting	triclinic
loop_
_symmetry_equiv_pos_as_xyz
  x,y,z
_cell_length_a	16.109301
_cell_length_b	10.654541
_cell_length_c	14.586319
_cell_angle_alpha	89.996435
_cell_angle_beta	89.999213
_cell_angle_gamma	83.972705
loop_
_atom_site_label
_atom_site_type_symbol
_atom_site_fract_x
_atom_site_fract_y
_atom_site_fract_z
O1	O	1.104090	0.161419	-0.076182
O2	O	0.862147	0.181508	-0.076196
O3	O	0.988682	-0.011352	-0.076183
O4	O	0.977554	0.354278	-0.076195
O5	O	0.988673	-0.011354	0.076298
O6	O	0.862138	0.181505	0.076284
O7	O	1.104081	0.161416	0.076299
Cu8	Cu	0.983109	0.171460	0.090214
Cu9	Cu	0.983119	0.171464	-0.090112
O10	O	0.977546	0.354276	0.076286
C11	C	0.831163	0.180692	0.000042
C12	C	0.738853	0.178253	0.000037
C13	C	0.517227	0.287019	0.000044
C14	C	0.430493	0.284717	0.000050
C15	C	0.449008	0.055896	0.000053
C16	C	0.535740	0.058200	0.000054
C17	C	0.569847	0.173765	0.000045
C18	C	0.396381	0.169159	0.000050
C19	C	0.302340	0.166662	0.000056
C20	C	0.663894	0.176262	0.000040
C21	C	0.987861	-0.058140	0.000057
C22	C	0.985418	-0.197550	0.000055
C23	C	1.136725	-0.227574	0.000076
C24	C	1.211227	-0.308079	0.000088
C25	C	1.208926	-0.439066	0.000085
C26	C	1.132115	-0.489549	0.000067
C27	C	1.057613	-0.409044	0.000055
C28	C	1.059922	-0.278056	0.000060
C29	C	0.906308	-0.379021	0.000027
C30	C	0.908607	-0.248034	0.000037
C31	C	0.829496	-0.429504	0.000010
C32	C	0.754992	-0.348998	0.000004
C33	C	0.757296	-0.218004	0.000008
C34	C	0.834104	-0.167529	0.000025
C35	C	1.135065	0.162231	0.000058
C36	C	1.227375	0.164671	0.000058
C37	C	0.978367	0.401064	0.000044
C38	C	0.980810	0.540474	0.000040
N39	N	0.983107	0.171457	0.217046
N40	N	0.983127	0.171457	-0.216944
C41	C	1.039156	0.086088	0.452058
C42	C	1.039158	0.086085	0.548040
C43	C	0.927072	0.256830	0.548037
C44	C	0.927067	0.256826	0.452058
C45	C	0.983113	0.171457	0.404071
C46	C	0.983121	0.171457	0.596032
C47	C	0.983123	0.171455	0.700099
C48	C	0.983110	0.171457	0.299997
H49	H	1.138606	-0.120919	0.000090
H50	H	0.544993	0.381120	0.000043
C51	C	0.796226	0.028292	-0.078359
C52	C	0.836635	-0.023546	0.000031
H53	H	0.797786	0.117182	-0.078351
H54	H	0.823659	-0.006875	-0.131517
H55	H	0.739821	0.009741	-0.078362
H56	H	0.893041	-0.005003	0.000031
H57	H	0.809203	0.011634	0.053203
H58	H	1.084791	0.016573	0.412990
H59	H	0.881442	0.326338	0.587118
C60	C	0.910003	0.427728	0.344103
C61	C	0.865462	0.350675	0.399302
H62	H	0.871971	0.485655	0.311531
H63	H	0.944862	0.472916	0.381541
H64	H	0.943374	0.376865	0.301793
H65	H	0.832096	0.401537	0.441617
H66	H	0.830589	0.305484	0.361861
H67	H	1.084792	0.016568	0.587108
H68	H	0.692459	-0.390113	-0.000017
H69	H	0.578586	-0.034032	0.000057
C70	C	0.388009	0.479037	-0.078348
C71	C	0.372651	0.409210	0.000042
H72	H	0.352295	0.555892	-0.078353
H73	H	0.444538	0.496941	-0.078344
H74	H	0.377593	0.431637	-0.131512
H75	H	0.383073	0.456606	0.053206
H76	H	0.316108	0.391309	0.000046
C77	C	0.324274	-0.049237	0.000045
C78	C	0.411514	-0.071129	0.000052
H79	H	0.301130	-0.127661	0.000036
H80	H	0.306259	-0.002622	0.053215
H81	H	0.306267	-0.002599	-0.053133
H82	H	0.429521	-0.117759	0.053233
H83	H	0.429536	-0.117764	-0.053124
C84	C	1.301608	-0.178168	-0.078270
C85	C	1.295654	-0.252579	0.000109
H86	H	1.353727	-0.143902	-0.078253
H87	H	1.297579	-0.228639	-0.131436
H88	H	1.257562	-0.111483	-0.078266
H89	H	1.339696	-0.319270	0.000102
H90	H	1.299691	-0.202105	0.053289
H91	H	1.269593	-0.504614	0.000087
H92	H	0.827628	-0.536161	0.000001
H93	H	0.696627	-0.152463	-0.000006
C94	C	1.170023	-0.685339	-0.078328
C95	C	1.129589	-0.633532	0.000054
H96	H	1.168467	-0.774230	-0.078331
H97	H	1.142605	-0.650156	-0.131491
H98	H	1.226427	-0.666783	-0.078308
H99	H	1.073184	-0.652081	0.000031
H100	H	1.157006	-0.668728	0.053232
