data_functionalizedCrystal
_audit_creation_method	'MofGen! by Chris Wilmer'
_symmetry_space_group_name_H-M	'P1'
_symmetry_Int_Tables_number	1
_symmetry_cell_setting	triclinic
loop_
_symmetry_equiv_pos_as_xyz
  x,y,z
_cell_length_a	16.109301
_cell_length_b	17.699083
_cell_length_c	15.186229
_cell_angle_alpha	90.004632
_cell_angle_beta	90.000994
_cell_angle_gamma	83.372299
loop_
_atom_site_label
_atom_site_type_symbol
_atom_site_fract_x
_atom_site_fract_y
_atom_site_fract_z
O1	O	1.102963	0.097285	0.073182
O2	O	0.860880	0.109392	0.073195
O3	O	0.988761	-0.006841	0.073180
O4	O	0.975082	0.213518	0.073196
O5	O	0.988752	-0.006842	-0.073277
O6	O	0.860872	0.109391	-0.073263
O7	O	1.102954	0.097284	-0.073275
Zn8	Zn	0.981912	0.103337	-0.096522
Zn9	Zn	0.981923	0.103339	0.096441
O10	O	0.975074	0.213517	-0.073261
C11	C	0.829902	0.108901	-0.000033
C12	C	0.737609	0.107430	-0.000028
C13	C	0.428500	0.171594	-0.000039
C14	C	0.515218	0.172983	-0.000033
C15	C	0.535329	0.035076	-0.000032
C16	C	0.448613	0.033689	-0.000031
C17	C	0.395200	0.101950	-0.000039
C18	C	0.568634	0.104726	-0.000034
C19	C	0.662658	0.106231	-0.000029
C20	C	0.301171	0.100445	-0.000043
C21	C	0.988267	-0.035039	-0.000049
C22	C	0.986796	-0.119059	-0.000049
C23	C	1.061859	-0.167573	-0.000054
C24	C	1.060473	-0.246518	-0.000046
C25	C	0.984022	-0.276948	-0.000039
C26	C	0.908953	-0.228428	-0.000032
C27	C	0.910340	-0.149485	-0.000033
C28	C	0.903356	-0.546799	-0.000024
C29	C	0.901974	-0.625749	-0.000025
C30	C	1.053488	-0.643833	-0.000037
C31	C	1.054876	-0.564889	-0.000039
C32	C	0.979807	-0.516376	-0.000026
C33	C	0.981312	-0.430775	-0.000033
C34	C	0.982517	-0.362548	-0.000039
C35	C	1.133933	0.097775	-0.000046
C36	C	1.226225	0.099245	-0.000045
C37	C	0.975568	0.241715	-0.000030
C38	C	0.977038	0.325735	-0.000024
N39	N	0.981910	0.103335	-0.228215
C40	C	1.038555	0.051884	-0.453944
C41	C	1.038558	0.051883	-0.546134
C42	C	0.925280	0.154788	-0.546130
C43	C	0.925274	0.154786	-0.453942
C44	C	0.981916	0.103335	-0.407852
C45	C	0.981925	0.103335	-0.592229
C46	C	0.981927	0.103334	-0.692185
C47	C	0.981913	0.103335	-0.307889
N48	N	0.981931	0.103335	0.228134
H49	H	0.542326	0.229694	-0.000033
H50	H	0.846705	-0.253211	-0.000021
O51	O	0.592936	-0.038547	-0.000041
H52	H	0.658831	-0.025883	-0.000055
H53	H	1.084675	0.009989	-0.416419
O54	O	1.099646	-0.003609	-0.595852
H55	H	1.139981	0.028266	-0.637852
H56	H	0.879165	0.196679	-0.583666
O57	O	0.412694	-0.041435	-0.000031
H58	H	0.343421	-0.030930	-0.000021
O59	O	0.864186	0.210283	-0.404217
H60	H	0.824809	0.246069	-0.451753
O61	O	1.144318	-0.134753	-0.000053
H62	H	1.196280	-0.181754	-0.000044
H63	H	0.842230	-0.507309	-0.000014
H64	H	1.121597	-0.286016	-0.000052
O65	O	1.137332	-0.532066	-0.000033
H66	H	1.189297	-0.579065	-0.000023
H67	H	1.114613	-0.683342	-0.000043
H68	H	0.385014	0.227177	-0.000044
O69	O	0.819513	-0.658575	-0.000011
H70	H	0.767546	-0.611579	0.000006
H71	H	0.849216	-0.109985	-0.000029
