data_functionalizedCrystal
_audit_creation_method	'MofGen! by Chris Wilmer'
_symmetry_space_group_name_H-M	'P1'
_symmetry_Int_Tables_number	1
_symmetry_cell_setting	triclinic
loop_
_symmetry_equiv_pos_as_xyz
  x,y,z
_cell_length_a	16.625548
_cell_length_b	16.120484
_cell_length_c	16.625539
_cell_angle_alpha	92.870299
_cell_angle_beta	89.982945
_cell_angle_gamma	92.926626
loop_
_atom_site_label
_atom_site_type_symbol
_atom_site_fract_x
_atom_site_fract_y
_atom_site_fract_z
Zn1	Zn	1.216358	-0.331898	-0.472168
Zn2	Zn	1.549692	0.001435	-0.138834
Zn3	Zn	1.883025	0.334768	0.194499
Zn4	Zn	1.209425	-0.471318	-0.344164
Zn5	Zn	1.542758	-0.137985	-0.010831
Zn6	Zn	1.876092	0.195348	0.322502
Zn7	Zn	1.081527	-0.331926	-0.337349
Zn8	Zn	1.414860	0.001408	-0.004016
Zn9	Zn	1.748194	0.334741	0.329317
Zn10	Zn	1.074648	-0.471275	-0.478952
Zn11	Zn	1.407981	-0.137942	-0.145619
Zn12	Zn	1.741315	0.195392	0.187714
O13	O	1.145490	-0.401604	-0.408158
O14	O	1.478823	-0.068271	-0.074825
O15	O	1.812156	0.265062	0.258508
O16	O	1.328271	-0.350399	-0.455200
O17	O	1.661604	-0.017066	-0.121867
O18	O	1.994937	0.316267	0.211466
O19	O	1.192436	-0.452857	-0.230429
O20	O	1.525770	-0.119524	0.102904
O21	O	1.859103	0.213809	0.436237
O22	O	1.105193	-0.215256	-0.349542
O23	O	1.438526	0.118077	-0.016209
O24	O	1.771860	0.451411	0.317125
O25	O	1.323177	-0.452831	-0.361157
O26	O	1.656510	-0.119498	-0.027824
O27	O	1.989843	0.213836	0.305510
O28	O	1.204253	-0.215236	-0.448592
O29	O	1.537586	0.118097	-0.115259
O30	O	1.870920	0.451431	0.218074
O31	O	1.098470	-0.350446	-0.225423
O32	O	1.431804	-0.017113	0.107911
O33	O	1.765137	0.316221	0.441244
O34	O	0.967782	-0.350404	-0.356121
O35	O	1.301116	-0.017070	-0.022787
O36	O	1.634449	0.316263	0.310546
O37	O	1.093469	-0.452757	-0.590883
O38	O	1.426802	-0.119424	-0.257550
O39	O	1.760135	0.213910	0.075783
O40	O	0.962728	-0.452783	-0.460156
O41	O	1.296062	-0.119450	-0.126822
O42	O	1.629395	0.213883	0.206511
O43	O	1.197583	-0.350357	-0.585899
O44	O	1.530916	-0.017024	-0.252565
O45	O	1.864249	0.316309	0.080768
O46	O	1.185766	-0.587979	-0.367736
O47	O	1.519099	-0.254645	-0.034402
O48	O	1.852433	0.078688	0.298931
O49	O	1.086746	-0.587947	-0.466764
O50	O	1.420079	-0.254614	-0.133430
O51	O	1.753413	0.078720	0.199903
C52	C	0.935999	-0.401592	-0.408135
C53	C	1.269333	-0.068259	-0.074802
C54	C	1.602666	0.265074	0.258531
C55	C	0.846377	-0.401607	-0.408146
C56	C	1.179711	-0.068274	-0.074812
C57	C	1.513044	0.265059	0.258521
C58	C	1.134779	-0.618213	-0.418743
C59	C	1.468112	-0.284880	-0.085410
C60	C	1.801446	0.048454	0.247924
C61	C	1.130271	-0.710879	-0.423298
C62	C	1.463604	-0.377546	-0.089965
C63	C	1.796937	-0.044213	0.243368
C64	C	0.518202	-0.401613	-0.408180
C65	C	0.851535	-0.068280	-0.074847
C66	C	1.184868	0.265054	0.258486
C67	C	0.609510	-0.401609	-0.408168
C68	C	0.942843	-0.068276	-0.074835
C69	C	1.276177	0.265058	0.258499
C70	C	0.682287	-0.401611	-0.408162
C71	C	1.015620	-0.068277	-0.074829
C72	C	1.348953	0.265056	0.258504
C73	C	0.773601	-0.401606	-0.408151
C74	C	1.106934	-0.068273	-0.074818
C75	C	1.440268	0.265061	0.258516
C76	C	1.122045	-0.880541	-0.431631
C77	C	1.455378	-0.547208	-0.098298
C78	C	1.788711	-0.213875	0.235036
C79	C	1.169079	-0.921827	-0.384699
C80	C	1.502412	-0.588494	-0.051366
C81	C	1.835746	-0.255160	0.281968
C82	C	1.164502	-1.016233	-0.389335
C83	C	1.497835	-0.682899	-0.056002
C84	C	1.831169	-0.349566	0.277331
C85	C	1.126621	-0.786127	-0.426996
C86	C	1.459954	-0.452794	-0.093662
C87	C	1.793287	-0.119460	0.239671
C88	C	1.355798	-0.401617	-0.408182
C89	C	1.689131	-0.068284	-0.074849
C90	C	2.022464	0.265050	0.258485
C91	C	1.445419	-0.401622	-0.408192
C92	C	1.778752	-0.068289	-0.074859
C93	C	2.112085	0.265044	0.258474
C94	C	1.145532	-0.401549	-0.618465
C95	C	1.478865	-0.068216	-0.285131
C96	C	1.812198	0.265117	0.048202
C97	C	1.145550	-0.401526	-0.708085
C98	C	1.478883	-0.068193	-0.374751
C99	C	1.812216	0.265141	-0.041418
C100	C	1.156264	-0.184150	-0.397550
C101	C	1.489597	0.149184	-0.064217
C102	C	1.822931	0.482517	0.269117
C103	C	1.160855	-0.091484	-0.393029
C104	C	1.494189	0.241850	-0.059696
C105	C	1.827522	0.575183	0.273637
C106	C	1.145564	-0.401507	-0.780866
C107	C	1.478897	-0.068174	-0.447533
C108	C	1.812230	0.265159	-0.114200
C109	C	1.145584	-0.401476	-0.872173
C110	C	1.478917	-0.068143	-0.538840
C111	C	1.812251	0.265190	-0.205507
C112	C	1.145605	-0.401447	-0.944948
C113	C	1.478938	-0.068114	-0.611615
C114	C	1.812271	0.265220	-0.278282
C115	C	1.145626	-0.401417	-1.036261
C116	C	1.478959	-0.068084	-0.702928
C117	C	1.812293	0.265250	-0.369595
C118	C	1.145497	-0.401599	-0.198667
C119	C	1.478830	-0.068266	0.134666
C120	C	1.812163	0.265068	0.467999
C121	C	1.145647	-0.401388	-0.109036
C122	C	1.478980	-0.068054	0.224297
C123	C	1.812313	0.265279	0.557630
H124	H	1.078343	-0.916094	-0.475289
H125	H	1.411676	-0.582761	-0.141956
H126	H	1.745009	-0.249428	0.191377
H127	H	1.212783	-0.886271	-0.341036
H128	H	1.546117	-0.552938	-0.007703
H129	H	1.879450	-0.219605	0.325630
