data_functionalizedCrystal
_audit_creation_method	'MofGen! by Chris Wilmer'
_symmetry_space_group_name_H-M	'P1'
_symmetry_Int_Tables_number	1
_symmetry_cell_setting	triclinic
loop_
_symmetry_equiv_pos_as_xyz
  x,y,z
_cell_length_a	19.288865
_cell_length_b	10.654550
_cell_length_c	9.130313
_cell_angle_alpha	90.000773
_cell_angle_beta	89.990494
_cell_angle_gamma	96.189411
loop_
_atom_site_label
_atom_site_type_symbol
_atom_site_fract_x
_atom_site_fract_y
_atom_site_fract_z
O1	O	0.097554	-1.665752	-0.121709
O2	O	0.106849	-1.300075	-0.121738
O3	O	0.001140	-1.493480	-0.121693
O4	O	0.203263	-1.472347	-0.121753
O5	O	0.001138	-1.493465	0.121905
O6	O	0.106846	-1.300060	0.121861
O7	O	0.097552	-1.665737	0.121890
Cu8	Cu	0.102199	-1.482897	0.144118
Cu9	Cu	0.102202	-1.482915	-0.143966
O10	O	0.203260	-1.472332	0.121846
C11	C	-0.024742	-1.492792	0.000110
C12	C	-0.101859	-1.490751	0.000123
C13	C	0.106165	-1.253284	0.000059
C14	C	0.104123	-1.113884	0.000049
C15	C	0.098236	-1.712528	0.000090
C16	C	0.100277	-1.851928	0.000091
C17	C	-0.145812	-1.604232	0.000139
C18	C	-0.218272	-1.602315	0.000116
C19	C	-0.246775	-1.486909	0.000106
C20	C	-0.202812	-1.373413	0.000081
C21	C	-0.130354	-1.375334	0.000090
C22	C	-0.355657	-1.396182	0.085426
C23	C	-0.428114	-1.394266	0.085426
C24	C	-0.470259	-1.480980	0.000073
C25	C	-0.439940	-1.569632	-0.085263
C26	C	-0.367482	-1.571552	-0.085254
C27	C	-0.325343	-1.484814	0.000095
C28	C	-0.592782	-1.592390	0.000061
C29	C	-0.665243	-1.590467	0.000029
C30	C	-0.649781	-1.361562	0.000009
C31	C	-0.577322	-1.363488	0.000027
C32	C	-0.548827	-1.478905	0.000060
C33	C	0.229142	-1.473020	0.000039
C34	C	0.306259	-1.475061	0.000016
N35	N	0.102196	-1.482894	0.346741
C36	C	0.166363	-1.033066	0.000035
C37	C	0.164440	-0.902087	0.000061
C38	C	0.038033	-0.932756	0.000109
C39	C	0.039956	-1.063733	0.000094
C40	C	0.055409	-1.568561	0.423412
C41	C	0.055409	-1.568572	0.576749
C42	C	0.148991	-1.397244	0.576729
C43	C	0.148987	-1.397228	0.423395
N44	N	0.102201	-1.482920	0.653412
H45	H	-0.122616	-1.698214	0.000161
H46	H	0.218611	-1.073895	0.000009
F47	F	0.230684	-0.816079	0.000048
F48	F	-0.030254	-0.879369	0.000150
H49	H	-0.094566	-1.282921	0.000077
H50	H	0.017308	-1.638314	0.361003
F51	F	-0.026291	-1.149751	0.000118
F52	F	-0.562453	-1.715225	0.000103
F53	F	0.005610	-1.659748	0.658343
F54	F	0.198788	-1.306079	0.658321
H55	H	0.187087	-1.327461	0.360965
H56	H	-0.342799	-1.643733	-0.154740
F57	F	-0.265059	-1.723102	0.000131
H58	H	-0.541534	-1.271079	0.000022
F59	F	-0.712022	-1.711257	0.000036
F60	F	-0.484788	-1.661926	-0.176112
H61	H	-0.452794	-1.322075	0.154903
F62	F	-0.680112	-1.238738	-0.000009
H63	H	-0.321348	-1.325565	0.154939
F64	F	-0.233148	-1.250590	0.000061
