data_functionalizedCrystal
_audit_creation_method	'MofGen! by Chris Wilmer'
_symmetry_space_group_name_H-M	'P1'
_symmetry_Int_Tables_number	1
_symmetry_cell_setting	triclinic
loop_
_symmetry_equiv_pos_as_xyz
  x,y,z
_cell_length_a	11.792241
_cell_length_b	27.732048
_cell_length_c	10.868271
_cell_angle_alpha	89.989927
_cell_angle_beta	89.999893
_cell_angle_gamma	83.418036
loop_
_atom_site_label
_atom_site_type_symbol
_atom_site_fract_x
_atom_site_fract_y
_atom_site_fract_z
O1	O	1.504789	0.066248	-0.102217
O2	O	2.004789	0.566248	0.397783
O3	O	1.174230	0.073076	-0.102248
O4	O	1.674230	0.573076	0.397752
O5	O	1.349776	-0.000675	-0.102208
O6	O	1.849776	0.499325	0.397792
O7	O	1.329243	0.139999	-0.102257
O8	O	1.829243	0.639999	0.397743
O9	O	1.349762	-0.000678	0.102437
O10	O	1.849762	0.499322	0.602437
O11	O	1.174215	0.073073	0.102397
O12	O	1.674215	0.573073	0.602397
O13	O	1.504775	0.066245	0.102427
O14	O	2.004775	0.566245	0.602427
Zn15	Zn	1.339493	0.069659	0.134904
Zn16	Zn	1.839493	0.569659	0.634904
Zn17	Zn	1.339512	0.069662	-0.134724
Zn18	Zn	1.839512	0.569662	0.365276
O19	O	1.329229	0.139996	0.102388
O20	O	1.829229	0.639996	0.602388
C21	C	1.131945	0.072645	0.000071
C22	C	1.631945	0.572645	0.500071
C23	C	1.005973	0.071362	0.000061
C24	C	1.505973	0.571362	0.500061
C25	C	0.775336	0.069001	0.000097
C26	C	1.275336	0.569001	0.500097
C27	C	0.903679	0.070313	0.000077
C28	C	1.403679	0.570313	0.500077
C29	C	1.349338	-0.018686	0.000118
C30	C	1.849338	0.481314	0.500118
C31	C	1.348040	-0.072348	0.000128
C32	C	1.848040	0.427652	0.500128
C33	C	1.443606	-0.410609	0.000073
C34	C	1.943606	0.089391	0.500073
C35	C	1.438790	-0.612297	0.000055
C36	C	1.938790	-0.112297	0.500055
O37	O	1.526178	-0.643045	0.000010
O38	O	2.026178	-0.143045	0.500010
N39	N	1.334698	-0.632024	0.000047
N40	N	1.834698	-0.132024	0.500047
C41	C	1.231803	-0.601327	0.000035
C42	C	1.731803	-0.101327	0.500035
O43	O	1.143157	-0.622734	0.000015
O44	O	1.643157	-0.122734	0.500015
C45	C	1.236620	-0.399640	0.000044
C46	C	1.736620	0.100360	0.500044
C47	C	1.340718	-0.379915	0.000065
C48	C	1.840718	0.120085	0.500065
C49	C	1.547695	-0.390884	0.000093
C50	C	2.047695	0.109116	0.500093
C51	C	1.548898	-0.340465	0.000104
C52	C	2.048898	0.159535	0.500104
C53	C	1.446011	-0.309771	0.000095
C54	C	1.946011	0.190229	0.500095
C55	C	1.341921	-0.329496	0.000076
C56	C	1.841921	0.170504	0.500076
C57	C	1.133726	-0.368943	0.000023
C58	C	1.633726	0.131057	0.500023
C59	C	1.134940	-0.318519	0.000022
C60	C	1.634940	0.181481	0.500022
C61	C	1.239038	-0.298794	0.000043
C62	C	1.739038	0.201206	0.500043
C63	C	1.240237	-0.248384	0.000079
C64	C	1.740237	0.251616	0.500079
N65	N	1.344328	-0.228656	0.000087
N66	N	1.844328	0.271344	0.500087
C67	C	1.447215	-0.259350	0.000095
C68	C	1.947215	0.240650	0.500095
C69	C	1.229282	-0.707215	0.000033
C70	C	1.729282	-0.207215	0.500033
C71	C	1.228077	-0.757637	0.000033
C72	C	1.728077	-0.257637	0.500033
C73	C	1.435065	-0.768603	0.000051
C74	C	1.935065	-0.268603	0.500051
C75	C	1.436268	-0.718181	0.000060
C76	C	1.936268	-0.218181	0.500060
C77	C	1.333374	-0.687488	0.000041
C78	C	1.833374	-0.187488	0.500041
C79	C	1.449733	-0.153466	0.000120
C80	C	1.949733	0.346534	0.500120
C81	C	1.450927	-0.103042	0.000136
C82	C	1.950927	0.396958	0.500136
C83	C	1.243941	-0.092080	0.000111
C84	C	1.743941	0.407920	0.500111
C85	C	1.242746	-0.142500	0.000102
C86	C	1.742746	0.357500	0.500102
C87	C	1.345652	-0.173192	0.000102
C88	C	1.845652	0.326808	0.500102
O89	O	1.152896	-0.217607	0.000111
O90	O	1.652896	0.282393	0.500111
O91	O	1.535849	-0.237933	0.000088
O92	O	2.035849	0.262067	0.500088
C93	C	1.442403	-0.461028	0.000062
C94	C	1.942403	0.038972	0.500062
C95	C	1.338313	-0.480753	0.000043
C96	C	1.838313	0.019247	0.500043
C97	C	1.235426	-0.450060	0.000034
C98	C	1.735426	0.049940	0.500034
C99	C	1.337108	-0.531175	0.000043
C100	C	1.837108	-0.031175	0.500043
C101	C	1.439996	-0.561868	0.000051
C102	C	1.939996	-0.061868	0.500051
C103	C	1.544087	-0.542141	0.000059
C104	C	2.044087	-0.042141	0.500059
C105	C	1.545290	-0.491722	0.000070
C106	C	2.045290	0.008278	0.500070
C107	C	1.131334	-0.469787	0.000026
C108	C	1.631334	0.030213	0.500026
C109	C	1.130140	-0.520207	0.000016
C110	C	1.630140	-0.020207	0.500016
C111	C	1.233027	-0.550900	0.000024
C112	C	1.733027	-0.050900	0.500024
C113	C	1.547059	0.066676	0.000106
C114	C	2.047059	0.566676	0.500106
C115	C	1.673032	0.067959	0.000108
C116	C	2.173032	0.567959	0.500108
C117	C	1.329667	0.158007	0.000059
C118	C	1.829667	0.658007	0.500059
C119	C	1.330965	0.211669	0.000041
C120	C	1.830965	0.711669	0.500041
N121	N	1.339488	0.069656	0.318918
N122	N	1.839488	0.569656	0.818918
N123	N	1.339525	0.069662	-0.318738
N124	N	1.839525	0.569662	0.181262
C125	C	1.339506	0.069661	0.569924
C126	C	1.839506	0.569661	1.069924
C127	C	1.339492	0.069660	0.430246
C128	C	1.839492	0.569660	0.930246
H129	H	1.535700	-0.086985	0.000156
H130	H	2.035700	0.413015	0.500156
H131	H	1.633666	-0.324410	0.000116
H132	H	2.133666	0.175590	0.500116
H133	H	1.518839	-0.793603	0.000058
H134	H	2.018839	-0.293603	0.500058
Br135	Br	1.089625	-0.665567	0.000005
Br136	Br	1.589625	-0.165567	0.500005
Br137	Br	1.589392	-0.195112	0.000118
Br138	Br	2.089392	0.304888	0.500118
Br139	Br	0.992441	-0.395699	-0.000010
Br140	Br	1.492441	0.104301	0.499990
H141	H	1.045364	-0.536261	0.000010
H142	H	1.545364	-0.036261	0.500010
H143	H	1.160173	-0.067080	0.000109
H144	H	1.660173	0.432920	0.500109
Br145	Br	1.683718	-0.583806	0.000080
Br146	Br	2.183718	-0.083806	0.500080
H147	H	1.631483	-0.415870	0.000095
H148	H	2.131483	0.084130	0.500095
Br149	Br	1.577549	-0.691417	0.000091
Br150	Br	2.077549	-0.191417	0.500091
H151	H	1.047549	-0.444801	0.000016
H152	H	1.547549	0.055199	0.500016
Br153	Br	1.086796	-0.784400	0.000034
Br154	Br	1.586796	-0.284400	0.500034
H155	H	1.630058	-0.475667	0.000087
H156	H	2.130058	0.024333	0.500087
H157	H	1.051148	-0.293530	0.000005
H158	H	1.551148	0.206470	0.500005
H159	H	1.157981	-0.158560	0.000119
H160	H	1.657981	0.341440	0.500119
