data_functionalizedCrystal
_audit_creation_method	'MofGen! by Chris Wilmer'
_symmetry_space_group_name_H-M	'P1'
_symmetry_Int_Tables_number	1
_symmetry_cell_setting	triclinic
loop_
_symmetry_equiv_pos_as_xyz
  x,y,z
_cell_length_a	15.944493
_cell_length_b	27.731996
_cell_length_c	14.421503
_cell_angle_alpha	89.998301
_cell_angle_beta	89.992936
_cell_angle_gamma	83.048216
loop_
_atom_site_label
_atom_site_type_symbol
_atom_site_fract_x
_atom_site_fract_y
_atom_site_fract_z
O1	O	1.113726	0.062202	-0.077112
O2	O	1.447059	0.395535	0.256222
O3	O	1.780393	0.728869	0.589555
O4	O	0.869066	0.069917	-0.077118
O5	O	1.202400	0.403251	0.256215
O6	O	1.535733	0.736584	0.589549
O7	O	0.999017	-0.004307	-0.077095
O8	O	1.332351	0.329026	0.256239
O9	O	1.665684	0.662360	0.589572
O10	O	0.983775	0.136426	-0.077135
O11	O	1.317108	0.469759	0.256198
O12	O	1.650441	0.803093	0.589532
O13	O	0.998996	-0.004296	0.077129
O14	O	1.332329	0.329037	0.410462
O15	O	1.665663	0.662371	0.743796
O16	O	0.869045	0.069928	0.077106
O17	O	1.202378	0.403262	0.410439
O18	O	1.535711	0.736595	0.743772
O19	O	1.113704	0.062213	0.077112
O20	O	1.447038	0.395546	0.410445
O21	O	1.780371	0.728880	0.743778
Cu22	Cu	0.991373	0.066072	0.091190
Cu23	Cu	1.324706	0.399405	0.424524
Cu24	Cu	1.658039	0.732738	0.757857
Cu25	Cu	0.991398	0.066059	-0.091197
Cu26	Cu	1.324731	0.399392	0.242137
Cu27	Cu	1.658065	0.732725	0.575470
O28	O	0.983753	0.136437	0.077088
O29	O	1.317086	0.469770	0.410422
O30	O	1.650420	0.803104	0.743755
C31	C	0.837765	0.069607	-0.000007
C32	C	1.171098	0.402941	0.333327
C33	C	1.504432	0.736274	0.666660
C34	C	0.744529	0.068662	-0.000008
C35	C	1.077862	0.401995	0.333325
C36	C	1.411196	0.735329	0.666659
C37	C	0.508183	0.112352	-0.000021
C38	C	0.841517	0.445685	0.333312
C39	C	1.174850	0.779019	0.666645
C40	C	0.457930	0.088797	0.076030
C41	C	0.791264	0.422131	0.409363
C42	C	1.124597	0.755464	0.742696
C43	C	0.573831	0.066910	-0.000006
C44	C	0.907165	0.400244	0.333328
C45	C	1.240498	0.733577	0.666661
C46	C	0.457956	0.088776	-0.076022
C47	C	0.791290	0.422109	0.257311
C48	C	1.124623	0.755442	0.590644
C49	C	0.408944	0.065222	-0.000008
C50	C	0.742278	0.398555	0.333326
C51	C	1.075611	0.731888	0.666659
C52	C	0.524806	0.043368	0.076108
C53	C	0.858140	0.376701	0.409441
C54	C	1.191473	0.710034	0.742775
C55	C	0.524835	0.043353	-0.076013
C56	C	0.858169	0.376686	0.257321
C57	C	1.191502	0.710019	0.590654
C58	C	0.474616	0.019764	0.000057
C59	C	0.807949	0.353098	0.333390
C60	C	1.141282	0.686431	0.666724
C61	C	0.668818	0.067884	-0.000004
C62	C	1.002152	0.401218	0.333329
C63	C	1.335485	0.734551	0.666663
C64	C	0.313960	0.064244	-0.000003
C65	C	0.647294	0.397577	0.333331
C66	C	0.980627	0.730910	0.666664
C67	C	0.998694	-0.022310	0.000020
C68	C	1.332027	0.311023	0.333354
C69	C	1.665360	0.644357	0.666687
C70	C	0.997750	-0.075970	0.000030
C71	C	1.331084	0.257363	0.333363
C72	C	1.664417	0.590696	0.666696
C73	C	0.991828	-0.408718	-0.084083
C74	C	1.325162	-0.075384	0.249250
C75	C	1.658495	0.257949	0.582584
C76	C	0.988247	-0.610391	-0.084099
C77	C	1.321580	-0.277058	0.249234
C78	C	1.654914	0.056276	0.582567
O79	O	0.987758	-0.636469	-0.155596
O80	O	1.321091	-0.303135	0.177738
O81	O	1.654424	0.030198	0.511071
N82	N	0.987790	-0.635604	-0.000033
N83	N	1.321124	-0.302271	0.333300
N84	N	1.654457	0.031063	0.666634
C85	C	0.988224	-0.610395	0.084044
C86	C	1.321557	-0.277062	0.417377
C87	C	1.654890	0.056272	0.750710
O88	O	0.987745	-0.636467	0.155547
O89	O	1.321078	-0.303134	0.488880
O90	O	1.654411	0.030200	0.822213
C91	C	0.991799	-0.408722	0.084059
C92	C	1.325132	-0.075389	0.417392
C93	C	1.658466	0.257944	0.750726
C94	C	0.992264	-0.383512	-0.000013
C95	C	1.325598	-0.050179	0.333320
C96	C	1.658931	0.283154	0.666654
C97	C	0.992293	-0.383508	-0.168148
C98	C	1.325626	-0.050174	0.165185
C99	C	1.658959	0.283159	0.498519
C100	C	0.993192	-0.333093	-0.168143
C101	C	1.326526	0.000241	0.165190
C102	C	1.659859	0.333574	0.498524
C103	C	0.993628	-0.307888	-0.084073
C104	C	1.326962	0.025446	0.249260
C105	C	1.660295	0.358779	0.582594
C106	C	0.993164	-0.333098	-0.000008
C107	C	1.326497	0.000236	0.333325
C108	C	1.659831	0.333569	0.666659
C109	C	0.992226	-0.383514	0.168134
C110	C	1.325560	-0.050181	0.501468
C111	C	1.658893	0.283153	0.834801
C112	C	0.993118	-0.333092	0.168131
C113	C	1.326451	0.000241	0.501464
C114	C	1.659785	0.333574	0.834798
C115	C	0.993583	-0.307883	0.084059
C116	C	1.326917	0.025451	0.417392
C117	C	1.660250	0.358784	0.750726
C118	C	0.994500	-0.257477	0.084067
C119	C	1.327833	0.075856	0.417400
C120	C	1.661166	0.409189	0.750734
N121	N	0.994956	-0.232264	0.000001
N122	N	1.328290	0.101069	0.333334
N123	N	1.661623	0.434402	0.666667
C124	C	0.994521	-0.257470	-0.084069
C125	C	1.327854	0.075864	0.249264
C126	C	1.661187	0.409197	0.582597
C127	C	0.986348	-0.716276	0.084030
C128	C	1.319682	-0.382943	0.417363
C129	C	1.653015	-0.049610	0.750696
C130	C	0.985456	-0.766694	0.084026
C131	C	1.318789	-0.433361	0.417359
C132	C	1.652123	-0.100028	0.750693
C133	C	0.985478	-0.766687	-0.084117
C134	C	1.318811	-0.433353	0.249216
C135	C	1.652144	-0.100020	0.582549
C136	C	0.986376	-0.716268	-0.084113
C137	C	1.319709	-0.382935	0.249221
C138	C	1.653043	-0.049601	0.582554
C139	C	0.986805	-0.691063	-0.000037
C140	C	1.320138	-0.357730	0.333296
C141	C	1.653471	-0.024397	0.666630
C142	C	0.996411	-0.151595	-0.084053
C143	C	1.329745	0.181739	0.249281
C144	C	1.663078	0.515072	0.582614
C145	C	0.997315	-0.101175	-0.084040
C146	C	1.330648	0.232158	0.249293
C147	C	1.663981	0.565491	0.582626
C148	C	0.997288	-0.101187	0.084102
C149	C	1.330622	0.232146	0.417436
C150	C	1.663955	0.565479	0.750769
C151	C	0.996389	-0.151602	0.084091
C152	C	1.329723	0.181731	0.417424
C153	C	1.663056	0.515064	0.750757
C154	C	0.995948	-0.176805	0.000006
C155	C	1.329281	0.156529	0.333339
C156	C	1.662615	0.489862	0.666672
O157	O	0.994980	-0.231368	0.155526
O158	O	1.328313	0.101966	0.488859
O159	O	1.661647	0.435299	0.822193
O160	O	0.994981	-0.231387	-0.155562
O161	O	1.328315	0.101946	0.177771
O162	O	1.661648	0.435279	0.511105
C163	C	0.990928	-0.459133	-0.084088
C164	C	1.324262	-0.125799	0.249245
C165	C	1.657595	0.207534	0.582579
C166	C	0.990464	-0.484342	-0.000023
C167	C	1.323798	-0.151009	0.333311
C168	C	1.657131	0.182324	0.666644
C169	C	0.990900	-0.459137	0.084047
C170	C	1.324233	-0.125804	0.417381
C171	C	1.657567	0.207529	0.750714
C172	C	0.989572	-0.534761	-0.000026
C173	C	1.322905	-0.201427	0.333307
C174	C	1.656239	0.131906	0.666640
C175	C	0.989136	-0.559966	-0.084096
C176	C	1.322470	-0.226632	0.249237
C177	C	1.655803	0.106701	0.582570
C178	C	0.989593	-0.534753	-0.168163
C179	C	1.322926	-0.201419	0.165171
C180	C	1.656259	0.131914	0.498504
C181	C	0.990493	-0.484338	-0.168158
C182	C	1.323826	-0.151004	0.165176
C183	C	1.657159	0.182329	0.498509
C184	C	0.990444	-0.484350	0.168114
C185	C	1.323777	-0.151017	0.501447
C186	C	1.657110	0.182316	0.834780
C187	C	0.989545	-0.534765	0.168102
C188	C	1.322878	-0.201432	0.501435
C189	C	1.656211	0.131901	0.834768
C190	C	0.989109	-0.559970	0.084032
C191	C	1.322442	-0.226637	0.417365
C192	C	1.655776	0.106696	0.750698
C193	C	1.145006	0.062523	-0.000002
C194	C	1.478339	0.395856	0.333332
C195	C	1.811672	0.729189	0.666665
C196	C	1.238242	0.063468	-0.000006
C197	C	1.571575	0.396801	0.333327
C198	C	1.904908	0.730135	0.666660
C199	C	0.984077	0.154440	-0.000029
C200	C	1.317410	0.487774	0.333305
C201	C	1.650744	0.821107	0.666638
C202	C	0.985020	0.208100	-0.000044
C203	C	1.318353	0.541434	0.333289
C204	C	1.651687	0.874767	0.666623
N205	N	0.991361	0.066080	0.219472
N206	N	1.324694	0.399414	0.552805
N207	N	1.658027	0.732747	0.886138
N208	N	0.991417	0.066046	-0.219478
N209	N	1.324750	0.399379	0.113855
N210	N	1.658083	0.732712	0.447189
C211	C	0.931261	0.100386	0.469115
C212	C	1.264594	0.433720	0.802448
C213	C	1.597928	0.767053	1.135781
C214	C	1.007037	0.109762	0.530916
C215	C	1.340371	0.443095	0.864249
C216	C	1.673704	0.776428	1.197583
C217	C	0.991381	0.066069	0.408633
C218	C	1.324715	0.399402	0.741966
C219	C	1.658048	0.732736	1.075300
C220	C	0.915624	0.056705	0.530926
C221	C	1.248958	0.390038	0.864259
C222	C	1.582291	0.723372	1.197592
C223	C	0.991394	0.066059	0.591355
C224	C	1.324728	0.399392	0.924688
C225	C	1.658061	0.732726	1.258021
C226	C	1.067196	0.075466	0.469074
C227	C	1.400529	0.408799	0.802407
C228	C	1.733863	0.742133	1.135740
C229	C	0.975733	0.022390	0.469078
C230	C	1.309066	0.355724	0.802411
C231	C	1.642400	0.689057	1.135745
C232	C	1.051565	0.031747	0.530851
C233	C	1.384898	0.365080	0.864185
C234	C	1.718231	0.698414	1.197518
C235	C	0.991373	0.066076	0.303372
C236	C	1.324706	0.399409	0.636705
C237	C	1.658039	0.732743	0.970039
C238	C	0.991412	0.066051	0.696613
C239	C	1.324745	0.399385	1.029947
C240	C	1.658079	0.732718	1.363280
H241	H	0.554048	0.024172	-0.140299
H242	H	0.887381	0.357505	0.193034
H243	H	1.220714	0.690838	0.526368
H244	H	0.428769	0.107971	-0.140308
H245	H	0.762103	0.441304	0.193025
H246	H	1.095436	0.774638	0.526358
Cl247	Cl	0.984888	-0.798382	0.189721
Cl248	Cl	1.318221	-0.465048	0.523054
Cl249	Cl	1.651554	-0.131715	0.856388
H250	H	0.428727	0.107993	0.140313
H251	H	0.762060	0.441326	0.473646
H252	H	1.095393	0.774659	0.806979
H253	H	0.997695	-0.080652	-0.152505
H254	H	1.331029	0.252681	0.180829
H255	H	1.664362	0.586015	0.514162
Cl256	Cl	0.569692	0.013765	0.175476
Cl257	Cl	0.903025	0.347098	0.508809
Cl258	Cl	1.236358	0.680431	0.842143
Cl259	Cl	0.451538	-0.040713	0.000142
Cl260	Cl	0.784871	0.292620	0.333475
Cl261	Cl	1.118204	0.625953	0.666809
H262	H	0.996048	-0.172108	-0.152523
H263	H	1.329381	0.161225	0.180811
H264	H	1.662714	0.494559	0.514144
H265	H	0.993568	-0.312571	-0.236603
H266	H	1.326901	0.020762	0.096730
H267	H	1.660235	0.354095	0.430064
H268	H	0.880470	0.129431	0.442008
H269	H	1.213804	0.462764	0.775341
H270	H	1.547137	0.796097	1.108674
Cl271	Cl	1.027493	0.166783	0.572854
Cl272	Cl	1.360826	0.500117	0.906187
Cl273	Cl	1.694159	0.833450	1.239521
Cl274	Cl	0.991746	-0.415185	-0.273851
Cl275	Cl	1.325079	-0.081852	0.059483
Cl276	Cl	1.658413	0.251481	0.392816
H277	H	1.131281	0.083426	0.442019
H278	H	1.464614	0.416759	0.775352
H279	H	1.797948	0.750093	1.108686
H280	H	1.102467	0.002720	0.557788
H281	H	1.435801	0.336053	0.891122
H282	H	1.769134	0.669387	1.224455
Cl283	Cl	0.986883	-0.684597	0.189736
Cl284	Cl	1.320217	-0.351264	0.523070
Cl285	Cl	1.653550	-0.017930	0.856403
H286	H	0.991849	-0.404031	0.236595
H287	H	1.325182	-0.070698	0.569928
H288	H	1.658516	0.262636	0.903262
Cl289	Cl	0.986958	-0.684581	-0.189807
Cl290	Cl	1.320291	-0.351248	0.143527
Cl291	Cl	1.653625	-0.017914	0.476860
H292	H	0.993455	-0.312572	0.236597
H293	H	1.326788	0.020761	0.569931
H294	H	1.660121	0.354094	0.903264
H295	H	0.985124	-0.787217	-0.152570
H296	H	1.318457	-0.453884	0.180763
H297	H	1.651790	-0.120551	0.514096
Cl298	Cl	0.995821	-0.183297	0.189782
Cl299	Cl	1.329154	0.150037	0.523115
Cl300	Cl	1.662487	0.483370	0.856449
Cl301	Cl	0.955243	-0.034615	0.427104
Cl302	Cl	1.288576	0.298719	0.760437
Cl303	Cl	1.621909	0.632052	1.093771
H304	H	0.997647	-0.080656	0.152550
H305	H	1.330980	0.252677	0.485883
H306	H	1.664314	0.586010	0.819217
H307	H	0.851553	0.048789	0.558097
H308	H	1.184886	0.382123	0.891430
H309	H	1.518219	0.715456	1.224764
H310	H	0.990871	-0.463816	-0.236618
H311	H	1.324204	-0.130483	0.096715
H312	H	1.657538	0.202850	0.430049
Cl313	Cl	0.990985	-0.452671	0.273813
Cl314	Cl	1.324318	-0.119338	0.607146
Cl315	Cl	1.657652	0.213996	0.940480
Cl316	Cl	0.989049	-0.566449	-0.273850
Cl317	Cl	1.322382	-0.233116	0.059484
Cl318	Cl	1.655715	0.100218	0.392817
H319	H	0.523283	0.151495	0.000039
H320	H	0.856616	0.484829	0.333372
H321	H	1.189949	0.818162	0.666705
H322	H	0.989172	-0.555287	0.236568
H323	H	1.322506	-0.221954	0.569902
H324	H	1.655839	0.111379	0.903235
