data_functionalizedCrystal
_audit_creation_method	'MofGen! by Chris Wilmer'
_symmetry_space_group_name_H-M	'P1'
_symmetry_Int_Tables_number	1
_symmetry_cell_setting	triclinic
loop_
_symmetry_equiv_pos_as_xyz
  x,y,z
_cell_length_a	17.038272
_cell_length_b	9.130313
_cell_length_c	10.654550
_cell_angle_alpha	89.999890
_cell_angle_beta	87.798230
_cell_angle_gamma	90.005249
loop_
_atom_site_label
_atom_site_type_symbol
_atom_site_fract_x
_atom_site_fract_y
_atom_site_fract_z
O1	O	1.038886	-0.121610	0.272859
O2	O	0.811232	-0.121653	0.268526
O3	O	0.930293	-0.121625	0.088439
O4	O	0.919825	-0.121638	0.452946
O5	O	0.930292	0.121974	0.088444
O6	O	0.811230	0.121946	0.268531
O7	O	1.038885	0.121989	0.272864
Cu8	Cu	0.925057	0.144210	0.270698
Cu9	Cu	0.925059	-0.143874	0.270692
O10	O	0.919823	0.121961	0.452951
C11	C	0.782081	0.000141	0.264588
C12	C	0.695222	0.000124	0.252831
N13	N	0.925062	0.346832	0.270702
N14	N	0.925061	-0.346497	0.270679
C15	C	0.645711	0.000122	0.360775
C16	C	0.564098	0.000142	0.349720
C17	C	0.531999	0.000155	0.230720
C18	C	0.581517	0.000162	0.122768
C19	C	0.663127	0.000152	0.133824
C20	C	0.286023	0.000195	0.191663
C21	C	0.204406	0.000201	0.180615
C22	C	0.186993	0.000184	0.407568
C23	C	0.268606	0.000165	0.418614
C24	C	0.318117	0.000180	0.310661
C25	C	0.448578	0.000171	0.219418
C26	C	0.401536	0.000174	0.321965
C27	C	1.068036	0.000192	0.276802
C28	C	1.154895	0.000199	0.288559
C29	C	0.929524	0.000172	0.041572
C30	C	0.927224	0.000167	-0.098084
C31	C	0.977796	0.423497	0.190990
C32	C	0.977794	0.576834	0.190974
C33	C	0.872321	0.576828	0.350394
C34	C	0.872320	0.423494	0.350402
C35	C	1.038692	0.423501	0.098954
C36	C	1.038690	0.576838	0.098938
C37	C	0.997326	0.000184	-0.171061
C38	C	0.995160	0.000174	-0.302283
C39	C	0.852785	0.000134	-0.287540
C40	C	0.854952	0.000134	-0.156320
C41	C	1.079525	0.000214	-0.179574
C42	C	1.077359	0.000203	-0.310796
C43	C	0.920593	0.000160	0.499817
C44	C	0.922892	0.000156	0.639474
H45	H	0.671839	0.000110	0.457677
H46	H	0.523789	0.000138	0.437620
O47	O	1.021008	0.368315	-0.030542
H48	H	0.962472	0.408833	-0.056890
H49	H	0.294735	0.000138	0.515516
H50	H	1.111677	-0.101719	-0.147233
O51	O	0.413952	0.000185	0.091071
H52	H	0.433782	-0.099097	0.038769
H53	H	0.146673	0.000175	0.495456
H54	H	1.108330	0.102153	-0.349678
O55	O	0.546901	0.000181	-0.005587
H56	H	0.481834	0.000174	0.004858
O57	O	0.169779	0.000229	0.052260
H58	H	0.217917	0.000253	-0.020950
O59	O	0.774839	0.000107	-0.350360
H60	H	0.726457	0.000086	-0.277565
O61	O	0.339419	0.000211	0.075235
H62	H	0.303385	0.000209	-0.009367
O63	O	1.118311	0.631999	0.134861
H64	H	1.144284	0.699513	0.057218
O65	O	0.815439	0.340799	0.436369
H66	H	0.778772	0.419871	0.491794
H67	H	1.105699	0.105400	-0.141514
H68	H	0.703439	0.000153	0.045924
O69	O	1.110268	-0.139099	-0.368223
H70	H	1.129470	-0.212944	-0.292551
H71	H	0.427675	0.000172	0.418854
H72	H	0.829379	0.639263	0.415283
O73	O	0.779343	0.000118	-0.077603
H74	H	0.728727	0.000114	-0.140147
H75	H	1.095490	0.375953	0.134816
H76	H	1.019684	0.624384	0.005951
