data_functionalizedCrystal
_audit_creation_method	'MofGen! by Chris Wilmer'
_symmetry_space_group_name_H-M	'P1'
_symmetry_Int_Tables_number	1
_symmetry_cell_setting	triclinic
loop_
_symmetry_equiv_pos_as_xyz
  x,y,z
_cell_length_a	19.188930
_cell_length_b	26.809956
_cell_length_c	27.732048
_cell_angle_alpha	89.999364
_cell_angle_beta	97.106284
_cell_angle_gamma	90.022679
loop_
_atom_site_label
_atom_site_type_symbol
_atom_site_fract_x
_atom_site_fract_y
_atom_site_fract_z
O1	O	0.925766	0.041645	-0.060340
O2	O	0.722402	0.041612	-0.068464
O3	O	0.830400	0.041620	0.005975
O4	O	0.817768	0.041637	-0.134780
O5	O	0.830380	-0.041339	0.005964
O6	O	0.722382	-0.041348	-0.068475
O7	O	0.925745	-0.041314	-0.060352
Zn8	Zn	0.824060	-0.054502	-0.064415
Zn9	Zn	0.824087	0.054800	-0.064400
O10	O	0.817748	-0.041322	-0.134791
C11	C	0.696383	0.000128	-0.068207
C12	C	0.618883	0.000115	-0.067417
N13	N	0.824047	-0.129098	-0.064425
C14	C	0.573681	0.000128	-0.111096
C15	C	0.500862	0.000133	-0.110354
C16	C	0.473249	0.000135	-0.065931
C17	C	0.518461	0.000119	-0.022246
C18	C	0.591278	0.000109	-0.022990
N19	N	0.365492	0.028386	-0.031971
N20	N	0.296318	0.028397	-0.031268
C21	C	0.253854	0.000166	-0.063689
N22	N	0.283177	-0.028071	-0.096847
N23	N	0.352357	-0.028080	-0.097551
C24	C	0.394291	0.000146	-0.065120
C25	C	0.129692	0.000184	-0.106566
C26	C	0.056872	0.000186	-0.105822
C27	C	0.074473	0.000178	-0.017714
C28	C	0.147292	0.000170	-0.018459
C29	C	0.174897	0.000176	-0.062886
C30	C	0.871902	-0.473721	-0.031447
C31	C	0.871919	-0.682598	-0.031439
O32	O	0.912579	-0.709599	-0.003403
N33	N	0.824091	-0.708725	-0.064390
C34	C	0.776253	-0.682630	-0.097342
O35	O	0.735568	-0.709645	-0.125365
C36	C	0.776233	-0.473753	-0.097347
C37	C	0.824069	-0.447629	-0.064398
C38	C	0.919734	-0.447596	0.001500
C39	C	0.919732	-0.395380	0.001496
C40	C	0.871898	-0.369288	-0.031455
C41	C	0.824067	-0.395412	-0.064402
C42	C	0.728392	-0.447658	-0.130297
C43	C	0.728390	-0.395436	-0.130294
C44	C	0.776226	-0.369312	-0.097345
C45	C	0.776231	-0.317104	-0.097356
N46	N	0.824059	-0.290977	-0.064406
C47	C	0.871893	-0.317069	-0.031455
C48	C	0.776267	-0.792293	-0.097338
C49	C	0.776273	-0.844512	-0.097338
C50	C	0.871938	-0.844477	-0.031434
C51	C	0.871935	-0.792257	-0.031437
C52	C	0.824095	-0.766166	-0.064388
C53	C	0.871885	-0.207411	-0.031466
C54	C	0.871881	-0.155190	-0.031474
C55	C	0.776213	-0.155230	-0.097376
C56	C	0.776219	-0.207446	-0.097370
C57	C	0.824058	-0.233536	-0.064411
O58	O	0.735588	-0.290071	-0.125375
O59	O	0.912561	-0.290045	-0.003429
C60	C	0.871904	-0.525937	-0.031443
C61	C	0.824073	-0.552061	-0.064390
C62	C	0.776240	-0.525969	-0.097341
C63	C	0.824079	-0.604280	-0.064389
C64	C	0.871912	-0.630372	-0.031438
C65	C	0.919740	-0.604245	0.001512
C66	C	0.919738	-0.552029	0.001508
C67	C	0.728412	-0.552096	-0.130291
C68	C	0.728418	-0.604313	-0.130285
C69	C	0.776252	-0.630405	-0.097334
C70	C	0.951765	0.000171	-0.060609
C71	C	1.029264	0.000188	-0.061399
C72	C	0.830125	0.000139	0.023977
C73	C	0.829326	0.000135	0.077635
N74	N	0.824106	0.129396	-0.064387
C75	C	0.818023	0.000160	-0.152793
C76	C	0.818821	0.000167	-0.206450
C77	C	0.888119	0.000170	0.416270
C78	C	0.885157	0.000177	0.617939
O79	O	0.938918	0.000207	0.649030
N80	N	0.821118	0.000165	0.637258
C81	C	0.757816	0.000156	0.606157
O82	O	0.703280	0.000152	0.627217
C83	C	0.760780	0.000153	0.404489
C84	C	0.824822	0.000159	0.385173
C85	C	0.952156	0.000177	0.396953
C86	C	0.952896	0.000172	0.346539
C87	C	0.889599	0.000161	0.315441
C88	C	0.825562	0.000155	0.334759
C89	C	0.697478	0.000147	0.373389
C90	C	0.698225	0.000148	0.322970
C91	C	0.762267	0.000154	0.303653
C92	C	0.763005	0.000140	0.253247
N93	N	0.827043	0.000151	0.233928
C94	C	0.890340	0.000162	0.265025
C95	C	0.756265	0.000157	0.712036
C96	C	0.755524	0.000157	0.762452
C97	C	0.882865	0.000178	0.774231
C98	C	0.883605	0.000174	0.723813
C99	C	0.820303	0.000168	0.692716
C100	C	0.891889	0.000152	0.159151
C101	C	0.892623	0.000146	0.108732
C102	C	0.765283	0.000127	0.096958
C103	C	0.764549	0.000131	0.147373
C104	C	0.827857	0.000145	0.178468
O105	O	0.709272	0.000115	0.222127
O106	O	0.944868	0.000177	0.243956
C107	C	0.887379	0.000174	0.466684
C108	C	0.823342	0.000168	0.486001
C109	C	0.760045	0.000157	0.454904
C110	C	0.822601	0.000168	0.536418
C111	C	0.885898	0.000179	0.567515
C112	C	0.949936	0.000190	0.548195
C113	C	0.950676	0.000185	0.497781
C114	C	0.696007	0.000146	0.474224
C115	C	0.695272	0.000150	0.524638
C116	C	0.758569	0.000161	0.555735
H117	H	0.596152	0.000133	-0.147272
H118	H	0.958681	-0.374113	0.028327
H119	H	0.628083	0.000099	0.012580
O120	O	1.020432	0.000181	0.430490
H121	H	1.065078	0.000181	0.408579
O122	O	0.629947	0.000134	0.289430
H123	H	0.599280	0.033940	0.296284
O124	O	1.021974	0.000193	0.325711
H125	H	1.052362	-0.033609	0.338219
O126	O	0.627733	0.000133	0.440686
H127	H	0.625019	-0.033682	0.417435
H128	H	1.002826	0.000190	0.482059
H129	H	0.051991	0.000210	0.018456
O130	O	0.952677	0.000190	0.702979
H131	H	0.996563	0.000202	0.733078
O132	O	0.452093	0.000152	-0.157465
H133	H	0.483523	0.000158	-0.188483
H134	H	0.934404	0.000186	0.799559
O135	O	0.488685	0.000119	0.025669
H136	H	0.455965	0.033939	0.028124
O137	O	0.923522	-0.764081	0.004105
H138	H	0.956778	-0.791002	0.027018
H139	H	0.703375	0.000143	0.778175
H140	H	0.152169	0.000181	-0.142741
H141	H	0.020068	0.000194	-0.141392
H142	H	0.958685	-0.468836	0.028335
O143	O	0.196053	0.000160	0.028652
H144	H	0.164621	0.000166	0.059668
O145	O	0.923528	-0.872623	0.004111
H146	H	0.915486	-0.913322	-0.001425
O147	O	0.676822	-0.475828	-0.165852
H148	H	0.643569	-0.448904	-0.188764
O149	O	0.626194	0.000140	0.545471
H150	H	0.595821	0.033950	0.532968
O151	O	0.923472	-0.127012	0.004068
H152	H	0.956726	-0.153932	0.026985
H153	H	0.910839	-0.228647	-0.004628
H154	H	0.958690	-0.625498	0.028340
O155	O	0.724702	-0.872688	-0.132891
H156	H	0.691444	-0.845766	-0.155803
O157	O	0.724671	-0.764154	-0.132884
H158	H	0.691424	-0.791100	-0.155796
H159	H	0.645328	0.000146	0.389107
H160	H	0.689430	-0.374195	-0.157126
O161	O	0.961700	0.000153	0.087897
H162	H	0.965088	0.033962	0.065204
O163	O	0.676828	-0.632492	-0.165827
H164	H	0.705967	-0.656272	-0.189269
H165	H	0.704714	0.000151	0.686720
H166	H	0.737274	-0.228717	-0.124205
O167	O	0.724605	-0.127084	-0.132904
H168	H	0.732633	-0.086385	-0.127359
O169	O	1.018209	0.000201	0.581740
H170	H	1.006928	0.000206	0.620042
O171	O	0.971325	-0.523854	0.037051
H172	H	1.004578	-0.550778	0.059964
H173	H	0.689459	-0.530856	-0.157123
O174	O	0.960169	0.000160	0.192687
H175	H	1.004817	0.000158	0.170777
H176	H	0.712400	0.000112	0.163101
O177	O	0.697014	0.000116	0.063414
H178	H	0.708294	0.000120	0.025112
