data_functionalizedCrystal
_audit_creation_method	'MofGen! by Chris Wilmer'
_symmetry_space_group_name_H-M	'P1'
_symmetry_Int_Tables_number	1
_symmetry_cell_setting	triclinic
loop_
_symmetry_equiv_pos_as_xyz
  x,y,z
_cell_length_a	14.519709
_cell_length_b	14.519731
_cell_length_c	10.868271
_cell_angle_alpha	89.995592
_cell_angle_beta	89.998940
_cell_angle_gamma	96.315501
loop_
_atom_site_label
_atom_site_type_symbol
_atom_site_fract_x
_atom_site_fract_y
_atom_site_fract_z
O1	O	-0.120985	1.223855	-0.102307
O2	O	0.129015	1.473855	0.147693
O3	O	0.379015	1.723855	0.397693
O4	O	0.629015	1.973855	0.647693
O5	O	-0.135201	0.955381	-0.102307
O6	O	0.114799	1.205381	0.147693
O7	O	0.364799	1.455381	0.397693
O8	O	0.614799	1.705381	0.647693
O9	O	0.006145	1.096736	-0.102319
O10	O	0.256145	1.346736	0.147681
O11	O	0.506145	1.596736	0.397681
O12	O	0.756145	1.846736	0.647681
O13	O	-0.262331	1.082500	-0.102296
O14	O	-0.012331	1.332500	0.147704
O15	O	0.237669	1.582500	0.397704
O16	O	0.487669	1.832500	0.647704
O17	O	0.006150	1.096725	0.102326
O18	O	0.256150	1.346725	0.352326
O19	O	0.506150	1.596725	0.602326
O20	O	0.756150	1.846725	0.852326
O21	O	-0.135196	0.955369	0.102337
O22	O	0.114804	1.205369	0.352337
O23	O	0.364804	1.455369	0.602337
O24	O	0.614804	1.705369	0.852337
O25	O	-0.120980	1.223843	0.102337
O26	O	0.129020	1.473843	0.352337
O27	O	0.379020	1.723843	0.602337
O28	O	0.629020	1.973843	0.852337
Zn29	Zn	-0.128087	1.089604	0.134829
Zn30	Zn	0.121913	1.339604	0.384829
Zn31	Zn	0.371913	1.589604	0.634829
Zn32	Zn	0.621913	1.839604	0.884829
Zn33	Zn	-0.128094	1.089620	-0.134799
Zn34	Zn	0.121906	1.339620	0.115201
Zn35	Zn	0.371906	1.589620	0.365201
Zn36	Zn	0.621906	1.839620	0.615201
O37	O	-0.262326	1.082488	0.102349
O38	O	-0.012326	1.332488	0.352349
O39	O	0.237674	1.582488	0.602349
O40	O	0.487674	1.832488	0.852349
C41	C	-0.134532	0.921016	0.000015
C42	C	0.115468	1.171016	0.250015
C43	C	0.365468	1.421016	0.500015
C44	C	0.615468	1.671016	0.750015
C45	C	-0.132536	0.818635	0.000014
C46	C	0.117464	1.068635	0.250014
C47	C	0.367464	1.318635	0.500014
C48	C	0.617464	1.568635	0.750014
C49	C	-0.130915	0.735491	0.000009
C50	C	0.119085	0.985491	0.250009
C51	C	0.369085	1.235491	0.500009
C52	C	0.619085	1.485491	0.750009
C53	C	-0.128888	0.631182	0.000008
C54	C	0.121112	0.881182	0.250008
C55	C	0.371112	1.131182	0.500008
C56	C	0.621112	1.381182	0.750008
C57	C	-0.127280	0.548043	0.000008
C58	C	0.122720	0.798043	0.250008
C59	C	0.372720	1.048043	0.500008
C60	C	0.622720	1.298043	0.750008
C61	C	-0.125253	0.443728	0.000005
C62	C	0.124747	0.693728	0.250005
C63	C	0.374747	0.943728	0.500005
C64	C	0.624747	1.193728	0.750005
C65	C	-0.296688	1.083157	0.000029
C66	C	-0.046688	1.333157	0.250029
C67	C	0.203312	1.583157	0.500029
C68	C	0.453312	1.833157	0.750029
C69	C	-0.399070	1.085146	0.000037
C70	C	-0.149070	1.335146	0.250037
C71	C	0.100930	1.585146	0.500037
C72	C	0.350930	1.835146	0.750037
C73	C	-0.773966	1.092465	-0.000012
C74	C	-0.523966	1.342465	0.249988
C75	C	-0.273966	1.592465	0.499988
C76	C	-0.023966	1.842465	0.749988
C77	C	-0.669658	1.090432	0.000002
C78	C	-0.419658	1.340432	0.250002
C79	C	-0.169658	1.590432	0.500002
C80	C	0.080342	1.840432	0.750002
C81	C	-0.586521	1.088806	0.000014
C82	C	-0.336521	1.338806	0.250014
C83	C	-0.086521	1.588806	0.500014
C84	C	0.163479	1.838806	0.750014
C85	C	-0.482207	1.086773	0.000026
C86	C	-0.232207	1.336773	0.250026
C87	C	0.017793	1.586773	0.500026
C88	C	0.267793	1.836773	0.750026
C89	C	0.040507	1.096067	-0.000002
C90	C	0.290507	1.346067	0.249998
C91	C	0.540507	1.596067	0.499998
C92	C	0.790507	1.846067	0.749998
C93	C	0.142889	1.094079	-0.000018
C94	C	0.392889	1.344079	0.249982
C95	C	0.642889	1.594079	0.499982
C96	C	0.892889	1.844079	0.749982
C97	C	-0.121649	1.258209	0.000012
C98	C	0.128351	1.508209	0.250012
C99	C	0.378351	1.758209	0.500012
C100	C	0.628351	2.008209	0.750012
C101	C	-0.123645	1.360589	0.000005
C102	C	0.126355	1.610589	0.250005
C103	C	0.376355	1.860589	0.500005
C104	C	0.626355	2.110589	0.750005
N105	N	-0.128081	1.089601	0.318843
N106	N	0.121919	1.339601	0.568843
N107	N	0.371919	1.589601	0.818843
N108	N	0.621919	1.839601	1.068843
N109	N	-0.128092	1.089631	-0.318813
N110	N	0.121908	1.339631	-0.068813
N111	N	0.371908	1.589631	0.181187
N112	N	0.621908	1.839631	0.431187
C113	C	-0.128092	1.089615	0.569849
C114	C	0.121908	1.339615	0.819849
C115	C	0.371908	1.589615	1.069849
C116	C	0.621908	1.839615	1.319849
C117	C	-0.128089	1.089604	0.430172
C118	C	0.121911	1.339604	0.680172
C119	C	0.371911	1.589604	0.930172
C120	C	0.621911	1.839604	1.180172
