data_functionalizedCrystal
_audit_creation_method	'MofGen! by Chris Wilmer'
_symmetry_space_group_name_H-M	'P1'
_symmetry_Int_Tables_number	1
_symmetry_cell_setting	triclinic
loop_
_symmetry_equiv_pos_as_xyz
  x,y,z
_cell_length_a	14.853566
_cell_length_b	15.944564
_cell_length_c	13.330367
_cell_angle_alpha	90.005823
_cell_angle_beta	89.995295
_cell_angle_gamma	96.430826
loop_
_atom_site_label
_atom_site_type_symbol
_atom_site_fract_x
_atom_site_fract_y
_atom_site_fract_z
O1	O	1.196234	-0.109659	-0.083360
O2	O	0.933758	-0.122724	-0.083377
O3	O	1.072158	0.006075	-0.083358
O4	O	1.057835	-0.238457	-0.083378
O5	O	1.072138	0.006078	0.083489
O6	O	0.933738	-0.122721	0.083470
O7	O	1.196214	-0.109656	0.083487
Cu8	Cu	1.064974	-0.116188	0.098713
Cu9	Cu	1.064998	-0.116191	-0.098603
O10	O	1.057814	-0.238454	0.083469
C11	C	0.900160	-0.122130	0.000045
C12	C	0.800079	-0.120357	0.000039
C13	C	0.376914	-0.112858	-0.090892
C14	C	0.376914	-0.112855	0.091012
C15	C	0.470946	-0.114520	0.091008
C16	C	0.517966	-0.115356	0.000054
C17	C	0.470954	-0.114526	-0.090898
C18	C	0.517963	-0.115359	0.181958
C19	C	0.612001	-0.117025	0.181959
C20	C	0.659024	-0.117855	0.091003
C21	C	0.612006	-0.117024	0.000048
C22	C	0.659027	-0.117859	-0.090907
C23	C	0.612012	-0.117022	-0.181863
C24	C	0.517977	-0.115355	-0.181853
C25	C	0.753058	-0.119522	0.090993
C26	C	0.753067	-0.119527	-0.090913
C27	C	1.071551	0.037371	0.000066
C28	C	1.069762	0.130618	0.000066
C29	C	0.979697	0.345574	0.000048
C30	C	1.021503	0.406546	0.082317
C31	C	1.066526	0.301347	0.000059
C32	C	1.021543	0.406526	-0.082182
C33	C	1.063394	0.466262	0.000048
C34	C	1.108356	0.361090	0.082396
C35	C	1.108384	0.361065	-0.082176
C36	C	1.150253	0.422019	0.000113
C37	C	1.068328	0.206343	0.000067
C38	C	1.061599	0.561264	0.000048
C39	C	1.229812	-0.110249	0.000063
C40	C	1.329894	-0.112022	0.000063
C41	C	1.058409	0.730248	0.000044
C42	C	1.060161	0.636996	0.000040
N43	N	1.064964	-0.116185	0.237495
N44	N	1.065015	-0.116188	-0.237384
C45	C	1.003712	-0.173201	0.710109
C46	C	1.126308	-0.059175	0.710094
C47	C	1.126298	-0.059173	0.605075
C48	C	1.064995	-0.116186	0.552569
C49	C	1.003702	-0.173202	0.605081
C50	C	1.187596	-0.002164	0.552556
C51	C	1.187589	-0.002159	0.447531
C52	C	1.126281	-0.059169	0.395023
C53	C	1.064985	-0.116187	0.447541
C54	C	1.003681	-0.173200	0.395035
C55	C	0.942380	-0.230214	0.447552
C56	C	0.942394	-0.230212	0.552573
C57	C	1.126267	-0.059172	0.290001
C58	C	1.003671	-0.173201	0.290007
H59	H	0.479671	-0.114685	0.256008
F60	F	0.662029	-0.117915	0.278761
F61	F	0.467939	-0.114438	-0.278646
F62	F	1.156358	0.334696	-0.173084
H63	H	0.791345	-0.120204	-0.164980
H64	H	1.176224	-0.012761	0.752848
F65	F	1.252842	0.058506	0.608436
F66	F	1.252828	0.058520	0.391646
H67	H	0.791332	-0.120212	0.165048
H68	H	0.650308	-0.117708	-0.255918
F69	F	0.973531	0.432838	-0.173083
H70	H	0.892470	-0.276639	0.404789
H71	H	0.907628	0.312346	0.000125
F72	F	0.973491	0.432884	0.173220
H73	H	0.953747	-0.219625	0.247263
H74	H	0.338631	-0.112173	-0.164946
H75	H	1.145042	0.341061	0.152024
H76	H	1.222385	0.455097	0.000164
F77	F	0.326868	-0.111975	0.187806
H78	H	1.176182	-0.012756	0.247247
F79	F	0.938470	-0.233874	0.765999
H80	H	0.892485	-0.276631	0.595339
