data_functionalizedCrystal
_audit_creation_method	'MofGen! by Chris Wilmer'
_symmetry_space_group_name_H-M	'P1'
_symmetry_Int_Tables_number	1
_symmetry_cell_setting	triclinic
loop_
_symmetry_equiv_pos_as_xyz
  x,y,z
_cell_length_a	12.759401
_cell_length_b	12.759399
_cell_length_c	12.759386
_cell_angle_alpha	89.937142
_cell_angle_beta	89.958758
_cell_angle_gamma	90.015542
loop_
_atom_site_label
_atom_site_type_symbol
_atom_site_fract_x
_atom_site_fract_y
_atom_site_fract_z
Zn1	Zn	1.606487	-0.417872	-0.593982
Zn2	Zn	1.606311	-0.593686	-0.418301
Zn3	Zn	1.430720	-0.418023	-0.418321
Zn4	Zn	1.430776	-0.593511	-0.593942
O5	O	1.518573	-0.505773	-0.506137
O6	O	1.753485	-0.441204	-0.570686
O7	O	1.582921	-0.570520	-0.271282
O8	O	1.454086	-0.270982	-0.441648
O9	O	1.753355	-0.570374	-0.441614
O10	O	1.583221	-0.270871	-0.570706
O11	O	1.453915	-0.441461	-0.271297
O12	O	1.283706	-0.441291	-0.441609
O13	O	1.454182	-0.570076	-0.740969
O14	O	1.283748	-0.570222	-0.570638
O15	O	1.583276	-0.441035	-0.740998
O16	O	1.582976	-0.740684	-0.441575
O17	O	1.454011	-0.740555	-0.570618
C18	C	1.245606	-0.505755	-0.506122
C19	C	1.128829	-0.505772	-0.506141
C20	C	1.074036	-0.438635	-0.573452
C21	C	0.964311	-0.438646	-0.573459
C22	C	0.964185	-0.572940	-0.438840
C23	C	1.073907	-0.572923	-0.438828
C24	C	0.814407	-0.314788	-0.611228
C25	C	0.759610	-0.247660	-0.678556
C26	C	0.795307	-0.231590	-0.781095
C27	C	0.885800	-0.282663	-0.816327
C28	C	0.940592	-0.349799	-0.749004
C29	C	0.904896	-0.365849	-0.646451
C30	C	1.223813	-0.696783	-0.401070
C31	C	1.278607	-0.763925	-0.333752
C32	C	1.242912	-0.780005	-0.231211
C33	C	1.152415	-0.728951	-0.195984
C34	C	1.097622	-0.661809	-0.263302
C35	C	1.133324	-0.645727	-0.365841
C36	C	1.518509	-0.778740	-0.506113
C37	C	1.518578	-0.895517	-0.506138
C38	C	1.585806	-0.950411	-0.439022
C39	C	1.585873	-1.060135	-0.439057
C40	C	1.451475	-1.060061	-0.573327
C41	C	1.451414	-0.950339	-0.573297
C42	C	1.709868	-1.210034	-0.401666
C43	C	1.777087	-1.264931	-0.334534
C44	C	1.793211	-1.229448	-0.232023
C45	C	1.742101	-1.139069	-0.196624
C46	C	1.674874	-1.084177	-0.263751
C47	C	1.658770	-1.119659	-0.366277
C48	C	1.327418	-0.800439	-0.610676
C49	C	1.260185	-0.745545	-0.677799
C50	C	1.244050	-0.781026	-0.780311
C51	C	1.295142	-0.871408	-0.815706
C52	C	1.362375	-0.926302	-0.748584
C53	C	1.378511	-0.890814	-0.646072
C54	C	1.792607	-0.505792	-0.506152
C55	C	1.909383	-0.505800	-0.506159
C56	C	1.518755	-0.505519	-0.780171
C57	C	1.518833	-0.505411	-0.896947
C58	C	1.518667	-0.231740	-0.506184
C59	C	1.518706	-0.114963	-0.506204
C60	C	1.518453	-0.505950	-0.233169
C61	C	1.518579	-0.505762	-0.116393
C62	C	1.450988	-0.438973	-0.061588
C63	C	1.451117	-0.438795	0.048136
C64	C	1.586431	-0.572203	0.048240
C65	C	1.586307	-0.572375	-0.061482
C66	C	1.412890	-0.314928	0.197827
C67	C	1.345283	-0.248148	0.252635
C68	C	1.242619	-0.232813	0.217174
C69	C	1.207541	-0.284273	0.126906
C70	C	1.275143	-0.351061	0.072103
C71	C	1.377822	-0.366375	0.107563
C72	C	1.624522	-0.696244	-0.211175
C73	C	1.692120	-0.763037	-0.265979
C74	C	1.794786	-0.778383	-0.230520
C75	C	1.829860	-0.726941	-0.140249
C76	C	1.762262	-0.660148	-0.085444
C77	C	1.659597	-0.644801	-0.120911
H78	H	0.685930	-0.206076	-0.649861
N79	N	1.377942	-0.367132	-0.120817
H80	H	1.393756	-0.291917	-0.101959
H81	H	1.388151	-0.377470	-0.198622
H82	H	1.287515	-0.834708	-0.176414
H83	H	1.847944	-1.274153	-0.177364
H84	H	1.818702	-1.338517	-0.363365
N85	N	1.113900	-0.746283	-0.085387
H86	H	1.097863	-0.823065	-0.074621
H87	H	1.169812	-0.723592	-0.034218
H88	H	0.914851	-0.269582	-0.899828
N89	N	0.736205	-0.159193	-0.853717
H90	H	0.673463	-0.129282	-0.815842
H91	H	0.783813	-0.100243	-0.876735
H92	H	1.246584	-0.392958	-0.001391
H93	H	1.696756	-1.238926	-0.485142
N94	N	1.619747	-0.986694	-0.225614
H95	H	1.574120	-1.004755	-0.163447
H96	H	1.673527	-0.932734	-0.204194
H97	H	1.641571	-0.626438	0.092962
H98	H	1.123937	-0.271791	0.098047
H99	H	1.396791	-1.104711	-0.628004
N100	N	1.344826	-0.762161	-0.500107
H101	H	1.275821	-0.761142	-0.461289
H102	H	1.395209	-0.810673	-0.463047
N103	N	1.000025	-0.606732	-0.225290
H104	H	1.010447	-0.528392	-0.229914
H105	H	0.938558	-0.627874	-0.270399
H106	H	1.755226	-1.110192	-0.113145
N107	N	1.417483	-1.023789	-0.786754
H108	H	1.397061	-1.037941	-0.861881
H109	H	1.495804	-1.013265	-0.782259
N110	N	1.940594	-0.743478	-0.101993
H111	H	1.939005	-0.773741	-0.028832
H112	H	1.978036	-0.793567	-0.150478
H113	H	1.187572	-0.178439	0.261806
H114	H	1.282005	-0.900298	-0.899181
H115	H	1.663554	-0.804923	-0.339484
H116	H	1.189300	-0.736322	-0.834961
N117	N	1.867689	-0.850436	-0.289626
H118	H	1.876865	-0.823845	-0.363653
H119	H	1.938006	-0.852320	-0.253380
H120	H	1.352305	-0.805482	-0.362438
H121	H	1.218589	-0.671946	-0.648973
H122	H	1.540926	-0.683745	-0.240061
H123	H	1.373853	-0.206249	0.326132
N124	N	1.523630	-0.331461	0.236063
H125	H	1.561896	-0.262165	0.236946
H126	H	1.521962	-0.361759	0.309205
N127	N	1.800086	-0.604663	0.011923
H128	H	1.875383	-0.624517	0.026075
H129	H	1.794972	-0.526387	0.001258
H130	H	1.118750	-0.383953	-0.628259
H131	H	0.785341	-0.327854	-0.527730
N132	N	1.038184	-0.404891	-0.786991
H133	H	1.052483	-0.384531	-0.862170
H134	H	1.099630	-0.383795	-0.741832
H135	H	1.252891	-0.683687	-0.484564
N136	N	0.904947	-0.645361	-0.366239
H137	H	0.827123	-0.635187	-0.376460
H138	H	0.924130	-0.720405	-0.382454
H139	H	1.640496	-0.905777	-0.384338
