data_functionalizedCrystal
_audit_creation_method	'MofGen! by Chris Wilmer'
_symmetry_space_group_name_H-M	'P1'
_symmetry_Int_Tables_number	1
_symmetry_cell_setting	triclinic
loop_
_symmetry_equiv_pos_as_xyz
  x,y,z
_cell_length_a	19.805407
_cell_length_b	13.897448
_cell_length_c	19.805399
_cell_angle_alpha	90.025019
_cell_angle_beta	90.017803
_cell_angle_gamma	90.015009
loop_
_atom_site_label
_atom_site_type_symbol
_atom_site_fract_x
_atom_site_fract_y
_atom_site_fract_z
Zn1	Zn	1.034777	-0.384106	0.382700
Zn2	Zn	1.534777	0.115894	0.882700
Zn3	Zn	1.034709	-0.545412	0.269517
Zn4	Zn	1.534709	-0.045412	0.769517
Zn5	Zn	0.921591	-0.384125	0.269528
Zn6	Zn	1.421591	0.115875	0.769528
Zn7	Zn	0.921572	-0.545353	0.382667
Zn8	Zn	1.421572	-0.045353	0.882667
O9	O	0.978162	-0.464749	0.326103
O10	O	1.478162	0.035251	0.826103
O11	O	1.129484	-0.405521	0.367695
O12	O	1.629484	0.094479	0.867695
O13	O	1.019683	-0.524050	0.174801
O14	O	1.519683	-0.024050	0.674801
O15	O	0.936642	-0.249141	0.284559
O16	O	1.436642	0.250859	0.784559
O17	O	1.129434	-0.524031	0.284540
O18	O	1.629434	-0.024031	0.784540
O19	O	1.019799	-0.249127	0.367706
O20	O	1.519799	0.250873	0.867706
O21	O	0.936576	-0.405553	0.174810
O22	O	1.436576	0.094447	0.674810
O23	O	0.826872	-0.405496	0.284527
O24	O	1.326872	0.094504	0.784527
O25	O	0.936609	-0.523931	0.477388
O26	O	1.436609	-0.023931	0.977388
O27	O	0.826858	-0.523950	0.367650
O28	O	1.326858	-0.023950	0.867650
O29	O	1.019780	-0.405464	0.477412
O30	O	1.519780	0.094536	0.977412
O31	O	1.019664	-0.680386	0.284508
O32	O	1.519664	-0.180386	0.784508
O33	O	0.936543	-0.680343	0.367639
O34	O	1.436543	-0.180343	0.867639
C35	C	0.802306	-0.464719	0.326086
C36	C	1.302306	0.035281	0.826086
C37	C	0.727074	-0.464729	0.326095
C38	C	1.227074	0.035271	0.826095
C39	C	0.691757	-0.403130	0.369460
C40	C	1.191757	0.096870	0.869460
C41	C	0.621068	-0.403135	0.369463
C42	C	1.121068	0.096865	0.869463
C43	C	0.585699	-0.464745	0.326103
C44	C	1.085699	0.035255	0.826103
C45	C	0.621021	-0.526347	0.282734
C46	C	1.121021	-0.026347	0.782734
C47	C	0.691708	-0.526337	0.282728
C48	C	1.191708	-0.026337	0.782728
C49	C	0.335948	-0.526391	0.282755
C50	C	0.835948	-0.026391	0.782755
C51	C	0.265256	-0.526399	0.282765
C52	C	0.765256	-0.026399	0.782765
C53	C	0.265308	-0.403189	0.369489
C54	C	0.765308	0.096811	0.869489
C55	C	0.335995	-0.403178	0.369483
C56	C	0.835995	0.096822	0.869483
C57	C	0.371311	-0.464777	0.326112
C58	C	0.871311	0.035223	0.826112
C59	C	0.447960	-0.464769	0.326108
C60	C	0.947960	0.035231	0.826108
C61	C	0.509051	-0.464758	0.326110
C62	C	1.009051	0.035242	0.826110
C63	C	0.978113	-0.715364	0.326083
C64	C	1.478113	-0.215364	0.826083
C65	C	0.978154	-0.822578	0.326097
C66	C	1.478154	-0.322578	0.826097
C67	C	0.978225	-1.018873	0.326140
C68	C	1.478225	-0.518873	0.826140
C69	C	0.978183	-0.909640	0.326118
C70	C	1.478183	-0.409640	0.826118
C71	C	1.154705	-0.464780	0.326120
C72	C	1.654705	0.035220	0.826120
C73	C	1.229937	-0.464794	0.326127
C74	C	1.729937	0.035206	0.826127
C75	C	0.978200	-0.464689	0.502646
C76	C	1.478200	0.035311	1.002646
C77	C	0.978216	-0.464663	0.577878
C78	C	1.478216	0.035337	1.077878
C79	C	0.978230	-0.213156	0.326137
C80	C	1.478230	0.286844	0.826137
C81	C	0.978259	-0.105942	0.326152
C82	C	1.478259	0.394058	0.826152
C83	C	0.978163	-0.464740	0.150247
C84	C	1.478163	0.035260	0.650247
C85	C	0.978278	-0.464494	0.075015
C86	C	1.478278	0.035506	0.575015
C87	C	1.021524	-0.402974	0.613235
C88	C	1.521524	0.097026	1.113235
C89	C	1.021531	-0.402946	0.683924
C90	C	1.521531	0.097054	1.183924
C91	C	0.978233	-0.464612	0.719253
C92	C	1.478233	0.035388	1.219253
C93	C	0.934920	-0.526304	0.683890
C94	C	1.434920	-0.026304	1.183890
C95	C	0.934910	-0.526327	0.613203
C96	C	1.434910	-0.026327	1.113203
C97	C	0.934958	-0.526214	0.968964
C98	C	1.434958	-0.026214	1.468964
C99	C	0.934973	-0.526189	1.039656
C100	C	1.434973	-0.026189	1.539656
C101	C	1.021579	-0.402833	1.039684
C102	C	1.521579	0.097167	1.539684
C103	C	1.021570	-0.402856	0.968997
C104	C	1.521570	0.097144	1.468997
C105	C	0.978254	-0.464544	0.933641
C106	C	1.478254	0.035456	1.433641
C107	C	0.978247	-0.464572	0.856992
C108	C	1.478247	0.035428	1.356992
C109	C	0.978244	-0.464590	0.795900
C110	C	1.478244	0.035410	1.295900
H111	H	0.720463	-0.576497	0.247416
H112	H	1.220463	-0.076497	0.747416
Br113	Br	0.876208	-0.609887	1.087603
Br114	Br	1.376208	-0.109887	1.587603
H115	H	1.056785	-0.352760	0.584475
H116	H	1.556785	0.147240	1.084475
Br117	Br	0.876153	-0.609990	0.731837
Br118	Br	1.376153	-0.109990	1.231837
H119	H	0.364789	-0.353012	0.404793
H120	H	0.864789	0.146988	0.904793
H121	H	0.899699	-0.576458	0.940185
H122	H	1.399699	-0.076458	1.440185
Br123	Br	1.080341	-0.319266	0.731907
Br124	Br	1.580341	0.180734	1.231907
H125	H	0.720550	-0.352962	0.404770
H126	H	1.220550	0.147038	0.904770
H127	H	0.236545	-0.353029	0.404802
H128	H	0.736545	0.146971	0.904802
H129	H	0.899638	-0.576551	0.584416
H130	H	1.399638	-0.076551	1.084416
H131	H	0.592217	-0.576507	0.247427
H132	H	1.092217	-0.076507	0.747427
Br133	Br	1.080365	-0.319111	1.087672
Br134	Br	1.580365	0.180889	1.587672
Br135	Br	0.573140	-0.319533	0.428318
Br136	Br	1.073140	0.180467	0.928318
Br137	Br	0.383868	-0.609963	0.223875
Br138	Br	0.883868	-0.109963	0.723875
Br139	Br	0.217254	-0.610018	0.223916
Br140	Br	0.717254	-0.110018	0.723916
H141	H	1.056830	-0.352644	0.940236
H142	H	1.556830	0.147356	1.440236
