data_functionalizedCrystal
_audit_creation_method	'MofGen! by Chris Wilmer'
_symmetry_space_group_name_H-M	'P1'
_symmetry_Int_Tables_number	1
_symmetry_cell_setting	triclinic
loop_
_symmetry_equiv_pos_as_xyz
  x,y,z
_cell_length_a	17.077404
_cell_length_b	14.908178
_cell_length_c	17.077396
_cell_angle_alpha	93.326565
_cell_angle_beta	90.018362
_cell_angle_gamma	93.311930
loop_
_atom_site_label
_atom_site_type_symbol
_atom_site_fract_x
_atom_site_fract_y
_atom_site_fract_z
Zn1	Zn	1.182045	-0.359235	0.425771
Zn2	Zn	1.682045	0.140765	0.925771
Zn3	Zn	1.174388	-0.510118	0.286925
Zn4	Zn	1.674388	-0.010118	0.786925
Zn5	Zn	1.050776	-0.359261	0.294520
Zn6	Zn	1.550776	0.140739	0.794520
Zn7	Zn	1.043184	-0.510059	0.418154
Zn8	Zn	1.543184	-0.010059	0.918154
O9	O	1.112598	-0.434668	0.356342
O10	O	1.612598	0.065332	0.856342
O11	O	1.290876	-0.379264	0.407362
O12	O	1.790876	0.120736	0.907362
O13	O	1.157963	-0.490142	0.178083
O14	O	1.657963	0.009858	0.678083
O15	O	1.074571	-0.233003	0.318297
O16	O	1.574571	0.266997	0.818297
O17	O	1.285250	-0.490117	0.305352
O18	O	1.785250	0.009883	0.805352
O19	O	1.171014	-0.232984	0.414727
O20	O	1.671014	0.267016	0.914727
O21	O	1.067146	-0.379308	0.183664
O22	O	1.567146	0.120692	0.683664
O23	O	0.939922	-0.379250	0.310911
O24	O	1.439922	0.120750	0.810911
O25	O	1.061631	-0.490016	0.529013
O26	O	1.561631	0.009984	1.029013
O27	O	0.934345	-0.490041	0.401745
O28	O	1.434345	0.009959	0.901745
O29	O	1.163652	-0.379207	0.534609
O30	O	1.663652	0.120793	1.034609
O31	O	1.150602	-0.636365	0.297966
O32	O	1.650602	-0.136365	0.797966
O33	O	1.054206	-0.636321	0.394379
O34	O	1.554206	-0.136321	0.894379
C35	C	0.908652	-0.434643	0.356326
C36	C	1.408652	0.065357	0.856326
C37	C	0.821401	-0.434653	0.356337
C38	C	1.321401	0.065347	0.856337
C39	C	0.783336	-0.377035	0.409525
C40	C	1.283336	0.122965	0.909525
C41	C	0.701355	-0.377041	0.409528
C42	C	1.201355	0.122959	0.909528
C43	C	0.657441	-0.434670	0.356346
C44	C	1.157441	0.065330	0.856346
C45	C	0.695512	-0.492291	0.303153
C46	C	1.195512	0.007709	0.803153
C47	C	0.777491	-0.492280	0.303146
C48	C	1.277491	0.007720	0.803146
C49	C	0.524641	-0.492312	0.303171
C50	C	1.024641	0.007688	0.803171
C51	C	0.442656	-0.492324	0.303178
C52	C	0.942656	0.007676	0.803178
C53	C	0.448505	-0.377072	0.409553
C54	C	0.948505	0.122928	0.909553
C55	C	0.530484	-0.377061	0.409546
C56	C	1.030484	0.122939	0.909546
C57	C	0.568549	-0.434684	0.356353
C58	C	1.068549	0.065316	0.856353
C59	C	1.100771	-0.669079	0.344539
C60	C	1.600771	-0.169079	0.844539
C61	C	1.095783	-0.769361	0.339516
C62	C	1.595783	-0.269361	0.839516
C63	C	1.186760	-0.957632	0.430596
C64	C	1.686760	-0.457632	0.930596
C65	C	1.182076	-1.051856	0.425879
C66	C	1.682076	-0.551856	0.925879
C67	C	1.081727	-1.052034	0.325369
C68	C	1.581727	-0.552034	0.825369
C69	C	1.086411	-0.957810	0.330086
C70	C	1.586411	-0.457810	0.830086
C71	C	1.138930	-0.910612	0.382700
C72	C	1.638930	-0.410612	0.882700
C73	C	1.143617	-0.816387	0.387413
C74	C	1.643617	-0.316387	0.887413
C75	C	1.043266	-0.816567	0.286907
C76	C	1.543266	-0.316567	0.786907
C77	C	1.038582	-0.910791	0.282190
C78	C	1.538582	-0.410791	0.782190
C79	C	1.317341	-0.434695	0.356359
C80	C	1.817341	0.065305	0.856359
C81	C	1.404590	-0.434706	0.356366
C82	C	1.904590	0.065294	0.856366
C83	C	1.112649	-0.434602	0.561090
C84	C	1.612649	0.065398	1.061090
C85	C	1.112671	-0.434573	0.648341
C86	C	1.612671	0.065427	1.148341
C87	C	1.124493	-0.199342	0.368209
C88	C	1.624493	0.300658	0.868209
C89	C	1.129562	-0.099060	0.373266
C90	C	1.629562	0.400940	0.873266
C91	C	1.112596	-0.434669	0.152395
C92	C	1.612596	0.065331	0.652395
C93	C	1.112739	-0.434443	0.065156
C94	C	1.612739	0.065557	0.565156
C95	C	1.165795	-0.376870	0.692247
C96	C	1.665795	0.123130	1.192247
C97	C	1.165806	-0.376840	0.774229
C98	C	1.665806	0.123160	1.274229
C99	C	1.112696	-0.434519	0.812304
C100	C	1.612696	0.065481	1.312304
C101	C	1.059566	-0.492224	0.768392
C102	C	1.559566	0.007776	1.268392
C103	C	1.059552	-0.492249	0.686412
C104	C	1.559552	0.007751	1.186412
C105	C	1.059600	-0.492170	0.939265
C106	C	1.559600	0.007830	1.439265
C107	C	1.059615	-0.492147	1.021251
C108	C	1.559615	0.007853	1.521251
C109	C	1.165854	-0.376761	1.027082
C110	C	1.665854	0.123239	1.527082
C111	C	1.165840	-0.376786	0.945102
C112	C	1.665840	0.123214	1.445102
C113	C	1.112711	-0.434493	0.901196
C114	C	1.612711	0.065507	1.401196
H115	H	0.819085	-0.330108	0.452833
H116	H	1.319085	0.169892	0.952833
C117	C	0.647212	-0.555685	0.244653
C118	C	1.147212	-0.055685	0.744653
H119	H	0.681626	-0.589994	0.212971
H120	H	1.181626	-0.089994	0.712971
H121	H	0.613263	-0.595044	0.272646
H122	H	1.113263	-0.095044	0.772646
H123	H	0.616958	-0.521122	0.212240
H124	H	1.116958	-0.021122	0.712240
H125	H	1.229528	-0.919203	0.473431
H126	H	1.729528	-0.419203	0.973431
H127	H	1.186383	-0.777959	0.430252
H128	H	1.686383	-0.277959	0.930252
H129	H	1.209067	-0.329855	0.809974
H130	H	1.709067	0.170145	1.309974
C131	C	0.819363	-0.555668	0.244646
C132	C	1.319363	-0.055668	0.744646
H133	H	0.781469	-0.589999	0.212979
H134	H	1.281469	-0.089999	0.712979
H135	H	0.853071	-0.521105	0.212229
H136	H	1.353071	-0.021105	0.712229
H137	H	0.849371	-0.595020	0.272641
H138	H	1.349371	-0.095020	0.772641
C139	C	1.224260	-0.313342	0.903221
C140	C	1.724260	0.186658	1.403221
H141	H	1.255899	-0.278964	0.941110
H142	H	1.755899	0.221036	1.441110
H143	H	1.256710	-0.347870	0.869503
H144	H	1.756710	0.152130	1.369503
H145	H	1.196207	-0.274035	0.873220
H146	H	1.696207	0.225965	1.373220
H147	H	1.209046	-0.329904	0.661253
H148	H	1.709046	0.170096	1.161253
C149	C	1.234693	-1.103574	0.478559
C150	C	1.734693	-0.603574	0.978559
H151	H	1.266644	-1.061967	0.510563
H152	H	1.766644	-0.561967	1.010563
H153	H	1.202819	-1.140336	0.510892
H154	H	1.702819	-0.640336	1.010892
H155	H	1.267091	-1.140318	0.446717
H156	H	1.767091	-0.640318	0.946717
H157	H	1.209113	-0.329772	1.062834
H158	H	1.709113	0.170228	1.562834
H159	H	0.670366	-0.330124	0.452840
H160	H	1.170366	0.169876	0.952840
H161	H	0.566237	-0.330139	0.452856
H162	H	1.066237	0.169861	0.952856
H163	H	1.016366	-0.539112	1.052249
H164	H	1.516366	-0.039112	1.552249
H165	H	1.016325	-0.539147	0.903520
H166	H	1.516325	-0.039147	1.403520
H167	H	1.038966	-1.090479	0.282536
H168	H	1.538966	-0.590479	0.782536
H169	H	0.995820	-0.949232	0.239355
H170	H	1.495820	-0.449232	0.739355
C171	C	1.001144	-0.555671	0.810268
C172	C	1.501144	-0.055671	1.310268
H173	H	0.969498	-0.590035	0.772376
H174	H	1.469498	-0.090035	1.272376
H175	H	1.029189	-0.594977	0.840270
H176	H	1.529189	-0.094977	1.340270
H177	H	0.968690	-0.521139	0.843984
H178	H	1.468690	-0.021139	1.343984
C179	C	0.990647	-0.764844	0.234224
C180	C	1.490647	-0.264844	0.734224
H181	H	1.000953	-0.701968	0.244571
H182	H	1.500953	-0.201968	0.744571
H183	H	1.001396	-0.780319	0.180718
H184	H	1.501396	-0.280319	0.680718
H185	H	0.937126	-0.780328	0.244894
H186	H	1.437126	-0.280328	0.744894
H187	H	1.016285	-0.539228	0.650665
H188	H	1.516285	-0.039228	1.150665
H189	H	0.406902	-0.539252	0.259874
H190	H	0.906902	-0.039252	0.759874
C191	C	0.406637	-0.313687	0.468062
C192	C	0.906637	0.186313	0.968062
H193	H	0.351524	-0.321938	0.460445
H194	H	0.851524	0.178062	0.960445
H195	H	0.419424	-0.326970	0.520114
H196	H	0.919424	0.173030	1.020114
H197	H	0.423123	-0.253045	0.459712
H198	H	0.923123	0.246955	0.959712
H199	H	0.555631	-0.539232	0.259854
H200	H	1.055631	-0.039232	0.759854
