data_functionalizedCrystal
_audit_creation_method	'MofGen! by Chris Wilmer'
_symmetry_space_group_name_H-M	'P1'
_symmetry_Int_Tables_number	1
_symmetry_cell_setting	triclinic
loop_
_symmetry_equiv_pos_as_xyz
  x,y,z
_cell_length_a	10.723024
_cell_length_b	10.654550
_cell_length_c	9.130313
_cell_angle_alpha	89.996249
_cell_angle_beta	90.002478
_cell_angle_gamma	95.523600
loop_
_atom_site_label
_atom_site_type_symbol
_atom_site_fract_x
_atom_site_fract_y
_atom_site_fract_z
O1	O	1.657212	-0.176148	0.121789
O2	O	1.294062	-0.193009	0.121794
O3	O	1.483986	-0.001838	0.121783
O4	O	1.467287	-0.367319	0.121801
O5	O	1.483976	-0.001835	-0.121816
O6	O	1.294051	-0.193005	-0.121804
O7	O	1.657201	-0.176145	-0.121809
Cu8	Cu	1.475625	-0.184575	-0.144049
Cu9	Cu	1.475638	-0.184579	0.144034
O10	O	1.467277	-0.367316	-0.121798
C11	C	1.247557	-0.191780	-0.000004
C12	C	1.109002	-0.188109	-0.000003
C13	C	1.482755	0.044961	-0.000016
C14	C	1.479086	0.184404	-0.000014
N15	N	1.475625	-0.184571	-0.346672
C16	C	1.034035	-0.295078	0.000004
C17	C	0.890831	-0.291287	0.000005
C18	C	1.703706	-0.177373	-0.000007
C19	C	1.842261	-0.181045	0.000001
C20	C	1.468508	-0.414115	0.000004
C21	C	1.472176	-0.553558	0.000012
C22	C	1.590911	0.263907	-0.000015
C23	C	1.587457	0.394927	0.000003
C24	C	1.360343	0.366929	0.000017
C25	C	1.363799	0.235912	0.000010
C26	C	1.559758	-0.099952	-0.576676
C27	C	1.559751	-0.099954	-0.423339
C28	C	1.391510	-0.269201	-0.423350
C29	C	1.391525	-0.269204	-0.576684
N30	N	1.475647	-0.184573	0.346657
H31	H	1.075871	-0.389466	0.000000
H32	H	1.272732	0.171177	0.000015
H33	H	1.684785	0.221974	-0.000030
H34	H	1.323018	-0.338104	-0.360919
N35	N	1.650503	-0.008688	-0.659353
H36	H	1.706166	-0.057200	-0.722955
H37	H	1.602264	0.047344	-0.722904
H38	H	0.906673	-0.089466	0.000004
H39	H	1.067166	-0.093722	0.000030
N40	N	1.650456	-0.008667	-0.340652
H41	H	1.637687	-0.021503	-0.231882
H42	H	1.739110	-0.023980	-0.367437
H43	H	1.323031	-0.338118	-0.639110
N44	N	1.708067	0.480677	0.000003
H45	H	1.781620	0.428162	-0.000013
H46	H	1.711570	0.535658	-0.090298
H47	H	1.266480	0.408883	0.000033
H48	H	0.826412	-0.382860	0.000017
