data_functionalizedCrystal
_audit_creation_method	'MofGen! by Chris Wilmer'
_symmetry_space_group_name_H-M	'P1'
_symmetry_Int_Tables_number	1
_symmetry_cell_setting	triclinic
loop_
_symmetry_equiv_pos_as_xyz
  x,y,z
_cell_length_a	13.033409
_cell_length_b	16.625545
_cell_length_c	13.032268
_cell_angle_alpha	97.146495
_cell_angle_beta	105.162573
_cell_angle_gamma	82.856342
loop_
_atom_site_label
_atom_site_type_symbol
_atom_site_fract_x
_atom_site_fract_y
_atom_site_fract_z
Zn1	Zn	1.547353	-0.511038	-0.393923
Zn2	Zn	1.569785	-0.630683	-0.216326
Zn3	Zn	1.392311	-0.480710	-0.238930
Zn4	Zn	1.369702	-0.630653	-0.416478
O5	O	1.469787	-0.563271	-0.316414
O6	O	1.698949	-0.539614	-0.351465
O7	O	1.565092	-0.598109	-0.070696
O8	O	1.412951	-0.371910	-0.259511
O9	O	1.715430	-0.627516	-0.220986
O10	O	1.526860	-0.394192	-0.373383
O11	O	1.434702	-0.487925	-0.087303
O12	O	1.240691	-0.487896	-0.281381
O13	O	1.374418	-0.627465	-0.562114
O14	O	1.224080	-0.598058	-0.411825
O15	O	1.504937	-0.539585	-0.545544
O16	O	1.543170	-0.743502	-0.242856
O17	O	1.396170	-0.743480	-0.389906
C18	C	1.193850	-0.539683	-0.351504
C19	C	1.075799	-0.529614	-0.366541
C20	C	0.909320	-0.558126	-0.324128
C21	C	1.031333	-0.568536	-0.308582
C22	C	1.469676	-0.772749	-0.316396
C23	C	1.469721	-0.862376	-0.316411
C24	C	1.469760	-0.935164	-0.316427
C25	C	1.469819	-1.026480	-0.316442
C26	C	1.469872	-1.099262	-0.316449
C27	C	1.469930	-1.190583	-0.316463
C28	C	1.746803	-0.586952	-0.281188
C29	C	1.864850	-0.597043	-0.266177
C30	C	1.434654	-0.586905	-0.593444
C31	C	1.419682	-0.596976	-0.711498
C32	C	1.469925	-0.352979	-0.316453
C33	C	1.469984	-0.263365	-0.316469
C34	C	1.477585	-0.557984	-0.755931
C35	C	1.462112	-0.568392	-0.877946
C36	C	1.504846	-0.539676	-0.040454
C37	C	1.520023	-0.529396	0.077625
H38	H	0.857063	-0.517105	-0.385256
H39	H	1.401073	-0.609477	-0.930233
H40	H	1.083585	-0.609568	-0.247460
C41	C	1.005960	-0.474913	-0.447962
C42	C	0.898829	-0.475441	-0.447174
C43	C	0.834465	-0.425055	-0.522154
H44	H	1.014922	-0.494363	-0.517060
H45	H	1.025999	-0.420917	-0.430245
H46	H	0.878796	-0.529426	-0.464897
H47	H	0.889834	-0.455984	-0.378094
H48	H	0.854504	-0.371059	-0.504438
H49	H	0.843436	-0.444509	-0.591247
H50	H	0.761771	-0.425400	-0.521623
H51	H	1.538609	-0.516894	-0.703642
C52	C	0.934704	-0.651679	-0.184689
C53	C	1.041838	-0.651121	-0.185445
C54	C	1.106216	-0.701435	-0.110382
H55	H	0.914739	-0.705689	-0.202319
H56	H	0.925678	-0.632167	-0.115618
H57	H	1.050859	-0.670636	-0.254502
H58	H	1.061836	-0.597124	-0.167804
H59	H	1.097190	-0.681923	-0.041310
H60	H	1.086241	-0.755441	-0.128019
H61	H	1.178914	-0.701057	-0.110878
H62	H	1.581050	-0.488300	-0.870091
H63	H	1.358647	-0.638057	-0.763789
