data_functionalizedCrystal
_audit_creation_method	'MofGen! by Chris Wilmer'
_symmetry_space_group_name_H-M	'P1'
_symmetry_Int_Tables_number	1
_symmetry_cell_setting	triclinic
loop_
_symmetry_equiv_pos_as_xyz
  x,y,z
_cell_length_a	25.639242
_cell_length_b	25.639239
_cell_length_c	12.759393
_cell_angle_alpha	89.964022
_cell_angle_beta	89.976304
_cell_angle_gamma	90.030990
loop_
_atom_site_label
_atom_site_type_symbol
_atom_site_fract_x
_atom_site_fract_y
_atom_site_fract_z
Zn1	Zn	0.799273	-0.208233	-0.594057
Zn2	Zn	0.799182	-0.295678	-0.418360
Zn3	Zn	0.711835	-0.208247	-0.418384
Zn4	Zn	0.711795	-0.295627	-0.593989
O5	O	0.755521	-0.251946	-0.506198
O6	O	0.872426	-0.219848	-0.570769
O7	O	0.787575	-0.284107	-0.271342
O8	O	0.723489	-0.135080	-0.441726
O9	O	0.872360	-0.284094	-0.441686
O10	O	0.787729	-0.135069	-0.570792
O11	O	0.723401	-0.219871	-0.271360
O12	O	0.638665	-0.219822	-0.441660
O13	O	0.723420	-0.284007	-0.741019
O14	O	0.638635	-0.284021	-0.570676
O15	O	0.787690	-0.219799	-0.741069
O16	O	0.787535	-0.368836	-0.441620
O17	O	0.723332	-0.368799	-0.570653
C18	C	0.619679	-0.251918	-0.506164
C19	C	0.561565	-0.251918	-0.506174
C20	C	0.755433	-0.387789	-0.506150
C21	C	0.755444	-0.445903	-0.506164
C22	C	0.310414	-0.218553	-0.573534
C23	C	0.365018	-0.218548	-0.573528
O24	O	0.393292	-0.190156	-0.630793
N25	N	0.392291	-0.251940	-0.506210
C26	C	0.364956	-0.285344	-0.438900
O27	O	0.393168	-0.313746	-0.381641
C28	C	0.310353	-0.285351	-0.438912
C29	C	0.283083	-0.251953	-0.506228
C30	C	0.283144	-0.185158	-0.640845
C31	C	0.228544	-0.185162	-0.640849
C32	C	0.201213	-0.218562	-0.573543
C33	C	0.228483	-0.251957	-0.506232
C34	C	0.283019	-0.318757	-0.371609
C35	C	0.228412	-0.318761	-0.371628
C36	C	0.201143	-0.285363	-0.438943
C37	C	0.146551	-0.285362	-0.438930
N38	N	0.119279	-0.251969	-0.506249
C39	C	0.146610	-0.218570	-0.573555
C40	C	0.479627	-0.285326	-0.438882
C41	C	0.534229	-0.285316	-0.438863
C42	C	0.534288	-0.218521	-0.573493
C43	C	0.479684	-0.218529	-0.573505
C44	C	0.452354	-0.251934	-0.506200
C45	C	0.031945	-0.218581	-0.573558
C46	C	-0.022661	-0.218587	-0.573554
C47	C	-0.022714	-0.285384	-0.438929
C48	C	0.031886	-0.285377	-0.438929
C49	C	0.059214	-0.251973	-0.506252
O50	O	0.118244	-0.313740	-0.381698
O51	O	0.118392	-0.190176	-0.630814
C52	C	0.789039	-0.806273	-0.439124
C53	C	0.789060	-0.860877	-0.439138
O54	O	0.817533	-0.889119	-0.382086
N55	N	0.755613	-0.888185	-0.506267
C56	C	0.722148	-0.860886	-0.573394
O57	O	0.693702	-0.889128	-0.630494
C58	C	0.722131	-0.806283	-0.573385
C59	C	0.755576	-0.778978	-0.506244
C60	C	0.822482	-0.778967	-0.371990
C61	C	0.822461	-0.724367	-0.371975
C62	C	0.788997	-0.697072	-0.439094
C63	C	0.755555	-0.724377	-0.506229
C64	C	0.688669	-0.778985	-0.640516
C65	C	0.688655	-0.724378	-0.640501
C66	C	0.722100	-0.697073	-0.573360
C67	C	0.722070	-0.642482	-0.573333
N68	N	0.755516	-0.615173	-0.506204
C69	C	0.788980	-0.642468	-0.439084
C70	C	0.722188	-0.975557	-0.573410
C71	C	0.722202	-1.030159	-0.573415
C72	C	0.789114	-1.030146	-0.439161
C73	C	0.789097	-0.975543	-0.439151
C74	C	0.755634	-0.948249	-0.506281
C75	C	0.788933	-0.527803	-0.439057
C76	C	0.788907	-0.473198	-0.439045
C77	C	0.721997	-0.473216	-0.573303
C78	C	0.722021	-0.527816	-0.573312
C79	C	0.755493	-0.555109	-0.506185
O80	O	0.693613	-0.614204	-0.630359
O81	O	0.817427	-0.614220	-0.382003
C82	C	0.891894	-0.251975	-0.506232
C83	C	0.950008	-0.251987	-0.506247
C84	C	0.755561	-0.251896	-0.780231
C85	C	0.755577	-0.251875	-0.897008
C86	C	0.755624	-0.115573	-0.506269
C87	C	0.755668	-0.057459	-0.506299
C88	C	0.789045	-0.218436	-0.951898
C89	C	0.789054	-0.218413	-1.061622
C90	C	0.722126	-0.285273	-1.061557
C91	C	0.722114	-0.285292	-0.951835
C92	C	0.755513	-0.251958	-0.233230
C93	C	0.755597	-0.251833	-0.116454
H94	H	-0.044861	-0.191388	-0.628370
F95	F	0.686600	-1.059214	-0.644864
H96	H	0.694789	-0.550050	-0.627986
F97	F	0.686516	-0.320838	-1.119917
H98	H	0.661406	-0.702158	-0.695170
F99	F	0.686489	-0.320882	-0.893414
F100	F	0.312030	-0.354298	-0.299949
F101	F	0.824679	-0.182827	-1.120035
H102	H	0.054189	-0.191381	-0.628379
F103	F	0.824505	-0.444140	-0.367581
F104	F	0.858064	-0.695313	-0.300526
F105	F	0.199528	-0.149619	-0.712504
F106	F	0.312224	-0.149607	-0.712490
F107	F	0.199329	-0.354320	-0.299996
F108	F	0.824693	-0.946487	-0.367692
F109	F	0.563385	-0.182974	-0.645127
F110	F	0.450667	-0.182983	-0.645151
H111	H	0.054090	-0.312568	-0.384106
H112	H	0.849735	-0.801185	-0.317333
F113	F	0.563246	-0.320855	-0.367200
H114	H	0.457378	-0.312527	-0.384065
H115	H	-0.044977	-0.312576	-0.384125
F116	F	0.686386	-0.444157	-0.644735
F117	F	0.824557	-0.556842	-0.367613
F118	F	0.824729	-1.059205	-0.367724
H119	H	0.694934	-0.953337	-0.628073
H120	H	0.661432	-0.801208	-0.695184
H121	H	0.816291	-0.191224	-0.907261
