data_functionalizedCrystal
_audit_creation_method	'MofGen! by Chris Wilmer'
_symmetry_space_group_name_H-M	'P1'
_symmetry_Int_Tables_number	1
_symmetry_cell_setting	triclinic
loop_
_symmetry_equiv_pos_as_xyz
  x,y,z
_cell_length_a	12.759401
_cell_length_b	25.639239
_cell_length_c	12.759393
_cell_angle_alpha	90.037052
_cell_angle_beta	90.018496
_cell_angle_gamma	90.038847
loop_
_atom_site_label
_atom_site_type_symbol
_atom_site_fract_x
_atom_site_fract_y
_atom_site_fract_z
Zn1	Zn	1.606080	-0.208118	0.593941
Zn2	Zn	1.605901	-0.295564	0.418245
Zn3	Zn	1.430382	-0.208145	0.418281
Zn4	Zn	1.430297	-0.295524	0.593886
O5	O	1.518165	-0.251838	0.506088
O6	O	1.753078	-0.219723	0.570643
O7	O	1.582579	-0.283996	0.271228
O8	O	1.453799	-0.134976	0.441621
O9	O	1.752946	-0.283970	0.441559
O10	O	1.582884	-0.134956	0.570678
O11	O	1.453626	-0.219770	0.271255
O12	O	1.283350	-0.219731	0.441567
O13	O	1.453655	-0.283901	0.740914
O14	O	1.283288	-0.283928	0.570584
O15	O	1.582802	-0.219684	0.740955
O16	O	1.582496	-0.368724	0.441505
O17	O	1.453481	-0.368695	0.570549
C18	C	1.245198	-0.251828	0.506074
C19	C	1.128421	-0.251837	0.506093
C20	C	1.073554	-0.285318	0.573160
C21	C	0.963830	-0.285324	0.573172
C22	C	0.963850	-0.218368	0.439039
C23	C	1.073572	-0.218359	0.439033
C24	C	1.073542	-0.323976	0.650598
C25	C	0.963818	-0.323983	0.650609
C26	C	1.517989	-0.387680	0.506040
C27	C	1.518009	-0.445795	0.506055
C28	C	1.585519	-0.806160	0.439010
C29	C	1.585560	-0.860765	0.439024
O30	O	1.642775	-0.889004	0.381967
N31	N	1.518350	-0.888077	0.506158
C32	C	1.451103	-0.860782	0.573289
O33	O	1.393940	-0.889027	0.630394
C34	C	1.451068	-0.806179	0.573280
C35	C	1.518275	-0.778869	0.506134
C36	C	1.652721	-0.778851	0.371870
C37	C	1.652678	-0.724250	0.371855
C38	C	1.585434	-0.696959	0.438980
C39	C	1.518232	-0.724269	0.506119
C40	C	1.383827	-0.778885	0.640416
C41	C	1.383799	-0.724278	0.640401
C42	C	1.451005	-0.696968	0.573256
C43	C	1.450946	-0.642377	0.573228
N44	N	1.518155	-0.615065	0.506094
C45	C	1.585399	-0.642356	0.438970
C46	C	1.451182	-0.975453	0.573306
C47	C	1.451210	-1.030055	0.573311
C48	C	1.585669	-1.030034	0.439046
C49	C	1.585634	-0.975430	0.439037
C50	C	1.518391	-0.948140	0.506172
C51	C	1.585305	-0.527691	0.438943
C52	C	1.585253	-0.473086	0.438930
C53	C	1.450799	-0.473111	0.573198
C54	C	1.450846	-0.527712	0.573207
C55	C	1.518108	-0.555000	0.506076
O56	O	1.393762	-0.614103	0.630258
O57	O	1.642562	-0.614104	0.381885
C58	C	1.792198	-0.251848	0.506103
C59	C	1.908975	-0.251852	0.506109
C60	C	1.518239	-0.251785	0.780122
C61	C	1.518270	-0.251763	0.896898
C62	C	1.518371	-0.115465	0.506159
C63	C	1.518459	-0.057351	0.506190
C64	C	1.518152	-0.251853	0.233121
C65	C	1.518325	-0.251728	0.116345
C66	C	1.585526	-0.218322	0.951783
C67	C	1.585551	-0.218303	1.061507
C68	C	1.451061	-0.285170	1.061452
C69	C	1.451032	-0.285186	0.951730
C70	C	1.663176	-0.179718	0.951816
C71	C	1.663201	-0.179699	1.061540
H72	H	0.929832	-0.309529	0.727964
C73	C	1.658474	-0.557335	0.366238
C74	C	1.725834	-0.588609	0.425793
C75	C	1.793263	-0.615916	0.358856
H76	H	1.618468	-0.578720	0.320399
H77	H	1.698546	-0.533256	0.326283
H78	H	1.685767	-0.612685	0.465731
H79	H	1.765863	-0.567237	0.471630
H80	H	1.833335	-0.591837	0.318900
H81	H	1.753249	-0.637298	0.313019
H82	H	1.838981	-0.637135	0.399254
C83	C	1.113161	-0.309648	0.759235
C84	C	1.076410	-0.346166	0.832042
C85	C	1.112873	-0.332980	0.932127
H86	H	1.187608	-0.309651	0.759387
H87	H	1.088360	-0.275928	0.777595
H88	H	1.101217	-0.379877	0.813687
H89	H	1.001968	-0.346168	0.831922
H90	H	1.088071	-0.299261	0.950487
H91	H	1.187318	-0.332983	0.932268
H92	H	1.087935	-0.357752	0.981540
C93	C	1.310909	-0.808620	0.713217
C94	C	1.325302	-0.862283	0.698863
C95	C	1.258139	-0.889690	0.765908
H96	H	1.326191	-0.799693	0.783854
H97	H	1.240296	-0.799742	0.697779
H98	H	1.395899	-0.871157	0.714308
H99	H	1.310012	-0.871226	0.628240
H100	H	1.187525	-0.880812	0.750470
H101	H	1.273426	-0.880758	0.836541
H102	H	1.267888	-0.926103	0.756172
C103	C	1.634043	-0.125777	0.911993
C104	C	1.543022	-0.129177	0.851044
C105	C	1.516160	-0.079501	0.814330
H106	H	1.621901	-0.103226	0.969817
H107	H	1.689707	-0.112327	0.870588
H108	H	1.487371	-0.142621	0.892447
H109	H	1.555140	-0.151718	0.793204
H110	H	1.571824	-0.066051	0.772925
H111	H	1.504023	-0.056954	0.872160
H112	H	1.454406	-0.081802	0.772964
H113	H	1.639981	-0.450852	0.384249
H114	H	0.933988	-0.364467	0.628669
H115	H	1.329043	-0.702061	0.695074
C116	C	1.725775	-0.694699	0.298926
C117	C	1.784689	-0.730295	0.240176
C118	C	1.852055	-0.703096	0.172994
H119	H	1.685728	-0.673432	0.253008
H120	H	1.771574	-0.673374	0.339132
H121	H	1.738896	-0.751612	0.199974
H122	H	1.824758	-0.751564	0.286067
H123	H	1.897854	-0.681771	0.213200
H124	H	1.811999	-0.681830	0.127083
H125	H	1.892042	-0.727244	0.133132
C126	C	1.377838	-0.557271	0.646219
C127	C	1.318956	-0.521681	0.705016
C128	C	1.251709	-0.548887	0.772305
H129	H	1.332006	-0.578618	0.606122
H130	H	1.418003	-0.578518	0.692095
H131	H	1.278795	-0.500444	0.659145
H132	H	1.364761	-0.500333	0.745134
H133	H	1.291874	-0.570134	0.818181
H134	H	1.205884	-0.570233	0.732199
H135	H	1.211757	-0.524743	0.812213
H136	H	1.107524	-0.362421	0.621306
C137	C	1.771736	-0.194199	1.101049
C138	C	1.838100	-0.203086	1.015522
C139	C	1.938080	-0.216452	1.051876
H140	H	1.798965	-0.166507	1.142404
H141	H	1.767311	-0.224936	1.142359
H142	H	1.842529	-0.172352	0.974229
H143	H	1.810904	-0.230780	0.974158
H144	H	1.933655	-0.247190	1.093186
H145	H	1.965299	-0.188759	1.093232
H146	H	1.983118	-0.222489	0.993852
C147	C	1.658668	-0.945716	0.366311
C148	C	1.725945	-0.914305	0.425845
C149	C	1.793233	-0.886923	0.358884
H150	H	1.698816	-0.969735	0.326313
H151	H	1.618522	-0.924421	0.320510
H152	H	1.766087	-0.935599	0.471628
H153	H	1.685827	-0.890277	0.465840
H154	H	1.753088	-0.865628	0.313083
H155	H	1.833373	-0.910946	0.318890
H156	H	1.838882	-0.865604	0.399267
H157	H	1.634120	-0.141226	1.095595
H158	H	1.740436	-0.194233	0.917777
H159	H	1.640427	-1.052264	0.384394
C160	C	1.132954	-0.181982	0.366114
C161	C	1.061431	-0.152676	0.307372
C162	C	1.116095	-0.119162	0.240178
H163	H	1.175796	-0.159178	0.406277
H164	H	1.175698	-0.201935	0.320198
H165	H	1.018704	-0.132724	0.353282
H166	H	1.018586	-0.175466	0.267187
H167	H	1.158840	-0.139116	0.194263
H168	H	1.158935	-0.096362	0.280350
H169	H	1.067575	-0.099278	0.200308
H170	H	0.919178	-0.191111	0.384442
H171	H	1.396046	-0.450883	0.627847
C172	C	1.378194	-1.059607	0.646319
C173	C	1.319319	-1.024013	0.705113
C174	C	1.252058	-1.051215	0.772396
H175	H	1.332359	-1.080950	0.606217
H176	H	1.418349	-1.080857	0.692197
H177	H	1.279167	-1.002772	0.659240
H178	H	1.365126	-1.002669	0.745236
H179	H	1.292212	-1.072465	0.818274
H180	H	1.206229	-1.072557	0.732285
H181	H	1.212110	-1.027069	0.812302
C182	C	1.725603	-0.808562	0.298994
C183	C	1.666230	-0.839995	0.231616
C184	C	1.733350	-0.867383	0.164500
H185	H	1.765677	-0.784547	0.258911
H186	H	1.771326	-0.829843	0.339259
H187	H	1.620525	-0.818717	0.191355
H188	H	1.626158	-0.864021	0.271670
H189	H	1.779074	-0.888663	0.204765
H190	H	1.773420	-0.843363	0.124424
H191	H	1.693076	-0.888717	0.118783
H192	H	1.396416	-0.953236	0.627972
C193	C	1.377951	-0.321542	0.892329
C194	C	1.319092	-0.350815	0.963836
C195	C	1.251761	-0.384315	0.909154
H196	H	1.332109	-0.301596	0.849540
H197	H	1.418055	-0.344363	0.849528
H198	H	1.278992	-0.327997	1.006618
H199	H	1.364907	-0.370772	1.006627
H200	H	1.291865	-0.407136	0.866354
H201	H	1.205926	-0.364365	0.866368
H202	H	1.211824	-0.404184	0.957663
C203	C	1.378184	-0.321441	1.121176
C204	C	1.392619	-0.314279	1.229014
C205	C	1.325513	-0.347689	1.284061
H206	H	1.307557	-0.313823	1.103320
H207	H	1.393513	-0.356585	1.103232
H208	H	1.377282	-0.279143	1.246950
H209	H	1.463232	-0.321901	1.246900
H210	H	1.340843	-0.382833	1.266117
H211	H	1.254891	-0.340068	1.266197
H212	H	1.335305	-0.342837	1.357234
