data_functionalizedCrystal
_audit_creation_method	'MofGen! by Chris Wilmer'
_symmetry_space_group_name_H-M	'P1'
_symmetry_Int_Tables_number	1
_symmetry_cell_setting	triclinic
loop_
_symmetry_equiv_pos_as_xyz
  x,y,z
_cell_length_a	17.077404
_cell_length_b	12.759400
_cell_length_c	17.077383
_cell_angle_alpha	89.912237
_cell_angle_beta	89.941084
_cell_angle_gamma	90.014910
loop_
_atom_site_label
_atom_site_type_symbol
_atom_site_fract_x
_atom_site_fract_y
_atom_site_fract_z
Zn1	Zn	1.200405	-0.417615	-0.443860
Zn2	Zn	1.700405	0.082385	0.056140
Zn3	Zn	1.200240	-0.593506	-0.312600
Zn4	Zn	1.700240	-0.093506	0.187400
Zn5	Zn	1.069046	-0.417843	-0.312607
Zn6	Zn	1.569046	0.082157	0.187393
Zn7	Zn	1.069123	-0.593253	-0.443824
Zn8	Zn	1.569123	-0.093253	0.056176
O9	O	1.134704	-0.505554	-0.378223
O10	O	1.634704	-0.005554	0.121777
O11	O	1.310230	-0.440958	-0.426460
O12	O	1.810230	0.059042	0.073540
O13	O	1.182736	-0.570405	-0.202754
O14	O	1.682736	-0.070405	0.297246
O15	O	1.086508	-0.270791	-0.330036
O16	O	1.586508	0.229209	0.169964
O17	O	1.310109	-0.570185	-0.330024
O18	O	1.810109	-0.070185	0.169976
O19	O	1.183016	-0.270624	-0.426467
O20	O	1.683016	0.229376	0.073533
O21	O	1.086348	-0.441346	-0.202759
O22	O	1.586348	0.058654	0.297241
O23	O	0.959210	-0.441101	-0.330001
O24	O	1.459210	0.058899	0.169999
O25	O	1.086639	-0.569754	-0.553676
O26	O	1.586639	-0.069754	-0.053676
O27	O	0.959266	-0.569974	-0.426406
O28	O	1.459266	-0.069974	0.073594
O29	O	1.183091	-0.440713	-0.553702
O30	O	1.683091	0.059287	-0.053702
O31	O	1.182811	-0.740494	-0.329989
O32	O	1.682811	-0.240494	0.170011
O33	O	1.086480	-0.740308	-0.426399
O34	O	1.586480	-0.240308	0.073601
C35	C	0.930756	-0.505535	-0.378201
C36	C	1.430756	-0.005535	0.121799
C37	C	0.843506	-0.505553	-0.378210
C38	C	1.343506	-0.005553	0.121790
C39	C	1.134657	-0.778522	-0.378206
C40	C	1.634657	-0.278522	0.121794
C41	C	1.134709	-0.895298	-0.378225
C42	C	1.634709	-0.395298	0.121775
C43	C	0.802566	-0.572758	-0.428327
C44	C	1.302566	-0.072758	0.071673
C45	C	0.720585	-0.572761	-0.428340
C46	C	1.220585	-0.072761	0.071660
C47	C	0.679547	-0.505562	-0.378231
C48	C	1.179547	-0.005562	0.121769
C49	C	0.720493	-0.438348	-0.328111
C50	C	1.220493	0.061652	0.171889
C51	C	0.802472	-0.438342	-0.328103
C52	C	1.302472	0.061658	0.171897
C53	C	0.549623	-0.438369	-0.328130
C54	C	1.049623	0.061631	0.171870
C55	C	0.467638	-0.438377	-0.328137
C56	C	0.967638	0.061623	0.171863
C57	C	0.467736	-0.572788	-0.428367
C58	C	0.967736	-0.072788	0.071633
C59	C	0.549715	-0.572781	-0.428359
C60	C	1.049715	-0.072781	0.071641
C61	C	0.590656	-0.505569	-0.378238
C62	C	1.090656	-0.005569	0.121762
C63	C	1.184924	-0.950222	-0.328080
C64	C	1.684924	-0.450222	0.171920
C65	C	1.184973	-1.059946	-0.328105
C66	C	1.684973	-0.559946	0.171895
C67	C	1.084583	-1.059813	-0.428421
C68	C	1.584583	-0.559813	0.071579
C69	C	1.084540	-0.950091	-0.428400
C70	C	1.584540	-0.450091	0.071600
C71	C	1.235094	-0.895430	-0.277906
C72	C	1.735094	-0.395430	0.222094
C73	C	1.285312	-0.950354	-0.227756
C74	C	1.785312	-0.450354	0.272244
C75	C	1.285361	-1.060078	-0.227780
C76	C	1.785361	-0.560078	0.272220
C77	C	1.235190	-1.114878	-0.277954
C78	C	1.735190	-0.614878	0.222046
C79	C	1.339448	-0.505574	-0.378245
C80	C	1.839448	-0.005574	0.121755
C81	C	1.426698	-0.505583	-0.378254
C82	C	1.926698	-0.005583	0.121746
C83	C	1.134892	-0.505180	-0.582967
C84	C	1.634892	-0.005180	-0.082967
C85	C	1.134972	-0.505020	-0.670217
C86	C	1.634972	-0.005020	-0.170217
C87	C	1.134772	-0.231521	-0.378256
C88	C	1.634772	0.268479	0.121744
C89	C	1.134801	-0.114744	-0.378271
C90	C	1.634801	0.385256	0.121729
C91	C	1.134561	-0.505852	-0.174274
C92	C	1.634561	-0.005852	0.325726
C93	C	1.134633	-0.505716	-0.087025
C94	C	1.634633	-0.005716	0.412975
C95	C	1.184789	-0.437416	0.288564
C96	C	1.684789	0.062584	0.788564
C97	C	1.184719	-0.437548	0.206583
C98	C	1.684719	0.062452	0.706583
C99	C	1.134837	-0.505289	0.165824
C100	C	1.634837	-0.005289	0.665824
C101	C	1.085015	-0.572896	0.207048
C102	C	1.585015	-0.072896	0.707048
C103	C	1.085081	-0.572758	0.289027
C104	C	1.585081	-0.072758	0.789027
C105	C	1.084882	-0.573180	0.036179
C106	C	1.584882	-0.073180	0.536179
C107	C	1.084817	-0.573319	-0.045806
C108	C	1.584817	-0.073319	0.454194
C109	C	1.184520	-0.437970	-0.046265
C110	C	1.684520	0.062030	0.453735
C111	C	1.184586	-0.437832	0.035714
C112	C	1.684586	0.062168	0.535714
C113	C	1.134765	-0.505440	0.076933
C114	C	1.634765	-0.005440	0.576933
H115	H	0.835974	-0.627483	-0.469130
H116	H	1.335974	-0.127483	0.030870
H117	H	1.225412	-0.382257	0.321744
H118	H	1.725412	0.117743	0.821744
H119	H	0.687072	-0.383629	-0.287315
H120	H	1.187072	0.116371	0.212685
H121	H	1.044300	-0.628217	0.069737
H122	H	1.544300	-0.128217	0.569737
C123	C	0.675554	-0.646751	-0.483421
C124	C	1.175554	-0.146751	0.016579
H125	H	0.711737	-0.686799	-0.513241
H126	H	1.211737	-0.186799	-0.013241
H127	H	0.643596	-0.606635	-0.517696
H128	H	1.143596	-0.106635	-0.017696
H129	H	0.643558	-0.692504	-0.453288
H130	H	1.143558	-0.192504	0.046712
C131	C	1.239521	-0.363189	0.161246
C132	C	1.739521	0.136811	0.661246
H133	H	1.269246	-0.322836	0.197262
H134	H	1.769246	0.177164	0.697262
H135	H	1.209234	-0.317753	0.129227
H136	H	1.709234	0.182247	0.629227
H137	H	1.273907	-0.403110	0.129286
H138	H	1.773907	0.096890	0.629286
H139	H	1.044507	-0.627797	0.322586
H140	H	1.544507	-0.127797	0.822586
H141	H	0.434399	-0.627512	-0.469179
H142	H	0.934399	-0.127512	0.030821
C143	C	1.239332	-0.363614	-0.091602
C144	C	1.739332	0.136386	0.408398
H145	H	1.232147	-0.373392	-0.146263
H146	H	1.732147	0.126608	0.353737
H147	H	1.292159	-0.378475	-0.078228
H148	H	1.792159	0.121525	0.421772
H149	H	1.227496	-0.293105	-0.078295
H150	H	1.727496	0.206895	0.421705
C151	C	1.235244	-1.235572	-0.277987
C152	C	1.735244	-0.735572	0.222013
H153	H	1.198176	-1.260339	-0.315051
H154	H	1.698176	-0.760339	0.184949
H155	H	1.221677	-1.260536	-0.227325
H156	H	1.721677	-0.760536	0.272675
H157	H	1.285916	-1.260299	-0.291619
H158	H	1.785916	-0.760299	0.208381
C159	C	0.847506	-0.364413	-0.272976
C160	C	1.347506	0.135587	0.227024
H161	H	0.811325	-0.324398	-0.243130
H162	H	1.311325	0.175602	0.256870
H163	H	0.879525	-0.318644	-0.303063
H164	H	1.379525	0.181356	0.196937
H165	H	0.879442	-0.404593	-0.238715
H166	H	1.379442	0.095407	0.261285
H167	H	0.583127	-0.627507	-0.469158
H168	H	1.083127	-0.127507	0.030842
H169	H	1.044397	-0.628048	0.173855
H170	H	1.544397	-0.128048	0.673855
C171	C	1.029943	-0.647826	-0.090641
C172	C	1.529943	-0.147826	0.409359
H173	H	1.000272	-0.688061	-0.054352
H174	H	1.500272	-0.188061	0.445648
H175	H	1.060180	-0.693367	-0.122581
H176	H	1.560180	-0.193367	0.377419
H177	H	0.995509	-0.608009	-0.122640
H178	H	1.495509	-0.108009	0.377360
H179	H	0.434226	-0.383645	-0.287343
H180	H	0.934226	0.116355	0.212657
H181	H	0.582954	-0.383628	-0.287324
H182	H	1.082954	0.116372	0.212676
H183	H	1.225210	-0.382677	0.068898
H184	H	1.725210	0.117323	0.568898
C185	C	1.340492	-0.890079	-0.172567
C186	C	1.840492	-0.390079	0.327433
H187	H	1.333267	-0.816866	-0.179727
H188	H	1.833267	-0.316866	0.320273
H189	H	1.393245	-0.907970	-0.184100
H190	H	1.893245	-0.407970	0.315900
H191	H	1.328995	-0.908207	-0.119818
H192	H	1.828995	-0.408207	0.380182
C193	C	1.235046	-0.774738	-0.277880
C194	C	1.735046	-0.274738	0.222120
H195	H	1.272119	-0.749970	-0.240821
H196	H	1.772119	-0.249970	0.259179
H197	H	1.184377	-0.750004	-0.264260
H198	H	1.684377	-0.250004	0.235740
H199	H	1.248625	-0.749781	-0.328545
H200	H	1.748625	-0.249781	0.171455
C201	C	1.340592	-1.120496	-0.172617
C202	C	1.840592	-0.620496	0.327383
H203	H	1.333438	-1.193691	-0.179817
H204	H	1.833438	-0.693691	0.320183
H205	H	1.329081	-1.102650	-0.119864
H206	H	1.829081	-0.602650	0.380136
H207	H	1.393333	-1.102432	-0.184145
H208	H	1.893333	-0.602432	0.315855
C209	C	1.029396	-1.120085	-0.483605
C210	C	1.529396	-0.620085	0.016395
H211	H	0.999487	-1.071659	-0.513472
H212	H	1.499487	-0.571659	-0.013472
H213	H	0.995208	-1.162997	-0.453555
H214	H	1.495208	-0.662997	0.046445
H215	H	1.059452	-1.162772	-0.517844
H216	H	1.559452	-0.662772	-0.017844
H217	H	1.043651	-0.905372	-0.469234
H218	H	1.543651	-0.405372	0.030766
