data_functionalizedCrystal
_audit_creation_method	'MofGen! by Chris Wilmer'
_symmetry_space_group_name_H-M	'P1'
_symmetry_Int_Tables_number	1
_symmetry_cell_setting	triclinic
loop_
_symmetry_equiv_pos_as_xyz
  x,y,z
_cell_length_a	10.723024
_cell_length_b	19.188930
_cell_length_c	9.798715
_cell_angle_alpha	89.991738
_cell_angle_beta	89.996609
_cell_angle_gamma	83.806325
loop_
_atom_site_label
_atom_site_type_symbol
_atom_site_fract_x
_atom_site_fract_y
_atom_site_fract_z
O1	O	1.655155	0.097922	-0.113499
O2	O	2.155155	0.597922	0.386501
O3	O	1.291808	0.107295	-0.113506
O4	O	1.791808	0.607295	0.386494
O5	O	1.483967	0.001021	-0.113476
O6	O	1.983967	0.501021	0.386524
O7	O	1.462996	0.204196	-0.113529
O8	O	1.962996	0.704196	0.386471
O9	O	1.483952	0.001021	0.113507
O10	O	1.983952	0.501021	0.613507
O11	O	1.291793	0.107295	0.113477
O12	O	1.791793	0.607295	0.613477
O13	O	1.655140	0.097922	0.113483
O14	O	2.155140	0.597922	0.613483
Zn15	Zn	1.473465	0.102608	0.149518
Zn16	Zn	1.973465	0.602608	0.649518
Zn17	Zn	1.473483	0.102609	-0.149541
Zn18	Zn	1.973483	0.602609	0.350459
O19	O	1.462982	0.204196	0.113453
O20	O	1.962982	0.704196	0.613453
C21	C	1.245315	0.106613	-0.000015
C22	C	1.745315	0.606613	0.499985
C23	C	1.106803	0.104572	-0.000016
C24	C	1.606803	0.604572	0.499984
C25	C	1.030586	0.164037	-0.000033
C26	C	1.530586	0.664037	0.499967
C27	C	0.887427	0.161930	-0.000034
C28	C	1.387427	0.661930	0.499966
C29	C	1.483280	-0.024995	0.000019
C30	C	1.983280	0.475005	0.500019
C31	C	1.481242	-0.102512	0.000031
C32	C	1.981242	0.397488	0.500031
C33	C	1.593994	-0.146704	0.000040
C34	C	2.093994	0.353296	0.500040
C35	C	1.592079	-0.219540	0.000018
C36	C	2.092079	0.280460	0.500018
C37	C	1.477405	-0.248182	0.000015
C38	C	1.977405	0.251818	0.500015
C39	C	1.364638	-0.203981	-0.000001
C40	C	1.864638	0.296019	0.499999
C41	C	1.366556	-0.131146	0.000007
C42	C	1.866556	0.368854	0.500007
N43	N	1.389745	-0.356756	0.077260
N44	N	1.889745	0.143244	0.577260
N45	N	1.387931	-0.425947	0.077255
N46	N	1.887931	0.074053	0.577255
C47	C	1.471618	-0.467628	-0.000013
C48	C	1.971618	0.032372	0.499987
N49	N	1.557208	-0.437506	-0.077259
N50	N	2.057208	0.062494	0.422741
N51	N	1.559026	-0.368310	-0.077248
N52	N	2.059026	0.131690	0.422752
C53	C	1.475312	-0.327158	0.000005
C54	C	1.975312	0.172842	0.500005
C55	C	1.582302	-0.590797	-0.000030
C56	C	2.082302	-0.090797	0.499970
C57	C	1.580382	-0.663634	-0.000061
C58	C	2.080382	-0.163634	0.499939
C59	C	1.352937	-0.648073	-0.000066
C60	C	1.852937	-0.148073	0.499934
C61	C	1.354860	-0.575238	-0.000049
C62	C	1.854860	-0.075238	0.499951
C63	C	1.469546	-0.546604	-0.000025
C64	C	1.969546	-0.046604	0.499975
C65	C	1.701633	0.098604	-0.000011
C66	C	2.201633	0.598604	0.499989
C67	C	1.840145	0.100645	-0.000019
C68	C	2.340145	0.600645	0.499981
C69	C	1.463668	0.230211	-0.000045
C70	C	1.963668	0.730211	0.499955
C71	C	1.465706	0.307729	-0.000066
C72	C	1.965706	0.807729	0.499934
N73	N	1.473461	0.102608	0.353618
N74	N	1.973461	0.602608	0.853618
N75	N	1.473497	0.102604	-0.353640
N76	N	1.973497	0.602604	0.146360
C77	C	1.554147	0.057789	0.421407
C78	C	2.054147	0.557789	0.921407
C79	C	1.554167	0.057787	0.578570
C80	C	2.054167	0.557787	1.078570
H81	H	1.071319	0.216508	-0.000039
H82	H	1.571319	0.716508	0.499961
H83	H	0.821937	0.212836	-0.000054
H84	H	1.321937	0.712836	0.499946
H85	H	1.066070	0.052101	-0.000037
H86	H	1.566070	0.552101	0.499963
H87	H	1.623251	0.019419	0.636866
H88	H	2.123251	0.519419	1.136866
H89	H	0.905627	0.049735	-0.000013
H90	H	1.405627	0.549735	0.499987
H91	H	1.623208	0.019418	0.363095
H92	H	2.123208	0.519418	0.863095
C93	C	1.228392	-0.679120	-0.000353
C94	C	1.728392	-0.179120	0.499647
C95	C	1.160275	-0.656710	-0.117148
C96	C	1.660275	-0.156710	0.382852
C97	C	1.045542	-0.685306	-0.117475
C98	C	1.545542	-0.185306	0.382525
H99	H	1.181824	-0.664016	0.078707
H100	H	1.681824	-0.164016	0.578707
H101	H	1.243341	-0.728831	-0.000434
H102	H	1.743341	-0.228831	0.499566
H103	H	1.145322	-0.607010	-0.117055
H104	H	1.645322	-0.107010	0.382945
H105	H	1.206805	-0.671814	-0.196228
H106	H	1.706805	-0.171814	0.303772
H107	H	1.060492	-0.735017	-0.117556
H108	H	1.560492	-0.235017	0.382444
H109	H	0.998987	-0.670200	-0.038409
H110	H	1.498987	-0.170200	0.461591
H111	H	0.999316	-0.670110	-0.196724
H112	H	1.499316	-0.170110	0.303276
H113	H	1.263044	-0.539256	-0.000049
H114	H	1.763044	-0.039256	0.499951
H115	H	1.687380	-0.123395	0.000055
H116	H	2.187380	0.376605	0.500055
H117	H	1.683899	-0.255527	0.000019
H118	H	2.183899	0.244473	0.500019
H119	H	1.271269	-0.227305	-0.000007
H120	H	1.771269	0.272695	0.499993
C121	C	1.243997	-0.083279	0.000076
C122	C	1.743997	0.416721	0.500076
C123	C	1.143156	-0.123947	0.000096
C124	C	1.643156	0.376053	0.500096
C125	C	1.030236	-0.079875	0.000181
C126	C	1.530236	0.420125	0.500181
H127	H	1.239848	-0.054517	-0.079050
H128	H	1.739848	0.445483	0.420950
H129	H	1.239945	-0.054563	0.079268
H130	H	1.739945	0.445437	0.579268
H131	H	1.147205	-0.152650	-0.079088
H132	H	1.647205	0.347350	0.420912
H133	H	1.147264	-0.152707	0.079216
H134	H	1.647264	0.347293	0.579216
H135	H	1.026184	-0.051159	0.079373
H136	H	1.526184	0.448841	0.579373
H137	H	1.026099	-0.051115	-0.078946
H138	H	1.526099	0.448885	0.421054
H139	H	0.961801	-0.107461	0.000208
H140	H	1.461801	0.392539	0.500208
H141	H	1.675686	-0.567482	-0.000017
H142	H	2.175686	-0.067482	0.499983
C143	C	1.381579	0.153808	0.568474
C144	C	1.881579	0.653808	1.068474
C145	C	1.448106	0.196721	0.486393
C146	C	1.948106	0.696721	0.986393
C147	C	1.363475	0.243893	0.414603
C148	C	1.863475	0.743893	0.914603
H149	H	1.330936	0.181993	0.631236
H150	H	1.830936	0.681993	1.131236
H151	H	1.329697	0.128509	0.512668
H152	H	1.829697	0.628509	1.012668
H153	H	1.499967	0.222019	0.542195
H154	H	1.999967	0.722019	1.042195
H155	H	1.498745	0.168556	0.423606
H156	H	1.998745	0.668556	0.923606
H157	H	1.311592	0.218594	0.358797
H158	H	1.811592	0.718594	0.858797
H159	H	1.312836	0.272072	0.477375
H160	H	1.812836	0.772072	0.977375
H161	H	1.408600	0.273011	0.358894
H162	H	1.908600	0.773011	0.858894
C163	C	1.702904	-0.711532	-0.000266
C164	C	2.202904	-0.211532	0.499734
C165	C	1.772010	-0.698480	-0.117012
C166	C	2.272010	-0.198480	0.382988
C167	C	1.884893	-0.742584	-0.117238
C168	C	2.384893	-0.242584	0.382762
H169	H	1.685521	-0.759035	-0.000351
H170	H	2.185521	-0.259035	0.499649
H171	H	1.749999	-0.702791	0.078856
H172	H	2.249999	-0.202791	0.578856
H173	H	1.724925	-0.707227	-0.196114
H174	H	2.224925	-0.207227	0.303886
H175	H	1.789427	-0.650986	-0.116952
H176	H	2.289427	-0.150986	0.383048
H177	H	1.931988	-0.733842	-0.038116
H178	H	2.431988	-0.233842	0.461884
H179	H	1.867497	-0.790084	-0.117320
H180	H	2.367497	-0.290084	0.382680
H181	H	1.931800	-0.733729	-0.196442
H182	H	2.431800	-0.233729	0.303558
H183	H	1.404392	0.140974	0.411931
H184	H	1.904392	0.640974	0.911931
