data_functionalizedCrystal
_audit_creation_method	'MofGen! by Chris Wilmer'
_symmetry_space_group_name_H-M	'P1'
_symmetry_Int_Tables_number	1
_symmetry_cell_setting	triclinic
loop_
_symmetry_equiv_pos_as_xyz
  x,y,z
_cell_length_a	23.532355
_cell_length_b	22.610064
_cell_length_c	11.026607
_cell_angle_alpha	89.992890
_cell_angle_beta	84.293256
_cell_angle_gamma	89.995669
loop_
_atom_site_label
_atom_site_type_symbol
_atom_site_fract_x
_atom_site_fract_y
_atom_site_fract_z
O1	O	-0.770724	0.049129	0.146806
O2	O	-0.607102	0.049141	0.168159
O3	O	-0.675352	0.049134	-0.019002
O4	O	-0.702474	0.049136	0.333966
O5	O	-0.675339	-0.049235	-0.018975
O6	O	-0.607089	-0.049228	0.168186
O7	O	-0.770711	-0.049240	0.146833
Zn8	Zn	-0.688898	-0.064852	0.157514
Zn9	Zn	-0.688915	0.064753	0.157478
O10	O	-0.702461	-0.049233	0.333994
C11	C	-0.585823	-0.000042	0.167639
C12	C	-0.522436	-0.000037	0.166034
C13	C	-0.248460	0.053578	0.159001
C14	C	-0.308019	0.053580	0.160519
O15	O	-0.338829	0.099182	0.161250
N16	N	-0.337799	-0.000041	0.161302
C17	C	-0.308015	-0.053667	0.160553
O18	O	-0.338814	-0.099276	0.161356
C19	C	-0.248456	-0.053668	0.159025
C20	C	-0.218680	-0.000044	0.158255
C21	C	-0.218684	0.107199	0.158229
C22	C	-0.159128	0.107196	0.156713
C23	C	-0.129349	0.053574	0.155967
C24	C	-0.159125	-0.000046	0.156738
C25	C	-0.218673	-0.107294	0.158267
C26	C	-0.159110	-0.107291	0.156738
C27	C	-0.129334	-0.053666	0.155968
C28	C	-0.069790	-0.053671	0.154476
N29	N	-0.040010	-0.000050	0.153694
C30	C	-0.069790	0.053573	0.154440
C31	C	-0.433093	-0.053660	0.163759
C32	C	-0.492651	-0.053660	0.165295
C33	C	-0.492651	0.053588	0.165259
C34	C	-0.433092	0.053587	0.163732
C35	C	-0.403313	-0.000039	0.162976
C36	C	0.055281	0.053564	0.151256
C37	C	0.114841	0.053557	0.149744
C38	C	0.114836	-0.053690	0.149773
C39	C	0.055281	-0.053684	0.151291
C40	C	0.025505	-0.000052	0.152028
O41	O	-0.038942	-0.099249	0.153740
O42	O	-0.038983	0.099174	0.153620
N43	N	-0.688891	-0.153305	0.157538
C44	C	-0.719139	-0.561950	0.074616
C45	C	-0.719141	-0.623869	0.074607
O46	O	-0.744837	-0.655891	0.004122
N47	N	-0.688912	-0.654842	0.157453
C48	C	-0.658674	-0.623891	0.240305
O49	O	-0.632961	-0.655922	0.310770
C50	C	-0.658669	-0.561973	0.240307
C51	C	-0.688905	-0.531003	0.157464
C52	C	-0.749372	-0.530980	-0.008222
C53	C	-0.749371	-0.469064	-0.008211
C54	C	-0.719136	-0.438118	0.074637
C55	C	-0.688904	-0.469088	0.157474
C56	C	-0.628428	-0.531023	0.323152
C57	C	-0.628425	-0.469100	0.323146
C58	C	-0.658661	-0.438131	0.240303
C59	C	-0.658668	-0.376226	0.240333
N60	N	-0.688897	-0.345253	0.157487
C61	C	-0.719132	-0.376199	0.074639
C62	C	-0.658686	-0.753925	0.240292
C63	C	-0.658694	-0.815843	0.240297
C64	C	-0.719160	-0.815816	0.074598
C65	C	-0.719155	-0.753898	0.074600
C66	C	-0.688915	-0.722953	0.157447
C67	C	-0.719127	-0.246172	0.074668
C68	C	-0.719125	-0.184251	0.074690
C69	C	-0.658656	-0.184283	0.240384
C70	C	-0.658661	-0.246198	0.240368
C71	C	-0.688897	-0.277142	0.157500
O72	O	-0.632984	-0.344165	0.310778
O73	O	-0.744834	-0.344162	0.004175
C74	C	0.208010	-0.000058	0.147363
C75	C	0.144621	-0.000065	0.148999
C76	C	-0.670342	-0.000050	-0.064137
C77	C	-0.655427	-0.000046	-0.198665
N78	N	-0.688926	0.153206	0.157444
C79	C	-0.696611	-0.000049	-0.272984
C80	C	-0.681196	-0.000045	-0.412026
C81	C	-0.707471	-0.000048	0.379129
C82	C	-0.722386	-0.000048	0.513657
H83	H	-0.408853	0.097253	0.163105
C84	C	-0.592377	-0.000041	-0.251758
H85	H	-0.590288	-0.000043	-0.338245
H86	H	-0.573976	0.034263	-0.224901
H87	H	-0.573970	-0.034349	-0.224892
H88	H	0.139082	0.097227	0.149121
H89	H	0.031044	0.097236	0.151858
C90	C	-0.625376	-0.280266	0.331446
H91	H	-0.607359	-0.252965	0.380770
H92	H	-0.650984	-0.304441	0.381686
H93	H	-0.597229	-0.304401	0.288044
H94	H	-0.634042	-0.159077	0.307842
C95	C	-0.782636	-0.565012	-0.099356
H96	H	-0.800641	-0.537691	-0.148676
H97	H	-0.757012	-0.589169	-0.149592
H98	H	-0.810791	-0.589160	-0.056015
C99	C	-0.759661	-0.000056	-0.219891
H100	H	-0.761750	-0.000061	-0.133404
H101	H	-0.778071	0.034245	-0.246759
H102	H	-0.778058	-0.034366	-0.246746
H103	H	-0.743747	-0.271359	0.007188
C104	C	-0.126381	0.166184	0.155835
H105	H	-0.152653	0.198115	0.156479
H106	H	-0.106042	0.168426	0.225916
H107	H	-0.100252	0.168407	0.084538
C108	C	-0.251432	0.166188	0.159059
H109	H	-0.225161	0.198117	0.158391
H110	H	-0.271770	0.168428	0.088975
H111	H	-0.277562	0.168419	0.230353
H112	H	-0.634522	-0.000038	-0.451331
C113	C	-0.785440	-0.000058	-0.433259
H114	H	-0.787530	-0.000065	-0.346772
H115	H	-0.803852	0.034242	-0.460127
H116	H	-0.803834	-0.034369	-0.460117
H117	H	-0.516908	0.097250	0.165866
C118	C	-0.595174	-0.565076	0.414291
H119	H	-0.577167	-0.537769	0.463619
H120	H	-0.620808	-0.589229	0.464518
H121	H	-0.567022	-0.589232	0.370963
C122	C	0.147606	-0.112670	0.148850
H123	H	0.187342	-0.104986	0.147792
H124	H	0.134968	-0.134738	0.219754
H125	H	0.140733	-0.134668	0.078377
H126	H	-0.408851	-0.097332	0.163159
C127	C	-0.525399	-0.112646	0.166147
H128	H	-0.499127	-0.144579	0.165475
H129	H	-0.551536	-0.114880	0.237420
H130	H	-0.545727	-0.114876	0.096042
H131	H	-0.743749	-0.159038	0.007229
C132	C	-0.251414	-0.166282	0.159117
H133	H	-0.225140	-0.198213	0.158442
H134	H	-0.277548	-0.168517	0.230396
H135	H	-0.271746	-0.168515	0.089018
C136	C	-0.752415	-0.849862	-0.016543
H137	H	-0.770424	-0.822553	-0.065882
H138	H	-0.726780	-0.874017	-0.066761
H139	H	-0.780565	-0.874016	0.026798
C140	C	-0.126357	-0.166281	0.155915
H141	H	-0.152625	-0.198214	0.156602
H142	H	-0.100221	-0.168514	0.084641
H143	H	-0.106027	-0.168512	0.226019
H144	H	0.031035	-0.097349	0.151942
H145	H	-0.743775	-0.728686	0.007141
C146	C	-0.782622	-0.435006	-0.099353
H147	H	-0.800621	-0.462312	-0.148698
H148	H	-0.810771	-0.410848	-0.056035
H149	H	-0.756982	-0.410855	-0.149581
H150	H	-0.634080	-0.841054	0.307768
H151	H	-0.634063	-0.728733	0.307766
H152	H	-0.603798	-0.443908	0.390609
