data_functionalizedCrystal
_audit_creation_method	'MofGen! by Chris Wilmer'
_symmetry_space_group_name_H-M	'P1'
_symmetry_Int_Tables_number	1
_symmetry_cell_setting	triclinic
loop_
_symmetry_equiv_pos_as_xyz
  x,y,z
_cell_length_a	10.654546
_cell_length_b	10.654550
_cell_length_c	10.065875
_cell_angle_alpha	98.875770
_cell_angle_beta	81.166364
_cell_angle_gamma	84.484193
loop_
_atom_site_label
_atom_site_type_symbol
_atom_site_fract_x
_atom_site_fract_y
_atom_site_fract_z
O1	O	1.686063	0.158073	-0.113520
O2	O	1.320583	0.174884	-0.113516
O3	O	1.511725	-0.016260	-0.113513
O4	O	1.494921	0.349217	-0.113523
O5	O	1.475279	0.020336	0.113475
O6	O	1.284136	0.211480	0.113472
O7	O	1.649616	0.194669	0.113468
Zn8	Zn	1.461090	0.208885	0.149509
Zn9	Zn	1.509110	0.160668	-0.149557
O10	O	1.458474	0.385813	0.113465
C11	C	1.255562	0.191949	-0.000021
C12	C	1.116118	0.188259	-0.000020
C13	C	1.070491	0.166563	-0.123757
C14	C	0.939473	0.163084	-0.123768
C15	C	0.899717	0.202993	0.123707
C16	C	1.030733	0.206481	0.123716
C17	C	1.155877	0.148341	-0.247493
C18	C	1.110252	0.126642	-0.371241
C19	C	0.979233	0.123163	-0.371252
C20	C	0.893839	0.141383	-0.247515
C21	C	1.492268	-0.044760	-0.000021
C22	C	1.488577	-0.184204	-0.000025
C23	C	1.601118	-0.263691	-0.000023
C24	C	1.597643	-0.394713	-0.000032
C25	C	1.369075	-0.366749	-0.000042
C26	C	1.372553	-0.235730	-0.000042
C27	C	1.717143	-0.212165	-0.000006
C28	C	1.829693	-0.291653	-0.000002
C29	C	1.826218	-0.422675	-0.000011
C30	C	1.710192	-0.474210	-0.000025
C31	C	1.714638	0.177603	-0.000030
C32	C	1.854083	0.181292	-0.000040
C33	C	1.477932	0.414313	-0.000030
C34	C	1.481624	0.553755	-0.000035
N35	N	1.428326	0.241791	0.353614
N36	N	1.541883	0.127752	-0.353662
C37	C	1.497703	0.172109	0.421394
C38	C	1.472497	0.197444	0.578561
H39	H	1.067881	0.224155	0.224474
H40	H	1.719984	-0.105481	0.000006
Cl41	Cl	1.217599	0.103752	-0.526786
Cl42	Cl	1.231070	-0.135798	-0.000046
H43	H	1.394430	0.275859	0.636881
Cl44	Cl	1.975547	-0.226871	-0.000003
Cl45	Cl	1.617933	0.050757	0.331355
H46	H	1.262561	0.151169	-0.247498
Cl47	Cl	0.729126	0.137023	-0.247534
Cl48	Cl	0.921877	0.095899	-0.526816
Cl49	Cl	0.792366	0.225890	0.279250
H50	H	1.917864	-0.487393	-0.000022
H51	H	1.350265	0.320200	0.411939
Cl52	Cl	1.662677	0.006947	0.556307
Cl53	Cl	1.705818	-0.638916	0.000024
H54	H	1.274612	-0.408719	-0.000051
