data_functionalizedCrystal
_audit_creation_method	'MofGen! by Chris Wilmer'
_symmetry_space_group_name_H-M	'P1'
_symmetry_Int_Tables_number	1
_symmetry_cell_setting	triclinic
loop_
_symmetry_equiv_pos_as_xyz
  x,y,z
_cell_length_a	15.698487
_cell_length_b	21.606444
_cell_length_c	21.606444
_cell_angle_alpha	90.001146
_cell_angle_beta	60.003238
_cell_angle_gamma	59.998136
loop_
_atom_site_label
_atom_site_type_symbol
_atom_site_fract_x
_atom_site_fract_y
_atom_site_fract_z
Zr1	Zr	0.932358	0.596246	-0.081191
O2	O	1.110068	0.497419	-0.180013
O3	O	0.754647	0.626542	-0.050899
O4	O	0.932350	0.626542	-0.180013
O5	O	0.932371	0.497419	0.050951
O6	O	0.932344	0.728396	-0.180011
O7	O	0.932365	0.497419	-0.050899
O8	O	0.614466	0.728396	0.050951
O9	O	1.250250	0.497419	-0.180011
O10	O	0.827738	0.715475	-0.037976
O11	O	0.827747	0.639462	0.038032
O12	O	1.036969	0.639462	-0.113983
O13	O	1.036978	0.563450	-0.037975
Zr14	Zr	0.932358	0.758691	0.081251
Zr15	Zr	0.932348	0.758692	-0.081188
Zr16	Zr	0.932367	0.596246	0.081247
Zr17	Zr	1.155931	0.596246	-0.081187
Zr18	Zr	0.708785	0.758692	0.081247
O19	O	1.110068	0.728396	0.050959
O20	O	1.110055	0.728396	-0.180008
O21	O	1.110082	0.497419	0.050954
O22	O	0.754647	0.857518	0.180073
O23	O	0.754633	0.857519	-0.050894
O24	O	0.754661	0.626542	0.180068
O25	O	0.932344	0.857518	-0.050891
O26	O	0.932365	0.728395	0.180073
O27	O	0.932371	0.626541	0.180071
O28	O	0.932350	0.857518	0.050959
O29	O	1.250242	0.626542	-0.180008
O30	O	0.614473	0.728396	0.180068
O31	O	0.614466	0.857518	0.180070
O32	O	0.614458	0.857519	0.050953
O33	O	1.250257	0.497419	-0.050894
O34	O	1.250250	0.626541	-0.050891
O35	O	0.827747	0.715475	0.114043
O36	O	0.827738	0.791488	0.038035
O37	O	1.036969	0.715475	-0.037972
O38	O	1.036978	0.639462	0.038035
C39	C	0.652702	0.677469	0.000025
C40	C	0.557789	0.677469	0.000024
C41	C	0.932370	0.677468	0.203216
C42	C	0.932374	0.677468	0.272175
C43	C	0.932346	0.880663	0.000034
C44	C	0.932342	0.949626	0.000036
C45	C	0.384007	0.677467	0.000037
C46	C	0.480712	0.677467	0.000032
C47	C	1.212013	0.677468	0.000035
C48	C	1.306926	0.677468	0.000036
C49	C	0.932370	0.474274	0.000026
C50	C	0.932374	0.405312	0.000024
C51	C	0.823126	1.021702	0.039712
C52	C	0.823129	1.086497	0.039708
C53	C	0.932350	1.079214	0.000031
C54	C	1.041574	1.007130	-0.039650
C55	C	1.041569	0.942336	-0.039650
C56	C	1.041595	1.268433	-0.039653
C57	C	1.041591	1.333234	-0.039649
C58	C	0.823155	1.412593	0.039705
C59	C	0.823150	1.347800	0.039705
C60	C	0.932374	1.275722	0.000021
C61	C	0.932369	1.205464	0.000025
C62	C	0.932356	1.149470	0.000031
C63	C	0.932346	0.677469	-0.203156
C64	C	0.932342	0.677469	-0.272115
C65	C	1.041590	0.637792	0.264899
C66	C	1.041586	0.637788	0.329697
C67	C	0.932366	0.677466	0.401769
C68	C	0.823142	0.717144	0.409043
C69	C	0.823146	0.717143	0.344247
C70	C	0.823121	0.717150	0.670362
C71	C	0.823125	0.717150	0.735160
C72	C	1.041561	0.637796	0.655811
C73	C	1.041565	0.637794	0.591015
C74	C	0.932342	0.677469	0.598295
C75	C	0.932347	0.677471	0.528034
C76	C	0.932360	0.677469	0.472029
C77	C	0.652690	0.880664	0.000030
C78	C	0.557773	0.949626	0.000030
C79	C	0.652714	0.677469	0.203211
C80	C	0.557806	0.677469	0.272169
C81	C	0.652702	0.880663	0.203216
C82	C	0.557789	0.949626	0.272175
C83	C	1.212013	0.474274	-0.203156
C84	C	1.306926	0.405312	-0.272115
C85	C	1.212026	0.474274	0.000030
C86	C	1.306942	0.405311	0.000030
C87	C	1.212001	0.677469	-0.203151
C88	C	1.306910	0.677469	-0.272109
C89	C	0.513200	0.942334	-0.039654
C90	C	0.424028	1.007125	-0.039669
C91	C	0.379425	1.079208	0.000004
C92	C	0.424008	1.086499	0.039689
C93	C	0.513184	1.021708	0.039699
C94	C	0.513236	0.717146	0.344236
C95	C	0.424071	0.717143	0.409036
C96	C	0.379473	0.677467	0.401766
C97	C	0.424052	0.637784	0.329692
C98	C	0.513220	0.637783	0.264894
C99	C	0.513213	1.021696	0.264884
C100	C	0.424045	1.086499	0.329672
C101	C	0.379449	1.079231	0.401751
C102	C	0.424034	1.007154	0.409041
C103	C	0.513207	0.942352	0.344253
C104	C	1.351514	0.333242	-0.264824
C105	C	1.440709	0.268438	-0.329612
C106	C	1.485310	0.275706	-0.401691
C107	C	1.440719	0.347784	-0.408981
C108	C	1.351531	0.412586	-0.344193
C109	C	1.351525	0.412604	0.039707
C110	C	1.440722	0.347812	0.039705
C111	C	1.485328	0.275729	0.000029
C112	C	1.440741	0.268439	-0.039653
C113	C	1.351552	0.333229	-0.039654
C114	C	1.351480	0.717153	-0.264816
C115	C	1.440645	0.717168	-0.329603
C116	C	1.485244	0.677493	-0.401682
C117	C	1.440665	0.637808	-0.408975
C118	C	1.351496	0.637798	-0.344188
H119	H	0.734195	1.145183	0.072005
O120	O	0.375951	1.164242	0.321819
H121	H	0.335295	1.170843	0.290371
O122	O	0.705342	1.490336	0.082498
H123	H	0.723686	1.534170	0.075825
H124	H	0.734186	1.027642	0.072025
O125	O	0.561122	0.595108	0.187164
H126	H	0.515056	0.567570	0.193003
H127	H	1.315255	0.327281	-0.071962
O128	O	0.705350	1.355653	0.082492
H129	H	0.629403	1.416660	0.110073
H130	H	0.734211	0.749449	0.350176
H131	H	1.477010	0.353763	0.072021
H132	H	0.549490	0.883671	0.350200
O133	O	1.159397	1.325381	-0.082453
H134	H	1.235348	1.264375	-0.110056
H135	H	1.315205	0.327309	-0.206139
O136	O	1.159394	1.190697	-0.082449
H137	H	1.235338	1.196521	-0.110030
O138	O	1.488788	0.190702	-0.321742
H139	H	1.471692	0.159277	-0.349376
O140	O	0.561309	0.864591	-0.082456
H141	H	0.515334	0.870418	-0.110058
O142	O	1.159381	0.999267	-0.082535
H143	H	1.141039	1.056431	-0.075896
H144	H	1.557932	0.222934	-0.454439
O145	O	1.159366	0.864593	-0.082450
H146	H	1.164594	0.833165	-0.042399
H147	H	1.477044	0.353693	-0.467675
O148	O	1.159392	0.594994	0.187164
H149	H	1.235336	0.567398	0.192994
H150	H	1.315216	0.605479	-0.350137
H151	H	0.549510	1.027628	0.206199
H152	H	0.734179	0.749461	0.793846
H153	H	1.130521	0.605481	0.323766
O154	O	1.488855	0.190690	-0.082445
H155	H	1.558354	0.146869	-0.075767
O156	O	1.303426	0.490319	-0.352061
H157	H	1.349419	0.484478	-0.413068
O158	O	0.283259	1.149131	0.471624
H159	H	0.201999	1.149090	0.505836
O160	O	1.303442	0.490346	0.082490
H161	H	1.349455	0.484520	0.110065
O162	O	1.581491	0.205849	0.000058
H163	H	1.604972	0.223038	0.034330
H164	H	1.476932	0.749483	-0.323650
O165	O	0.283238	1.149089	-0.000006
H166	H	0.201985	1.149040	0.024821
O167	O	0.561232	1.029583	0.082520
H168	H	0.659606	1.001971	0.042481
H169	H	1.557852	0.677507	-0.454429
O170	O	0.375955	0.999247	-0.082474
H171	H	0.306464	1.056405	-0.075831
O172	O	0.375914	0.999318	0.486785
H173	H	0.306405	1.056491	0.530604
H174	H	1.315182	0.749461	-0.206130
H175	H	1.476991	0.605506	-0.467671
H176	H	0.734184	0.749458	0.676299
O177	O	1.159364	0.595002	0.513278
H178	H	1.211736	0.534017	0.506684
O179	O	1.159371	0.594989	0.647960
H180	H	1.164591	0.635043	0.675592
O181	O	0.705334	0.759992	0.486776
H182	H	0.723677	0.753353	0.530612
H183	H	0.387679	1.145197	0.071989
H184	H	0.387786	0.749460	0.467715
O185	O	0.561334	0.759940	0.352086
H186	H	0.515361	0.787518	0.413090
O187	O	0.283277	0.677485	0.471658
H188	H	0.259770	0.711754	0.522990
O189	O	0.375911	0.595016	0.321855
H190	H	0.306400	0.601703	0.379025
