data_functionalizedCrystal
_audit_creation_method	'MofGen! by Chris Wilmer'
_symmetry_space_group_name_H-M	'P1'
_symmetry_Int_Tables_number	1
_symmetry_cell_setting	triclinic
loop_
_symmetry_equiv_pos_as_xyz
  x,y,z
_cell_length_a	12.970454
_cell_length_b	14.560438
_cell_length_c	14.560438
_cell_angle_alpha	60.000069
_cell_angle_beta	89.998538
_cell_angle_gamma	59.999012
loop_
_atom_site_label
_atom_site_type_symbol
_atom_site_fract_x
_atom_site_fract_y
_atom_site_fract_z
Zr1	Zr	0.993223	1.005272	-0.120521
O2	O	0.828599	1.196876	-0.267164
O3	O	1.043689	0.813670	-0.075570
O4	O	1.043689	1.005275	-0.267170
O5	O	0.828599	1.005270	0.075578
O6	O	1.213357	1.005274	-0.267173
O7	O	0.828599	1.005272	-0.075563
O8	O	1.213356	0.662529	0.075566
O9	O	0.828599	1.348014	-0.267161
O10	O	1.191833	0.892478	-0.056397
O11	O	1.065213	0.892476	0.056399
O12	O	1.065213	1.118065	-0.169186
O13	O	0.938592	1.118064	-0.056389
Zr14	Zr	1.263824	1.005267	0.120528
Zr15	Zr	1.263823	1.005271	-0.120525
Zr16	Zr	0.993224	1.005268	0.120531
Zr17	Zr	0.993224	1.246320	-0.120516
Zr18	Zr	1.263823	0.764219	0.120523
O19	O	1.213358	1.196868	0.075576
O20	O	1.213357	1.196874	-0.267169
O21	O	0.828599	1.196870	0.075582
O22	O	1.428448	0.813663	0.267170
O23	O	1.428447	0.813669	-0.075575
O24	O	1.043690	0.813664	0.267176
O25	O	1.428448	1.005269	-0.075571
O26	O	1.213357	1.005264	0.267177
O27	O	1.043690	1.005265	0.267179
O28	O	1.428448	1.005267	0.075570
O29	O	1.043690	1.348013	-0.267164
O30	O	1.213357	0.662526	0.267171
O31	O	1.428448	0.662525	0.267168
O32	O	1.428447	0.662528	0.075563
O33	O	0.828599	1.348011	-0.075557
O34	O	1.043690	1.348010	-0.075559
O35	O	1.191834	0.892474	0.169192
O36	O	1.318455	0.892475	0.056396
O37	O	1.191834	1.118063	-0.056393
O38	O	1.065213	1.118061	0.056404
C39	C	1.128523	0.703756	-0.000002
C40	C	1.128522	0.601425	-0.000004
C41	C	1.194615	0.553349	-0.058883
C42	C	1.194620	0.457190	-0.058872
C43	C	1.062430	0.457194	0.058897
C44	C	1.062433	0.553345	0.058892
C45	C	0.790044	1.005271	0.000008
C46	C	0.675167	1.005272	0.000010
C47	C	1.467003	1.005268	-0.000001
C48	C	1.581879	1.005267	-0.000003
C49	C	1.128523	1.005275	-0.301516
C50	C	1.128523	1.005277	-0.403849
C51	C	1.128524	1.306783	0.000009
C52	C	1.128524	1.409114	0.000011
C53	C	1.221994	1.005277	-0.451926
C54	C	1.221997	1.005265	-0.548072
C55	C	1.035048	1.005258	-0.548058
C56	C	1.035051	1.005260	-0.451909
C57	C	1.128524	1.005264	0.301523
C58	C	1.128524	1.005262	0.403856
C59	C	1.467002	0.703754	-0.000007
C60	C	1.581879	0.601422	-0.000010
C61	C	1.128523	0.703750	0.301517
C62	C	1.128523	0.601417	0.403848
C63	C	1.467002	0.703749	0.301513
C64	C	1.581879	0.601415	0.403842
C65	C	0.790044	1.306790	-0.301506
C66	C	0.675168	1.409124	-0.403835
C67	C	0.790045	1.306785	0.000014
C68	C	0.675168	1.409116	0.000017
C69	C	1.128524	1.306789	-0.301511
C70	C	1.128524	1.409121	-0.403842
C71	C	1.635827	0.470089	0.083256
C72	C	1.743755	0.373924	0.083256
C73	C	1.797737	0.409096	-0.000006
C74	C	1.743779	0.540442	-0.083280
C75	C	1.635848	0.636604	-0.083284
C76	C	1.635835	0.470083	0.451895
C77	C	1.743786	0.373915	0.548033
C78	C	1.797774	0.409082	0.596122
C79	C	1.743813	0.540428	0.548061
C80	C	1.635869	0.636593	0.451919
C81	C	0.621221	1.540456	-0.451897
C82	C	0.513294	1.636624	-0.548057
C83	C	0.459310	1.601456	-0.596149
C84	C	0.513267	1.470110	-0.548083
C85	C	0.621197	1.373946	-0.451929
C86	C	0.621220	1.373904	0.083294
C87	C	0.513292	1.470042	0.083320
C88	C	0.459309	1.601392	0.000064
C89	C	0.513267	1.636603	-0.083217
C90	C	0.621199	1.540466	-0.083238
C91	C	1.194617	0.553338	0.510800
C92	C	1.194602	0.457194	0.606948
C93	C	1.062399	0.457215	0.489177
C94	C	1.062407	0.553363	0.393032
H95	H	1.008621	0.418036	0.106847
H96	H	1.298111	1.005264	-0.587213
H97	H	1.591943	0.743529	0.412806
Br98	Br	1.284310	0.618595	-0.138810
Br99	Br	0.439983	1.422404	-0.613361
H100	H	1.885668	0.330765	0.674408
Br101	Br	1.944217	0.278571	0.000016
Br102	Br	0.439987	1.814870	-0.196202
Br103	Br	1.817094	0.588133	0.613343
Br104	Br	0.694391	1.195708	-0.386710
Br105	Br	0.972745	0.618583	0.138818
Br106	Br	0.694461	1.588219	-0.386651
H107	H	0.958934	1.005255	-0.412760
Br108	Br	0.440088	1.814866	-0.613266
H109	H	1.787748	0.569062	-0.151070
H110	H	0.665112	1.569155	-0.151057
H111	H	1.008571	0.418075	0.480384
Br112	Br	0.694456	1.195653	0.196297
Br113	Br	1.348850	1.005296	-0.386703
Br114	Br	0.312831	1.731984	-0.726645
Br115	Br	1.562588	0.422321	0.196267
H116	H	1.248439	0.418048	-0.106815
H117	H	0.469372	1.441347	0.151138
Br118	Br	0.908196	1.005239	-0.613287
H119	H	0.371424	1.679660	0.000093
H120	H	1.008579	0.592513	0.305941
H121	H	1.787673	0.266983	0.151071
H122	H	1.248448	0.592466	0.519614
H123	H	1.248421	0.418054	0.694030
H124	H	1.591892	0.441424	0.412754
Br125	Br	1.562640	0.814843	-0.196306
H126	H	1.787701	0.266975	0.587156
