data_functionalizedCrystal
_audit_creation_method	'MofGen! by Chris Wilmer'
_symmetry_space_group_name_H-M	'P1'
_symmetry_Int_Tables_number	1
_symmetry_cell_setting	triclinic
loop_
_symmetry_equiv_pos_as_xyz
  x,y,z
_cell_length_a	19.077269
_cell_length_b	12.759399
_cell_length_c	12.759393
_cell_angle_alpha	89.968715
_cell_angle_beta	92.277346
_cell_angle_gamma	87.718536
loop_
_atom_site_label
_atom_site_type_symbol
_atom_site_fract_x
_atom_site_fract_y
_atom_site_fract_z
Zn1	Zn	1.076008	-0.482719	-0.529501
Zn2	Zn	1.576008	0.017281	-0.029501
Zn3	Zn	1.075935	-0.658434	-0.353827
Zn4	Zn	1.575935	-0.158434	0.146173
Zn5	Zn	0.958310	-0.475717	-0.360894
Zn6	Zn	1.458310	0.024283	0.139106
Zn7	Zn	0.958300	-0.651299	-0.536518
Zn8	Zn	1.458300	-0.151299	-0.036518
O9	O	1.017138	-0.567042	-0.445185
O10	O	1.517138	-0.067042	0.054815
O11	O	1.174486	-0.511945	-0.500304
O12	O	1.674486	-0.011945	-0.000304
O13	O	1.060306	-0.634251	-0.207745
O14	O	1.560306	-0.134251	0.292255
O15	O	0.973957	-0.329627	-0.383281
O16	O	1.473957	0.170373	0.116719
O17	O	1.174433	-0.641041	-0.371236
O18	O	1.674433	-0.141041	0.128764
O19	O	1.060429	-0.334772	-0.507157
O20	O	1.560429	0.165228	-0.007157
O21	O	0.973887	-0.500010	-0.212937
O22	O	1.473887	-0.000010	0.287063
O23	O	0.859821	-0.493092	-0.390085
O24	O	1.359821	0.006908	0.109915
O25	O	0.973941	-0.628882	-0.682606
O26	O	1.473941	-0.128882	-0.182606
O27	O	0.859814	-0.622092	-0.519115
O28	O	1.359814	-0.122092	-0.019115
O29	O	1.060420	-0.505027	-0.677452
O30	O	1.560420	-0.005027	-0.177452
O31	O	1.060296	-0.804507	-0.378040
O32	O	1.560296	-0.304507	0.121960
O33	O	0.973871	-0.799265	-0.512262
O34	O	1.473871	-0.299265	-0.012262
C35	C	0.834281	-0.556059	-0.456129
C36	C	1.334281	-0.056059	0.043871
C37	C	0.756053	-0.551385	-0.460836
C38	C	1.256053	-0.051385	0.039164
C39	C	1.017094	-0.840007	-0.445167
C40	C	1.517094	-0.340007	0.054833
C41	C	1.017139	-0.956786	-0.445191
C42	C	1.517139	-0.456786	0.054809
C43	C	0.972172	-1.118684	-0.515056
C44	C	1.472172	-0.618684	-0.015056
C45	C	0.972128	-1.008958	-0.515033
C46	C	1.472128	-0.508958	-0.015033
C47	C	1.062202	-1.014348	-0.375373
C48	C	1.562202	-0.514348	0.124627
C49	C	1.062248	-1.124073	-0.375402
C50	C	1.562248	-0.624073	0.124598
C51	C	0.920166	-1.115571	-0.595684
C52	C	1.420166	-0.615571	-0.095684
C53	C	0.920123	-1.005844	-0.595661
C54	C	1.420123	-0.505844	-0.095661
C55	C	0.719271	-0.616294	-0.395748
C56	C	1.219271	-0.116294	0.104252
C57	C	0.645768	-0.611903	-0.400185
C58	C	1.145768	-0.111903	0.099815
C59	C	0.609049	-0.542597	-0.469704
C60	C	1.109049	-0.042597	0.030296
C61	C	0.645836	-0.477685	-0.534798
C62	C	1.145836	0.022315	-0.034798
C63	C	0.719338	-0.482082	-0.530366
C64	C	1.219338	0.017918	-0.030366
C65	C	0.389226	-0.522255	-0.490180
C66	C	0.889226	-0.022255	0.009820
C67	C	0.315719	-0.517860	-0.494604
C68	C	0.815719	-0.017860	0.005396
C69	C	0.315657	-0.652080	-0.359992
C70	C	0.815657	-0.152080	0.140008
C71	C	0.389160	-0.656466	-0.355562
C72	C	0.889160	-0.156466	0.144438
C73	C	0.425940	-0.591559	-0.420660
C74	C	0.925940	-0.091559	0.079340
N75	N	0.533917	-0.538104	-0.474238
N76	N	1.033917	-0.038104	0.025762
N77	N	0.501071	-0.596057	-0.416131
N78	N	1.001071	-0.096057	0.083869
C79	C	1.200710	-0.578070	-0.434199
C80	C	1.700710	-0.078070	0.065801
C81	C	1.278937	-0.582769	-0.429517
C82	C	1.778937	-0.082769	0.070483
C83	C	1.017188	-0.566939	-0.719215
C84	C	1.517188	-0.066939	-0.219215
C85	C	1.017209	-0.566895	-0.835991
C86	C	1.517209	-0.066895	-0.335991
C87	C	1.017202	-0.293013	-0.445225
C88	C	1.517202	0.206987	0.054775
C89	C	1.017229	-0.176238	-0.445242
C90	C	1.517229	0.323762	0.054758
C91	C	1.062244	-0.502398	-0.888170
C92	C	1.562244	-0.002398	-0.388170
C93	C	1.062261	-0.502361	-0.997893
C94	C	1.562261	-0.002361	-0.497893
C95	C	0.972204	-0.631328	-1.003248
C96	C	1.472204	-0.131328	-0.503248
C97	C	0.972184	-0.631359	-0.893527
C98	C	1.472184	-0.131359	-0.393527
C99	C	1.114240	-0.427943	-0.885079
C100	C	1.614240	0.072057	-0.385079
C101	C	1.114257	-0.427907	-0.994802
C102	C	1.614257	0.072093	-0.494802
C103	C	1.017130	-0.567072	-0.172218
C104	C	1.517130	-0.067072	0.327782
C105	C	1.017245	-0.566828	-0.055435
C106	C	1.517245	-0.066828	0.444565
H107	H	1.098944	-1.170930	-0.318561
H108	H	1.598944	-0.670930	0.181439
H109	H	0.285702	-0.704925	-0.306995
H110	H	0.785702	-0.204925	0.193005
O111	O	0.937687	-1.151999	-0.691704
O112	O	1.437687	-0.651999	-0.191704
C113	C	1.005075	-1.118987	-0.714559
C114	C	1.505075	-0.618987	-0.214559
H115	H	1.035493	-1.101333	-0.638319
H116	H	1.535493	-0.601333	-0.138319
H117	H	1.034323	-1.183735	-0.758686
H118	H	1.534323	-0.683735	-0.258686
H119	H	0.999900	-1.045202	-0.765154
H120	H	1.499900	-0.545202	-0.265154
H121	H	0.749285	-0.429226	-0.583366
H122	H	1.249285	0.070774	-0.083366
H123	H	1.098855	-0.971864	-0.318512
H124	H	1.598855	-0.471864	0.181488
H125	H	0.868415	-1.146595	-0.569578
H126	H	1.368415	-0.646595	-0.069578
O127	O	0.943468	-0.966483	-0.686413
O128	O	1.443468	-0.466483	-0.186413
C129	C	1.003345	-0.907832	-0.664173
C130	C	1.503345	-0.407832	-0.164173
H131	H	1.029273	-0.935052	-0.586295
H132	H	1.529273	-0.435052	-0.086295
H133	H	1.042041	-0.919934	-0.729320
H134	H	1.542041	-0.419934	-0.229320
H135	H	0.987139	-0.821083	-0.658920
H136	H	1.487139	-0.321083	-0.158920
H137	H	0.285824	-0.461415	-0.551212
H138	H	0.785824	0.038585	-0.051212
O139	O	1.090900	-0.334277	-1.036701
O140	O	1.590900	0.165723	-0.536701
C141	C	1.021602	-0.311692	-1.006641
C142	C	1.521602	0.188308	-0.506641
H143	H	1.011535	-0.356655	-0.931844
H144	H	1.511535	0.143345	-0.431844
H145	H	1.014103	-0.223925	-0.991882
H146	H	1.514103	0.276075	-0.491882
H147	H	0.983134	-0.336230	-1.071887
H148	H	1.483134	0.163770	-0.571887
O149	O	0.855040	-0.966637	-0.573590
O150	O	1.355040	-0.466637	-0.073590
C151	C	0.805774	-1.000590	-0.650264
C152	C	1.305774	-0.500590	-0.150264
H153	H	0.827174	-1.075208	-0.688733
H154	H	1.327174	-0.575208	-0.188733
H155	H	0.754457	-1.017175	-0.611725
H156	H	1.254457	-0.517175	-0.111725
H157	H	0.795851	-0.936843	-0.712331
H158	H	1.295851	-0.436843	-0.212331
O159	O	0.754907	-0.683768	-0.328332
O160	O	1.254907	-0.183768	0.171668
C161	C	0.736927	-0.787429	-0.352185
C162	C	1.236927	-0.287429	0.147815
H163	H	0.716753	-0.791620	-0.437324
H164	H	1.216753	-0.291620	0.062676
H165	H	0.785255	-0.842216	-0.340135
H166	H	1.285255	-0.342216	0.159865
H167	H	0.694238	-0.812273	-0.298385
H168	H	1.194238	-0.312273	0.201615
H169	H	0.615824	-0.664758	-0.347184
H170	H	1.115824	-0.164758	0.152816
H171	H	1.168766	-0.452967	-1.021314
H172	H	1.668766	0.047033	-0.521314
O173	O	0.424718	-0.723882	-0.288002
O174	O	0.924718	-0.223882	0.211998
C175	C	0.376491	-0.780211	-0.231482
C176	C	0.876491	-0.280211	0.268518
H177	H	0.324113	-0.780775	-0.277668
H178	H	0.824113	-0.280775	0.222332
H179	H	0.397717	-0.864242	-0.218844
H180	H	0.897717	-0.364242	0.281156
H181	H	0.368645	-0.741168	-0.152233
H182	H	0.868645	-0.241168	0.347767
H183	H	0.419164	-0.469404	-0.543189
H184	H	0.919164	0.030596	-0.043189
H185	H	0.615933	-0.421260	-0.591407
H186	H	1.115933	0.078740	-0.091407
O187	O	0.928501	-0.694154	-0.842888
O188	O	1.428501	-0.194154	-0.342888
C189	C	0.943835	-0.799784	-0.868773
C190	C	1.443835	-0.299784	-0.368773
H191	H	1.000065	-0.808480	-0.895558
H192	H	1.500065	-0.308480	-0.395558
H193	H	0.937731	-0.851341	-0.796969
H194	H	1.437731	-0.351341	-0.296969
H195	H	0.906107	-0.824945	-0.934720
H196	H	1.406107	-0.324945	-0.434720
O197	O	0.928540	-0.693920	-1.059300
O198	O	1.428540	-0.193920	-0.559300
C199	C	0.938199	-0.680042	-1.167333
C200	C	1.438199	-0.180042	-0.667333
H201	H	0.992524	-0.648892	-1.179078
H202	H	1.492524	-0.148892	-0.679078
H203	H	0.933413	-0.758437	-1.209301
H204	H	1.433413	-0.258437	-0.709301
H205	H	0.896471	-0.621577	-1.200978
H206	H	1.396471	-0.121577	-0.700978
H207	H	1.099659	-0.345705	-0.856197
H208	H	1.599659	0.154295	-0.356197
O209	O	1.175993	-0.466581	-0.840889
O210	O	1.675993	0.033419	-0.340889
C211	C	1.188319	-0.570759	-0.874326
C212	C	1.688319	-0.070759	-0.374326
H213	H	1.157821	-0.583900	-0.951537
H214	H	1.657821	-0.083900	-0.451537
H215	H	1.246814	-0.585497	-0.886046
H216	H	1.746814	-0.085497	-0.386046
H217	H	1.170290	-0.627119	-0.812436
H218	H	1.670290	-0.127119	-0.312436
