data_functionalizedCrystal
_audit_creation_method	'MofGen! by Chris Wilmer'
_symmetry_space_group_name_H-M	'P1'
_symmetry_Int_Tables_number	1
_symmetry_cell_setting	triclinic
loop_
_symmetry_equiv_pos_as_xyz
  x,y,z
_cell_length_a	13.032831
_cell_length_b	25.639234
_cell_length_c	13.032721
_cell_angle_alpha	82.837497
_cell_angle_beta	89.097115
_cell_angle_gamma	82.818946
loop_
_atom_site_label
_atom_site_type_symbol
_atom_site_fract_x
_atom_site_fract_y
_atom_site_fract_z
Zn1	Zn	1.520107	-0.430765	0.609537
Zn2	Zn	2.020107	0.069235	1.109537
Zn3	Zn	1.498173	-0.352866	0.781486
Zn4	Zn	1.998173	0.147134	1.281486
Zn5	Zn	1.348156	-0.331048	0.587668
Zn6	Zn	1.848156	0.168952	1.087668
Zn7	Zn	1.326256	-0.427974	0.759583
Zn8	Zn	1.826256	0.072026	1.259583
O9	O	1.423173	-0.385663	0.684569
O10	O	1.923173	0.114337	1.184569
O11	O	1.661107	-0.430731	0.650666
O12	O	2.161107	0.069269	1.150666
O13	O	1.478259	-0.276807	0.755790
O14	O	1.978259	0.223193	1.255790
O15	O	1.389310	-0.336312	0.446660
O16	O	1.889310	0.163688	0.946660
O17	O	1.644993	-0.373499	0.776996
O18	O	2.144993	0.126501	1.276996
O19	O	1.515642	-0.409575	0.462728
O20	O	2.015642	0.090425	0.962728
O21	O	1.368042	-0.260777	0.613392
O22	O	1.868042	0.239223	1.113392
O23	O	1.201341	-0.333606	0.592154
O24	O	1.701341	0.166394	1.092154
O25	O	1.351984	-0.501510	0.739665
O26	O	1.851984	-0.001510	1.239665
O27	O	1.185251	-0.404817	0.718459
O28	O	1.685251	0.095183	1.218459
O29	O	1.494406	-0.503560	0.629427
O30	O	1.994406	-0.003560	1.129427
O31	O	1.457023	-0.370792	0.922489
O32	O	1.957023	0.129208	1.422489
O33	O	1.330716	-0.425974	0.906397
O34	O	1.830716	0.074026	1.406397
C35	C	1.155982	-0.366541	0.650557
C36	C	1.655982	0.133459	1.150557
C37	C	1.041673	-0.358375	0.636032
C38	C	1.541673	0.141625	1.136032
C39	C	0.982764	-0.389926	0.692150
C40	C	1.482764	0.110074	1.192150
C41	C	0.864620	-0.381486	0.677138
C42	C	1.364620	0.118514	1.177138
C43	C	1.423199	-0.522036	0.684542
C44	C	1.923199	-0.022036	1.184542
C45	C	1.423209	-0.580150	0.684531
C46	C	1.923209	-0.080150	1.184531
C47	C	1.349136	-0.830268	0.741811
C48	C	1.849136	-0.330268	1.241811
C49	C	1.349115	-0.775664	0.741832
C50	C	1.849115	-0.275664	1.241832
O51	O	1.286023	-0.746511	0.790624
O52	O	1.786023	-0.246511	1.290624
N53	N	1.423259	-0.749423	0.684453
N54	N	1.923259	-0.249423	1.184453
C55	C	1.497423	-0.777788	0.627041
C56	C	1.997423	-0.277788	1.127041
O57	O	1.560486	-0.750453	0.578236
O58	O	2.060486	-0.250453	1.078236
C59	C	1.497439	-0.832390	0.627015
C60	C	1.997439	-0.332390	1.127015
C61	C	1.423296	-0.858630	0.684406
C62	C	1.923296	-0.358630	1.184406
C63	C	1.274998	-0.856507	0.799197
C64	C	1.774998	-0.356507	1.299197
C65	C	1.275020	-0.911108	0.799178
C66	C	1.775020	-0.411108	1.299178
C67	C	1.349180	-0.939470	0.741772
C68	C	1.849180	-0.439470	1.241772
C69	C	1.423318	-0.913230	0.684387
C70	C	1.923318	-0.413230	1.184387
C71	C	1.571597	-0.860754	0.569597
C72	C	2.071597	-0.360754	1.069597
C73	C	1.571606	-0.915360	0.569576
C74	C	2.071606	-0.415360	1.069576
C75	C	1.497463	-0.941599	0.626967
C76	C	1.997463	-0.441599	1.126967
C77	C	1.497501	-0.996193	0.626962
C78	C	1.997501	-0.496193	1.126962
N79	N	1.423356	-1.022434	0.684341
N80	N	1.923356	-0.522434	1.184341
C81	C	1.349196	-0.994072	0.741746
C82	C	1.849196	-0.494072	1.241746
C83	C	1.497384	-0.663118	0.627098
C84	C	1.997384	-0.163118	1.127098
C85	C	1.497373	-0.608517	0.627130
C86	C	1.997373	-0.108517	1.127130
C87	C	1.349063	-0.606397	0.741920
C88	C	1.849063	-0.106397	1.241920
C89	C	1.349079	-0.660999	0.741894
C90	C	1.849079	-0.160999	1.241894
C91	C	1.423239	-0.689359	0.684478
C92	C	1.923239	-0.189359	1.184478
C93	C	1.349249	-1.108738	0.741702
C94	C	1.849249	-0.608738	1.241702
C95	C	1.349281	-1.163344	0.741680
C96	C	1.849281	-0.663344	1.241680
C97	C	1.497587	-1.165459	0.626886
C98	C	1.997587	-0.665459	1.126886
C99	C	1.497559	-1.110858	0.626911
C100	C	1.997559	-0.610858	1.126911
C101	C	1.423382	-1.082499	0.684321
C102	C	1.923382	-0.582499	1.184321
O103	O	1.560558	-1.025379	0.578191
O104	O	2.060558	-0.525379	1.078191
O105	O	1.286135	-1.021412	0.790532
O106	O	1.786135	-0.521412	1.290532
C107	C	1.691407	-0.404860	0.718713
C108	C	2.191407	0.095140	1.218713
C109	C	1.805713	-0.413041	0.733264
C110	C	2.305713	0.086959	1.233264
C111	C	1.389141	-0.400461	0.951761
C112	C	1.889141	0.099539	1.451761
C113	C	1.374676	-0.406816	1.066078
C114	C	1.874676	0.093184	1.566078
C115	C	1.423216	-0.249821	0.684528
C116	C	1.923216	0.250179	1.184528
C117	C	1.423441	-0.191705	0.684275
C118	C	1.923441	0.308295	1.184275
C119	C	1.457366	-0.370821	0.416337
C120	C	1.957366	0.129179	0.916337
C121	C	1.471937	-0.364496	0.302032
C122	C	1.971937	0.135504	0.802032
C123	C	1.430777	-0.382374	1.124979
C124	C	1.930777	0.117626	1.624979
C125	C	1.415828	-0.388941	1.243133
C126	C	1.915828	0.111059	1.743133
H127	H	1.019796	-0.423187	0.751304
H128	H	1.519796	0.076813	1.251304
Cl129	Cl	1.522028	-0.342562	1.067795
Cl130	Cl	2.022028	0.157438	1.567795
Cl131	Cl	1.324585	-0.428762	1.300315
Cl132	Cl	1.824585	0.071238	1.800315
H133	H	1.531042	-0.338709	1.264993
H134	H	2.031042	0.161291	1.764993
H135	H	1.004642	-0.325116	0.576870
H136	H	1.504642	0.174884	1.076870
Cl137	Cl	1.664809	-0.827780	0.497440
Cl138	Cl	2.164809	-0.327780	0.997440
Cl139	Cl	1.255998	-1.073094	0.813878
Cl140	Cl	1.755998	-0.573094	1.313878
Cl141	Cl	0.807460	-0.330133	0.585790
Cl142	Cl	1.307460	0.169867	1.085790
H143	H	1.214602	-0.833421	0.845942
H144	H	1.714602	-0.333421	1.345942
H145	H	0.842739	-0.446307	0.792420
H146	H	1.342739	0.053693	1.292420
Cl147	Cl	1.255865	-0.693980	0.814042
Cl148	Cl	1.755865	-0.193980	1.314042
H149	H	1.288904	-1.184706	0.788419
H150	H	1.788904	-0.684706	1.288419
H151	H	1.315584	-0.432606	1.103124
H152	H	1.815584	0.067394	1.603124
H153	H	1.214643	-0.932467	0.845909
H154	H	1.714643	-0.432467	1.345909
H155	H	1.557758	-0.587159	0.580408
H156	H	2.057758	-0.087159	1.080408
Cl157	Cl	1.255833	-0.570732	0.814088
Cl158	Cl	1.755833	-0.070732	1.314088
Cl159	Cl	1.664833	-0.951008	0.497379
Cl160	Cl	2.164833	-0.451008	0.997379
Cl161	Cl	1.590636	-0.698767	0.554927
Cl162	Cl	2.090636	-0.198767	1.054927
H163	H	1.557939	-1.089494	0.580187
H164	H	2.057939	-0.589494	1.080187
H165	H	1.557969	-1.188561	0.580152
H166	H	2.057969	-0.688561	1.080152
