data_functionalizedCrystal
_audit_creation_method	'MofGen! by Chris Wilmer'
_symmetry_space_group_name_H-M	'P1'
_symmetry_Int_Tables_number	1
_symmetry_cell_setting	triclinic
loop_
_symmetry_equiv_pos_as_xyz
  x,y,z
_cell_length_a	15.538117
_cell_length_b	14.519731
_cell_length_c	14.185197
_cell_angle_alpha	104.749384
_cell_angle_beta	108.246113
_cell_angle_gamma	65.481371
loop_
_atom_site_label
_atom_site_type_symbol
_atom_site_fract_x
_atom_site_fract_y
_atom_site_fract_z
O1	O	-1.230294	0.311609	0.083414
O2	O	-0.956222	0.205193	0.083421
O3	O	-1.100519	0.395075	0.083397
O4	O	-1.085997	0.121726	0.083438
O5	O	-1.138683	0.370506	-0.083441
O6	O	-0.994386	0.180623	-0.083417
O7	O	-1.268459	0.287039	-0.083425
Cu8	Cu	-1.134907	0.231588	-0.098655
Cu9	Cu	-1.089773	0.260644	0.098651
O10	O	-1.124162	0.097157	-0.083401
C11	C	-0.940228	0.181774	0.000003
C12	C	-0.835713	0.148611	0.000005
C13	C	-1.118922	0.416921	-0.000025
C14	C	-1.116886	0.518615	-0.000034
C15	C	-0.547351	0.478107	-0.000033
C16	C	-0.449139	0.446921	-0.000028
C17	C	-0.426999	0.271501	-0.000003
C18	C	-0.525212	0.302671	-0.000012
C19	C	-0.585380	0.405975	-0.000026
C20	C	-0.563242	0.230540	-0.000005
C21	C	-0.661445	0.261709	-0.000009
C22	C	-0.721618	0.365009	-0.000020
C23	C	-0.683583	0.437144	-0.000030
C24	C	-0.503070	0.127237	0.000016
C25	C	-0.541100	0.055106	0.000023
C26	C	-0.639307	0.086273	0.000012
C27	C	-0.699480	0.189573	0.000001
C28	C	-0.677342	0.014138	0.000022
C29	C	-0.775545	0.045306	0.000018
C30	C	-0.797683	0.220742	-0.000002
C31	C	-1.115232	0.601201	-0.000039
C32	C	-1.113163	0.704814	-0.000040
C33	C	-1.111521	0.787401	-0.000040
C34	C	-1.109453	0.891020	-0.000043
C35	C	-0.284453	0.310462	-0.000007
C36	C	-0.388971	0.343640	-0.000011
C37	C	-1.105763	1.075308	0.000003
C38	C	-1.107811	0.973607	-0.000043
N39	N	-1.166659	0.211154	-0.237429
C40	C	-0.964800	0.341115	-0.605057
C41	C	-0.988839	0.325639	-0.710081
C42	C	-1.103210	0.252000	-0.710055
C43	C	-1.079183	0.267474	-0.605028
C44	C	-1.009978	0.312031	-0.552538
C45	C	-1.124361	0.238390	-0.552509
C46	C	-1.100333	0.253858	-0.447492
C47	C	-1.031127	0.298411	-0.394994
C48	C	-0.985949	0.327499	-0.447521
C49	C	-1.193561	0.193827	-0.605002
C50	C	-1.238738	0.164743	-0.552483
C51	C	-1.214716	0.180218	-0.447464
C52	C	-1.145510	0.224770	-0.394966
C53	C	-1.259893	0.151129	-0.394937
C54	C	-1.235865	0.166597	-0.289920
C55	C	-1.121482	0.240238	-0.289948
N56	N	-1.058028	0.281088	0.237426
H57	H	-0.846677	0.304861	-0.000020
Br58	Br	-0.459434	-0.085086	0.000052
Br59	Br	-1.226168	0.172828	-0.747527
H60	H	-0.596345	0.562226	-0.000050
Br61	Br	-1.027595	0.300758	-0.218701
Br62	Br	-0.595670	-0.126052	0.000064
Br63	Br	-1.332650	0.104263	-0.623729
H64	H	-0.377997	0.187391	0.000013
Br65	Br	-0.892062	0.388019	-0.376273
H66	H	-0.418180	0.505668	-0.000033
Br67	Br	-1.353795	0.090638	-0.466186
Br68	Br	-0.854894	0.407315	-0.000015
Br69	Br	-0.369792	0.084936	0.000025
H70	H	-0.732578	0.521264	-0.000047
Br71	Br	-0.827161	-0.052585	0.000034
Br72	Br	-0.870913	0.401634	-0.533810
Br73	Br	-0.927517	0.365112	-0.781355
H74	H	-1.011560	0.310998	-0.309482
Br75	Br	-1.297189	0.127142	-0.218637
H76	H	-1.159555	0.215718	-0.752807
