data_functionalizedCrystal
_audit_creation_method	'MofGen! by Chris Wilmer'
_symmetry_space_group_name_H-M	'P1'
_symmetry_Int_Tables_number	1
_symmetry_cell_setting	triclinic
loop_
_symmetry_equiv_pos_as_xyz
  x,y,z
_cell_length_a	16.098538
_cell_length_b	19.288864
_cell_length_c	19.288865
_cell_angle_alpha	83.136245
_cell_angle_beta	92.708117
_cell_angle_gamma	87.256992
loop_
_atom_site_label
_atom_site_type_symbol
_atom_site_fract_x
_atom_site_fract_y
_atom_site_fract_z
O1	O	0.069533	-0.924481	-0.083521
O2	O	0.069478	-0.722217	-0.095213
O3	O	0.069491	-0.829193	0.011763
O4	O	0.069520	-0.817505	-0.190497
O5	O	-0.069023	-0.822944	0.005538
O6	O	-0.069036	-0.715969	-0.101437
O7	O	-0.068980	-0.918232	-0.089746
Zn8	Zn	-0.091000	-0.816108	-0.096580
Zn9	Zn	0.091498	-0.824341	-0.088379
O10	O	-0.068993	-0.811256	-0.196721
C11	C	0.000213	-0.693216	-0.097949
C12	C	0.000192	-0.616112	-0.096821
C13	C	0.000231	-0.825692	0.034527
C14	C	0.000224	-0.824563	0.111630
N15	N	-0.215550	-0.810494	-0.102176
C16	C	-0.259130	-0.855915	-0.056788
C17	C	-0.346319	-0.851994	-0.060709
C18	C	-0.389927	-0.802655	-0.110023
C19	C	-0.346342	-0.757230	-0.155414
C20	C	-0.259154	-0.761147	-0.151489
C21	C	-0.653179	-0.788453	-0.124242
C22	C	-0.740373	-0.784539	-0.128165
C23	C	-0.740344	-0.879304	-0.033459
C24	C	-0.653155	-0.883220	-0.029541
C25	C	-0.609577	-0.837792	-0.074929
C26	C	-0.479049	-0.798648	-0.114035
C27	C	-0.520457	-0.841796	-0.070914
N28	N	0.216047	-0.829961	-0.082777
C29	C	0.000286	-0.947233	-0.087009
C30	C	0.000313	-1.024338	-0.088137
C31	C	0.000214	-0.571416	-0.159588
C32	C	0.000223	-0.498970	-0.158527
C33	C	0.000226	-0.471222	-0.094695
C34	C	0.000199	-0.515927	-0.031920
C35	C	0.000182	-0.588372	-0.032983
C36	C	0.048774	-0.365151	-0.042334
C37	C	0.048797	-0.292707	-0.041273
C38	C	0.000276	-0.247779	-0.091413
C39	C	-0.048256	-0.275302	-0.142625
C40	C	-0.048274	-0.347747	-0.143688
C41	C	0.000245	-0.392669	-0.093535
C42	C	0.000307	-0.124528	-0.153033
C43	C	0.000311	-0.052080	-0.151970
C44	C	0.000296	-0.069040	-0.025360
C45	C	0.000284	-0.141486	-0.026426
C46	C	0.000293	-0.169225	-0.090264
C47	C	0.000268	-0.814757	-0.219485
C48	C	0.000281	-0.815887	-0.296588
C49	C	0.000237	-0.887331	0.156327
C50	C	0.000250	-0.886271	0.228775
C51	C	0.000233	-0.822438	0.256521
C52	C	0.000224	-0.759662	0.211815
C53	C	0.000220	-0.760724	0.139369
C54	C	-0.048300	-0.770069	0.362628
C55	C	-0.048300	-0.769009	0.435072
C56	C	0.000250	-0.819159	0.479968
C57	C	0.048791	-0.870381	0.452411
C58	C	0.048786	-0.871443	0.379965
C59	C	0.000238	-0.821279	0.335076
C60	C	0.000279	-0.880783	0.603221
C61	C	0.000297	-0.879720	0.675670
C62	C	0.000263	-0.753109	0.658708
C63	C	0.000253	-0.754173	0.586262
C64	C	0.000257	-0.818012	0.558522
H65	H	-0.381801	-0.888979	-0.023750
H66	H	-0.223672	-0.724160	-0.188448
N67	N	0.101158	-0.924479	0.500823
H68	H	0.093801	-0.916034	0.550898
H69	H	0.161684	-0.920902	0.489996
N70	N	0.000292	-0.039118	0.043486
H71	H	0.051644	-0.011772	0.049059
H72	H	0.000246	-0.078465	0.083048
N73	N	0.000259	-0.189698	0.041273
H74	H	0.000262	-0.161130	0.081873
H75	H	0.051599	-0.222462	0.045899
N76	N	0.000186	-0.693019	0.091156
H77	H	0.000179	-0.703378	0.041053
H78	H	0.051527	-0.667501	0.102409
H79	H	0.000253	-0.701135	0.681299
H80	H	-0.617705	-0.751464	-0.161200
H81	H	0.000243	-0.939314	0.133747
H82	H	-0.514562	-0.758476	-0.154188
H83	H	-0.381853	-0.717053	-0.195564
N84	N	0.000305	-0.947423	0.723884
H85	H	0.051657	-0.952127	0.756618
H86	H	0.000273	-0.987982	0.695265
N87	N	0.000286	-0.003888	-0.219688
H88	H	0.051623	-0.015115	-0.245257
H89	H	0.000244	0.046205	-0.209297
H90	H	0.000286	-0.932764	0.580635
N91	N	-0.212087	-0.909127	-0.003601
H92	H	-0.227227	-0.957718	-0.012153
H93	H	-0.227296	-0.900539	0.044970
N94	N	0.000234	-0.686472	0.538047
H95	H	0.000225	-0.645872	0.566615
H96	H	-0.051118	-0.681839	0.505320
N97	N	-0.606126	-0.936439	0.023648
H98	H	-0.621276	-0.985024	0.015087
H99	H	-0.621338	-0.927855	0.072219
H100	H	-0.087767	-0.238723	-0.183453
H101	H	-0.484948	-0.881966	-0.030760
N102	N	0.000196	-0.690810	0.241732
H103	H	0.051536	-0.665636	0.227719
H104	H	0.000165	-0.699715	0.294403
H105	H	0.088318	-0.270304	0.000424
N106	N	0.101108	-0.413606	0.011751
H107	H	0.131860	-0.385179	0.044349
H108	H	0.142553	-0.442125	-0.012388
H109	H	-0.087820	-0.727299	0.457503
N110	N	0.000230	-0.601336	-0.228438
H111	H	0.000248	-0.562024	-0.268040
H112	H	-0.051123	-0.628691	-0.233952
N113	N	0.000193	-0.486005	0.036929
H114	H	0.000208	-0.433329	0.028079
H115	H	0.051532	-0.504705	0.066698
H116	H	0.000239	-0.462572	-0.209641
N117	N	-0.100618	-0.377435	-0.198916
H118	H	-0.131356	-0.337986	-0.230520
H119	H	-0.142076	-0.409030	-0.175656
H120	H	-0.087840	-0.729229	0.326078
N121	N	0.000313	-0.154454	-0.221883
H122	H	0.000322	-0.115143	-0.261486
H123	H	-0.051040	-0.181811	-0.227388
H124	H	-0.775834	-0.916289	0.003494
H125	H	0.000164	-0.624764	0.018131
N126	N	-0.787420	-0.731327	-0.181356
H127	H	-0.772226	-0.739849	-0.229950
H128	H	-0.772271	-0.682757	-0.172740
N129	N	0.000259	-0.953970	0.277000
H130	H	0.051608	-0.984155	0.270405
H131	H	-0.051120	-0.979452	0.265778
N132	N	0.101137	-0.926682	0.350241
H133	H	0.131896	-0.958294	0.389670
H134	H	0.142576	-0.903431	0.318615
