data_functionalizedCrystal
_audit_creation_method	'MofGen! by Chris Wilmer'
_symmetry_space_group_name_H-M	'P1'
_symmetry_Int_Tables_number	1
_symmetry_cell_setting	triclinic
loop_
_symmetry_equiv_pos_as_xyz
  x,y,z
_cell_length_a	19.077269
_cell_length_b	12.759399
_cell_length_c	12.759393
_cell_angle_alpha	89.968715
_cell_angle_beta	92.277346
_cell_angle_gamma	87.718536
loop_
_atom_site_label
_atom_site_type_symbol
_atom_site_fract_x
_atom_site_fract_y
_atom_site_fract_z
Zn1	Zn	1.076008	-0.482719	-0.529501
Zn2	Zn	1.075935	-0.658434	-0.353827
Zn3	Zn	0.958310	-0.475717	-0.360894
Zn4	Zn	0.958300	-0.651299	-0.536518
O5	O	1.017138	-0.567042	-0.445185
O6	O	1.174486	-0.511945	-0.500304
O7	O	1.060306	-0.634251	-0.207745
O8	O	0.973957	-0.329627	-0.383281
O9	O	1.174433	-0.641041	-0.371236
O10	O	1.060429	-0.334772	-0.507157
O11	O	0.973887	-0.500010	-0.212937
O12	O	0.859821	-0.493092	-0.390085
O13	O	0.973941	-0.628882	-0.682606
O14	O	0.859814	-0.622092	-0.519115
O15	O	1.060420	-0.505027	-0.677452
O16	O	1.060296	-0.804507	-0.378040
O17	O	0.973871	-0.799265	-0.512262
C18	C	0.834281	-0.556059	-0.456129
C19	C	0.756053	-0.551385	-0.460836
C20	C	1.017094	-0.840007	-0.445167
C21	C	1.017139	-0.956786	-0.445191
C22	C	0.972172	-1.118684	-0.515056
C23	C	0.972128	-1.008958	-0.515033
C24	C	1.062202	-1.014348	-0.375373
C25	C	1.062248	-1.124073	-0.375402
C26	C	0.920166	-1.115571	-0.595684
C27	C	0.920123	-1.005844	-0.595661
C28	C	0.719271	-0.616294	-0.395748
C29	C	0.645768	-0.611903	-0.400185
C30	C	0.609049	-0.542597	-0.469704
C31	C	0.645836	-0.477685	-0.534798
C32	C	0.719338	-0.482082	-0.530366
C33	C	0.389226	-0.522255	-0.490180
C34	C	0.315719	-0.517860	-0.494604
C35	C	0.315657	-0.652080	-0.359992
C36	C	0.389160	-0.656466	-0.355562
C37	C	0.425940	-0.591559	-0.420660
N38	N	0.533917	-0.538104	-0.474238
N39	N	0.501071	-0.596057	-0.416131
C40	C	1.200710	-0.578070	-0.434199
C41	C	1.278937	-0.582769	-0.429517
C42	C	1.017188	-0.566939	-0.719215
C43	C	1.017209	-0.566895	-0.835991
C44	C	1.017202	-0.293013	-0.445225
C45	C	1.017229	-0.176238	-0.445242
C46	C	1.062244	-0.502398	-0.888170
C47	C	1.062261	-0.502361	-0.997893
C48	C	0.972204	-0.631328	-1.003248
C49	C	0.972184	-0.631359	-0.893527
C50	C	1.114240	-0.427943	-0.885079
C51	C	1.114257	-0.427907	-0.994802
C52	C	1.017130	-0.567072	-0.172218
C53	C	1.017245	-0.566828	-0.055435
H54	H	1.098944	-1.170930	-0.318561
H55	H	0.285702	-0.704925	-0.306995
O56	O	0.937687	-1.151999	-0.691704
C57	C	1.005075	-1.118987	-0.714559
H58	H	1.035493	-1.101333	-0.638319
H59	H	1.034323	-1.183735	-0.758686
H60	H	0.999900	-1.045202	-0.765154
H61	H	0.749285	-0.429226	-0.583366
H62	H	1.098855	-0.971864	-0.318512
H63	H	0.868415	-1.146595	-0.569578
O64	O	0.943468	-0.966483	-0.686413
C65	C	1.003345	-0.907832	-0.664173
H66	H	1.029273	-0.935052	-0.586295
H67	H	1.042041	-0.919934	-0.729320
H68	H	0.987139	-0.821083	-0.658920
H69	H	0.285824	-0.461415	-0.551212
O70	O	1.090900	-0.334277	-1.036701
C71	C	1.021602	-0.311692	-1.006641
H72	H	1.011535	-0.356655	-0.931844
H73	H	1.014103	-0.223925	-0.991882
H74	H	0.983134	-0.336230	-1.071887
O75	O	0.855040	-0.966637	-0.573590
C76	C	0.805774	-1.000590	-0.650264
H77	H	0.827174	-1.075208	-0.688733
H78	H	0.754457	-1.017175	-0.611725
H79	H	0.795851	-0.936843	-0.712331
O80	O	0.754907	-0.683768	-0.328332
C81	C	0.736927	-0.787429	-0.352185
H82	H	0.716753	-0.791620	-0.437324
H83	H	0.785255	-0.842216	-0.340135
H84	H	0.694238	-0.812273	-0.298385
H85	H	0.615824	-0.664758	-0.347184
H86	H	1.168766	-0.452967	-1.021314
O87	O	0.424718	-0.723882	-0.288002
C88	C	0.376491	-0.780211	-0.231482
H89	H	0.324113	-0.780775	-0.277668
H90	H	0.397717	-0.864242	-0.218844
H91	H	0.368645	-0.741168	-0.152233
H92	H	0.419164	-0.469404	-0.543189
H93	H	0.615933	-0.421260	-0.591407
O94	O	0.928501	-0.694154	-0.842888
C95	C	0.943835	-0.799784	-0.868773
H96	H	1.000065	-0.808480	-0.895558
H97	H	0.937731	-0.851341	-0.796969
H98	H	0.906107	-0.824945	-0.934720
O99	O	0.928540	-0.693920	-1.059300
C100	C	0.938199	-0.680042	-1.167333
H101	H	0.992524	-0.648892	-1.179078
H102	H	0.933413	-0.758437	-1.209301
H103	H	0.896471	-0.621577	-1.200978
H104	H	1.099659	-0.345705	-0.856197
O105	O	1.175993	-0.466581	-0.840889
C106	C	1.188319	-0.570759	-0.874326
H107	H	1.157821	-0.583900	-0.951537
H108	H	1.246814	-0.585497	-0.886046
H109	H	1.170290	-0.627119	-0.812436
