data_functionalizedCrystal
_audit_creation_method	'MofGen! by Chris Wilmer'
_symmetry_space_group_name_H-M	'P1'
_symmetry_Int_Tables_number	1
_symmetry_cell_setting	triclinic
loop_
_symmetry_equiv_pos_as_xyz
  x,y,z
_cell_length_a	12.759394
_cell_length_b	18.215407
_cell_length_c	18.215399
_cell_angle_alpha	89.980167
_cell_angle_beta	89.974724
_cell_angle_gamma	90.015285
loop_
_atom_site_label
_atom_site_type_symbol
_atom_site_fract_x
_atom_site_fract_y
_atom_site_fract_z
Zn1	Zn	-0.418265	1.125123	-0.416130
Zn2	Zn	-0.593962	1.125053	-0.293069
Zn3	Zn	-0.418299	1.002056	-0.293077
Zn4	Zn	-0.593904	1.002043	-0.416094
O5	O	-0.506107	1.063569	-0.354592
O6	O	-0.441581	1.228098	-0.399817
O7	O	-0.570699	1.108713	-0.190086
O8	O	-0.271273	1.018416	-0.309418
O9	O	-0.570666	1.228047	-0.309405
O10	O	-0.271248	1.108833	-0.399825
O11	O	-0.441640	1.018348	-0.190092
O12	O	-0.441583	0.899070	-0.309384
O13	O	-0.570566	1.018394	-0.519083
O14	O	-0.570599	0.899061	-0.399764
O15	O	-0.441525	1.108821	-0.519109
O16	O	-0.740975	1.108701	-0.309370
O17	O	-0.740933	1.018326	-0.399756
C18	C	-0.506089	0.872363	-0.354571
C19	C	-0.506107	0.790564	-0.354580
C20	C	-0.573391	0.602384	-0.401582
C21	C	-0.573395	0.525526	-0.401591
C22	C	-0.438843	0.525506	-0.307619
C23	C	-0.438835	0.602363	-0.307614
C24	C	-0.506115	0.640800	-0.354594
C25	C	-0.506126	0.487084	-0.354608
C26	C	-0.506129	0.403751	-0.354618
C27	C	-0.506111	0.724139	-0.354586
C28	C	-0.779075	1.063525	-0.354575
C29	C	-0.895852	1.063573	-0.354592
C30	C	-0.895843	1.157751	-0.260543
C31	C	-0.950699	1.204859	-0.213528
C32	C	-1.060421	1.204903	-0.213548
C33	C	-1.115289	1.157834	-0.260590
C34	C	-1.060432	1.110726	-0.307605
C35	C	-0.950708	1.110686	-0.307579
C36	C	-1.060441	1.016553	-0.401656
C37	C	-0.950719	1.016505	-0.401634
C38	C	-1.115308	0.969484	-0.448698
C39	C	-1.060452	0.922371	-0.495711
C40	C	-0.950724	0.922329	-0.495689
C41	C	-0.895863	0.969397	-0.448649
C42	C	-0.232074	1.063633	-0.354626
C43	C	-0.115297	1.063661	-0.354641
C44	C	-0.506126	1.255522	-0.354614
C45	C	-0.506134	1.337321	-0.354623
C46	C	-0.506035	1.063614	-0.546545
C47	C	-0.506004	1.063633	-0.628344
C48	C	-0.438750	1.110735	-0.816553
C49	C	-0.438719	1.110744	-0.893412
C50	C	-0.573096	1.016583	-0.893373
C51	C	-0.573121	1.016571	-0.816516
C52	C	-0.505949	1.063651	-0.778108
C53	C	-0.505894	1.063672	-0.931824
C54	C	-0.505861	1.063681	-1.015158
C55	C	-0.505980	1.063641	-0.694769
C56	C	-0.506104	1.063567	-0.163386
C57	C	-0.505839	1.063690	-0.081588
H58	H	-0.628176	0.494251	-0.439853
C59	C	-0.647037	0.964773	-0.774217
C60	C	-0.729533	0.996631	-0.721364
C61	C	-0.803438	0.944832	-0.679063
C62	C	-0.794848	0.861174	-0.689615
C63	C	-0.712349	0.829311	-0.742470
C64	C	-0.638444	0.881111	-0.784771
H65	H	-0.735895	1.058564	-0.713551
H66	H	-0.864509	0.968420	-0.639936
H67	H	-0.849557	0.822829	-0.658301
H68	H	-0.705987	0.767379	-0.750283
H69	H	-0.577373	0.857523	-0.823898
H70	H	-0.628173	0.633678	-0.439838
H71	H	-0.806522	0.969362	-0.448621
C72	C	-0.364854	1.162515	-0.774303
C73	C	-0.290931	1.214303	-0.816596
C74	C	-0.217030	1.266082	-0.774349
C75	C	-0.217053	1.266075	-0.689809
C76	C	-0.290979	1.214285	-0.647511
C77	C	-0.364879	1.162506	-0.689758
H78	H	-0.290912	1.214310	-0.879182
H79	H	-0.162306	1.304420	-0.805661
H80	H	-0.162347	1.304405	-0.658535
H81	H	-0.290998	1.214278	-0.584925
H82	H	-0.419604	1.124168	-0.658447
H83	H	-0.384067	0.494201	-0.269369
C84	C	-0.364831	0.644627	-0.255921
C85	C	-0.290838	0.602350	-0.204236
C86	C	-0.216838	0.644614	-0.152546
C87	C	-0.216830	0.729154	-0.152542
C88	C	-0.290826	0.771435	-0.204229
C89	C	-0.364827	0.729171	-0.255919
H90	H	-0.290841	0.539765	-0.204237
H91	H	-0.162061	0.613315	-0.114284
H92	H	-0.162051	0.760441	-0.114278
H93	H	-0.290823	0.834021	-0.204228
H94	H	-0.419604	0.760471	-0.294181
C95	C	-0.890345	1.256635	-0.161785
C96	C	-0.769655	1.256593	-0.161757
C97	C	-0.709305	1.308372	-0.110018
C98	C	-0.769645	1.360192	-0.058306
C99	C	-0.890342	1.360236	-0.058331
C100	C	-0.950692	1.308457	-0.110071
H101	H	-0.724981	1.218231	-0.200039
H102	H	-0.619957	1.308339	-0.109999
H103	H	-0.724970	1.398521	-0.020005
H104	H	-0.935015	1.398598	-0.020049
H105	H	-1.040040	1.308490	-0.110090
C106	C	-1.120771	1.256719	-0.161831
C107	C	-1.105787	1.250747	-0.078161
C108	C	-1.166138	1.302562	-0.026444
C109	C	-1.241474	1.360349	-0.058397
C110	C	-1.256462	1.366324	-0.142072
C111	C	-1.196111	1.314509	-0.193789
H112	H	-1.050015	1.207967	-0.054503
H113	H	-1.155042	1.298139	0.035498
H114	H	-1.286149	1.398706	-0.020113
H115	H	-1.312233	1.409104	-0.165730
H116	H	-1.207206	1.318932	-0.255730
H117	H	-0.383997	1.149083	-0.924711
C118	C	-1.120805	0.870603	-0.547455
C119	C	-1.241495	0.870656	-0.547484
C120	C	-1.301853	0.818887	-0.599229
C121	C	-1.241521	0.767065	-0.650944
C122	C	-1.120824	0.767010	-0.650916
C123	C	-1.060466	0.818779	-0.599172
H124	H	-1.286163	0.909019	-0.509200
H125	H	-1.391201	0.818928	-0.599249
H126	H	-1.286201	0.728743	-0.689248
H127	H	-1.076156	0.728647	-0.689200
H128	H	-0.971118	0.818739	-0.599151
H129	H	-0.806502	1.157711	-0.260513
C130	C	-0.646991	0.964808	-0.935630
C131	C	-0.729455	0.996700	-0.988458
C132	C	-0.803355	0.944928	-1.030716
C133	C	-0.794790	0.861264	-1.020146
C134	C	-0.712323	0.829368	-0.967316
C135	C	-0.638423	0.881140	-0.925058
H136	H	-0.735798	1.058637	-0.996284
H137	H	-0.864403	0.968540	-1.069824
H138	H	-0.849495	0.822940	-1.051428
H139	H	-0.705980	0.767432	-0.959490
H140	H	-0.577375	0.857528	-0.885950
H141	H	-1.204630	1.157880	-0.260608
H142	H	-1.204649	0.969526	-0.448714
H143	H	-0.906065	0.883971	-0.533977
