data_functionalizedCrystal
_audit_creation_method	'MofGen! by Chris Wilmer'
_symmetry_space_group_name_H-M	'P1'
_symmetry_Int_Tables_number	1
_symmetry_cell_setting	triclinic
loop_
_symmetry_equiv_pos_as_xyz
  x,y,z
_cell_length_a	19.121241
_cell_length_b	19.121063
_cell_length_c	12.759393
_cell_angle_alpha	92.403460
_cell_angle_beta	87.534413
_cell_angle_gamma	95.003121
loop_
_atom_site_label
_atom_site_type_symbol
_atom_site_fract_x
_atom_site_fract_y
_atom_site_fract_z
Zn1	Zn	1.063771	-0.234283	-0.676976
Zn2	Zn	1.058652	-0.351969	-0.508458
Zn3	Zn	0.946096	-0.239329	-0.494105
Zn4	Zn	0.941046	-0.356923	-0.676887
O5	O	1.002391	-0.295626	-0.589106
O6	O	1.161558	-0.245710	-0.660666
O7	O	1.043692	-0.337065	-0.359533
O8	O	0.965961	-0.140194	-0.512394
O9	O	1.157797	-0.332173	-0.536856
O10	O	1.052416	-0.136487	-0.646749
O11	O	0.960998	-0.254309	-0.348988
O12	O	0.846960	-0.259113	-0.512307
O13	O	0.957355	-0.340616	-0.823919
O14	O	0.843250	-0.345508	-0.646597
O15	O	1.047520	-0.250513	-0.823985
O16	O	1.038796	-0.451091	-0.536769
O17	O	0.952392	-0.454731	-0.660514
C18	C	0.819574	-0.303396	-0.577885
C19	C	0.741363	-0.306737	-0.573111
C20	C	0.706575	-0.263362	-0.635436
C21	C	0.633088	-0.266498	-0.630941
C22	C	0.594390	-0.313013	-0.564125
C23	C	0.629183	-0.356391	-0.501793
C24	C	0.702669	-0.353251	-0.506284
C25	C	0.372412	-0.324739	-0.547331
C26	C	0.298921	-0.327877	-0.542848
C27	C	0.302831	-0.237983	-0.671994
C28	C	0.376318	-0.234850	-0.676484
C29	C	0.411105	-0.278225	-0.614148
C30	C	0.519274	-0.316221	-0.559531
C31	C	0.486219	-0.275013	-0.618737
C32	C	0.994510	-0.478441	-0.600213
C33	C	0.991202	-0.556648	-0.605004
C34	C	1.034670	-0.591470	-0.542885
C35	C	1.031563	-0.664953	-0.547397
C36	C	0.984985	-0.703613	-0.614023
C37	C	0.941516	-0.668786	-0.676149
C38	C	0.944627	-0.595304	-0.671642
C39	C	0.973344	-0.925577	-0.630857
C40	C	0.970236	-0.999064	-0.635358
C41	C	1.060284	-0.995226	-0.506607
C42	C	1.063387	-0.921743	-0.502101
C43	C	1.019921	-0.886922	-0.564231
C44	C	0.981807	-0.778725	-0.618634
C45	C	1.023103	-0.811812	-0.559625
C46	C	1.185923	-0.287826	-0.600372
C47	C	1.264133	-0.284502	-0.605173
C48	C	1.002445	-0.295554	-0.863139
C49	C	1.002469	-0.295524	-0.979915
C50	C	1.010323	-0.112096	-0.577980
C51	C	1.013703	-0.033886	-0.573239
C52	C	1.049437	-0.248573	-1.144543
C53	C	1.049422	-0.248601	-1.034820
C54	C	0.955531	-0.342427	-1.034740
C55	C	0.955550	-0.342402	-1.144462
C56	C	1.002380	-0.295645	-0.316140
C57	C	1.002502	-0.295471	-0.199360
H58	H	0.400726	-0.360059	-0.496574
C59	C	1.088828	-0.128001	-0.995943
C60	C	1.101011	-0.197041	-0.974571
H61	H	1.120676	-0.096169	-0.958744
H62	H	1.095555	-0.121279	-1.069139
H63	H	1.041990	-0.119730	-0.974422
H64	H	1.147847	-0.205314	-0.996099
H65	H	1.094289	-0.203766	-0.901358
H66	H	1.087668	-0.210358	-1.189238
C67	C	1.123368	-0.595064	-0.416081
C68	C	1.085870	-0.548978	-0.469647
H69	H	1.154981	-0.568831	-0.370872
H70	H	1.091510	-0.625075	-0.375739
H71	H	1.149054	-0.622533	-0.465307
H72	H	1.060180	-0.521512	-0.420420
H73	H	1.117732	-0.518955	-0.509991
H74	H	1.066958	-0.693301	-0.496813
C75	C	0.941656	-0.437509	-0.916462
C76	C	0.903925	-0.394006	-0.974379
H77	H	0.909795	-0.469348	-0.879192
H78	H	0.971148	-0.463113	-0.962780
H79	H	0.969606	-0.409569	-0.868122
H80	H	0.875978	-0.421946	-1.022724
H81	H	0.874421	-0.368401	-0.928056
C82	C	1.151452	-1.073749	-0.503012
C83	C	1.108073	-1.033497	-0.438331
H84	H	1.180962	-1.097371	-0.460860
H85	H	1.123267	-1.107290	-0.543318
H86	H	1.179557	-1.043881	-0.548711
H87	H	1.079965	-1.063366	-0.392637
H88	H	1.136262	-0.999953	-0.398007
H89	H	0.597669	-0.394261	-0.447385
H90	H	0.932315	-1.030539	-0.689631
C91	C	0.916126	-0.463002	-1.183344
C92	C	0.903953	-0.393959	-1.204719
H93	H	0.884272	-0.494830	-1.220539
H94	H	0.962956	-0.471280	-1.204857
H95	H	0.909394	-0.469721	-1.110137
H96	H	0.910691	-0.387238	-1.277924
H97	H	0.857112	-0.385678	-1.183211
H98	H	0.517731	-0.237137	-0.673133
H99	H	0.604767	-0.231178	-0.681695
C100	C	0.703051	-0.174819	-0.762635
C101	C	0.749109	-0.212230	-0.708884
H102	H	0.729310	-0.143248	-0.807973
H103	H	0.673083	-0.206731	-0.802858
H104	H	0.675533	-0.149095	-0.713523
H105	H	0.776624	-0.237958	-0.757995
H106	H	0.779089	-0.180313	-0.668658
C107	C	1.161536	-0.834997	-0.488361
C108	C	1.114587	-0.879243	-0.428869
H109	H	1.193139	-0.808756	-0.443146
H110	H	1.187226	-0.862471	-0.537560
H111	H	1.136083	-0.803749	-0.524711
H112	H	1.140040	-0.910496	-0.392525
H113	H	1.088894	-0.851767	-0.379652
H114	H	0.407821	-0.196975	-0.730896
H115	H	0.274499	-0.202669	-0.722743
C116	C	0.884007	-0.936764	-0.758544
C117	C	0.925553	-0.887309	-0.699128
H118	H	0.854496	-0.913135	-0.800684
H119	H	0.913437	-0.964067	-0.802412
H120	H	0.855904	-0.966621	-0.712827
H121	H	0.953660	-0.857456	-0.744845
H122	H	0.896120	-0.859994	-0.655256
H123	H	0.267414	-0.365760	-0.488438
C124	C	0.896758	-0.783132	-0.740217
C125	C	0.890314	-0.711280	-0.749383
H126	H	0.865143	-0.809364	-0.785424
H127	H	0.943516	-0.793113	-0.759291
H128	H	0.885974	-0.795650	-0.669720
H129	H	0.901104	-0.698762	-0.819879
H130	H	0.843546	-0.701294	-0.730315
C131	C	0.691427	-0.442431	-0.378191
C132	C	0.740910	-0.400935	-0.437781
H133	H	0.715037	-0.471871	-0.335904
H134	H	0.664074	-0.412968	-0.334462
H135	H	0.661618	-0.470603	-0.423800
H136	H	0.770716	-0.372759	-0.392173
H137	H	0.768275	-0.430401	-0.481515
H138	H	0.487758	-0.354095	-0.505129
C139	C	0.855306	-0.606474	-0.799357
C140	C	0.896847	-0.557025	-0.739926
H141	H	0.825809	-0.582842	-0.841513
H142	H	0.884739	-0.633784	-0.843210
H143	H	0.827189	-0.636326	-0.753650
H144	H	0.924968	-0.527176	-0.785634
H145	H	0.867411	-0.529703	-0.696070
C146	C	1.036411	-0.728828	-0.413860
C147	C	1.074298	-0.769319	-0.486386
H148	H	1.068016	-0.702595	-0.368640
H149	H	1.010975	-0.697580	-0.450220
H150	H	1.004554	-0.758854	-0.373521
H151	H	1.106151	-0.739292	-0.526730
H152	H	1.099746	-0.800571	-0.450023
H153	H	0.943882	-0.810210	-0.672879
