data_functionalizedCrystal
_audit_creation_method	'MofGen! by Chris Wilmer'
_symmetry_space_group_name_H-M	'P1'
_symmetry_Int_Tables_number	1
_symmetry_cell_setting	triclinic
loop_
_symmetry_equiv_pos_as_xyz
  x,y,z
_cell_length_a	19.288864
_cell_length_b	13.262508
_cell_length_c	12.376774
_cell_angle_alpha	87.018943
_cell_angle_beta	102.710901
_cell_angle_gamma	83.814836
loop_
_atom_site_label
_atom_site_type_symbol
_atom_site_fract_x
_atom_site_fract_y
_atom_site_fract_z
O1	O	0.928481	0.140665	0.051117
O2	O	0.725648	0.157336	0.045914
O3	O	0.837783	0.004642	0.092899
O4	O	0.816346	0.293358	0.004133
O5	O	0.815241	-0.029193	-0.084712
O6	O	0.703106	0.123500	-0.131697
O7	O	0.905939	0.106829	-0.126494
Zn8	Zn	0.800944	0.109793	-0.157295
Zn9	Zn	0.830644	0.154372	0.076715
O10	O	0.793804	0.259523	-0.173479
C11	C	0.688517	0.139879	-0.042736
C12	C	0.611465	0.138262	-0.042268
C13	C	0.563745	0.227863	-0.069799
C14	C	0.491351	0.226352	-0.069321
C15	C	0.466682	0.135238	-0.041291
C16	C	0.514411	0.045624	-0.013763
C17	C	0.586802	0.047136	-0.014252
C18	C	0.368741	0.075470	0.042992
C19	C	0.296351	0.073963	0.043487
C20	C	0.243403	0.130569	-0.039787
C21	C	0.262853	0.188701	-0.123546
C22	C	0.335244	0.190213	-0.124035
C23	C	0.388187	0.133588	-0.040758
C24	C	0.117184	0.218536	-0.066803
C25	C	0.044788	0.217019	-0.066331
C26	C	0.067851	0.036291	-0.010761
C27	C	0.140244	0.037808	-0.011245
C28	C	0.164906	0.128935	-0.039261
C29	C	0.827384	-0.049213	0.015451
C30	C	0.829972	-0.159273	0.049294
C31	C	0.788111	-0.543304	-0.242583
C32	C	0.785674	-0.439896	-0.274382
C33	C	0.796748	-0.369736	-0.193465
C34	C	0.810260	-0.402992	-0.080745
C35	C	0.812691	-0.506409	-0.048943
C36	C	0.821329	-0.332841	0.000174
C37	C	0.834840	-0.366098	0.112895
C38	C	0.837272	-0.469505	0.144691
C39	C	0.826198	-0.539666	0.063775
C40	C	0.818897	-0.229424	-0.031627
C41	C	0.843478	-0.192529	0.162012
C42	C	0.845915	-0.295937	0.193811
C43	C	0.943070	0.124286	-0.037842
C44	C	1.020124	0.125904	-0.038302
C45	C	0.804204	0.313378	-0.096029
C46	C	0.801617	0.423440	-0.129865
N47	N	0.780679	0.079368	-0.317001
C48	C	0.733618	0.008729	-0.354471
C49	C	0.719425	-0.012565	-0.466265
C50	C	0.752296	0.036771	-0.540598
C51	C	0.799362	0.107406	-0.503127
C52	C	0.813552	0.128709	-0.391324
C53	C	0.832231	0.156751	-0.577451
C54	C	0.879297	0.227386	-0.539980
C55	C	0.893485	0.248684	-0.428187
C56	C	0.860613	0.199348	-0.353854
C57	C	0.818041	0.135448	-0.689254
C58	C	0.897975	0.255428	-0.726107
C59	C	0.912168	0.276722	-0.614313
N60	N	0.850914	0.184789	0.236423
H61	H	0.625657	-0.025830	0.008168
O62	O	0.794392	-0.269328	-0.224540
C63	C	0.777372	-0.141167	-0.376424
C64	C	0.780034	-0.254912	-0.341380
H65	H	0.765749	-0.129472	-0.470892
H66	H	0.831078	-0.114166	-0.339361
H67	H	0.733267	-0.095641	-0.344954
H68	H	0.824106	-0.300519	-0.372841
H69	H	0.726299	-0.281833	-0.378430
H70	H	0.872170	0.216678	-0.262819
O71	O	0.930028	0.303323	-0.798165
C72	C	1.041205	0.335067	-0.844145
C73	C	1.005004	0.280793	-0.762430
H74	H	1.101828	0.316854	-0.815296
H75	H	1.025633	0.420740	-0.847204
H76	H	1.022945	0.307728	-0.930485
H77	H	1.023245	0.308048	-0.676049
H78	H	1.020576	0.195127	-0.759467
H79	H	0.411848	0.029375	0.110811
O80	O	0.354098	0.246544	-0.205532
C81	C	0.345664	0.276467	-0.401968
C82	C	0.324274	0.212585	-0.309776
H83	H	0.321548	0.249049	-0.486272
H84	H	0.406494	0.267807	-0.388106
H85	H	0.324743	0.359897	-0.399774
H86	H	0.345146	0.129131	-0.311915
H87	H	0.263441	0.221331	-0.323670
H88	H	0.779090	-0.600436	-0.308453
O89	O	0.211513	0.243931	-0.204373
C90	C	0.162890	0.410256	-0.293414
C91	C	0.221028	0.347779	-0.201818
H92	H	0.170573	0.494226	-0.291394
H93	H	0.107748	0.399385	-0.278810
H94	H	0.167340	0.383389	-0.377910
H95	H	0.216646	0.374605	-0.117284
H96	H	0.276146	0.358653	-0.216519
H97	H	0.828185	-0.623871	0.089660
O98	O	0.141021	0.307127	-0.094102
C99	C	0.110515	0.486233	-0.149107
C100	C	0.083424	0.385971	-0.118237
H101	H	0.063965	0.550009	-0.168606
H102	H	0.134349	0.477363	-0.225089
H103	H	0.153306	0.505564	-0.076393
H104	H	0.040610	0.366582	-0.190880
H105	H	0.059634	0.394893	-0.042219
O106	O	0.939243	0.317298	-0.391960
C107	C	1.016996	0.434096	-0.440328
C108	C	0.965204	0.356398	-0.481494
H109	H	1.037990	0.465747	-0.512700
H110	H	1.063802	0.395207	-0.372980
H111	H	0.987497	0.498914	-0.404833
H112	H	0.994641	0.291561	-0.517045
H113	H	0.918401	0.395363	-0.548794
O114	O	0.854329	-0.124476	0.240708
C115	C	0.935134	-0.072670	0.399972
C116	C	0.922945	-0.149846	0.310954
H117	H	0.990613	-0.093142	0.456775
H118	H	0.892794	-0.074616	0.451167
H119	H	0.931030	0.006935	0.357817
H120	H	0.927062	-0.229488	0.353017
H121	H	0.965283	-0.147811	0.259766
H122	H	0.583820	0.302066	-0.092610
O123	O	0.772461	-0.407705	-0.383910
C124	C	0.690154	-0.396068	-0.562697
C125	C	0.705028	-0.432591	-0.438678
H126	H	0.635629	-0.416155	-0.607009
H127	H	0.733450	-0.434820	-0.601369
H128	H	0.690357	-0.310114	-0.571508
H129	H	0.704814	-0.518535	-0.429768
H130	H	0.661730	-0.393764	-0.400064
O131	O	0.772419	0.066695	-0.725553
C132	C	0.746937	-0.106586	-0.708433
C133	C	0.798675	-0.028827	-0.667243
H134	H	0.768138	-0.183828	-0.661292
H135	H	0.742446	-0.113429	-0.801090
H136	H	0.691889	-0.080040	-0.693358
H137	H	0.853749	-0.055313	-0.682242
H138	H	0.803104	-0.021994	-0.574599
O139	O	0.738441	0.016247	-0.649243
C140	C	0.692857	0.082829	-0.839566
C141	C	0.708494	0.106218	-0.716566
H142	H	0.668656	0.155560	-0.894032
H143	H	0.653539	0.023917	-0.853657
H144	H	0.744854	0.051697	-0.862069
H145	H	0.656536	0.137390	-0.693979
H146	H	0.747841	0.165093	-0.702540
O147	O	0.850445	-0.501649	0.254236
C148	C	0.874557	-0.454136	0.442943
C149	C	0.859654	-0.417599	0.318925
H150	H	0.881992	-0.386198	0.495278
H151	H	0.925247	-0.510871	0.465587
H152	H	0.827408	-0.492388	0.459771
H153	H	0.906760	-0.379301	0.302006
H154	H	0.808939	-0.360911	0.296343
O155	O	0.673718	-0.081238	-0.502473
C156	C	0.595897	-0.197951	-0.454145
C157	C	0.647660	-0.120214	-0.412983
H158	H	0.574803	-0.229470	-0.381819
H159	H	0.625368	-0.262860	-0.489552
H160	H	0.549158	-0.159012	-0.521569
H161	H	0.694410	-0.159063	-0.345526
H162	H	0.618136	-0.055311	-0.377646
H163	H	0.950490	0.334235	-0.583787
H164	H	0.047775	-0.037883	0.012128
H165	H	0.706856	-0.031428	-0.293942
H166	H	0.807890	-0.202356	-0.123405
O167	O	0.445089	0.313496	-0.096037
C168	C	0.429844	0.492905	-0.151235
C169	C	0.482312	0.394293	-0.120983
H170	H	0.459915	0.558251	-0.171435
H171	H	0.404849	0.510933	-0.078060
H172	H	0.385907	0.482512	-0.226689
H173	H	0.526289	0.404610	-0.045559
H174	H	0.507252	0.376297	-0.194220
H175	H	0.179100	-0.035153	0.011179
O176	O	-0.001623	0.304000	-0.093253
C177	C	-0.108467	0.389638	-0.216914
C178	C	-0.055952	0.291079	-0.186565
H179	H	-0.152413	0.379218	-0.292345
H180	H	-0.078447	0.455052	-0.237098
H181	H	-0.133443	0.407589	-0.143704
H182	H	-0.030960	0.273033	-0.259733
H183	H	-0.086008	0.225723	-0.166340
H184	H	0.280521	0.026633	0.111691
H185	H	0.856916	-0.323030	0.285590
O186	O	0.490554	-0.042918	0.013631
C187	C	0.499789	-0.180283	0.153315
C188	C	0.526883	-0.080028	0.122430
H189	H	0.529138	-0.210306	0.241288
H190	H	0.510279	-0.238766	0.092660
H191	H	0.439846	-0.165958	0.148880
H192	H	0.586828	-0.094256	0.126875
H193	H	0.516338	-0.021578	0.183088
