data_functionalizedCrystal
_audit_creation_method	'MofGen! by Chris Wilmer'
_symmetry_space_group_name_H-M	'P1'
_symmetry_Int_Tables_number	1
_symmetry_cell_setting	triclinic
loop_
_symmetry_equiv_pos_as_xyz
  x,y,z
_cell_length_a	17.699083
_cell_length_b	13.330367
_cell_length_c	17.699083
_cell_angle_alpha	89.994461
_cell_angle_beta	96.716985
_cell_angle_gamma	90.001523
loop_
_atom_site_label
_atom_site_type_symbol
_atom_site_fract_x
_atom_site_fract_y
_atom_site_fract_z
O1	O	1.004079	0.083285	-0.095711
O2	O	0.783701	0.083318	-0.108163
O3	O	0.900116	0.083292	0.008252
O4	O	0.887664	0.083311	-0.212126
O5	O	0.900099	-0.083555	0.008255
O6	O	0.783684	-0.083529	-0.108161
O7	O	1.004062	-0.083562	-0.095708
Cu8	Cu	0.893872	-0.098780	-0.101934
Cu9	Cu	0.893892	0.098536	-0.101937
O10	O	0.887647	-0.083536	-0.212124
C11	C	0.755495	-0.000101	-0.107716
C12	C	0.671477	-0.000089	-0.106377
N13	N	0.893863	-0.237562	-0.101932
C14	C	0.622856	-0.000083	-0.174710
C15	C	0.543913	-0.000096	-0.173448
C16	C	0.513592	-0.000108	-0.103852
C17	C	0.562219	-0.000117	-0.035513
C18	C	0.641161	-0.000111	-0.036776
C19	C	0.243856	-0.000142	-0.030418
C20	C	0.164908	-0.000145	-0.029160
C21	C	0.146608	-0.000128	-0.167090
C22	C	0.225550	-0.000122	-0.168353
C23	C	0.274170	-0.000136	-0.100015
C24	C	0.359769	-0.000123	-0.101384
C25	C	0.427995	-0.000113	-0.102481
C26	C	0.842341	-0.710173	-0.153466
C27	C	0.945463	-0.710164	-0.050403
C28	C	0.945454	-0.605146	-0.050400
C29	C	0.893889	-0.552636	-0.101932
C30	C	0.842332	-0.605145	-0.153466
C31	C	0.997015	-0.552629	0.001128
C32	C	0.997009	-0.447605	0.001132
C33	C	0.945440	-0.395093	-0.050397
C34	C	0.893880	-0.447608	-0.101933
C35	C	0.842315	-0.395098	-0.153465
C36	C	0.790751	-0.447612	-0.204998
C37	C	0.790762	-0.552633	-0.204995
C38	C	0.945429	-0.290071	-0.050400
C39	C	0.842306	-0.290070	-0.153466
C40	C	1.032268	-0.000141	-0.096156
C41	C	1.116286	-0.000146	-0.097494
C42	C	0.899662	-0.000132	0.036451
C43	C	0.898323	-0.000132	0.120469
N44	N	0.893906	0.237317	-0.101934
C45	C	0.888102	-0.000110	-0.240322
C46	C	0.889440	-0.000103	-0.324340
C47	C	0.966656	-0.000144	0.169090
C48	C	0.965394	-0.000135	0.248033
C49	C	0.895798	-0.000121	0.278354
C50	C	0.827459	-0.000107	0.229727
C51	C	0.828722	-0.000108	0.150785
C52	C	0.822364	-0.000098	0.548090
C53	C	0.821106	-0.000099	0.627038
C54	C	0.959036	-0.000124	0.645338
C55	C	0.960299	-0.000126	0.566396
C56	C	0.891961	-0.000106	0.517776
C57	C	0.893330	-0.000114	0.432177
C58	C	0.894427	-0.000121	0.363951
H59	H	0.647537	-0.000073	-0.231384
H60	H	0.504328	-0.000091	-0.229092
Cl61	Cl	0.263663	-0.000101	-0.255849
H62	H	1.023330	-0.000161	0.144409
Cl63	Cl	0.304969	-0.000159	0.055494
H64	H	1.014680	-0.000135	0.684934
Cl65	Cl	0.126793	-0.000160	0.058340
Cl66	Cl	1.051303	-0.000153	0.309154
Cl67	Cl	1.061843	-0.618639	0.065903
H68	H	0.987414	-0.247320	-0.008446
Cl69	Cl	1.010290	-0.776174	0.014373
H70	H	1.038994	-0.404855	0.043093
Cl71	Cl	1.047795	-0.000140	0.528283
Cl72	Cl	0.524102	-0.000138	0.051980
Cl73	Cl	0.733606	-0.000079	0.665153
Cl74	Cl	0.736452	-0.000070	0.486977
Cl75	Cl	0.739966	-0.000077	0.267844
Cl76	Cl	0.702285	-0.000123	0.049132
H77	H	0.800312	-0.247323	-0.195427
Cl78	Cl	0.725947	-0.618652	-0.269777
H79	H	0.107012	-0.000122	-0.222734
Cl80	Cl	0.725933	-0.381588	-0.269783
H81	H	0.800356	-0.752932	-0.195421
H82	H	0.773078	-0.000099	0.111198
