data_functionalizedCrystal
_audit_creation_method	'MofGen! by Chris Wilmer'
_symmetry_space_group_name_H-M	'P1'
_symmetry_Int_Tables_number	1
_symmetry_cell_setting	triclinic
loop_
_symmetry_equiv_pos_as_xyz
  x,y,z
_cell_length_a	19.188905
_cell_length_b	27.731996
_cell_length_c	18.266242
_cell_angle_alpha	89.987663
_cell_angle_beta	89.983837
_cell_angle_gamma	82.877971
loop_
_atom_site_label
_atom_site_type_symbol
_atom_site_fract_x
_atom_site_fract_y
_atom_site_fract_z
O1	O	0.925760	0.060292	-0.061011
O2	O	0.722392	0.068428	-0.060987
O3	O	0.830411	-0.006019	-0.060984
O4	O	0.817741	0.134740	-0.061014
O5	O	0.830393	-0.006023	0.060778
O6	O	0.722374	0.068425	0.060775
O7	O	0.925741	0.060288	0.060751
Zn8	Zn	0.824055	0.064356	0.080095
Zn9	Zn	0.824079	0.064361	-0.080331
O10	O	0.817722	0.134736	0.060748
C11	C	0.696373	0.068165	-0.000103
C12	C	0.618873	0.067380	-0.000093
C13	C	0.582493	0.067005	-0.066468
C14	C	0.509675	0.066262	-0.066476
C15	C	0.473240	0.065885	-0.000107
C16	C	0.509628	0.066262	0.066276
C17	C	0.582444	0.067010	0.066283
N18	N	0.364403	0.037201	0.049291
N19	N	0.295231	0.036490	0.049280
C20	C	0.253848	0.063633	-0.000125
N21	N	0.284253	0.091508	-0.049528
N22	N	0.353432	0.092218	-0.049519
C23	C	0.394283	0.065074	-0.000108
C24	C	0.138511	0.062453	-0.066513
C25	C	0.065690	0.061713	-0.066519
C26	C	0.065645	0.061708	0.066235
C27	C	0.138464	0.062453	0.066239
C28	C	0.174892	0.062823	-0.000137
C29	C	0.830141	-0.024029	-0.000101
C30	C	0.829357	-0.077688	-0.000093
C31	C	0.824435	-0.410417	-0.066501
C32	C	0.821458	-0.612084	-0.066513
O33	O	0.821051	-0.638154	-0.122961
N34	N	0.821078	-0.637305	-0.000141
C35	C	0.821438	-0.612105	0.066238
O36	O	0.821040	-0.638183	0.122692
C37	C	0.824410	-0.410438	0.066250
C38	C	0.824797	-0.385221	-0.000126
C39	C	0.824821	-0.385200	-0.132871
C40	C	0.825569	-0.334786	-0.132868
C41	C	0.825931	-0.309590	-0.066493
C42	C	0.825545	-0.334807	-0.000122
C43	C	0.824765	-0.385238	0.132629
C44	C	0.825507	-0.334818	0.132626
C45	C	0.825893	-0.309601	0.066250
C46	C	0.826655	-0.259198	0.066256
N47	N	0.827035	-0.233977	-0.000116
C48	C	0.826673	-0.259174	-0.066490
C49	C	0.819880	-0.717983	0.066228
C50	C	0.819138	-0.768399	0.066225
C51	C	0.819156	-0.768375	-0.066527
C52	C	0.819903	-0.717958	-0.066524
C53	C	0.820259	-0.692762	-0.000144
C54	C	0.828244	-0.153302	-0.066477
C55	C	0.828995	-0.102884	-0.066468
C56	C	0.828973	-0.102912	0.066284
C57	C	0.828226	-0.153326	0.066275
C58	C	0.827859	-0.178519	-0.000112
O59	O	0.827054	-0.233096	0.122674
O60	O	0.827056	-0.233085	-0.122935
C61	C	0.823687	-0.460830	-0.066504
C62	C	0.823301	-0.486048	-0.000134
C63	C	0.823663	-0.460851	0.066241
C64	C	0.822559	-0.536464	-0.000136
C65	C	0.822197	-0.561660	-0.066511
C66	C	0.822577	-0.536440	-0.132883
C67	C	0.823325	-0.486027	-0.132879
C68	C	0.823284	-0.486072	0.132613
C69	C	0.822536	-0.536485	0.132604
C70	C	0.822174	-0.561681	0.066229
C71	C	0.951760	0.060551	-0.000135
C72	C	1.029260	0.061336	-0.000149
C73	C	0.817992	0.152746	-0.000137
C74	C	0.818776	0.206405	-0.000150
N75	N	0.824043	0.064352	0.189582
N76	N	0.824095	0.064361	-0.189818
C77	C	0.871890	0.031403	0.227892
C78	C	0.871894	0.031400	0.304537
C79	C	0.824059	0.064356	0.342869
C80	C	0.776204	0.097308	0.304549
C81	C	0.776196	0.097306	0.227906
N82	N	0.814699	0.107148	0.463193
N83	N	0.814710	0.107148	0.536001
C84	C	0.824078	0.064363	0.573791
N85	N	0.833448	0.021576	0.536023
N86	N	0.833440	0.021576	0.463208
C87	C	0.824062	0.064361	0.425976
C88	C	0.871932	0.031408	0.695209
C89	C	0.871932	0.031405	0.771855
C90	C	0.776245	0.097317	0.771866
C91	C	0.776242	0.097316	0.695221
C92	C	0.824089	0.064362	0.656897
H93	H	0.036071	0.061411	-0.120571
H94	H	0.910858	0.004568	0.335735
O95	O	0.173789	0.062842	-0.131053
C96	C	0.166153	0.062750	-0.262725
C97	C	0.126115	0.062317	-0.189688
H98	H	0.127629	0.062315	-0.310150
H99	H	0.193451	0.096929	-0.266090
H100	H	0.207035	0.029287	-0.266000
H101	H	0.085200	0.095757	-0.186363
H102	H	0.098866	0.028116	-0.186353
O103	O	0.729709	0.129349	0.808978
C104	C	0.634830	0.194742	0.800900
C105	C	0.687486	0.158486	0.758775
H106	H	0.600689	0.218316	0.760329
H107	H	0.600138	0.173960	0.836784
H108	H	0.664721	0.218816	0.836782
H109	H	0.657652	0.134403	0.722854
H110	H	0.722177	0.179298	0.722938
O111	O	0.030354	0.061277	0.130755
C112	C	0.016396	0.019161	0.244205
C113	C	0.056433	0.019593	0.171167
H114	H	0.037455	-0.014543	0.276892
H115	H	0.023950	0.053105	0.276981
H116	H	-0.041900	0.018587	0.232785
H117	H	0.114741	0.020150	0.182520
H118	H	0.048820	-0.014349	0.138413
H119	H	0.737254	0.124140	0.335763
O120	O	0.173897	0.062746	0.130670
C121	C	0.264434	0.021700	0.207748
C122	C	0.224374	0.021312	0.134743
H123	H	0.305244	-0.011801	0.211071
H124	H	0.291804	0.055847	0.211077
H125	H	0.225868	0.021325	0.255170
H126	H	0.262893	0.021670	0.087279
H127	H	0.196993	-0.012833	0.131477
H128	H	0.910890	0.004574	0.664004
H129	H	0.827942	-0.173808	-0.120535
O130	O	0.829337	-0.078461	-0.131014
C131	C	0.829318	-0.083771	-0.262685
C132	C	0.828916	-0.111487	-0.189643
H133	H	0.828993	-0.110462	-0.310106
H134	H	0.780775	-0.055644	-0.266050
H135	H	0.878539	-0.064688	-0.265970
H136	H	0.779728	-0.130599	-0.186309
H137	H	0.877491	-0.139586	-0.186310
O138	O	0.474225	0.065807	0.130728
C139	C	0.400340	0.023105	0.207753
C140	C	0.440414	0.023551	0.134740
H141	H	0.372981	-0.011051	0.211014
H142	H	0.438828	0.023469	0.255225
H143	H	0.359501	0.056590	0.211051
H144	H	0.481253	-0.009929	0.131370
H145	H	0.401883	0.023211	0.087303
O146	O	0.825904	-0.310365	-0.197411
C147	C	0.825876	-0.315685	-0.329082
C148	C	0.825484	-0.343396	-0.256035
H149	H	0.825551	-0.342379	-0.376498
H150	H	0.777330	-0.287561	-0.332446
H151	H	0.875094	-0.296598	-0.332375
H152	H	0.776299	-0.362511	-0.252692
H153	H	0.874063	-0.371492	-0.252701
O154	O	0.824254	-0.409685	0.197133
C155	C	0.763486	-0.419454	0.310613
C156	C	0.763976	-0.391744	0.237573
H157	H	0.714764	-0.404952	0.343336
H158	H	0.762843	-0.459820	0.299282
H159	H	0.812525	-0.414081	0.343316
H160	H	0.714947	-0.397077	0.204832
H161	H	0.764656	-0.351387	0.248955
H162	H	0.818862	-0.788899	-0.120572
O163	O	0.729866	0.129349	0.657923
C164	C	0.714268	0.195415	0.571411
C165	C	0.766868	0.159155	0.613590
H166	H	0.744163	0.219529	0.535569
H167	H	0.679625	0.174635	0.535499
H168	H	0.680067	0.218948	0.611987
H169	H	0.801115	0.135613	0.573067
H170	H	0.801462	0.179964	0.649513
O171	O	0.824348	-0.409681	-0.197334
C172	C	0.763044	-0.460996	-0.274382
C173	C	0.763476	-0.433289	-0.201354
H174	H	0.713842	-0.480099	-0.277649
H175	H	0.763402	-0.434322	-0.321840
H176	H	0.811604	-0.489110	-0.277700
H177	H	0.714925	-0.405175	-0.197965
H178	H	0.763155	-0.459992	-0.153931
O179	O	0.729692	0.129363	0.190801
C180	C	0.634757	0.194717	0.198900
C181	C	0.687393	0.158445	0.241014
H182	H	0.600535	0.218232	0.239478
H183	H	0.664593	0.218846	0.163019
H184	H	0.600141	0.173899	0.163017
H185	H	0.722022	0.179224	0.276937
H186	H	0.657514	0.134317	0.276849
H187	H	0.829271	-0.082389	0.120324
O188	O	0.918481	-0.000621	0.808959
C189	C	1.013372	-0.066006	0.800856
C190	C	0.960702	-0.029756	0.758745
H191	H	1.047511	-0.089578	0.760277
H192	H	1.048064	-0.045218	0.836698
H193	H	0.983492	-0.090083	0.836779
H194	H	0.990525	-0.005670	0.722782
H195	H	0.926010	-0.050573	0.722950
H196	H	0.612149	0.067307	-0.120516
O197	O	0.820241	-0.693536	-0.131066
C198	C	0.820226	-0.698851	-0.262737
C199	C	0.819827	-0.726565	-0.189692
H200	H	0.819906	-0.725544	-0.310155
H201	H	0.771679	-0.670729	-0.266104
H202	H	0.869443	-0.679763	-0.266023
H203	H	0.770643	-0.745681	-0.186357
H204	H	0.868407	-0.754660	-0.186356
H205	H	0.480049	0.065958	-0.120528
H206	H	0.818833	-0.788928	0.120275
O207	O	0.823734	-0.461555	0.197045
C208	C	0.885111	-0.410294	0.274110
C209	C	0.884675	-0.438025	0.201102
H210	H	0.934384	-0.391271	0.277421
H211	H	0.836615	-0.382125	0.277456
H212	H	0.884678	-0.436989	0.321530
H213	H	0.885133	-0.411367	0.153641
H214	H	0.933167	-0.466200	0.197820
H215	H	0.820173	-0.697473	0.120285
H216	H	0.612064	0.067316	0.120334
H217	H	0.823639	-0.465499	-0.186929
O218	O	0.825825	-0.310267	0.197044
C219	C	0.827009	-0.232614	0.255893
C220	C	0.826630	-0.260355	0.182890
H221	H	0.827674	-0.192258	0.244475
H222	H	0.777963	-0.237962	0.288636
H223	H	0.875725	-0.247096	0.288619
H224	H	0.777946	-0.245891	0.150105
H225	H	0.875708	-0.255009	0.150202
O226	O	0.822096	-0.560934	-0.197338
C227	C	0.760761	-0.612265	-0.274327
C228	C	0.761216	-0.584535	-0.201320
H229	H	0.711552	-0.631362	-0.277563
H230	H	0.761114	-0.585606	-0.321805
H231	H	0.809314	-0.640385	-0.277638
H232	H	0.712672	-0.556414	-0.197938
H233	H	0.760899	-0.611222	-0.153876
H234	H	0.827918	-0.173859	0.120324
H235	H	0.822227	-0.557013	0.186659
H236	H	0.910848	0.004569	0.196691
