data_functionalizedCrystal
_audit_creation_method	'MofGen! by Chris Wilmer'
_symmetry_space_group_name_H-M	'P1'
_symmetry_Int_Tables_number	1
_symmetry_cell_setting	triclinic
loop_
_symmetry_equiv_pos_as_xyz
  x,y,z
_cell_length_a	16.625548
_cell_length_b	12.594516
_cell_length_c	16.625539
_cell_angle_alpha	90.023327
_cell_angle_beta	90.020568
_cell_angle_gamma	90.017121
loop_
_atom_site_label
_atom_site_type_symbol
_atom_site_fract_x
_atom_site_fract_y
_atom_site_fract_z
Zn1	Zn	1.232716	-0.423710	0.455937
Zn2	Zn	1.232635	-0.601711	0.321116
Zn3	Zn	1.097878	-0.423750	0.321118
Zn4	Zn	1.097864	-0.601650	0.455906
O5	O	1.165273	-0.512705	0.388519
O6	O	1.345538	-0.447331	0.438065
O7	O	1.214731	-0.578147	0.208284
O8	O	1.115805	-0.274799	0.339016
O9	O	1.345478	-0.578108	0.339013
O10	O	1.214870	-0.274769	0.438067
O11	O	1.115726	-0.447400	0.208285
O12	O	0.985044	-0.447341	0.338985
O13	O	1.115780	-0.578003	0.568743
O14	O	0.985033	-0.578043	0.438014
O15	O	1.214856	-0.447271	0.568766
O16	O	1.214717	-0.750649	0.338983
O17	O	1.115701	-0.750604	0.438012
C18	C	0.955782	-0.512690	0.388497
C19	C	0.866161	-0.512709	0.388506
C20	C	0.537986	-0.512716	0.388541
C21	C	0.629294	-0.512711	0.388529
C22	C	0.702071	-0.512713	0.388523
C23	C	0.793385	-0.512707	0.388512
C24	C	1.165220	-0.789246	0.388511
C25	C	1.165272	-0.907552	0.388535
C26	C	1.111412	-0.976819	0.442359
C27	C	1.091767	-1.047680	0.368785
C28	C	1.184990	-1.047490	0.462122
C29	C	1.145588	-0.976855	0.314921
C30	C	1.238845	-0.976658	0.408308
C31	C	1.219228	-1.047487	0.334683
C32	C	1.375582	-0.512721	0.388542
C33	C	1.465203	-0.512728	0.388552
C34	C	1.165326	-0.512626	0.598828
C35	C	1.165348	-0.512592	0.688449
C36	C	1.165348	-0.235085	0.388545
C37	C	1.165380	-0.116779	0.388556
C38	C	1.165267	-0.512708	0.179028
C39	C	1.165401	-0.512442	0.089408
C40	C	1.165385	-0.512473	1.016625
C41	C	1.165373	-0.512510	0.925317
C42	C	1.165367	-0.512534	0.852540
C43	C	1.165354	-0.512568	0.761226
H44	H	1.029597	-1.078900	0.352077
C45	C	1.280126	-1.088677	0.274066
C46	C	1.338136	-1.149708	0.313917
C47	C	1.394248	-1.187662	0.258103
H48	H	1.253489	-1.131276	0.235134
H49	H	1.305488	-1.030416	0.248113
H50	H	1.312776	-1.207961	0.339857
H51	H	1.364793	-1.107131	0.352845
H52	H	1.419610	-1.129401	0.232149
H53	H	1.367604	-1.230256	0.219174
H54	H	1.433618	-1.229067	0.285134
H55	H	1.301000	-0.945441	0.425051
C56	C	1.123151	-0.935605	0.231988
C57	C	1.053352	-0.873879	0.237624
C58	C	1.032651	-0.835873	0.161244
H59	H	1.165851	-0.893462	0.211457
H60	H	1.113742	-0.993845	0.196886
H61	H	1.062765	-0.815647	0.272714
H62	H	1.010637	-0.915999	0.258142
H63	H	1.023242	-0.894114	0.126142
H64	H	1.075355	-0.793735	0.140719
H65	H	0.985286	-0.793996	0.165057
C66	C	1.050448	-0.935492	0.502858
C67	C	0.973581	-0.971463	0.481784
C68	C	0.917400	-0.933401	0.537486
H69	H	1.063796	-0.960691	0.555024
H70	H	1.051121	-0.860062	0.502760
H71	H	0.972910	-1.046876	0.481891
H72	H	0.960208	-0.946266	0.429628
H73	H	0.918073	-0.857971	0.537388
H74	H	0.930755	-0.958603	0.589648
H75	H	0.865239	-0.957793	0.523191
C76	C	1.207065	-1.088716	0.545159
C77	C	1.150430	-1.052887	0.601249
C78	C	1.170738	-1.090827	0.677753
H79	H	1.207413	-1.164132	0.544562
H80	H	1.258910	-1.063322	0.559611
H81	H	1.098598	-1.078286	0.586801
H82	H	1.150073	-0.977476	0.601871
H83	H	1.222583	-1.065433	0.692204
H84	H	1.171086	-1.166241	0.677147
H85	H	1.132319	-1.066514	0.715820
