data_functionalizedCrystal
_audit_creation_method	'MofGen! by Chris Wilmer'
_symmetry_space_group_name_H-M	'P1'
_symmetry_Int_Tables_number	1
_symmetry_cell_setting	triclinic
loop_
_symmetry_equiv_pos_as_xyz
  x,y,z
_cell_length_a	10.685909
_cell_length_b	10.686285
_cell_length_c	10.685986
_cell_angle_alpha	81.587410
_cell_angle_beta	98.364955
_cell_angle_gamma	81.628236
loop_
_atom_site_label
_atom_site_type_symbol
_atom_site_fract_x
_atom_site_fract_y
_atom_site_fract_z
Zn1	Zn	-1.936355	0.610877	0.517925
Zn2	Zn	-1.436355	1.110877	1.017925
Zn3	Zn	-1.971750	0.842398	0.286480
Zn4	Zn	-1.471750	1.342398	0.786480
Zn5	Zn	-1.740362	0.610966	0.321992
Zn6	Zn	-1.240362	1.110966	0.821992
Zn7	Zn	-1.740386	0.806808	0.517928
Zn8	Zn	-1.240386	1.306808	1.017928
O9	O	-1.847213	0.717762	0.411081
O10	O	-1.347213	1.217762	0.911081
O11	O	-2.119901	0.656446	0.472360
O12	O	-1.619901	1.156446	0.972360
O13	O	-1.955859	0.826629	0.112330
O14	O	-1.455859	1.326629	0.612330
O15	O	-1.751537	0.432101	0.362844
O16	O	-1.251537	0.932101	0.862844
O17	O	-2.145906	0.826543	0.302318
O18	O	-1.645906	1.326543	0.802318
O19	O	-1.895533	0.432035	0.506795
O20	O	-1.395533	0.932035	1.006795
O21	O	-1.785859	0.656597	0.138421
O22	O	-1.285859	1.156597	0.638421
O23	O	-1.561514	0.622087	0.362847
O24	O	-1.061514	1.122087	0.862847
O25	O	-1.751578	0.765886	0.696788
O26	O	-1.251578	1.265886	1.196788
O27	O	-1.561532	0.765972	0.506800
O28	O	-1.061532	1.265972	1.006800
O29	O	-1.895556	0.621936	0.696786
O30	O	-1.395556	1.121936	1.196786
O31	O	-1.955883	1.016530	0.302321
O32	O	-1.455883	1.516530	0.802321
O33	O	-1.785900	0.990383	0.472365
O34	O	-1.285900	1.490383	0.972365
C35	C	-1.515149	0.690178	0.438678
C36	C	-1.015149	1.190178	0.938678
C37	C	-1.373090	0.678406	0.450512
C38	C	-0.873090	1.178406	0.950512
C39	C	-1.874767	1.049831	0.383515
C40	C	-1.374767	1.549831	0.883515
C41	C	-1.886669	1.191898	0.371755
C42	C	-1.386669	1.691898	0.871755
C43	C	-1.819622	0.689931	0.744460
C44	C	-1.319622	1.189931	1.244460
C45	C	-1.807864	0.678071	0.886527
C46	C	-1.307864	1.178071	1.386527
C47	C	-1.180574	0.745444	0.383370
C48	C	-0.680574	1.245444	0.883370
C49	C	-1.322632	0.757213	0.371540
C50	C	-0.822632	1.257213	0.871540
C51	C	-1.819584	0.384397	0.438780
C52	C	-1.319584	0.884397	0.938780
C53	C	-1.807810	0.242336	0.450584
C54	C	-1.307810	0.742336	0.950584
C55	C	-1.874763	0.745399	0.079001
C56	C	-1.374763	1.245399	0.579001
C57	C	-1.886739	0.756919	-0.063055
C58	C	-1.386739	1.256919	0.436945
H59	H	-1.307604	0.601932	0.527183
H60	H	-0.807604	1.101932	1.027183
H61	H	-1.963270	0.833491	0.871418
H62	H	-1.463270	1.333491	1.371418
O63	O	-1.706511	0.576621	0.973301
O64	O	-1.206511	1.076621	1.473301
H65	H	-1.712873	0.582916	1.075010
H66	H	-1.212873	1.082916	1.575010
O67	O	-1.706323	1.155584	0.551915
O68	O	-1.206323	1.655584	1.051915
H69	H	-1.712599	1.053870	0.545575
H70	H	-1.212599	1.553870	1.045575
H71	H	-1.388111	0.833692	0.294884
H72	H	-0.888111	1.333692	0.794884
O73	O	-1.988184	1.278657	0.270442
O74	O	-1.488184	1.778657	0.770442
H75	H	-1.981930	1.380372	0.276798
H76	H	-1.481930	1.880372	0.776798
