data_functionalizedCrystal
_audit_creation_method	'MofGen! by Chris Wilmer'
_symmetry_space_group_name_H-M	'P1'
_symmetry_Int_Tables_number	1
_symmetry_cell_setting	triclinic
loop_
_symmetry_equiv_pos_as_xyz
  x,y,z
_cell_length_a	10.654541
_cell_length_b	10.654550
_cell_length_c	9.130313
_cell_angle_alpha	90.000543
_cell_angle_beta	90.005399
_cell_angle_gamma	95.516764
loop_
_atom_site_label
_atom_site_type_symbol
_atom_site_fract_x
_atom_site_fract_y
_atom_site_fract_z
O1	O	-1.667846	0.176340	-0.121880
O2	O	-1.302366	0.193157	-0.121865
O3	O	-1.493509	0.002009	-0.121862
O4	O	-1.476703	0.367488	-0.121883
O5	O	-1.493495	0.002023	0.121737
O6	O	-1.302352	0.193171	0.121733
O7	O	-1.667832	0.176354	0.121719
Cu8	Cu	-1.485091	0.184763	0.143969
Cu9	Cu	-1.485107	0.184747	-0.144115
O10	O	-1.476689	0.367502	0.121716
C11	C	-1.255561	0.191931	-0.000064
C12	C	-1.116117	0.188243	-0.000058
C13	C	-0.919569	0.183045	0.132725
C14	C	-1.050590	0.186517	0.132728
C15	C	-1.050615	0.186509	-0.132857
C16	C	-0.919595	0.183046	-0.132858
C17	C	-0.919556	0.183044	0.286059
C18	C	-1.050578	0.186516	0.286062
C19	C	-1.492268	-0.044782	-0.000063
C20	C	-1.488576	-0.184225	-0.000064
C21	C	-0.714636	0.177590	-0.000076
C22	C	-0.854076	0.181308	-0.000063
C23	C	-1.477930	0.414293	-0.000086
C24	C	-1.481622	0.553736	-0.000095
N25	N	-1.485089	0.184774	0.346591
C26	C	-1.369080	0.633225	-0.000077
C27	C	-1.372556	0.764246	-0.000066
C28	C	-1.601127	0.736275	-0.000087
C29	C	-1.597649	0.605257	-0.000108
C30	C	-1.237116	0.649374	-0.000059
C31	C	-1.240593	0.780395	-0.000048
N32	N	-1.485119	0.184726	-0.346738
C33	C	-1.408282	0.107863	0.576601
C34	C	-1.408270	0.107883	0.423264
C35	C	-1.561935	0.261641	0.423264
C36	C	-1.561952	0.261614	0.576598
C37	C	-1.319561	0.019095	0.576600
C38	C	-1.319549	0.019115	0.423263
H39	H	-1.096859	0.099720	0.344931
C40	C	-1.646437	0.346217	0.338928
H41	H	-1.635418	0.335231	0.236628
H42	H	-1.732165	0.323677	0.364034
H43	H	-1.623839	0.431935	0.364080
H44	H	-1.350489	-0.079954	0.618180
C45	C	-1.721444	0.517823	-0.000138
H46	H	-1.791039	0.567276	-0.000129
H47	H	-1.724838	0.466139	-0.085094
H48	H	-1.724840	0.466125	0.084814
H49	H	-1.103976	0.187927	-0.240974
C50	C	-1.372570	-0.108741	0.358957
H51	H	-1.370641	-0.104401	0.255042
H52	H	-1.322634	-0.172605	0.391207
H53	H	-1.457059	-0.128114	0.390932
H54	H	-1.220494	0.050014	0.381678
H55	H	-0.866273	0.181647	-0.240987
H56	H	-0.873269	0.269839	0.344931
H57	H	-0.889980	0.091450	0.333637
H58	H	-1.080140	0.278120	0.333636
H59	H	-1.695592	0.778241	-0.000122
H60	H	-1.185504	0.620031	-0.101999
C61	C	-1.180335	0.601220	0.142015
H62	H	-1.157450	0.670440	0.205294
H63	H	-1.240866	0.543605	0.189210
H64	H	-1.107640	0.559923	0.119187
C65	C	-1.191767	0.072303	0.640905
H66	H	-1.134848	0.096024	0.563436
H67	H	-1.203184	0.143985	0.699518
H68	H	-1.158407	0.009679	0.699418
C69	C	-1.186723	0.842085	-0.142114
H70	H	-1.160320	0.778895	-0.205385
H71	H	-1.249909	0.884559	-0.189327
H72	H	-1.116685	0.900849	-0.119269
H73	H	-1.190873	0.822143	0.101908
H74	H	-1.624533	0.324191	0.639010
