data_functionalizedCrystal
_audit_creation_method	'MofGen! by Chris Wilmer'
_symmetry_space_group_name_H-M	'P1'
_symmetry_Int_Tables_number	1
_symmetry_cell_setting	triclinic
loop_
_symmetry_equiv_pos_as_xyz
  x,y,z
_cell_length_a	15.944493
_cell_length_b	10.723023
_cell_length_c	9.198806
_cell_angle_alpha	89.996191
_cell_angle_beta	90.002690
_cell_angle_gamma	83.971296
loop_
_atom_site_label
_atom_site_type_symbol
_atom_site_fract_x
_atom_site_fract_y
_atom_site_fract_z
O1	O	0.117808	1.655664	-0.120868
O2	O	0.129086	1.292365	-0.120869
O3	O	0.001226	1.483973	-0.120881
O4	O	0.245668	1.464056	-0.120856
O5	O	0.001225	1.483958	0.120905
O6	O	0.129085	1.292350	0.120916
O7	O	0.117808	1.655648	0.120917
Cu8	Cu	0.123446	1.473998	0.142993
Cu9	Cu	0.123447	1.474016	-0.142945
O10	O	0.245668	1.464041	0.120929
C11	C	0.128265	1.245869	0.000023
C12	C	0.125810	1.107346	0.000021
C13	C	0.122178	0.902417	0.125267
C14	C	0.124715	1.045587	0.125272
C15	C	-0.030074	1.483151	0.000006
C16	C	-0.123337	1.480711	-0.000013
C17	C	-0.358451	1.593495	0.000015
C18	C	-0.409367	1.532682	-0.119197
C19	C	-0.294084	1.476189	0.000005
C20	C	-0.409344	1.532640	0.119184
C21	C	-0.459018	1.471829	0.000029
C22	C	-0.343771	1.415407	-0.119306
C23	C	-0.343744	1.415382	0.119183
C24	C	-0.394628	1.354483	-0.000059
C25	C	-0.199069	1.478703	-0.000010
C26	C	-0.554030	1.469305	0.000033
C27	C	0.276967	1.464862	0.000039
C28	C	0.370230	1.467303	0.000048
C29	C	0.118628	1.702145	0.000022
C30	C	0.121083	1.840668	0.000014
N31	N	0.123446	1.473994	0.344107
N32	N	0.123441	1.474029	-0.344059
C33	C	0.069524	1.554448	0.416300
C34	C	0.069521	1.554467	0.583712
H35	H	-0.342244	1.694540	-0.000104
H36	H	-0.437991	1.582199	0.219962
C37	C	0.125986	1.117315	0.270147
C38	C	0.052859	1.113715	0.378901
C39	C	0.054130	1.185445	0.523782
C40	C	0.128529	1.260775	0.559908
C41	C	0.201662	1.264378	0.451151
C42	C	0.200391	1.192648	0.306271
H43	H	-0.002221	1.057949	0.352161
H44	H	-0.000009	1.182778	0.604291
H45	H	0.129470	1.313874	0.667158
H46	H	0.256742	1.320144	0.477892
H47	H	0.254529	1.195315	0.225762
C48	C	0.122355	0.912425	-0.144856
C49	C	0.049228	0.908843	-0.253626
C50	C	0.050500	0.980596	-0.398502
C51	C	0.124899	1.055932	-0.434608
C52	C	0.198032	1.059517	-0.325835
C53	C	0.196760	0.987763	-0.180959
H54	H	-0.005852	0.853072	-0.226901
H55	H	-0.003639	0.977942	-0.479022
H56	H	0.125840	1.109048	-0.541853
H57	H	0.253111	1.115287	-0.352560
H58	H	0.250898	0.990418	-0.100439
H59	H	-0.315234	1.365901	-0.220198
H60	H	0.124867	1.054251	-0.107218
C61	C	-0.304992	1.348510	0.255340
C62	C	-0.240165	1.232365	0.239112
C63	C	-0.201410	1.165506	0.375283
C64	C	-0.227482	1.214792	0.527681
C65	C	-0.292313	1.330942	0.543915
C66	C	-0.331068	1.397801	0.407744
H67	H	-0.220861	1.195876	0.126292
H68	H	-0.153418	1.079524	0.363265
H69	H	-0.198794	1.165299	0.628483
H70	H	-0.311616	1.367432	0.656735
H71	H	-0.379060	1.483784	0.419762
H72	H	0.121241	0.849289	0.232497
H73	H	-0.438029	1.582229	-0.219983
H74	H	-0.410672	1.253359	-0.000124
H75	H	0.023358	1.623310	0.354170
C76	C	0.007152	1.647525	0.667570
C77	C	0.007265	1.647452	0.834975
C78	C	-0.055107	1.740513	0.918836
C79	C	-0.117591	1.833648	0.835291
C80	C	-0.117706	1.833725	0.667876
C81	C	-0.055334	1.740664	0.584015
H82	H	0.053521	1.578504	0.896828
H83	H	-0.055021	1.740456	1.042768
H84	H	-0.163762	1.902538	0.897370
H85	H	-0.163962	1.902673	0.606023
H86	H	-0.055420	1.740722	0.460083
H87	H	0.169611	1.405150	0.593868
H88	H	0.169605	1.405124	0.406240
