data_functionalizedCrystal
_audit_creation_method	'MofGen! by Chris Wilmer'
_symmetry_space_group_name_H-M	'P1'
_symmetry_Int_Tables_number	1
_symmetry_cell_setting	triclinic
loop_
_symmetry_equiv_pos_as_xyz
  x,y,z
_cell_length_a	6.817900
_cell_length_b	11.102183
_cell_length_c	15.185107
_cell_angle_alpha	93.569983
_cell_angle_beta	104.257894
_cell_angle_gamma	108.603876
loop_
_atom_site_label
_atom_site_type_symbol
_atom_site_fract_x
_atom_site_fract_y
_atom_site_fract_z
V1	V	-4.061557	-0.176722	-0.283395
O2	O	-4.021552	0.007583	-0.278002
O3	O	-4.038665	-0.349536	-0.281455
O4	O	-4.016548	-0.174402	-0.406994
O5	O	-4.043822	-0.168762	-0.151594
V6	V	-4.541440	-0.154630	-0.267630
O7	O	-4.330799	-0.225183	-0.317975
O8	O	-4.722395	-0.106169	-0.233050
O9	O	-4.341125	0.018184	-0.269570
O10	O	-4.698842	-0.338935	-0.273023
O11	O	-4.676572	-0.162589	-0.399431
O12	O	-4.363243	-0.156949	-0.144032
C13	C	-3.889762	-0.391651	-0.276984
C14	C	-3.952355	-0.532931	-0.276222
C15	C	-3.861349	-0.496135	-0.109742
C16	C	-3.845249	-0.544110	-0.026147
C17	C	-3.904067	-0.676855	-0.025436
C18	C	-3.978999	-0.761632	-0.108329
C19	C	-3.995099	-0.713657	-0.191923
C20	C	-3.936268	-0.580906	-0.192625
C21	C	-4.086118	-0.750454	-0.358401
C22	C	-4.027286	-0.617708	-0.359114
C23	C	-4.161049	-0.835230	-0.441294
C24	C	-4.177136	-0.787255	-0.524890
C25	C	-4.118309	-0.654501	-0.525598
C26	C	-4.043386	-0.569733	-0.442709
C27	C	-3.861547	-0.168250	-0.437120
C28	C	-3.906200	-0.167497	-0.538162
C29	C	-4.153059	-0.280648	-0.978384
C30	C	-4.037291	-0.047788	-0.952388
C31	C	-3.995294	-0.048514	-0.857454
C32	C	-4.032182	-0.165309	-0.822981
C33	C	-4.111066	-0.281378	-0.883442
C34	C	-3.916428	0.067551	-0.796986
C35	C	-3.874429	0.066829	-0.702046
C36	C	-3.911302	-0.049967	-0.667571
C37	C	-3.990189	-0.166040	-0.728039
C38	C	-4.027077	-0.282835	-0.693566
C39	C	-4.105949	-0.398909	-0.754031
C40	C	-4.147940	-0.398174	-0.848967
C41	C	-3.869312	-0.050702	-0.572635
C42	C	-3.985084	-0.283566	-0.598623
C43	C	-4.153372	0.060293	-0.274039
C44	C	-4.070018	0.201572	-0.274807
C45	C	-4.181586	-0.163106	-0.113901
C46	C	-4.116171	-0.163852	-0.012857
H47	H	-3.995451	-0.461641	-0.443276
F48	F	-4.237030	-0.404177	-1.042735
F49	F	-3.877178	0.191844	-0.833680
H50	H	-4.131451	-0.615451	-0.593672
H51	H	-3.890962	-0.715915	0.042634
H52	H	-4.135990	-0.494004	-0.725951
H53	H	-3.813392	-0.388043	-0.110311
F54	F	-3.765561	-0.453879	0.062067
H55	H	-4.026913	-0.869720	-0.107743
F56	F	-3.790433	0.190366	-0.637701
F57	F	-3.998046	0.076506	-0.989079
H58	H	-4.015116	-0.378675	-0.570564
H59	H	-4.208952	-0.943318	-0.440709
F60	F	-4.256896	-0.877485	-0.613101
H61	H	-4.212162	-0.492675	-0.898206
H62	H	-3.805108	0.043803	-0.523409
