data_functionalizedCrystal
_audit_creation_method	'MofGen! by Chris Wilmer'
_symmetry_space_group_name_H-M	'P1'
_symmetry_Int_Tables_number	1
_symmetry_cell_setting	triclinic
loop_
_symmetry_equiv_pos_as_xyz
  x,y,z
_cell_length_a	14.971482
_cell_length_b	16.974885
_cell_length_c	15.455322
_cell_angle_alpha	96.310867
_cell_angle_beta	87.315739
_cell_angle_gamma	83.503967
loop_
_atom_site_label
_atom_site_type_symbol
_atom_site_fract_x
_atom_site_fract_y
_atom_site_fract_z
O1	O	1.190238	0.099907	-0.065109
O2	O	1.523572	0.433240	0.268224
O3	O	1.856905	0.766573	0.601557
O4	O	0.929761	0.112291	-0.064245
O5	O	1.263094	0.445624	0.269089
O6	O	1.596427	0.778957	0.602422
O7	O	1.067701	-0.009384	-0.072774
O8	O	1.401034	0.323949	0.260559
O9	O	1.734367	0.657283	0.593892
O10	O	1.052298	0.221582	-0.056580
O11	O	1.385632	0.554915	0.276753
O12	O	1.718965	0.888248	0.610087
O13	O	1.059812	-0.002454	0.071974
O14	O	1.393145	0.330879	0.405307
O15	O	1.726478	0.664212	0.738640
O16	O	0.921872	0.119221	0.080503
O17	O	1.255205	0.452554	0.413836
O18	O	1.588538	0.785887	0.747170
O19	O	1.182349	0.106837	0.079638
O20	O	1.515683	0.440170	0.412972
O21	O	1.849016	0.773503	0.746305
Cu22	Cu	1.051390	0.113661	0.093287
Cu23	Cu	1.384723	0.446995	0.426621
Cu24	Cu	1.718057	0.780328	0.759954
Cu25	Cu	1.060720	0.105466	-0.077894
Cu26	Cu	1.394053	0.438799	0.255440
Cu27	Cu	1.727386	0.772133	0.588773
O28	O	1.044409	0.228511	0.088168
O29	O	1.377743	0.561845	0.421501
O30	O	1.711076	0.895178	0.754835
C31	C	0.892495	0.115202	0.008090
C32	C	1.225828	0.448536	0.341423
C33	C	1.559161	0.781869	0.674757
C34	C	0.793208	0.113544	0.007972
C35	C	1.126541	0.446877	0.341305
C36	C	1.459875	0.780211	0.674639
C37	C	0.742268	0.116541	0.086820
C38	C	1.075601	0.449874	0.420154
C39	C	1.408935	0.783207	0.753487
C40	C	0.648979	0.114970	0.086711
C41	C	0.982313	0.448303	0.420044
C42	C	1.315646	0.781637	0.753378
C43	C	0.606631	0.110409	0.007753
C44	C	0.939965	0.443742	0.341086
C45	C	1.273298	0.777075	0.674420
C46	C	0.657579	0.107409	-0.071101
C47	C	0.990912	0.440743	0.262232
C48	C	1.324245	0.774076	0.595565
C49	C	0.750867	0.108974	-0.070992
C50	C	1.084200	0.442308	0.262342
C51	C	1.417533	0.775641	0.595675
C52	C	0.463137	0.104150	-0.071324
C53	C	0.796470	0.437483	0.262009
C54	C	1.129804	0.770816	0.595342
C55	C	0.369842	0.102586	-0.071434
C56	C	0.703176	0.435920	0.261899
C57	C	1.036509	0.769253	0.595232
C58	C	0.361250	0.110146	0.086378
C59	C	0.694583	0.443479	0.419712
C60	C	1.027916	0.776812	0.753045
C61	C	0.454537	0.111710	0.086488
C62	C	0.787871	0.445044	0.419822
C63	C	1.121204	0.778377	0.753155
C64	C	0.505478	0.108713	0.007633
C65	C	0.838811	0.442046	0.340967
C66	C	1.172145	0.775379	0.674300
C67	C	1.063317	-0.035477	-0.002475
C68	C	1.396650	0.297856	0.330859
C69	C	1.729983	0.631190	0.664192
C70	C	1.061997	-0.123550	-0.008656
C71	C	1.395330	0.209783	0.324678
C72	C	1.728663	0.543116	0.658011
C73	C	1.057074	-0.161157	0.067339
C74	C	1.390408	0.172176	0.400672
C75	C	1.723741	0.505510	0.734005
C76	C	1.055840	-0.243912	0.061523
C77	C	1.389174	0.089421	0.394857
C78	C	1.722507	0.422755	0.728190
C79	C	1.059522	-0.289058	-0.020287
C80	C	1.392856	0.044275	0.313046
C81	C	1.726189	0.377608	0.646380
C82	C	1.064448	-0.251446	-0.096287
C83	C	1.397781	0.081887	0.237046
C84	C	1.731114	0.415220	0.570380
C85	C	1.065688	-0.168693	-0.090471
C86	C	1.399021	0.164640	0.242862
C87	C	1.732355	0.497973	0.576196
C88	C	1.056279	-0.536958	-0.046142
C89	C	1.389613	-0.203625	0.287191
C90	C	1.722946	0.129709	0.620524
C91	C	1.055036	-0.619716	-0.051953
C92	C	1.388369	-0.286383	0.281381
C93	C	1.721703	0.046951	0.614714
C94	C	1.046430	-0.612176	0.105859
C95	C	1.379764	-0.278843	0.439192
C96	C	1.713097	0.054490	0.772525
C97	C	1.047666	-0.529422	0.111667
C98	C	1.380999	-0.196088	0.445001
C99	C	1.714332	0.137245	0.778334
C100	C	1.052596	-0.491817	0.035667
C101	C	1.385929	-0.158484	0.369001
C102	C	1.719263	0.174849	0.702334
N103	N	1.058258	-0.373647	-0.026233
N104	N	1.391591	-0.040314	0.307100
N105	N	1.724925	0.293020	0.640434
N106	N	1.053866	-0.407231	0.041614
N107	N	1.387200	-0.073897	0.374948
N108	N	1.720533	0.259436	0.708281
C109	C	1.219615	0.103925	0.007302
C110	C	1.552949	0.437258	0.340635
C111	C	1.886282	0.770592	0.673969
C112	C	1.318902	0.105583	0.007414
C113	C	1.652236	0.438916	0.340747
C114	C	1.985569	0.772250	0.674081
C115	C	1.048793	0.254604	0.017866
C116	C	1.382127	0.587938	0.351200
C117	C	1.715460	0.921271	0.684533
C118	C	1.050114	0.342677	0.024042
C119	C	1.383447	0.676010	0.357375
C120	C	1.716780	1.009344	0.690708
N121	N	1.044835	0.119425	0.213687
N122	N	1.378168	0.452758	0.547020
N123	N	1.711501	0.786092	0.880354
C124	C	1.103456	0.067753	0.255459
C125	C	1.436790	0.401086	0.588792
C126	C	1.770123	0.734419	0.922125
C127	C	1.098507	0.072119	0.346573
C128	C	1.431840	0.405452	0.679906
C129	C	1.765174	0.738785	1.013239
C130	C	1.034940	0.128162	0.395914
C131	C	1.368273	0.461495	0.729247
C132	C	1.701606	0.794828	1.062580
C133	C	0.976312	0.179836	0.354136
C134	C	1.309645	0.513170	0.687469
C135	C	1.642978	0.846503	1.020802
C136	C	0.981258	0.175466	0.263023
C137	C	1.314591	0.508799	0.596356
C138	C	1.647924	0.842133	0.929690
C139	C	1.013593	0.147005	0.668816
C140	C	1.346926	0.480338	1.002149
C141	C	1.680260	0.813671	1.335483
C142	C	1.008653	0.151373	0.759935
C143	C	1.341987	0.484706	1.093268
C144	C	1.675320	0.818040	1.426601
C145	C	1.130848	0.043654	0.752366
C146	C	1.464181	0.376987	1.085699
C147	C	1.797515	0.710320	1.419032
C148	C	1.135792	0.039291	0.661252
C149	C	1.469125	0.372625	0.994585
C150	C	1.802458	0.705958	1.327918
C151	C	1.077161	0.090963	0.619482
C152	C	1.410494	0.424297	0.952815
C153	C	1.743827	0.757630	1.286148
N154	N	1.029881	0.132628	0.489047
N155	N	1.363214	0.465961	0.822380
N156	N	1.696548	0.799294	1.155714
N157	N	1.082216	0.086493	0.526350
N158	N	1.415549	0.419826	0.859683
N159	N	1.748883	0.753160	1.193016
N160	N	1.067275	0.099700	0.801707
N161	N	1.400608	0.433034	1.135040
N162	N	1.733942	0.766367	1.468373
H163	H	0.504610	0.101709	-0.135536
H164	H	0.837944	0.435042	0.197797
H165	H	1.171277	0.768376	0.531130
H166	H	1.155223	0.022120	0.215291
H167	H	1.488557	0.355453	0.548625
H168	H	1.821890	0.688786	0.881958
H169	H	1.054061	-0.124403	0.133958
H170	H	1.387395	0.208931	0.467291
H171	H	1.720728	0.542264	0.800625
H172	H	0.924549	0.225465	0.394314
H173	H	1.257883	0.558799	0.727647
H174	H	1.591216	0.892132	1.060981
H175	H	0.607510	0.117397	0.150916
H176	H	0.940843	0.450730	0.484250
H177	H	1.274176	0.784064	0.817583
Br178	Br	1.222065	-0.036764	0.594288
Br179	Br	1.555399	0.296569	0.927621
Br180	Br	1.888732	0.629903	1.260955
Br181	Br	1.210413	-0.026470	0.809057
Br182	Br	1.543746	0.306863	1.142390
Br183	Br	1.877080	0.640196	1.475724
H184	H	1.042418	-0.642803	0.167733
H185	H	1.375751	-0.309469	0.501067
H186	H	1.709084	0.023864	0.834400
Br187	Br	1.049160	-0.294947	0.164664
Br188	Br	1.382494	0.038386	0.497997
Br189	Br	1.715827	0.371720	0.831330
Br190	Br	1.062968	-0.485934	-0.149286
Br191	Br	1.396302	-0.152601	0.184047
Br192	Br	1.729635	0.180733	0.517380
Br193	Br	0.922379	0.227442	0.826893
Br194	Br	1.255712	0.560775	1.160226
Br195	Br	1.589046	0.894108	1.493559
Br196	Br	0.600113	0.101184	-0.178263
Br197	Br	0.933447	0.434517	0.155071
Br198	Br	1.266780	0.767850	0.488404
Br199	Br	0.934027	0.217130	0.612132
Br200	Br	1.267360	0.550463	0.945466
Br201	Br	1.600693	0.883797	1.278799
Br202	Br	1.042639	-0.468153	0.222700
Br203	Br	1.375972	-0.134820	0.556034
Br204	Br	1.709306	0.198513	0.889367
Br205	Br	0.799729	0.122740	0.193984
Br206	Br	1.133063	0.456073	0.527318
Br207	Br	1.466396	0.789406	0.860651
Br208	Br	1.069460	-0.312717	-0.207317
Br209	Br	1.402794	0.020616	0.126016
Br210	Br	1.736127	0.353950	0.459349
H211	H	0.933521	0.217542	0.229013
H212	H	1.266854	0.550875	0.562347
H213	H	1.600187	0.884209	0.895680
Br214	Br	1.072377	-0.117656	-0.193611
Br215	Br	1.405711	0.215678	0.139723
Br216	Br	1.739044	0.549011	0.473056
Br217	Br	1.060024	-0.680985	-0.162989
Br218	Br	1.393358	-0.347652	0.170345
Br219	Br	1.726691	-0.014319	0.503678
Br220	Br	0.312370	0.096396	-0.178592
Br221	Br	0.645704	0.429729	0.154741
Br222	Br	0.979037	0.763063	0.488074
Br223	Br	1.178063	0.001988	0.403266
Br224	Br	1.511396	0.335322	0.736599
Br225	Br	1.844729	0.668655	1.069933
H226	H	0.489013	0.115430	0.150783
H227	H	0.822347	0.448763	0.484116
H228	H	1.155680	0.782096	0.817450
H229	H	0.319769	0.112587	0.150585
H230	H	0.653102	0.445920	0.483918
H231	H	0.986436	0.779253	0.817252
Br232	Br	0.820002	0.104900	-0.178005
Br233	Br	1.153336	0.438234	0.155329
Br234	Br	1.486669	0.771567	0.488662
