data_functionalizedCrystal
_audit_creation_method	'MofGen! by Chris Wilmer'
_symmetry_space_group_name_H-M	'P1'
_symmetry_Int_Tables_number	1
_symmetry_cell_setting	triclinic
loop_
_symmetry_equiv_pos_as_xyz
  x,y,z
_cell_length_a	9.065218
_cell_length_b	8.140239
_cell_length_c	9.065215
_cell_angle_alpha	90.002571
_cell_angle_beta	94.984675
_cell_angle_gamma	89.995101
loop_
_atom_site_label
_atom_site_type_symbol
_atom_site_fract_x
_atom_site_fract_y
_atom_site_fract_z
O1	O	-1.960396	0.136694	0.216356
O2	O	-1.460396	0.636694	0.716356
O3	O	-1.531111	0.136678	0.234102
O4	O	-1.031111	0.636678	0.734102
O5	O	-1.754629	0.136680	0.010586
O6	O	-1.254629	0.636680	0.510586
O7	O	-1.736878	0.136693	0.439872
O8	O	-1.236878	0.636693	0.939872
O9	O	-1.754616	-0.136548	0.010584
O10	O	-1.254616	0.363452	0.510584
O11	O	-1.531098	-0.136549	0.234100
O12	O	-1.031098	0.363451	0.734100
O13	O	-1.960383	-0.136533	0.216353
O14	O	-1.460383	0.363467	0.716353
Zn15	Zn	-1.745739	-0.179922	0.225226
Zn16	Zn	-1.245739	0.320078	0.725226
Zn17	Zn	-1.745755	0.180067	0.225230
Zn18	Zn	-1.245755	0.680067	0.725230
O19	O	-1.736865	-0.136534	0.439869
O20	O	-1.236865	0.363466	0.939869
C21	C	-1.476118	0.000063	0.232395
C22	C	-0.976118	0.500063	0.732395
C23	C	-1.312275	0.000057	0.227296
C24	C	-0.812275	0.500057	0.727296
N25	N	-1.745738	-0.425604	0.225223
N26	N	-1.245738	0.074396	0.725223
C27	C	-1.752917	0.000068	-0.044402
C28	C	-1.252917	0.500068	0.455598
C29	C	-1.747819	0.000072	-0.208245
C30	C	-1.247819	0.500072	0.291755
C31	C	-1.015376	0.000076	0.218060
C32	C	-0.515376	0.500076	0.718060
C33	C	-1.179219	0.000062	0.223159
C34	C	-0.679219	0.500062	0.723159
N35	N	-1.745767	0.425750	0.225221
N36	N	-1.245767	0.925750	0.725221
C37	C	-1.738576	0.000081	0.494857
C38	C	-1.238576	0.500081	0.994857
C39	C	-1.743674	0.000087	0.658700
C40	C	-1.243674	0.500087	1.158700
