data_functionalizedCrystal
_audit_creation_method	'MofGen! by Chris Wilmer'
_symmetry_space_group_name_H-M	'P1'
_symmetry_Int_Tables_number	1
_symmetry_cell_setting	triclinic
loop_
_symmetry_equiv_pos_as_xyz
  x,y,z
_cell_length_a	25.639242
_cell_length_b	19.077078
_cell_length_c	19.076919
_cell_angle_alpha	85.531530
_cell_angle_beta	87.727009
_cell_angle_gamma	92.323835
loop_
_atom_site_label
_atom_site_type_symbol
_atom_site_fract_x
_atom_site_fract_y
_atom_site_fract_z
Zn1	Zn	0.778183	-0.296781	0.409993
Zn2	Zn	0.778116	-0.409935	0.296833
Zn3	Zn	0.694414	-0.292055	0.292106
Zn4	Zn	0.687063	-0.414620	0.414658
O5	O	0.734444	-0.353348	0.353397
O6	O	0.851338	-0.311809	0.395007
O7	O	0.770061	-0.390359	0.197559
O8	O	0.708630	-0.194033	0.303813
O9	O	0.851289	-0.394942	0.311869
O10	O	0.770175	-0.197506	0.390424
O11	O	0.708566	-0.303753	0.194087
O12	O	0.620275	-0.308296	0.308337
O13	O	0.696102	-0.402927	0.512685
O14	O	0.614874	-0.398344	0.398376
O15	O	0.763048	-0.316352	0.509258
O16	O	0.762934	-0.509205	0.316393
O17	O	0.696037	-0.512647	0.402959
C18	C	0.728694	-0.536505	0.360711
C19	C	0.726282	-0.614861	0.363863
C20	C	0.598604	-0.353316	0.353350
C21	C	0.540490	-0.353320	0.353347
C22	C	0.708974	-1.056122	0.386498
C23	C	0.711241	-0.982497	0.383528
C24	C	0.747228	-0.943873	0.337005
C25	C	0.780954	-0.978877	0.293455
C26	C	0.778689	-1.052501	0.296428
C27	C	0.757742	-0.723489	0.323286
C28	C	0.760004	-0.649860	0.320314
C29	C	0.690291	-0.653485	0.410389
C30	C	0.688027	-0.727110	0.413355
C31	C	0.721755	-0.762108	0.369807
N32	N	0.749545	-0.868617	0.333967
N33	N	0.719440	-0.837363	0.372849
C34	C	0.292097	-0.306388	0.306589
C35	C	0.346702	-0.306381	0.306580
O36	O	0.377323	-0.266434	0.266783
N37	N	0.371215	-0.353330	0.353383
C38	C	0.341119	-0.400285	0.400204
O39	O	0.366983	-0.440218	0.440013
C40	C	0.286515	-0.400288	0.400216
C41	C	0.262006	-0.353340	0.353405
C42	C	0.267588	-0.259443	0.259782
C43	C	0.212987	-0.259451	0.259791
C44	C	0.182895	-0.306404	0.306606
C45	C	0.207405	-0.353348	0.353413
C46	C	0.256421	-0.447238	0.447039
C47	C	0.201814	-0.447237	0.447048
C48	C	0.177304	-0.400289	0.400236
C49	C	0.122713	-0.400308	0.400237
N50	N	0.098200	-0.353359	0.353434
C51	C	0.128291	-0.306407	0.306618
C52	C	0.455791	-0.400274	0.400176
C53	C	0.510394	-0.400275	0.400161
C54	C	0.515973	-0.306370	0.306538
C55	C	0.461369	-0.306373	0.306550
C56	C	0.431279	-0.353325	0.353372
C57	C	0.013625	-0.306427	0.306639
C58	C	-0.040981	-0.306441	0.306650
C59	C	-0.046555	-0.400344	0.400275
C60	C	0.008046	-0.400332	0.400262
C61	C	0.038135	-0.353368	0.353442
O62	O	0.092059	-0.440233	0.440016
O63	O	0.102421	-0.266474	0.266822
C64	C	0.870815	-0.353380	0.353445
C65	C	0.928928	-0.353394	0.353465
C66	C	0.728762	-0.360689	0.537265
C67	C	0.726341	-0.363818	0.615618
C68	C	0.740230	-0.169476	0.346071
C69	C	0.742696	-0.091121	0.342949
C70	C	0.740136	-0.345984	0.170243
C71	C	0.742664	-0.342657	0.091883
C72	C	0.760057	-0.320214	0.650645
C73	C	0.757775	-0.323151	0.724266
C74	C	0.721781	-0.369695	0.762859
C75	C	0.688061	-0.413300	0.727827
C76	C	0.690340	-0.410359	0.654207
C77	C	0.711224	-0.383321	0.983230
C78	C	0.708949	-0.386260	1.056855
C79	C	0.778662	-0.296110	1.053290
C80	C	0.780940	-0.293176	0.979669
C81	C	0.747219	-0.336778	0.944643
N82	N	0.719449	-0.372700	0.838112
N83	N	0.749549	-0.333769	0.869391
H84	H	0.679670	-1.087564	0.424382
N85	N	0.798887	-0.270020	0.609025
H86	H	0.795219	-0.274776	0.557072
H87	H	0.835479	-0.281527	0.622356
H88	H	-0.060934	-0.268210	0.268529
H89	H	0.785204	-0.751975	0.287823
H90	H	0.658717	-0.758552	0.451231
N91	N	0.815030	-0.249082	1.091067
H92	H	0.808126	-0.258005	1.143561
H93	H	0.808874	-0.198220	1.076188
N94	N	0.046076	-0.255782	0.256138
H95	H	0.068873	-0.224296	0.283526
H96	H	0.022225	-0.226095	0.226499
N97	N	0.670126	-0.436466	1.098483
H98	H	0.649109	-0.463641	1.065124
H99	H	0.645891	-0.408983	1.127879
N100	N	0.186563	-0.208798	0.209309
H101	H	0.164054	-0.177321	0.236716
H102	H	0.164040	-0.236126	0.177741
H103	H	0.810258	-0.947426	0.255577
H104	H	0.806150	-1.080996	0.260968
H105	H	0.789310	-0.618416	0.282427
N106	N	0.674849	-0.430357	0.945478
H107	H	0.696005	-0.461818	0.916241
H108	H	0.652468	-0.400439	0.913825
N109	N	0.794130	-0.276109	0.762046
H110	H	0.817277	-0.246176	0.726426
H111	H	0.816479	-0.306018	0.793754
H112	H	0.658752	-0.451195	0.759255
N113	N	0.653980	-0.457390	0.616419
H114	H	0.631600	-0.427512	0.584724
H115	H	0.630865	-0.487317	0.652078
H116	H	0.292083	-0.221205	0.221659
H117	H	0.810253	-0.255277	0.948251
H118	H	0.683782	-0.954001	0.418990
H119	H	0.662832	-0.624983	0.445844
H120	H	0.540483	-0.268138	0.268419
N121	N	0.434936	-0.255738	0.256061
H122	H	0.462289	-0.225997	0.226403
H123	H	0.412422	-0.224304	0.283511
N124	N	0.536822	-0.450923	0.450642
H125	H	0.526114	-0.442066	0.500594
H126	H	0.575974	-0.443777	0.443478
N127	N	0.423336	-0.450928	0.450669
H128	H	0.431639	-0.442074	0.500619
H129	H	0.431619	-0.500812	0.441578
N130	N	0.282848	-0.497877	0.497528
H131	H	0.255492	-0.527614	0.527184
H132	H	0.305398	-0.470536	0.529052
H133	H	0.177317	-0.485469	0.485179
H134	H	0.028003	-0.438566	0.438375
H135	H	-0.071065	-0.438573	0.438389
