data_functionalizedCrystal
_audit_creation_method	'MofGen! by Chris Wilmer'
_symmetry_space_group_name_H-M	'P1'
_symmetry_Int_Tables_number	1
_symmetry_cell_setting	triclinic
loop_
_symmetry_equiv_pos_as_xyz
  x,y,z
_cell_length_a	34.490303
_cell_length_b	34.489386
_cell_length_c	34.485816
_cell_angle_alpha	60.004462
_cell_angle_beta	60.008900
_cell_angle_gamma	59.994399
loop_
_atom_site_label
_atom_site_type_symbol
_atom_site_fract_x
_atom_site_fract_y
_atom_site_fract_z
O1	O	0.053846	-0.566517	0.473678
O2	O	0.553846	-0.066517	0.973678
O3	O	0.020329	-0.441078	0.381663
O4	O	0.520329	0.058922	0.881663
O5	O	0.099768	-0.520436	0.381578
O6	O	0.599768	-0.020436	0.881578
O7	O	-0.025592	-0.487159	0.473762
O8	O	0.474408	0.012841	0.973762
O9	O	0.126127	-0.494082	0.407849
O10	O	0.626127	0.005918	0.907849
O11	O	0.046689	-0.414724	0.407933
O12	O	0.546689	0.085276	0.907933
O13	O	0.080206	-0.540163	0.499949
O14	O	0.580206	-0.040163	0.999949
Zn15	Zn	0.067632	-0.473259	0.458112
Zn16	Zn	0.567632	0.026741	0.958112
Zn17	Zn	0.032903	-0.507982	0.423499
Zn18	Zn	0.532903	-0.007982	0.923499
O19	O	0.000767	-0.460805	0.500033
O20	O	0.500767	0.039195	1.000033
N21	N	0.091336	-0.449565	0.481736
N22	N	0.591336	0.050435	0.981736
N23	N	0.009203	-0.531680	0.399875
N24	N	0.509203	-0.031680	0.899875
C25	C	0.142510	-0.268211	0.532817
C26	C	0.642510	0.231789	1.032817
C27	C	0.142641	-0.398441	0.662987
C28	C	0.642641	0.101559	1.162987
C29	C	0.142524	-0.398421	0.532817
C30	C	0.642524	0.101579	1.032817
C31	C	0.272762	-0.398394	0.532723
C32	C	0.772762	0.101606	1.032723
C33	C	0.156853	-0.311177	0.547124
C34	C	0.656853	0.188823	1.047124
C35	C	0.156928	-0.384109	0.620020
C36	C	0.656928	0.115891	1.120020
C37	C	0.229794	-0.384081	0.547073
C38	C	0.729794	0.115919	1.047073
C39	C	0.156863	-0.384097	0.547124
C40	C	0.656863	0.115903	1.047124
C41	C	0.124253	-0.213522	0.514606
C42	C	0.624253	0.286478	1.014606
C43	C	0.124277	-0.416652	0.514606
C44	C	0.624277	0.083348	1.014606
C45	C	0.175110	-0.365866	0.565335
C46	C	0.675110	0.134134	1.065335
C47	C	0.352285	-0.384669	0.490824
C48	C	0.852285	0.115331	0.990824
C49	C	0.401998	-0.401229	0.474223
C50	C	0.901998	0.098771	0.974223
C51	C	0.402027	-0.481671	0.504898
C52	C	0.902027	0.018329	1.004898
C53	C	0.352316	-0.465109	0.521500
C54	C	0.852316	0.034891	1.021500
C55	C	0.136220	-0.188652	0.465734
C56	C	0.636220	0.311348	0.965734
C57	C	0.119621	-0.138936	0.449181
C58	C	0.619621	0.361064	0.949181
C59	C	0.079092	-0.138961	0.530374
C60	C	0.579092	0.361039	1.030374
C61	C	0.095691	-0.188678	0.546927
C62	C	0.595691	0.311322	1.046927
C63	C	0.075398	-0.404656	0.526651
C64	C	0.575398	0.095344	1.026651
C65	C	0.058814	-0.421229	0.510091
C66	C	0.558814	0.078771	1.010091
C67	C	0.139984	-0.461794	0.469452
C68	C	0.639984	0.038206	0.969452
C69	C	0.156570	-0.445221	0.486007
C70	C	0.656570	0.054779	0.986007
C71	C	0.075593	-0.404694	0.742565
C72	C	0.575593	0.095306	1.242565
C73	C	0.059066	-0.421281	0.792280
C74	C	0.559066	0.078719	1.292280
C75	C	0.140274	-0.461856	0.792215
C76	C	0.640274	0.038144	1.292215
C77	C	0.156800	-0.445269	0.742499
C78	C	0.656800	0.054731	1.242499
C79	C	0.124458	-0.416687	0.717675
C80	C	0.624458	0.083313	1.217675
C81	C	0.327446	-0.416608	0.514460
C82	C	0.827446	0.083392	1.014460
C83	C	-0.023585	-0.564792	0.161919
C84	C	0.476415	-0.064792	0.661919
C85	C	-0.023910	-0.769260	0.366530
C86	C	0.476090	-0.269260	0.866530
C87	C	-0.023880	-0.564780	0.366623
C88	C	0.476120	-0.064780	0.866623
C89	C	-0.228325	-0.564561	0.366222
C90	C	0.271675	-0.064561	0.866222
C91	C	-0.129610	-0.597564	0.333467
C92	C	0.370390	-0.097564	0.833467
C93	C	-0.056729	-0.597644	0.333613
C94	C	0.443271	-0.097644	0.833613
C95	C	-0.074925	-0.615849	0.315324
C96	C	0.425075	-0.115849	0.815324
C97	C	-0.088689	-0.695351	0.357144
C98	C	0.411311	-0.195351	0.857144
C99	C	-0.072155	-0.745068	0.373736
C100	C	0.427845	-0.245068	0.873736
C101	C	0.008283	-0.745150	0.343188
C102	C	0.508283	-0.245150	0.843188
C103	C	-0.008252	-0.695435	0.326596
C104	C	0.491748	-0.195435	0.826596
C105	C	-0.154529	-0.609541	0.382326
C106	C	0.345471	-0.109541	0.882326
C107	C	-0.204241	-0.592916	0.398818
C108	C	0.295759	-0.092916	0.898818
C109	C	-0.204114	-0.552341	0.317588
C110	C	0.295886	-0.052341	0.817588
C111	C	-0.154401	-0.568966	0.301096
C112	C	0.345599	-0.068966	0.801096
C113	C	-0.068707	-0.548770	0.321590
C114	C	0.431293	-0.048770	0.821590
C115	C	-0.052166	-0.532225	0.338221
C116	C	0.447834	-0.032225	0.838221
C117	C	-0.011669	-0.613425	0.378886
C118	C	0.488331	-0.113425	0.878886
C119	C	-0.028210	-0.629972	0.362261
C120	C	0.471790	-0.129972	0.862261
C121	C	-0.068581	-0.548777	0.235758
C122	C	0.431419	-0.048777	0.735758
C123	C	-0.051939	-0.532234	0.186043
C124	C	0.448061	-0.032234	0.686043
C125	C	-0.011379	-0.613438	0.186090
C126	C	0.488621	-0.113438	0.686090
C127	C	-0.028020	-0.629981	0.235806
C128	C	0.471980	-0.129981	0.735806
C129	C	-0.056622	-0.597649	0.260639
C130	C	0.443378	-0.097649	0.760639
C131	C	-0.056739	-0.670537	0.333576
C132	C	0.443261	-0.170537	0.833576
C133	C	-0.005614	-0.545951	0.107238
C134	C	0.494386	-0.045951	0.607238
C135	C	-0.006360	-0.823943	0.385033
C136	C	0.493640	-0.323943	0.885033
C137	C	-0.005995	-0.545937	0.384582
C138	C	0.494005	-0.045937	0.884582
C139	C	-0.283006	-0.545971	0.383725
C140	C	0.216994	-0.045971	0.883725
N141	N	0.426163	-0.449489	0.481488
N142	N	0.926163	0.050511	0.981488
O143	O	0.588601	-0.457377	0.364497
O144	O	1.088601	0.042623	0.864497
O145	O	0.588789	-0.549696	0.489801
O146	O	1.088789	-0.049696	0.989801
O147	O	0.588709	-0.549485	0.410335
O148	O	1.088709	-0.049485	0.910335
O149	O	0.588681	-0.457588	0.443963
O150	O	1.088681	0.042412	0.943963
O151	O	0.509731	-0.523223	0.436741
O152	O	1.009731	-0.023223	0.936741
O153	O	0.509811	-0.523434	0.516207
O154	O	1.009811	-0.023434	1.016207
O155	O	0.509624	-0.431115	0.390903
O156	O	1.009624	0.068885	0.890903
Zn157	Zn	0.497178	-0.473105	0.457747
Zn158	Zn	0.997178	0.026895	0.957747
Zn159	Zn	0.601234	-0.507706	0.422956
Zn160	Zn	1.101234	-0.007706	0.922956
O161	O	0.509704	-0.431326	0.470368
O162	O	1.009704	0.068674	0.970368
N163	N	0.672250	-0.531322	0.399211
N164	N	1.172250	-0.031322	0.899211
N165	N	0.091303	-0.114798	0.481730
N166	N	0.591303	0.385202	0.981730
O167	O	-0.025603	0.047729	0.473733
O168	O	0.474397	0.547729	0.973733
O169	O	0.099703	0.047764	0.381394
O170	O	0.599703	0.547764	0.881394
O171	O	0.020199	0.047731	0.381655
O172	O	0.520199	0.547731	0.881655
O173	O	0.053901	0.047761	0.473472
O174	O	0.553901	0.547761	0.973472
O175	O	0.046564	-0.031252	0.407974
O176	O	0.546564	0.468748	0.907974
O177	O	0.126068	-0.031219	0.407713
O178	O	0.626068	0.468781	0.907713
O179	O	0.000762	-0.031254	0.500052
O180	O	0.500762	0.468746	1.000052
Zn181	Zn	0.067601	-0.043777	0.458061
Zn182	Zn	0.567601	0.456223	0.958061
Zn183	Zn	0.032864	0.060287	0.423385
Zn184	Zn	0.532864	0.560287	0.923385
O185	O	0.080266	-0.031222	0.499791
O186	O	0.580266	0.468778	0.999791
N187	N	0.009156	0.131307	0.399717
N188	N	0.509156	0.631307	0.899717
N189	N	0.091635	-0.449614	0.816396
N190	N	0.591635	0.050386	1.316396
O191	O	0.083664	-0.566502	0.978913
O192	O	0.583664	-0.066502	1.478913
O193	O	-0.008637	-0.441152	0.978954
O194	O	0.491363	0.058848	1.478954
O195	O	-0.008421	-0.520640	0.978930
O196	O	0.491579	-0.020640	1.478930
O197	O	0.083448	-0.487013	0.978936
O198	O	0.583448	0.012987	1.478936
O199	O	0.017877	-0.494296	0.899950
O200	O	0.517877	0.005704	1.399950
O201	O	0.017661	-0.414807	0.899974
O202	O	0.517661	0.085193	1.399974
O203	O	0.109961	-0.540157	0.899933
O204	O	0.609961	-0.040157	1.399933
Zn205	Zn	0.067986	-0.473299	0.887414
Zn206	Zn	0.567986	0.026701	1.387414
Zn207	Zn	0.033338	-0.508010	0.991473
Zn208	Zn	0.533338	-0.008010	1.491473
O209	O	0.109746	-0.460669	0.899956
O210	O	0.609746	0.039331	1.399956
N211	N	0.009689	-0.531700	1.062491
N212	N	0.509689	-0.031700	1.562491
C213	C	0.030367	-0.412095	0.382120
C214	C	0.530367	0.087905	0.882120
C215	C	0.128741	-0.510370	0.382016
C216	C	0.628741	-0.010370	0.882016
C217	C	0.070168	-0.569147	0.499490
C218	C	0.570168	-0.069147	0.999490
C219	C	-0.028207	-0.470871	0.499595
C220	C	0.471793	0.029129	0.999595
C221	C	0.549323	-0.549278	0.518791
C222	C	1.049323	-0.049278	1.018791
C223	C	0.549225	-0.549017	0.420381
C224	C	1.049225	-0.049017	0.920381
C225	C	0.549087	-0.431532	0.361914
C226	C	1.049087	0.068468	0.861914
C227	C	0.549188	-0.431794	0.460322
C228	C	1.049188	0.068206	0.960322
C229	C	0.128638	0.008374	0.381806
C230	C	0.628638	0.508374	0.881806
C231	C	0.030215	0.008236	0.382161
C232	C	0.530215	0.508236	0.882161
C233	C	-0.028206	0.008233	0.499608
C234	C	0.471794	0.508233	0.999608
C235	C	0.070250	0.008272	0.499285
C236	C	0.570250	0.508272	0.999285
C237	C	-0.008199	-0.412187	0.939469
C238	C	0.491801	0.087813	1.439469
C239	C	-0.007927	-0.510619	0.939425
C240	C	0.492073	-0.010619	1.439425
C241	C	0.109523	-0.569121	0.939417
C242	C	0.609523	-0.069121	1.439417
C243	C	0.109257	-0.470684	0.939444
C244	C	0.609257	0.029316	1.439444
H245	H	0.049253	-0.381417	0.722357
H246	H	0.549253	0.118583	1.222357
H247	H	0.077330	-0.605181	0.528391
H248	H	0.577330	-0.105181	1.028391
H249	H	-0.064213	-0.463781	0.528541
H250	H	0.435787	0.036219	1.028541
H251	H	0.166612	-0.485121	0.812425
H252	H	0.666612	0.014879	1.312425
O253	O	0.171657	-0.518832	0.347436
O254	O	0.671657	-0.018832	0.847436
C255	C	0.165401	-0.513500	0.307431
C256	C	0.665401	-0.013500	0.807431
H257	H	0.130613	-0.518726	0.318878
H258	H	0.630613	-0.018726	0.818878
H259	H	0.196190	-0.541089	0.290483
H260	H	0.696190	-0.041089	0.790483
H261	H	0.164342	-0.476376	0.280584
H262	H	0.664342	0.023624	0.780584
O263	O	-0.071173	0.008313	0.534149
O264	O	0.428827	0.508313	1.034149
C265	C	-0.106992	0.049206	0.517921
C266	C	0.393008	0.549206	1.017921
H267	H	-0.090823	0.077798	0.488338
H268	H	0.409177	0.577798	0.988338
H269	H	-0.135323	0.062941	0.548536
H270	H	0.364677	0.562941	1.048536
H271	H	-0.123794	0.039948	0.503768
H272	H	0.376206	0.539948	1.003768
O273	O	0.021877	-0.369088	0.347652
O274	O	0.521877	0.130912	0.847652
C275	C	0.054465	-0.347992	0.334839
C276	C	0.554465	0.152008	0.834839
H277	H	0.068371	-0.363717	0.365272
H278	H	0.568371	0.136283	0.865272
H279	H	0.035990	-0.308046	0.327087
H280	H	0.535990	0.191954	0.827087
H281	H	0.085384	-0.355154	0.301799
H282	H	0.585384	0.144846	0.801799
O283	O	0.143705	-0.462052	0.939355
O284	O	0.643705	0.037948	1.439355
C285	C	0.154583	-0.423583	0.898462
C286	C	0.654583	0.076417	1.398462
H287	H	0.144140	-0.419841	0.869875
H288	H	0.644140	0.080159	1.369875
H289	H	0.194314	-0.430268	0.884722
H290	H	0.694314	0.069732	1.384722
H291	H	0.134093	-0.389534	0.907722
H292	H	0.634093	0.110466	1.407722
H293	H	-0.037176	-0.376187	0.939482
H294	H	0.462824	0.123813	1.439482
H295	H	0.549371	-0.578259	0.554780
H296	H	1.049371	-0.078259	1.054780
O297	O	0.055380	-0.769393	0.336386
O298	O	0.555380	-0.269393	0.836386
C299	C	0.072633	-0.798151	0.309335
C300	C	0.572633	-0.298151	0.809335
H301	H	0.041950	-0.805562	0.313170
H302	H	0.541950	-0.305562	0.813170
H303	H	0.100093	-0.833129	0.322575
H304	H	0.600093	-0.333129	0.822575
H305	H	0.089808	-0.779017	0.270388
H306	H	0.589808	-0.279017	0.770388
H307	H	-0.098172	-0.765271	0.392919
H308	H	0.401828	-0.265271	0.892919
O309	O	-0.042286	-0.519256	0.939361
O310	O	0.457714	-0.019256	1.439361
C311	C	-0.024986	-0.565938	0.939346
C312	C	0.475014	-0.065938	1.439346
H313	H	0.015463	-0.578440	0.924411
H314	H	0.515463	-0.078440	1.424411
H315	H	-0.039428	-0.566607	0.916386
H316	H	0.460572	-0.066607	1.416386
H317	H	-0.037004	-0.590514	0.977226
H318	H	0.462996	-0.090514	1.477226
H319	H	0.549237	-0.577886	0.413185
H320	H	1.049237	-0.077886	0.913185
O321	O	0.078811	0.008361	0.533688
O322	O	0.578811	0.508361	1.033688
C323	C	0.046252	0.049256	0.546486
C324	C	0.546252	0.549256	1.046486
H325	H	0.032302	0.077845	0.516076
H326	H	0.532302	0.577845	1.016076
H327	H	0.064771	0.062995	0.554161
H328	H	0.564771	0.562995	1.054161
H329	H	0.015358	0.039997	0.579568
H330	H	0.515358	0.539997	1.079568
H331	H	0.549027	-0.402547	0.325928
H332	H	1.049027	0.097453	0.825928
O333	O	0.144081	-0.612065	0.939338
O334	O	0.644081	-0.112065	1.439338
C335	C	0.155108	-0.620575	0.898420
C336	C	0.655108	-0.120575	1.398420
H337	H	0.123712	-0.598417	0.884790
H338	H	0.623712	-0.098417	1.384790
H339	H	0.162870	-0.659846	0.907606
H340	H	0.662870	-0.159846	1.407606
H341	H	0.187659	-0.610345	0.869776
H342	H	0.687659	-0.110345	1.369776
O343	O	0.011585	-0.409642	0.816401
O344	O	0.511585	0.090358	1.316401
C345	C	-0.009076	-0.426653	0.804279
C346	C	0.490924	0.073347	1.304279
H347	H	0.014470	-0.431515	0.768174
H348	H	0.514470	0.068485	1.268174
H349	H	-0.045654	-0.400010	0.802604
H350	H	0.454346	0.099990	1.302604
H351	H	-0.012752	-0.462186	0.832254
H352	H	0.487248	0.037814	1.332254
O353	O	0.204286	-0.456946	0.718396
O354	O	0.704286	0.043054	1.218396
C355	C	0.229285	-0.485736	0.750969
C356	C	0.729285	0.014264	1.250969
H357	H	0.205598	-0.479403	0.786416
H358	H	0.705598	0.020597	1.286416
H359	H	0.262455	-0.476407	0.736584
H360	H	0.762455	0.023593	1.236584
H361	H	0.240018	-0.524678	0.756245
H362	H	0.740018	-0.024678	1.256245
H363	H	0.049100	-0.381393	0.549936
H364	H	0.549100	0.118607	1.049936
O365	O	0.549156	-0.397397	0.468988
O366	O	1.049156	0.102603	0.968988
C367	C	0.549229	-0.414704	0.515650
C368	C	1.049229	0.085296	1.015650
H369	H	0.534316	-0.445210	0.538125
H370	H	1.034316	0.054790	1.038125
H371	H	0.526295	-0.384972	0.531647
H372	H	1.026295	0.115028	1.031647
H373	H	0.587131	-0.427923	0.514911
H374	H	1.087131	0.072077	1.014911
O375	O	0.171521	0.008585	0.347195
O376	O	0.671521	0.508585	0.847195
C377	C	0.207507	-0.032228	0.363224
C378	C	0.707507	0.467772	0.863224
H379	H	0.194586	-0.046022	0.403701
H380	H	0.694586	0.453978	0.903701
H381	H	0.240531	-0.022836	0.349300
H382	H	0.740531	0.477164	0.849300
H383	H	0.216502	-0.060827	0.349632
H384	H	0.716502	0.439173	0.849632
O385	O	0.011318	-0.409555	0.521854
O386	O	0.511318	0.090445	1.021854
C387	C	-0.013630	-0.380782	0.550643
C388	C	0.486370	0.119218	1.050643
H389	H	0.010104	-0.387124	0.568692
H390	H	0.510104	0.112876	1.068692
H391	H	-0.046784	-0.390121	0.578790
H392	H	0.453216	0.109879	1.078790
H393	H	-0.024384	-0.341836	0.527729
H394	H	0.475616	0.158164	1.027729
O395	O	0.171420	-0.489528	0.441661
O396	O	0.671420	0.010472	0.941661
C397	C	0.218118	-0.496573	0.434595
C398	C	0.718118	0.003427	0.934595
H399	H	0.218032	-0.466601	0.440148
H400	H	0.718032	0.033399	0.940148
H401	H	0.241693	-0.496822	0.396882
H402	H	0.741693	0.003178	0.896882
H403	H	0.232390	-0.531992	0.461039
H404	H	0.732390	-0.031992	0.961039
H405	H	0.196371	-0.454985	0.476195
H406	H	0.696371	0.045015	0.976195
O407	O	0.021622	0.008133	0.347788
O408	O	0.521622	0.508133	0.847788
C409	C	0.010451	-0.032782	0.364171
C410	C	0.510451	0.467218	0.864171
H411	H	0.025796	-0.061358	0.393655
H412	H	0.525796	0.438642	0.893655
H413	H	0.026288	-0.046525	0.333599
H414	H	0.526288	0.453475	0.833599
H415	H	-0.029763	-0.023548	0.378508
H416	H	0.470237	0.476452	0.878508
O417	O	0.328262	-0.496198	0.544433
O418	O	0.828262	0.003802	1.044433
C419	C	0.360877	-0.542558	0.547092
C420	C	0.860877	-0.042558	1.047092
H421	H	0.396297	-0.540655	0.517712
H422	H	0.896297	-0.040655	1.017712
H423	H	0.346509	-0.562968	0.542605
H424	H	0.846509	-0.062968	1.042605
H425	H	0.366199	-0.561537	0.583109
H426	H	0.866199	-0.061537	1.083109
H427	H	0.422223	-0.375220	0.454977
H428	H	0.922223	0.124780	0.954977
O429	O	0.426259	-0.528766	0.511675
O430	O	0.926259	-0.028766	1.011675
C431	C	0.475464	-0.536534	0.491964
C432	C	0.975464	-0.036534	0.991964
H433	H	0.482227	-0.502315	0.463468
H434	H	0.982227	-0.002315	0.963468
H435	H	0.494350	-0.565579	0.475438
H436	H	0.994350	-0.065579	0.975438
H437	H	0.489601	-0.547991	0.521047
H438	H	0.989601	-0.047991	1.021047
H439	H	0.332037	-0.345175	0.485091
H440	H	0.832037	0.154825	0.985091
H441	H	0.159477	-0.208876	0.439413
H442	H	0.659477	0.291124	0.939413
H443	H	0.129365	-0.118686	0.409385
H444	H	0.629365	0.381314	0.909385
H445	H	0.055841	-0.118733	0.556693
H446	H	0.555841	0.381267	1.056693
H447	H	0.085944	-0.208923	0.586721
H448	H	0.585944	0.291077	1.086721
H449	H	-0.061683	-0.492436	0.165791
H450	H	0.438317	0.007564	0.665791
H451	H	-0.091873	-0.522445	0.255974
H452	H	0.408127	-0.022445	0.755974
H453	H	0.011902	-0.639768	0.165877
H454	H	0.511902	-0.139768	0.665877
H455	H	-0.018278	-0.669778	0.256062
H456	H	0.481722	-0.169778	0.756062
H457	H	-0.091926	-0.522444	0.298262
H458	H	0.408074	-0.022444	0.798262
H459	H	-0.061921	-0.492427	0.328433
H460	H	0.438079	0.007573	0.828433
H461	H	0.011557	-0.639751	0.402207
H462	H	0.511557	-0.139751	0.902207
H463	H	0.017768	-0.675232	0.307405
H464	H	0.517768	-0.175232	0.807405
O465	O	-0.016595	-0.677457	0.374003
O466	O	0.483405	-0.177457	0.874003
C467	C	-0.033672	-0.698098	0.423791
C468	C	0.466328	-0.198098	0.923791
H469	H	-0.038561	-0.674548	0.441225
H470	H	0.461439	-0.174548	0.941225
H471	H	-0.007061	-0.734688	0.435442
H472	H	0.492939	-0.234688	0.935442
H473	H	-0.069200	-0.701750	0.434965
H474	H	0.430800	-0.201750	0.934965
O475	O	-0.135799	-0.671241	0.363930
O476	O	0.364201	-0.171241	0.863930
C477	C	-0.160452	-0.703808	0.388294
C478	C	0.339548	-0.203808	0.888294
H479	H	-0.134937	-0.739266	0.382597
H480	H	0.365063	-0.239266	0.882597
H481	H	-0.190384	-0.689426	0.374139
H482	H	0.309616	-0.189426	0.874139
H483	H	-0.175970	-0.709066	0.427846
H484	H	0.324030	-0.209066	0.927846
H485	H	-0.134345	-0.632833	0.408685
H486	H	0.365655	-0.132833	0.908685
H487	H	-0.224299	-0.529059	0.291228
H488	H	0.275701	-0.029059	0.791228
O489	O	-0.228431	-0.604633	0.446287
O490	O	0.271569	-0.104633	0.946287
C491	C	-0.216319	-0.654425	0.466947
C492	C	0.283681	-0.154425	0.966947
H493	H	-0.202614	-0.670457	0.438634
H494	H	0.297386	-0.170457	0.938634
H495	H	-0.249044	-0.663904	0.496206
H496	H	0.250956	-0.163904	0.996206
H497	H	-0.187505	-0.669176	0.482708
H498	H	0.312495	-0.169176	0.982708
O499	O	-0.130265	-0.557308	0.253616
O500	O	0.369735	-0.057308	0.753616
C501	C	-0.162807	-0.528491	0.228581
C502	C	0.337193	-0.028491	0.728581
H503	H	-0.198266	-0.534791	0.252238
H504	H	0.301734	-0.034791	0.752238
H505	H	-0.148402	-0.537824	0.195403
H506	H	0.351598	-0.037824	0.695403
H507	H	-0.168065	-0.489558	0.217860
H508	H	0.331935	0.010442	0.717860
