data_functionalizedCrystal
_audit_creation_method	'MofGen! by Chris Wilmer'
_symmetry_space_group_name_H-M	'P1'
_symmetry_Int_Tables_number	1
_symmetry_cell_setting	triclinic
loop_
_symmetry_equiv_pos_as_xyz
  x,y,z
_cell_length_a	31.640172
_cell_length_b	16.704494
_cell_length_c	16.704494
_cell_angle_alpha	60.174809
_cell_angle_beta	89.995619
_cell_angle_gamma	63.420255
loop_
_atom_site_label
_atom_site_type_symbol
_atom_site_fract_x
_atom_site_fract_y
_atom_site_fract_z
Zr1	Zr	0.434455	0.863813	-0.142486
O2	O	0.374652	1.017951	-0.271915
O3	O	0.449503	0.701026	-0.097154
O4	O	0.458092	0.851324	-0.263766
O5	O	0.363024	0.880521	0.019690
O6	O	0.527648	0.851310	-0.263770
O7	O	0.366063	0.867654	-0.105303
O8	O	0.512283	0.582454	0.034268
O9	O	0.378389	1.149376	-0.278347
O10	O	0.511798	0.771175	-0.084656
O11	O	0.457622	0.780788	0.008629
O12	O	0.467735	0.957745	-0.187535
O13	O	0.413558	0.967358	-0.094250
Zr14	Zr	0.540543	0.884313	0.056858
Zr15	Zr	0.545389	0.863790	-0.142493
Zr16	Zr	0.429609	0.884335	0.056865
Zr17	Zr	0.440415	1.073420	-0.152745
Zr18	Zr	0.534583	0.674705	0.067117
O19	O	0.525495	1.047099	0.011526
O20	O	0.532385	1.017920	-0.271925
O21	O	0.367762	1.047131	0.011536
O22	O	0.600346	0.730174	0.186287
O23	O	0.607236	0.700994	-0.097164
O24	O	0.442613	0.730206	0.186296
O25	O	0.611974	0.867604	-0.105319
O26	O	0.516906	0.896802	0.178137
O27	O	0.447350	0.896816	0.178142
O28	O	0.608935	0.880472	0.019675
O29	O	0.466567	1.149359	-0.278353
O30	O	0.508431	0.598767	0.192725
O31	O	0.596609	0.598749	0.192719
O32	O	0.600461	0.582437	0.034262
O33	O	0.374537	1.165689	-0.119890
O34	O	0.462715	1.165671	-0.119896
O35	O	0.507263	0.790381	0.101907
O36	O	0.561440	0.780767	0.008622
O37	O	0.517376	0.967337	-0.094257
O38	O	0.463200	0.976950	-0.000972
C39	C	0.480044	0.611876	-0.029981
C40	C	0.477514	0.522892	-0.025626
C41	C	0.529331	0.345630	-0.114825
C42	C	0.526955	0.262021	-0.110736
C43	C	0.470389	0.272059	-0.013352
C44	C	0.472765	0.355668	-0.017442
C45	C	0.502236	0.392451	-0.068181
C46	C	0.504609	0.476066	-0.072276
C47	C	0.448046	0.486098	0.025113
C48	C	0.445670	0.402489	0.029203
C49	C	0.348738	0.874091	-0.042805
C50	C	0.301644	0.874100	-0.042802
C51	C	0.011311	0.866954	-0.111671
C52	C	-0.165676	0.866939	-0.111677
O53	O	-0.187127	0.860862	-0.170215
N54	N	-0.189481	0.874030	-0.042818
C55	C	-0.169034	0.881118	0.026051
O56	O	-0.193340	0.887138	0.084626
C57	C	0.007954	0.881125	0.026060
C58	C	0.031753	0.874045	-0.042809
C59	C	0.035110	0.859873	-0.180534
C60	C	0.079353	0.859882	-0.180535
C61	C	0.099796	0.866973	-0.111673
C62	C	0.075996	0.874054	-0.042810
C63	C	0.028401	0.888205	0.094933
C64	C	0.072652	0.888204	0.094931
C65	C	0.096451	0.881123	0.026062
C66	C	0.140681	0.881155	0.026051
N67	N	0.164486	0.874064	-0.042808
C68	C	0.144043	0.866973	-0.111670
C69	C	-0.261956	0.881116	0.026040
C70	C	-0.306203	0.881116	0.026037
C71	C	-0.302841	0.866935	-0.111691
C72	C	-0.258595	0.866942	-0.111691
C73	C	-0.238151	0.874025	-0.042819
C74	C	0.236955	0.866995	-0.111667
C75	C	0.281201	0.867009	-0.111665
C76	C	0.277837	0.881185	0.026065
C77	C	0.233594	0.881176	0.026060
C78	C	0.213155	0.874076	-0.042810
O79	O	0.162163	0.887216	0.084565
O80	O	0.168362	0.860930	-0.170223
C81	C	-0.032932	0.866944	-0.111670
C82	C	-0.056732	0.874025	-0.042807
C83	C	-0.036289	0.881116	0.026055
C84	C	-0.100979	0.874025	-0.042810
C85	C	-0.121422	0.866935	-0.111672
C86	C	-0.097617	0.859844	-0.180531
C87	C	-0.053375	0.859853	-0.180532
C88	C	-0.060094	0.888207	0.094914
C89	C	-0.104336	0.888198	0.094909
C90	C	-0.124779	0.881107	0.026047
C91	C	0.626260	0.874035	-0.042823
C92	C	0.673354	0.874025	-0.042826
C93	C	0.493560	0.848393	-0.292171
C94	C	0.495618	0.839681	-0.376800
C95	C	0.494954	1.136250	-0.055647
C96	C	0.497484	1.225234	-0.060002
C97	C	0.453485	1.018105	-0.643245
C98	C	0.455416	1.009925	-0.722765
C99	C	0.501416	0.815139	-0.615361
C100	C	0.499484	0.823320	-0.535842
C101	C	0.475517	0.924806	-0.549788
C102	C	0.473582	0.932986	-0.470267
C103	C	0.519584	0.738202	-0.362866
C104	C	0.521516	0.730021	-0.442385
C105	C	0.481438	0.899733	0.206543
C106	C	0.479380	0.908445	0.291172
C107	C	0.618805	0.611848	-0.029990
C108	C	0.663369	0.522854	-0.025638
C109	C	0.473982	0.637546	0.219375
C110	C	0.469395	0.557274	0.308360
C111	C	0.612744	0.637518	0.219367
C112	C	0.655250	0.557236	0.308348
C113	C	0.362254	1.110608	-0.304995
C114	C	0.319748	1.190889	-0.393977
C115	C	0.356193	1.136278	-0.055638
C116	C	0.311629	1.225271	-0.059990
C117	C	0.501016	1.110580	-0.305003
C118	C	0.505603	1.190852	-0.393988
C119	C	0.658385	0.476054	-0.072292
C120	C	0.700254	0.392445	-0.068222
C121	C	0.747107	0.355632	-0.017491
C122	C	0.752090	0.402441	0.029165
C123	C	0.710222	0.486054	0.025088
C124	C	0.493153	0.524585	0.398847
C125	C	0.488841	0.449174	0.482464
C126	C	0.460773	0.406447	0.475594
C127	C	0.437013	0.439143	0.385097
C128	C	0.441322	0.514558	0.301481
C129	C	0.703496	0.514517	0.301442
C130	C	0.743441	0.439096	0.385041
C131	C	0.735138	0.406388	0.475547
C132	C	0.686887	0.449115	0.482452
C133	C	0.646944	0.524542	0.398853
C134	C	0.271502	1.233618	-0.387070
C135	C	0.231558	1.309066	-0.470671
C136	C	0.239861	1.341778	-0.561177
C137	C	0.288112	1.299045	-0.568081
C138	C	0.328054	1.223604	-0.484482
C139	C	0.316614	1.272079	-0.013344
C140	C	0.274746	1.355709	-0.017438
C141	C	0.227893	1.392524	-0.068172
C142	C	0.222909	1.345712	-0.114823
C143	C	0.264777	1.262089	-0.110735
C144	C	0.533674	1.233555	-0.387086
C145	C	0.537994	1.308969	-0.470689
C146	C	0.514240	1.341683	-0.561192
C147	C	0.486167	1.298971	-0.568092
C148	C	0.481851	1.223553	-0.484490
H149	H	0.549019	0.223900	-0.148716
H150	H	0.457268	0.345039	0.543687
N151	N	-0.324899	0.859290	-0.185963
H152	H	-0.327538	0.792744	-0.152502
H153	H	-0.303094	0.854840	-0.229571
H154	H	0.553324	0.375586	-0.156148
H155	H	0.260712	1.223980	-0.148718
H156	H	0.278813	1.393811	0.020556
H157	H	0.184757	1.375700	-0.156130
H158	H	0.446401	0.242084	0.027970
H159	H	0.018471	0.854094	-0.236610
H160	H	0.680135	0.422474	0.556153
H161	H	0.466828	1.325618	-0.641792
N162	N	0.179523	1.355124	-0.463199
H163	H	0.160289	1.337411	-0.493310
H164	H	0.163127	1.435870	-0.498093
H165	H	0.193806	1.460616	-0.071493
H166	H	0.454065	1.015622	-0.481626
N167	N	0.196778	1.423132	-0.651343
H168	H	0.199655	1.488579	-0.693018
H169	H	0.164977	1.445143	-0.633149
N170	N	0.559297	1.198282	-0.289478
H171	H	0.577735	1.236783	-0.297806
H172	H	0.583295	1.117960	-0.250260
N173	N	0.380087	1.177512	-0.491950
H174	H	0.396514	1.096755	-0.457034
H175	H	0.399292	1.195291	-0.461864
N176	N	0.514477	0.413901	0.580065
H177	H	0.489190	0.432083	0.614524
H178	H	0.532917	0.452415	0.571646
H179	H	0.710266	0.541136	0.227755
N180	N	0.262535	1.198351	-0.289464
H181	H	0.244624	1.262913	-0.285138
H182	H	0.295173	1.144051	-0.237596
H183	H	0.560852	1.343738	-0.465052
H184	H	0.433964	1.100740	-0.654602
H185	H	0.517759	1.403094	-0.629259
N186	N	0.536395	0.515742	-0.126997
H187	H	0.515122	0.594630	-0.180107
H188	H	0.553195	0.473315	-0.155859
H189	H	0.294866	1.325689	-0.641781
N190	N	0.795480	0.393005	0.377593
H191	H	0.802291	0.453179	0.339330
H192	H	0.799454	0.354682	0.344197
H193	H	0.767667	0.344971	0.543611
H194	H	0.354760	1.242112	0.027975
N195	N	0.413887	0.362808	0.083932
H196	H	0.416494	0.302736	0.079448
H197	H	0.378431	0.424038	0.055237
H198	H	0.458990	1.188792	-0.490124
H199	H	0.425981	0.524233	0.063090
H200	H	0.300577	0.861246	-0.167750
N201	N	0.607854	0.515746	-0.127011
H202	H	0.611057	0.473405	-0.155947
H203	H	0.591891	0.594642	-0.180066
N204	N	0.214908	0.859347	-0.185947
H205	H	0.238987	0.790024	-0.179540
H206	H	0.207695	0.922534	-0.252533
N207	N	0.105020	0.852243	-0.254815
H208	H	0.085351	0.847748	-0.298431
H209	H	0.139096	0.785703	-0.221296
H210	H	-0.239220	0.861176	-0.167770
N211	N	-0.331875	0.888773	0.100306
H212	H	-0.312205	0.893262	0.143928
H213	H	-0.334661	0.822849	0.139829
H214	H	-0.034000	0.854087	-0.236612
N215	N	-0.239918	0.888765	0.100330
H216	H	-0.237278	0.955311	0.066889
H217	H	-0.206004	0.822805	0.139914
N218	N	0.002740	0.895838	0.169217
H219	H	0.022413	0.900321	0.212839
H220	H	-0.000043	0.829910	0.208739
N221	N	0.094704	0.895833	0.169222
H222	H	0.072911	0.900315	0.212845
H223	H	0.097344	0.962375	0.135709
H224	H	0.607661	0.559314	0.404490
N225	N	0.431663	1.110553	-0.823565
H226	H	0.416192	1.176081	-0.820329
H227	H	0.405401	1.111426	-0.858914
H228	H	0.294487	0.886963	0.082130
N229	N	0.207916	0.888833	0.100327
H230	H	0.227581	0.893332	0.143947
H231	H	0.205134	0.822904	0.139853
H232	H	-0.114270	0.854075	-0.236605
H233	H	-0.123713	0.893973	0.150989
N234	N	0.792261	0.265439	-0.013089
H235	H	0.822701	0.249212	0.026129
H236	H	0.794662	0.287818	-0.080494
H237	H	-0.043452	0.893979	0.150991
H238	H	0.520934	0.732514	-0.604024
N239	N	0.547366	0.620570	-0.427356
H240	H	0.523132	0.612847	-0.457959
H241	H	0.561030	0.562770	-0.356070
N242	N	0.543345	0.637563	-0.262062
H243	H	0.538483	0.658142	-0.213800
H244	H	0.579788	0.593589	-0.252503
H245	H	0.696186	0.354343	-0.106215
N246	N	0.415705	0.549789	0.203889
H247	H	0.422691	0.604046	0.151953
H248	H	0.378975	0.583661	0.194831
H249	H	0.790243	0.372456	0.070468
H250	H	0.714287	0.524149	0.063086
H251	H	0.516008	0.559367	0.404460
H252	H	0.414160	0.404343	0.379517
