data_functionalizedCrystal
_audit_creation_method	'MofGen! by Chris Wilmer'
_symmetry_space_group_name_H-M	'P1'
_symmetry_Int_Tables_number	1
_symmetry_cell_setting	triclinic
loop_
_symmetry_equiv_pos_as_xyz
  x,y,z
_cell_length_a	17.639054
_cell_length_b	17.637651
_cell_length_c	10.686551
_cell_angle_alpha	75.377812
_cell_angle_beta	75.378970
_cell_angle_gamma	109.615240
loop_
_atom_site_label
_atom_site_type_symbol
_atom_site_fract_x
_atom_site_fract_y
_atom_site_fract_z
Zn1	Zn	1.261224	-0.006137	-1.119413
Zn2	Zn	1.216670	-0.160615	-0.844082
Zn3	Zn	1.106787	-0.050612	-0.844105
Zn4	Zn	1.088798	-0.178506	-1.007891
O5	O	1.168370	-0.098968	-0.953873
O6	O	1.373461	-0.000529	-1.129552
O7	O	1.190977	-0.157148	-0.660313
O8	O	1.153448	0.073461	-0.927306
O9	O	1.340728	-0.114023	-0.927267
O10	O	1.266912	0.106137	-1.129574
O11	O	1.110246	-0.076330	-0.660329
O12	O	0.986254	-0.093678	-0.819169
O13	O	1.122787	-0.144515	-1.206457
O14	O	0.973037	-0.187641	-0.939502
O15	O	1.249468	-0.017877	-1.288391
O16	O	1.173533	-0.281162	-0.819130
O17	O	1.079586	-0.294306	-0.939480
C18	C	0.949011	-0.147427	-0.867237
C19	C	0.855165	-0.168177	-0.830197
C20	C	1.119797	-0.318369	-0.867239
C21	C	1.099097	-0.412209	-0.830251
C22	C	0.705863	-0.256432	-0.672586
C23	C	0.794047	-0.236928	-0.707403
C24	C	0.828117	-0.118906	-0.918228
C25	C	0.739933	-0.138403	-0.883432
C26	C	0.678813	-0.207167	-0.760609
C27	C	0.712883	-0.089138	-0.971455
C28	C	0.624708	-0.108631	-0.936658
C29	C	0.563583	-0.177390	-0.813838
C30	C	0.590638	-0.226660	-0.725812
C31	C	0.774006	-0.020371	-1.094273
C32	C	0.746956	0.028895	-1.182296
C33	C	0.658778	0.009398	-1.147504
C34	C	0.597653	-0.059361	-1.024684
C35	C	0.631724	0.058668	-1.235531
C36	C	0.543548	0.039175	-1.200734
C37	C	0.509478	-0.078854	-0.989887
C38	C	1.326197	-0.635507	-1.235496
C39	C	1.306718	-0.723692	-1.200707
C40	C	1.188630	-0.757819	-0.989952
C41	C	1.208102	-0.669634	-1.024720
C42	C	1.276885	-0.608485	-1.147495
C43	C	1.158790	-0.642612	-0.936718
C44	C	1.178258	-0.554435	-0.971488
C45	C	1.247036	-0.493281	-1.094259
C46	C	1.296353	-0.520309	-1.182264
C47	C	1.090003	-0.703763	-0.813949
C48	C	1.040692	-0.676741	-0.725948
C49	C	1.060163	-0.588562	-0.760712
C50	C	1.128941	-0.527408	-0.883483
C51	C	1.010846	-0.561535	-0.672707
C52	C	1.030314	-0.473359	-0.707476
C53	C	1.148409	-0.439232	-0.918252
C54	C	1.388585	-0.050319	-1.040847
C55	C	1.482428	-0.029589	-1.077910
C56	C	1.189091	-0.078231	-1.296407
C57	C	1.197921	-0.069394	-1.442374
C58	C	1.217157	0.121297	-1.040883
C59	C	1.237947	0.215160	-1.077961
C60	C	1.147791	-0.119552	-0.612714
C61	C	1.139177	-0.128115	-0.466906
H62	H	0.459708	-0.134855	-0.889881
H63	H	1.132625	-0.807618	-0.889991
H64	H	0.521525	0.079295	-1.272407
F65	F	0.937635	-0.626625	-0.542059
F66	F	1.221625	-0.374146	-1.048913
H67	H	0.816065	-0.277051	-0.635715
H68	H	1.254976	-0.012359	-1.533050
H69	H	1.352369	-0.470516	-1.282233
H70	H	0.491787	-0.193248	-0.785494
F71	F	0.977833	-0.444597	-0.613813
F72	F	0.640806	-0.329635	-0.541884
F73	F	1.267566	-0.399462	-1.131507
F74	F	1.064611	-0.202667	-1.348400
H75	H	0.877892	-0.062917	-1.018228
F76	F	0.525581	-0.299863	-0.595110
H77	H	0.845803	-0.004499	-1.122596
H78	H	0.796731	0.084884	-1.282296
H79	H	0.681501	0.114660	-1.335526
H80	H	1.346868	-0.745689	-1.272391
F81	F	1.069375	-0.797596	-0.776832
H82	H	1.382213	-0.585715	-1.335465
H83	H	0.984686	-0.726540	-0.625987
