data_functionalizedCrystal
_audit_creation_method	'MofGen! by Chris Wilmer'
_symmetry_space_group_name_H-M	'P1'
_symmetry_Int_Tables_number	1
_symmetry_cell_setting	triclinic
loop_
_symmetry_equiv_pos_as_xyz
  x,y,z
_cell_length_a	10.654549
_cell_length_b	10.654555
_cell_length_c	9.130313
_cell_angle_alpha	90.001373
_cell_angle_beta	89.996706
_cell_angle_gamma	95.514124
loop_
_atom_site_label
_atom_site_type_symbol
_atom_site_fract_x
_atom_site_fract_y
_atom_site_fract_z
O1	O	0.176428	-1.667837	-0.121707
O2	O	0.676428	-1.167837	0.378293
O3	O	0.193228	-1.302359	-0.121729
O4	O	0.693228	-0.802359	0.378271
O5	O	0.002089	-1.493501	-0.121711
O6	O	0.502089	-0.993501	0.378289
O7	O	0.367567	-1.476694	-0.121725
O8	O	0.867567	-0.976694	0.378275
O9	O	0.002084	-1.493486	0.121887
O10	O	0.502084	-0.993486	0.621887
O11	O	0.193223	-1.302344	0.121870
O12	O	0.693223	-0.802344	0.621870
O13	O	0.176424	-1.667821	0.121892
O14	O	0.676424	-1.167821	0.621892
Cu15	Cu	0.184823	-1.485081	0.144123
Cu16	Cu	0.684823	-0.985081	0.644123
Cu17	Cu	0.184828	-1.485099	-0.143961
Cu18	Cu	0.684828	-0.985099	0.356039
O19	O	0.367563	-1.476679	0.121874
O20	O	0.867563	-0.976679	0.621874
C21	C	0.191991	-1.255553	0.000067
C22	C	0.691991	-0.755553	0.500067
C23	C	0.188296	-1.116110	0.000059
C24	C	0.688296	-0.616110	0.500059
C25	C	0.183097	-0.919573	-0.132719
C26	C	0.683097	-0.419573	0.367281
C27	C	0.186561	-1.050596	-0.132726
C28	C	0.686561	-0.550596	0.367274
C29	C	0.186555	-1.050598	0.132859
C30	C	0.686555	-0.550598	0.632859
C31	C	0.183083	-0.919579	0.132864
C32	C	0.683083	-0.419579	0.632864
C33	C	-0.044711	-1.492259	0.000086
C34	C	0.455289	-0.992259	0.500086
C35	C	-0.184155	-1.488568	0.000082
C36	C	0.315845	-0.988568	0.500082
C37	C	-0.394668	-1.597631	0.000078
C38	C	0.105332	-1.097631	0.500078
C39	C	-0.263647	-1.601109	0.000090
C40	C	0.236353	-1.101109	0.500090
C41	C	-0.235689	-1.372540	0.000076
C42	C	0.264311	-0.872540	0.500076
C43	C	-0.366708	-1.369063	0.000075
C44	C	0.133292	-0.869063	0.500075
C45	C	0.414363	-1.477921	0.000073
C46	C	0.914363	-0.977921	0.500073
C47	C	0.553806	-1.481613	0.000068
C48	C	1.053806	-0.981613	0.500068
N49	N	0.184818	-1.485078	0.346746
N50	N	0.684818	-0.985078	0.846746
C51	C	0.177662	-0.714627	0.000087
C52	C	0.677662	-0.214627	0.500087
C53	C	0.181360	-0.854069	0.000071
C54	C	0.681360	-0.354069	0.500071
C55	C	0.100218	-1.569744	0.423406
C56	C	0.600218	-1.069744	0.923406
C57	C	0.100219	-1.569755	0.576742
C58	C	0.600219	-1.069755	1.076742
C59	C	0.269431	-1.400429	0.576746
C60	C	0.769431	-0.900429	1.076746
C61	C	0.269423	-1.400414	0.423412
C62	C	0.769423	-0.900414	0.923412
N63	N	0.184827	-1.485104	0.653417
N64	N	0.684827	-0.985104	1.153417
H65	H	0.187973	-1.103923	-0.240857
H66	H	0.687973	-0.603923	0.259143
H67	H	-0.459382	-1.689276	0.000073
H68	H	0.040618	-1.189276	0.500073
H69	H	-0.221701	-1.695583	0.000100
H70	H	0.278299	-1.195583	0.500100
F71	F	-0.151084	-1.252765	0.000075
F72	F	0.348916	-0.752765	0.500075
F73	F	0.188399	-1.120328	0.274179
F74	F	0.688399	-0.620328	0.774179
F75	F	0.010171	-1.659848	0.341817
F76	F	0.510171	-1.159848	0.841817
H77	H	0.338315	-1.331462	0.360992
H78	H	0.838315	-0.831462	0.860992
H79	H	0.181693	-0.866239	-0.240848
H80	H	0.681693	-0.366239	0.259152
H81	H	0.031329	-1.638696	0.639155
H82	H	0.531329	-1.138696	1.139155
H83	H	-0.408659	-1.274582	0.000074
H84	H	0.091341	-0.774582	0.500074
H85	H	0.338317	-1.331499	0.639184
H86	H	0.838317	-0.831499	1.139184
H87	H	0.181667	-0.866244	0.241004
H88	H	0.681667	-0.366244	0.741004
