data_functionalizedCrystal
_audit_creation_method	'MofGen! by Chris Wilmer'
_symmetry_space_group_name_H-M	'P1'
_symmetry_Int_Tables_number	1
_symmetry_cell_setting	triclinic
loop_
_symmetry_equiv_pos_as_xyz
  x,y,z
_cell_length_a	16.959455
_cell_length_b	18.050589
_cell_length_c	16.959447
_cell_angle_alpha	89.973275
_cell_angle_beta	89.983056
_cell_angle_gamma	90.025168
loop_
_atom_site_label
_atom_site_type_symbol
_atom_site_fract_x
_atom_site_fract_y
_atom_site_fract_z
Zn1	Zn	1.208359	-0.295705	-0.446929
Zn2	Zn	1.208257	-0.419906	-0.314759
Zn3	Zn	1.076182	-0.295728	-0.314766
Zn4	Zn	1.076134	-0.419851	-0.446897
O5	O	1.142233	-0.357798	-0.380838
O6	O	1.318957	-0.312194	-0.429406
O7	O	1.190714	-0.403467	-0.204149
O8	O	1.093778	-0.191800	-0.332314
O9	O	1.318882	-0.403444	-0.332301
O10	O	1.190889	-0.191783	-0.429414
O11	O	1.093679	-0.312234	-0.204154
O12	O	0.965565	-0.312180	-0.332284
O13	O	1.093697	-0.403349	-0.557512
O14	O	0.965529	-0.403372	-0.429360
O15	O	1.190842	-0.312140	-0.557536
O16	O	1.190668	-0.523824	-0.332271
O17	O	1.093597	-0.523783	-0.429353
C18	C	0.936867	-0.357773	-0.380820
C19	C	0.849010	-0.357780	-0.380831
C20	C	0.477529	-0.310275	-0.330396
C21	C	0.477541	-0.405381	-0.431325
C22	C	0.560086	-0.405371	-0.431320
C23	C	0.601357	-0.357812	-0.380852
C24	C	0.560082	-0.310264	-0.330388
C25	C	0.601368	-0.452923	-0.481777
C26	C	0.683919	-0.452915	-0.481774
C27	C	0.725191	-0.405352	-0.431309
C28	C	0.683911	-0.357802	-0.380844
C29	C	0.725182	-0.310243	-0.330375
C30	C	0.683903	-0.262688	-0.279913
C31	C	0.601354	-0.262701	-0.279923
C32	C	0.807739	-0.405339	-0.431299
C33	C	0.807735	-0.310232	-0.330367
C34	C	1.142138	-0.550750	-0.380825
C35	C	1.142169	-0.633295	-0.380846
C36	C	1.089434	-0.832751	-0.433620
C37	C	1.070168	-0.882194	-0.361493
C38	C	1.142247	-0.784426	-0.380856
C39	C	1.161552	-0.882064	-0.452991
C40	C	1.142320	-0.930411	-0.380872
C41	C	1.122943	-0.832782	-0.308691
C42	C	1.214360	-0.832648	-0.400237
C43	C	1.195121	-0.882069	-0.328061
C44	C	1.142202	-0.700328	-0.380848
C45	C	1.142365	-1.014507	-0.380872
C46	C	1.348401	-0.357823	-0.380857
C47	C	1.436258	-0.357833	-0.380864
C48	C	1.142275	-0.357736	-0.587006
C49	C	1.142293	-0.357709	-0.674863
C50	C	1.142350	-0.164092	-0.380868
C51	C	1.142400	-0.081546	-0.380881
C52	C	1.091841	-0.310130	-1.046348
C53	C	1.192885	-0.405132	-1.046329
C54	C	1.192871	-0.405150	-0.963784
C55	C	1.142341	-0.357657	-0.922516
C56	C	1.091824	-0.310148	-0.963794
C57	C	1.243381	-0.452664	-0.922499
C58	C	1.243369	-0.452683	-0.839948
C59	C	1.192842	-0.405187	-0.798679
C60	C	1.142324	-0.357675	-0.839962
C61	C	1.091794	-0.310182	-0.798695
C62	C	1.041279	-0.262666	-0.839977
C63	C	1.041298	-0.262651	-0.922525
C64	C	1.192824	-0.405202	-0.716130
C65	C	1.091777	-0.310200	-0.716141
C66	C	1.142236	-0.357805	-0.175472
C67	C	1.142372	-0.357623	-0.087615
H68	H	0.567759	-0.491648	-0.522861
H69	H	1.233957	-0.443884	-0.682522
Cl70	Cl	1.264127	-0.915293	-0.259104
Cl71	Cl	0.976062	-0.915793	-0.336185
Cl72	Cl	1.028254	-0.250487	-0.664268
H73	H	1.234018	-0.443804	-1.079935
H74	H	0.717521	-0.491636	-0.522864
Cl75	Cl	0.859629	-0.465121	-0.494727
H76	H	1.284511	-0.491338	-0.956105
H77	H	1.044707	-0.811095	-0.478178
Cl78	Cl	1.097671	-0.799502	-0.214488
Cl79	Cl	0.549457	-0.202925	-0.216490
Cl80	Cl	0.859612	-0.250437	-0.266921
H81	H	1.275296	-0.810870	-0.416650
Cl82	Cl	1.186716	-0.915491	-0.547164
Cl83	Cl	0.425638	-0.250491	-0.266966
H84	H	1.284500	-0.491375	-0.806343
Cl85	Cl	0.735796	-0.202907	-0.216465
Cl86	Cl	0.425657	-0.465182	-0.494751
Cl87	Cl	0.977760	-0.202963	-0.788088
H88	H	1.000171	-0.223967	-0.956144
H89	H	1.050716	-0.271441	-1.079963
