data_functionalizedCrystal
_audit_creation_method	'MofGen! by Chris Wilmer'
_symmetry_space_group_name_H-M	'P1'
_symmetry_Int_Tables_number	1
_symmetry_cell_setting	triclinic
loop_
_symmetry_equiv_pos_as_xyz
  x,y,z
_cell_length_a	16.992694
_cell_length_b	9.065218
_cell_length_c	15.455301
_cell_angle_alpha	87.037741
_cell_angle_beta	92.821270
_cell_angle_gamma	92.157946
loop_
_atom_site_label
_atom_site_type_symbol
_atom_site_fract_x
_atom_site_fract_y
_atom_site_fract_z
O1	O	1.045717	-0.319205	0.072016
O2	O	1.545717	0.180795	0.572016
O3	O	0.817409	-0.315772	0.072042
O4	O	1.317409	0.184228	0.572042
O5	O	0.936282	-0.103284	0.072027
O6	O	1.436282	0.396716	0.572027
O7	O	0.926844	-0.531693	0.072032
O8	O	1.426844	-0.031693	0.572032
O9	O	0.930057	-0.091016	-0.072235
O10	O	1.430057	0.408984	0.427765
O11	O	0.811183	-0.303505	-0.072220
O12	O	1.311183	0.196495	0.427780
O13	O	1.039492	-0.306937	-0.072246
O14	O	1.539492	0.193063	0.427754
Cu15	Cu	0.924769	-0.304101	-0.085405
Cu16	Cu	1.424769	0.195899	0.414595
Cu17	Cu	0.932131	-0.318609	0.085202
Cu18	Cu	1.432131	0.181391	0.585202
O19	O	0.920619	-0.519426	-0.072230
O20	O	1.420619	-0.019426	0.427770
C21	C	0.785052	-0.305220	-0.000086
C22	C	1.285052	0.194780	0.499914
C23	C	0.697915	-0.292037	-0.000076
C24	C	1.197915	0.207963	0.499924
C25	C	0.648578	-0.419243	-0.000075
C26	C	1.148578	0.080757	0.499925
C27	C	0.566703	-0.406846	-0.000087
C28	C	1.066703	0.093154	0.499913
C29	C	0.534166	-0.267241	-0.000094
C30	C	1.034166	0.232759	0.499906
C31	C	0.583510	-0.140026	-0.000097
C32	C	1.083510	0.359974	0.499903
C33	C	0.665383	-0.152424	-0.000091
C34	C	1.165383	0.347576	0.499909
C35	C	0.290203	-0.215856	-0.000117
C36	C	0.790203	0.284144	0.499883
C37	C	0.208323	-0.203467	-0.000121
C38	C	0.708323	0.296533	0.499879
C39	C	0.191522	-0.470288	-0.000113
C40	C	0.691522	0.029712	0.499887
C41	C	0.273398	-0.482675	-0.000101
C42	C	0.773398	0.017325	0.499899
C43	C	0.322733	-0.355459	-0.000109
C44	C	0.822733	0.144541	0.499891
N45	N	0.450477	-0.254566	-0.000103
N46	N	0.950477	0.245434	0.499897
N47	N	0.406421	-0.368135	-0.000106
N48	N	0.906421	0.131865	0.499894
C49	C	0.932262	-0.042079	-0.000102
C50	C	1.432262	0.457921	0.499898
C51	C	0.929550	0.122015	-0.000098
C52	C	1.429550	0.622015	0.499902
C53	C	1.071848	-0.317490	-0.000116
C54	C	1.571848	0.182510	0.499884
C55	C	1.158986	-0.330673	-0.000120
C56	C	1.658986	0.169327	0.499880
C57	C	0.924638	-0.580630	-0.000099
C58	C	1.424638	-0.080630	0.499901
C59	C	0.927351	-0.744725	-0.000098
C60	C	1.427351	-0.244725	0.499902
N61	N	0.919597	-0.293897	-0.205400
N62	N	1.419597	0.206103	0.294600
C63	C	0.965870	-0.385256	-0.250795
C64	C	1.465870	0.114744	0.249205
C65	C	0.961969	-0.377531	-0.341603
C66	C	1.461969	0.122469	0.158397
C67	C	0.911790	-0.278453	-0.387014
C68	C	1.411790	0.221547	0.112986
C69	C	0.865516	-0.187083	-0.341613
C70	C	1.365516	0.312917	0.158387
C71	C	0.869421	-0.194802	-0.250807
C72	C	1.369421	0.305198	0.249193
C73	C	0.894941	-0.245151	-0.658596
C74	C	1.394941	0.254849	-0.158596
C75	C	0.891037	-0.237442	-0.749408
C76	C	1.391037	0.262558	-0.249408
C77	C	0.987492	-0.427889	-0.749392
C78	C	1.487492	0.072111	-0.249392
C79	C	0.991389	-0.435606	-0.658584
C80	C	1.491389	0.064394	-0.158584
C81	C	0.945118	-0.344230	-0.613191
C82	C	1.445118	0.155770	-0.113191
N83	N	0.907799	-0.270557	-0.479835
N84	N	1.407799	0.229443	0.020165
N85	N	0.949113	-0.352119	-0.520372
N86	N	1.449113	0.147881	-0.020372
N87	N	0.937310	-0.328802	0.205197
N88	N	1.437310	0.171198	0.705197
H89	H	0.705553	-0.048839	-0.000091
H90	H	1.205553	0.451161	0.499909
H91	H	1.006726	-0.465945	-0.213828
H92	H	1.506726	0.034055	0.286172
H93	H	0.999650	-0.451924	-0.378560
H94	H	1.499650	0.048076	0.121440
H95	H	0.850171	-0.156760	-0.786379
H96	H	1.350171	0.343240	-0.286379
H97	H	1.032252	-0.516282	-0.621616
H98	H	1.532252	-0.016282	-0.121616
H99	H	0.857264	-0.170746	-0.621647
H100	H	1.357264	0.329254	-0.121647
H101	H	1.025164	-0.502281	-0.786361
H102	H	1.525164	-0.002281	-0.286361
H103	H	0.824663	-0.106404	-0.378594
H104	H	1.324663	0.393596	0.121406
H105	H	0.831741	-0.120407	-0.213847
H106	H	1.331741	0.379593	0.286153
H107	H	0.151344	-0.573860	-0.000108
H108	H	0.651344	-0.073860	0.499892
H109	H	0.675062	-0.532924	-0.000069
H110	H	1.175062	-0.032924	0.499931
H111	H	0.299882	-0.596356	-0.000086
H112	H	0.799882	-0.096356	0.499914
H113	H	0.181836	-0.089779	-0.000125
H114	H	0.681836	0.410221	0.499875
H115	H	0.330363	-0.112266	-0.000125
H116	H	0.830363	0.387734	0.499875
H117	H	0.526535	-0.510431	-0.000086
H118	H	1.026535	-0.010431	0.499914
H119	H	0.557012	-0.026356	-0.000115
H120	H	1.057012	0.473644	0.499885
