data_functionalizedCrystal
_audit_creation_method	'MofGen! by Chris Wilmer'
_symmetry_space_group_name_H-M	'P1'
_symmetry_Int_Tables_number	1
_symmetry_cell_setting	triclinic
loop_
_symmetry_equiv_pos_as_xyz
  x,y,z
_cell_length_a	17.019311
_cell_length_b	14.519709
_cell_length_c	12.996460
_cell_angle_alpha	90.007090
_cell_angle_beta	86.114693
_cell_angle_gamma	96.461763
loop_
_atom_site_label
_atom_site_type_symbol
_atom_site_fract_x
_atom_site_fract_y
_atom_site_fract_z
O1	O	1.046846	-0.117531	-0.178326
O2	O	1.380180	0.215802	0.155008
O3	O	1.713513	0.549135	0.488341
O4	O	0.817203	-0.132505	-0.157980
O5	O	1.150536	0.200828	0.175353
O6	O	1.483869	0.534161	0.508686
O7	O	0.938113	0.009240	-0.168683
O8	O	1.271447	0.342573	0.164650
O9	O	1.604780	0.675906	0.497984
O10	O	0.925936	-0.259276	-0.167623
O11	O	1.259269	0.074057	0.165711
O12	O	1.592602	0.407390	0.499044
O13	O	0.938101	0.009248	0.002452
O14	O	1.271434	0.342581	0.335785
O15	O	1.604767	0.675914	0.669119
O16	O	0.817190	-0.132497	0.013155
O17	O	1.150523	0.200836	0.346488
O18	O	1.483857	0.534169	0.679821
O19	O	1.046834	-0.117523	-0.007191
O20	O	1.380167	0.215810	0.326143
O21	O	1.713501	0.549143	0.659476
Cu22	Cu	0.932011	-0.125010	0.018608
Cu23	Cu	1.265344	0.208324	0.351941
Cu24	Cu	1.598677	0.541657	0.685275
Cu25	Cu	0.932026	-0.125019	-0.183779
Cu26	Cu	1.265359	0.208314	0.149554
Cu27	Cu	1.598692	0.541648	0.482888
O28	O	0.925923	-0.259268	0.003512
O29	O	1.259257	0.074065	0.336846
O30	O	1.592590	0.407398	0.670179
C31	C	0.787806	-0.131932	-0.069809
C32	C	1.121140	0.201401	0.263525
C33	C	1.454473	0.534734	0.596858
C34	C	0.700234	-0.130225	-0.062050
C35	C	1.033567	0.203108	0.271283
C36	C	1.366900	0.536441	0.604617
C37	C	0.204936	-0.120601	-0.013490
C38	C	0.538269	0.212732	0.319844
C39	C	0.871603	0.546065	0.653177
C40	C	0.287220	-0.122205	-0.020782
C41	C	0.620553	0.211128	0.312551
C42	C	0.953887	0.544461	0.645885
C43	C	0.328370	-0.123004	-0.117716
C44	C	0.661703	0.210329	0.215618
C45	C	0.995036	0.543662	0.548951
C46	C	0.287230	-0.122209	-0.207362
C47	C	0.620564	0.211124	0.125971
C48	C	0.953897	0.544458	0.459304
C49	C	0.204947	-0.120612	-0.200069
C50	C	0.538281	0.212721	0.133264
C51	C	0.871614	0.546055	0.466598
C52	C	0.576811	-0.127833	-0.144404
C53	C	0.910144	0.205501	0.188930
C54	C	1.243478	0.538834	0.522263
C55	C	0.659100	-0.129427	-0.151690
C56	C	0.992434	0.203906	0.181643
C57	C	1.325767	0.537239	0.514976
C58	C	0.659084	-0.129425	0.034891
C59	C	0.992417	0.203908	0.368224
C60	C	1.325751	0.537242	0.701558
C61	C	0.576800	-0.127822	0.042176
C62	C	0.910133	0.205511	0.375509
C63	C	1.243467	0.538844	0.708842
C64	C	0.535667	-0.127032	-0.047471
C65	C	0.869001	0.206301	0.285862
C66	C	1.202334	0.539635	0.619196
C67	C	0.412477	-0.124641	-0.125172
C68	C	0.745811	0.208693	0.208162
C69	C	1.079144	0.542026	0.541495
C70	C	0.451560	-0.125402	-0.040014
C71	C	0.784894	0.207931	0.293320
C72	C	1.118227	0.541264	0.626653
C73	C	0.937539	0.043602	-0.083065
C74	C	1.270873	0.376935	0.250268
C75	C	1.604206	0.710268	0.583602
C76	C	0.935839	0.145977	-0.082914
C77	C	1.269172	0.479311	0.250419
C78	C	1.602505	0.812644	0.583753
C79	C	1.076230	-0.118096	-0.095364
C80	C	1.409563	0.215237	0.237969
C81	C	1.742897	0.548570	0.571302
C82	C	1.163803	-0.119803	-0.103130
C83	C	1.497136	0.213530	0.230203
C84	C	1.830469	0.546863	0.563537
C85	C	0.926497	-0.293630	-0.082108
C86	C	1.259830	0.039703	0.251225
C87	C	1.593164	0.373036	0.584559
C88	C	0.928198	-0.396006	-0.082266
C89	C	1.261531	-0.062673	0.251067
C90	C	1.594864	0.270661	0.584401
N91	N	0.932006	-0.125003	0.160956
N92	N	1.265339	0.208331	0.494289
N93	N	1.598673	0.541664	0.827622
C94	C	0.929578	0.520853	-0.082386
C95	C	1.262911	0.854186	0.250947
C96	C	1.596245	1.187520	0.584281
C97	C	0.931317	0.416551	-0.082532
C98	C	1.264650	0.749884	0.250801
C99	C	1.597983	1.083217	0.584134
C100	C	0.932708	0.333419	-0.082649
C101	C	1.266041	0.666752	0.250684
C102	C	1.599375	1.000085	0.584018
C103	C	0.934447	0.229110	-0.082797
C104	C	1.267780	0.562443	0.250536
C105	C	1.601114	0.895776	0.583869
N106	N	0.932037	-0.125019	-0.326127
N107	N	1.265370	0.208315	0.007206
N108	N	1.598703	0.541648	0.340540
C109	C	0.932025	-0.125020	0.580768
C110	C	1.265358	0.208313	0.914102
C111	C	1.598691	0.541647	1.247435
C112	C	0.932017	-0.125018	0.463964
C113	C	1.265350	0.208315	0.797297
C114	C	1.598684	0.541648	1.130630
C115	C	0.932016	-0.125012	0.370866
C116	C	1.265349	0.208321	0.704199
C117	C	1.598682	0.541655	1.037532
C118	C	0.932007	-0.125009	0.254054
C119	C	1.265341	0.208324	0.587387
C120	C	1.598674	0.541658	0.920720
H121	H	0.445991	-0.125289	-0.204095
H122	H	0.779324	0.208045	0.129238
H123	H	1.112658	0.541378	0.462571
H124	H	0.320740	-0.122866	-0.286288
H125	H	0.654074	0.210468	0.047046
H126	H	0.987407	0.543801	0.380379
H127	H	0.171437	-0.119955	0.065444
H128	H	0.504771	0.213379	0.398777
H129	H	0.838104	0.546712	0.732111
H130	H	0.320707	-0.122853	0.052213
H131	H	0.654041	0.210481	0.385546
H132	H	0.987374	0.543814	0.718879
H133	H	0.543331	-0.127186	-0.217401
H134	H	0.876664	0.206147	0.115933
H135	H	1.209998	0.539481	0.449266
H136	H	0.543304	-0.127151	0.121109
H137	H	0.876637	0.206182	0.454442
H138	H	1.209970	0.539515	0.787776
H139	H	0.171457	-0.119965	-0.273064
H140	H	0.504791	0.213369	0.060269
H141	H	0.838124	0.546702	0.393603
H142	H	0.418052	-0.124757	0.038909
H143	H	0.751386	0.208577	0.372242
H144	H	1.084719	0.541910	0.705576
H145	H	0.692601	-0.130086	-0.230629
H146	H	1.025935	0.203248	0.102704
H147	H	1.359268	0.536581	0.436038
H148	H	0.692583	-0.130070	0.107876
H149	H	1.025916	0.203263	0.441210
H150	H	1.359250	0.536596	0.774543
