data_functionalizedCrystal
_audit_creation_method	'MofGen! by Chris Wilmer'
_symmetry_space_group_name_H-M	'P1'
_symmetry_Int_Tables_number	1
_symmetry_cell_setting	triclinic
loop_
_symmetry_equiv_pos_as_xyz
  x,y,z
_cell_length_a	10.654550
_cell_length_b	11.892277
_cell_length_c	10.654559
_cell_angle_alpha	85.673412
_cell_angle_beta	84.486774
_cell_angle_gamma	85.679631
loop_
_atom_site_label
_atom_site_type_symbol
_atom_site_fract_x
_atom_site_fract_y
_atom_site_fract_z
O1	O	1.660616	0.094095	0.169160
O2	O	1.295139	0.094077	0.185967
O3	O	1.486275	0.094077	-0.005174
O4	O	1.469480	0.094094	0.360302
O5	O	1.500706	-0.093923	0.009281
O6	O	1.309570	-0.093924	0.200423
O7	O	1.675047	-0.093906	0.183615
Zn8	Zn	1.494600	-0.123764	0.194314
Zn9	Zn	1.475586	0.123935	0.175269
O10	O	1.483911	-0.093907	0.374757
C11	C	1.255557	0.000074	0.191961
C12	C	1.116114	0.000067	0.188270
N13	N	1.507585	-0.292812	0.207311
C14	C	1.036631	0.000088	0.300809
C15	C	0.905608	0.000108	0.297331
C16	C	0.933566	0.000089	0.068764
C17	C	1.064586	0.000061	0.072244
C18	C	1.020488	0.000104	0.432771
C19	C	0.889466	0.000124	0.429293
C20	C	1.372118	-0.529524	0.071749
C21	C	1.381223	-0.647861	0.080842
C22	C	1.534895	-0.647827	0.234596
C23	C	1.525789	-0.529490	0.225503
C24	C	1.444399	-0.470342	0.144075
C25	C	1.435301	-0.352002	0.134977
C26	C	1.588965	-0.351970	0.288737
C27	C	1.598071	-0.470308	0.297830
C28	C	1.714629	0.000099	0.177621
C29	C	1.854071	0.000114	0.181312
C30	C	1.492255	0.000077	-0.044744
C31	C	1.488559	0.000077	-0.184187
N32	N	1.462611	0.292983	0.162262
C33	C	1.475490	0.102577	-0.388585
C34	C	1.478960	0.102564	-0.257563
C35	C	1.494700	-0.102404	-0.241842
C36	C	1.491238	-0.102391	-0.372863
C37	C	1.466397	0.220914	-0.397660
C38	C	1.469868	0.220902	-0.266637
C39	C	1.477931	0.000096	0.414327
C40	C	1.481627	0.000103	0.553769
H41	H	0.891593	0.000101	-0.025702
H42	H	1.129299	0.000027	-0.019395
C43	C	1.068281	-0.106172	0.510674
H44	H	0.999027	-0.149870	0.540339
H45	H	1.107389	-0.084313	0.580652
H46	H	1.127899	-0.149910	0.459078
C47	C	1.345772	-0.286941	0.045417
H48	H	1.304018	-0.339141	0.003655
H49	H	1.393170	-0.240766	-0.015460
H50	H	1.284869	-0.240791	0.092816
C51	C	1.282599	-0.464458	-0.017818
H52	H	1.240850	-0.516654	-0.059590
H53	H	1.330006	-0.418283	-0.078687
H54	H	1.221692	-0.418308	0.029575
C55	C	1.498000	-0.215111	-0.436271
H56	H	1.504209	-0.276151	-0.373807
H57	H	1.570085	-0.219357	-0.495990
H58	H	1.423860	-0.219376	-0.478119
C59	C	0.836175	-0.109513	0.491597
H60	H	0.903106	-0.158349	0.521756
H61	H	0.796488	-0.145946	0.431213
H62	H	0.776063	-0.091879	0.560277
H63	H	1.371985	0.257632	-0.430055
C64	C	1.060250	0.109747	0.481114
H65	H	0.987292	0.158590	0.500241
H66	H	1.115073	0.146165	0.417782
H67	H	1.102901	0.092125	0.555165
H68	H	1.502527	-0.185851	-0.182090
H69	H	0.841695	0.078810	0.472964
C70	C	1.687593	-0.535371	0.387396
H71	H	1.729331	-0.483173	0.429175
H72	H	1.748489	-0.581529	0.340014
H73	H	1.640177	-0.581538	0.448278
H74	H	1.558645	0.257626	-0.239879
C75	C	1.301711	-0.712958	0.001285
H76	H	1.251942	-0.660779	-0.048514
H77	H	1.247919	-0.759131	0.055769
H78	H	1.356224	-0.759112	-0.052502
H79	H	1.601154	-0.696006	0.300896
C80	C	1.668480	-0.286869	0.368298
H81	H	1.651399	-0.207919	0.351227
H82	H	1.755693	-0.306251	0.347246
H83	H	1.647383	-0.306261	0.455512
C84	C	1.347907	0.282258	-0.208815
H85	H	1.295388	0.307489	-0.273943
H86	H	1.368736	0.345343	-0.167245
H87	H	1.304344	0.231777	-0.149594
C88	C	1.578933	0.282297	-0.464891
H89	H	1.627573	0.307523	-0.403629
H90	H	1.548416	0.345388	-0.516141
H91	H	1.630252	0.231834	-0.516366
