data_functionalizedCrystal
_audit_creation_method	'MofGen! by Chris Wilmer'
_symmetry_space_group_name_H-M	'P1'
_symmetry_Int_Tables_number	1
_symmetry_cell_setting	triclinic
loop_
_symmetry_equiv_pos_as_xyz
  x,y,z
_cell_length_a	11.026607
_cell_length_b	9.565339
_cell_length_c	10.967829
_cell_angle_alpha	102.127646
_cell_angle_beta	96.380563
_cell_angle_gamma	90.003896
loop_
_atom_site_label
_atom_site_type_symbol
_atom_site_fract_x
_atom_site_fract_y
_atom_site_fract_z
O1	O	1.614527	0.242379	0.523496
O2	O	1.260724	0.228020	0.463885
O3	O	1.445784	0.191873	0.313876
O4	O	1.429467	0.278526	0.673505
O5	O	1.445770	-0.040645	0.313885
O6	O	1.260709	-0.004498	0.463894
O7	O	1.614513	0.009861	0.523505
Zn8	Zn	1.437609	-0.034236	0.493701
Zn9	Zn	1.437628	0.272117	0.493689
O10	O	1.429452	0.046008	0.673514
C11	C	1.215414	0.109111	0.452892
C12	C	1.080427	0.101214	0.420109
N13	N	1.437604	-0.243313	0.493710
C14	C	1.007376	0.123026	0.510629
C15	C	0.867859	0.114864	0.476748
C16	C	1.351994	-0.317808	0.563049
C17	C	1.462061	-0.399197	0.611985
C18	C	1.327585	-0.439475	0.444793
C19	C	1.547727	-0.322634	0.542715
C20	C	1.413178	-0.362919	0.375458
C21	C	1.523325	-0.444273	0.424364
C22	C	1.659822	0.128772	0.534498
C23	C	1.794810	0.136679	0.567281
C24	C	1.444589	0.064351	0.267124
C25	C	1.441033	0.030790	0.127803
N26	N	1.437642	0.481192	0.493672
C27	C	1.439456	0.136281	0.065691
C28	C	1.435781	0.101597	-0.078305
C29	C	1.430648	0.173533	0.720265
C30	C	1.434204	0.207102	0.859587
H31	H	0.827118	0.090181	0.374161
O32	O	1.619346	-0.516793	0.346697
H33	H	1.667491	-0.436190	0.308849
H34	H	1.434403	-0.014402	-0.131728
H35	H	1.435559	0.323102	-0.086993
H36	H	0.835549	0.161388	0.669869
O37	O	1.671027	-0.255393	0.597653
H38	H	1.660274	-0.170594	0.681706
H39	H	1.039680	0.076533	0.317528
H40	H	1.392459	-0.346006	0.275491
H41	H	1.234528	-0.490402	0.403439
H42	H	1.482746	-0.416072	0.711975
H43	H	1.279663	-0.262804	0.621770
O44	O	1.439236	-0.122861	0.057052
H45	H	1.436648	-0.125991	-0.044943
O46	O	1.441266	0.289933	0.136443
H47	H	1.443875	0.293063	0.238441
H48	H	1.048123	0.147735	0.613209
