data_functionalizedCrystal
_audit_creation_method	'MofGen! by Chris Wilmer'
_symmetry_space_group_name_H-M	'P1'
_symmetry_Int_Tables_number	1
_symmetry_cell_setting	triclinic
loop_
_symmetry_equiv_pos_as_xyz
  x,y,z
_cell_length_a	6.817900
_cell_length_b	7.190334
_cell_length_c	17.982959
_cell_angle_alpha	88.793641
_cell_angle_beta	102.451857
_cell_angle_gamma	60.611776
loop_
_atom_site_label
_atom_site_type_symbol
_atom_site_fract_x
_atom_site_fract_y
_atom_site_fract_z
V1	V	-4.218170	0.665881	-0.104196
O2	O	-4.207017	0.652289	0.006257
O3	O	-4.163591	0.662208	-0.207805
O4	O	-4.255433	0.955893	-0.102044
O5	O	-4.114539	0.356572	-0.100236
V6	V	-4.691498	0.628778	-0.091049
O7	O	-4.501790	0.747269	-0.133034
O8	O	-4.858075	0.547390	-0.062211
O9	O	-4.522871	0.632451	0.012560
O10	O	-4.820048	0.642370	-0.201502
O11	O	-4.912526	0.938088	-0.095009
O12	O	-4.431029	0.338766	-0.093201
C13	C	-4.004316	0.651931	-0.233080
C14	C	-4.041549	0.650861	-0.317779
C15	C	-4.244110	0.661030	-0.361431
C16	C	-4.279089	0.660038	-0.441015
C17	C	-4.111496	0.648861	-0.476944
C18	C	-3.908922	0.638698	-0.433286
C19	C	-3.873953	0.639706	-0.353704
C20	C	-4.049942	0.634635	-0.754229
C21	C	-4.084924	0.633622	-0.833816
C22	C	-4.455077	0.654967	-0.841540
C23	C	-4.420109	0.655975	-0.761958
C24	C	-4.217545	0.645823	-0.718308
C25	C	-4.179621	0.646904	-0.632014
C26	C	-4.149409	0.647765	-0.563235
C27	C	-4.121481	1.026552	-0.098168
C28	C	-4.235289	1.268099	-0.097073
C29	C	-4.345486	0.642722	0.037831
C30	C	-4.287495	0.643806	0.122529
H31	H	-3.772474	0.629611	-0.462546
O32	O	-3.655468	0.628738	-0.306624
H33	H	-3.703512	0.774815	-0.278059
H34	H	-4.556578	0.665065	-0.732709
H35	H	-4.380578	0.670111	-0.332183
O36	O	-4.497549	0.670973	-0.488099
H37	H	-4.608191	0.678877	-0.449743
H38	H	-4.620020	0.663236	-0.877090
H39	H	-3.948444	0.624534	-0.863067
H40	H	-3.885000	0.626357	-0.718697
