data_functionalizedCrystal
_audit_creation_method	'MofGen! by Chris Wilmer'
_symmetry_space_group_name_H-M	'P1'
_symmetry_Int_Tables_number	1
_symmetry_cell_setting	triclinic
loop_
_symmetry_equiv_pos_as_xyz
  x,y,z
_cell_length_a	13.185407
_cell_length_b	11.804917
_cell_length_c	16.109301
_cell_angle_alpha	78.167113
_cell_angle_beta	112.282518
_cell_angle_gamma	82.238254
loop_
_atom_site_label
_atom_site_type_symbol
_atom_site_fract_x
_atom_site_fract_y
_atom_site_fract_z
O1	O	1.425018	0.098976	0.194910
O2	O	1.107487	0.098990	0.110626
O3	O	1.274978	0.098971	0.275752
O4	O	1.257527	0.098996	0.029785
O5	O	1.319038	-0.099072	0.319176
O6	O	1.151547	-0.099053	0.154050
O7	O	1.469078	-0.099066	0.238334
Cu8	Cu	1.314336	-0.117143	0.200157
Cu9	Cu	1.262229	0.117066	0.148803
O10	O	1.301587	-0.099047	0.073208
C11	C	1.088885	-0.000030	0.123794
C12	C	0.967815	-0.000025	0.098343
N13	N	1.350992	-0.281872	0.236279
C14	C	0.678653	-0.000055	0.341230
C15	C	0.792407	-0.000067	0.365146
C16	C	0.836264	-0.000056	0.298448
C17	C	0.766357	-0.000034	0.207829
C18	C	0.652594	-0.000031	0.183912
C19	C	0.810206	-0.000032	0.141130
C20	C	0.740298	-0.000010	0.050510
C21	C	0.626547	-0.000006	0.026598
C22	C	0.582689	-0.000017	0.093297
C23	C	0.923969	-0.000035	0.165046
C24	C	0.897910	-0.000011	0.007728
C25	C	0.784156	0.000001	-0.016188
C26	C	1.137524	-0.655884	0.025920
C27	C	1.109768	-0.531231	-0.001422
C28	C	1.170072	-0.468885	0.058001
C29	C	1.258136	-0.531205	0.144770
C30	C	1.285889	-0.655871	0.172118
C31	C	1.318437	-0.468871	0.204199
C32	C	1.406501	-0.531191	0.290968
C33	C	1.434251	-0.655845	0.318311
C34	C	1.373946	-0.718191	0.258889
C35	C	1.290684	-0.344206	0.176851
C36	C	1.439049	-0.344192	0.323049
C37	C	1.466806	-0.468846	0.350391
C38	C	1.487679	-0.000044	0.225166
C39	C	1.608748	-0.000041	0.250615
C40	C	1.296301	-0.000051	0.328281
C41	C	1.294183	-0.000053	0.420103
N42	N	1.225581	0.281796	0.112690
C43	C	1.280263	-0.000023	0.020679
C44	C	1.282379	-0.000013	-0.071145
C45	C	1.388637	-0.000038	0.663487
C46	C	1.386635	-0.000028	0.749759
C47	C	1.187918	-0.000024	0.685461
C48	C	1.189918	-0.000026	0.599190
C49	C	1.290282	-0.000039	0.588208
C50	C	1.286280	-0.000027	0.760750
C51	C	1.284110	-0.000017	0.854289
C52	C	1.292453	-0.000047	0.494663
H53	H	0.980876	-0.000052	0.238829
H54	H	1.470359	-0.000046	0.654550
H55	H	1.109820	-0.000023	0.537890
H56	H	1.488153	-0.293431	0.371438
H57	H	0.490061	-0.000001	0.073827
H58	H	1.538509	-0.519602	0.421042
H59	H	0.727222	0.000018	-0.089971
H60	H	1.218982	-0.293476	0.106203
H61	H	1.396548	-0.819694	0.281148
H62	H	0.933618	-0.000007	-0.046583
H63	H	1.147469	-0.367387	0.035735
H64	H	1.466725	-0.000025	0.811050
H65	H	1.505949	-0.706586	0.388969
H66	H	1.106205	-0.000016	0.694416
H67	H	0.928889	-0.000066	0.317926
H68	H	1.038066	-0.480495	-0.072068
H69	H	0.849319	-0.000089	0.438930
H70	H	0.642940	-0.000097	0.395534
H71	H	0.569633	-0.000001	-0.047187
H72	H	1.088427	-0.706654	-0.022452
