data_functionalizedCrystal
_audit_creation_method	'MofGen! by Chris Wilmer'
_symmetry_space_group_name_H-M	'P1'
_symmetry_Int_Tables_number	1
_symmetry_cell_setting	triclinic
loop_
_symmetry_equiv_pos_as_xyz
  x,y,z
_cell_length_a	17.077404
_cell_length_b	18.215405
_cell_length_c	17.077396
_cell_angle_alpha	90.030460
_cell_angle_beta	90.019777
_cell_angle_gamma	90.019206
loop_
_atom_site_label
_atom_site_type_symbol
_atom_site_fract_x
_atom_site_fract_y
_atom_site_fract_z
Zn1	Zn	1.200050	-0.293075	0.443838
Zn2	Zn	1.199954	-0.416148	0.312567
Zn3	Zn	1.068781	-0.293090	0.312585
Zn4	Zn	1.068747	-0.416094	0.443790
O5	O	1.134383	-0.354602	0.378195
O6	O	1.309884	-0.309417	0.426437
O7	O	1.182529	-0.399854	0.202722
O8	O	1.086248	-0.190104	0.330023
O9	O	1.309814	-0.399839	0.329993
O10	O	1.182691	-0.190093	0.426454
O11	O	1.086156	-0.309443	0.202736
O12	O	0.958930	-0.309391	0.329977
O13	O	1.086190	-0.399746	0.553643
O14	O	0.958905	-0.399761	0.426373
O15	O	1.182657	-0.309365	0.553678
O16	O	1.182495	-0.519125	0.329947
O17	O	1.086098	-0.519086	0.426356
C18	C	0.930435	-0.354572	0.378172
C19	C	0.843185	-0.354578	0.378181
C20	C	0.467379	-0.401763	0.428332
C21	C	0.549359	-0.401754	0.428320
C22	C	0.590337	-0.354621	0.378207
C23	C	0.549329	-0.307501	0.328098
C24	C	0.467350	-0.307515	0.328107
C25	C	0.720199	-0.307474	0.328085
C26	C	0.802184	-0.307459	0.328077
C27	C	0.802208	-0.401713	0.428298
C28	C	0.720229	-0.401727	0.428307
C29	C	0.679228	-0.354605	0.378198
C30	C	1.134304	-0.545808	0.378161
C31	C	1.134342	-0.627607	0.378173
C32	C	1.184683	-0.892661	0.328079
C33	C	1.184651	-0.815802	0.328061
C34	C	1.084180	-0.815802	0.428364
C35	C	1.084209	-0.892659	0.428378
C36	C	1.134465	-0.931087	0.378236
C37	C	1.134404	-0.777371	0.378205
C38	C	1.134368	-0.694037	0.378186
C39	C	1.134500	-1.014426	0.378254
C40	C	1.339127	-0.354632	0.378218
C41	C	1.426377	-0.354645	0.378228
C42	C	1.134431	-0.354548	0.582939
C43	C	1.134451	-0.354525	0.670189
C44	C	1.134484	-0.162649	0.378246
C45	C	1.134527	-0.080850	0.378268
C46	C	1.134381	-0.354603	0.174247
C47	C	1.134513	-0.354419	0.086998
C48	C	1.184683	-0.307459	0.711199
C49	C	1.184693	-0.307434	0.793179
C50	C	1.134473	-0.354480	0.834149
C51	C	1.084235	-0.401548	0.793133
C52	C	1.084222	-0.401568	0.711154
C53	C	1.084267	-0.401503	0.964003
C54	C	1.084281	-0.401484	1.045988
C55	C	1.184737	-0.307370	1.046028
C56	C	1.184724	-0.307390	0.964049
C57	C	1.134487	-0.354459	0.923040
H58	H	0.835546	-0.269073	0.287279
C59	C	0.675879	-0.452980	0.482742
C60	C	0.729330	-0.494260	0.526607
C61	C	0.688503	-0.541492	0.576750
H62	H	0.643913	-0.424959	0.517071
H63	H	0.643898	-0.485051	0.452667
H64	H	0.761297	-0.462193	0.556680
H65	H	0.761297	-0.522296	0.492298
H66	H	0.656523	-0.573563	0.546675
H67	H	0.656539	-0.513465	0.611074
H68	H	0.724763	-0.569511	0.606513
H69	H	0.433968	-0.269145	0.287309
H70	H	1.225604	-0.923946	0.287250
C71	C	1.239262	-0.774215	0.273576
C72	C	1.283290	-0.824322	0.229684
C73	C	1.333615	-0.786040	0.179489
H74	H	1.209334	-0.744274	0.239266
H75	H	1.273474	-0.744206	0.303615
H76	H	1.249082	-0.854319	0.199647
H77	H	1.313234	-0.854265	0.263973
H78	H	1.367827	-0.756030	0.209528
H79	H	1.303681	-0.756100	0.145184
H80	H	1.363499	-0.820031	0.149707
C81	C	1.029546	-0.774211	0.482844
C82	C	0.985561	-0.824316	0.526760
C83	C	0.935220	-0.786032	0.576953
H84	H	1.059460	-0.744189	0.517138
H85	H	0.995307	-0.744282	0.452801
H86	H	1.019795	-0.854233	0.556800
H87	H	0.955631	-0.854340	0.492487
H88	H	0.900981	-0.756103	0.546911
H89	H	0.965140	-0.756011	0.611242
H90	H	0.905365	-0.820022	0.606751
C91	C	1.029812	-0.934477	0.482885
C92	C	1.074243	-0.978555	0.533234
C93	C	1.024159	-1.017095	0.583446
H94	H	0.999863	-0.900669	0.512825
H95	H	0.995653	-0.964543	0.452849
H96	H	1.108387	-0.948492	0.563268
H97	H	1.104189	-1.012377	0.503317
H98	H	0.990001	-1.047161	0.553409
H99	H	0.994214	-0.983282	0.613380
H100	H	1.054298	-1.047011	0.617609
H101	H	1.225580	-0.269151	0.677847
C102	C	0.846861	-0.452846	0.482618
C103	C	0.927425	-0.442763	0.471872
C104	C	0.968587	-0.489855	0.521893
H105	H	0.833546	-0.442183	0.535413
H106	H	0.833457	-0.502298	0.471033
H107	H	0.940824	-0.393323	0.483463
H108	H	0.940764	-0.453432	0.419088
H109	H	0.955183	-0.539307	0.510307
H110	H	0.955266	-0.479188	0.574684
H111	H	1.023254	-0.483025	0.514603
C112	C	1.029666	-0.452760	0.666768
C113	C	0.985707	-0.493975	0.720191
C114	C	0.935450	-0.541151	0.679332
H115	H	0.995401	-0.424701	0.634782
H116	H	1.059663	-0.484874	0.634806
H117	H	0.955712	-0.461865	0.752140
H118	H	1.019952	-0.522049	0.752179
H119	H	0.965447	-0.573265	0.647370
H120	H	0.901190	-0.513086	0.647348
H121	H	0.905623	-0.569126	0.715574
H122	H	0.434020	-0.440140	0.469144
H123	H	1.225599	-0.269111	0.826566
H124	H	0.582739	-0.440124	0.469118
C125	C	0.593675	-0.256305	0.273598
C126	C	0.540218	-0.215060	0.229703
C127	C	0.581038	-0.167897	0.179480
H128	H	0.625679	-0.224203	0.303593
H129	H	0.625617	-0.284397	0.239297
H130	H	0.508290	-0.186970	0.263999
H131	H	0.508213	-0.247142	0.199692
H132	H	0.612980	-0.195990	0.145179
H133	H	0.613040	-0.135800	0.209482
H134	H	0.544774	-0.139912	0.149686
H135	H	0.686819	-0.269102	0.287283
H136	H	1.225622	-0.269086	0.930694
H137	H	1.225641	-0.269043	1.079422
H138	H	1.043386	-0.439791	1.079343
H139	H	1.043346	-0.439821	0.930616
C140	C	1.029840	-0.452717	0.837654
C141	C	1.074270	-0.499895	0.884696
C142	C	1.024189	-0.547050	0.925710
H143	H	0.995644	-0.424637	0.869701
H144	H	0.999934	-0.480793	0.801512
H145	H	1.104163	-0.471822	0.920834
H146	H	1.108464	-0.527991	0.852669
H147	H	0.994283	-0.575127	0.889569
H148	H	0.989995	-0.518965	0.957753
H149	H	1.054327	-0.579071	0.957628
