data_functionalizedCrystal
_audit_creation_method	'MofGen! by Chris Wilmer'
_symmetry_space_group_name_H-M	'P1'
_symmetry_Int_Tables_number	1
_symmetry_cell_setting	triclinic
loop_
_symmetry_equiv_pos_as_xyz
  x,y,z
_cell_length_a	10.654550
_cell_length_b	9.130313
_cell_length_c	16.109301
_cell_angle_alpha	90.002670
_cell_angle_beta	83.973192
_cell_angle_gamma	90.003780
loop_
_atom_site_label
_atom_site_type_symbol
_atom_site_fract_x
_atom_site_fract_y
_atom_site_fract_z
O1	O	1.666250	0.121925	0.116770
O2	O	1.300621	0.121902	0.127896
O3	O	1.493479	0.121899	0.001362
O4	O	1.473391	0.121928	0.243304
O5	O	1.493477	-0.121700	0.001365
O6	O	1.300618	-0.121697	0.127899
O7	O	1.666248	-0.121674	0.116774
Cu8	Cu	1.483433	-0.143928	0.122337
Cu9	Cu	1.483435	0.144156	0.122333
O10	O	1.473389	-0.121671	0.243308
C11	C	1.253832	0.000099	0.127080
C12	C	1.114422	0.000090	0.124636
N13	N	1.483440	-0.346551	0.122339
C14	C	1.033926	0.000120	0.199138
C15	C	0.902936	0.000145	0.196836
C16	C	0.932952	0.000116	0.045526
C17	C	1.063939	0.000081	0.047828
C18	C	1.084409	0.000130	0.275946
C19	C	1.003911	0.000162	0.350453
C20	C	0.872921	0.000187	0.348152
C21	C	0.822430	0.000180	0.271343
C22	C	1.568859	-0.423204	0.066329
C23	C	1.568856	-0.576541	0.066319
C24	C	1.398010	-0.576558	0.178336
C25	C	1.398008	-0.423223	0.178342
C26	C	1.654291	-0.346531	0.010326
C27	C	1.739719	-0.423184	-0.045688
C28	C	1.739715	-0.576521	-0.045698
C29	C	1.654285	-0.653205	0.010306
C30	C	1.713036	0.000132	0.117589
C31	C	1.852446	0.000151	0.120033
C32	C	1.492665	0.000099	-0.029616
C33	C	1.490225	0.000097	-0.121926
N34	N	1.483438	0.346779	0.122324
C35	C	1.598991	0.000127	-0.343552
C36	C	1.596689	0.000139	-0.430286
C37	C	1.367868	0.000119	-0.411772
C38	C	1.370172	0.000117	-0.325040
C39	C	1.485737	0.000114	-0.290932
C40	C	1.481131	0.000127	-0.464399
C41	C	1.478634	0.000140	-0.558440
C42	C	1.488234	0.000104	-0.196885
C43	C	1.474204	0.000132	0.274286
C44	C	1.476643	0.000144	0.366595
H45	H	1.045031	0.000155	0.412988
H46	H	1.273779	0.000118	-0.439553
H47	H	1.328456	-0.639003	0.223933
H48	H	1.277941	0.000111	-0.282194
O49	O	1.314990	-0.348980	0.232832
C50	C	1.239574	-0.449530	0.282252
H51	H	1.291054	-0.558830	0.283508
H52	H	1.220383	-0.405224	0.348532
H53	H	1.146302	-0.465842	0.254680
H54	H	1.693091	0.000127	-0.315785
H55	H	1.809267	-0.360741	-0.091289
O56	O	1.706821	0.000082	-0.481281
C57	C	1.809307	0.000118	-0.432574
H58	H	1.777406	-0.046008	-0.368038
H59	H	1.888659	-0.070598	-0.464111
H60	H	1.844731	0.116986	-0.426189
O61	O	1.654529	-0.197582	0.010329
C62	C	1.773709	-0.146357	0.027994
H63	H	1.847700	-0.234718	0.011410
H64	H	1.799444	-0.043770	-0.010409
H65	H	1.770356	-0.119159	0.097262
H66	H	1.191065	0.000116	0.277828
H67	H	0.715768	0.000177	0.269475
O68	O	0.794778	0.000471	0.420546
C69	C	0.817711	0.126620	0.467134
H70	H	0.862518	0.214780	0.423495
H71	H	0.724773	0.168996	0.499937
H72	H	0.884382	0.098091	0.515642
H73	H	1.129482	0.000060	-0.012837
O74	O	0.883847	0.000383	-0.029060
C75	C	0.808987	0.126550	-0.034909
H76	H	0.839972	0.214721	0.008716
H77	H	0.820782	0.168893	-0.101846
H78	H	0.705674	0.098058	-0.016326
O79	O	1.822811	-0.650757	-0.100140
C80	C	1.898186	-0.550197	-0.149579
H81	H	1.899584	-0.440899	-0.115476
H82	H	1.998478	-0.594492	-0.161645
H83	H	1.857449	-0.533885	-0.211595
H84	H	1.654281	-0.778062	0.010288
