data_functionalizedCrystal
_audit_creation_method	'MofGen! by Chris Wilmer'
_symmetry_space_group_name_H-M	'P1'
_symmetry_Int_Tables_number	1
_symmetry_cell_setting	triclinic
loop_
_symmetry_equiv_pos_as_xyz
  x,y,z
_cell_length_a	14.908979
_cell_length_b	12.759400
_cell_length_c	12.759393
_cell_angle_alpha	90.031877
_cell_angle_beta	93.275020
_cell_angle_gamma	86.683756
loop_
_atom_site_label
_atom_site_type_symbol
_atom_site_fract_x
_atom_site_fract_y
_atom_site_fract_z
Zn1	Zn	1.379216	0.325439	-0.501488
Zn2	Zn	1.879216	0.825439	-0.001488
Zn3	Zn	1.379129	0.501165	-0.325814
Zn4	Zn	1.879129	1.001165	0.174186
Zn5	Zn	1.228354	0.335641	-0.335945
Zn6	Zn	1.728354	0.835641	0.164055
Zn7	Zn	1.228341	0.511224	-0.511568
Zn8	Zn	1.728341	1.011224	-0.011568
O9	O	1.303760	0.418368	-0.418704
O10	O	1.803760	0.918368	0.081296
O11	O	1.505445	0.340271	-0.469727
O12	O	2.005445	0.840271	0.030273
O13	O	1.359098	0.479268	-0.180139
O14	O	1.859098	0.979268	0.319861
O15	O	1.248409	0.187264	-0.357926
O16	O	1.748409	0.687264	0.142074
O17	O	1.505381	0.469375	-0.340660
O18	O	2.005381	0.969375	0.159340
O19	O	1.359246	0.179769	-0.479550
O20	O	1.859246	0.679769	0.020450
O21	O	1.248324	0.357658	-0.187582
O22	O	1.748324	0.857658	0.312418
O23	O	1.102111	0.367412	-0.367699
O24	O	1.602111	0.867412	0.132301
O25	O	1.248385	0.486520	-0.657250
O26	O	1.748385	0.986520	-0.157250
O27	O	1.102102	0.496412	-0.496729
O28	O	1.602102	0.996412	0.003271
O29	O	1.359232	0.350025	-0.649844
O30	O	1.859232	0.850025	-0.149844
O31	O	1.359084	0.649523	-0.350433
O32	O	1.859084	1.149523	0.149567
O33	O	1.248301	0.656914	-0.486906
O34	O	1.748301	1.156914	0.013094
C35	C	1.069374	0.434112	-0.434408
C36	C	1.569374	0.934112	0.065592
C37	C	0.969102	0.440872	-0.441151
C38	C	1.469102	0.940872	0.058849
C39	C	0.827793	0.517666	-0.517713
C40	C	1.327793	1.017666	-0.017713
C41	C	0.922007	0.511315	-0.511386
C42	C	1.422007	1.011315	-0.011386
C43	C	0.921977	0.376779	-0.377236
C44	C	1.421977	0.876779	0.122764
C45	C	0.827763	0.383130	-0.383562
C46	C	1.327763	0.883130	0.116438
C47	C	0.780674	0.453576	-0.453805
C48	C	1.280674	0.953576	0.046195
C49	C	0.686458	0.459921	-0.460136
C50	C	1.186458	0.959921	0.039864
C51	C	0.686430	0.325391	-0.325981
C52	C	1.186430	0.825391	0.174019
C53	C	0.780644	0.319040	-0.319654
C54	C	1.280644	0.819040	0.180346
C55	C	1.303706	0.691339	-0.418685
C56	C	1.803706	1.191339	0.081315
C57	C	1.303766	0.808111	-0.418707
C58	C	1.803766	1.308111	0.081293
C59	C	1.303817	0.418256	-0.692733
C60	C	1.803817	0.918256	-0.192733
C61	C	1.303841	0.418209	-0.809508
C62	C	1.803841	0.918209	-0.309508
C63	C	1.539062	0.402563	-0.402939
C64	C	2.039062	0.902563	0.097061
C65	C	1.639333	0.395828	-0.396221
C66	C	2.139333	0.895828	0.103779
C67	C	1.303838	0.144329	-0.418743
C68	C	1.803838	0.644329	0.081257
C69	C	1.303872	0.027550	-0.418760
C70	C	1.803872	0.527550	0.081240
C71	C	1.361515	0.859086	-0.347716
C72	C	1.861515	1.359086	0.152284
C73	C	1.361570	0.968806	-0.347745
C74	C	1.861570	1.468806	0.152255
C75	C	1.246120	0.976568	-0.489759
C76	C	1.746120	1.476568	0.010241
C77	C	1.246070	0.866849	-0.489735
C78	C	1.746070	1.366849	0.010265
C79	C	1.428166	0.854606	-0.265722
C80	C	1.928166	1.354606	0.234278
C81	C	1.428222	0.964326	-0.265750
C82	C	1.928222	1.464326	0.234250
C83	C	1.246180	0.489223	-0.977949
C84	C	1.746180	0.989223	-0.477949
C85	C	1.246145	0.489256	-0.868227
C86	C	1.746145	0.989256	-0.368227
C87	C	1.361570	0.347117	-0.860517
C88	C	1.861570	0.847117	-0.360517
C89	C	1.361599	0.347080	-0.970237
C90	C	1.861599	0.847080	-0.470237
C91	C	1.179543	0.571290	-0.982400
C92	C	1.679543	1.071290	-0.482400
C93	C	1.179509	0.571323	-0.872678
C94	C	1.679509	1.071323	-0.372678
C95	C	1.303755	0.418399	-0.145737
C96	C	1.803755	0.918399	0.354263
C97	C	1.303905	0.418139	-0.028950
C98	C	1.803905	0.918139	0.471050
H99	H	0.789452	0.575017	-0.574916
H100	H	1.289452	1.075017	-0.074916
H101	H	1.409559	0.995444	-0.185621
H102	H	1.909559	1.495444	0.314379
Br103	Br	1.221237	0.697293	-1.036307
Br104	Br	1.721237	1.197293	-0.536307
Br105	Br	1.439855	0.250674	-0.780829
Br106	Br	1.939855	0.750674	-0.280829
H107	H	0.960367	0.563505	-0.563427
H108	H	1.460367	1.063505	-0.063427
Br109	Br	0.844558	0.223444	-0.224327
Br110	Br	1.344558	0.723444	0.275673
Br111	Br	1.063115	0.542785	-1.039857
Br112	Br	1.563115	1.042785	-0.539857
H113	H	1.113133	0.546652	-0.843108
H114	H	1.613133	1.046652	-0.343108
H115	H	1.198239	0.651429	-0.841623
H116	H	1.698239	1.151429	-0.341623
H117	H	0.648056	0.273200	-0.273945
H118	H	1.148056	0.773200	0.226055
Br119	Br	0.985898	0.281193	-0.281905
Br120	Br	1.485898	0.781193	0.218095
H121	H	0.648120	0.517277	-0.517335
H122	H	1.148120	1.017277	-0.017335
H123	H	1.199055	0.825346	-0.547550
H124	H	1.699055	1.325346	-0.047550
Br125	Br	1.439957	0.250619	-1.039450
Br126	Br	1.939957	0.750619	-0.539450
H127	H	1.199147	1.024406	-0.547588
H128	H	1.699147	1.524406	-0.047588
H129	H	1.494599	0.993806	-0.290511
H130	H	1.994599	1.493806	0.209489
H131	H	1.498012	0.820050	-0.282889
H132	H	1.998012	1.320050	0.217111
Br133	Br	1.386461	0.800819	-0.139652
Br134	Br	1.886461	1.300819	0.360348
