data_functionalizedCrystal
_audit_creation_method	'MofGen! by Chris Wilmer'
_symmetry_space_group_name_H-M	'P1'
_symmetry_Int_Tables_number	1
_symmetry_cell_setting	triclinic
loop_
_symmetry_equiv_pos_as_xyz
  x,y,z
_cell_length_a	15.297327
_cell_length_b	19.805407
_cell_length_c	19.805399
_cell_angle_alpha	89.980803
_cell_angle_beta	80.350583
_cell_angle_gamma	80.296766
loop_
_atom_site_label
_atom_site_type_symbol
_atom_site_fract_x
_atom_site_fract_y
_atom_site_fract_z
Zn1	Zn	-0.359278	-0.988086	0.429341
Zn2	Zn	-0.510145	-0.968412	0.335733
Zn3	Zn	-0.359293	-0.874899	0.316168
Zn4	Zn	-0.510087	-0.855283	0.448873
O5	O	-0.434701	-0.921670	0.382529
O6	O	-0.379309	-1.080191	0.416938
O7	O	-0.490165	-0.955983	0.238425
O8	O	-0.233044	-0.906357	0.314819
O9	O	-0.490150	-1.065736	0.348164
O10	O	-0.233033	-0.989515	0.397967
O11	O	-0.379334	-0.887279	0.224051
O12	O	-0.379278	-0.777583	0.333758
O13	O	-0.490051	-0.872924	0.540995
O14	O	-0.490066	-0.763171	0.431256
O15	O	-0.379252	-0.970494	0.526645
O16	O	-0.636384	-0.936962	0.367103
O17	O	-0.636341	-0.853847	0.450227
C18	C	-0.434668	-0.745818	0.382504
C19	C	-0.434675	-0.670585	0.382512
C20	C	-0.377061	-0.642755	0.418401
C21	C	-0.377064	-0.572066	0.418402
C22	C	-0.434686	-0.529208	0.382518
C23	C	-0.492303	-0.557043	0.346625
C24	C	-0.492295	-0.627731	0.346620
C25	C	-0.492336	-0.271966	0.346643
C26	C	-0.492341	-0.201273	0.346653
C27	C	-0.377105	-0.216301	0.418425
C28	C	-0.377097	-0.286989	0.418420
C29	C	-0.434710	-0.314818	0.382524
C30	C	-0.434705	-0.391467	0.382522
C31	C	-0.434696	-0.452560	0.382524
C32	C	-0.669097	-0.891159	0.412922
C33	C	-0.769373	-0.878169	0.425947
C34	C	-1.051997	-1.014795	0.289668
C35	C	-0.957783	-1.027000	0.277427
C36	C	-0.910676	-0.989794	0.314556
C37	C	-0.957792	-0.940380	0.363928
C38	C	-1.052015	-0.928170	0.376167
C39	C	-0.910694	-0.903168	0.401055
C40	C	-0.957810	-0.853754	0.450427
C41	C	-1.052024	-0.841546	0.462664
C42	C	-1.099131	-0.878753	0.425534
C43	C	-0.816471	-0.915378	0.388816
C44	C	-0.816489	-0.828752	0.475315
C45	C	-0.910703	-0.816547	0.487556
C46	C	-0.199389	-0.952318	0.352032
C47	C	-0.099113	-0.965379	0.339036
C48	C	-0.434644	-0.921715	0.559064
C49	C	-0.434620	-0.921735	0.634293
C50	C	-0.434728	-0.098209	0.382547
C51	C	-0.434722	-0.173442	0.382538
C52	C	-0.434692	-0.921672	0.206672
C53	C	-0.434462	-0.921817	0.131410
C54	C	-0.376924	-0.972541	0.662166
C55	C	-0.376898	-0.972551	0.732851
C56	C	-0.434572	-0.921758	0.775663
C57	C	-0.492271	-0.870947	0.747785
C58	C	-0.492292	-0.870934	0.677101
C59	C	-0.492187	-0.870996	1.032848
C60	C	-0.492163	-0.871013	1.103537
C61	C	-0.376792	-0.972613	1.088598
C62	C	-0.376813	-0.972600	1.017914
C63	C	-0.434508	-0.921787	0.990042
C64	C	-0.434535	-0.921776	0.913397
C65	C	-0.434551	-0.921771	0.852307
H66	H	-0.539209	-0.650389	0.317396
H67	H	-0.949078	-0.776313	0.527755
H68	H	-0.330141	-0.677646	0.447623
N69	N	-0.554459	-0.510825	0.307923
H70	H	-0.540360	-0.524941	0.257751
H71	H	-0.545701	-0.461835	0.313425
H72	H	-0.778135	-0.798454	0.505548
N73	N	-0.906969	-1.080299	0.224186
H74	H	-0.867824	-1.116718	0.246640
H75	H	-0.867982	-1.057815	0.187739
N76	N	-0.554356	-0.816214	1.149711
H77	H	-0.545585	-0.823935	1.198718
H78	H	-0.618799	-0.818341	1.145712
H79	H	-0.833962	-0.999734	0.304586
H80	H	-0.778117	-0.955611	0.348617
H81	H	-0.539228	-0.829588	0.782648
N82	N	-0.554486	-0.155041	0.307945
H83	H	-0.618965	-0.158959	0.326730
H84	H	-0.540304	-0.169179	0.257780
H85	H	-1.090360	-1.045080	0.259439
H86	H	-1.175848	-0.868820	0.435500
N87	N	-0.314918	-0.542062	0.457116
H88	H	-0.351634	-0.507968	0.493201
H89	H	-0.273068	-0.518210	0.424192
N90	N	-1.102845	-0.788240	0.515902
H91	H	-1.058710	-0.766521	0.537566
H92	H	-1.141888	-0.810710	0.552322
H93	H	-0.329961	-1.013905	0.627313
H94	H	-0.539265	-0.829557	0.654407
N95	N	-0.314953	-0.333214	0.457127
H96	H	-0.278453	-0.304857	0.479862
H97	H	-0.273152	-0.367969	0.424204
H98	H	-0.330190	-0.193634	0.447650
N99	N	-0.554470	-0.301977	0.307927
H100	H	-0.590974	-0.264098	0.285199
H101	H	-0.596267	-0.325883	0.340841
H102	H	-0.329852	-1.013963	0.983060
H103	H	-0.329918	-1.013924	0.755542
H104	H	-0.329811	-1.013985	1.111299
H105	H	-0.539179	-0.829629	1.010165
