data_functionalizedCrystal
_audit_creation_method	'MofGen! by Chris Wilmer'
_symmetry_space_group_name_H-M	'P1'
_symmetry_Int_Tables_number	1
_symmetry_cell_setting	triclinic
loop_
_symmetry_equiv_pos_as_xyz
  x,y,z
_cell_length_a	10.685661
_cell_length_b	25.639239
_cell_length_c	10.686551
_cell_angle_alpha	94.409472
_cell_angle_beta	99.072622
_cell_angle_gamma	85.659612
loop_
_atom_site_label
_atom_site_type_symbol
_atom_site_fract_x
_atom_site_fract_y
_atom_site_fract_z
Zn1	Zn	1.995469	-0.244037	0.866100
Zn2	Zn	1.978951	-0.337709	0.653812
Zn3	Zn	1.766904	-0.244061	0.637625
Zn4	Zn	1.783094	-0.325208	0.849778
O5	O	1.881105	-0.287754	0.751829
O6	O	2.170900	-0.261684	0.851545
O7	O	1.937134	-0.330528	0.474035
O8	O	1.797361	-0.170895	0.667989
O9	O	2.158764	-0.330505	0.695578
O10	O	1.965286	-0.170877	0.835849
O11	O	1.781344	-0.261725	0.462142
O12	O	1.591430	-0.249604	0.652162
O13	O	1.824955	-0.309199	1.029573
O14	O	1.603325	-0.309222	0.808030
O15	O	1.980986	-0.249563	1.041565
O16	O	1.952833	-0.409213	0.679751
O17	O	1.808938	-0.400029	0.823726
C18	C	1.551322	-0.278059	0.726569
C19	C	1.410242	-0.273924	0.715794
C20	C	1.880887	-0.423592	0.751754
C21	C	1.880913	-0.481706	0.751774
C22	C	1.956253	-0.846845	0.677015
C23	C	1.956304	-0.901450	0.677036
O24	O	2.020134	-0.933743	0.613393
N25	N	1.881334	-0.923997	0.751930
C26	C	1.806319	-0.891935	0.826818
O27	O	1.742557	-0.916127	0.890524
C28	C	1.806276	-0.837331	0.826803
C29	C	1.881241	-0.814787	0.751894
C30	C	2.031213	-0.824301	0.602114
C31	C	2.031160	-0.769700	0.602092
C32	C	1.956148	-0.737642	0.676971
C33	C	1.881188	-0.760186	0.751872
C34	C	1.731269	-0.805270	0.901697
C35	C	1.731233	-0.750662	0.901676
C36	C	1.806198	-0.728119	0.826768
C37	C	1.806123	-0.673527	0.826729
N38	N	1.881093	-0.650980	0.751835
C39	C	1.956105	-0.683038	0.676956
C40	C	1.806416	-1.006608	0.826845
C41	C	1.806451	-1.061211	0.826853
C42	C	1.956438	-1.070723	0.677073
C43	C	1.956395	-1.016118	0.677058
C44	C	1.881386	-0.984061	0.751951
C45	C	1.955988	-0.568370	0.676914
C46	C	1.955925	-0.513764	0.676895
C47	C	1.805944	-0.504257	0.826679
C48	C	1.806001	-0.558859	0.826694
C49	C	1.881034	-0.590915	0.751808
O50	O	1.742329	-0.641201	0.890344
O51	O	2.019869	-0.658839	0.613274
C52	C	2.212175	-0.297486	0.777187
C53	C	2.353258	-0.301634	0.787994
C54	C	1.906619	-0.277984	1.082914
C55	C	1.917491	-0.273821	1.224003
C56	C	1.881360	-0.151385	0.751934
C57	C	1.881469	-0.093273	0.751979
C58	C	1.855763	-0.297450	0.422037
C59	C	1.845136	-0.301473	0.280967
H60	H	1.412403	-0.328517	0.858059
C61	C	2.038389	-0.488970	0.594479
N62	N	2.100498	-0.470297	0.532405
C63	C	1.330336	-0.237598	0.621140
N64	N	1.270150	-0.210239	0.549846
H65	H	1.745394	-1.079561	0.887839
H66	H	2.017090	-0.594464	0.615938
H67	H	1.774875	-0.328333	1.221800
C68	C	2.012421	-0.237532	1.303941
N69	N	2.083918	-0.210198	1.364150
H70	H	2.092304	-0.850398	0.541138
H71	H	2.092207	-0.751348	0.541099
C72	C	2.038865	-0.991326	0.594658
N73	N	2.100988	-0.972655	0.532593
C74	C	2.038964	-1.105997	0.594715
N75	N	2.101121	-1.132566	0.532688
H76	H	1.745324	-0.980509	0.887826
H77	H	1.670218	-0.823615	0.962689
C78	C	1.648715	-0.715402	0.984067
N79	N	1.586560	-0.688846	1.046121
H80	H	1.744963	-0.577214	0.887695
H81	H	1.744865	-0.478147	0.887641
