data_functionalizedCrystal
_audit_creation_method	'MofGen! by Chris Wilmer'
_symmetry_space_group_name_H-M	'P1'
_symmetry_Int_Tables_number	1
_symmetry_cell_setting	triclinic
loop_
_symmetry_equiv_pos_as_xyz
  x,y,z
_cell_length_a	10.489741
_cell_length_b	27.732048
_cell_length_c	9.565339
_cell_angle_alpha	89.995294
_cell_angle_beta	89.999100
_cell_angle_gamma	83.590915
loop_
_atom_site_label
_atom_site_type_symbol
_atom_site_fract_x
_atom_site_fract_y
_atom_site_fract_z
O1	O	1.691056	0.068187	-0.116191
O2	O	1.319579	0.074588	-0.116214
O3	O	1.516855	0.001064	-0.116175
O4	O	1.493780	0.141712	-0.116230
O5	O	1.516839	0.001068	0.116345
O6	O	1.319563	0.074593	0.116306
O7	O	1.691040	0.068192	0.116329
Zn8	Zn	1.505299	0.071393	0.153235
Zn9	Zn	1.505320	0.071387	-0.153120
O10	O	1.493765	0.141716	0.116290
C11	C	1.272061	0.074107	0.000043
C12	C	1.130495	0.072661	0.000036
C13	C	1.064411	0.025879	0.000067
C14	C	0.971320	0.047976	-0.114583
C15	C	0.971339	0.047992	0.114663
C16	C	1.039269	0.094777	-0.114709
C17	C	1.039297	0.094786	0.114640
C18	C	0.946232	0.116916	-0.000038
C19	C	1.516363	-0.016944	0.000089
C20	C	1.514904	-0.070608	0.000100
C21	C	1.622299	-0.408745	0.000035
C22	C	1.616888	-0.610439	0.000015
O23	O	1.715093	-0.641075	-0.000040
N24	N	1.499911	-0.630301	0.000009
C25	C	1.384279	-0.599736	-0.000001
O26	O	1.284660	-0.621258	-0.000021
C27	C	1.389692	-0.398044	0.000009
C28	C	1.506676	-0.378184	0.000029
C29	C	1.739274	-0.388886	0.000054
C30	C	1.740625	-0.338465	0.000066
C31	C	1.625002	-0.307904	0.000060
C32	C	1.508028	-0.327764	0.000042
C33	C	1.274062	-0.367480	-0.000011
C34	C	1.275425	-0.317054	-0.000012
C35	C	1.392409	-0.297195	0.000008
C36	C	1.393757	-0.246783	0.000048
N37	N	1.510733	-0.226920	0.000054
C38	C	1.626356	-0.257481	0.000060
C39	C	1.381446	-0.705628	-0.000003
C40	C	1.380092	-0.756051	-0.000003
C41	C	1.612701	-0.766751	0.000010
C42	C	1.614053	-0.716327	0.000020
C43	C	1.498422	-0.685766	0.000003
C44	C	1.629186	-0.151594	0.000088
C45	C	1.630527	-0.101169	0.000106
C46	C	1.397919	-0.090474	0.000085
C47	C	1.396577	-0.140895	0.000074
C48	C	1.512221	-0.171454	0.000071
O49	O	1.295604	-0.216118	0.000088
O50	O	1.725961	-0.235950	0.000049
C51	C	1.620947	-0.459166	0.000023
C52	C	1.503973	-0.479025	0.000004
C53	C	1.388350	-0.448464	-0.000002
C54	C	1.502619	-0.529448	0.000004
C55	C	1.618242	-0.560009	0.000010
C56	C	1.735219	-0.540147	0.000016
C57	C	1.736570	-0.489727	0.000029
C58	C	1.271374	-0.468327	-0.000008
C59	C	1.270032	-0.518748	-0.000019
C60	C	1.385654	-0.549308	-0.000013
C61	C	1.738559	0.068673	0.000069
C62	C	1.880124	0.070119	0.000067
C63	C	1.494257	0.159724	0.000023
C64	C	1.495715	0.213388	0.000003
N65	N	1.505295	0.071397	0.362315
N66	N	1.505335	0.071379	-0.362199
C67	C	1.414034	0.105388	0.453500
C68	C	1.529101	0.115168	0.546682
C69	C	1.390277	0.061621	0.546688
C70	C	1.620419	0.081198	0.453445
C71	C	1.481520	0.027633	0.453443
C72	C	1.596671	0.037394	0.546583
H73	H	1.115791	-0.012578	-0.000061
H74	H	1.673948	0.008640	0.587197
N75	N	1.261421	0.050676	0.600957
H76	H	1.192543	0.076382	0.567099
H77	H	1.242850	0.017866	0.565577
H78	H	1.709312	-0.700161	0.000036
H79	H	1.717725	0.089504	0.412659
H80	H	1.461348	-0.009359	0.412456
H81	H	1.833433	-0.413764	0.000054
N82	N	0.931392	0.021758	-0.242961
H83	H	0.974836	-0.012629	-0.242867
H84	H	0.835260	0.021288	-0.242389
H85	H	1.069234	0.114553	-0.211747
H86	H	0.895116	0.155414	-0.000115
H87	H	1.069467	0.114566	0.211560
H88	H	0.941224	0.028191	0.211592
H89	H	1.287280	-0.680750	-0.000017
H90	H	1.725793	-0.085003	0.000126
N91	N	1.753912	-0.184550	0.000085
H92	H	1.828210	-0.164312	0.000101
H93	H	1.758415	-0.205708	0.086281
N94	N	1.253923	-0.777471	-0.000015
H95	H	1.248165	-0.798155	0.086179
H96	H	1.180957	-0.750431	-0.000076
H97	H	1.178801	-0.383640	-0.000036
H98	H	1.549238	0.152170	0.587636
H99	H	1.301319	-0.157065	0.000097
N100	N	1.866801	-0.317049	0.000083
H101	H	1.939832	-0.344066	0.000082
H102	H	1.872440	-0.296360	-0.086114
N103	N	1.862752	-0.468315	0.000040
H104	H	1.868514	-0.447630	-0.086152
H105	H	1.868429	-0.447662	0.086296
N106	N	1.737411	-0.799717	0.000021
H107	H	1.718792	-0.834672	0.000018
H108	H	1.788435	-0.793240	-0.086179
H109	H	1.303782	-0.065582	0.000085
N110	N	1.150715	-0.284087	-0.000024
H111	H	1.099639	-0.290518	-0.086225
H112	H	1.099728	-0.290542	0.086222
N113	N	1.859928	-0.573114	0.000035
H114	H	1.841308	-0.608069	0.000027
H115	H	1.910962	-0.566637	-0.086158
N116	N	1.311897	0.143492	0.399333
H117	H	1.225159	0.136452	0.434711
H118	H	1.330152	0.176518	0.433258
N119	N	1.143848	-0.540164	-0.000018
H120	H	1.070813	-0.513148	-0.000019
H121	H	1.138219	-0.560847	-0.086221
N122	N	1.146660	-0.435368	-0.000016
H123	H	1.072360	-0.455606	-0.000021
H124	H	1.142146	-0.414220	0.086189
