data_functionalizedCrystal
_audit_creation_method	'MofGen! by Chris Wilmer'
_symmetry_space_group_name_H-M	'P1'
_symmetry_Int_Tables_number	1
_symmetry_cell_setting	triclinic
loop_
_symmetry_equiv_pos_as_xyz
  x,y,z
_cell_length_a	8.497374
_cell_length_b	8.497374
_cell_length_c	17.077404
_cell_angle_alpha	90.003463
_cell_angle_beta	89.994565
_cell_angle_gamma	90.000078
loop_
_atom_site_label
_atom_site_type_symbol
_atom_site_fract_x
_atom_site_fract_y
_atom_site_fract_z
Zn1	Zn	-0.628320	0.892121	1.200086
Zn2	Zn	-0.128320	1.392121	1.700086
Zn3	Zn	-0.892066	0.628362	1.200095
Zn4	Zn	-0.392066	1.128362	1.700095
Zn5	Zn	-0.628295	0.628340	1.068855
Zn6	Zn	-0.128295	1.128340	1.568855
Zn7	Zn	-0.892053	0.892086	1.068851
Zn8	Zn	-0.392053	1.392086	1.568851
O9	O	-0.760183	0.760227	1.134472
O10	O	-0.260183	1.260227	1.634472
O11	O	-0.663322	0.857157	1.309934
O12	O	-0.163322	1.357157	1.809934
O13	O	-0.857071	0.407597	1.182691
O14	O	-0.357071	0.907597	1.682691
O15	O	-0.407536	0.663337	1.086260
O16	O	0.092464	1.163337	1.586260
O17	O	-0.857095	0.663374	1.309941
O18	O	-0.357095	1.163374	1.809941
O19	O	-0.407554	0.857136	1.182676
O20	O	0.092446	1.357136	1.682676
O21	O	-0.663279	0.407581	1.086269
O22	O	-0.163279	0.907581	1.586269
O23	O	-0.663267	0.663303	0.959007
O24	O	-0.163267	1.163303	1.459007
O25	O	-0.857074	1.112853	1.086255
O26	O	-0.357074	1.612853	1.586255
O27	O	-0.857049	0.857075	0.959005
O28	O	-0.357049	1.357075	1.459005
O29	O	-0.663310	1.112879	1.182672
O30	O	-0.163310	1.612879	1.682672
O31	O	-1.112826	0.663340	1.182688
O32	O	-0.612826	1.163340	1.682688
O33	O	-1.112817	0.857097	1.086264
O34	O	-0.612817	1.357097	1.586264
C35	C	-0.760155	0.760184	0.930524
C36	C	-0.260155	1.260184	1.430524
C37	C	-0.760180	0.760203	0.843274
C38	C	-0.260180	1.260203	1.343274
C39	C	-0.170063	0.760222	1.134469
C40	C	0.329937	1.260222	1.634469
C41	C	-0.348707	0.760231	1.134473
C42	C	0.151293	1.260231	1.634473
C43	C	-0.861235	0.860938	0.802303
C44	C	-0.361235	1.360938	1.302303
C45	C	-0.861238	0.860964	0.720323
C46	C	-0.361238	1.360964	1.220323
C47	C	-0.760194	0.760244	0.679315
C48	C	-0.260194	1.260244	1.179315
C49	C	-0.659128	0.659504	0.720291
C50	C	-0.159128	1.159504	1.220291
C51	C	-0.659118	0.659488	0.802270
C52	C	-0.159118	1.159488	1.302270
C53	C	-0.659159	0.659542	0.549421
C54	C	-0.159159	1.159542	1.049421
C55	C	-0.659171	0.659556	0.467437
C56	C	-0.159171	1.159556	0.967437
C57	C	-0.861280	0.861018	0.467474
C58	C	-0.361280	1.361018	0.967474
C59	C	-0.861270	0.861001	0.549453
C60	C	-0.361270	1.361001	1.049453
C61	C	-0.760205	0.760259	0.590424
C62	C	-0.260205	1.260259	1.090424
C63	C	-0.760186	1.171708	1.134466
C64	C	-0.260186	1.671708	1.634466
C65	C	-0.760202	1.350352	1.134468
C66	C	-0.260202	1.850352	1.634468
C67	C	-0.760213	0.760272	1.339216
C68	C	-0.260213	1.260272	1.839216
C69	C	-0.760226	0.760291	1.426466
C70	C	-0.260226	1.260291	1.926466
H71	H	-0.943529	0.942991	0.686968
H72	H	-0.443529	1.442991	1.186968
H73	H	-0.943557	0.943007	0.582839
H74	H	-0.443557	1.443007	1.082839
N75	N	-0.550153	0.550853	0.676069
N76	N	-0.050153	1.050853	1.176069
H77	H	-0.574488	0.438103	0.690340
H78	H	-0.074488	0.938103	1.190340
H79	H	-0.437514	0.575657	0.690345
H80	H	0.062486	1.075657	1.190345
H81	H	-0.576873	0.577560	0.434050
H82	H	-0.076873	1.077560	0.934050
N83	N	-0.970291	0.969671	0.423288
N84	N	-0.470291	1.469671	0.923288
H85	H	-0.945987	1.082427	0.437564
H86	H	-0.445987	1.582427	0.937564
H87	H	-1.082918	0.944830	0.437583
H88	H	-0.582918	1.444830	0.937583
H89	H	-0.576821	0.577467	0.835628
H90	H	-0.076821	1.077467	1.335628
H91	H	-0.943522	0.942951	0.835686
H92	H	-0.443522	1.442951	1.335686
H93	H	-0.576848	0.577521	0.582777
H94	H	-0.076848	1.077521	1.082777
