data_functionalizedCrystal
_audit_creation_method	'MofGen! by Chris Wilmer'
_symmetry_space_group_name_H-M	'P1'
_symmetry_Int_Tables_number	1
_symmetry_cell_setting	triclinic
loop_
_symmetry_equiv_pos_as_xyz
  x,y,z
_cell_length_a	16.992694
_cell_length_b	14.044220
_cell_length_c	15.455313
_cell_angle_alpha	92.908275
_cell_angle_beta	87.142206
_cell_angle_gamma	91.928550
loop_
_atom_site_label
_atom_site_type_symbol
_atom_site_fract_x
_atom_site_fract_y
_atom_site_fract_z
O1	O	1.057683	0.198159	-0.072025
O2	O	0.829244	0.195941	-0.072050
O3	O	0.940034	0.058806	-0.072029
O4	O	0.946893	0.335294	-0.072046
O5	O	0.933696	0.066614	0.072232
O6	O	0.822906	0.203749	0.072211
O7	O	1.051345	0.205967	0.072236
Cu8	Cu	0.936547	0.205571	0.085396
Cu9	Cu	0.944042	0.196337	-0.085210
O10	O	0.940555	0.343102	0.072215
C11	C	0.796663	0.196993	0.000077
C12	C	0.709024	0.188484	0.000068
C13	C	0.664526	0.270581	0.000063
C14	C	0.582179	0.262581	0.000076
C15	C	0.544332	0.172483	0.000086
C16	C	0.588836	0.090381	0.000093
C17	C	0.671181	0.098382	0.000087
C18	C	0.298414	0.139322	0.000112
C19	C	0.216063	0.131327	0.000115
C20	C	0.209411	0.303528	0.000100
C21	C	0.291759	0.311521	0.000088
C22	C	0.336255	0.229419	0.000099
N23	N	0.460161	0.164304	0.000096
N24	N	0.420425	0.237599	0.000096
C25	C	0.933863	0.027168	0.000101
C26	C	0.924909	-0.078736	0.000101
C27	C	0.908540	-0.272638	0.000087
C28	C	0.972046	-0.325460	0.000092
C29	C	0.962938	-0.433354	0.000084
C30	C	0.917647	-0.164734	0.000095
C31	C	1.083926	0.204915	0.000107
C32	C	1.171565	0.213424	0.000111
C33	C	0.946726	0.374740	0.000083
C34	C	0.955680	0.480644	0.000077
N35	N	0.931281	0.212065	0.205390
N36	N	0.949314	0.189836	-0.205204
C37	C	0.978368	0.153829	0.250793
C38	C	0.974393	0.158750	0.341600
C39	C	0.923335	0.221911	0.387003
C40	C	0.876243	0.280149	0.341594
C41	C	0.880214	0.275223	0.250788
C42	C	0.906193	0.243148	0.658581
C43	C	0.902227	0.248072	0.749393
C44	C	1.000377	0.126671	0.749394
C45	C	1.004347	0.121754	0.658586
C46	C	0.957251	0.179989	0.613185
N47	N	0.919273	0.226945	0.479822
N48	N	0.961310	0.174950	0.520367
H49	H	0.558015	0.017022	0.000114
C50	C	0.826915	-0.320335	-0.000098
C51	C	0.789339	-0.296671	-0.074328
C52	C	0.714151	-0.340615	-0.074531
H53	H	0.796786	-0.298973	0.050150
H54	H	0.831534	-0.387566	-0.000147
H55	H	0.784716	-0.229454	-0.074271
H56	H	0.819445	-0.318034	-0.124588
H57	H	0.718770	-0.407847	-0.074580
H58	H	0.684029	-0.319250	-0.024280
H59	H	0.688649	-0.324573	-0.124898
C60	C	0.533919	0.351742	-0.000112
C61	C	0.555178	0.401592	-0.074351
C62	C	0.510731	0.483730	-0.074558
H63	H	0.543812	0.391263	0.050130
H64	H	0.479449	0.334117	-0.000150
H65	H	0.609635	0.419219	-0.074306
H66	H	0.545281	0.362099	-0.124605
H67	H	0.456261	0.466106	-0.074596
H68	H	0.520629	0.523243	-0.024314
H69	H	0.525144	0.517559	-0.124933
H70	H	0.695334	0.343947	0.000054
H71	H	1.019948	0.102401	0.213833
C72	C	0.719602	0.009321	-0.000047
C73	C	0.770336	0.004878	-0.074257
C74	C	0.814960	-0.077147	-0.074400
H75	H	0.685367	-0.045559	-0.000086
H76	H	0.749706	0.011583	0.050233
H77	H	0.740235	0.002607	-0.124523
H78	H	0.804588	0.059738	-0.074233
H79	H	0.845064	-0.074884	-0.024120
H80	H	0.780718	-0.132020	-0.074436
H81	H	0.849393	-0.080167	-0.124745
H82	H	1.033258	-0.289655	0.000040
C83	C	0.846700	0.316666	0.798533
C84	C	0.806286	0.366589	0.739338
C85	C	0.755122	0.429771	0.784573
H86	H	0.876187	0.360513	0.833950
H87	H	0.809907	0.281806	0.833946
H88	H	0.843073	0.401448	0.703939
H89	H	0.776783	0.322768	0.703918
H90	H	0.718329	0.394911	0.819987
H91	H	0.784615	0.473611	0.819989
H92	H	0.727689	0.463645	0.744417
C93	C	1.025621	0.095491	0.390738
C94	C	1.071208	0.039151	0.331541
C95	C	1.118421	-0.019125	0.376775
H96	H	0.993039	0.055485	0.426179
H97	H	1.059320	0.134191	0.426129
H98	H	1.037513	0.000454	0.296166
H99	H	1.103806	0.079131	0.296099
H100	H	1.152120	0.019575	0.412165
H101	H	1.085833	-0.059124	0.412214
H102	H	1.149362	-0.057352	0.336617
C103	C	0.174826	0.033584	0.000091
C104	C	0.093190	0.044154	0.000069
C105	C	0.055177	-0.045860	0.000034
H106	H	0.187390	0.002167	0.050390
H107	H	0.191846	-0.003226	-0.050230
H108	H	0.076176	0.080949	0.050385
H109	H	0.080603	0.075555	-0.050227
H110	H	0.072197	-0.082670	-0.050287
H111	H	0.067747	-0.077270	0.050334
H112	H	-0.000217	-0.038702	0.000011
H113	H	0.334634	0.072468	0.000121
C114	C	1.059800	0.053078	0.609452
C115	C	1.100173	0.003112	0.668651
C116	C	1.151257	-0.060167	0.623419
H117	H	1.096626	0.087840	0.574015
H118	H	1.030234	0.009271	0.574058
H119	H	1.129737	0.046913	0.704029
H120	H	1.063367	-0.031669	0.704090
H121	H	1.121691	-0.103974	0.588026
H122	H	1.188078	-0.025398	0.587984
H123	H	1.178651	-0.094083	0.663579
C124	C	0.855206	0.306440	0.609190
C125	C	0.903557	0.365140	0.557031
C126	C	0.856616	0.423457	0.511510
H127	H	0.824226	0.344849	0.649143
H128	H	0.821553	0.267766	0.573725
H129	H	0.937196	0.403811	0.592492
H130	H	0.934537	0.326757	0.517062
H131	H	0.822963	0.384783	0.476045
H132	H	0.825638	0.461860	0.551469
H133	H	0.889415	0.463286	0.476108
H134	H	1.038719	0.079258	0.786368
C135	C	0.829058	0.338566	0.201646
C136	C	0.783509	0.394955	0.260841
C137	C	0.736378	0.453325	0.215605
H138	H	0.795330	0.299961	0.166231
H139	H	0.861719	0.378533	0.166231
H140	H	0.750850	0.354992	0.296242
H141	H	0.817216	0.433579	0.296258
H142	H	0.769039	0.493292	0.180189
H143	H	0.702655	0.414713	0.180191
H144	H	0.705473	0.491598	0.255761
H145	H	0.322568	0.384887	0.000070
H146	H	0.834666	0.331573	0.378565
H147	H	0.173174	0.370371	0.000092
