data_functionalizedCrystal
_audit_creation_method	'MofGen! by Chris Wilmer'
_symmetry_space_group_name_H-M	'P1'
_symmetry_Int_Tables_number	1
_symmetry_cell_setting	triclinic
loop_
_symmetry_equiv_pos_as_xyz
  x,y,z
_cell_length_a	14.519709
_cell_length_b	15.995350
_cell_length_c	12.996460
_cell_angle_alpha	89.996086
_cell_angle_beta	90.000034
_cell_angle_gamma	83.586260
loop_
_atom_site_label
_atom_site_type_symbol
_atom_site_fract_x
_atom_site_fract_y
_atom_site_fract_z
O1	O	1.223669	0.109760	-0.085428
O2	O	1.557003	0.443093	0.247906
O3	O	1.890336	0.776427	0.581239
O4	O	0.955169	0.122686	-0.085458
O5	O	1.288502	0.456019	0.247875
O6	O	1.621836	0.789352	0.581208
O7	O	1.096759	-0.005654	-0.085441
O8	O	1.430092	0.327680	0.247892
O9	O	1.763426	0.661013	0.581225
O10	O	1.082080	0.238099	-0.085445
O11	O	1.415413	0.571433	0.247889
O12	O	1.748746	0.904766	0.581222
O13	O	1.096744	-0.005661	0.085693
O14	O	1.430077	0.327672	0.419026
O15	O	1.763411	0.661006	0.752359
O16	O	0.955154	0.122678	0.085675
O17	O	1.288488	0.456012	0.419009
O18	O	1.621821	0.789345	0.752342
O19	O	1.223655	0.109753	0.085706
O20	O	1.556988	0.443086	0.419040
O21	O	1.890321	0.776420	0.752373
Cu22	Cu	1.089403	0.116215	0.101317
Cu23	Cu	1.422736	0.449548	0.434650
Cu24	Cu	1.756070	0.782882	0.767983
Cu25	Cu	1.089421	0.116224	-0.101069
Cu26	Cu	1.422754	0.449557	0.232264
Cu27	Cu	1.756087	0.782890	0.565598
O28	O	1.082065	0.238092	0.085689
O29	O	1.415398	0.571426	0.419022
O30	O	1.748732	0.904759	0.752356
C31	C	0.920803	0.122080	0.000104
C32	C	1.254136	0.455413	0.333438
C33	C	1.587470	0.788746	0.666771
C34	C	0.818425	0.120275	0.000092
C35	C	1.151758	0.453608	0.333426
C36	C	1.485092	0.786941	0.666759
C37	C	1.096145	-0.036853	0.000124
C38	C	1.429478	0.296480	0.333457
C39	C	1.762811	0.629814	0.666790
C40	C	1.094325	-0.129806	0.000118
C41	C	1.427659	0.203527	0.333451
C42	C	1.760992	0.536861	0.666784
C43	C	0.443541	0.113629	0.000139
C44	C	0.776875	0.446962	0.333473
C45	C	1.110208	0.780296	0.666806
C46	C	0.547846	0.115475	0.000126
C47	C	0.881179	0.448808	0.333459
C48	C	1.214513	0.782141	0.666793
C49	C	0.630980	0.116952	0.000115
C50	C	0.964313	0.450285	0.333448
C51	C	1.297647	0.783618	0.666782
C52	C	0.735291	0.118797	0.000104
C53	C	1.068624	0.452131	0.333437
C54	C	1.401958	0.785464	0.666770
C55	C	1.087791	-0.467563	0.000120
C56	C	1.421125	-0.134230	0.333454
C57	C	1.754458	0.199103	0.666787
C58	C	0.986954	-0.420280	-0.000275
C59	C	1.320287	-0.086947	0.333058
C60	C	1.653620	0.246386	0.666392
C61	C	0.988773	-0.323587	0.000111
C62	C	1.322107	0.009746	0.333444
C63	C	1.655440	0.343079	0.666778
C64	C	1.091032	-0.299998	0.000118
C65	C	1.424366	0.033335	0.333452
C66	C	1.757699	0.366669	0.666785
C67	C	1.140761	-0.341005	0.097848
C68	C	1.474094	-0.007672	0.431181
C69	C	1.807427	0.325662	0.764515
C70	C	1.138227	-0.437645	0.097930
C71	C	1.471561	-0.104311	0.431263
C72	C	1.804894	0.229022	0.764596
C73	C	1.140327	-0.437992	-0.096681
C74	C	1.473661	-0.104658	0.236652
C75	C	1.806994	0.228675	0.569985
C76	C	1.140303	-0.341046	-0.097973
C77	C	1.473637	-0.007713	0.235361
C78	C	1.806970	0.325620	0.568694
C79	C	1.092869	-0.205298	0.000121
C80	C	1.426203	0.128036	0.333454
C81	C	1.759536	0.461369	0.666787
C82	C	1.085957	-0.562264	0.000125
C83	C	1.419291	-0.228931	0.333458
C84	C	1.752624	0.104403	0.666792
C85	C	1.258021	0.110359	0.000141
C86	C	1.591354	0.443692	0.333474
C87	C	1.924687	0.777026	0.666808
C88	C	1.360399	0.112164	0.000146
C89	C	1.693732	0.445497	0.333480
C90	C	2.027065	0.778831	0.666813
C91	C	1.082679	0.269292	0.000122
C92	C	1.416012	0.602625	0.333455
C93	C	1.749346	0.935958	0.666788
C94	C	1.084498	0.362245	0.000121
C95	C	1.417832	0.695578	0.333454
C96	C	1.751165	1.028911	0.666788
N97	N	1.089398	0.116209	0.243664
N98	N	1.422731	0.449542	0.576997
N99	N	1.756064	0.782875	0.910330
N100	N	1.089433	0.116223	-0.243416
N101	N	1.422767	0.449557	0.089917
N102	N	1.756100	0.782890	0.423251
C103	C	1.089419	0.116224	0.663478
C104	C	1.422753	0.449558	0.996811
C105	C	1.756086	0.782891	1.330145
C106	C	1.089411	0.116223	0.546673
C107	C	1.422744	0.449556	0.880006
C108	C	1.756077	0.782889	1.213340
C109	C	1.089409	0.116217	0.453575
C110	C	1.422742	0.449550	0.786908
C111	C	1.756076	0.782884	1.120241
C112	C	1.089399	0.116214	0.336762
C113	C	1.422733	0.449548	0.670095
C114	C	1.756066	0.782881	1.003429
H115	H	0.949683	-0.295221	-0.069946
H116	H	1.283017	0.038112	0.263387
H117	H	1.616350	0.371446	0.596721
Br118	Br	1.077765	-0.468249	0.219680
Br119	Br	1.411098	-0.134915	0.553013
Br120	Br	1.744432	0.198418	0.886346
H121	H	1.212261	-0.469782	0.102369
H122	H	1.545594	-0.136449	0.435702
H123	H	1.878927	0.196885	0.769036
H124	H	1.103946	-0.313849	-0.170271
H125	H	1.437279	0.019484	0.163063
H126	H	1.770612	0.352818	0.496396
Br127	Br	0.919781	-0.451258	-0.117090
Br128	Br	1.253115	-0.117925	0.216243
Br129	Br	1.586448	0.215408	0.549577
Br130	Br	0.919872	-0.453442	0.115515
Br131	Br	1.253205	-0.120108	0.448848
Br132	Br	1.586538	0.213225	0.782182
H133	H	1.107365	-0.458578	-0.170754
H134	H	1.440698	-0.125244	0.162579
H135	H	1.774032	0.208089	0.495913
Br136	Br	1.265979	-0.317279	0.103921
Br137	Br	1.599312	0.016054	0.437254
Br138	Br	1.932645	0.349387	0.770588
H139	H	1.214674	-0.469641	-0.097333
H140	H	1.548008	-0.136308	0.236001
H141	H	1.881341	0.197026	0.569334
Br142	Br	1.083177	-0.293796	0.219060
Br143	Br	1.416511	0.039537	0.552393
Br144	Br	1.749844	0.372870	0.885727
H145	H	0.949408	-0.295785	0.070278
H146	H	1.282742	0.037549	0.403612
H147	H	1.616075	0.370882	0.736945
Br148	Br	1.264595	-0.315251	-0.107809
Br149	Br	1.597929	0.018083	0.225524
Br150	Br	1.931262	0.351416	0.558857
