data_functionalizedCrystal
_audit_creation_method	'MofGen! by Chris Wilmer'
_symmetry_space_group_name_H-M	'P1'
_symmetry_Int_Tables_number	1
_symmetry_cell_setting	triclinic
loop_
_symmetry_equiv_pos_as_xyz
  x,y,z
_cell_length_a	29.839134
_cell_length_b	29.839131
_cell_length_c	29.839126
_cell_angle_alpha	89.970347
_cell_angle_beta	89.964260
_cell_angle_gamma	90.030088
loop_
_atom_site_label
_atom_site_type_symbol
_atom_site_fract_x
_atom_site_fract_y
_atom_site_fract_z
Zn1	Zn	0.686800	-0.178959	-0.254101
Zn2	Zn	1.186800	0.321041	0.245899
Zn3	Zn	0.686722	-0.254076	-0.178961
Zn4	Zn	1.186722	0.245924	0.321039
Zn5	Zn	0.611665	-0.178955	-0.178971
Zn6	Zn	1.111665	0.321045	0.321029
Zn7	Zn	0.611639	-0.254056	-0.254049
Zn8	Zn	1.111639	0.245944	0.245951
O9	O	0.649206	-0.216511	-0.216521
O10	O	1.149206	0.283489	0.283479
O11	O	0.749657	-0.188934	-0.244151
O12	O	1.249657	0.311066	0.255849
O13	O	0.676744	-0.244118	-0.116095
O14	O	1.176744	0.255882	0.383905
O15	O	0.621675	-0.116088	-0.188963
O16	O	1.121675	0.383912	0.311037
O17	O	0.749600	-0.244122	-0.188946
O18	O	1.249600	0.255878	0.311054
O19	O	0.676877	-0.116091	-0.244161
O20	O	1.176877	0.383909	0.255839
O21	O	0.621600	-0.188927	-0.116102
O22	O	1.121600	0.311073	0.383898
O23	O	0.548794	-0.188906	-0.188912
O24	O	1.048794	0.311094	0.311088
O25	O	0.621631	-0.244087	-0.316923
O26	O	1.121631	0.255913	0.183077
O27	O	0.548775	-0.244083	-0.244073
O28	O	1.048775	0.255917	0.255927
O29	O	0.676851	-0.188914	-0.316961
O30	O	1.176851	0.311086	0.183039
O31	O	0.676719	-0.316941	-0.188896
O32	O	1.176719	0.183059	0.311104
O33	O	0.621555	-0.316926	-0.244063
O34	O	1.121555	0.183074	0.255937
C35	C	0.532484	-0.216492	-0.216488
C36	C	1.032484	0.283508	0.283512
C37	C	0.482549	-0.216495	-0.216485
C38	C	0.982549	0.283505	0.283515
C39	C	0.649138	-0.333234	-0.216483
C40	C	1.149138	0.166766	0.283517
C41	C	0.649150	-0.383168	-0.216482
C42	C	1.149150	0.116832	0.283518
C43	C	0.172905	-0.245284	-0.245207
C44	C	0.672905	0.254716	0.254793
C45	C	-0.014768	-0.245297	-0.245227
C46	C	0.485232	0.254703	0.254773
O47	O	-0.039033	-0.269754	-0.269629
O48	O	0.460967	0.230246	0.230371
N49	N	-0.038236	-0.216528	-0.216554
N50	N	0.461764	0.283472	0.283446
C51	C	-0.014783	-0.187752	-0.187877
C52	C	0.485217	0.312248	0.312123
O53	O	-0.039050	-0.163279	-0.163492
O54	O	0.460950	0.336721	0.336508
C55	C	0.172890	-0.187737	-0.187859
C56	C	0.672890	0.312263	0.312141
C57	C	0.196355	-0.216511	-0.216531
C58	C	0.696355	0.283489	0.283469
C59	C	0.196371	-0.274056	-0.273877
C60	C	0.696371	0.225944	0.226123
C61	C	0.243287	-0.274054	-0.273870
C62	C	0.743287	0.225946	0.226130
C63	C	0.266736	-0.245281	-0.245193
C64	C	0.766736	0.254719	0.254807
C65	C	0.243271	-0.216509	-0.216524
C66	C	0.743271	0.283491	0.283476
C67	C	0.196342	-0.158959	-0.159184
C68	C	0.696342	0.341041	0.340816
C69	C	0.243263	-0.158957	-0.159183
C70	C	0.743263	0.341043	0.340817
C71	C	0.266728	-0.187731	-0.187855
C72	C	0.766728	0.312269	0.312145
C73	C	0.313636	-0.187734	-0.187840
C74	C	0.813636	0.312266	0.312160
N75	N	0.337104	-0.216504	-0.216513
N76	N	0.837104	0.283496	0.283487
C77	C	0.313654	-0.245277	-0.245189
C78	C	0.813654	0.254723	0.254811
C79	C	-0.113313	-0.187762	-0.187887
C80	C	0.386687	0.312238	0.312113
C81	C	-0.160231	-0.187766	-0.187891
C82	C	0.339769	0.312234	0.312109
C83	C	-0.160213	-0.245311	-0.245242
C84	C	0.339787	0.254689	0.254758
C85	C	-0.113294	-0.245309	-0.245236
C86	C	0.386706	0.254691	0.254764
C87	C	-0.089845	-0.216531	-0.216560
C88	C	0.410155	0.283469	0.283440
C89	C	0.412180	-0.245271	-0.245172
C90	C	0.912180	0.254729	0.254828
C91	C	0.459100	-0.245268	-0.245161
C92	C	0.959100	0.254732	0.254839
C93	C	0.459077	-0.187722	-0.187812
C94	C	0.959077	0.312278	0.312188
C95	C	0.412162	-0.187726	-0.187821
C96	C	0.912162	0.312274	0.312179
C97	C	0.388714	-0.216502	-0.216505
C98	C	0.888714	0.283498	0.283495
O99	O	0.337930	-0.163287	-0.163455
O100	O	0.837930	0.336713	0.336545
O101	O	0.337930	-0.269739	-0.269577
O102	O	0.837930	0.230261	0.230423
C103	C	0.125990	-0.245286	-0.245214
C104	C	0.625990	0.254714	0.254786
C105	C	0.102524	-0.216515	-0.216545
C106	C	0.602524	0.283485	0.283455
C107	C	0.125974	-0.187741	-0.187868
C108	C	0.625974	0.312259	0.312132
C109	C	0.055606	-0.216519	-0.216548
C110	C	0.555606	0.283481	0.283452
C111	C	0.032157	-0.245292	-0.245225
C112	C	0.532157	0.254708	0.254775
C113	C	0.055625	-0.274061	-0.273898
C114	C	0.555625	0.225939	0.226102
C115	C	0.102540	-0.274059	-0.273891
C116	C	0.602540	0.225941	0.226109
C117	C	0.102506	-0.158972	-0.159196
C118	C	0.602506	0.341028	0.340804
C119	C	0.055590	-0.158977	-0.159205
C120	C	0.555590	0.341023	0.340795
C121	C	0.032141	-0.187750	-0.187881
C122	C	0.532141	0.312250	0.312119
C123	C	0.677944	-0.692779	-0.245303
C124	C	1.177944	-0.192779	0.254697
C125	C	0.677992	-0.880452	-0.245330
C126	C	1.177992	-0.380452	0.254670
O127	O	0.702407	-0.904688	-0.269807
O128	O	1.202407	-0.404688	0.230193
N129	N	0.649283	-0.903953	-0.216570
N130	N	1.149283	-0.403953	0.283430
C131	C	0.620557	-0.880534	-0.187804
C132	C	1.120557	-0.380534	0.312196
O133	O	0.596135	-0.904830	-0.163346
O134	O	1.096135	-0.404830	0.336654
C135	C	0.620506	-0.692862	-0.187780
C136	C	1.120506	-0.192862	0.312220
C137	C	0.649221	-0.669363	-0.216538
C138	C	1.149221	-0.169363	0.283462
C139	C	0.706656	-0.669279	-0.274060
C140	C	1.206656	-0.169279	0.225940
C141	C	0.706645	-0.622364	-0.274051
C142	C	1.206645	-0.122364	0.225949
C143	C	0.677922	-0.598948	-0.245286
C144	C	1.177922	-0.098948	0.254714
C145	C	0.649210	-0.622447	-0.216529
C146	C	1.149210	-0.122447	0.283471
C147	C	0.591778	-0.669444	-0.159016
C148	C	1.091778	-0.169444	0.340984
C149	C	0.591767	-0.622523	-0.159013
C150	C	1.091767	-0.122523	0.340987
C151	C	0.620482	-0.599023	-0.187771
C152	C	1.120482	-0.099023	0.312229
C153	C	0.620476	-0.552116	-0.187755
C154	C	1.120476	-0.052116	0.312245
N155	N	0.649186	-0.528614	-0.216515
N156	N	1.149186	-0.028614	0.283485
C157	C	0.677909	-0.552030	-0.245280
C158	C	1.177909	-0.052030	0.254720
C159	C	0.620586	-0.979065	-0.187818
C160	C	1.120586	-0.479065	0.312182
C161	C	0.620599	-1.025983	-0.187824
C162	C	1.120599	-0.525983	0.312176
C163	C	0.678034	-1.025897	-0.245351
C164	C	1.178034	-0.525897	0.254649
C165	C	0.678023	-0.978978	-0.245342
C166	C	1.178023	-0.478978	0.254658
C167	C	0.649296	-0.955563	-0.216578
C168	C	1.149296	-0.455563	0.283422
C169	C	0.677884	-0.453504	-0.245259
C170	C	1.177884	0.046496	0.254741
C171	C	0.677872	-0.406584	-0.245247
C172	C	1.177872	0.093416	0.254753
C173	C	0.620436	-0.406674	-0.187722
C174	C	1.120436	0.093326	0.312278
C175	C	0.620449	-0.453590	-0.187732
C176	C	1.120449	0.046410	0.312268
C177	C	0.649175	-0.477004	-0.216505
C178	C	1.149175	0.022996	0.283495
O179	O	0.596071	-0.527850	-0.163295
O180	O	1.096071	-0.027850	0.336705
O181	O	0.702320	-0.527726	-0.269742
O182	O	1.202320	-0.027726	0.230258
C183	C	0.677954	-0.739694	-0.245312
C184	C	1.177954	-0.239694	0.254688
C185	C	0.649242	-0.763193	-0.216556
C186	C	1.149242	-0.263193	0.283444
C187	C	0.620519	-0.739778	-0.187790
C188	C	1.120519	-0.239778	0.312210
C189	C	0.649255	-0.810111	-0.216561
C190	C	1.149255	-0.310111	0.283439
C191	C	0.677978	-0.833527	-0.245326
C192	C	1.177978	-0.333527	0.254674
C193	C	0.706688	-0.810025	-0.274086
C194	C	1.206688	-0.310025	0.225914
C195	C	0.706677	-0.763110	-0.274077
C196	C	1.206677	-0.263110	0.225923
C197	C	0.591810	-0.763279	-0.159031
C198	C	1.091810	-0.263279	0.340969
C199	C	0.591823	-0.810195	-0.159041
C200	C	1.091823	-0.310195	0.340959
C201	C	0.620546	-0.833611	-0.187807
C202	C	1.120546	-0.333611	0.312193
C203	C	0.766385	-0.216531	-0.216553
C204	C	1.266385	0.283469	0.283447
C205	C	0.816319	-0.216539	-0.216567
C206	C	1.316319	0.283461	0.283433
C207	C	0.649247	-0.216499	-0.333699
C208	C	1.149247	0.283501	0.166301
C209	C	0.649264	-0.216493	-0.383633
C210	C	1.149264	0.283507	0.116367
C211	C	0.649287	-0.099333	-0.216568
C212	C	1.149287	0.400667	0.283432
C213	C	0.649322	-0.049399	-0.216589
C214	C	1.149322	0.450601	0.283411
C215	C	0.677971	-0.245172	-0.740220
C216	C	1.177971	0.254828	-0.240220
C217	C	0.677972	-0.245203	-0.552547
C218	C	1.177972	0.254797	-0.052547
O219	O	0.702376	-0.269657	-0.528282
O220	O	1.202376	0.230343	-0.028282
N221	N	0.649262	-0.216471	-0.529079
N222	N	1.149262	0.283529	-0.029079
C223	C	0.620547	-0.187732	-0.552532
C224	C	1.120547	0.312268	-0.052532
O225	O	0.596124	-0.163298	-0.528264
O226	O	1.096124	0.336702	-0.028264
C227	C	0.620544	-0.187704	-0.740204
C228	C	1.120544	0.312296	-0.240204
C229	C	0.649260	-0.216434	-0.763670
C230	C	1.149260	0.283566	-0.263670
C231	C	0.706684	-0.273900	-0.763686
C232	C	1.206684	0.226100	-0.263686
C233	C	0.706685	-0.273890	-0.810601
C234	C	1.206685	0.226110	-0.310601
C235	C	0.677974	-0.245152	-0.834051
C236	C	1.177974	0.254848	-0.334051
C237	C	0.649261	-0.216424	-0.810585
C238	C	1.149261	0.283576	-0.310585
C239	C	0.591828	-0.158967	-0.763656
C240	C	1.091828	0.341033	-0.263656
C241	C	0.591829	-0.158963	-0.810577
C242	C	1.091829	0.341037	-0.310577
C243	C	0.620544	-0.187693	-0.834043
C244	C	1.120544	0.312307	-0.334043
C245	C	0.620551	-0.187676	-0.880950
C246	C	1.120551	0.312324	-0.380950
N247	N	0.649261	-0.216407	-0.904418
N248	N	1.149261	0.283593	-0.404418
C249	C	0.677973	-0.245145	-0.880969
C250	C	1.177973	0.254855	-0.380969
C251	C	0.620551	-0.187749	-0.454001
C252	C	1.120551	0.312251	0.045999
C253	C	0.620552	-0.187755	-0.407083
C254	C	1.120552	0.312245	0.092917
C255	C	0.677977	-0.245227	-0.407102
C256	C	1.177977	0.254773	0.092898
C257	C	0.677978	-0.245217	-0.454020
C258	C	1.177978	0.254783	0.045980
C259	C	0.649262	-0.216480	-0.477469
C260	C	1.149262	0.283520	0.022531
C261	C	0.677974	-0.245122	-0.979495
C262	C	1.177974	0.254878	-0.479495
C263	C	0.677974	-0.245109	-1.026414
C264	C	1.177974	0.254891	-0.526414
C265	C	0.620547	-0.187639	-1.026392
C266	C	1.120547	0.312361	-0.526392
C267	C	0.620549	-0.187651	-0.979476
C268	C	1.120549	0.312349	-0.479476
C269	C	0.649263	-0.216396	-0.956029
C270	C	1.149263	0.283604	-0.456029
O271	O	0.596156	-0.163238	-0.905244
O272	O	1.096156	0.336762	-0.405244
O273	O	0.702385	-0.269583	-0.905244
O274	O	1.202385	0.230417	-0.405244
C275	C	0.677970	-0.245181	-0.693305
C276	C	1.177970	0.254819	-0.193305
C277	C	0.649257	-0.216453	-0.669839
C278	C	1.149257	0.283547	-0.169839
C279	C	0.620546	-0.187715	-0.693288
C280	C	1.120546	0.312285	-0.193288
C281	C	0.649259	-0.216460	-0.622921
C282	C	1.149259	0.283540	-0.122921
C283	C	0.677970	-0.245198	-0.599471
C284	C	1.177970	0.254802	-0.099471
C285	C	0.706680	-0.273929	-0.622940
C286	C	1.206680	0.226071	-0.122940
C287	C	0.706682	-0.273919	-0.669855
C288	C	1.206682	0.226081	-0.169855
C289	C	0.591835	-0.158984	-0.669820
C290	C	1.091835	0.341016	-0.169820
C291	C	0.591837	-0.158996	-0.622904
C292	C	1.091837	0.341004	-0.122904
C293	C	0.620548	-0.187734	-0.599455
C294	C	1.120548	0.312266	-0.099455
C295	C	0.649192	-0.216492	-0.099798
C296	C	1.149192	0.283508	0.400202
C297	C	0.649262	-0.216371	-0.049864
C298	C	1.149262	0.283629	0.450136
H299	H	0.478203	-0.268701	-0.268510
H300	H	0.978203	0.231299	0.231490
H301	H	0.730067	-0.297286	-0.829703
H302	H	1.230067	0.202714	-0.329703
H303	H	0.701360	-0.268612	-0.473123
H304	H	1.201360	0.231388	0.026877
N305	N	0.126455	-0.129575	-0.129906
N306	N	0.626455	0.370425	0.370094
N307	N	0.121234	-0.088125	-0.132966
N308	N	0.621234	0.411875	0.367034
H309	H	0.138147	-0.067363	-0.112276
H310	H	0.638147	0.432637	0.387724
N311	N	0.707308	-0.274574	-0.383137
N312	N	1.207308	0.225426	0.116863
N313	N	0.707302	-0.274571	-0.341246
N314	N	1.207302	0.225429	0.158754
H315	H	0.728015	-0.295297	-0.324319
H316	H	1.228015	0.204703	0.175681
N317	N	0.591213	-0.158293	-1.050349
N318	N	1.091213	0.341707	-0.550349
N319	N	0.549757	-0.161274	-1.045085
N320	N	1.049757	0.338726	-0.545085
H321	H	0.529036	-0.140551	-1.062006
H322	H	1.029036	0.359449	-0.562006
H323	H	0.730065	-0.297314	-0.688957
H324	H	1.230065	0.202686	-0.188957
N325	N	0.736018	-0.739115	-0.303449
N326	N	1.236018	-0.239115	0.196551
N327	N	0.777473	-0.744336	-0.300509
N328	N	1.277473	-0.244336	0.199491
H329	H	0.798199	-0.727394	-0.321254
H330	H	1.298199	-0.227394	0.178746
H331	H	0.036489	-0.135546	-0.135853
H332	H	0.536489	0.364454	0.364147
H333	H	0.701405	-0.959848	-0.268760
H334	H	1.201405	-0.459848	0.231240
H335	H	0.568454	-0.135583	-0.688908
H336	H	1.068454	0.364417	-0.188908
N337	N	0.707306	-0.274452	-1.050391
N338	N	1.207306	0.225548	-0.550391
N339	N	0.735945	-0.258644	-1.076594
N340	N	1.235945	0.241356	-0.576594
H341	H	0.756660	-0.279367	-1.093527
H342	H	1.256660	0.220633	-0.593527
N343	N	0.707379	-1.049812	-0.274736
N344	N	1.207379	-0.549812	0.225264
N345	N	0.748834	-1.044544	-0.271807
N346	N	1.248834	-0.544544	0.228193
H347	H	0.769556	-1.061436	-0.292562
H348	H	1.269556	-0.561436	0.207438
H349	H	0.597071	-0.472724	-0.164312
H350	H	1.097071	0.027276	0.335688
H351	H	0.393095	-0.268703	-0.268530
H352	H	0.893095	0.231297	0.231470
N353	N	0.031673	-0.303451	-0.303197
N354	N	0.531673	0.196549	0.196803
N355	N	0.052625	-0.329138	-0.328799
N356	N	0.552625	0.170862	0.171201
H357	H	0.035708	-0.349892	-0.349493
H358	H	0.535708	0.150108	0.150507
H359	H	0.262388	-0.297484	-0.297218
H360	H	0.762388	0.202516	0.202782
H361	H	0.730065	-0.297304	-0.744598
H362	H	1.230065	0.202696	-0.244598
H363	H	0.177283	-0.297487	-0.297231
H364	H	0.677283	0.202513	0.202769
N365	N	0.172371	-0.129569	-0.129901
N366	N	0.672371	0.370431	0.370099
N367	N	0.146161	-0.145326	-0.101241
N368	N	0.646161	0.354674	0.398759
H369	H	0.129231	-0.124568	-0.080559
H370	H	0.629231	0.375432	0.419441
H371	H	0.597174	-0.164355	-0.387981
H372	H	1.097174	0.335645	0.112019
H373	H	0.121642	-0.297490	-0.297238
H374	H	0.621642	0.202510	0.202762
H375	H	0.730045	-0.688339	-0.297486
H376	H	1.230045	-0.188339	0.202514
N377	N	-0.089327	-0.274705	-0.274518
N378	N	0.410673	0.225295	0.225482
N379	N	-0.094589	-0.316155	-0.271455
N380	N	0.405411	0.183845	0.228545
H381	H	-0.077663	-0.336918	-0.292137
H382	H	0.422337	0.163082	0.207863
N383	N	0.591273	-1.049977	-0.158437
N384	N	1.091273	-0.549977	0.341563
N385	N	0.565632	-1.029058	-0.132757
N386	N	1.065632	-0.529058	0.367243
H387	H	0.544918	-1.046003	-0.112002
H388	H	1.044918	-0.546003	0.387998
N389	N	0.591232	-0.955154	-0.158438
N390	N	1.091232	-0.455154	0.341562
N391	N	0.549779	-0.960435	-0.161376
N392	N	1.049779	-0.460435	0.338624
H393	H	0.529047	-0.943551	-0.140625
H394	H	1.029047	-0.443551	0.359375
H395	H	0.730060	-0.297327	-0.603839
H396	H	1.230060	0.202673	-0.103839
N397	N	0.736028	-0.833956	-0.303463
N398	N	1.236028	-0.333956	0.196537
N399	N	0.736030	-0.875847	-0.303461
N400	N	1.236030	-0.375847	0.196539
H401	H	0.756750	-0.892750	-0.324208
H402	H	1.256750	-0.392750	0.175792
H403	H	0.568454	-0.135596	-0.603803
H404	H	1.068454	0.364404	-0.103803
H405	H	0.568441	-0.829324	-0.135619
H406	H	1.068441	-0.329324	0.364381
H407	H	0.701359	-0.268526	-0.960410
H408	H	1.201359	0.231474	-0.460410
N409	N	0.591212	-0.158390	-0.477943
N410	N	1.091212	0.341610	0.022057
N411	N	0.565583	-0.132742	-0.456978
N412	N	1.065583	0.367258	0.043022
H413	H	0.544862	-0.112006	-0.473885
H414	H	1.044862	0.387994	0.026115
H415	H	0.262352	-0.135519	-0.135834
H416	H	0.762352	0.364481	0.364166
N417	N	0.707215	-0.382585	-0.274618
N418	N	1.207215	0.117415	0.225382
N419	N	0.748671	-0.387804	-0.271679
N420	N	1.248671	0.112196	0.228321
H421	H	0.769395	-0.370858	-0.292422
H422	H	1.269395	0.129142	0.207578
H423	H	0.568396	-0.688569	-0.135597
H424	H	1.068396	-0.188569	0.364403
N425	N	0.388183	-0.158343	-0.158531
N426	N	0.888183	0.341657	0.341469
N427	N	0.361971	-0.174107	-0.129877
N428	N	0.861971	0.325893	0.370123
H429	H	0.345038	-0.153353	-0.109193
H430	H	0.845038	0.346647	0.390807
N431	N	0.562416	-0.598612	-0.129630
N432	N	1.062416	-0.098612	0.370370
N433	N	0.536782	-0.619604	-0.103958
N434	N	1.036782	-0.119604	0.396042
H435	H	0.516053	-0.602718	-0.083206
H436	H	1.016053	-0.102718	0.416794
H437	H	0.568444	-0.135573	-0.744558
H438	H	1.068444	0.364427	-0.244558
H439	H	0.568444	-0.135561	-0.829666
H440	H	1.068444	0.364439	-0.329666
N441	N	0.483044	-0.158331	-0.158530
N442	N	0.983044	0.341669	0.341470
N443	N	0.509251	-0.129731	-0.174399
N444	N	1.009251	0.370269	0.325601
H445	H	0.526180	-0.108971	-0.153721
H446	H	1.026180	0.391029	0.346279
H447	H	0.597172	-0.164251	-0.960369
H448	H	1.097172	0.335749	-0.460369
N449	N	0.707228	-0.477409	-0.274653
N450	N	1.207228	0.022591	0.225347
N451	N	0.732860	-0.456414	-0.300324
N452	N	1.232860	0.043586	0.199676
H453	H	0.753586	-0.473296	-0.321082
H454	H	1.253586	0.026704	0.178918
H455	H	0.597051	-0.387602	-0.164300
H456	H	1.097051	0.112398	0.335700
H457	H	-0.179314	-0.268739	-0.268592
H458	H	0.320686	0.231261	0.231408
H459	H	0.568420	-0.744218	-0.135607
H460	H	1.068420	-0.244218	0.364393
H461	H	-0.179333	-0.164340	-0.164539
H462	H	0.320667	0.335660	0.335461
N463	N	0.735979	-0.598370	-0.303431
N464	N	1.235979	-0.098370	0.196569
N465	N	0.761619	-0.619291	-0.329110
N466	N	1.261619	-0.119291	0.170890
H467	H	0.782337	-0.602348	-0.349862
H468	H	1.282337	-0.102348	0.150138
H469	H	-0.094225	-0.164327	-0.164534
H470	H	0.405775	0.335673	0.335466
