data_functionalizedCrystal
_audit_creation_method	'MofGen! by Chris Wilmer'
_symmetry_space_group_name_H-M	'P1'
_symmetry_Int_Tables_number	1
_symmetry_cell_setting	triclinic
loop_
_symmetry_equiv_pos_as_xyz
  x,y,z
_cell_length_a	12.759400
_cell_length_b	19.077105
_cell_length_c	19.076919
_cell_angle_alpha	89.923776
_cell_angle_beta	92.274856
_cell_angle_gamma	92.288832
loop_
_atom_site_label
_atom_site_type_symbol
_atom_site_fract_x
_atom_site_fract_y
_atom_site_fract_z
Zn1	Zn	-0.508276	-1.058328	-0.440436
Zn2	Zn	-0.677203	-1.062987	-0.322935
Zn3	Zn	-0.494202	-0.945544	-0.318229
Zn4	Zn	-0.676569	-0.940808	-0.435688
O5	O	-0.589062	-1.001917	-0.379322
O6	O	-0.536840	-1.157278	-0.428806
O7	O	-0.647302	-1.051339	-0.223980
O8	O	-0.349051	-0.960537	-0.334457
O9	O	-0.660950	-1.160701	-0.342479
O10	O	-0.359391	-1.043399	-0.424243
O11	O	-0.512852	-0.965055	-0.220522
O12	O	-0.512238	-0.846583	-0.329853
O13	O	-0.659870	-0.952466	-0.534649
O14	O	-0.646223	-0.843104	-0.416150
O15	O	-0.536225	-1.038807	-0.538138
O16	O	-0.824137	-1.046747	-0.337875
O17	O	-0.823671	-0.956983	-0.420714
C18	C	-0.577635	-0.819347	-0.371976
C19	C	-0.572772	-0.741242	-0.368850
C20	C	-0.862026	-1.001876	-0.379306
C21	C	-0.978807	-1.001921	-0.379325
C22	C	-0.599547	-0.994588	-0.562603
C23	C	-0.604015	-0.991465	-0.640706
C24	C	-1.033882	-1.048709	-0.336242
C25	C	-1.143610	-1.048751	-0.336266
C26	C	-1.143177	-0.955212	-0.422456
C27	C	-1.033452	-0.955173	-0.422436
C28	C	-0.979237	-1.095457	-0.293132
C29	C	-1.034313	-1.142248	-0.250045
C30	C	-1.144041	-1.142290	-0.250068
C31	C	-1.198693	-1.095542	-0.293178
C32	C	-0.315035	-1.001976	-0.379355
C33	C	-0.198260	-1.002002	-0.379368
C34	C	-0.600535	-1.185199	-0.386697
C35	C	-0.605424	-1.263303	-0.389840
C36	C	-0.640344	-0.702758	-0.412241
C37	C	-0.635761	-0.629371	-0.409307
C38	C	-0.563612	-0.594468	-0.362979
C39	C	-0.496033	-0.632957	-0.319586
C40	C	-0.500611	-0.706344	-0.322524
C41	C	-0.542424	-0.375179	-0.349385
C42	C	-0.537853	-0.301787	-0.346449
C43	C	-0.677581	-0.298205	-0.436172
C44	C	-0.682157	-0.371593	-0.439102
C45	C	-0.614574	-0.410076	-0.395712
N46	N	-0.558928	-0.519454	-0.359977
N47	N	-0.619253	-0.485088	-0.398718
C48	C	-0.541742	-1.034949	-0.679216
C49	C	-0.545935	-1.032006	-0.752602
C50	C	-0.612408	-0.985583	-0.787477
C51	C	-0.674683	-0.942094	-0.748961
C52	C	-0.670484	-0.945034	-0.675576
C53	C	-0.631866	-0.971967	-1.006758
C54	C	-0.636063	-0.969032	-1.080148
C55	C	-0.507313	-1.058943	-1.083785
C56	C	-0.503124	-1.061882	-1.010398
C57	C	-0.565395	-1.018391	-0.971889
N58	N	-0.616698	-0.982575	-0.862489
N59	N	-0.561099	-1.021396	-0.896878
C60	C	-0.578545	-1.009257	-0.196756
C61	C	-0.573790	-1.012516	-0.118659
H62	H	-0.889891	-1.095426	-0.293106
H63	H	-0.728803	-0.904293	-0.777361
Cl64	Cl	-0.748770	-0.890364	-0.627163
Cl65	Cl	-0.731056	-0.746628	-0.470483
H66	H	-0.445582	-0.737676	-0.287194
Cl67	Cl	-0.964209	-0.896355	-0.476599
H68	H	-0.437283	-0.604534	-0.281867
Cl69	Cl	-0.458177	-1.093317	-0.635382
H70	H	-0.732601	-0.266865	-0.471498
H71	H	-0.487401	-0.406503	-0.314049
Cl72	Cl	-0.965610	-1.201021	-0.195860
Cl73	Cl	-0.720713	-0.580994	-0.463858
H74	H	-1.288042	-1.095585	-0.293200
Cl75	Cl	-0.710151	-0.917293	-0.958356
H76	H	-1.187684	-0.917151	-0.457553
Cl77	Cl	-0.467693	-1.086705	-0.801014
H78	H	-0.448998	-1.099687	-0.982009
Cl79	Cl	-0.429030	-1.113612	-1.132200
Cl80	Cl	-0.772865	-0.415465	-0.497345
H81	H	-0.690196	-0.931226	-1.108541
Cl82	Cl	-1.213277	-1.201118	-0.195910
Cl83	Cl	-0.447151	-0.257911	-0.288198
