data_functionalizedCrystal
_audit_creation_method	'MofGen! by Chris Wilmer'
_symmetry_space_group_name_H-M	'P1'
_symmetry_Int_Tables_number	1
_symmetry_cell_setting	triclinic
loop_
_symmetry_equiv_pos_as_xyz
  x,y,z
_cell_length_a	21.295418
_cell_length_b	21.295417
_cell_length_c	18.215399
_cell_angle_alpha	89.967848
_cell_angle_beta	89.961117
_cell_angle_gamma	90.046319
loop_
_atom_site_label
_atom_site_type_symbol
_atom_site_fract_x
_atom_site_fract_y
_atom_site_fract_z
Zn1	Zn	0.962326	-0.250350	-0.416469
Zn2	Zn	1.295659	0.082983	-0.083135
Zn3	Zn	1.628992	0.416317	0.250198
Zn4	Zn	0.962237	-0.355621	-0.293393
Zn5	Zn	1.295570	-0.022288	0.039940
Zn6	Zn	1.628904	0.311046	0.373273
Zn7	Zn	0.857058	-0.250399	-0.293375
Zn8	Zn	1.190391	0.082935	0.039958
Zn9	Zn	1.523724	0.416268	0.373292
Zn10	Zn	0.857018	-0.355614	-0.416377
Zn11	Zn	1.190352	-0.022281	-0.083044
Zn12	Zn	1.523685	0.311052	0.250289
O13	O	0.909660	-0.302996	-0.354904
O14	O	1.242993	0.030337	-0.021570
O15	O	1.576326	0.363671	0.311763
O16	O	1.050403	-0.264297	-0.400188
O17	O	1.383737	0.069037	-0.066855
O18	O	1.717070	0.402370	0.266478
O19	O	0.948264	-0.341686	-0.190407
O20	O	1.281597	-0.008353	0.142927
O21	O	1.614931	0.324980	0.476260
O22	O	0.871075	-0.162303	-0.309734
O23	O	1.204409	0.171030	0.023599
O24	O	1.537742	0.504364	0.356932
O25	O	1.050338	-0.341639	-0.309765
O26	O	1.383671	-0.008306	0.023568
O27	O	1.717005	0.325028	0.356901
O28	O	0.948415	-0.162267	-0.400171
O29	O	1.281749	0.171066	-0.066837
O30	O	1.615082	0.504400	0.266496
O31	O	0.870989	-0.264380	-0.190393
O32	O	1.204323	0.068953	0.142940
O33	O	1.537656	0.402287	0.476274
O34	O	0.768963	-0.264373	-0.309646
O35	O	1.102296	0.068960	0.023688
O36	O	1.435630	0.402293	0.357021
O37	O	0.871008	-0.341627	-0.519374
O38	O	1.204341	-0.008294	-0.186040
O39	O	1.537675	0.325039	0.147293
O40	O	0.768934	-0.341675	-0.400015
O41	O	1.102267	-0.008341	-0.066682
O42	O	1.435601	0.324992	0.266652
O43	O	0.948377	-0.264290	-0.519441
O44	O	1.281710	0.069043	-0.186107
O45	O	1.615044	0.402377	0.147226
O46	O	0.948226	-0.443710	-0.309677
O47	O	1.281559	-0.110376	0.023657
O48	O	1.614892	0.222957	0.356990
O49	O	0.870922	-0.443705	-0.400033
O50	O	1.204255	-0.110371	-0.066699
O51	O	1.537589	0.222962	0.266634
C52	C	0.746108	-0.303029	-0.354819
C53	C	1.079441	0.030304	-0.021485
C54	C	1.412775	0.363638	0.311848
C55	C	0.676140	-0.303058	-0.354800
C56	C	1.009473	0.030275	-0.021467
C57	C	1.342807	0.363608	0.311867
C58	C	0.643275	-0.343363	-0.401785
C59	C	0.976608	-0.010029	-0.068452
C60	C	1.309941	0.323304	0.264882
C61	C	0.577532	-0.343347	-0.401818
C62	C	0.910865	-0.010014	-0.068485
C63	C	1.244199	0.323320	0.264849
C64	C	0.544657	-0.303034	-0.354853
C65	C	0.877991	0.030299	-0.021520
C66	C	1.211324	0.363633	0.311814
C67	C	0.577531	-0.262722	-0.307865
C68	C	0.910864	0.070611	0.025469
C69	C	1.244197	0.403945	0.358802
C70	C	0.643272	-0.262734	-0.307838
C71	C	0.976605	0.070599	0.025495
C72	C	1.309939	0.403932	0.358828
N73	N	0.441386	-0.298117	-0.290486
N74	N	0.774719	0.035216	0.042848
N75	N	1.108053	0.368550	0.376181
N76	N	0.378935	-0.298109	-0.290513
N77	N	0.712268	0.035224	0.042820
N78	N	1.045601	0.368558	0.376154
C79	C	0.346583	-0.302994	-0.354931
C80	C	0.679916	0.030339	-0.021598
C81	C	1.013249	0.363673	0.311736
N82	N	0.379042	-0.307899	-0.419322
N83	N	0.712375	0.025434	-0.085989
N84	N	1.045708	0.358768	0.247344
N85	N	0.441499	-0.307910	-0.419294
N86	N	0.774832	0.025423	-0.085961
N87	N	1.108165	0.358756	0.247373
C88	C	0.473372	-0.303016	-0.354877
C89	C	0.806705	0.030317	-0.021543
C90	C	1.140039	0.363651	0.311790
C91	C	0.242432	-0.343283	-0.401956
C92	C	0.575765	-0.009950	-0.068622
C93	C	0.909099	0.323383	0.264711
C94	C	0.176688	-0.343263	-0.401990
C95	C	0.510022	-0.009930	-0.068657
C96	C	0.843355	0.323403	0.264677
C97	C	0.176688	-0.262642	-0.308030
C98	C	0.510021	0.070692	0.025303
C99	C	0.843355	0.404025	0.358636
C100	C	0.242430	-0.262658	-0.308003
C101	C	0.575764	0.070675	0.025331
C102	C	0.909097	0.404008	0.358664
C103	C	0.275298	-0.302983	-0.354964
C104	C	0.608632	0.030351	-0.021631
C105	C	0.941965	0.363684	0.311702
C106	C	0.909577	-0.466548	-0.354863
C107	C	1.242910	-0.133214	-0.021529
C108	C	1.576244	0.200119	0.311804
C109	C	0.909599	-0.536516	-0.354870
C110	C	1.242933	-0.203182	-0.021537
C111	C	1.576266	0.130151	0.311797
C112	C	0.949887	-0.569364	-0.307870
C113	C	1.283221	-0.236031	0.025463
C114	C	1.616554	0.097303	0.358797
C115	C	0.949917	-0.635107	-0.307886
C116	C	1.283250	-0.301773	0.025447
C117	C	1.616583	0.031560	0.358780
C118	C	0.909647	-0.667998	-0.354895
C119	C	1.242981	-0.334665	-0.021562
C120	C	1.576314	-0.001332	0.311771
C121	C	0.869357	-0.635142	-0.401904
C122	C	1.202690	-0.301809	-0.068571
C123	C	1.536023	0.031525	0.264762
C124	C	0.869333	-0.569401	-0.401892
C125	C	1.202666	-0.236067	-0.068558
C126	C	1.535999	0.097266	0.264775
N127	N	0.854580	-0.771279	-0.360477
N128	N	1.187913	-0.437946	-0.027144
N129	N	1.521246	-0.104613	0.306190
N130	N	0.854604	-0.833731	-0.360485
N131	N	1.187938	-0.500397	-0.027152
N132	N	1.521271	-0.167064	0.306182
C133	C	0.909718	-0.866073	-0.354938
C134	C	1.243051	-0.532740	-0.021604
C135	C	1.576384	-0.199406	0.311729
N136	N	0.964807	-0.833604	-0.349368
N137	N	1.298140	-0.500271	-0.016034
N138	N	1.631474	-0.166938	0.317299
N139	N	0.964782	-0.771147	-0.349356
N140	N	1.298115	-0.437814	-0.016023
N141	N	1.631448	-0.104481	0.317311
C142	C	0.909669	-0.739284	-0.354915
C143	C	1.243002	-0.405950	-0.021581
C144	C	1.576336	-0.072617	0.311752
C145	C	0.950041	-0.970207	-0.307953
C146	C	1.283374	-0.636873	0.025380
C147	C	1.616708	-0.303540	0.358714
C148	C	0.950071	-1.035950	-0.307975
C149	C	1.283405	-0.702617	0.025359
C150	C	1.616738	-0.369284	0.358692
C151	C	0.869506	-1.035985	-0.401989
C152	C	1.202839	-0.702651	-0.068656
C153	C	1.536172	-0.369318	0.264678
C154	C	0.869481	-0.970242	-0.401971
C155	C	1.202814	-0.636909	-0.068638
C156	C	1.536147	-0.303575	0.264696
C157	C	0.909747	-0.937357	-0.354949
C158	C	1.243081	-0.604024	-0.021616
C159	C	1.576414	-0.270690	0.311718
C160	C	1.073850	-0.302963	-0.354989
C161	C	1.407183	0.030370	-0.021656
C162	C	1.740517	0.363703	0.311678
C163	C	1.143818	-0.302949	-0.355025
C164	C	1.477151	0.030384	-0.021692
C165	C	1.810485	0.363717	0.311641
C166	C	0.909698	-0.302953	-0.546857
C167	C	1.243031	0.030381	-0.213523
C168	C	1.576365	0.363714	0.119810
C169	C	0.909714	-0.302934	-0.628655
C170	C	1.243048	0.030399	-0.295322
C171	C	1.576381	0.363733	0.038011
C172	C	0.909760	-0.138806	-0.354961
C173	C	1.243093	0.194528	-0.021627
C174	C	1.576426	0.527861	0.311706
C175	C	0.909802	-0.068838	-0.354985
C176	C	1.243136	0.264496	-0.021652
C177	C	1.576469	0.597829	0.311682
C178	C	0.950015	-0.262627	-0.816886
C179	C	1.283348	0.070706	-0.483552
C180	C	1.616681	0.404040	-0.150219
C181	C	0.950022	-0.262609	-0.893744
C182	C	1.283356	0.070725	-0.560411
C183	C	1.616689	0.404058	-0.227078
C184	C	0.869458	-0.343144	-0.893663
C185	C	1.202792	-0.009811	-0.560330
C186	C	1.536125	0.323523	-0.226997
C187	C	0.869448	-0.343159	-0.816806
C188	C	1.202782	-0.009825	-0.483473
C189	C	1.536115	0.323508	-0.150139
C190	C	0.909730	-0.302901	-0.778419
C191	C	1.243063	0.030432	-0.445086
C192	C	1.576397	0.363766	-0.111752
C193	C	0.909748	-0.302868	-0.932135
C194	C	1.243081	0.030465	-0.598802
C195	C	1.576414	0.363799	-0.265469
C196	C	0.909756	-0.302848	-1.015469
C197	C	1.243089	0.030485	-0.682136
C198	C	1.576422	0.363818	-0.348802
C199	C	0.909721	-0.302920	-0.695080
C200	C	1.243055	0.030414	-0.361747
C201	C	1.576388	0.363747	-0.028413
C202	C	0.909658	-0.302994	-0.163697
C203	C	1.242991	0.030340	0.169636
C204	C	1.576324	0.363673	0.502969
C205	C	0.909763	-0.302835	-0.081899
C206	C	1.243097	0.030498	0.251434
C207	C	1.576430	0.363832	0.584768
H208	H	0.550760	-0.229898	-0.269627
H209	H	0.884093	0.103436	0.063706
H210	H	1.217426	0.436769	0.397040
H211	H	0.982676	-0.542591	-0.269584
H212	H	1.316010	-0.209258	0.063750
H213	H	1.649343	0.124076	0.397083
O214	O	0.993488	-0.934740	-0.257253
O215	O	1.326821	-0.601407	0.076080
O216	O	1.660154	-0.268074	0.409413
H217	H	1.025481	-0.904732	-0.290244
H218	H	1.358814	-0.571399	0.043089
H219	H	1.692147	-0.238065	0.376423
H220	H	0.982883	-1.062694	-0.269703
H221	H	1.316216	-0.729361	0.063630
H222	H	1.649549	-0.396028	0.396964
O223	O	0.825983	-0.386596	-0.775323
O224	O	1.159317	-0.053263	-0.441990
O225	O	1.492650	0.280070	-0.108656
H226	H	0.854123	-0.418626	-0.740301
H227	H	1.187456	-0.085293	-0.406968
H228	H	1.520789	0.248041	-0.073635
O229	O	0.993474	-0.219165	-0.935226
O230	O	1.326807	0.114169	-0.601892
O231	O	1.660140	0.447502	-0.268559
H232	H	0.965320	-0.187131	-0.970226
H233	H	1.298653	0.146202	-0.636893
H234	H	1.631986	0.479536	-0.303559
O235	O	0.678723	-0.386845	-0.452446
O236	O	1.012056	-0.053512	-0.119113
O237	O	1.345389	0.279821	0.214220
H238	H	0.666041	-0.436234	-0.439728
H239	H	0.999375	-0.102901	-0.106395
H240	H	1.332708	0.230432	0.226939
H241	H	0.670030	-0.229912	-0.269577
H242	H	1.003364	0.103421	0.063756
H243	H	1.336697	0.436755	0.397089
O244	O	0.826021	-0.934811	-0.452662
O245	O	1.159354	-0.601478	-0.119328
O246	O	1.492688	-0.268145	0.214005
H247	H	0.832773	-0.883572	-0.444760
H248	H	1.166106	-0.550239	-0.111426
H249	H	1.499439	-0.216905	0.221907
O250	O	0.825921	-0.670620	-0.452601
O251	O	1.159254	-0.337287	-0.119268
O252	O	1.492588	-0.003953	0.214065
H253	H	0.836687	-0.657962	-0.510375
H254	H	1.170020	-0.324629	-0.177042
H255	H	1.503354	0.008704	0.156291
H256	H	0.982813	-0.229845	-0.785633
H257	H	1.316146	0.103488	-0.452300
H258	H	1.649480	0.436822	-0.118967
O259	O	0.542072	-0.386844	-0.452467
O260	O	0.875405	-0.053510	-0.119134
O261	O	1.208738	0.279823	0.214199
H262	H	0.575972	-0.414895	-0.485105
H263	H	0.909305	-0.081562	-0.151772
H264	H	1.242638	0.251772	0.181561
H265	H	0.836720	-1.062764	-0.440268
H266	H	1.170053	-0.729431	-0.106934
H267	H	1.503387	-0.396098	0.226399
O268	O	0.277897	-0.386756	-0.452617
O269	O	0.611230	-0.053423	-0.119283
O270	O	0.944563	0.279910	0.214050
H271	H	0.265222	-0.436149	-0.439910
H272	H	0.598555	-0.102816	-0.106577
H273	H	0.931888	0.230518	0.226757
O274	O	0.141235	-0.386819	-0.452571
O275	O	0.474569	-0.053486	-0.119238
O276	O	0.807902	0.279847	0.214095
H277	H	0.175138	-0.414894	-0.485179
H278	H	0.508471	-0.081560	-0.151845
H279	H	0.841805	0.251773	0.181488
O280	O	0.141241	-0.219164	-0.257366
O281	O	0.474575	0.114169	0.075967
O282	O	0.807908	0.447502	0.409301
H283	H	0.090005	-0.225930	-0.265272
H284	H	0.423338	0.107403	0.068061
H285	H	0.756672	0.440736	0.401394
H286	H	0.269190	-0.229841	-0.269739
H287	H	0.602523	0.103492	0.063595
H288	H	0.935856	0.436825	0.396928
H289	H	0.836664	-0.375922	-0.924927
H290	H	1.169997	-0.042588	-0.591594
H291	H	1.503330	0.290745	-0.258261
O292	O	0.993366	-0.670549	-0.257186
O293	O	1.326699	-0.337215	0.076147
O294	O	1.660033	-0.003882	0.409481
H295	H	1.021358	-0.636637	-0.224483
H296	H	1.354691	-0.303303	0.108850
H297	H	1.688025	0.030030	0.442183
H298	H	0.836525	-0.542655	-0.440166
H299	H	1.169858	-0.209322	-0.106832
H300	H	1.503192	0.124012	0.226501
