data_functionalizedCrystal
_audit_creation_method	'MofGen! by Chris Wilmer'
_symmetry_space_group_name_H-M	'P1'
_symmetry_Int_Tables_number	1
_symmetry_cell_setting	triclinic
loop_
_symmetry_equiv_pos_as_xyz
  x,y,z
_cell_length_a	19.377372
_cell_length_b	19.376995
_cell_length_c	20.875652
_cell_angle_alpha	69.990895
_cell_angle_beta	90.740896
_cell_angle_gamma	62.049493
loop_
_atom_site_label
_atom_site_type_symbol
_atom_site_fract_x
_atom_site_fract_y
_atom_site_fract_z
Zr1	Zr	0.435335	0.939459	-0.001267
O2	O	0.319499	1.051322	-0.068707
O3	O	0.485089	0.808794	0.000516
O4	O	0.458478	0.956671	-0.108602
O5	O	0.350899	0.896425	0.147973
O6	O	0.551905	0.991637	-0.118582
O7	O	0.346109	0.903445	0.040410
O8	O	0.599507	0.727111	0.076609
O9	O	0.303297	1.160950	-0.047218
O10	O	0.558824	0.895597	0.016651
O11	O	0.492674	0.864263	0.104373
O12	O	0.461343	1.038370	-0.024099
O13	O	0.395194	1.007036	0.063622
Zr14	Zr	0.591980	0.984029	0.154366
Zr15	Zr	0.584342	0.995225	-0.017185
Zr16	Zr	0.442974	0.928263	0.170283
Zr17	Zr	0.409496	1.114303	0.033006
Zr18	Zr	0.617820	0.809185	0.120093
O19	O	0.542227	1.114694	0.152583
O20	O	0.531366	1.130614	-0.091340
O21	O	0.330360	1.035402	0.175216
O22	O	0.707817	0.872166	0.221805
O23	O	0.696956	0.888086	-0.022118
O24	O	0.495950	0.792874	0.244438
O25	O	0.676417	1.027063	0.005125
O26	O	0.568838	0.966817	0.261700
O27	O	0.475411	0.931851	0.271681
O28	O	0.681206	1.020043	0.112688
O29	O	0.421737	1.205276	-0.059870
O30	O	0.605579	0.718212	0.212968
O31	O	0.724019	0.762538	0.200316
O32	O	0.717947	0.771438	0.063956
O33	O	0.309369	1.152050	0.089142
O34	O	0.427809	1.196377	0.076490
O35	O	0.565972	0.885118	0.177197
O36	O	0.632122	0.916452	0.089476
O37	O	0.534642	1.059225	0.048726
O38	O	0.468492	1.027891	0.136447
C39	C	0.545979	0.743041	0.033679
C40	C	0.556949	0.668815	0.019129
C41	C	0.606938	0.580551	-0.047164
C42	C	0.596626	0.650295	-0.033487
C43	C	0.527572	0.617589	0.058092
C44	C	0.537881	0.547838	0.044425
C45	C	0.577564	0.529325	-0.008204
C46	C	0.508508	0.496613	0.083385
C47	C	0.518813	0.426870	0.069717
C48	C	0.558492	0.408353	0.017088
C49	C	0.587870	0.459583	-0.021873
C50	C	0.468820	0.515130	0.136011
C51	C	0.439446	0.463905	0.174971
C52	C	0.449756	0.394158	0.161306
C53	C	0.489435	0.375640	0.108678
C54	C	0.420378	0.342928	0.200267
C55	C	0.430684	0.273185	0.186599
C56	C	0.499740	0.305898	0.095009
C57	C	0.327274	0.891989	0.096460
C58	C	0.264017	0.868315	0.103217
C59	C	-0.198440	1.163075	0.019083
C60	C	-0.257866	1.140810	0.025439
C61	C	-0.156095	0.991766	0.067980
C62	C	-0.096659	1.014019	0.061630
C63	C	-0.117838	1.099675	0.037181
C64	C	-0.016056	0.950618	0.079728
C65	C	0.043374	0.972869	0.073375
C66	C	0.022203	1.058521	0.048925
C67	C	-0.058408	1.121926	0.030829
C68	C	0.005121	0.864963	0.104172
C69	C	0.085723	0.801562	0.122270
C70	C	0.145156	0.823813	0.115922
C71	C	0.123984	0.909465	0.091472
C72	C	0.225766	0.760408	0.134019
C73	C	0.285197	0.782659	0.127667
C74	C	0.183415	0.931716	0.085120
C75	C	0.700042	1.031499	0.056638
C76	C	0.763299	1.055173	0.049881
C77	C	0.504103	0.975749	-0.138034
C78	C	0.500860	0.980502	-0.210862
C79	C	0.481336	1.180447	0.119419
C80	C	0.470367	1.254673	0.133969
C81	C	0.477098	1.015276	-0.623093
C82	C	0.480150	1.010804	-0.554662
C83	C	0.532566	0.934042	-0.499179
C84	C	0.581926	0.861746	-0.512128
C85	C	0.578868	0.866217	-0.580558
C86	C	0.547163	0.912677	-0.292241
C87	C	0.550218	0.908212	-0.223808
C88	C	0.448441	1.057270	-0.266347
C89	C	0.445392	1.061736	-0.334777
C90	C	0.494749	0.989438	-0.347720
N91	N	0.535689	0.929470	-0.429231
N92	N	0.491621	0.994010	-0.417666
C93	C	0.523213	0.947739	0.291133
C94	C	0.526456	0.942986	0.363960
C95	C	0.732363	0.812796	0.013768
C96	C	0.806590	0.762244	-0.007539
C97	C	0.555534	0.729036	0.248263
C98	C	0.569747	0.650057	0.306540
C99	C	0.741918	0.798791	0.228352
C100	C	0.819388	0.743486	0.279872
C101	C	0.285398	1.124697	-0.075253
C102	C	0.207928	1.180002	-0.126774
C103	C	0.294952	1.110692	0.139330
C104	C	0.220726	1.161244	0.160637
C105	C	0.471781	1.194452	-0.095164
C106	C	0.457569	1.273431	-0.153442
C107	C	0.803186	0.727619	-0.055566
C108	C	0.872922	0.680129	-0.075600
C109	C	0.946062	0.667260	-0.047603
C110	C	0.949463	0.701892	0.000427
C111	C	0.879727	0.749386	0.020457
C112	C	0.614682	0.623853	0.371929
C113	C	0.628033	0.549653	0.426696
C114	C	0.596452	0.501654	0.416072
C115	C	0.551510	0.527863	0.350677
C116	C	0.538156	0.602066	0.295912
C117	C	0.890304	0.733872	0.258276
C118	C	0.963099	0.681920	0.306680
C119	C	0.964976	0.639577	0.376678
C120	C	0.894052	0.649195	0.398275
C121	C	0.821258	0.701151	0.349872
C122	C	0.137011	1.189624	-0.105176
C123	C	0.064213	1.241598	-0.153576
C124	C	0.062335	1.283945	-0.223573
C125	C	0.133259	1.274322	-0.245170
C126	C	0.206055	1.222354	-0.196770
C127	C	0.224128	1.195877	0.208659
C128	C	0.154388	1.243387	0.228678
C129	C	0.081248	1.256259	0.200678
C130	C	0.077848	1.221624	0.152651
C131	C	0.147585	1.174119	0.132629
C132	C	0.489162	1.321409	-0.142797
C133	C	0.475823	1.395613	-0.197552
C134	C	0.430886	1.421842	-0.262950
C135	C	0.399294	1.373856	-0.273595
C136	C	0.412637	1.299650	-0.218842
H137	H	0.495259	0.632674	0.100941
H138	H	0.018287	1.232111	0.129858
Br139	Br	0.139538	1.132160	-0.010184
H140	H	0.439959	1.069671	-0.544127
H141	H	0.386906	1.260592	-0.227518
Br142	Br	0.868288	0.633136	-0.140781
Br143	Br	-0.032030	1.254643	-0.124251
H144	H	0.882510	0.777572	0.059567
H145	H	0.408257	1.116130	-0.255801
Br146	Br	1.040698	0.602801	-0.074793
H147	H	1.024255	0.597273	0.416083
H148	H	0.402711	1.124244	-0.379949
H149	H	0.460427	0.571923	0.147135
Br150	Br	0.142955	1.127117	0.067458
H151	H	0.350829	0.731031	0.142417
H152	H	0.362705	1.395223	-0.326849
Br153	Br	0.254497	0.644167	0.167187
H154	H	0.157173	1.271580	0.267786
H155	H	0.166168	1.001464	0.065234
Br156	Br	0.130697	1.331797	-0.340171
H157	H	0.420026	1.482267	-0.307528
Br158	Br	0.553626	0.280746	0.023602
H159	H	1.009023	0.691407	0.023218
H160	H	0.501568	0.623391	0.242670
H161	H	0.592901	0.845699	-0.178632
Br162	Br	0.641755	0.434431	-0.093280
Br163	Br	0.405965	1.119460	-0.698388
H164	H	0.640402	0.662927	0.380593
H165	H	0.003054	1.326258	-0.262976
Br166	Br	0.385589	0.489039	0.246392
H167	H	0.620548	0.692003	-0.065218
Br168	Br	-0.013390	1.320732	0.227859
Br169	Br	0.366513	0.368071	0.271681
Br170	Br	0.689027	0.514099	0.515438
H171	H	0.525751	1.300066	-0.089550
H172	H	0.895593	0.614712	0.455273
Br173	Br	0.614583	0.400951	0.490403
H174	H	0.587355	0.853808	-0.302770
H175	H	0.525800	0.488771	0.342036
H176	H	0.888790	0.768342	0.201283
H177	H	0.743637	0.738098	-0.078377
Br178	Br	1.059341	0.668877	0.277355
H179	H	0.566877	0.351566	0.005958
H180	H	0.501550	1.434676	-0.188871
Br181	Br	0.302297	1.209299	-0.226095
H182	H	0.639259	0.565473	-0.090016
H183	H	0.070597	1.076636	0.043752
Br184	Br	0.390812	0.203665	0.239468
Br185	Br	-0.087145	1.238174	-0.002340
Br186	Br	0.653055	0.757566	-0.436829
Br187	Br	-0.227177	1.279323	-0.014086
Br188	Br	0.725020	0.714186	0.379193
H189	H	0.283676	1.185401	0.231468
Br190	Br	-0.367261	1.226865	0.000864
Br191	Br	-0.127361	0.875523	0.101156
H192	H	0.102957	0.731822	0.142174
H193	H	-0.043274	0.846849	0.109338
Br194	Br	0.645852	0.768103	-0.598127
