data_functionalizedCrystal
_audit_creation_method	'MofGen! by Chris Wilmer'
_symmetry_space_group_name_H-M	'P1'
_symmetry_Int_Tables_number	1
_symmetry_cell_setting	triclinic
loop_
_symmetry_equiv_pos_as_xyz
  x,y,z
_cell_length_a	14.044191
_cell_length_b	12.503572
_cell_length_c	10.654550
_cell_angle_alpha	93.558524
_cell_angle_beta	91.161660
_cell_angle_gamma	93.837835
loop_
_atom_site_label
_atom_site_type_symbol
_atom_site_fract_x
_atom_site_fract_y
_atom_site_fract_z
O1	O	1.265119	0.089263	-0.296375
O2	O	0.989079	0.089277	-0.285432
O3	O	1.133445	0.089266	-0.108802
O4	O	1.120752	0.089274	-0.473004
O5	O	1.122588	-0.089375	-0.122110
O6	O	0.978221	-0.089364	-0.298739
O7	O	1.254262	-0.089378	-0.309683
Cu8	Cu	1.115250	-0.105682	-0.305426
Cu9	Cu	1.128090	0.105581	-0.289688
O10	O	1.109895	-0.089367	-0.486312
C11	C	0.948304	-0.000042	-0.287298
C12	C	0.842985	-0.000037	-0.273019
N13	N	1.106227	-0.254274	-0.316495
C14	C	0.593192	-0.000046	-0.348185
C15	C	0.650155	-0.000046	-0.246934
C16	C	0.757455	-0.000041	-0.261451
C17	C	0.485882	-0.000051	-0.333670
C18	C	1.092952	-0.473388	-0.332789
C19	C	1.150393	-0.526720	-0.262320
C20	C	1.143007	-0.648642	-0.271386
C21	C	1.100337	-0.351455	-0.323724
C22	C	1.295037	-0.000057	-0.307816
C23	C	1.400357	-0.000055	-0.322095
C24	C	1.127085	-0.000053	-0.068564
C25	C	1.124297	-0.000050	0.071159
N26	N	1.137122	0.254173	-0.278610
C27	C	1.116256	-0.000045	-0.526550
C28	C	1.119045	-0.000042	-0.666273
C29	C	1.209297	-0.000057	0.142100
C30	C	1.206672	-0.000049	0.273385
C31	C	1.034037	-0.000031	0.262777
C32	C	1.036664	-0.000031	0.131495
C33	C	1.296930	-0.000075	0.081764
C34	C	1.381938	-0.000084	0.152705
C35	C	1.379312	-0.000076	0.283991
C36	C	1.291679	-0.000060	0.344335
H37	H	0.618343	0.000027	-0.149343
H38	H	1.299077	-0.000085	-0.025134
C39	C	1.223419	-0.465521	-0.172869
C40	C	1.315248	-0.492641	-0.205390
C41	C	1.382500	-0.436233	-0.123004
H42	H	1.218777	-0.390531	-0.178610
H43	H	1.211398	-0.483868	-0.089175
H44	H	1.327266	-0.474286	-0.289063
H45	H	1.319921	-0.567620	-0.199643
H46	H	1.370478	-0.454580	-0.039310
H47	H	1.377849	-0.361246	-0.128751
H48	H	1.444812	-0.454633	-0.145051
C49	C	1.020088	-0.534786	-0.422287
C50	C	1.027185	-0.645260	-0.413632
C51	C	0.960090	-0.701867	-0.496074
H52	H	0.957706	-0.516562	-0.400396
H53	H	1.032156	-0.516481	-0.505984
H54	H	1.015110	-0.663558	-0.329954
H55	H	1.089552	-0.663516	-0.435535
H56	H	0.972159	-0.683562	-0.579771
H57	H	0.897713	-0.683634	-0.474175
H58	H	0.964903	-0.776829	-0.490221
C59	C	0.635795	0.000023	-0.478187
C60	C	0.735298	0.000057	-0.466915
C61	C	0.774589	0.000139	-0.586642
H62	H	0.611625	-0.062252	-0.527310
H63	H	0.619134	0.062349	-0.517920
H64	H	0.751951	-0.062262	-0.427201
H65	H	0.759494	0.062327	-0.417814
H66	H	0.757928	0.062464	-0.626375
H67	H	0.750412	-0.062137	-0.635756
H68	H	0.842106	0.000172	-0.579010
C69	C	1.477119	0.000127	0.087278
C70	C	1.534131	0.092047	0.129226
C71	C	1.621815	0.092289	0.068973
H72	H	1.508488	-0.062096	0.106295
H73	H	1.466553	0.000182	-0.001075
H74	H	1.544699	0.091983	0.217559
H75	H	1.502791	0.154286	0.110209
H76	H	1.611249	0.092343	-0.019380
H77	H	1.653175	0.030061	0.087994
H78	H	1.660505	0.154659	0.097417
H79	H	1.448530	-0.000073	0.341749
C80	C	0.944316	0.000144	0.054630
C81	C	0.897180	0.092042	0.090228
C82	C	0.812100	0.092239	0.019457
H83	H	0.958305	0.000201	-0.032220
H84	H	0.904579	-0.062117	0.069346
H85	H	0.936909	0.154286	0.075501
H86	H	0.883167	0.092005	0.177066
H87	H	0.772362	0.029979	0.034174
H88	H	0.826097	0.092293	-0.067388
H89	H	0.780103	0.154586	0.043609
C90	C	0.938989	-0.000078	0.328518
C91	C	0.954881	-0.000110	0.458672
C92	C	0.867343	-0.000172	0.519269
H93	H	0.907664	0.062203	0.309612
H94	H	0.900157	-0.062397	0.300254
H95	H	0.993698	0.062203	0.486926
H96	H	0.986192	-0.062387	0.477614
H97	H	0.828511	-0.062491	0.491005
H98	H	0.836025	0.062110	0.500353
H99	H	0.878113	-0.000203	0.607583
H100	H	1.289549	-0.000042	0.451238
