data_functionalizedCrystal
_audit_creation_method	'MofGen! by Chris Wilmer'
_symmetry_space_group_name_H-M	'P1'
_symmetry_Int_Tables_number	1
_symmetry_cell_setting	triclinic
loop_
_symmetry_equiv_pos_as_xyz
  x,y,z
_cell_length_a	14.044220
_cell_length_b	27.732048
_cell_length_c	12.503572
_cell_angle_alpha	93.489054
_cell_angle_beta	86.164750
_cell_angle_gamma	87.915767
loop_
_atom_site_label
_atom_site_type_symbol
_atom_site_fract_x
_atom_site_fract_y
_atom_site_fract_z
O1	O	1.261499	0.113903	-0.089228
O2	O	0.985593	0.109700	-0.089254
O3	O	1.132113	0.041807	-0.089220
O4	O	1.114978	0.181795	-0.089262
O5	O	1.121094	0.046922	0.089419
O6	O	0.974573	0.114815	0.089385
O7	O	1.250479	0.119018	0.089411
Cu8	Cu	1.111520	0.117384	0.105709
Cu9	Cu	1.124552	0.111334	-0.105552
O10	O	1.103958	0.186910	0.089377
C11	C	0.944796	0.110418	0.000062
C12	C	0.839651	0.104930	0.000053
C13	C	0.647135	0.094899	0.000077
C14	C	0.588932	0.133816	0.000070
C15	C	0.481809	0.128235	0.000084
C16	C	0.754267	0.100480	0.000064
C17	C	1.126244	0.026341	0.000103
C18	C	1.125160	-0.027364	0.000111
C19	C	1.204929	-0.362437	0.000064
C20	C	1.200910	-0.564286	0.000049
O21	O	1.273853	-0.592120	0.000008
N22	N	1.114029	-0.587487	0.000041
C23	C	1.028146	-0.560223	0.000031
O24	O	0.954156	-0.584589	0.000013
C25	C	1.032166	-0.358376	0.000038
C26	C	1.119052	-0.335177	0.000057
C27	C	1.291808	-0.339238	0.000081
C28	C	1.292811	-0.288779	0.000091
C29	C	1.206935	-0.261519	0.000083
C30	C	1.120056	-0.284718	0.000066
C31	C	0.946285	-0.331113	0.000020
C32	C	0.947297	-0.280648	0.000019
C33	C	1.034184	-0.257449	0.000038
C34	C	1.035183	-0.206998	0.000069
N35	N	1.122064	-0.183797	0.000076
C36	C	1.207940	-0.211057	0.000083
C37	C	1.026041	-0.666196	0.000029
C38	C	1.025036	-0.716658	0.000029
C39	C	1.197801	-0.720717	0.000045
C40	C	1.198805	-0.670254	0.000052
C41	C	1.112923	-0.642995	0.000036
C42	C	1.210041	-0.105089	0.000105
C43	C	1.211036	-0.054625	0.000119
C44	C	1.038272	-0.050570	0.000097
C45	C	1.037276	-0.101029	0.000089
C46	C	1.123168	-0.128288	0.000089
O47	O	0.962280	-0.179134	0.000097
O48	O	1.281921	-0.186683	0.000077
C49	C	1.203925	-0.412897	0.000054
C50	C	1.117046	-0.436096	0.000037
C51	C	1.031169	-0.408835	0.000030
C52	C	1.116040	-0.486557	0.000037
C53	C	1.201917	-0.513818	0.000044
C54	C	1.288798	-0.490616	0.000052
C55	C	1.289801	-0.440157	0.000061
C56	C	0.944288	-0.432037	0.000023
C57	C	0.943291	-0.482496	0.000014
C58	C	1.029168	-0.509756	0.000021
C59	C	1.291276	0.118300	0.000092
C60	C	1.396422	0.123787	0.000094
C61	C	1.109828	0.202377	0.000052
C62	C	1.110912	0.256082	0.000036
N63	N	1.102361	0.121638	0.254299
N64	N	1.133718	0.107076	-0.254143
C65	C	1.088888	0.127901	0.473411
C66	C	1.147188	0.100815	0.526752
C67	C	1.139692	0.104299	0.648674
C68	C	1.096383	0.124417	0.351479
H69	H	0.616514	0.057393	0.000095
C70	C	1.304521	-0.135068	0.000113
C71	C	1.370189	-0.127151	0.092893
C72	C	1.464667	-0.157130	0.092910
C73	C	1.493477	-0.195026	0.000149
C74	C	1.427807	-0.202945	-0.092638
C75	C	1.333329	-0.172966	-0.092655
H76	H	1.348863	-0.099096	0.161567
H77	H	1.513279	-0.151267	0.161597
H78	H	1.563415	-0.217218	0.000162
H79	H	1.449133	-0.231000	-0.161312
H80	H	1.284717	-0.178829	-0.161343
H81	H	0.956102	-0.644006	0.000016
C82	C	1.222231	0.065954	0.464752
C83	C	1.229676	0.062448	0.341067
C84	C	1.304718	0.027591	0.279060
C85	C	1.372315	-0.003759	0.340739
C86	C	1.364872	-0.000254	0.464431
C87	C	1.289830	0.034603	0.526437
H88	H	1.179635	0.085656	0.295403
H89	H	1.310228	0.024996	0.187495
H90	H	1.427865	-0.029563	0.294838
H91	H	1.414913	-0.023462	0.510095
H92	H	1.284320	0.037198	0.618003
C93	C	1.013862	0.162767	0.535407
C94	C	1.005758	0.165906	0.659088
C95	C	0.930737	0.200773	0.721098
C96	C	0.863819	0.232501	0.659427
C97	C	0.871921	0.229363	0.535740
C98	C	0.946943	0.194496	0.473730
H99	H	1.055296	0.142418	0.704747
H100	H	0.924739	0.203096	0.812660
H101	H	0.808284	0.258312	0.705331
H102	H	0.822383	0.252851	0.490081
H103	H	0.952940	0.192173	0.382168
H104	H	1.361743	-0.361429	0.000083
C105	C	0.630293	0.184490	0.000047
C106	C	0.738985	0.190077	0.000033
C107	C	0.780351	0.240749	0.000009
C108	C	0.713024	0.285834	0.000000
C109	C	0.604325	0.280249	0.000015
C110	C	0.562959	0.229577	0.000038
H111	H	0.788831	0.156700	0.000039
H112	H	0.860818	0.244883	-0.000001
H113	H	0.743646	0.323344	-0.000017
H114	H	0.554479	0.313625	0.000008
H115	H	0.482492	0.225443	0.000049
C116	C	1.294381	-0.644738	0.000063
C117	C	1.359783	-0.650705	0.092833
C118	C	1.455363	-0.625192	0.092841
C119	C	1.485542	-0.593712	0.000079
C120	C	1.420138	-0.587745	-0.092698
C121	C	1.324558	-0.613258	-0.092706
H122	H	1.337444	-0.674009	0.161507
H123	H	1.503779	-0.629609	0.161521
H124	H	1.556296	-0.574826	0.000085
H125	H	1.442477	-0.564441	-0.161372
H126	H	1.276142	-0.608840	-0.161386
H127	H	1.281792	-0.035739	0.000136
H128	H	1.363564	-0.269896	0.000101
H129	H	1.267725	-0.742921	0.000051
H130	H	0.954283	-0.735541	0.000033
H131	H	0.875533	-0.349993	-0.000001
C132	C	0.852823	-0.250663	0.000005
C133	C	0.787149	-0.258577	-0.092770
C134	C	0.692676	-0.228593	-0.092781
C135	C	0.663879	-0.190695	-0.000019
C136	C	0.729555	-0.182779	0.092763
C137	C	0.824027	-0.212763	0.092775
H138	H	0.808465	-0.286633	-0.161444
H139	H	0.644059	-0.234452	-0.161465
H140	H	0.593944	-0.168498	-0.000027
H141	H	0.708238	-0.154723	0.161437
H142	H	0.872644	-0.206904	0.161458
C143	C	1.385381	-0.414644	0.000070
C144	C	1.450786	-0.420615	0.092835
C145	C	1.546371	-0.395106	0.092841
C146	C	1.576550	-0.363626	0.000082
C147	C	1.511143	-0.357653	-0.092690
C148	C	1.415558	-0.383162	-0.092696
H149	H	1.428447	-0.443920	0.161507
H150	H	1.594790	-0.399528	0.161517
H151	H	1.647308	-0.344743	0.000086
H152	H	1.533483	-0.334348	-0.161362
H153	H	1.367140	-0.378740	-0.161372
H154	H	0.968354	-0.028365	0.000095
H155	H	1.358721	-0.512821	0.000062
H156	H	0.966524	-0.119918	0.000104
H157	H	0.872532	-0.501380	0.000009
H158	H	0.874355	-0.409846	0.000014
