data_functionalizedCrystal
_audit_creation_method	'MofGen! by Chris Wilmer'
_symmetry_space_group_name_H-M	'P1'
_symmetry_Int_Tables_number	1
_symmetry_cell_setting	triclinic
loop_
_symmetry_equiv_pos_as_xyz
  x,y,z
_cell_length_a	14.853576
_cell_length_b	14.853567
_cell_length_c	15.186229
_cell_angle_alpha	89.999614
_cell_angle_beta	89.997313
_cell_angle_gamma	83.636707
loop_
_atom_site_label
_atom_site_type_symbol
_atom_site_fract_x
_atom_site_fract_y
_atom_site_fract_z
O1	O	0.117703	1.196367	-0.073166
O2	O	0.617703	1.696367	0.426834
O3	O	0.131724	0.933908	-0.073181
O4	O	0.631724	1.433908	0.426819
O5	O	-0.006516	1.072144	-0.073169
O6	O	0.493484	1.572144	0.426831
O7	O	0.255942	1.058131	-0.073177
O8	O	0.755942	1.558131	0.426823
O9	O	-0.006518	1.072135	0.073288
O10	O	0.493482	1.572135	0.573288
O11	O	0.131722	0.933899	0.073277
O12	O	0.631722	1.433899	0.573277
O13	O	0.117701	1.196358	0.073292
O14	O	0.617701	1.696358	0.573292
Zn15	Zn	0.124711	1.065127	0.096537
Zn16	Zn	0.624711	1.565127	0.596537
Zn17	Zn	0.124714	1.065139	-0.096426
Zn18	Zn	0.624714	1.565139	0.403574
O19	O	0.255940	1.058122	0.073280
O20	O	0.755940	1.558122	0.573280
C21	C	0.131088	0.900315	0.000046
C22	C	0.631088	1.400315	0.500046
C23	C	0.129184	0.800231	0.000040
C24	C	0.629184	1.300231	0.500040
C25	C	0.039018	0.387694	0.000063
C26	C	0.539018	0.887694	0.500063
C27	C	0.203251	0.366418	0.000057
C28	C	0.703251	0.866418	0.500057
C29	C	0.205041	0.460452	0.000054
C30	C	0.705041	0.960452	0.500054
C31	C	0.123818	0.518112	0.000054
C32	C	0.623818	1.018112	0.500054
C33	C	0.040806	0.481737	0.000057
C34	C	0.540806	0.981737	0.500057
C35	C	0.288052	0.496834	0.000042
C36	C	0.788052	0.996834	0.500042
C37	C	0.289845	0.590873	0.000039
C38	C	0.789845	1.090873	0.500039
C39	C	0.208622	0.648534	0.000045
C40	C	0.708622	1.148534	0.500045
C41	C	0.125606	0.612154	0.000049
C42	C	0.625606	1.112154	0.500049
C43	C	0.044384	0.669814	0.000049
C44	C	0.544384	1.169814	0.500049
C45	C	-0.038633	0.633436	0.000059
C46	C	0.461367	1.133436	0.500059
C47	C	-0.040417	0.539398	0.000064
C48	C	0.459583	1.039398	0.500064
C49	C	0.210406	0.742572	0.000040
C50	C	0.710406	1.242572	0.500040
C51	C	0.046171	0.763856	0.000043
C52	C	0.546171	1.263856	0.500043
C53	C	-0.040106	1.071503	0.000058
C54	C	0.459894	1.571503	0.500058
C55	C	-0.140189	1.069596	0.000055
C56	C	0.359811	1.569596	0.500055
C57	C	-0.187203	1.068704	-0.079783
C58	C	0.312797	1.568704	0.420217
C59	C	-0.187218	1.068704	0.079891
C60	C	0.312782	1.568704	0.579891
C61	C	-0.281252	1.066917	0.079891
C62	C	0.218748	1.566917	0.579891
C63	C	-0.328266	1.066025	0.000053
C64	C	0.171734	1.566025	0.500053
C65	C	-0.281246	1.066920	-0.079785
C66	C	0.218754	1.566920	0.420215
C67	C	-0.328281	1.066032	0.159727
C68	C	0.171719	1.566032	0.659727
C69	C	-0.422321	1.064246	0.159730
C70	C	0.077679	1.564246	0.659730
C71	C	-0.469336	1.063347	0.079892
C72	C	0.030664	1.563347	0.579892
C73	C	-0.422309	1.064241	0.000050
C74	C	0.077691	1.564241	0.500050
C75	C	-0.469323	1.063348	-0.079788
C76	C	0.030677	1.563348	0.420212
C77	C	-0.422298	1.064236	-0.159630
C78	C	0.077702	1.564236	0.340370
C79	C	-0.328261	1.066021	-0.159624
C80	C	0.171739	1.566021	0.340376
C81	C	-0.563373	1.061562	0.079886
C82	C	-0.063373	1.561562	0.579886
C83	C	-0.563366	1.061564	-0.079790
C84	C	-0.063366	1.561564	0.420210
C85	C	0.289530	1.058763	0.000051
C86	C	0.789530	1.558763	0.500051
C87	C	0.389613	1.060670	0.000048
C88	C	0.889613	1.560670	0.500048
N89	N	0.124709	1.065125	0.228230
N90	N	0.624709	1.565125	0.728230
C91	C	0.118337	1.229951	0.000063
C92	C	0.618337	1.729951	0.500063
C93	C	0.120241	1.330035	0.000063
C94	C	0.620241	1.830035	0.500063
N95	N	0.124709	1.065148	-0.228119
N96	N	0.624709	1.565148	0.271881
C97	C	0.063517	1.126357	0.453958
C98	C	0.563517	1.626357	0.953958
C99	C	0.063515	1.126360	0.546148
C100	C	0.563515	1.626360	1.046148
C101	C	0.185904	1.003909	0.546147
C102	C	0.685904	1.503909	1.046147
C103	C	0.185901	1.003903	0.453959
C104	C	0.685901	1.503903	0.953959
C105	C	0.124708	1.065132	0.407867
C106	C	0.624708	1.565132	0.907867
C107	C	0.124709	1.065141	0.592244
C108	C	0.624709	1.565141	1.092244
C109	C	0.124707	1.065144	0.692200
C110	C	0.624707	1.565144	1.192200
C111	C	0.124709	1.065128	0.307904
C112	C	0.624709	1.565128	0.807904
H113	H	-0.104764	0.680394	0.000053
H114	H	0.395236	1.180394	0.500053
O115	O	-0.136492	1.069655	-0.165897
O116	O	0.363508	1.569655	0.334103
H117	H	-0.101602	1.131866	-0.169726
H118	H	0.398398	1.631866	0.330274
H119	H	0.013686	1.176214	0.583672
H120	H	0.513686	1.676214	1.083672
O121	O	0.299932	0.781813	0.000035
O122	O	0.799932	1.281813	0.500035
H123	H	0.356110	0.725920	0.000040
H124	H	0.856110	1.225920	0.500040
H125	H	-0.148935	1.069438	0.144891
H126	H	0.351065	1.569438	0.644891
O127	O	-0.473007	1.063269	-0.245741
O128	O	0.026993	1.563269	0.254259
H129	H	-0.546296	1.061876	-0.232323
H130	H	-0.046296	1.561876	0.267677
O131	O	0.251909	0.937884	0.595866
O132	O	0.751909	1.437884	1.095866
H133	H	0.322207	0.949461	0.578155
H134	H	0.822207	1.449461	1.078155
H135	H	-0.289965	1.066746	-0.224627
H136	H	0.210035	1.566746	0.275373
H137	H	0.235731	0.954042	0.416429
H138	H	0.735731	1.454042	0.916429
O139	O	-0.041434	0.826047	0.000050
O140	O	0.458566	1.326047	0.500050
H141	H	-0.081154	0.813102	-0.059641
H142	H	0.418846	1.313102	0.440359
H143	H	-0.289996	1.066765	0.224727
H144	H	0.210004	1.566765	0.724727
H145	H	-0.108005	0.509770	0.000093
H146	H	0.391995	1.009770	0.500093
O147	O	-0.473039	1.063278	0.245839
O148	O	0.026961	1.563278	0.745839
H149	H	-0.424547	1.064192	0.301355
H150	H	0.075453	1.564192	0.801355
O151	O	0.290853	0.304236	0.000066
O152	O	0.790853	0.804236	0.500066
H153	H	0.275663	0.232735	0.000078
H154	H	0.775663	0.732735	0.500078
O155	O	-0.614065	1.060582	-0.165906
O156	O	-0.114065	1.560582	0.334094
H157	H	-0.603971	1.122318	-0.204198
H158	H	-0.103971	1.622318	0.295802
O159	O	-0.614096	1.060603	0.165989
O160	O	-0.114096	1.560603	0.665989
H161	H	-0.565606	1.061521	0.221505
H162	H	-0.065606	1.561521	0.721505
O163	O	-0.002490	1.192383	0.404240
O164	O	0.497510	1.692383	0.904240
H165	H	-0.045047	1.234949	0.451782
H166	H	0.454953	1.734949	0.951782
H167	H	-0.028572	0.358071	0.000075
H168	H	0.471428	0.858071	0.500075
H169	H	0.357442	0.620483	0.000030
H170	H	0.857442	1.120483	0.500030
O171	O	0.375653	0.434650	0.000054
O172	O	0.875653	0.934650	0.500054
H173	H	0.360461	0.363149	0.000075
H174	H	0.860461	0.863149	0.500075
