data_functionalizedCrystal
_audit_creation_method	'MofGen! by Chris Wilmer'
_symmetry_space_group_name_H-M	'P1'
_symmetry_Int_Tables_number	1
_symmetry_cell_setting	triclinic
loop_
_symmetry_equiv_pos_as_xyz
  x,y,z
_cell_length_a	21.395362
_cell_length_b	19.076808
_cell_length_c	21.395355
_cell_angle_alpha	87.682564
_cell_angle_beta	89.956060
_cell_angle_gamma	92.338508
loop_
_atom_site_label
_atom_site_type_symbol
_atom_site_fract_x
_atom_site_fract_y
_atom_site_fract_z
Zn1	Zn	0.947868	-0.280001	-0.344563
Zn2	Zn	1.197868	-0.030001	-0.094563
Zn3	Zn	1.447868	0.219999	0.155437
Zn4	Zn	1.697868	0.469999	0.405437
Zn5	Zn	0.943570	-0.397688	-0.235573
Zn6	Zn	1.193570	-0.147688	0.014427
Zn7	Zn	1.443570	0.102312	0.264427
Zn8	Zn	1.693570	0.352312	0.514427
Zn9	Zn	0.843081	-0.280034	-0.239763
Zn10	Zn	1.093081	-0.030034	0.010237
Zn11	Zn	1.343081	0.219966	0.260237
Zn12	Zn	1.593081	0.469966	0.510237
Zn13	Zn	0.838852	-0.397702	-0.340278
Zn14	Zn	1.088852	-0.147702	-0.090278
Zn15	Zn	1.338852	0.102298	0.159722
Zn16	Zn	1.588852	0.352298	0.409722
O17	O	0.893343	-0.338856	-0.290044
O18	O	1.143343	-0.088856	-0.040044
O19	O	1.393343	0.161144	0.209956
O20	O	1.643343	0.411144	0.459956
O21	O	1.034976	-0.295593	-0.330146
O22	O	1.284976	-0.045593	-0.080146
O23	O	1.534976	0.204407	0.169854
O24	O	1.784976	0.454407	0.419854
O25	O	0.930212	-0.382088	-0.148451
O26	O	1.180212	-0.132088	0.101549
O27	O	1.430212	0.117912	0.351549
O28	O	1.680212	0.367912	0.601549
O29	O	0.860550	-0.181533	-0.257213
O30	O	1.110550	0.068467	-0.007213
O31	O	1.360550	0.318467	0.242787
O32	O	1.610550	0.568467	0.492787
O33	O	1.031819	-0.382056	-0.250071
O34	O	1.281819	-0.132056	-0.000071
O35	O	1.531819	0.117944	0.249929
O36	O	1.781819	0.367944	0.499929
O37	O	0.937536	-0.181508	-0.334209
O38	O	1.187536	0.068492	-0.084209
O39	O	1.437536	0.318492	0.165791
O40	O	1.687536	0.568492	0.415791
O41	O	0.856383	-0.295648	-0.151529
O42	O	1.106383	-0.045648	0.098471
O43	O	1.356383	0.204352	0.348471
O44	O	1.606383	0.454352	0.598471
O45	O	0.754842	-0.295662	-0.253057
O46	O	1.004842	-0.045662	-0.003057
O47	O	1.254842	0.204338	0.246943
O48	O	1.504842	0.454338	0.496943
O49	O	0.853341	-0.382081	-0.428524
O50	O	1.103341	-0.132081	-0.178524
O51	O	1.353341	0.117919	0.071476
O52	O	1.603341	0.367919	0.321476
O53	O	0.751734	-0.382113	-0.326904
O54	O	1.001734	-0.132113	-0.076904
O55	O	1.251734	0.117887	0.173096
O56	O	1.501734	0.367887	0.423096
O57	O	0.933435	-0.295607	-0.431673
O58	O	1.183435	-0.045607	-0.181673
O59	O	1.433435	0.204393	0.068327
O60	O	1.683435	0.454393	0.318327
O61	O	0.926111	-0.496186	-0.245916
O62	O	1.176111	-0.246186	0.004084
O63	O	1.426111	0.003814	0.254084
O64	O	1.676111	0.253814	0.504084
O65	O	0.849174	-0.496197	-0.322841
O66	O	1.099174	-0.246197	-0.072841
O67	O	1.349174	0.003803	0.177159
O68	O	1.599174	0.253803	0.427159
C69	C	0.730554	-0.338893	-0.289970
C70	C	0.980554	-0.088893	-0.039970
C71	C	1.230554	0.161107	0.210030
C72	C	1.480554	0.411107	0.460030
C73	C	0.660911	-0.338926	-0.289953
C74	C	0.910911	-0.088926	-0.039953
C75	C	1.160911	0.161074	0.210047
C76	C	1.410911	0.411074	0.460047
C77	C	0.886734	-0.521731	-0.283472
C78	C	1.136734	-0.271731	-0.033472
C79	C	1.386734	-0.021731	0.216528
C80	C	1.636734	0.228269	0.466528
C81	C	0.883964	-0.599965	-0.280682
C82	C	1.133964	-0.349965	-0.030682
C83	C	1.383964	-0.099965	0.219318
C84	C	1.633964	0.150035	0.469318
C85	C	0.626594	-0.384001	-0.328343
C86	C	0.876594	-0.134001	-0.078343
C87	C	1.126594	0.115999	0.171657
C88	C	1.376594	0.365999	0.421657
C89	C	0.561159	-0.383983	-0.328372
C90	C	0.811159	-0.133983	-0.078372
C91	C	1.061159	0.116017	0.171628
C92	C	1.311159	0.366017	0.421628
C93	C	0.530044	-0.338899	-0.289999
C94	C	0.780044	-0.088899	-0.039999
C95	C	1.030044	0.161101	0.210001
C96	C	1.280044	0.411101	0.460001
C97	C	0.564369	-0.293816	-0.251606
C98	C	0.814369	-0.043816	-0.001606
C99	C	1.064369	0.206184	0.248394
C100	C	1.314369	0.456184	0.498394
C101	C	0.629803	-0.293829	-0.251583
C102	C	0.879803	-0.043829	-0.001583
C103	C	1.129803	0.206171	0.248417
C104	C	1.379803	0.456171	0.498417
C105	C	0.426522	-0.333229	-0.233796
C106	C	0.676522	-0.083229	0.016204
C107	C	0.926522	0.166771	0.266204
C108	C	1.176522	0.416771	0.516204
C109	C	0.361089	-0.333220	-0.233818
C110	C	0.611089	-0.083220	0.016182
C111	C	0.861089	0.166780	0.266182
C112	C	1.111089	0.416780	0.516182
C113	C	0.328225	-0.338853	-0.290069
C114	C	0.578225	-0.088853	-0.040069
C115	C	0.828225	0.161147	0.209931
C116	C	1.078225	0.411147	0.459931
C117	C	0.360801	-0.344510	-0.346301
C118	C	0.610801	-0.094510	-0.096301
C119	C	0.860801	0.155490	0.153699
C120	C	1.110801	0.405490	0.403699
C121	C	0.426235	-0.344523	-0.346278
C122	C	0.676235	-0.094523	-0.096278
C123	C	0.926235	0.155477	0.153722
C124	C	1.176235	0.405477	0.403722
C125	C	0.459092	-0.338879	-0.290019
C126	C	0.709092	-0.088879	-0.040019
C127	C	0.959092	0.161121	0.209981
C128	C	1.209092	0.411121	0.459981
C129	C	0.222956	-0.383911	-0.328494
C130	C	0.472956	-0.133911	-0.078494
C131	C	0.722956	0.116089	0.171506
C132	C	0.972956	0.366089	0.421506
C133	C	0.157520	-0.383889	-0.328524
C134	C	0.407520	-0.133889	-0.078524
C135	C	0.657520	0.116111	0.171476
C136	C	0.907520	0.366111	0.421476
C137	C	0.160731	-0.293725	-0.251752
C138	C	0.410731	-0.043725	-0.001752
C139	C	0.660731	0.206275	0.248248
C140	C	0.910731	0.456275	0.498248
C141	C	0.226166	-0.293744	-0.251728
C142	C	0.476166	-0.043744	-0.001728
C143	C	0.726166	0.206256	0.248272
C144	C	0.976166	0.456256	0.498272
C145	C	0.257274	-0.338841	-0.290098
C146	C	0.507274	-0.088841	-0.040098
C147	C	0.757274	0.161159	0.209902
C148	C	1.007274	0.411159	0.459902
C149	C	0.922715	-0.636647	-0.319491
C150	C	1.172715	-0.386647	-0.069491
C151	C	1.422715	-0.136647	0.180509
C152	C	1.672715	0.113353	0.430509
C153	C	0.920110	-0.710157	-0.316870
C154	C	1.170110	-0.460157	-0.066870
C155	C	1.420110	-0.210157	0.183130
C156	C	1.670110	0.039843	0.433130
C157	C	0.878757	-0.746983	-0.275436
C158	C	1.128757	-0.496983	-0.025436
C159	C	1.378757	-0.246983	0.224564
C160	C	1.628757	0.003017	0.474564
C161	C	0.840001	-0.710296	-0.236625
C162	C	1.090001	-0.460296	0.013375
C163	C	1.340001	-0.210296	0.263375
C164	C	1.590001	0.039704	0.513375
C165	C	0.842604	-0.636788	-0.239250
C166	C	1.092604	-0.386788	0.010750
C167	C	1.342604	-0.136788	0.260750
C168	C	1.592604	0.113212	0.510750
C169	C	0.866676	-0.966837	-0.263287
C170	C	1.116676	-0.716837	-0.013287
C171	C	1.366676	-0.466837	0.236713
C172	C	1.616676	-0.216837	0.486713
C173	C	0.864078	-1.040351	-0.260664
C174	C	1.114078	-0.790351	-0.010664
C175	C	1.364078	-0.540351	0.239336
C176	C	1.614078	-0.290351	0.489336
C177	C	0.944186	-1.040206	-0.340910
C178	C	1.194186	-0.790206	-0.090910
C179	C	1.444186	-0.540206	0.159090
C180	C	1.694186	-0.290206	0.409090
C181	C	0.946787	-0.966696	-0.343528
C182	C	1.196787	-0.716696	-0.093528
C183	C	1.446787	-0.466696	0.156472
C184	C	1.696787	-0.216696	0.406472
C185	C	0.908030	-0.930016	-0.304720
C186	C	1.158030	-0.680016	-0.054720
C187	C	1.408030	-0.430016	0.195280
C188	C	1.658030	-0.180016	0.445280
N189	N	0.876094	-0.822122	-0.272755
N190	N	1.126094	-0.572122	-0.022755
N191	N	1.376094	-0.322122	0.227245
N192	N	1.626094	-0.072122	0.477245
N193	N	0.910689	-0.854879	-0.307405
N194	N	1.160689	-0.604879	-0.057405
N195	N	1.410689	-0.354879	0.192595
N196	N	1.660689	-0.104879	0.442595
C197	C	1.056767	-0.338819	-0.290119
C198	C	1.306767	-0.088819	-0.040119
C199	C	1.556767	0.161181	0.209881
C200	C	1.806767	0.411181	0.459881
C201	C	1.126409	-0.338803	-0.290151
C202	C	1.376409	-0.088803	-0.040151
C203	C	1.626409	0.161197	0.209849
C204	C	1.876409	0.411197	0.459849
C205	C	0.893395	-0.338842	-0.453468
C206	C	1.143395	-0.088842	-0.203468
C207	C	1.393395	0.161158	0.046532
C208	C	1.643395	0.411158	0.296532
C209	C	0.893418	-0.338836	-0.523110
C210	C	1.143418	-0.088836	-0.273110
C211	C	1.393418	0.161164	-0.023110
C212	C	1.643418	0.411164	0.226890
C213	C	0.899994	-0.155267	-0.296656
C214	C	1.149994	0.094733	-0.046656
C215	C	1.399994	0.344733	0.203344
C216	C	1.649994	0.594733	0.453344
C217	C	0.902829	-0.077033	-0.299473
C218	C	1.152829	0.172967	-0.049473
C219	C	1.402829	0.422967	0.200527
C220	C	1.652829	0.672967	0.450527
C221	C	0.935121	-0.293807	-0.557464
C222	C	1.185121	-0.043807	-0.307464
C223	C	1.435121	0.206193	-0.057464
C224	C	1.685121	0.456193	0.192536
C225	C	0.935121	-0.293776	-0.622900
C226	C	1.185121	-0.043776	-0.372900
C227	C	1.435121	0.206224	-0.122900
C228	C	1.685121	0.456224	0.127100
C229	C	0.893424	-0.338788	-0.653980
C230	C	1.143424	-0.088788	-0.403980
C231	C	1.393424	0.161212	-0.153980
C232	C	1.643424	0.411212	0.096020
C233	C	0.851713	-0.383820	-0.619618
C234	C	1.101713	-0.133820	-0.369618
C235	C	1.351713	0.116180	-0.119618
C236	C	1.601713	0.366180	0.130382
C237	C	0.851710	-0.383844	-0.554183
C238	C	1.101710	-0.133844	-0.304183
C239	C	1.351710	0.116156	-0.054183
C240	C	1.601710	0.366156	0.195817
C241	C	0.886187	-0.402166	-0.755375
C242	C	1.136187	-0.152166	-0.505375
C243	C	1.386187	0.097834	-0.255375
C244	C	1.636187	0.347834	-0.005375
C245	C	0.886194	-0.402143	-0.820809
C246	C	1.136194	-0.152143	-0.570809
C247	C	1.386194	0.097857	-0.320809
C248	C	1.636194	0.347857	-0.070809
C249	C	0.893431	-0.338713	-0.855803
C250	C	1.143431	-0.088713	-0.605803
C251	C	1.393431	0.161287	-0.355803
C252	C	1.643431	0.411287	-0.105803
C253	C	0.900673	-0.275304	-0.825356
C254	C	1.150673	-0.025304	-0.575356
C255	C	1.400673	0.224696	-0.325356
C256	C	1.650673	0.474696	-0.075356
C257	C	0.900670	-0.275328	-0.759921
C258	C	1.150670	-0.025328	-0.509921
C259	C	1.400670	0.224672	-0.259921
C260	C	1.650670	0.474672	-0.009921
C261	C	0.893423	-0.338766	-0.724933
C262	C	1.143423	-0.088766	-0.474933
C263	C	1.393423	0.161234	-0.224933
C264	C	1.643423	0.411234	0.025067
C265	C	0.935136	-0.293648	-0.961111
C266	C	1.185136	-0.043648	-0.711111
C267	C	1.435136	0.206352	-0.461111
C268	C	1.685136	0.456352	-0.211111
C269	C	0.935132	-0.293616	-1.026549
C270	C	1.185132	-0.043616	-0.776549
C271	C	1.435132	0.206384	-0.526549
C272	C	1.685132	0.456384	-0.276549
C273	C	0.851728	-0.383666	-1.023265
C274	C	1.101728	-0.133666	-0.773265
C275	C	1.351728	0.116334	-0.523265
C276	C	1.601728	0.366334	-0.273265
C277	C	0.851729	-0.383691	-0.957829
C278	C	1.101729	-0.133691	-0.707829
C279	C	1.351729	0.116309	-0.457829
C280	C	1.601729	0.366309	-0.207829
C281	C	0.893436	-0.338683	-0.926756
C282	C	1.143436	-0.088683	-0.676756
C283	C	1.393436	0.161317	-0.426756
C284	C	1.643436	0.411317	-0.176756
C285	C	0.893328	-0.338819	-0.127258
C286	C	1.143328	-0.088819	0.122742
C287	C	1.393328	0.161181	0.372742
C288	C	1.643328	0.411181	0.622742
C289	C	0.893434	-0.338627	-0.057624
C290	C	1.143434	-0.088627	0.192376
C291	C	1.393434	0.161373	0.442376
C292	C	1.643434	0.411373	0.692376
H293	H	0.651919	-0.420721	-0.359588
H294	H	0.901919	-0.170721	-0.109588
H295	H	1.151919	0.079279	0.140412
H296	H	1.401919	0.329279	0.390412
H297	H	0.334045	-0.349095	-0.392106
H298	H	0.584045	-0.099095	-0.142106
H299	H	0.834045	0.150905	0.107894
H300	H	1.084045	0.400905	0.357894
F301	F	0.985430	-1.079249	-0.382211
F302	F	1.235430	-0.829249	-0.132211
F303	F	1.485430	-0.579249	0.117789
F304	F	1.735430	-0.329249	0.367789
H305	H	0.539031	-0.257107	-0.220364
H306	H	0.789031	-0.007107	0.029636
H307	H	1.039031	0.242893	0.279636
H308	H	1.289031	0.492893	0.529636
F309	F	0.801359	-0.597749	-0.197945
F310	F	1.051359	-0.347749	0.052055
F311	F	1.301359	-0.097749	0.302055
F312	F	1.551359	0.152251	0.552055
H313	H	0.969082	-0.257156	-0.532168
H314	H	1.219082	-0.007156	-0.282168
H315	H	1.469082	0.242844	-0.032168
H316	H	1.719082	0.492844	0.217832
H317	H	0.806328	-0.740287	-0.202892
H318	H	1.056328	-0.490287	0.047108
H319	H	1.306328	-0.240287	0.297108
H320	H	1.556328	0.009713	0.547108
F321	F	0.878498	-0.469683	-0.718138
F322	F	1.128498	-0.219683	-0.468138
F323	F	1.378498	0.030317	-0.218138
F324	F	1.628498	0.280317	0.031862
F325	F	0.908374	-0.207846	-0.727519
F326	F	1.158374	0.042154	-0.477519
F327	F	1.408374	0.292154	-0.227519
F328	F	1.658374	0.542154	0.022481
H329	H	0.453274	-0.328639	-0.187987
H330	H	0.703274	-0.078639	0.062013
H331	H	0.953274	0.171361	0.312013
H332	H	1.203274	0.421361	0.562013
H333	H	0.657744	-0.257122	-0.220321
H334	H	0.907744	-0.007122	0.029679
H335	H	1.157744	0.242878	0.279679
H336	H	1.407744	0.492878	0.529679
H337	H	0.817771	-0.420308	-1.048570
H338	H	1.067771	-0.170308	-0.798570
H339	H	1.317771	0.079692	-0.548570
H340	H	1.567771	0.329692	-0.298570
F341	F	0.256066	-0.431903	-0.369333
F342	F	0.506066	-0.181903	-0.119333
F343	F	0.756066	0.068097	0.130667
F344	F	1.006066	0.318097	0.380667
H345	H	0.880301	-0.453775	-0.845594
H346	H	1.130301	-0.203775	-0.595594
H347	H	1.380301	0.046225	-0.345594
H348	H	1.630301	0.296225	-0.095594
H349	H	0.817762	-0.420466	-0.644928
H350	H	1.067762	-0.170466	-0.394928
H351	H	1.317762	0.079534	-0.144928
H352	H	1.567762	0.329534	0.105072
H353	H	0.951670	-0.740020	-0.348467
H354	H	1.201670	-0.490020	-0.098467
H355	H	1.451670	-0.240020	0.151533
H356	H	1.701670	0.009980	0.401533
F357	F	0.990801	-0.927508	-0.387628
F358	F	1.240801	-0.677508	-0.137628
F359	F	1.490801	-0.427508	0.112372
F360	F	1.740801	-0.177508	0.362372
H361	H	0.956393	-0.606668	-0.353228
H362	H	1.206393	-0.356668	-0.103228
H363	H	1.456393	-0.106668	0.146772
H364	H	1.706393	0.143332	0.396772
H365	H	0.830399	-1.070333	-0.226924
H366	H	1.080399	-0.820333	0.023076
H367	H	1.330399	-0.570333	0.273076
H368	H	1.580399	-0.320333	0.523076
H369	H	0.817747	-0.420511	-0.526213
H370	H	1.067747	-0.170511	-0.276213
H371	H	1.317747	0.079489	-0.026213
H372	H	1.567747	0.329489	0.223787
H373	H	0.969079	-0.257104	-0.650876
H374	H	1.219079	-0.007104	-0.400876
H375	H	1.469079	0.242896	-0.150876
H376	H	1.719079	0.492896	0.099124
H377	H	0.334570	-0.328619	-0.188031
H378	H	0.584570	-0.078619	0.061969
H379	H	0.834570	0.171381	0.311969
H380	H	1.084570	0.421381	0.561969
H381	H	0.835119	-0.936978	-0.231687
H382	H	1.085119	-0.686978	0.018313
H383	H	1.335119	-0.436978	0.268313
H384	H	1.585119	-0.186978	0.518313
H385	H	0.817773	-0.420363	-0.929858
H386	H	1.067773	-0.170363	-0.679858
H387	H	1.317773	0.079637	-0.429858
H388	H	1.567773	0.329637	-0.179858
F389	F	0.908377	-0.207793	-0.862594
F390	F	1.158377	0.042207	-0.612594
F391	F	1.408377	0.292207	-0.362594
F392	F	1.658377	0.542207	-0.112594
F393	F	0.524629	-0.431959	-0.369234
F394	F	0.774629	-0.181959	-0.119234
F395	F	1.024629	0.068041	0.130766
F396	F	1.274629	0.318041	0.380766
F397	F	0.979522	-0.245744	-0.928038
F398	F	1.229522	0.004256	-0.678038
F399	F	1.479522	0.254256	-0.428038
F400	F	1.729522	0.504256	-0.178038
H401	H	0.452756	-0.349127	-0.392063
H402	H	0.702756	-0.099127	-0.142063
H403	H	0.952756	0.150873	0.107937
H404	H	1.202756	0.400873	0.357937
F405	F	0.120998	-0.431862	-0.369390
F406	F	0.370998	-0.181862	-0.119390
F407	F	0.620998	0.068138	0.130610
F408	F	0.870998	0.318138	0.380610
H409	H	0.135398	-0.257014	-0.220511
H410	H	0.385398	-0.007014	0.029489
H411	H	0.635398	0.242986	0.279489
H412	H	0.885398	0.492986	0.529489
F413	F	0.262690	-0.245771	-0.210866
F414	F	0.512690	0.004229	0.039134
F415	F	0.762690	0.254229	0.289134
F416	F	1.012690	0.504229	0.539134
F417	F	0.979528	-0.245695	-1.063110
F418	F	1.229528	0.004305	-0.813110
F419	F	1.479528	0.254305	-0.563110
F420	F	1.729528	0.504305	-0.313110
