data_functionalizedCrystal
_audit_creation_method	'MofGen! by Chris Wilmer'
_symmetry_space_group_name_H-M	'P1'
_symmetry_Int_Tables_number	1
_symmetry_cell_setting	triclinic
loop_
_symmetry_equiv_pos_as_xyz
  x,y,z
_cell_length_a	14.971482
_cell_length_b	15.944493
_cell_length_c	14.048226
_cell_angle_alpha	89.999441
_cell_angle_beta	89.994098
_cell_angle_gamma	83.543826
loop_
_atom_site_label
_atom_site_type_symbol
_atom_site_fract_x
_atom_site_fract_y
_atom_site_fract_z
O1	O	1.186807	0.109451	-0.079136
O2	O	1.686807	0.609451	0.420864
O3	O	0.926389	0.122563	-0.079139
O4	O	1.426389	0.622563	0.420861
O5	O	1.063736	-0.006264	-0.079145
O6	O	1.563736	0.493736	0.420855
O7	O	1.049459	0.238279	-0.079129
O8	O	1.549459	0.738279	0.420871
O9	O	1.063720	-0.006272	0.079176
O10	O	1.563720	0.493728	0.579176
O11	O	0.926373	0.122556	0.079183
O12	O	1.426373	0.622556	0.579183
O13	O	1.186790	0.109444	0.079186
O14	O	1.686790	0.609444	0.579186
Zn15	Zn	1.056579	0.115999	0.104321
Zn16	Zn	1.556579	0.615999	0.604321
Zn17	Zn	1.056600	0.116009	-0.104274
Zn18	Zn	1.556600	0.616009	0.395726
O19	O	1.049443	0.238271	0.079192
O20	O	1.549443	0.738271	0.579192
C21	C	0.893057	0.121974	0.000021
C22	C	1.393057	0.621974	0.500021
C23	C	0.793762	0.120218	0.000020
C24	C	1.293762	0.620218	0.500020
C25	C	0.747109	0.119387	0.086321
C26	C	1.247109	0.619387	0.586321
C27	C	0.653813	0.117724	0.086322
C28	C	1.153813	0.617724	0.586322
C29	C	0.607170	0.116898	0.000020
C30	C	1.107170	0.616898	0.500020
C31	C	0.653830	0.117727	-0.086288
C32	C	1.153830	0.617727	0.413712
C33	C	0.747125	0.119384	-0.086288
C34	C	1.247125	0.619384	0.413712
C35	C	0.459372	0.114275	-0.086282
C36	C	0.959372	0.614275	0.413718
C37	C	0.366070	0.112620	-0.086283
C38	C	0.866070	0.612620	0.413717
C39	C	0.366060	0.112616	0.086328
C40	C	0.866060	0.612616	0.586328
C41	C	0.459356	0.114273	0.086328
C42	C	0.959356	0.614273	0.586328
C43	C	0.506008	0.115103	0.000019
C44	C	1.006008	0.615103	0.500019
C45	C	1.063145	-0.037563	0.000012
C46	C	1.563145	0.462437	0.500012
C47	C	1.061395	-0.130813	-0.000000
C48	C	1.561395	0.369187	0.500000
C49	C	1.142241	-0.366497	0.000019
C50	C	1.642241	0.133503	0.500019
C51	C	1.098652	-0.417103	-0.078042
C52	C	1.598652	0.082897	0.421958
C53	C	1.058154	-0.301538	0.000011
C54	C	1.558154	0.198462	0.500011
C55	C	1.098616	-0.417086	0.078050
C56	C	1.598616	0.082914	0.578050
C57	C	1.055029	-0.466450	0.000027
C58	C	1.555029	0.033550	0.500027
C59	C	1.014587	-0.350915	-0.078114
C60	C	1.514587	0.149085	0.421886
C61	C	1.014564	-0.350895	0.078049
C62	C	1.514564	0.149105	0.578049
C63	C	0.970913	-0.401467	-0.000031
C64	C	1.470913	0.098533	0.499969
C65	C	1.059956	-0.206536	0.000001
C66	C	1.559956	0.293464	0.500001
C67	C	1.053219	-0.561449	0.000029
C68	C	1.553219	-0.061449	0.500029
C69	C	1.220122	0.110033	0.000024
C70	C	1.720122	0.610033	0.500024
C71	C	1.319417	0.111789	0.000019
C72	C	1.819417	0.611789	0.500019
C73	C	1.050035	0.269570	0.000033
C74	C	1.550035	0.769570	0.500033
C75	C	1.051784	0.362821	0.000039
C76	C	1.551784	0.862821	0.500039
N77	N	1.056570	0.115991	0.246682
N78	N	1.556570	0.615991	0.746682
N79	N	1.056616	0.116009	-0.246635
N80	N	1.556616	0.616009	0.253365
C81	C	1.117407	0.058970	0.296497
C82	C	1.617407	0.558970	0.796497
C83	C	1.117413	0.058970	0.396155
C84	C	1.617413	0.558970	0.896155
C85	C	1.056586	0.115995	0.445995
C86	C	1.556586	0.615995	0.945995
C87	C	0.995743	0.173019	0.396173
C88	C	1.495743	0.673019	0.896173
C89	C	0.995734	0.173015	0.296517
C90	C	1.495734	0.673015	0.796517
C91	C	0.995769	0.173025	0.603887
C92	C	1.495769	0.673025	1.103887
C93	C	0.995779	0.173031	0.703550
C94	C	1.495779	0.673031	1.203550
C95	C	1.117448	0.058980	0.703525
C96	C	1.617448	0.558980	1.203525
C97	C	1.117439	0.058976	0.603869
C98	C	1.617439	0.558976	1.103869
C99	C	1.056597	0.116001	0.554054
C100	C	1.556597	0.616001	1.054054
H101	H	0.497354	0.114952	-0.156564
H102	H	0.997354	0.614952	0.343436
H103	H	1.166943	0.012537	0.255923
H104	H	1.666943	0.512537	0.755923
F105	F	1.145075	-0.454892	-0.164301
F106	F	1.645075	0.045108	0.335699
H107	H	1.214671	-0.350801	-0.000059
H108	H	1.714671	0.149199	0.499941
H109	H	0.946212	0.219447	0.436759
H110	H	1.446212	0.719447	0.936759
H111	H	0.979076	-0.321971	0.144045
H112	H	1.479076	0.178029	0.644045
F113	F	1.145043	-0.454860	0.164305
F114	F	1.645043	0.045140	0.664305
F115	F	0.931037	0.233724	0.756587
F116	F	1.431037	0.733724	1.256587
H117	H	0.615846	0.117048	-0.156557
H118	H	1.115846	0.617048	0.343443
H119	H	0.785108	0.120062	-0.156564
H120	H	1.285108	0.620062	0.343436
H121	H	1.166950	0.012538	0.436714
H122	H	1.666950	0.512538	0.936714
F123	F	1.182182	-0.001711	0.550824
F124	F	1.682182	0.498289	1.050824
H125	H	0.946222	0.219458	0.563331
H126	H	1.446222	0.719458	1.063331
F127	F	1.182201	-0.001709	0.756546
F128	F	1.682201	0.498291	1.256546
F129	F	0.968210	-0.313288	-0.164468
F130	F	1.468210	0.186712	0.335532
H131	H	0.898426	-0.417001	-0.000075
H132	H	1.398426	0.082999	0.499925
F133	F	0.930980	0.233702	0.243502
F134	F	1.430980	0.733702	0.743502
H135	H	0.328071	0.111940	0.156604
H136	H	0.828071	0.611940	0.656604
F137	F	0.796741	0.120272	0.178178
F138	F	1.296741	0.620272	0.678178
H139	H	0.497329	0.114950	0.156603
H140	H	0.997329	0.614950	0.656603
F141	F	0.604164	0.116851	0.178177
F142	F	1.104164	0.616851	0.678177
H143	H	0.328096	0.111948	-0.156557
H144	H	0.828096	0.611948	0.343443
