data_functionalizedCrystal
_audit_creation_method	'MofGen! by Chris Wilmer'
_symmetry_space_group_name_H-M	'P1'
_symmetry_Int_Tables_number	1
_symmetry_cell_setting	triclinic
loop_
_symmetry_equiv_pos_as_xyz
  x,y,z
_cell_length_a	23.532407
_cell_length_b	15.944551
_cell_length_c	14.421503
_cell_angle_alpha	90.003141
_cell_angle_beta	89.999621
_cell_angle_gamma	96.826292
loop_
_atom_site_label
_atom_site_type_symbol
_atom_site_fract_x
_atom_site_fract_y
_atom_site_fract_z
O1	O	0.073442	-1.113910	-0.077025
O2	O	0.082498	-0.869284	-0.077049
O3	O	-0.004933	-0.998974	-0.077019
O4	O	0.160873	-0.984221	-0.077055
O5	O	-0.004920	-0.998953	0.077204
O6	O	0.082511	-0.869263	0.077174
O7	O	0.073455	-1.113889	0.077199
Cu8	Cu	0.077984	-0.991574	0.091268
Cu9	Cu	0.077969	-0.991599	-0.091119
O10	O	0.160886	-0.984199	0.077169
C11	C	0.082128	-0.837983	0.000060
C12	C	0.081001	-0.744746	0.000051
C13	C	-0.026144	-0.998588	0.000095
C14	C	-0.089366	-0.997458	0.000102
N15	N	0.077994	-0.991562	0.219550
C16	C	-0.488199	-1.067121	0.000058
C17	C	-0.547603	-1.066072	0.000051
O18	O	-0.584098	-1.130650	0.000023
N19	N	-0.570528	-0.988971	0.000044
C20	C	-0.534045	-0.912915	0.000035
O21	O	-0.558999	-0.847239	0.000027
C22	C	-0.474642	-0.913965	0.000035
C23	C	-0.451721	-0.991071	0.000052
C24	C	-0.465277	-1.144220	0.000073
C25	C	-0.405877	-1.145269	0.000082
C26	C	-0.369399	-1.069219	0.000076
C27	C	-0.392320	-0.992120	0.000060
C28	C	-0.438160	-0.837910	0.000019
C29	C	-0.378754	-0.838967	0.000019
C30	C	-0.355832	-0.916072	0.000035
C31	C	-0.296442	-0.917118	0.000063
N32	N	-0.273517	-0.994219	0.000070
C33	C	-0.309995	-1.070269	0.000076
C34	C	-0.658796	-0.910716	0.000032
C35	C	-0.718198	-0.909664	0.000038
C36	C	-0.731752	-1.062821	0.000053
C37	C	-0.672349	-1.063872	0.000053
C38	C	-0.635871	-0.987816	0.000039
C39	C	-0.185250	-1.072466	0.000096
C40	C	-0.125844	-1.073508	0.000108
C41	C	-0.112295	-0.920352	0.000089
C42	C	-0.171696	-0.919309	0.000081
C43	C	-0.208173	-0.995373	0.000081
O44	O	-0.259913	-0.852574	0.000087
O45	O	-0.285033	-1.135935	0.000072
C46	C	0.182097	-0.984586	0.000053
C47	C	0.245318	-0.985715	0.000040
C48	C	0.073824	-1.145190	0.000088
C49	C	0.074951	-1.238427	0.000090
C50	C	0.024113	-0.530369	0.000081
C51	C	0.050524	-0.469137	-0.075964
C52	C	0.078962	-0.574038	0.000063
C53	C	0.050550	-0.469138	0.076088
C54	C	0.076989	-0.409142	0.000078
C55	C	0.105388	-0.514034	-0.076046
C56	C	0.105406	-0.514041	0.076075
C57	C	0.131856	-0.452826	0.000010
C58	C	0.080097	-0.669030	0.000053
C59	C	0.075858	-0.314150	0.000081
N60	N	0.077954	-0.991618	-0.219400
C61	C	0.118404	-0.931583	0.469190
C62	C	0.129461	-1.007390	0.530997
C63	C	0.077981	-0.991583	0.408711
C64	C	0.066938	-0.915795	0.530998
C65	C	0.077969	-0.991596	0.591433
C66	C	0.089063	-1.067428	0.469158
C67	C	0.026517	-0.975783	0.469153
C68	C	0.037552	-1.051645	0.530932
C69	C	0.077989	-0.991574	0.303450
C70	C	0.077960	-0.991613	0.696691
H71	H	-0.107185	-1.136300	0.000124
O72	O	0.101501	-1.152352	0.433341
H73	H	0.101431	-1.151669	0.356381
O74	O	0.187093	-1.025125	0.567007
H75	H	0.186411	-1.025574	0.643962
H76	H	0.027320	-0.449231	-0.140246
H77	H	0.027346	-0.449238	0.140377
H78	H	-0.456812	-0.775123	0.000000
H79	H	0.128591	-0.533968	0.140359
O80	O	-0.504615	-1.226255	0.000095
H81	H	-0.496459	-1.263195	-0.062750
O82	O	-0.381162	-1.228437	0.000091
H83	H	-0.333726	-1.216404	0.000099
H84	H	0.177423	-0.419284	-0.000042
H85	H	0.057603	-0.851698	0.558164
O86	O	-0.007737	-1.118928	0.566637
H87	H	0.001564	-1.181741	0.541738
H88	H	0.152617	-0.880895	0.442080
H89	H	-0.653691	-1.126658	0.000066
H90	H	-0.349056	-0.777032	0.000006
O91	O	-0.031105	-0.958040	0.433129
H92	H	-0.040170	-0.895057	0.457850
H93	H	-0.761464	-1.124746	0.000054
O94	O	-0.619452	-0.828680	0.000041
H95	H	-0.645378	-0.774897	0.000048
H96	H	-0.214943	-1.134405	0.000092
H97	H	-0.736855	-0.846878	0.000041
O98	O	-0.196425	-0.836149	0.000067
H99	H	-0.161076	-0.783444	0.000059
O100	O	-0.072946	-0.838327	0.000081
H101	H	-0.027790	-0.852018	0.000079
H102	H	0.128563	-0.533835	-0.140407
H103	H	-0.021407	-0.564086	-0.000003
