data_functionalizedCrystal
_audit_creation_method	'MofGen! by Chris Wilmer'
_symmetry_space_group_name_H-M	'P1'
_symmetry_Int_Tables_number	1
_symmetry_cell_setting	triclinic
loop_
_symmetry_equiv_pos_as_xyz
  x,y,z
_cell_length_a	16.120484
_cell_length_b	19.077105
_cell_length_c	16.120297
_cell_angle_alpha	89.301750
_cell_angle_beta	95.614431
_cell_angle_gamma	89.261477
loop_
_atom_site_label
_atom_site_type_symbol
_atom_site_fract_x
_atom_site_fract_y
_atom_site_fract_z
Zn1	Zn	-0.408728	-1.035311	-0.541298
Zn2	Zn	-0.075394	-0.701978	-0.207964
Zn3	Zn	0.257939	-0.368644	0.125369
Zn4	Zn	-0.541413	-1.035223	-0.408604
Zn5	Zn	-0.208080	-0.701889	-0.075270
Zn6	Zn	0.125254	-0.368556	0.258063
Zn7	Zn	-0.396094	-0.924375	-0.395989
Zn8	Zn	-0.062761	-0.591041	-0.062655
Zn9	Zn	0.270573	-0.257708	0.270678
Zn10	Zn	-0.542259	-0.911827	-0.542147
Zn11	Zn	-0.208925	-0.578494	-0.208814
Zn12	Zn	0.124408	-0.245160	0.124520
O13	O	-0.472123	-0.976684	-0.472009
O14	O	-0.138790	-0.643351	-0.138676
O15	O	0.194543	-0.310017	0.194657
O16	O	-0.431262	-1.133368	-0.528620
O17	O	-0.097929	-0.800035	-0.195286
O18	O	0.235405	-0.466702	0.138047
O19	O	-0.516495	-1.025733	-0.290230
O20	O	-0.183161	-0.692400	0.043104
O21	O	0.150172	-0.359066	0.376437
O22	O	-0.281070	-0.944379	-0.409629
O23	O	0.052263	-0.611045	-0.076296
O24	O	0.385597	-0.277712	0.257038
O25	O	-0.528745	-1.133303	-0.431130
O26	O	-0.195412	-0.799970	-0.097797
O27	O	0.137921	-0.466637	0.235537
O28	O	-0.290352	-1.025883	-0.516387
O29	O	0.042981	-0.692550	-0.183054
O30	O	0.376315	-0.359217	0.150280
O31	O	-0.409729	-0.944293	-0.280961
O32	O	-0.076396	-0.610960	0.052372
O33	O	0.256937	-0.277627	0.385705
O34	O	-0.410550	-0.824641	-0.410453
O35	O	-0.077216	-0.491308	-0.077119
O36	O	0.256117	-0.157975	0.256214
O37	O	-0.530187	-0.922993	-0.658735
O38	O	-0.196853	-0.589660	-0.325402
O39	O	0.136480	-0.256326	0.007931
O40	O	-0.517936	-0.815423	-0.517835
O41	O	-0.184603	-0.482089	-0.184502
O42	O	0.148730	-0.148756	0.148832
O43	O	-0.432082	-1.013716	-0.658111
O44	O	-0.098749	-0.680383	-0.324778
O45	O	0.234585	-0.347050	0.008556
O46	O	-0.658225	-1.013566	-0.431954
O47	O	-0.324891	-0.680233	-0.098620
O48	O	0.008442	-0.346899	0.234713
O49	O	-0.658846	-0.922907	-0.530067
O50	O	-0.325513	-0.589574	-0.196734
O51	O	0.007820	-0.256241	0.136599
C52	C	-0.462964	-0.794604	-0.462868
C53	C	-0.129631	-0.461270	-0.129534
C54	C	0.203702	-0.127937	0.203799
C55	C	-0.459067	-0.716707	-0.458977
C56	C	-0.125734	-0.383374	-0.125644
C57	C	0.207599	-0.050041	0.207689
C58	C	-0.688796	-0.966884	-0.482491
C59	C	-0.355463	-0.633550	-0.149157
C60	C	-0.022130	-0.300217	0.184176
C61	C	-0.781495	-0.962754	-0.487006
C62	C	-0.448161	-0.629421	-0.153672
C63	C	-0.114828	-0.296087	0.179661
C64	C	-0.482638	-0.966965	-0.689528
C65	C	-0.149305	-0.633632	-0.356195
C66	C	0.184029	-0.300298	-0.022862
C67	C	-0.487119	-0.962823	-0.782222
C68	C	-0.153786	-0.629490	-0.448889
C69	C	0.179548	-0.296157	-0.115555
C70	C	-0.951216	-0.955218	-0.495266
C71	C	-0.617883	-0.621884	-0.161933
C72	C	-0.284549	-0.288551	0.171400
C73	C	-0.992197	-0.998275	-0.448772
C74	C	-0.658863	-0.664942	-0.115439
C75	C	-0.325530	-0.331608	0.217895
C76	C	-1.086636	-0.994082	-0.453368
C77	C	-0.753302	-0.660749	-0.120035
C78	C	-0.419969	-0.327415	0.213298
C79	C	-0.856769	-0.959410	-0.490671
C80	C	-0.523435	-0.626077	-0.157338
C81	C	-0.190102	-0.292743	0.175995
C82	C	-0.254606	-0.986541	-0.461506
C83	C	0.078727	-0.653207	-0.128173
C84	C	0.412061	-0.319874	0.205161
C85	C	-0.161913	-0.990741	-0.457030
C86	C	0.171420	-0.657408	-0.123697
C87	C	0.504754	-0.324074	0.209636
C88	C	-0.481318	-1.159475	-0.481187
C89	C	-0.147985	-0.826142	-0.147854
C90	C	0.185348	-0.492808	0.185480
C91	C	-0.485237	-1.237370	-0.485098
C92	C	-0.151904	-0.904036	-0.151765
C93	C	0.181430	-0.570703	0.181568
C94	C	-0.513223	-0.675330	-0.512978
C95	C	-0.179890	-0.341997	-0.179645
C96	C	0.153443	-0.008663	0.153689
C97	C	-0.509551	-0.602138	-0.509326
C98	C	-0.176217	-0.268805	-0.175993
C99	C	0.157116	0.064528	0.157340
C100	C	-0.451726	-0.570325	-0.451670
C101	C	-0.118392	-0.236992	-0.118336
C102	C	0.214941	0.096341	0.214997
C103	C	-0.397564	-0.611708	-0.397667
C104	C	-0.064231	-0.278374	-0.064333
C105	C	0.269103	0.054959	0.269000
C106	C	-0.401233	-0.684898	-0.401323
C107	C	-0.067900	-0.351565	-0.067990
C108	C	0.265434	-0.018231	0.265344
C109	C	-0.434744	-0.351943	-0.434752
C110	C	-0.101411	-0.018609	-0.101418
C111	C	0.231922	0.314724	0.231915
C112	C	-0.431081	-0.278747	-0.431098
C113	C	-0.097748	0.054587	-0.097764
C114	C	0.235586	0.387920	0.235569
C115	C	-0.543067	-0.269182	-0.542759
C116	C	-0.209734	0.064151	-0.209426
C117	C	0.123599	0.397484	0.123908
C118	C	-0.546735	-0.342375	-0.546407
C119	C	-0.213401	-0.009041	-0.213073
C120	C	0.119932	0.324292	0.120260
C121	C	-0.492570	-0.383751	-0.492407
C122	C	-0.159237	-0.050417	-0.159074
C123	C	0.174097	0.282916	0.174260
N124	N	-0.447972	-0.495512	-0.447934
N125	N	-0.114639	-0.162178	-0.114600
N126	N	0.218695	0.171155	0.218733
N127	N	-0.496320	-0.458563	-0.496147
N128	N	-0.162987	-0.125230	-0.162814
N129	N	0.170346	0.208104	0.170519
C130	C	-0.495280	-0.955237	-0.951932
C131	C	-0.161946	-0.621903	-0.618599
C132	C	0.171387	-0.288570	-0.285266
C133	C	-0.448724	-0.998280	-0.992933
C134	C	-0.115391	-0.664947	-0.659599
C135	C	0.217943	-0.331614	-0.326266
C136	C	-0.453265	-0.994059	-1.087365
C137	C	-0.119931	-0.660726	-0.754032
C138	C	0.213402	-0.327392	-0.420699
C139	C	-0.490740	-0.959457	-0.857491
C140	C	-0.157407	-0.626124	-0.524158
C141	C	0.175927	-0.292790	-0.190825
C142	C	-0.461591	-0.986408	-0.255335
C143	C	-0.128258	-0.653075	0.077998
C144	C	0.205075	-0.319741	0.411331
C145	C	-0.456882	-0.990696	-0.162638
C146	C	-0.123549	-0.657363	0.170696
C147	C	0.209784	-0.324029	0.504029
H148	H	-0.956355	-1.038287	-0.405515
H149	H	-0.623022	-0.704953	-0.072181
H150	H	-0.289689	-0.371620	0.261152
H151	H	-0.987055	-0.915208	-0.538519
H152	H	-0.653722	-0.581875	-0.205186
H153	H	-0.320388	-0.248542	0.128147
H154	H	-0.538545	-0.915220	-0.987750
H155	H	-0.205212	-0.581886	-0.654416
H156	H	0.128122	-0.248553	-0.321083
C157	C	-0.341659	-0.730413	-0.341916
C158	C	-0.008325	-0.397080	-0.008583
C159	C	0.325008	-0.063746	0.324751
N160	N	-0.296784	-0.764694	-0.297170
N161	N	0.036549	-0.431361	0.036163
N162	N	0.369883	-0.098027	0.369497
C163	C	-0.375166	-0.397447	-0.375344
C164	C	-0.041833	-0.064114	-0.042011
C165	C	0.291501	0.269220	0.291322
N166	N	-0.330290	-0.431724	-0.330595
N167	N	0.003043	-0.098390	0.002739
N168	N	0.336376	0.234943	0.336072
C169	C	-0.390277	-1.052353	-0.944544
C170	C	-0.056944	-0.719019	-0.611211
C171	C	0.276389	-0.385686	-0.277878
N172	N	-0.346261	-1.093081	-0.908095
N173	N	-0.012928	-0.759748	-0.574762
N174	N	0.320406	-0.426414	-0.241428
H175	H	-0.560313	-0.701227	-0.559926
H176	H	-0.226980	-0.367893	-0.226593
H177	H	0.106353	-0.034560	0.106741
H178	H	-0.593824	-0.368271	-0.593355
H179	H	-0.260490	-0.034938	-0.260022
H180	H	0.072843	0.298395	0.073311
C181	C	-0.569142	-0.556627	-0.568716
C182	C	-0.235809	-0.223293	-0.235383
C183	C	0.097524	0.110040	0.097950
N184	N	-0.614034	-0.522347	-0.613447
N185	N	-0.280701	-0.189014	-0.280114
N186	N	0.052632	0.144319	0.053220
H187	H	-0.587164	-0.235486	-0.586724
H188	H	-0.253830	0.097847	-0.253390
H189	H	0.079503	0.431180	0.079943
H190	H	-0.383983	-0.252847	-0.384151
H191	H	-0.050650	0.080486	-0.050818
H192	H	0.282683	0.413819	0.282516
C193	C	-0.333953	-0.576711	-0.334245
C194	C	-0.000620	-0.243377	-0.000912
C195	C	0.332713	0.089956	0.332422
N196	N	-0.286043	-0.550352	-0.286473
N197	N	0.047291	-0.217018	0.046860
N198	N	0.380624	0.116315	0.380194
