data_functionalizedCrystal
_audit_creation_method	'MofGen! by Chris Wilmer'
_symmetry_space_group_name_H-M	'P1'
_symmetry_Int_Tables_number	1
_symmetry_cell_setting	triclinic
loop_
_symmetry_equiv_pos_as_xyz
  x,y,z
_cell_length_a	10.723024
_cell_length_b	11.792241
_cell_length_c	9.798715
_cell_angle_alpha	89.996704
_cell_angle_beta	89.996609
_cell_angle_gamma	84.330643
loop_
_atom_site_label
_atom_site_type_symbol
_atom_site_fract_x
_atom_site_fract_y
_atom_site_fract_z
O1	O	1.656766	0.159192	-0.113483
O2	O	1.293573	0.174430	-0.113488
O3	O	1.483983	0.001660	-0.113475
O4	O	1.466356	0.331962	-0.113495
O5	O	1.483969	0.001659	0.113507
O6	O	1.293559	0.174430	0.113495
O7	O	1.656752	0.159192	0.113499
Zn8	Zn	1.475153	0.166811	0.149535
Zn9	Zn	1.475172	0.166811	-0.149523
O10	O	1.466342	0.331962	0.113487
C11	C	1.247070	0.173321	0.000003
C12	C	1.108524	0.170003	0.000001
C13	C	1.482869	-0.040634	0.000015
C14	C	1.479555	-0.166655	0.000014
C15	C	1.033286	0.266676	-0.000005
C16	C	0.890091	0.263249	-0.000007
C17	C	1.473461	-0.397380	-0.000009
C18	C	1.476847	-0.268988	0.000003
C19	C	1.703256	0.160301	0.000006
C20	C	1.841801	0.163619	-0.000002
C21	C	1.467456	0.374255	-0.000006
C22	C	1.470770	0.500276	-0.000014
N23	N	1.475150	0.166809	0.353635
N24	N	1.475186	0.166803	-0.353623
C25	C	1.555098	0.093948	0.421417
C26	C	1.555118	0.093944	0.578580
H27	H	1.074882	0.351978	-0.000002
C28	C	1.382680	0.251064	0.432403
H29	H	1.332507	0.296767	0.369497
H30	H	1.428079	0.298517	0.488147
H31	H	1.330378	0.209876	0.488143
H32	H	1.406739	0.229190	0.588096
C33	C	0.802767	0.375059	-0.000020
H34	H	0.851640	0.438010	-0.000034
H35	H	0.751388	0.378081	0.079128
H36	H	0.751410	0.378074	-0.079189
C37	C	0.929118	0.051805	-0.000001
H38	H	0.880245	-0.011146	-0.000009
H39	H	0.980487	0.048782	0.079149
H40	H	0.980484	0.048790	-0.079168
C41	C	1.647546	0.009679	0.342643
H42	H	1.635409	0.020741	0.247346
H43	H	1.633274	-0.066149	0.366002
H44	H	1.730999	0.022471	0.365972
C45	C	1.647585	0.009670	0.657315
H46	H	1.635462	0.020717	0.752616
H47	H	1.731029	0.022449	0.633947
H48	H	1.633292	-0.066160	0.633971
H49	H	1.066928	0.084701	-0.000028
