data_functionalizedCrystal
_audit_creation_method	'MofGen! by Chris Wilmer'
_symmetry_space_group_name_H-M	'P1'
_symmetry_Int_Tables_number	1
_symmetry_cell_setting	triclinic
loop_
_symmetry_equiv_pos_as_xyz
  x,y,z
_cell_length_a	16.109296
_cell_length_b	22.010155
_cell_length_c	16.109301
_cell_angle_alpha	89.997171
_cell_angle_beta	96.539615
_cell_angle_gamma	89.993566
loop_
_atom_site_label
_atom_site_type_symbol
_atom_site_fract_x
_atom_site_fract_y
_atom_site_fract_z
O1	O	-1.103141	0.050498	0.106834
O2	O	-0.861078	0.050506	0.120138
O3	O	-0.988759	0.050496	-0.007545
O4	O	-0.975460	0.050509	0.234517
O5	O	-0.988736	-0.050554	-0.007526
O6	O	-0.861055	-0.050544	0.120157
O7	O	-1.103118	-0.050552	0.106853
Cu8	Cu	-0.982084	-0.059775	0.113507
Cu9	Cu	-0.982112	0.059729	0.113485
O10	O	-0.975437	-0.050542	0.234537
C11	C	-0.830092	-0.000018	0.119610
C12	C	-0.737796	-0.000015	0.117996
N13	N	-0.982071	-0.143827	0.113523
C14	C	-0.428797	-0.000024	0.188486
C15	C	-0.515517	-0.000020	0.190009
C16	C	-0.535391	-0.000019	0.038520
C17	C	-0.448672	-0.000019	0.036998
C18	C	-0.395377	-0.000024	0.111983
C19	C	-0.568816	-0.000021	0.115029
C20	C	-0.662842	-0.000016	0.116681
C21	C	-0.301345	-0.000027	0.110332
C22	C	-1.038652	-0.563611	0.056955
C23	C	-1.038656	-0.627219	0.056949
O24	O	-1.086730	-0.660114	0.008863
N25	N	-0.982111	-0.659034	0.113467
C26	C	-0.925553	-0.627239	0.169989
O27	O	-0.877457	-0.660141	0.218062
C28	C	-0.925546	-0.563633	0.169990
C29	C	-0.982100	-0.531820	0.113474
C30	C	-1.095201	-0.531799	0.000442
C31	C	-1.095198	-0.468196	0.000449
C32	C	-1.038646	-0.436405	0.056968
C33	C	-0.982097	-0.468217	0.113481
C34	C	-0.868985	-0.531838	0.226508
C35	C	-0.868982	-0.468228	0.226504
C36	C	-0.925536	-0.436415	0.169987
C37	C	-0.925542	-0.372823	0.170007
N38	N	-0.982087	-0.341007	0.113489
C39	C	-1.038639	-0.372798	0.056970
C40	C	-0.925571	-0.760817	0.169982
C41	C	-0.925582	-0.824422	0.169985
C42	C	-1.038684	-0.824397	0.056944
C43	C	-1.038677	-0.760791	0.056945
C44	C	-0.982116	-0.729001	0.113463
C45	C	-1.038629	-0.239227	0.056989
C46	C	-1.038623	-0.175618	0.057003
C47	C	-0.925518	-0.175648	0.170042
C48	C	-0.925527	-0.239252	0.170031
C49	C	-0.982085	-0.271039	0.113497
O50	O	-0.877490	-0.339887	0.218066
O51	O	-1.086719	-0.339888	0.008898
C52	C	-0.134103	-0.000027	0.107387
C53	C	-0.226397	-0.000029	0.109016
C54	C	-0.988209	-0.000030	-0.038510
C55	C	-0.986594	-0.000030	-0.130805
N56	N	-0.982131	0.143781	0.113463
C57	C	-1.058602	-0.000023	-0.353079
C58	C	-1.057078	-0.000018	-0.439799
C59	C	-0.905588	-0.000016	-0.419922
C60	C	-0.907113	-0.000016	-0.333204
C61	C	-0.983622	-0.000023	-0.299785
C62	C	-0.980573	-0.000017	-0.473224
C63	C	-0.978920	-0.000012	-0.567250
C64	C	-0.985276	-0.000027	-0.205753
C65	C	-0.975987	-0.000015	0.265502
C66	C	-0.977602	-0.000010	0.357797
H67	H	-0.385406	-0.000027	0.249544
H68	H	-0.578794	-0.000017	-0.022530
O69	O	-0.416341	-0.000047	-0.037395
C70	C	-0.481974	-0.000032	-0.103252
H71	H	-0.540875	-0.019165	-0.079965
H72	H	-0.494260	0.048447	-0.126383
C73	C	-0.385160	-0.016160	-0.204005
C74	C	-0.457502	-0.039664	-0.175405
H75	H	-0.370065	-0.040604	-0.248514
H76	H	-0.340941	-0.016167	-0.159637
H77	H	-0.395409	0.024239	-0.223275
H78	H	-0.447250	-0.080059	-0.156126
H79	H	-0.501719	-0.039664	-0.219772
O80	O	-0.548120	0.000013	0.264252
C81	C	-0.636088	0.000005	0.249522
H82	H	-0.656474	0.019131	0.184630
H83	H	-0.660226	-0.048471	0.253558
C84	C	-0.646999	0.016154	0.395339
C85	C	-0.672037	0.039649	0.315640
H86	H	-0.669175	0.040605	0.436125
H87	H	-0.587733	0.016157	0.405264
H88	H	-0.667115	-0.024243	0.398691
H89	H	-0.651912	0.080042	0.312286
H90	H	-0.731301	0.039653	0.305716
H91	H	-0.879483	-0.265154	0.216059
O92	O	-1.093592	-0.144811	0.002018
C93	C	-1.143516	-0.186515	-0.047854
H94	H	-1.109430	-0.231858	-0.048805
H95	H	-1.205267	-0.193277	-0.020841
C96	C	-1.202546	-0.105993	-0.136373
C97	C	-1.160678	-0.161683	-0.137546
H98	H	-1.213136	-0.090676	-0.191698
H99	H	-1.168913	-0.077896	-0.102772
H100	H	-1.254000	-0.111636	-0.113858
H101	H	-1.109221	-0.156039	-0.160051
H102	H	-1.194302	-0.189780	-0.171154
O103	O	-1.093582	-0.855218	0.001920
C104	C	-1.080076	-0.839686	-0.080387
H105	H	-1.048034	-0.793505	-0.080294
H106	H	-1.038698	-0.875487	-0.106106
C107	C	-1.203860	-0.893463	-0.135793
C108	C	-1.164511	-0.836740	-0.135680
H109	H	-1.255942	-0.891648	-0.169902
H110	H	-1.212958	-0.903929	-0.080342
H111	H	-1.169369	-0.923291	-0.157223
H112	H	-1.198997	-0.806916	-0.114240
H113	H	-1.155421	-0.826269	-0.191129
H114	H	-0.843297	-0.000011	-0.447143
H115	H	-1.084683	-0.265101	0.010953
O116	O	-1.150005	-0.437186	-0.054449
C117	C	-1.201295	-0.400254	-0.010111
H118	H	-1.203019	-0.419417	0.055415
H119	H	-1.175064	-0.352113	-0.005643
C120	C	-1.288311	-0.375521	-0.136712
C121	C	-1.290434	-0.399061	-0.056234
H122	H	-1.343295	-0.374782	-0.165164
H123	H	-1.253754	-0.400401	-0.166584
H124	H	-1.266448	-0.335406	-0.132977
H125	H	-1.312287	-0.439178	-0.059970
H126	H	-1.324997	-0.374188	-0.026363
H127	H	-1.141252	-0.557677	-0.045587
H128	H	-1.084727	-0.734893	0.010924
O129	O	-0.814008	-0.437442	0.281490
C130	C	-0.764085	-0.479166	0.331352
H131	H	-0.798175	-0.524502	0.332295
H132	H	-0.702337	-0.485935	0.304334
C133	C	-0.705044	-0.398672	0.419885
C134	C	-0.746917	-0.454354	0.421049
H135	H	-0.694450	-0.383366	0.475214
H136	H	-0.738675	-0.370562	0.386291
H137	H	-0.653592	-0.404321	0.397366
H138	H	-0.798372	-0.448703	0.443558
H139	H	-0.713294	-0.482463	0.454649
O140	O	-0.814007	-0.562796	0.281291
C141	C	-0.762718	-0.599577	0.236745
H142	H	-0.795859	-0.609109	0.171702
H143	H	-0.701285	-0.575061	0.231064
C144	C	-0.704207	-0.648286	0.363511
C145	C	-0.744915	-0.659998	0.283626
H146	H	-0.693221	-0.685556	0.392430
H147	H	-0.738759	-0.623505	0.393523
H148	H	-0.653017	-0.627855	0.358765
H149	H	-0.796108	-0.680422	0.288373
H150	H	-0.710371	-0.684784	0.253615
O151	O	-0.870698	-0.144692	0.224974
C152	C	-0.915198	-0.107906	0.276296
H153	H	-0.980268	-0.098375	0.243209
H154	H	-0.920816	-0.132417	0.337751
C155	C	-0.788401	-0.059196	0.334674
C156	C	-0.868318	-0.047485	0.294033
H157	H	-0.759482	-0.021926	0.345619
H158	H	-0.758419	-0.083981	0.300100
H159	H	-0.793093	-0.079623	0.385882
H160	H	-0.863625	-0.027065	0.242822
H161	H	-0.898298	-0.022695	0.328599
H162	H	-0.846052	-0.000014	-0.289808
H163	H	-1.118133	-0.000017	-0.483189
H164	H	-0.879539	-0.850319	0.216015
H165	H	-1.120900	-0.000027	-0.325873
H166	H	-0.879515	-0.734937	0.216013
