data_functionalizedCrystal
_audit_creation_method	'MofGen! by Chris Wilmer'
_symmetry_space_group_name_H-M	'P1'
_symmetry_Int_Tables_number	1
_symmetry_cell_setting	triclinic
loop_
_symmetry_equiv_pos_as_xyz
  x,y,z
_cell_length_a	15.297475
_cell_length_b	25.639239
_cell_length_c	15.296720
_cell_angle_alpha	99.638856
_cell_angle_beta	91.617114
_cell_angle_gamma	80.340538
loop_
_atom_site_label
_atom_site_type_symbol
_atom_site_fract_x
_atom_site_fract_y
_atom_site_fract_z
Zn1	Zn	1.253213	-0.406888	-0.726521
Zn2	Zn	1.278441	-0.482170	-0.580022
Zn3	Zn	1.132104	-0.377518	-0.554767
Zn4	Zn	1.106670	-0.477031	-0.701152
O5	O	1.192607	-0.435902	-0.640616
O6	O	1.379131	-0.431317	-0.728274
O7	O	1.280232	-0.458147	-0.454100
O8	O	1.148256	-0.308262	-0.577599
O9	O	1.397666	-0.486626	-0.620642
O10	O	1.237234	-0.329841	-0.703785
O11	O	1.172719	-0.381260	-0.435545
O12	O	1.006159	-0.376276	-0.552999
O13	O	1.104906	-0.477867	-0.827090
O14	O	0.987472	-0.449388	-0.660547
O15	O	1.212571	-0.426334	-0.845728
O16	O	1.255568	-0.554640	-0.596043
O17	O	1.129369	-0.550864	-0.685036
C18	C	0.965034	-0.409088	-0.601280
C19	C	0.867674	-0.397631	-0.584473
C20	C	0.554472	-0.517789	-0.760740
C21	C	0.645948	-0.528557	-0.776529
C22	C	0.701384	-0.495826	-0.728517
C23	C	0.665336	-0.452326	-0.664713
C24	C	0.573852	-0.441560	-0.648918
C25	C	0.720763	-0.419597	-0.616694
C26	C	0.684715	-0.376097	-0.552890
C27	C	0.593241	-0.365332	-0.537098
C28	C	0.537805	-0.398063	-0.585110
C29	C	0.812247	-0.430363	-0.632489
C30	C	0.831627	-0.354134	-0.520666
C31	C	0.740151	-0.343366	-0.504877
C32	C	1.192467	-0.571724	-0.640550
C33	C	1.192482	-0.629841	-0.640565
C34	C	1.258449	-0.992200	-0.594398
C35	C	1.258481	-1.046809	-0.594415
O36	O	1.314423	-1.076721	-0.555091
N37	N	1.192751	-1.072164	-0.640700
C38	C	1.126990	-1.042907	-0.686978
O39	O	1.071085	-1.069488	-0.726350
C40	C	1.126963	-0.988300	-0.686965
C41	C	1.192692	-0.962947	-0.640670
C42	C	1.324173	-0.966847	-0.548107
C43	C	1.324140	-0.912241	-0.548088
C44	C	1.258383	-0.882988	-0.594360
C45	C	1.192658	-0.908341	-0.640651
C46	C	1.061206	-0.959045	-0.733248
C47	C	1.061185	-0.904435	-0.733232
C48	C	1.126914	-0.879082	-0.686936
C49	C	1.126868	-0.824483	-0.686905
N50	N	1.192598	-0.799128	-0.640619
C51	C	1.258355	-0.828381	-0.594347
C52	C	1.127054	-1.157587	-0.687003
C53	C	1.127077	-1.212192	-0.687011
C54	C	1.258569	-1.216091	-0.594449
C55	C	1.258541	-1.161483	-0.594437
C56	C	1.192784	-1.132232	-0.640718
C57	C	1.258280	-0.713705	-0.594311
C58	C	1.258239	-0.659094	-0.594293
C59	C	1.126750	-0.655201	-0.686858
C60	C	1.126788	-0.709806	-0.686873
C61	C	1.192561	-0.739058	-0.640597
O62	O	1.070956	-0.794537	-0.726211
O63	O	1.314257	-0.801795	-0.554992
C64	C	1.421068	-0.462821	-0.680105
C65	C	1.518425	-0.474292	-0.696933
C66	C	1.153088	-0.454803	-0.869079
C67	C	1.136247	-0.462858	-0.966437
C68	C	1.192768	-0.299554	-0.640705
C69	C	1.192837	-0.241450	-0.640743
C70	C	1.313004	-0.378246	-1.279690
C71	C	1.328832	-0.370679	-1.188219
C72	C	1.280687	-0.393723	-1.132769
C73	C	1.216711	-0.424335	-1.168799
C74	C	1.200886	-0.431905	-1.260281
C75	C	1.168569	-0.447383	-1.113359
C76	C	1.104593	-0.477995	-1.149390
C77	C	1.088771	-0.485564	-1.240862
C78	C	1.136916	-0.462520	-1.296312
C79	C	1.184394	-0.439812	-1.021878
C80	C	1.072276	-0.493472	-1.002468
C81	C	1.056448	-0.501039	-1.093940
C82	C	1.232023	-0.417042	-0.413049
C83	C	1.249034	-0.408860	-0.315722
H84	H	0.710788	-0.307948	-0.452927
H85	H	0.775866	-0.504596	-0.741376
N86	N	0.684814	-0.575469	-0.845350
H87	H	0.715763	-0.562093	-0.892564
H88	H	0.728869	-0.601162	-0.816161
N89	N	0.990308	-0.986380	-0.783176
H90	H	0.948656	-0.959556	-0.812485
H91	H	1.018920	-1.016558	-0.829907
H92	H	1.004358	-0.525963	-1.123289
H93	H	1.311840	-0.737515	-0.556631
H94	H	1.293579	-0.387561	-1.058289
H95	H	1.007637	-0.880621	-0.770923
H96	H	1.380924	-0.345757	-1.158890
N97	N	1.055830	-0.623639	-0.736758
H98	H	1.084364	-0.608501	-0.783513
H99	H	1.014212	-0.648009	-0.766034
H100	H	1.312114	-1.239919	-0.556776
N101	N	1.055890	-0.737153	-0.736792
H102	H	1.014226	-0.710333	-0.766100
H103	H	1.084509	-0.767328	-0.783525
H104	H	0.509330	-0.544436	-0.799820
H105	H	1.033074	-0.512238	-0.957321
H106	H	1.073547	-1.232828	-0.724700
N107	N	1.019772	-0.518582	-1.279724
H108	H	1.017055	-0.519882	-1.346087
H109	H	1.036126	-0.556199	-1.266063
N110	N	0.439142	-0.386454	-0.568067
H111	H	0.409498	-0.413791	-0.608163
H112	H	0.427574	-0.388433	-0.504124
H113	H	1.352202	-0.359490	-1.324846
N114	N	1.395096	-0.998389	-0.498181
H115	H	1.385152	-1.036832	-0.505201
H116	H	1.455270	-0.997300	-0.522668
N117	N	0.891407	-0.318830	-0.468871
H118	H	0.954827	-0.332249	-0.488560
H119	H	0.873077	-0.280761	-0.479862
H120	H	1.312064	-1.140844	-0.556739
H121	H	0.841588	-0.465781	-0.684439
N122	N	1.119819	-0.470665	-1.394969
H123	H	1.160017	-0.451414	-1.424623
H124	H	1.132039	-0.510251	-1.419713
N125	N	0.554359	-0.318421	-0.468271
H126	H	0.603355	-0.299319	-0.440252
H127	H	0.510251	-0.292751	-0.497451
N128	N	1.395044	-0.884903	-0.498170
H129	H	1.436704	-0.911728	-0.468870
H130	H	1.429362	-0.869942	-0.540862
N131	N	1.253396	-0.406801	-0.983024
H132	H	1.224404	-0.375240	-0.938930
H133	H	1.300501	-0.429733	-0.952124
N134	N	1.329137	-0.631749	-0.544361
H135	H	1.370800	-0.658571	-0.515056
H136	H	1.363455	-0.616783	-0.587045
N137	N	1.056119	-1.126038	-0.736916
H138	H	1.014488	-1.150389	-0.766234
H139	H	1.021773	-1.095690	-0.694220
