data_functionalizedCrystal
_audit_creation_method	'MofGen! by Chris Wilmer'
_symmetry_space_group_name_H-M	'P1'
_symmetry_Int_Tables_number	1
_symmetry_cell_setting	triclinic
loop_
_symmetry_equiv_pos_as_xyz
  x,y,z
_cell_length_a	15.537862
_cell_length_b	15.625429
_cell_length_c	14.750779
_cell_angle_alpha	59.907167
_cell_angle_beta	97.573514
_cell_angle_gamma	66.734075
loop_
_atom_site_label
_atom_site_type_symbol
_atom_site_fract_x
_atom_site_fract_y
_atom_site_fract_z
O1	O	1.255986	-0.300989	0.024983
O2	O	0.971384	-0.183466	-0.015934
O3	O	1.134442	-0.393129	0.057051
O4	O	1.092927	-0.091326	-0.048002
O5	O	1.180537	-0.452393	0.237332
O6	O	1.017478	-0.242730	0.164347
O7	O	1.302080	-0.360253	0.205264
Zn8	Zn	1.167098	-0.310901	0.213429
Zn9	Zn	1.106366	-0.232818	-0.024099
O10	O	1.139022	-0.150591	0.132279
C11	C	0.958253	-0.200801	0.069925
C12	C	0.850454	-0.164174	0.057172
C13	C	0.678778	-0.015709	0.005490
C14	C	0.780074	-0.050138	0.017477
C15	C	0.819561	-0.243828	0.084902
C16	C	0.718268	-0.209418	0.072926
C17	C	0.647884	-0.095356	0.033219
C18	C	0.687374	-0.289065	0.100655
C19	C	0.586088	-0.254655	0.088674
C20	C	0.515697	-0.140597	0.048965
C21	C	0.546598	-0.060946	0.021238
C22	C	0.757758	-0.403123	0.140354
C23	C	0.726863	-0.482770	0.168083
C24	C	0.625578	-0.448363	0.156110
C25	C	0.555187	-0.334306	0.116401
C26	C	0.594677	-0.528014	0.183837
C27	C	0.493392	-0.493604	0.171856
C28	C	0.453902	-0.299895	0.104420
C29	C	1.160180	-0.460442	0.160306
C30	C	1.168186	-0.572717	0.199380
C31	C	1.068869	-0.780455	-0.163426
C32	C	1.076396	-0.885963	-0.126676
C33	C	1.126645	-0.950555	0.069853
C34	C	1.119127	-0.845053	0.033121
C35	C	1.090238	-0.760009	-0.083520
C36	C	1.140496	-0.824607	0.113027
C37	C	1.132973	-0.719111	0.076296
C38	C	1.104082	-0.634061	-0.040341
C39	C	1.082715	-0.654513	-0.120251
C40	C	1.169378	-0.909649	0.229666
C41	C	1.190746	-0.889203	0.309571
C42	C	1.183231	-0.783709	0.272842
C43	C	1.154340	-0.698659	0.156206
C44	C	1.204598	-0.763257	0.352752
C45	C	1.197076	-0.657761	0.316021
C46	C	1.146818	-0.593163	0.119475
C47	C	1.315211	-0.342917	0.119402
C48	C	1.423007	-0.379543	0.132148
C49	C	1.113283	-0.083276	0.029022
C50	C	1.105275	0.029001	-0.010060
N51	N	1.208552	-0.364194	0.375536
N52	N	1.064920	-0.179536	-0.186202
C53	C	0.949147	-0.030741	0.611277
C54	C	0.978202	-0.068081	0.724775
C55	C	1.122614	-0.253697	0.789351
C56	C	1.093568	-0.216374	0.675858
C57	C	1.006834	-0.104895	0.586828
C58	C	1.151255	-0.290528	0.651409
C59	C	1.122214	-0.253206	0.537924
C60	C	1.035486	-0.141730	0.448889
C61	C	0.977793	-0.067573	0.473344
C62	C	1.237992	-0.402004	0.740439
C63	C	1.295679	-0.476157	0.715990
C64	C	1.266634	-0.438839	0.602505
C65	C	1.179906	-0.327363	0.513469
C66	C	1.324326	-0.512996	0.578050
C67	C	1.295285	-0.475674	0.464565
C68	C	1.150865	-0.290041	0.399985
H69	H	0.876880	-0.336696	0.117228
H70	H	1.228110	-0.832509	0.447720
H71	H	0.840224	-0.431129	0.150087
H72	H	0.878514	0.060032	0.538785
Br73	Br	1.043527	-0.539096	-0.278548
H74	H	0.433224	-0.112581	0.039207
H75	H	0.489290	0.031929	-0.011081
H76	H	0.621470	0.077166	-0.026829
H77	H	0.784182	-0.575638	0.200409
H78	H	0.805224	0.014725	-0.005093
Br79	Br	1.240324	-0.404983	0.910180
H80	H	1.214455	-0.641106	0.381085
Br81	Br	0.690204	-0.682800	0.237707
H82	H	0.468238	-0.558460	0.194434
H83	H	1.342262	-0.536057	0.444661
H84	H	1.123302	-0.523918	0.024496
H85	H	1.261636	-0.432385	0.832842
Br86	Br	1.093873	-0.490885	-0.090195
H87	H	1.366301	-0.566923	0.788489
Br88	Br	1.029681	-0.665038	-0.321723
Br89	Br	1.047382	-0.913700	-0.235135
Br90	Br	1.033141	-0.138753	0.279156
Br91	Br	0.899904	0.032577	0.757942
H92	H	1.150163	-1.019809	0.164822
H93	H	1.011844	-0.111341	0.356483
Br94	Br	1.179581	-1.052821	0.279515
H95	H	1.394951	-0.603759	0.650549
Br96	Br	0.358378	-0.145105	0.050558
Br97	Br	1.229940	-1.004620	0.467863
H98	H	0.907160	0.023200	0.400852
