data_functionalizedCrystal
_audit_creation_method	'MofGen! by Chris Wilmer'
_symmetry_space_group_name_H-M	'P1'
_symmetry_Int_Tables_number	1
_symmetry_cell_setting	triclinic
loop_
_symmetry_equiv_pos_as_xyz
  x,y,z
_cell_length_a	17.699103
_cell_length_b	17.699083
_cell_length_c	16.176319
_cell_angle_alpha	90.001389
_cell_angle_beta	89.988235
_cell_angle_gamma	96.712962
loop_
_atom_site_label
_atom_site_type_symbol
_atom_site_fract_x
_atom_site_fract_y
_atom_site_fract_z
O1	O	0.095712	-1.004086	-0.068640
O2	O	0.429046	-0.670752	0.264694
O3	O	0.762379	-0.337419	0.598027
O4	O	0.108165	-0.783708	-0.068668
O5	O	0.441498	-0.450375	0.264665
O6	O	0.774831	-0.117041	0.597999
O7	O	-0.008250	-0.900115	-0.068637
O8	O	0.325084	-0.566782	0.264696
O9	O	0.658417	-0.233449	0.598029
O10	O	0.212127	-0.887678	-0.068670
O11	O	0.545460	-0.554345	0.264663
O12	O	0.878793	-0.221012	0.597996
O13	O	-0.008257	-0.900099	0.068856
O14	O	0.325076	-0.566766	0.402189
O15	O	0.658409	-0.233433	0.735523
O16	O	0.108157	-0.783692	0.068825
O17	O	0.441490	-0.450359	0.402159
O18	O	0.774824	-0.117025	0.735492
O19	O	0.095705	-1.004070	0.068853
O20	O	0.429038	-0.670736	0.402187
O21	O	0.762371	-0.337403	0.735520
Cu22	Cu	0.101930	-0.893879	0.081394
Cu23	Cu	0.435264	-0.560546	0.414727
Cu24	Cu	0.768597	-0.227213	0.748060
Cu25	Cu	0.101939	-0.893898	-0.081208
Cu26	Cu	0.435272	-0.560565	0.252125
Cu27	Cu	0.768606	-0.227232	0.585459
O28	O	0.212119	-0.887662	0.068823
O29	O	0.545452	-0.554329	0.402156
O30	O	0.878786	-0.220996	0.735489
C31	C	0.107715	-0.755503	0.000075
C32	C	0.441048	-0.422170	0.333409
C33	C	0.774381	-0.088836	0.666742
C34	C	0.106376	-0.671485	0.000065
C35	C	0.439709	-0.338152	0.333398
C36	C	0.773043	-0.004818	0.666732
C37	C	-0.036450	-0.899659	0.000112
C38	C	0.296883	-0.566326	0.333445
C39	C	0.630216	-0.232992	0.666778
C40	C	-0.120468	-0.898315	0.000118
C41	C	0.212866	-0.564981	0.333452
C42	C	0.546199	-0.231648	0.666785
C43	C	0.096155	-1.032275	0.000108
C44	C	0.429488	-0.698941	0.333442
C45	C	0.762821	-0.365608	0.666775
C46	C	0.097493	-1.116293	0.000113
C47	C	0.430827	-0.782959	0.333446
C48	C	0.764160	-0.449626	0.666780
C49	C	-0.636175	-0.890099	-0.074884
C50	C	-0.302842	-0.556766	0.258449
C51	C	0.030492	-0.223432	0.591782
C52	C	-0.557232	-0.891361	-0.074877
C53	C	-0.223898	-0.558028	0.258456
C54	C	0.109435	-0.224695	0.591790
C55	C	-0.517777	-0.891982	0.000076
C56	C	-0.184444	-0.558649	0.333409
C57	C	0.148889	-0.225316	0.666742
C58	C	-0.557271	-0.891349	0.075026
C59	C	-0.223938	-0.558015	0.408359
C60	C	0.109395	-0.224682	0.741692
C61	C	-0.636214	-0.890092	0.075017
C62	C	-0.302881	-0.556758	0.408351
C63	C	0.030453	-0.223425	0.741684
C64	C	-0.238905	-0.896418	0.075061
C65	C	0.094428	-0.563085	0.408394
C66	C	0.427762	-0.229752	0.741728
C67	C	-0.159956	-0.897673	0.075063
C68	C	0.173377	-0.564340	0.408397
C69	C	0.506710	-0.231006	0.741730
C70	C	-0.159923	-0.897688	-0.074833
C71	C	0.173411	-0.564355	0.258500
C72	C	0.506744	-0.231021	0.591833
C73	C	-0.238865	-0.896431	-0.074842
C74	C	0.094468	-0.563098	0.258492
C75	C	0.427801	-0.229765	0.591825
C76	C	-0.278353	-0.895802	0.000108
C77	C	0.054980	-0.562468	0.333441
C78	C	0.388314	-0.229135	0.666774
C79	C	-0.363952	-0.894434	0.000099
C80	C	-0.030619	-0.561101	0.333432
C81	C	0.302714	-0.227768	0.666765
C82	C	-0.432178	-0.893344	0.000086
C83	C	-0.098845	-0.560011	0.333419
C84	C	0.234488	-0.226678	0.666752
C85	C	0.240320	-0.888119	0.000072
C86	C	0.573653	-0.554785	0.333405
C87	C	0.906986	-0.221452	0.666739
C88	C	0.324337	-0.889463	0.000060
C89	C	0.657670	-0.556130	0.333393
C90	C	0.991004	-0.222796	0.666727
N91	N	0.101924	-0.893872	0.195759
N92	N	0.435257	-0.560538	0.529092
N93	N	0.768590	-0.227205	0.862425
C94	C	0.174709	-0.622869	0.000055
C95	C	0.508042	-0.289535	0.333388
C96	C	0.841376	0.043798	0.666722
C97	C	0.173447	-0.543925	0.000066
C98	C	0.506780	-0.210592	0.333399
C99	C	0.840113	0.122741	0.666733
C100	C	0.103851	-0.513600	0.000081
C101	C	0.437184	-0.180266	0.333414
C102	C	0.770517	0.153067	0.666748
C103	C	0.035513	-0.562222	0.000094
C104	C	0.368846	-0.228889	0.333427
C105	C	0.702179	0.104445	0.666760
C106	C	0.036776	-0.641164	0.000089
C107	C	0.370109	-0.307830	0.333422
C108	C	0.703442	0.025503	0.666755
C109	C	0.030418	-0.243859	0.000115
C110	C	0.363751	0.089475	0.333448
C111	C	0.697084	0.422808	0.666781
C112	C	0.029160	-0.164910	0.000117
C113	C	0.362493	0.168423	0.333451
C114	C	0.695826	0.501756	0.666784
C115	C	0.167088	-0.146620	0.000092
C116	C	0.500422	0.186713	0.333425
C117	C	0.833755	0.520047	0.666759
C118	C	0.168351	-0.225562	0.000087
C119	C	0.501685	0.107771	0.333420
C120	C	0.835018	0.441105	0.666754
C121	C	0.100014	-0.274177	0.000104
C122	C	0.433347	0.059156	0.333437
C123	C	0.766680	0.392489	0.666771
C124	C	0.101383	-0.359777	0.000094
C125	C	0.434717	-0.026443	0.333427
C126	C	0.768050	0.306890	0.666760
C127	C	0.102480	-0.428002	0.000085
C128	C	0.435814	-0.094669	0.333419
C129	C	0.769147	0.238665	0.666752
N130	N	0.101940	-0.893912	-0.195573
N131	N	0.435273	-0.560579	0.137760
N132	N	0.768606	-0.227245	0.471093
C133	C	0.050396	-0.945432	0.239037
C134	C	0.383730	-0.612099	0.572370
C135	C	0.717063	-0.278765	0.905703
C136	C	0.050396	-0.945436	0.325584
C137	C	0.383729	-0.612103	0.658917
C138	C	0.717062	-0.278769	0.992250
C139	C	0.101926	-0.893882	0.368851
C140	C	0.435260	-0.560549	0.702185
C141	C	0.768593	-0.227216	1.035518
C142	C	0.153456	-0.842316	0.325567
C143	C	0.486789	-0.508983	0.658901
C144	C	0.820123	-0.175650	0.992234
C145	C	0.153453	-0.842309	0.239022
C146	C	0.486786	-0.508976	0.572355
C147	C	0.820119	-0.175643	0.905689
C148	C	0.153470	-0.842342	0.674596
C149	C	0.486804	-0.509009	1.007929
C150	C	0.820137	-0.175675	1.341262
C151	C	0.153471	-0.842354	0.761147
C152	C	0.486804	-0.509021	1.094481
C153	C	0.820138	-0.175688	1.427814
C154	C	0.050413	-0.945469	0.761157
C155	C	0.383747	-0.612135	1.094491
C156	C	0.717080	-0.278802	1.427824
C157	C	0.050410	-0.945462	0.674612
C158	C	0.383743	-0.612129	1.007945
C159	C	0.717076	-0.278795	1.341279
C160	C	0.101936	-0.893894	0.631336
C161	C	0.435270	-0.560560	0.964669
C162	C	0.768603	-0.227227	1.298002
C163	C	0.101936	-0.893889	0.537491
C164	C	0.435269	-0.560556	0.870825
C165	C	0.768602	-0.227222	1.204158
C166	C	0.101931	-0.893890	0.462694
C167	C	0.435265	-0.560556	0.796027
C168	C	0.768598	-0.227223	1.129361
H169	H	-0.668292	-0.889586	-0.135920
H170	H	-0.334959	-0.556253	0.197414
H171	H	-0.001625	-0.222920	0.530747
Cl172	Cl	-0.049132	-0.702282	0.000105
Cl173	Cl	0.284201	-0.368949	0.333438
Cl174	Cl	0.617535	-0.035615	0.666772
Cl175	Cl	0.262206	-0.660984	0.000031
Cl176	Cl	0.595539	-0.327651	0.333364
Cl177	Cl	0.928873	0.005683	0.666697
H178	H	0.225023	-0.250248	0.000071
H179	H	0.558357	0.083085	0.333405
H180	H	0.891690	0.416418	0.666738
H181	H	-0.525084	-0.891881	-0.135904
H182	H	-0.191751	-0.558547	0.197429
H183	H	0.141583	-0.225214	0.530763
Cl184	Cl	-0.110278	-0.898491	-0.169057
Cl185	Cl	0.223056	-0.565158	0.164276
Cl186	Cl	0.556389	-0.231825	0.497609
H187	H	-0.021153	-0.537525	0.000118
H188	H	0.312180	-0.204191	0.333451
H189	H	0.645513	0.129142	0.666784
Cl190	Cl	0.218248	-0.777518	0.620197
Cl191	Cl	0.551581	-0.444185	0.953530
Cl192	Cl	0.884914	-0.110852	1.286864
H193	H	-0.027517	-0.140223	0.000131
H194	H	0.305816	0.193110	0.333464
H195	H	0.639150	0.526444	0.666797
H196	H	0.222732	-0.107027	0.000083
H197	H	0.556065	0.226306	0.333416
H198	H	0.889399	0.559639	0.666749
Cl199	Cl	-0.014386	-1.010250	0.184652
Cl200	Cl	0.318948	-0.676917	0.517985
Cl201	Cl	0.652281	-0.343584	0.851319
H202	H	0.195411	-0.800336	0.360801
H203	H	0.528744	-0.467003	0.694134
H204	H	0.862077	-0.133670	1.027468
H205	H	0.008455	-0.987456	0.796402
H206	H	0.341788	-0.654123	1.129736
H207	H	0.675122	-0.320790	1.463069
Cl208	Cl	-0.014383	-1.010255	0.379992
Cl209	Cl	0.318950	-0.676922	0.713325
Cl210	Cl	0.652283	-0.343589	1.046658
H211	H	0.008451	-0.987444	0.639386
H212	H	0.341785	-0.654111	0.972719
H213	H	0.675118	-0.320777	1.306053
H214	H	0.195435	-0.800370	0.796374
H215	H	0.528768	-0.467037	1.129708
H216	H	0.862102	-0.133704	1.463041
H217	H	0.195410	-0.800323	0.203786
H218	H	0.528744	-0.466989	0.537119
H219	H	0.862077	-0.133656	0.870453
H220	H	-0.270985	-0.895922	-0.135876
H221	H	0.062349	-0.562589	0.197457
H222	H	0.395682	-0.229255	0.530791
Cl223	Cl	-0.110358	-0.898454	0.169297
Cl224	Cl	0.222976	-0.565121	0.502630
Cl225	Cl	0.556309	-0.231788	0.835964
H226	H	-0.668364	-0.889573	0.136045
H227	H	-0.335031	-0.556240	0.469378
H228	H	-0.001697	-0.222907	0.802711
H229	H	-0.271046	-0.895907	0.136089
H230	H	0.062287	-0.562573	0.469423
H231	H	0.395620	-0.229240	0.802756
H232	H	-0.525142	-0.891859	0.136053
H233	H	-0.191809	-0.558526	0.469387
H234	H	0.141525	-0.225192	0.802720
H235	H	0.229090	-0.504345	0.000057
H236	H	0.562423	-0.171011	0.333390
H237	H	0.895757	0.162322	0.666723
Cl238	Cl	-0.055493	-0.304965	0.000135
Cl239	Cl	0.277840	0.028369	0.333469
Cl240	Cl	0.611174	0.361702	0.666802
