data_functionalizedCrystal
_audit_creation_method	'MofGen! by Chris Wilmer'
_symmetry_space_group_name_H-M	'P1'
_symmetry_Int_Tables_number	1
_symmetry_cell_setting	triclinic
loop_
_symmetry_equiv_pos_as_xyz
  x,y,z
_cell_length_a	26.210047
_cell_length_b	27.732048
_cell_length_c	27.732048
_cell_angle_alpha	82.642655
_cell_angle_beta	89.999521
_cell_angle_gamma	89.996535
loop_
_atom_site_label
_atom_site_type_symbol
_atom_site_fract_x
_atom_site_fract_y
_atom_site_fract_z
O1	O	0.042369	-0.640931	-0.057510
O2	O	0.042385	-0.500138	-0.066256
O3	O	0.042367	-0.574907	0.008514
O4	O	0.042387	-0.566162	-0.132279
O5	O	-0.042491	-0.574893	0.008502
O6	O	-0.042473	-0.500123	-0.066267
O7	O	-0.042489	-0.640917	-0.057522
Cu8	Cu	-0.050229	-0.570519	-0.061896
Cu9	Cu	0.050125	-0.570536	-0.061882
O10	O	-0.042471	-0.566147	-0.132291
C11	C	-0.000042	-0.482124	-0.066078
C12	C	-0.000036	-0.428469	-0.065525
C13	C	-0.000064	-0.574716	0.026515
C14	C	-0.000068	-0.574164	0.080170
N15	N	-0.120813	-0.570510	-0.061905
C16	C	-0.473336	-0.603640	-0.028781
C17	C	-0.686994	-0.603651	-0.028774
O18	O	-0.714623	-0.631801	-0.000614
N19	N	-0.713707	-0.570538	-0.061871
C20	C	-0.687003	-0.537419	-0.094970
O21	O	-0.714626	-0.509251	-0.123117
C22	C	-0.473345	-0.537406	-0.094974
C23	C	-0.446635	-0.570524	-0.061878
C24	C	-0.446625	-0.636755	0.004312
C25	C	-0.393214	-0.636754	0.004308
C26	C	-0.366513	-0.603638	-0.028789
C27	C	-0.393223	-0.570523	-0.061882
C28	C	-0.446641	-0.504284	-0.128070
C29	C	-0.393223	-0.504283	-0.128067
C30	C	-0.366513	-0.537401	-0.094971
C31	C	-0.313111	-0.537405	-0.094983
N32	N	-0.286397	-0.570518	-0.061886
C33	C	-0.313098	-0.603634	-0.028789
C34	C	-0.799176	-0.537428	-0.094966
C35	C	-0.852590	-0.537432	-0.094965
C36	C	-0.852578	-0.603664	-0.028769
C37	C	-0.799163	-0.603662	-0.028773
C38	C	-0.772463	-0.570541	-0.061869
C39	C	-0.200931	-0.603629	-0.028800
C40	C	-0.147514	-0.603626	-0.028808
C41	C	-0.147531	-0.537393	-0.095002
C42	C	-0.200943	-0.537397	-0.094996
C43	C	-0.227641	-0.570517	-0.061891
O44	O	-0.285449	-0.509267	-0.123125
O45	O	-0.285466	-0.631790	-0.000639
C46	C	-0.526747	-0.603641	-0.028777
C47	C	-0.553457	-0.570527	-0.061871
C48	C	-0.526756	-0.537410	-0.094968
C49	C	-0.606872	-0.570530	-0.061870
C50	C	-0.633573	-0.603646	-0.028773
C51	C	-0.606859	-0.636759	0.004323
C52	C	-0.553448	-0.636758	0.004320
C53	C	-0.553470	-0.504298	-0.128064
C54	C	-0.606881	-0.504302	-0.128058
C55	C	-0.633582	-0.537418	-0.094961
N56	N	0.120709	-0.570548	-0.061868
C57	C	-0.000061	-0.658931	-0.057699
C58	C	-0.000064	-0.712586	-0.058252
C59	C	-0.000053	-0.089654	-0.106229
C60	C	-0.000057	0.112006	-0.104178
O61	O	-0.000074	0.143262	-0.141398
N62	N	-0.000063	0.131130	-0.059843
C63	C	-0.000071	0.099835	-0.016017
O64	O	-0.000081	0.120728	0.021740
C65	C	-0.000069	-0.101824	-0.018068
C66	C	-0.000059	-0.120944	-0.062407
C67	C	-0.000043	-0.108775	-0.150563
C68	C	-0.000039	-0.159187	-0.151076
C69	C	-0.000045	-0.190477	-0.107253
C70	C	-0.000055	-0.171356	-0.062919
C71	C	-0.000081	-0.133117	0.025757
C72	C	-0.000082	-0.183535	0.025240
C73	C	-0.000071	-0.202655	-0.019098
C74	C	-0.000057	-0.253059	-0.019609
N75	N	-0.000051	-0.272183	-0.063944
C76	C	-0.000045	-0.240892	-0.107766
C77	C	-0.000070	0.205709	-0.014943
C78	C	-0.000070	0.256124	-0.014430
C79	C	-0.000057	0.268291	-0.102591
C80	C	-0.000054	0.217876	-0.103104
C81	C	-0.000065	0.186585	-0.059278
C82	C	-0.000036	-0.346761	-0.108839
C83	C	-0.000030	-0.397178	-0.109347
C84	C	-0.000045	-0.409341	-0.021186
C85	C	-0.000049	-0.358929	-0.020678
C86	C	-0.000046	-0.327639	-0.064508
O87	O	-0.000046	-0.284343	0.017592
O88	O	-0.000047	-0.261794	-0.145518
C89	C	-0.000057	-0.039242	-0.105716
C90	C	-0.000067	-0.020120	-0.061382
C91	C	-0.000073	-0.051411	-0.017560
C92	C	-0.000066	0.030294	-0.060869
C93	C	-0.000060	0.061585	-0.104691
C94	C	-0.000054	0.042461	-0.149026
C95	C	-0.000050	-0.007951	-0.149539
C96	C	-0.000078	-0.032287	0.026775
C97	C	-0.000082	0.018125	0.027284
C98	C	-0.000076	0.049416	-0.016538
C99	C	-0.000040	-0.566338	-0.150292
C100	C	-0.000032	-0.566891	-0.203947
C101	C	-0.000046	-0.614867	0.418985
C102	C	-0.000039	-0.612816	0.620645
O103	O	-0.000021	-0.650037	0.651900
N104	N	-0.000034	-0.568481	0.639768
C105	C	-0.000028	-0.524656	0.608474
O106	O	-0.000019	-0.486899	0.629367
C107	C	-0.000032	-0.526707	0.406815
C108	C	-0.000042	-0.571045	0.387694
C109	C	-0.000056	-0.659202	0.399864
C110	C	-0.000060	-0.659714	0.349452
C111	C	-0.000056	-0.615892	0.318161
C112	C	-0.000046	-0.571557	0.337282
C113	C	-0.000022	-0.482882	0.375521
C114	C	-0.000022	-0.483399	0.325104
C115	C	-0.000032	-0.527737	0.305983
C116	C	-0.000046	-0.528247	0.255580
N117	N	-0.000051	-0.572583	0.236456
C118	C	-0.000056	-0.616405	0.267747
C119	C	-0.000027	-0.523582	0.714348
C120	C	-0.000027	-0.523069	0.764762
C121	C	-0.000037	-0.611230	0.776930
C122	C	-0.000041	-0.611742	0.726514
C123	C	-0.000032	-0.567917	0.695224
C124	C	-0.000066	-0.617477	0.161878
C125	C	-0.000073	-0.617986	0.111461
C126	C	-0.000060	-0.529825	0.099298
C127	C	-0.000056	-0.529316	0.149710
C128	C	-0.000057	-0.573147	0.180999
O129	O	-0.000059	-0.491047	0.224296
O130	O	-0.000054	-0.654156	0.246844
C131	C	-0.000042	-0.614355	0.469397
C132	C	-0.000033	-0.570021	0.488518
C133	C	-0.000028	-0.526198	0.457228
C134	C	-0.000033	-0.569508	0.538933
C135	C	-0.000037	-0.613330	0.570223
C136	C	-0.000042	-0.657665	0.551100
C137	C	-0.000046	-0.658177	0.500688
C138	C	-0.000023	-0.481863	0.476351
C139	C	-0.000019	-0.481355	0.526764
C140	C	-0.000024	-0.525177	0.558054
H141	H	-0.125768	-0.630597	-0.001858
O142	O	0.000036	0.298671	-0.145174
C143	C	0.043979	0.290048	-0.172123
H144	H	0.074697	0.272625	-0.146474
H145	H	0.058729	0.325965	-0.191776
H146	H	0.034043	0.264584	-0.199909
O147	O	-0.000171	-0.062700	0.069333
C148	C	-0.044109	-0.092237	0.071673
H149	H	-0.074828	-0.073596	0.046810
H150	H	-0.058862	-0.098187	0.110653
H151	H	-0.034167	-0.128812	0.059447
H152	H	-0.000066	-0.695819	0.333889
O153	O	-0.527584	-0.668945	0.036518
C154	C	-0.562614	-0.698178	0.065719
H155	H	-0.600690	-0.678362	0.066124
H156	H	-0.547186	-0.705843	0.104376
H157	H	-0.568293	-0.733967	0.050270
O158	O	-0.000066	-0.026441	-0.192652
C159	C	-0.000049	0.011996	-0.231215
H160	H	-0.016117	0.046147	-0.217922
H161	H	-0.024681	0.001693	-0.262198
H162	H	0.040664	0.019228	-0.244708
H163	H	-0.000054	-0.694282	0.485125
H164	H	-0.222691	-0.510434	-0.121950
O165	O	-0.000015	-0.653755	0.807399
C166	C	-0.000025	-0.643789	0.855994
H167	H	0.016038	-0.605835	0.857643
H168	H	0.024616	-0.671742	0.879042
H169	H	-0.040734	-0.645731	0.870592
O170	O	-0.121531	-0.505290	-0.127169
C171	C	-0.090640	-0.530949	-0.156822
H172	H	-0.082639	-0.568920	-0.137313
H173	H	-0.053079	-0.510717	-0.164601
H174	H	-0.111221	-0.533957	-0.192530
H175	H	-0.874334	-0.510469	-0.121920
H176	H	-0.000058	-0.694889	0.425336
O177	O	-0.000170	-0.661046	0.092864
C178	C	-0.044114	-0.663971	0.064060
H179	H	-0.074829	-0.638798	0.075799
H180	H	-0.058869	-0.702961	0.068873
H181	H	-0.034180	-0.652521	0.024216
H182	H	-0.000050	-0.343360	0.015426
O183	O	-0.000097	0.274614	0.028683
C184	C	-0.000090	0.236179	0.067248
H185	H	-0.016153	0.202029	0.053953
H186	H	-0.024732	0.246488	0.098223
H187	H	0.040618	0.228942	0.080752
O188	O	-0.000137	-0.660022	0.192316
C189	C	-0.044091	-0.662364	0.221835
H190	H	-0.058736	-0.624013	0.224112
H191	H	-0.034209	-0.680668	0.259859
H192	H	-0.074871	-0.684303	0.205405
H193	H	-0.000048	-0.647846	0.710950
O194	O	-0.632826	-0.668861	0.036522
C195	C	-0.663733	-0.643192	0.066154
H196	H	-0.647633	-0.605081	0.066706
H197	H	-0.664343	-0.663200	0.104713
H198	H	-0.704213	-0.640541	0.051004
O199	O	0.000081	-0.439798	0.394063
C200	C	0.044030	-0.413119	0.378023
H201	H	0.074739	-0.439065	0.367730
H202	H	0.058790	-0.392784	0.408410
H203	H	0.034098	-0.385937	0.344960
O204	O	-0.878464	-0.635812	0.003450
C205	C	-0.865425	-0.628299	0.051247
H206	H	-0.826643	-0.609670	0.051058
H207	H	-0.863600	-0.664808	0.075308
H208	H	-0.895488	-0.604347	0.066023
H209	H	-0.000079	0.180236	0.020747
O210	O	-0.000119	-0.114632	0.068870
C211	C	-0.000116	-0.153070	0.107432
H212	H	-0.016173	-0.187219	0.094131
H213	H	-0.024765	-0.142766	0.138404
H214	H	0.040591	-0.160305	0.120942
O215	O	-0.773322	-0.505236	-0.127167
C216	C	-0.808360	-0.476008	-0.156368
H217	H	-0.846431	-0.495828	-0.156770
H218	H	-0.792934	-0.468343	-0.195026
H219	H	-0.814048	-0.440218	-0.140920
H220	H	-0.000039	-0.083302	-0.186251
O221	O	0.000045	-0.700222	0.581520
C222	C	0.043990	-0.702557	0.611050
H223	H	0.074708	-0.677703	0.592398
H224	H	0.058741	-0.741539	0.617010
H225	H	0.034058	-0.690319	0.647622
O226	O	-0.000045	-0.480041	0.783414
C227	C	-0.000031	-0.488979	0.834621
H228	H	-0.016104	-0.526787	0.846741
H229	H	-0.024662	-0.460624	0.849892
H230	H	0.040680	-0.486751	0.848638
O231	O	-0.000089	-0.439324	0.445910
C232	C	-0.044047	-0.436968	0.416396
H233	H	-0.058702	-0.475313	0.414123
H234	H	-0.034165	-0.418669	0.378370
H235	H	-0.074818	-0.415017	0.432829
O236	O	-0.367286	-0.668795	0.036600
C237	C	-0.336506	-0.643020	0.066239
H238	H	-0.328434	-0.605112	0.046615
H239	H	-0.298974	-0.663250	0.074223
H240	H	-0.357221	-0.639855	0.101845
O241	O	-0.000008	-0.316440	-0.151459
C242	C	-0.000009	-0.344137	-0.190694
H243	H	0.016053	-0.381858	-0.178127
H244	H	0.024635	-0.325321	-0.221372
H245	H	-0.040717	-0.347627	-0.204311
O246	O	0.000012	-0.438238	0.545254
C247	C	0.000004	-0.399673	0.506819
H248	H	0.016060	-0.412970	0.472666
H249	H	0.024650	-0.368701	0.517123
H250	H	-0.040705	-0.386164	0.499589
H251	H	-0.222662	-0.630598	-0.001842
H252	H	-0.000086	0.033688	0.063392
H253	H	-0.000091	-0.209009	0.060929
H254	H	-0.777418	-0.630629	-0.001823
O255	O	0.000045	-0.480975	0.684005
C256	C	0.044001	-0.454045	0.692619
H257	H	0.058654	-0.466216	0.730952
H258	H	0.034119	-0.413702	0.688786
H259	H	0.074775	-0.460441	0.665086
H260	H	-0.468360	-0.663722	0.031266
O261	O	-0.472500	-0.472065	-0.160237
C262	C	-0.437469	-0.442847	-0.189450
H263	H	-0.399395	-0.442456	-0.169631
H264	H	-0.452899	-0.404187	-0.197088
H265	H	-0.431785	-0.458268	-0.225254
H266	H	-0.000048	-0.434827	0.014492
H267	H	-0.371487	-0.477311	-0.155018
H268	H	-0.628625	-0.477334	-0.155013
H269	H	-0.000014	-0.447710	0.299629
O270	O	0.000019	0.072911	-0.191564
C271	C	0.043973	0.102428	-0.193902
H272	H	0.058620	0.104690	-0.155551
H273	H	0.034088	0.140457	-0.212192
H274	H	0.074751	0.086005	-0.215853
O275	O	-0.000026	-0.486205	0.168206
C276	C	-0.000038	-0.447637	0.129775
H277	H	0.016017	-0.460930	0.095619
H278	H	0.024609	-0.416665	0.140080
H279	H	-0.040747	-0.434128	0.122549
H280	H	-0.000058	-0.494146	0.073812
O281	O	-0.000114	0.199245	-0.146142
C282	C	-0.044069	0.170463	-0.149093
H283	H	-0.058730	0.157625	-0.110902
H284	H	-0.034182	0.137588	-0.168111
H285	H	-0.074839	0.192900	-0.170652
O286	O	-0.527561	-0.472176	-0.160285
C287	C	-0.540633	-0.479672	-0.208079
H288	H	-0.555310	-0.518373	-0.208041
H289	H	-0.505513	-0.473928	-0.232387
H290	H	-0.571647	-0.452780	-0.222456
O291	O	-0.000057	-0.177676	-0.194189
C292	C	-0.000041	-0.139240	-0.232752
H293	H	-0.016106	-0.105088	-0.219458
H294	H	-0.024677	-0.149542	-0.263733
H295	H	0.040670	-0.132009	-0.246248
H296	H	-0.000021	-0.412743	-0.145454
