data_functionalizedCrystal
_audit_creation_method	'MofGen! by Chris Wilmer'
_symmetry_space_group_name_H-M	'P1'
_symmetry_Int_Tables_number	1
_symmetry_cell_setting	triclinic
loop_
_symmetry_equiv_pos_as_xyz
  x,y,z
_cell_length_a	21.395362
_cell_length_b	13.897448
_cell_length_c	13.897441
_cell_angle_alpha	89.969401
_cell_angle_beta	89.958721
_cell_angle_gamma	90.033571
loop_
_atom_site_label
_atom_site_type_symbol
_atom_site_fract_x
_atom_site_fract_y
_atom_site_fract_z
Zn1	Zn	0.957900	-0.383575	-0.545910
Zn2	Zn	0.957831	-0.544897	-0.384612
Zn3	Zn	0.853120	-0.383662	-0.384571
Zn4	Zn	0.853108	-0.544875	-0.545806
O5	O	0.905489	-0.464252	-0.465225
O6	O	1.045568	-0.404948	-0.524574
O7	O	0.943917	-0.523555	-0.249624
O8	O	0.867053	-0.248669	-0.405999
O9	O	1.045518	-0.523470	-0.406069
O10	O	0.944034	-0.248605	-0.524535
O11	O	0.866986	-0.405096	-0.249594
O12	O	0.765440	-0.405075	-0.405898
O13	O	0.867032	-0.523432	-0.680802
O14	O	0.765431	-0.523517	-0.524358
O15	O	0.944023	-0.404926	-0.680878
O16	O	0.943905	-0.679876	-0.405968
O17	O	0.866966	-0.679859	-0.524397
C18	C	0.742702	-0.464303	-0.465113
C19	C	0.673060	-0.464348	-0.465088
C20	C	0.640359	-0.526103	-0.526677
C21	C	0.574924	-0.526079	-0.526720
C22	C	0.542192	-0.464311	-0.465157
C23	C	0.574901	-0.402545	-0.403563
C24	C	0.640335	-0.402563	-0.403529
C25	C	0.438469	-0.456563	-0.378319
C26	C	0.373036	-0.456551	-0.378352
C27	C	0.340372	-0.464248	-0.465263
C28	C	0.373148	-0.471977	-0.552144
C29	C	0.438582	-0.471996	-0.552110
C30	C	0.471240	-0.464284	-0.465187
C31	C	0.236718	-0.525980	-0.526904
C32	C	0.171281	-0.525950	-0.526949
C33	C	0.171260	-0.402420	-0.403783
C34	C	0.236695	-0.402446	-0.403747
C35	C	0.269420	-0.464231	-0.465306
C36	C	0.905444	-0.714867	-0.465197
C37	C	0.905481	-0.822080	-0.465217
C38	C	0.905547	-1.018376	-0.465278
C39	C	0.905509	-0.909143	-0.465247
C40	C	1.068913	-0.464202	-0.465338
C41	C	1.138554	-0.464180	-0.465386
C42	C	0.905534	-0.464167	-0.716818
C43	C	0.905553	-0.464131	-0.824032
C44	C	0.905552	-0.212659	-0.465274
C45	C	0.905579	-0.105445	-0.465295
C46	C	0.905570	-0.464065	-1.020327
C47	C	0.905558	-0.464104	-0.911095
C48	C	0.905481	-0.464268	-0.214610
C49	C	0.905584	-0.464032	-0.107397
H50	H	0.465266	-0.478286	-0.622851
H51	H	0.346554	-0.478243	-0.622916
H52	H	0.666961	-0.352272	-0.353375
O53	O	0.139550	-0.342465	-0.343835
C54	C	0.155461	-0.363463	-0.247658
H55	H	0.202947	-0.400566	-0.245587
H56	H	0.157717	-0.293801	-0.204520
H57	H	0.118585	-0.412999	-0.215096
H58	H	0.548247	-0.352251	-0.353439
H59	H	0.667000	-0.576412	-0.576805
H60	H	0.263321	-0.352163	-0.353589
O61	O	0.543246	-0.586157	-0.586586
C62	C	0.586161	-0.640669	-0.640935
H63	H	0.632776	-0.643981	-0.601396
H64	H	0.567220	-0.716672	-0.651104
H65	H	0.593190	-0.605435	-0.714250
H66	H	0.263364	-0.576285	-0.577034
O67	O	0.139610	-0.586034	-0.586809
C68	C	0.182529	-0.640552	-0.641146
H69	H	0.229143	-0.643853	-0.601605
H70	H	0.163591	-0.716559	-0.651303
H71	H	0.189558	-0.605330	-0.714468
H72	H	0.346354	-0.450264	-0.307608
H73	H	0.465059	-0.450291	-0.307541
