data_functionalizedCrystal
_audit_creation_method	'MofGen! by Chris Wilmer'
_symmetry_space_group_name_H-M	'P1'
_symmetry_Int_Tables_number	1
_symmetry_cell_setting	triclinic
loop_
_symmetry_equiv_pos_as_xyz
  x,y,z
_cell_length_a	11.169417
_cell_length_b	25.639239
_cell_length_c	11.169409
_cell_angle_alpha	89.960719
_cell_angle_beta	89.980176
_cell_angle_gamma	90.039565
loop_
_atom_site_label
_atom_site_type_symbol
_atom_site_fract_x
_atom_site_fract_y
_atom_site_fract_z
Zn1	Zn	1.834726	-0.208096	-0.678485
Zn2	Zn	1.834516	-0.295546	-0.477777
Zn3	Zn	1.634012	-0.208128	-0.477819
Zn4	Zn	1.633920	-0.295504	-0.678422
O5	O	1.734293	-0.251819	-0.578126
O6	O	2.002648	-0.219701	-0.651869
O7	O	1.807869	-0.283981	-0.309833
O8	O	1.660763	-0.134959	-0.504482
O9	O	2.002494	-0.283950	-0.504410
O10	O	1.808227	-0.134935	-0.651910
O11	O	1.660560	-0.219755	-0.309864
O12	O	1.466050	-0.219714	-0.504421
O13	O	1.660607	-0.283878	-0.846380
O14	O	1.465983	-0.283909	-0.651803
O15	O	1.808138	-0.219660	-0.846426
O16	O	1.807780	-0.368706	-0.504350
O17	O	1.660403	-0.368675	-0.651763
C18	C	1.422469	-0.251811	-0.578110
C19	C	1.289069	-0.251820	-0.578132
C20	C	1.734092	-0.387661	-0.578071
C21	C	1.734115	-0.445775	-0.578088
C22	C	1.811233	-0.806142	-0.501499
C23	C	1.811279	-0.860746	-0.501515
O24	O	1.876638	-0.888986	-0.436336
N25	N	1.734504	-0.888058	-0.578205
C26	C	1.657686	-0.860762	-0.654894
O27	O	1.592388	-0.889006	-0.720127
C28	C	1.657647	-0.806159	-0.654883
C29	C	1.734418	-0.778850	-0.578178
C30	C	1.887999	-0.778833	-0.424802
C31	C	1.887951	-0.724233	-0.424784
C32	C	1.811136	-0.696941	-0.501464
C33	C	1.734370	-0.724249	-0.578161
C34	C	1.580836	-0.778864	-0.731576
C35	C	1.580804	-0.724257	-0.731559
C36	C	1.657575	-0.696948	-0.654855
C37	C	1.657507	-0.642357	-0.654823
N38	N	1.734282	-0.615046	-0.578133
C39	C	1.811097	-0.642338	-0.501453
C40	C	1.657777	-0.975432	-0.654912
C41	C	1.657809	-1.030035	-0.654918
C42	C	1.811404	-1.030015	-0.501540
C43	C	1.811365	-0.975412	-0.501529
C44	C	1.734552	-0.948121	-0.578221
C45	C	1.810988	-0.527673	-0.501422
C46	C	1.810930	-0.473067	-0.501408
C47	C	1.657340	-0.473091	-0.654789
C48	C	1.657393	-0.527692	-0.654799
C49	C	1.734228	-0.554981	-0.578112
O50	O	1.592185	-0.614082	-0.719973
O51	O	1.876395	-0.614086	-0.436242
C52	C	2.047336	-0.251827	-0.578142
C53	C	2.180736	-0.251830	-0.578149
C54	C	1.734386	-0.251761	-0.891168
C55	C	1.734425	-0.251736	-1.024569
C56	C	1.734529	-0.115446	-0.578207
C57	C	1.734629	-0.057331	-0.578242
C58	C	1.734271	-0.251839	-0.266301
C59	C	1.734464	-0.251716	-0.132902
H60	H	1.873557	-0.549885	-0.438978
H61	H	1.950468	-0.702001	-0.362329
O62	O	1.885885	-0.948944	-0.426858
C63	C	1.944190	-0.932263	-0.222746
C64	C	1.859735	-0.962276	-0.307178
H65	H	1.923061	-0.943022	-0.125966
H66	H	2.040980	-0.942963	-0.243809
H67	H	1.930998	-0.888550	-0.235965
H68	H	1.872820	-1.005996	-0.294006
H69	H	1.762975	-0.951532	-0.286095
H70	H	1.950557	-0.801049	-0.362360
H71	H	1.873955	-1.052246	-0.439107
O72	O	1.583186	-1.056478	-0.729532
C73	C	1.430788	-1.050719	-0.881608
C74	C	1.515253	-1.020710	-0.797180
H75	H	1.375824	-1.021814	-0.936305
H76	H	1.485816	-1.076220	-0.944506
H77	H	1.368130	-1.076346	-0.826445
H78	H	1.577928	-0.995055	-0.852246
H79	H	1.460151	-0.995242	-0.734279
H80	H	1.595217	-0.953215	-0.717360
H81	H	1.518314	-0.801089	-0.794031
H82	H	1.518254	-0.702039	-0.794015
O83	O	1.582778	-0.554142	-0.729417
C84	C	1.430389	-0.548392	-0.881505
C85	C	1.514838	-0.518378	-0.797068
H86	H	1.375420	-0.519489	-0.936205
H87	H	1.485431	-0.573888	-0.944400
H88	H	1.367736	-0.574023	-0.826348
H89	H	1.577508	-0.492718	-0.852128
H90	H	1.459721	-0.492914	-0.734170
O91	O	1.582840	-0.446494	-0.729236
C92	C	1.514681	-0.362376	-0.797132
C93	C	1.599123	-0.392434	-0.712772
H94	H	1.527798	-0.318663	-0.783832
H95	H	1.535725	-0.373027	-0.893955
H96	H	1.417933	-0.373190	-0.776001
H97	H	1.695899	-0.381636	-0.733795
H98	H	1.577976	-0.381780	-0.615974
H99	H	1.873446	-0.450834	-0.438942
