data_functionalizedCrystal
_audit_creation_method	'MofGen! by Chris Wilmer'
_symmetry_space_group_name_H-M	'P1'
_symmetry_Int_Tables_number	1
_symmetry_cell_setting	triclinic
loop_
_symmetry_equiv_pos_as_xyz
  x,y,z
_cell_length_a	14.044220
_cell_length_b	13.262390
_cell_length_c	11.804365
_cell_angle_alpha	117.342394
_cell_angle_beta	77.072943
_cell_angle_gamma	88.642105
loop_
_atom_site_label
_atom_site_type_symbol
_atom_site_fract_x
_atom_site_fract_y
_atom_site_fract_z
O1	O	0.013854	1.520669	0.591547
O2	O	0.047998	1.195741	0.486312
O3	O	-0.106770	1.353325	0.537338
O4	O	0.168622	1.363085	0.540522
O5	O	-0.066064	1.311836	0.325847
O6	O	0.088704	1.154251	0.274822
O7	O	0.054560	1.479179	0.380057
Cu8	Cu	0.075349	1.312927	0.308129
Cu9	Cu	0.027209	1.361993	0.558240
O10	O	0.209328	1.321595	0.329032
C11	C	0.070181	1.133161	0.367017
C12	C	0.075622	1.008505	0.326644
C13	C	0.002186	0.747596	0.673992
C14	C	-0.002931	0.864717	0.711926
C15	C	0.016707	0.900670	0.615609
C16	C	0.041463	0.819490	0.481351
C17	C	0.046573	0.702358	0.443412
C18	C	0.061093	0.855432	0.385030
C19	C	0.085849	0.774252	0.250771
C20	C	0.090958	0.657132	0.212839
C21	C	0.071320	0.621179	0.309157
C22	C	0.055984	0.972564	0.422968
C23	C	0.100370	0.927326	0.192389
C24	C	0.105487	0.810205	0.154454
C25	C	-0.121481	1.328311	0.430209
C26	C	-0.225960	1.315574	0.426083
C27	C	-0.417259	1.292293	0.418560
C28	C	-0.480190	1.382624	0.447819
C29	C	-0.586636	1.369670	0.443633
C30	C	-0.310803	1.305245	0.422745
C31	C	0.224039	1.346610	0.436163
C32	C	0.328516	1.359348	0.440298
C33	C	0.032377	1.541759	0.499355
C34	C	0.026934	1.666417	0.539736
N35	N	0.109207	1.278424	0.132216
C36	C	-0.087980	1.479355	-0.176671
C37	C	-0.113597	1.505455	-0.043559
C38	C	-0.057898	1.448699	0.000392
C39	C	0.023422	1.365840	-0.088784
C40	C	0.049047	1.339744	-0.221907
C41	C	0.079128	1.309088	-0.044844
C42	C	0.160449	1.226229	-0.134020
C43	C	0.186069	1.200137	-0.267130
C44	C	0.130370	1.256893	-0.311081
C45	C	0.053503	1.335184	0.088279
C46	C	0.190530	1.195573	0.043043
C47	C	0.216147	1.169473	-0.090070
N48	N	-0.006657	1.396504	0.734156
H49	H	0.075489	0.525811	0.278277
F50	F	-0.451327	1.178503	0.381712
H51	H	-0.012708	1.402648	0.160875
F52	F	0.302694	1.081290	-0.184990
F53	F	-0.085165	1.476477	0.142063
H54	H	-0.179807	1.572919	0.029044
H55	H	-0.133318	1.525565	-0.212464
H56	H	-0.023091	0.930806	0.821239
H57	H	0.151225	1.235640	-0.419472
F58	F	0.117300	0.570737	0.069949
H59	H	0.252291	1.132678	-0.339736
F60	F	-0.018750	0.709325	0.776484
F61	F	0.131832	0.723795	0.011569
F62	F	0.249816	1.135169	0.089813
F63	F	-0.446123	1.496421	0.484666
F64	F	0.011263	1.025322	0.655986
F65	F	0.029638	1.058949	0.565851
F66	F	0.121265	0.965583	0.089873
