data_functionalizedCrystal
_audit_creation_method	'MofGen! by Chris Wilmer'
_symmetry_space_group_name_H-M	'P1'
_symmetry_Int_Tables_number	1
_symmetry_cell_setting	triclinic
loop_
_symmetry_equiv_pos_as_xyz
  x,y,z
_cell_length_a	16.625547
_cell_length_b	18.215405
_cell_length_c	18.215399
_cell_angle_alpha	90.030551
_cell_angle_beta	90.023923
_cell_angle_gamma	90.024822
loop_
_atom_site_label
_atom_site_type_symbol
_atom_site_fract_x
_atom_site_fract_y
_atom_site_fract_z
Zn1	Zn	1.232660	-0.292993	0.416183
Zn2	Zn	1.732660	0.207007	0.916183
Zn3	Zn	1.232559	-0.416064	0.293111
Zn4	Zn	1.732559	0.083936	0.793111
Zn5	Zn	1.097824	-0.293016	0.293121
Zn6	Zn	1.597824	0.206984	0.793121
Zn7	Zn	1.097786	-0.416022	0.416127
Zn8	Zn	1.597786	0.083978	0.916127
O9	O	1.165207	-0.354524	0.354636
O10	O	1.665207	0.145476	0.854636
O11	O	1.345479	-0.309327	0.399876
O12	O	1.845479	0.190673	0.899876
O13	O	1.214660	-0.399769	0.190128
O14	O	1.714660	0.100231	0.690128
O15	O	1.115768	-0.190029	0.309474
O16	O	1.615768	0.309971	0.809474
O17	O	1.345405	-0.399747	0.309456
O18	O	1.845405	0.100253	0.809456
O19	O	1.214831	-0.190012	0.399886
O20	O	1.714831	0.309988	0.899886
O21	O	1.115670	-0.309366	0.190136
O22	O	1.615670	0.190634	0.690136
O23	O	0.984986	-0.309325	0.309419
O24	O	1.484986	0.190675	0.809419
O25	O	1.115704	-0.399675	0.519119
O26	O	1.615704	0.100325	1.019119
O27	O	0.984959	-0.399697	0.399791
O28	O	1.484959	0.100303	0.899791
O29	O	1.214795	-0.309286	0.519160
O30	O	1.714795	0.190714	1.019160
O31	O	1.214624	-0.519043	0.309402
O32	O	1.714624	-0.019043	0.809402
O33	O	1.115607	-0.519012	0.399781
O34	O	1.615607	-0.019012	0.899781
C35	C	0.955716	-0.354510	0.354601
C36	C	1.455716	0.145490	0.854601
C37	C	0.866095	-0.354521	0.354603
C38	C	1.366095	0.145479	0.854603
C39	C	1.165122	-0.545730	0.354600
C40	C	1.665122	-0.045730	0.854600
C41	C	1.165160	-0.627529	0.354610
C42	C	1.665160	-0.127529	0.854610
C43	C	1.216839	-0.815715	0.307636
C44	C	1.716839	-0.315715	0.807636
C45	C	1.216875	-0.892573	0.307654
C46	C	1.716875	-0.392573	0.807654
C47	C	1.113679	-0.892581	0.401688
C48	C	1.613679	-0.392581	0.901688
C49	C	1.113648	-0.815724	0.401674
C50	C	1.613648	-0.315724	0.901674
C51	C	1.165226	-0.777293	0.354643
C52	C	1.665226	-0.277293	0.854643
C53	C	1.165294	-0.931009	0.354676
C54	C	1.665294	-0.431009	0.854676
C55	C	1.165332	-1.014342	0.354695
C56	C	1.665332	-0.514342	0.854695
C57	C	1.165189	-0.693954	0.354624
C58	C	1.665189	-0.193954	0.854624
C59	C	0.793313	-0.354523	0.354613
C60	C	1.293313	0.145477	0.854613
C61	C	0.702004	-0.354527	0.354631
C62	C	1.202004	0.145473	0.854631
C63	C	0.629228	-0.354533	0.354650
C64	C	1.129228	0.145467	0.854650
C65	C	0.537914	-0.354538	0.354667
C66	C	1.037914	0.145462	0.854667
C67	C	1.375516	-0.354539	0.354671
C68	C	1.875516	0.145461	0.854671
C69	C	1.465137	-0.354545	0.354686
C70	C	1.965137	0.145455	0.854686
C71	C	1.165256	-0.354473	0.546589
C72	C	1.665256	0.145527	1.046589
C73	C	1.165277	-0.354452	0.628388
C74	C	1.665277	0.145548	1.128388
C75	C	1.165315	-0.162571	0.354687
C76	C	1.665315	0.337429	0.854687
C77	C	1.165361	-0.080772	0.354709
C78	C	1.665361	0.419228	0.854709
C79	C	1.165205	-0.354521	0.163429
C80	C	1.665205	0.145479	0.663429
C81	C	1.165340	-0.354336	0.081631
C82	C	1.665340	0.145664	0.581631
C83	C	1.216893	-0.307342	0.816604
C84	C	1.716893	0.192658	1.316604
C85	C	1.216902	-0.307320	0.893463
C86	C	1.716902	0.192680	1.393463
C87	C	1.113719	-0.401447	0.893409
C88	C	1.613719	0.098553	1.393409
C89	C	1.113706	-0.401464	0.816552
C90	C	1.613706	0.098536	1.316552
C91	C	1.165297	-0.354413	0.778151
C92	C	1.665297	0.145587	1.278151
C93	C	1.165320	-0.354374	0.931867
C94	C	1.665320	0.145626	1.431867
C95	C	1.165330	-0.354351	1.015201
C96	C	1.665330	0.145649	1.515201
C97	C	1.165286	-0.354435	0.694812
C98	C	1.665286	0.145565	1.194812
H99	H	1.258839	-0.784426	0.269342
H100	H	1.758839	-0.284426	0.769342
O101	O	1.267083	-0.261737	0.779267
O102	O	1.767083	0.238263	1.279267
C103	C	1.319122	-0.303641	0.734793
C104	C	1.819122	0.196359	1.234793
H105	H	1.324084	-0.361598	0.757937
H106	H	1.824084	0.138402	1.257937
H107	H	1.381184	-0.277020	0.733943
H108	H	1.881184	0.222980	1.233943
H109	H	1.294179	-0.306189	0.676538
H110	H	1.794179	0.193811	1.176538
O111	O	1.267100	-0.261574	0.930702
O112	O	1.767100	0.238426	1.430702
C113	C	1.312614	-0.220038	0.880325
C114	C	1.812614	0.279962	1.380325
H115	H	1.315380	-0.250197	0.825531
H116	H	1.815380	0.249803	1.325531
H117	H	1.376150	-0.212186	0.902549
H118	H	1.876150	0.287814	1.402549
H119	H	1.283117	-0.164145	0.872158
H120	H	1.783117	0.335855	1.372158
H121	H	1.071717	-0.439757	0.924684
H122	H	1.571717	0.060243	1.424684
H123	H	1.071618	-0.784438	0.439956
H124	H	1.571618	-0.284438	0.939956
O125	O	1.063559	-0.447263	0.779307
O126	O	1.563559	0.052737	1.279307
C127	C	1.018017	-0.488780	0.829679
C128	C	1.518017	0.011220	1.329679
H129	H	1.051049	-0.491320	0.884474
H130	H	1.551049	0.008680	1.384474
H131	H	1.009383	-0.546767	0.807449
H132	H	1.509383	-0.046767	1.307449
H133	H	0.956795	-0.461827	0.837846
H134	H	1.456795	0.038173	1.337846
H135	H	1.258904	-0.923853	0.269376
H136	H	1.758904	-0.423853	0.769376
H137	H	1.071684	-0.923881	0.439978
H138	H	1.571684	-0.423881	0.939978
