data_functionalizedCrystal
_audit_creation_method	'MofGen! by Chris Wilmer'
_symmetry_space_group_name_H-M	'P1'
_symmetry_Int_Tables_number	1
_symmetry_cell_setting	triclinic
loop_
_symmetry_equiv_pos_as_xyz
  x,y,z
_cell_length_a	18.426585
_cell_length_b	14.560438
_cell_length_c	14.560438
_cell_angle_alpha	119.999504
_cell_angle_beta	89.998551
_cell_angle_gamma	60.001046
loop_
_atom_site_label
_atom_site_type_symbol
_atom_site_fract_x
_atom_site_fract_y
_atom_site_fract_z
Zr1	Zr	0.699107	1.005317	0.120531
O2	O	0.583226	1.196918	0.267174
O3	O	0.734631	0.813717	0.075580
O4	O	0.734624	1.005325	0.267183
O5	O	0.583239	1.005303	-0.075571
O6	O	0.854050	1.005332	0.267187
O7	O	0.583233	1.005309	0.075571
O8	O	0.854063	0.662579	-0.075556
O9	O	0.583226	1.348056	0.267171
O10	O	0.838908	0.892530	0.056408
O11	O	0.749786	0.892520	-0.056391
O12	O	0.749778	1.118115	0.169197
O13	O	0.660656	1.118105	0.056398
Zr14	Zr	0.889588	1.005317	-0.120518
Zr15	Zr	0.889578	1.005327	0.120537
Zr16	Zr	0.699117	1.005307	-0.120524
Zr17	Zr	0.699108	1.246365	0.120527
Zr18	Zr	0.889587	0.764270	-0.120513
O19	O	0.854064	1.196918	-0.075566
O20	O	0.854050	1.196932	0.267183
O21	O	0.583239	1.196904	-0.075575
O22	O	1.005469	0.813717	-0.267161
O23	O	1.005456	0.813731	0.075588
O24	O	0.734645	0.813702	-0.267170
O25	O	1.005456	1.005332	0.075585
O26	O	0.854071	1.005309	-0.267169
O27	O	0.734645	1.005303	-0.267173
O28	O	1.005462	1.005326	-0.075558
O29	O	0.734624	1.348064	0.267176
O30	O	0.854071	0.662571	-0.267163
O31	O	1.005469	0.662579	-0.267158
O32	O	1.005462	0.662587	-0.075551
O33	O	0.583233	1.348048	0.075565
O34	O	0.734632	1.348056	0.075570
O35	O	0.838917	0.892520	-0.169184
O36	O	0.928039	0.892530	-0.056385
O37	O	0.838909	1.118115	0.056404
O38	O	0.749787	1.118105	-0.056395
C39	C	0.794347	0.703804	0.000012
C40	C	0.794347	0.601473	0.000014
C41	C	0.840866	0.553401	0.058894
C42	C	0.840869	0.457242	0.058884
C43	C	0.747828	0.457237	-0.058888
C44	C	0.747830	0.553388	-0.058884
C45	C	0.556098	1.005305	-0.000001
C46	C	0.475238	1.005300	-0.000004
C47	C	0.179123	1.005339	0.000016
C48	C	0.261509	1.005334	0.000014
C49	C	0.327178	1.005320	0.000007
C50	C	0.409570	1.005314	0.000003
C51	C	1.032597	1.005330	0.000014
C52	C	1.113457	1.005334	0.000017
C53	C	0.794335	1.005330	0.301530
C54	C	0.794331	1.005334	0.403864
C55	C	0.794348	1.306831	0.000001
C56	C	0.794348	1.409162	-0.000001
C57	C	0.747806	1.123086	0.510816
C58	C	0.747815	1.123083	0.606966
C59	C	0.840875	0.887564	0.489199
C60	C	0.840871	0.887569	0.393051
C61	C	0.794355	1.005311	0.698487
C62	C	0.794344	1.005325	0.596162
C63	C	1.032597	0.703816	0.000020
C64	C	1.113456	0.601490	0.000025
C65	C	0.794359	0.703791	-0.301511
C66	C	0.794363	0.601456	-0.403843
C67	C	1.032609	0.703804	-0.301503
C68	C	1.113472	0.601473	-0.403833
C69	C	0.556086	1.306831	0.301517
C70	C	0.475223	1.409162	0.403846
C71	C	0.556098	1.306818	-0.000007
C72	C	0.475239	1.409145	-0.000011
C73	C	0.794336	1.306844	0.301524
C74	C	0.794332	1.409179	0.403857
C75	C	1.104903	0.553436	0.058914
C76	C	1.180872	0.457302	0.058940
C77	C	1.265393	0.409218	0.000071
C78	C	1.273944	0.457281	-0.058820
C79	C	1.197976	0.553419	-0.058840
C80	C	1.197975	0.553422	-0.393008
C81	C	1.273963	0.457285	-0.489149
C82	C	1.265445	0.409193	-0.596113
C83	C	1.180933	0.457253	-0.606935
C84	C	1.104948	0.553396	-0.510796
C85	C	0.390720	1.457224	0.393021
C86	C	0.314732	1.553392	0.489162
C87	C	0.323250	1.601488	0.596126
C88	C	0.407762	1.553422	0.606949
C89	C	0.483747	1.457263	0.510809
C90	C	0.483792	1.457209	-0.058890
C91	C	0.407823	1.553369	-0.058890
C92	C	0.323302	1.601457	-0.000017
C93	C	0.314751	1.553389	0.058869
C94	C	0.390719	1.457237	0.058875
C95	C	0.840889	0.553376	-0.510796
C96	C	0.840883	0.457231	-0.606944
C97	C	0.747823	0.457248	-0.489173
C98	C	0.747824	0.553399	-0.393027
H99	H	0.709911	1.218978	0.519626
H100	H	0.878750	0.418104	0.106828
H101	H	0.709931	1.218968	0.694047
O102	O	0.697652	0.605155	-0.277698
H103	H	0.646197	0.711216	-0.231020
H104	H	1.342769	0.418164	-0.480317
H105	H	1.036144	0.592506	-0.519625
O106	O	0.574887	1.405463	0.522501
H107	H	0.626302	1.330534	0.437687
H108	H	0.878764	0.791684	0.480409
O109	O	0.891068	0.405376	-0.722299
H110	H	0.883242	0.330453	-0.787342
H111	H	1.204952	0.592532	-0.106801
O112	O	1.207173	0.605297	-0.277645
H113	H	1.278705	0.555735	-0.286288
H114	H	1.327324	0.330908	-0.674386
O115	O	0.697675	0.605230	-0.122414
H116	H	0.646260	0.711299	-0.062987
O117	O	0.697635	0.405403	-0.477518
H118	H	0.665275	0.455002	-0.386990
H119	H	0.878744	0.592547	0.106851
H120	H	0.878762	0.791676	0.305960
H121	H	1.036089	0.592585	0.106866
H122	H	1.173892	0.418181	0.106896
H123	H	1.174011	0.418083	-0.694038
O124	O	0.697645	0.405392	-0.122397
H125	H	0.705448	0.330468	-0.112498
H126	H	1.327244	0.330935	0.000095
O127	O	0.417055	1.605187	-0.122422
H128	H	0.488592	1.555569	-0.163375
H129	H	1.342771	0.418117	-0.106749
O130	O	0.381522	1.405366	0.277659
H131	H	0.309990	1.454968	0.286302
O132	O	0.223587	1.605202	0.477478
H133	H	0.230437	1.555573	0.386945
O134	O	0.241291	1.705217	0.699817
H135	H	0.181103	1.730548	0.674309
O136	O	0.416945	1.605292	0.722320
H137	H	0.349906	1.680218	0.787342
H138	H	0.552606	1.418063	-0.106839
H139	H	0.878780	0.592506	-0.519609
H140	H	0.261451	1.679750	-0.000032
O141	O	0.223587	1.605260	0.122367
H142	H	0.172207	1.680184	0.112454
H143	H	0.383743	1.418106	0.106818
