data_functionalizedCrystal
_audit_creation_method	'MofGen! by Chris Wilmer'
_symmetry_space_group_name_H-M	'P1'
_symmetry_Int_Tables_number	1
_symmetry_cell_setting	triclinic
loop_
_symmetry_equiv_pos_as_xyz
  x,y,z
_cell_length_a	6.817900
_cell_length_b	10.992668
_cell_length_c	10.992410
_cell_angle_alpha	91.832960
_cell_angle_beta	108.764651
_cell_angle_gamma	108.769342
loop_
_atom_site_label
_atom_site_type_symbol
_atom_site_fract_x
_atom_site_fract_y
_atom_site_fract_z
V1	V	-4.114280	-0.177763	-0.400588
O2	O	-4.072374	0.008542	-0.392968
O3	O	-4.091890	-0.352475	-0.397843
O4	O	-4.091871	-0.175029	-0.575300
O5	O	-4.072393	-0.170132	-0.214282
V6	V	-4.591170	-0.155479	-0.378305
O7	O	-4.390089	-0.226646	-0.449467
O8	O	-4.765558	-0.106597	-0.329425
O9	O	-4.390353	0.019232	-0.381050
O10	O	-4.750472	-0.341785	-0.385925
O11	O	-4.750453	-0.163110	-0.564611
O12	O	-4.390371	-0.158213	-0.203592
C13	C	-3.942377	-0.395066	-0.391522
C14	C	-4.005531	-0.537895	-0.390442
C15	C	-4.252012	-0.600203	-0.397771
C16	C	-4.317510	-0.748689	-0.396139
C17	C	-3.920752	-0.718266	-0.261985
C18	C	-3.856485	-0.569698	-0.263077
C19	C	-3.980036	-0.607725	-0.508433
C20	C	-4.050700	-0.756740	-0.509050
C21	C	-3.942352	-0.168714	-0.617885
C22	C	-4.005486	-0.167635	-0.760713
C23	C	-3.872608	-0.157798	-0.955837
C24	C	-3.807058	-0.159453	-0.807354
C25	C	-4.203525	-0.294317	-0.837814
C26	C	-4.267838	-0.293197	-0.986380
C27	C	-4.145561	-0.047894	-0.948356
C28	C	-4.074851	-0.047294	-0.799343
C29	C	-4.203208	0.061817	-0.387367
C30	C	-4.119294	0.204644	-0.388455
C31	C	-4.203232	-0.164532	-0.161001
C32	C	-4.119335	-0.165605	-0.018171
H33	H	-3.801239	-0.566899	-0.504187
O34	O	-4.514662	-0.819334	-0.516568
H35	H	-4.561746	-0.925699	-0.515524
O36	O	-3.717331	-0.036322	-0.980803
H37	H	-3.735215	0.050413	-0.937656
H38	H	-3.871482	-0.523419	-0.173753
H39	H	-4.157779	-0.383665	-0.812206
H40	H	-3.965929	-0.743867	-0.172458
H41	H	-4.216964	-0.045806	-0.766831
H42	H	-3.931581	0.046420	-0.746988
O43	O	-4.402731	-0.308306	-0.799675
H44	H	-4.540265	-0.398525	-0.855525
O45	O	-3.610363	-0.038811	-0.736686
H46	H	-3.561306	0.021240	-0.808503
O47	O	-4.284325	-0.536631	-0.285454
H48	H	-4.411450	-0.491325	-0.323480
O49	O	-3.721737	-0.756447	-0.248469
H50	H	-3.581143	-0.669535	-0.247054
H51	H	-4.252292	-0.382325	-1.032648
O52	O	-4.009210	0.079541	-0.975308
H53	H	-3.921219	0.060397	-1.038773
H54	H	-3.847685	-0.242374	-1.003827
O55	O	-3.615615	-0.513250	-0.248972
H56	H	-3.567959	-0.406818	-0.249657
H57	H	-4.324546	-0.052498	-0.989196
O58	O	-3.731345	-0.273044	-0.774473
H59	H	-3.557777	-0.236746	-0.705750
H60	H	-4.449842	-0.304212	-1.029011
H61	H	-4.369609	-0.581361	-0.489305
H62	H	-4.374121	-0.773496	-0.310189
O63	O	-4.116985	-0.580787	-0.635677
H64	H	-4.204752	-0.517315	-0.616236
O65	O	-4.240954	-0.826064	-0.632994
H66	H	-4.189468	-0.887916	-0.689104
O67	O	-3.861823	-0.799126	-0.511087
H68	H	-3.813798	-0.848695	-0.425858
