data_functionalizedCrystal
_audit_creation_method	'MofGen! by Chris Wilmer'
_symmetry_space_group_name_H-M	'P1'
_symmetry_Int_Tables_number	1
_symmetry_cell_setting	triclinic
loop_
_symmetry_equiv_pos_as_xyz
  x,y,z
_cell_length_a	6.817900
_cell_length_b	11.102288
_cell_length_c	27.924317
_cell_angle_alpha	95.522183
_cell_angle_beta	98.979858
_cell_angle_gamma	108.605689
loop_
_atom_site_label
_atom_site_type_symbol
_atom_site_fract_x
_atom_site_fract_y
_atom_site_fract_z
V1	V	-4.003386	-0.177801	-0.151280
O2	O	-3.964477	0.006525	-0.148400
O3	O	-3.980902	-0.350608	-0.150245
O4	O	-3.933001	-0.175953	-0.217258
O5	O	-4.012710	-0.169340	-0.080923
V6	V	-4.486504	-0.155649	-0.142864
O7	O	-4.265532	-0.226394	-0.169739
O8	O	-4.674556	-0.107056	-0.124405
O9	O	-4.285781	0.017158	-0.143899
O10	O	-4.642810	-0.339975	-0.145744
O11	O	-4.594577	-0.164111	-0.213221
O12	O	-4.333682	-0.157498	-0.076886
C13	C	-3.832919	-0.392707	-0.147858
C14	C	-3.895677	-0.533985	-0.147452
C15	C	-4.107438	-0.606862	-0.149682
C16	C	-4.166396	-0.739609	-0.149304
C17	C	-3.801809	-0.726588	-0.144465
C18	C	-3.742857	-0.593845	-0.144846
C19	C	-3.771816	-0.169915	-0.233339
C20	C	-3.795724	-0.169547	-0.287277
C21	C	-4.021022	-0.283015	-0.679359
C22	C	-3.931503	-0.284600	-0.476655
O23	O	-3.966810	-0.383858	-0.456345
N24	N	-3.865089	-0.168320	-0.444371
C25	C	-3.821038	-0.051636	-0.462764
O26	O	-3.762474	0.047231	-0.430652
C27	C	-3.910543	-0.050053	-0.665466
C28	C	-3.976981	-0.166340	-0.697750
C29	C	-4.087453	-0.399293	-0.711642
C30	C	-4.109842	-0.398897	-0.762314
C31	C	-4.065800	-0.282222	-0.780705
C32	C	-3.999369	-0.165943	-0.748422
C33	C	-3.866479	0.066631	-0.683859
C34	C	-3.888856	0.067016	-0.734538
C35	C	-3.955294	-0.049271	-0.766821
C36	C	-3.977717	-0.048872	-0.817486
N37	N	-4.044131	-0.165151	-0.849771
C38	C	-4.088173	-0.281826	-0.831380
C39	C	-3.774055	-0.052476	-0.356343
C40	C	-3.751682	-0.052872	-0.305667
C41	C	-3.862145	-0.285835	-0.319562
C42	C	-3.884532	-0.285439	-0.370239
C43	C	-3.840469	-0.168755	-0.388628
C44	C	-4.135189	-0.280984	-0.937797
C45	C	-4.157583	-0.280577	-0.988474
C46	C	-4.047108	-0.047613	-0.974574
C47	C	-4.024726	-0.048020	-0.923902
C48	C	-4.068765	-0.164715	-0.905515
O49	O	-3.942426	0.050335	-0.837830
O50	O	-4.146689	-0.380677	-0.863499
C51	C	-3.998633	-0.283412	-0.628686
C52	C	-3.932203	-0.167134	-0.596404
C53	C	-3.888161	-0.050459	-0.614794
C54	C	-3.909830	-0.167530	-0.545728
C55	C	-3.953872	-0.284205	-0.527338
C56	C	-4.020286	-0.400484	-0.559623
C57	C	-4.042675	-0.400087	-0.610296
C58	C	-3.821747	0.065820	-0.582509
C59	C	-3.799365	0.065414	-0.531837
C60	C	-3.843406	-0.051261	-0.513446
C61	C	-4.097107	0.059250	-0.146284
C62	C	-4.013587	0.200526	-0.146693
C63	C	-4.158211	-0.163540	-0.060802
C64	C	-4.113541	-0.163902	-0.006864
H65	H	-3.677396	-0.775342	-0.142342
H66	H	-3.570411	-0.534507	-0.143032
N67	N	-4.263545	-0.545724	-0.152361
N68	N	-4.293290	-0.487592	-0.187476
H69	H	-4.403550	-0.444418	-0.189371
N70	N	-4.225466	-0.399380	-1.021443
N71	N	-4.264778	-0.503542	-1.005012
H72	H	-4.312718	-0.587446	-1.028295
H73	H	-4.338828	-0.798940	-0.151121
H74	H	-4.163934	-0.493590	-0.788595
H75	H	-4.171046	-0.376008	-0.922833
N76	N	-4.132432	-0.518486	-0.692863
N77	N	-4.030999	-0.591517	-0.701257
H78	H	-4.062786	-0.675707	-0.687999
N79	N	-3.952401	-0.404234	-0.403206
N80	N	-3.991724	-0.508394	-0.386773
H81	H	-4.039656	-0.592300	-0.410054
N82	N	-3.907132	-0.405007	-0.300764
N83	N	-3.887139	-0.405328	-0.255517
H84	H	-3.918897	-0.489487	-0.242237
N85	N	-3.798628	0.185429	-0.650898
N86	N	-3.759312	0.289584	-0.667335
H87	H	-3.711389	0.373494	-0.644057
N88	N	-3.729042	0.066712	-0.375130
N89	N	-3.588262	0.097864	-0.399934
H90	H	-3.556476	0.182041	-0.413201
N91	N	-3.843816	0.186222	-0.753312
N92	N	-3.784492	0.290031	-0.724479
H93	H	-3.752681	0.374221	-0.737737
H94	H	-3.697616	0.041820	-0.279387
N95	N	-3.956836	0.070761	-0.890921
N96	N	-3.791071	0.101451	-0.859180
H97	H	-3.743104	0.185343	-0.835889
N98	N	-4.002152	0.071550	-0.993374
N99	N	-4.022152	0.071873	-1.038621
H100	H	-3.990393	0.156033	-1.051900
N101	N	-4.110548	-0.518885	-0.643261
N102	N	-4.149858	-0.623041	-0.626826
H103	H	-4.197794	-0.706950	-0.650105
H104	H	-4.056151	-0.495485	-0.544641
H105	H	-3.745279	0.160116	-0.505555
N106	N	-3.776737	0.185019	-0.601281
N107	N	-3.717438	0.288822	-0.572445
H108	H	-3.685654	0.373015	-0.585701
