data_functionalizedCrystal
_audit_creation_method	'MofGen! by Chris Wilmer'
_symmetry_space_group_name_H-M	'P1'
_symmetry_Int_Tables_number	1
_symmetry_cell_setting	triclinic
loop_
_symmetry_equiv_pos_as_xyz
  x,y,z
_cell_length_a	25.427154
_cell_length_b	25.426324
_cell_length_c	25.422586
_cell_angle_alpha	60.006367
_cell_angle_beta	60.012446
_cell_angle_gamma	59.992398
loop_
_atom_site_label
_atom_site_type_symbol
_atom_site_fract_x
_atom_site_fract_y
_atom_site_fract_z
O1	O	0.072968	-0.768436	0.642532
O2	O	0.027520	-0.598284	0.517710
O3	O	0.135268	-0.705940	0.517611
O4	O	-0.034780	-0.660780	0.642632
O5	O	0.171018	-0.670200	0.553260
O6	O	0.063270	-0.562544	0.553360
O7	O	0.108718	-0.732696	0.678182
Zn8	Zn	0.091670	-0.641945	0.621431
Zn9	Zn	0.044568	-0.689034	0.574461
O10	O	0.000970	-0.625039	0.678281
N11	N	0.123818	-0.609812	0.653490
N12	N	0.012426	-0.721173	0.542402
C13	C	0.168482	-0.466269	0.698103
C14	C	0.168494	-0.565177	0.698095
C15	C	0.193243	-0.540453	0.722807
C16	C	0.301113	-0.521853	0.665993
C17	C	0.368545	-0.544324	0.643486
C18	C	0.368579	-0.653434	0.685090
C19	C	0.301149	-0.630961	0.707599
C20	C	0.184722	-0.432539	0.631812
C21	C	0.162210	-0.365100	0.609357
C22	C	0.107225	-0.365129	0.719489
C23	C	0.129737	-0.432567	0.741943
C24	C	0.102194	-0.548896	0.714421
C25	C	0.079702	-0.571372	0.691949
C26	C	0.189805	-0.626409	0.636839
C27	C	0.212300	-0.603934	0.659303
C28	C	0.102289	-0.548918	0.830735
C29	C	0.079866	-0.571415	0.898171
C30	C	0.190015	-0.626466	0.898104
C31	C	0.212437	-0.603971	0.830666
C32	C	0.168573	-0.565195	0.796984
C33	C	0.267418	-0.565170	0.698047
C34	C	-0.130981	-0.765617	0.497386
C35	C	-0.032127	-0.765741	0.497606
C36	C	-0.056804	-0.790430	0.472789
C37	C	-0.075480	-0.898263	0.529507
C38	C	-0.053057	-0.965702	0.552014
C39	C	0.056052	-0.965829	0.510599
C40	C	0.033627	-0.898392	0.488091
C41	C	-0.164787	-0.781859	0.563659
C42	C	-0.232219	-0.759299	0.586018
C43	C	-0.232034	-0.704261	0.475827
C44	C	-0.164602	-0.726821	0.453469
C45	C	-0.048372	-0.699446	0.481299
C46	C	-0.025938	-0.677008	0.503867
C47	C	0.028987	-0.787155	0.559036
C48	C	0.006552	-0.809596	0.536475
C49	C	-0.048188	-0.699454	0.364860
C50	C	-0.025608	-0.677017	0.297425
C51	C	0.029406	-0.787170	0.297492
C52	C	0.006827	-0.809605	0.364929
C53	C	-0.031972	-0.765745	0.398611
C54	C	-0.032140	-0.864611	0.497548
N55	N	0.401319	-0.609788	0.653344
O56	O	0.621664	-0.620517	0.494685
O57	O	0.621901	-0.745740	0.664659
O58	O	0.621803	-0.745452	0.556857
O59	O	0.621762	-0.620805	0.602487
O60	O	0.514676	-0.709815	0.592658
O61	O	0.514774	-0.710104	0.700460
O62	O	0.514537	-0.584881	0.530485
Zn63	Zn	0.497647	-0.641834	0.621157
Zn64	Zn	0.638791	-0.688787	0.573988
O65	O	0.514635	-0.585169	0.638287
N66	N	0.735119	-0.720834	0.541794
N67	N	0.123794	-0.332357	0.653504
O68	O	-0.034774	-0.111885	0.642639
O69	O	0.135202	-0.111860	0.517412
O70	O	0.027364	-0.111888	0.517742
O71	O	0.073064	-0.111857	0.642310
O72	O	0.063120	-0.219026	0.553444
O73	O	0.170958	-0.218998	0.553115
O74	O	0.000983	-0.219022	0.678342
Zn75	Zn	0.091647	-0.236020	0.621397
Zn76	Zn	0.044537	-0.094862	0.574357
O77	O	0.108821	-0.218994	0.678013
N78	N	0.012383	0.001474	0.542251
N79	N	0.124036	-0.609854	0.930891
O80	O	0.113202	-0.768401	1.151342
O81	O	-0.011992	-0.598359	1.151385
O82	O	-0.011700	-0.706176	1.151343
O83	O	0.112910	-0.660584	1.151384
O84	O	0.023980	-0.670446	1.044212
O85	O	0.023689	-0.562630	1.044253
O86	O	0.148882	-0.732671	1.044211
Zn87	Zn	0.091951	-0.641977	1.027223
Zn88	Zn	0.044940	-0.689053	1.168373
O89	O	0.148590	-0.624854	1.044252
N90	N	0.012853	-0.721183	1.264704
C91	C	0.041135	-0.558973	0.518338
C92	C	0.174567	-0.692292	0.518215
C93	C	0.095103	-0.772007	0.677553
C94	C	-0.038330	-0.638687	0.677677
C95	C	0.568366	-0.745166	0.703974
C96	C	0.568246	-0.744810	0.570474
C97	C	0.568069	-0.585454	0.491172
C98	C	0.568192	-0.585812	0.624671
C99	C	0.174449	-0.165294	0.517975
C100	C	0.040949	-0.165460	0.518427
C101	C	-0.038309	-0.165456	0.677735
C102	C	0.095236	-0.165423	0.677328
C103	C	-0.011393	-0.559072	1.097824
C104	C	-0.011024	-0.692583	1.097752
C105	C	0.148283	-0.771958	1.097772
C106	C	0.147922	-0.638440	1.097820
H107	H	0.066565	-0.517338	0.803314
C108	C	0.200813	-0.625267	1.097825
C109	C	0.188919	-0.607494	1.153466
C110	C	0.241810	-0.594321	1.153472
C111	C	0.306594	-0.598922	1.097836
C112	C	0.318491	-0.616696	1.042191
C113	C	0.265600	-0.629869	1.042186
H114	H	0.140959	-0.604087	1.194655
H115	H	0.233003	-0.581163	1.194664
H116	H	0.345747	-0.589171	1.097841
H117	H	0.366451	-0.620103	1.001003
H118	H	0.274408	-0.643026	1.000993
C119	C	-0.063890	-0.705731	1.097673
C120	C	-0.129956	-0.652826	1.097649
C121	C	-0.182822	-0.665975	1.097570
C122	C	-0.169623	-0.732027	1.097515
C123	C	-0.103554	-0.784937	1.097539
C124	C	-0.050688	-0.771788	1.097618
H125	H	-0.139729	-0.603926	1.097690
H126	H	-0.231730	-0.626807	1.097553
H127	H	-0.208757	-0.741761	1.097457
H128	H	-0.093781	-0.833837	1.097499
H129	H	-0.001780	-0.810956	1.097636
C130	C	0.264011	-0.449482	0.655488
C131	C	0.217687	-0.426149	0.713791
C132	C	0.180585	-0.353777	0.703286
C133	C	0.189807	-0.304738	0.634477
C134	C	0.236134	-0.328071	0.576169
C135	C	0.273236	-0.400443	0.586674
H136	H	0.210858	-0.462451	0.764732
H137	H	0.146291	-0.336505	0.746450
H138	H	0.162342	-0.251164	0.626700
H139	H	0.242962	-0.291769	0.525228
H140	H	0.307530	-0.417715	0.543511
H141	H	-0.050697	-0.510236	1.097837
H142	H	0.567992	-0.546139	0.442358
C143	C	0.201385	-0.837931	1.097756
C144	C	0.188519	-0.891014	1.097733
C145	C	0.241621	-0.956987	1.097717
C146	C	0.307589	-0.969876	1.097724
C147	C	0.320458	-0.916790	1.097747
C148	C	0.267356	-0.850818	1.097763
H149	H	0.139683	-0.881475	1.097728
H150	H	0.232095	-0.996284	1.097700
H151	H	0.346898	-1.018712	1.097712
H152	H	0.369294	-0.926330	1.097752
H153	H	0.276882	-0.811521	1.097779
C154	C	-0.269018	-0.661593	0.427516
C155	C	-0.315336	-0.593107	0.427746
C156	C	-0.352316	-0.550438	0.379432
C157	C	-0.342977	-0.576256	0.330889
C158	C	-0.296656	-0.644746	0.330658
C159	C	-0.259676	-0.687415	0.378971
H160	H	-0.322251	-0.573992	0.463682
H161	H	-0.386605	-0.499737	0.379603
H162	H	-0.370351	-0.544670	0.295124
H163	H	-0.289741	-0.663861	0.294722
H164	H	-0.225387	-0.738116	0.378800
H165	H	-0.087123	-0.165464	0.717049
C166	C	0.028022	-0.492945	0.465372
C167	C	0.069769	-0.451348	0.437616
C168	C	0.056656	-0.385319	0.384650
C169	C	0.001797	-0.360888	0.359439
C170	C	-0.039953	-0.402485	0.387194
C171	C	-0.026840	-0.468514	0.440160
H172	H	0.110382	-0.469433	0.456279
H173	H	0.087563	-0.354526	0.364104
H174	H	-0.007910	-0.312010	0.320230
H175	H	-0.080566	-0.384400	0.368531
H176	H	-0.057747	-0.499307	0.460707
H177	H	0.105023	-0.165413	0.716462
H178	H	0.104814	-0.820885	0.716757
H179	H	0.568183	-0.546658	0.634434
H180	H	0.025889	-0.558152	0.925643
H181	H	0.225736	-0.658027	0.925521
C182	C	0.027734	-0.165471	0.465554
C183	C	0.069423	-0.221105	0.437835
C184	C	0.056208	-0.221116	0.384962
C185	C	0.001304	-0.165492	0.359809
C186	C	-0.040389	-0.109854	0.387529
C187	C	-0.027174	-0.109843	0.440402
H188	H	0.110069	-0.262285	0.456454
H189	H	0.087072	-0.262303	0.364442
H190	H	-0.008479	-0.165500	0.320670
H191	H	-0.081036	-0.068674	0.368910
H192	H	-0.058038	-0.068656	0.460921
C193	C	0.240545	-0.705290	0.465174
C194	C	0.293582	-0.771293	0.478148
C195	C	0.359560	-0.784291	0.425107
C196	C	0.372501	-0.731284	0.359092
C197	C	0.319462	-0.665276	0.346116
C198	C	0.253484	-0.652278	0.399157
H199	H	0.284004	-0.810536	0.527018
H200	H	0.398823	-0.833155	0.434713
H201	H	0.421342	-0.740905	0.319828
H202	H	0.329040	-0.626033	0.297245
H203	H	0.214222	-0.603414	0.389550
H204	H	-0.087172	-0.629063	0.716934
C205	C	0.227340	-0.469613	0.583590
C206	C	0.245195	-0.432508	0.510669
C207	C	0.287815	-0.469583	0.462445
C208	C	0.312580	-0.543762	0.487142
C209	C	0.294726	-0.580871	0.560067
C210	C	0.252106	-0.543797	0.608291
H211	H	0.226862	-0.377593	0.492383
H212	H	0.301031	-0.442111	0.408461
H213	H	0.344130	-0.571206	0.451444
H214	H	0.313059	-0.635786	0.578353
H215	H	0.238889	-0.571268	0.662276
C216	C	0.240255	-0.164878	0.464727
C217	C	0.293292	-0.164659	0.477504
C218	C	0.359098	-0.164244	0.424256
C219	C	0.371868	-0.164047	0.358230
C220	C	0.318831	-0.164266	0.345450
C221	C	0.253024	-0.164682	0.398698
H222	H	0.283840	-0.164804	0.526383
H223	H	0.398360	-0.164081	0.433717
H224	H	0.420582	-0.163740	0.318812
H225	H	0.328283	-0.164121	0.296571
H226	H	0.213762	-0.164844	0.389237
H227	H	0.568427	-0.784476	0.752793
H228	H	0.066522	-0.517340	0.746005
C229	C	0.006773	-0.553470	0.709901
C230	C	-0.035513	-0.573117	0.781132
C231	C	-0.108441	-0.555216	0.799083
C232	C	-0.139084	-0.517669	0.745801
C233	C	-0.096797	-0.498020	0.674565
C234	C	-0.023869	-0.515921	0.656614
H235	H	-0.012830	-0.600913	0.820579
H236	H	-0.139744	-0.569761	0.851817
H237	H	-0.193069	-0.504417	0.759089
H238	H	-0.119480	-0.470224	0.635118
H239	H	0.007433	-0.501376	0.603880
C240	C	0.237995	-0.669040	0.594170
C241	C	0.286550	-0.734082	0.619935
C242	C	0.334744	-0.776710	0.577261
C243	C	0.334383	-0.754296	0.508823
C244	C	0.285827	-0.689250	0.483054
C245	C	0.237633	-0.646622	0.525728
H246	H	0.286818	-0.750678	0.670600
H247	H	0.370688	-0.824862	0.596337
H248	H	0.370059	-0.785851	0.477233
H249	H	0.285559	-0.672654	0.432389
H250	H	0.201689	-0.598470	0.506652
H251	H	0.568264	-0.783967	0.560707
H252	H	0.266414	-0.617231	0.803190
H253	H	0.266286	-0.617183	0.646003
H254	H	0.396045	-0.707006	0.692856
C255	C	0.264081	-0.678612	0.742858
C256	C	0.217768	-0.685292	0.812606
C257	C	0.180701	-0.732943	0.847866
C258	C	0.189946	-0.773913	0.813379
C259	C	0.236261	-0.767235	0.743627
C260	C	0.273328	-0.719584	0.708366
H261	H	0.210923	-0.654962	0.838139
H262	H	0.146415	-0.737886	0.899502
H263	H	0.162506	-0.809187	0.839481
H264	H	0.243106	-0.797565	0.718094
H265	H	0.307614	-0.714640	0.656731
C266	C	0.405610	-0.496673	0.608222
C267	C	0.396359	-0.455692	0.642701
C268	C	0.433425	-0.408039	0.607434
C269	C	0.479741	-0.401367	0.537688
C270	C	0.488993	-0.442349	0.503205
C271	C	0.451927	-0.490003	0.538472
H272	H	0.362072	-0.460630	0.694335
H273	H	0.426576	-0.377701	0.632961
H274	H	0.507179	-0.366091	0.511581
H275	H	0.523280	-0.437411	0.451571
H276	H	0.458777	-0.520340	0.512945
C277	C	0.064617	-0.328051	0.767710
C278	C	0.046771	-0.365153	0.840632
C279	C	0.004165	-0.328077	0.888854
C280	C	-0.020595	-0.253898	0.864154
C281	C	-0.002749	-0.216791	0.791228
C282	C	0.039857	-0.253867	0.743007
H283	H	0.065100	-0.420069	0.858920
H284	H	-0.009046	-0.355546	0.942839
H285	H	-0.052135	-0.226451	0.899851
H286	H	-0.021078	-0.161875	0.772941
H287	H	0.053067	-0.226398	0.689022
H288	H	0.116505	-0.460032	0.795926
C289	C	-0.043460	-0.604090	0.260307
C290	C	-0.023869	-0.561788	0.269654
C291	C	-0.041720	-0.488862	0.232535
C292	C	-0.079164	-0.458239	0.186068
C293	C	-0.098758	-0.500542	0.176718
C294	C	-0.080906	-0.573467	0.213838
H295	H	0.003851	-0.584456	0.304054
H296	H	-0.027215	-0.457547	0.239457
H297	H	-0.092379	-0.404255	0.158590
H298	H	-0.126478	-0.477873	0.142319
H299	H	-0.095411	-0.604783	0.206916
H300	H	-0.079784	-0.663733	0.392281
C301	C	0.072072	-0.835418	0.260448
C302	C	0.137056	-0.884002	0.269850
C303	C	0.179722	-0.932254	0.232807
C304	C	0.157405	-0.931921	0.186360
C305	C	0.092417	-0.883335	0.176955
C306	C	0.049751	-0.835083	0.213999
H307	H	0.153580	-0.884250	0.304235
H308	H	0.227830	-0.968220	0.239769
H309	H	0.188989	-0.967639	0.158938
H310	H	0.075893	-0.883086	0.142571
H311	H	0.001643	-0.799117	0.207037
H312	H	0.175430	-0.337636	0.555374
H313	H	0.020039	-0.863588	0.392405
H314	H	-0.039168	-0.623025	0.490592
C315	C	-0.090921	-0.651203	0.438548
C316	C	-0.065023	-0.602735	0.373535
C317	C	-0.107572	-0.554490	0.330781
C318	C	-0.176019	-0.554712	0.353042
C319	C	-0.201920	-0.603181	0.418059
C320	C	-0.159371	-0.651427	0.460812
H321	H	-0.014352	-0.602569	0.357053
H322	H	-0.088398	-0.518609	0.282651
H323	H	-0.207516	-0.518998	0.321394
H324	H	-0.252592	-0.603347	0.434541
H325	H	-0.178546	-0.687307	0.508942
H326	H	0.060486	-0.822870	0.590677
H327	H	0.068924	-0.870994	0.462067
C328	C	0.128397	-1.002995	0.500205
C329	C	0.163134	-0.993770	0.528619
C330	C	0.235477	-1.030936	0.518225
C331	C	0.273083	-1.077328	0.479418
C332	C	0.238346	-1.086556	0.451002
C333	C	0.166003	-1.049390	0.461396
H334	H	0.135296	-0.959426	0.557348
H335	H	0.261192	-1.024105	0.539260
H336	H	0.326636	-1.104841	0.471724
H337	H	0.266184	-1.120900	0.422273
H338	H	0.140289	-1.056221	0.440361
H339	H	0.019779	-0.863579	0.549754
H340	H	-0.088349	-0.993100	0.578027
C341	C	-0.127802	-0.824530	0.611966
C342	C	-0.164989	-0.842386	0.684866
C343	C	-0.128005	-0.885057	0.733176
C344	C	-0.053833	-0.909873	0.708584
C345	C	-0.016641	-0.892018	0.635679
C346	C	-0.053626	-0.849346	0.587370
H347	H	-0.219899	-0.824016	0.703074
H348	H	-0.155537	-0.898275	0.787144
H349	H	-0.026454	-0.941461	0.744345
H350	H	0.038269	-0.910388	0.617472
H351	H	-0.026093	-0.836129	0.533401
H352	H	-0.259745	-0.772522	0.639985
H353	H	-0.129033	-0.870764	0.537213
H354	H	-0.137077	-0.713589	0.399501
