data_functionalizedCrystal
_audit_creation_method	'MofGen! by Chris Wilmer'
_symmetry_space_group_name_H-M	'P1'
_symmetry_Int_Tables_number	1
_symmetry_cell_setting	triclinic
loop_
_symmetry_equiv_pos_as_xyz
  x,y,z
_cell_length_a	14.971486
_cell_length_b	10.654550
_cell_length_c	14.048226
_cell_angle_alpha	89.994756
_cell_angle_beta	89.998499
_cell_angle_gamma	84.049516
loop_
_atom_site_label
_atom_site_type_symbol
_atom_site_fract_x
_atom_site_fract_y
_atom_site_fract_z
O1	O	1.187838	0.163659	-0.079049
O2	O	0.927544	0.183257	-0.079074
O3	O	1.063675	-0.009345	-0.079057
O4	O	1.051706	0.356262	-0.079066
O5	O	1.063659	-0.009357	0.079264
O6	O	0.927527	0.183246	0.079247
O7	O	1.187821	0.163648	0.079273
Zn8	Zn	1.057672	0.173445	0.104397
Zn9	Zn	1.057693	0.173460	-0.104198
O10	O	1.051690	0.356250	0.079256
C11	C	0.894206	0.182375	0.000083
C12	C	0.794895	0.179749	0.000073
C13	C	0.738285	0.292898	0.000072
C14	C	0.644972	0.290422	0.000086
C15	C	0.608271	0.174797	0.000095
C16	C	0.664888	0.061639	0.000099
C17	C	0.758199	0.064116	0.000092
C18	C	0.470397	0.056485	0.000112
C19	C	0.377080	0.054007	0.000118
C20	C	0.357171	0.282791	0.000107
C21	C	0.450482	0.285268	0.000100
C22	C	0.507092	0.172110	0.000102
C23	C	1.062788	-0.056139	0.000102
C24	C	1.060159	-0.195555	0.000099
C25	C	1.140311	-0.275900	0.000109
C26	C	1.137835	-0.406894	0.000102
C27	C	0.975048	-0.377185	0.000078
C28	C	0.977525	-0.246193	0.000078
C29	C	1.222945	-0.225262	0.000130
C30	C	1.303104	-0.305609	0.000142
C31	C	1.300628	-0.436603	0.000135
C32	C	1.217993	-0.487250	0.000116
C33	C	1.221159	0.164530	0.000113
C34	C	1.320470	0.167156	0.000117
C35	C	1.052577	0.403044	0.000094
C36	C	1.055206	0.542460	0.000092
N37	N	1.057663	0.173434	0.246758
N38	N	1.057709	0.173461	-0.246559
C39	C	1.117962	0.088185	0.296583
C40	C	1.117968	0.088184	0.396241
C41	C	1.057679	0.173440	0.446071
C42	C	0.997374	0.258693	0.396238
C43	C	0.997365	0.258687	0.296583
C44	C	0.997400	0.258702	0.603953
C45	C	0.997411	0.258710	0.703615
C46	C	1.118003	0.088200	0.703611
C47	C	1.117993	0.088193	0.603955
C48	C	1.057690	0.173448	0.554129
H49	H	0.516488	-0.035661	0.000116
C50	C	0.843025	0.332040	0.734336
C51	C	0.931131	0.352399	0.758400
H52	H	0.802106	0.389872	0.768166
H53	H	0.834386	0.344255	0.667865
H54	H	0.832826	0.248189	0.750675
H55	H	0.941331	0.436248	0.742055
H56	H	0.939773	0.340194	0.824887
C57	C	0.693946	-0.164253	0.000111
C58	C	0.624549	-0.065461	0.000108
H59	H	0.669042	-0.242720	0.000119
H60	H	0.729924	-0.158524	-0.055097
H61	H	0.729928	-0.158524	0.055324
H62	H	0.588571	-0.071185	-0.055109
H63	H	0.588556	-0.071193	0.055321
H64	H	0.907771	-0.418433	0.000064
C65	C	1.461783	-0.452805	0.000166
C66	C	1.388734	-0.524922	0.000146
H67	H	1.516177	-0.507331	0.000183
H68	H	1.459373	-0.401092	-0.055040
H69	H	1.459344	-0.401099	0.055381
H70	H	1.391169	-0.576621	-0.055072
H71	H	1.391145	-0.576657	0.055358
H72	H	1.370382	-0.264362	0.000133
H73	H	0.948291	0.328122	0.563388
C74	C	0.874692	-0.065812	-0.081298
C75	C	0.820432	-0.060258	0.000090
H76	H	0.913115	-0.142594	-0.081291
H77	H	0.837875	-0.062029	-0.136496
H78	H	0.909896	0.003414	-0.081292
H79	H	0.785222	-0.129478	0.000081
H80	H	0.857253	-0.064053	0.055302
C81	C	1.270802	-0.045727	0.081536
C82	C	1.225675	-0.081274	0.000138
H83	H	1.272492	0.043164	0.081538
H84	H	1.240165	-0.069878	0.136726
H85	H	1.330362	-0.086346	0.081536
H86	H	1.166114	-0.040661	0.000141
H87	H	1.256311	-0.057109	-0.055067
H88	H	1.215983	-0.593916	0.000100
C89	C	0.875834	0.285664	0.508335
C90	C	0.931104	0.352405	0.451014
H91	H	0.834927	0.343524	0.542154
H92	H	0.843335	0.233324	0.469470
H93	H	0.911760	0.234897	0.552267
H94	H	0.895179	0.403166	0.407077
H95	H	0.963606	0.404767	0.489883
H96	H	0.948262	0.328103	0.256016
H97	H	0.912258	-0.180773	0.000071
H98	H	0.768160	0.387053	0.000064
H99	H	1.167059	0.018765	0.256018
H100	H	1.167089	0.018778	0.563383
C101	C	0.634666	0.516809	0.000062
C102	C	0.582747	0.414799	0.000081
H103	H	0.596249	0.593597	0.000054
H104	H	0.671477	0.513017	0.055264
H105	H	0.671473	0.513005	-0.055157
H106	H	0.545945	0.418598	0.055303
H107	H	0.545920	0.418593	-0.055127
C108	C	1.237189	-0.080322	0.386226
C109	C	1.184264	-0.005505	0.451009
H110	H	1.278125	-0.138155	0.420040
H111	H	1.199684	-0.125600	0.347374
H112	H	1.269665	-0.027947	0.347340
H113	H	1.151783	-0.057880	0.489890
H114	H	1.221774	0.039776	0.489877
H115	H	0.480361	0.379420	0.000084
C116	C	1.136383	-0.082692	0.815678
C117	C	1.184289	-0.005525	0.758370
H118	H	1.177308	-0.140553	0.849480
H119	H	1.100488	-0.031924	0.859616
H120	H	1.098875	-0.127950	0.776799
H121	H	1.221793	0.039740	0.797250
H122	H	1.220200	-0.056299	0.714427
H123	H	0.347201	-0.040145	0.000126
H124	H	0.311074	0.374929	0.000109
