data_functionalizedCrystal
_audit_creation_method	'MofGen! by Chris Wilmer'
_symmetry_space_group_name_H-M	'P1'
_symmetry_Int_Tables_number	1
_symmetry_cell_setting	triclinic
loop_
_symmetry_equiv_pos_as_xyz
  x,y,z
_cell_length_a	13.032831
_cell_length_b	19.121063
_cell_length_c	13.032268
_cell_angle_alpha	99.247498
_cell_angle_beta	90.886977
_cell_angle_gamma	85.565596
loop_
_atom_site_label
_atom_site_type_symbol
_atom_site_fract_x
_atom_site_fract_y
_atom_site_fract_z
Zn1	Zn	1.465022	-0.473659	-0.806576
Zn2	Zn	1.479383	-0.578156	-0.640274
Zn3	Zn	1.316950	-0.444360	-0.611224
Zn4	Zn	1.285899	-0.574364	-0.790193
O5	O	1.386814	-0.517635	-0.712067
O6	O	1.609870	-0.501370	-0.803529
O7	O	1.476841	-0.549733	-0.491924
O8	O	1.343577	-0.350107	-0.631836
O9	O	1.620421	-0.578143	-0.681348
O10	O	1.452365	-0.371633	-0.775360
O11	O	1.357502	-0.451434	-0.470581
O12	O	1.169889	-0.447756	-0.615951
O13	O	1.290655	-0.571680	-0.936863
O14	O	1.147076	-0.543270	-0.747439
O15	O	1.422256	-0.497693	-0.948899
O16	O	1.446733	-0.675793	-0.665463
O17	O	1.304581	-0.673007	-0.775608
C18	C	1.121419	-0.491923	-0.676766
C19	C	1.007877	-0.480942	-0.661690
C20	C	0.946005	-0.523366	-0.719935
C21	C	0.828653	-0.512018	-0.704355
C22	C	1.373870	-0.699851	-0.721936
C23	C	1.368422	-0.777815	-0.726206
C24	C	1.439917	-0.815879	-0.670926
C25	C	1.434798	-0.889136	-0.674948
C26	C	1.358179	-0.924327	-0.734244
C27	C	1.286681	-0.886258	-0.789530
C28	C	1.291805	-0.813003	-0.785514
C29	C	1.339006	-1.145437	-0.749244
C30	C	1.333886	-1.218697	-0.753254
C31	C	1.482005	-1.221570	-0.638672
C32	C	1.487118	-1.148313	-0.634656
C33	C	1.415624	-1.110251	-0.689946
C34	C	1.352943	-0.999207	-0.738354
C35	C	1.420865	-1.035374	-0.685842
C36	C	1.653245	-0.543448	-0.747506
C37	C	1.766782	-0.554448	-0.762608
C38	C	1.351390	-0.537532	-0.981395
C39	C	1.336295	-0.546011	-1.096167
C40	C	1.399833	-0.334712	-0.702185
C41	C	1.405381	-0.256761	-0.697974
C42	C	1.394678	-0.513183	-1.153291
C43	C	1.379078	-0.521945	-1.271914
C44	C	1.422162	-0.497771	-0.443791
C45	C	1.437469	-0.489113	-0.329036
H46	H	0.979912	-0.568086	-0.781340
H47	H	0.794751	-0.467290	-0.642953
H48	H	0.973970	-0.436217	-0.600292
H49	H	1.274755	-0.580597	-1.135080
C50	C	1.202401	-0.924967	-0.854760
C51	C	1.124605	-0.964313	-0.802054
C52	C	1.040323	-1.003021	-0.867283
C53	C	1.033837	-1.002384	-0.985219
C54	C	1.111636	-0.963037	-1.037931
C55	C	1.195918	-0.924329	-0.972702
H56	H	1.129404	-0.964785	-0.714746
H57	H	0.982732	-1.032148	-0.828262
H58	H	0.971447	-1.031038	-1.033505
H59	H	1.106837	-0.962564	-1.125240
H60	H	1.253510	-0.895202	-1.011724
H61	H	1.233587	-0.782012	-0.830529
H62	H	1.499002	-0.454514	-1.290127
C63	C	0.812567	-0.614872	-0.845566
C64	C	0.887945	-0.673618	-0.813343
C65	C	0.933729	-0.734042	-0.896298
C66	C	0.904135	-0.735720	-1.011476
C67	C	0.828753	-0.676972	-1.043704
C68	C	0.782969	-0.616548	-0.960749
H69	H	0.909856	-0.672378	-0.728076
H70	H	0.989532	-0.777531	-0.872440
H71	H	0.938027	-0.780449	-1.072884
H72	H	0.806842	-0.678212	-1.128971
H73	H	0.727166	-0.573059	-0.984607
C74	C	1.477811	-0.466451	-1.100731
C75	C	1.447154	-0.401664	-1.017691
C76	C	1.530290	-0.354932	-0.965133
C77	C	1.644082	-0.372987	-0.995615
C78	C	1.674745	-0.437777	-1.078660
C79	C	1.591609	-0.484509	-1.131217
H80	H	1.362913	-0.388296	-0.995122
H81	H	1.507591	-0.306970	-0.903658
H82	H	1.705624	-0.338393	-0.956709
H83	H	1.758985	-0.451145	-1.101228
H84	H	1.614308	-0.532471	-1.192692
C85	C	1.524200	-0.777173	-0.605699
C86	C	1.530697	-0.777817	-0.487766
C87	C	1.614985	-0.739113	-0.422540
C88	C	1.692776	-0.699765	-0.475248
C89	C	1.686282	-0.699120	-0.593187
C90	C	1.601995	-0.737824	-0.658413
H91	H	1.473108	-0.806945	-0.448743
H92	H	1.619791	-0.739590	-0.335233
H93	H	1.755171	-0.671114	-0.426964
H94	H	1.743871	-0.669991	-0.632210
H95	H	1.597188	-0.737346	-0.745720
H96	H	1.317533	-0.556535	-1.310822
C97	C	1.249611	-1.257410	-0.818499
C98	C	1.243979	-1.337988	-0.822914
C99	C	1.159711	-1.376702	-0.888158
C100	C	1.081076	-1.334839	-0.948986
C101	C	1.086705	-1.254257	-0.944572
C102	C	1.170973	-1.215543	-0.879329
H103	H	1.302192	-1.368981	-0.777884
H104	H	1.155545	-1.436354	-0.891425
H105	H	1.018696	-1.363498	-0.997283
H106	H	1.028492	-1.223264	-0.989603
H107	H	1.175140	-1.155891	-0.876062
C108	C	1.513450	-0.931003	-0.614141
C109	C	1.521350	-0.911501	-0.495102
C110	C	1.600011	-0.953367	-0.434295
C111	C	1.670772	-1.014733	-0.492527
C112	C	1.662873	-1.034238	-0.611572
C113	C	1.584213	-0.992373	-0.672379
H114	H	1.468967	-0.866071	-0.451989
H115	H	1.605858	-0.938927	-0.346170
H116	H	1.729001	-1.045725	-0.447514
H117	H	1.715257	-1.079668	-0.654685
H118	H	1.578366	-1.006812	-0.760505
C119	C	1.268662	-1.037921	-0.803575
C120	C	1.190880	-1.077274	-0.750864
C121	C	1.106605	-1.115993	-0.816088
C122	C	1.100111	-1.115358	-0.934024
C123	C	1.177895	-1.076004	-0.986742
C124	C	1.262171	-1.037285	-0.921517
H125	H	1.195685	-1.077745	-0.663555
H126	H	1.049023	-1.145126	-0.777062
H127	H	1.037725	-1.144020	-0.982307
H128	H	1.173091	-1.075533	-1.074050
H129	H	1.319752	-1.008152	-0.960543
C130	C	1.560651	-1.263441	-0.577865
C131	C	1.523600	-1.303582	-0.493646
C132	C	1.602253	-1.345453	-0.432840
C133	C	1.717957	-1.347185	-0.456253
C134	C	1.755014	-1.307043	-0.540476
C135	C	1.676361	-1.265171	-0.601282
H136	H	1.437944	-1.302301	-0.476311
H137	H	1.574821	-1.375169	-0.370492
H138	H	1.776181	-1.378180	-0.411240
H139	H	1.840670	-1.308323	-0.557811
H140	H	1.703794	-1.235456	-0.663630
H141	H	1.549508	-1.119663	-0.586372
H142	H	1.483252	-1.006720	-0.637567
H143	H	1.280791	-1.114453	-0.794261
