data_functionalizedCrystal
_audit_creation_method	'MofGen! by Chris Wilmer'
_symmetry_space_group_name_H-M	'P1'
_symmetry_Int_Tables_number	1
_symmetry_cell_setting	triclinic
loop_
_symmetry_equiv_pos_as_xyz
  x,y,z
_cell_length_a	11.792241
_cell_length_b	11.792254
_cell_length_c	9.130313
_cell_angle_alpha	89.998555
_cell_angle_beta	90.003954
_cell_angle_gamma	84.196007
loop_
_atom_site_label
_atom_site_type_symbol
_atom_site_fract_x
_atom_site_fract_y
_atom_site_fract_z
O1	O	1.506909	0.155562	-0.121658
O2	O	1.176569	0.171595	-0.121692
O3	O	1.349748	-0.001591	-0.121664
O4	O	1.333730	0.328748	-0.121686
O5	O	1.349746	-0.001587	0.121935
O6	O	1.176567	0.171599	0.121907
O7	O	1.506907	0.155567	0.121941
Cu8	Cu	1.341737	0.163583	0.144166
Cu9	Cu	1.341739	0.163578	-0.143917
O10	O	1.333728	0.328753	0.121913
C11	C	1.134277	0.170590	0.000103
C12	C	1.008263	0.167576	0.000090
C13	C	0.777551	0.162033	0.000133
C14	C	0.905936	0.165112	0.000109
C15	C	1.348738	-0.043880	0.000135
C16	C	1.345718	-0.169893	0.000134
C17	C	1.343264	-0.272229	0.000128
C18	C	1.340196	-0.400616	0.000114
C19	C	1.549199	0.156571	0.000143
C20	C	1.675213	0.159586	0.000146
C21	C	1.334738	0.371041	0.000111
C22	C	1.337758	0.497054	0.000103
N23	N	1.341743	0.163587	0.346789
N24	N	1.341742	0.163566	-0.346540
C25	C	1.418447	0.086926	0.423454
C26	C	1.418444	0.086912	0.576790
C27	C	1.265030	0.240230	0.576785
C28	C	1.265029	0.240237	0.423451
C29	C	1.507022	-0.001588	0.423458
C30	C	1.507019	-0.001601	0.576795
H31	H	1.202561	0.302650	0.361032
C32	C	1.180647	0.324539	0.661127
N33	N	1.117087	0.388043	0.724652
C34	C	1.481130	-0.119374	0.367229
N35	N	1.461625	-0.208088	0.324878
H36	H	1.479650	-0.083973	0.624344
C37	C	1.618259	0.035466	0.359210
N38	N	1.702044	0.063375	0.310818
H39	H	1.594193	0.017623	0.618419
