data_functionalizedCrystal
_audit_creation_method	'MofGen! by Chris Wilmer'
_symmetry_space_group_name_H-M	'P1'
_symmetry_Int_Tables_number	1
_symmetry_cell_setting	triclinic
loop_
_symmetry_equiv_pos_as_xyz
  x,y,z
_cell_length_a	19.077105
_cell_length_b	16.625546
_cell_length_c	19.076919
_cell_angle_alpha	92.269917
_cell_angle_beta	90.076224
_cell_angle_gamma	87.718759
loop_
_atom_site_label
_atom_site_type_symbol
_atom_site_fract_x
_atom_site_fract_y
_atom_site_fract_z
Zn1	Zn	1.058283	-0.390077	-0.440407
Zn2	Zn	1.558283	0.109923	0.059593
Zn3	Zn	1.062927	-0.519720	-0.322896
Zn4	Zn	1.562927	-0.019720	0.177104
Zn5	Zn	0.945500	-0.379275	-0.318200
Zn6	Zn	1.445500	0.120725	0.181800
Zn7	Zn	0.940748	-0.519234	-0.435649
Zn8	Zn	1.440748	-0.019234	0.064351
O9	O	1.001864	-0.452076	-0.379288
O10	O	1.501864	0.047924	0.120712
O11	O	1.157231	-0.411998	-0.428775
O12	O	1.657231	0.088002	0.071225
O13	O	1.051282	-0.496773	-0.223942
O14	O	1.551282	0.003227	0.276058
O15	O	0.960506	-0.267879	-0.334437
O16	O	1.460506	0.232121	0.165563
O17	O	1.160642	-0.507246	-0.342441
O18	O	1.660642	-0.007246	0.157559
O19	O	1.043367	-0.275815	-0.424222
O20	O	1.543367	0.224185	0.075778
O21	O	0.965009	-0.393589	-0.220492
O22	O	1.465009	0.106411	0.279508
O23	O	0.846538	-0.393117	-0.329824
O24	O	1.346538	0.106883	0.170176
O25	O	0.952407	-0.506418	-0.534611
O26	O	1.452407	-0.006418	-0.034611
O27	O	0.843047	-0.495944	-0.416113
O28	O	1.343047	0.004056	0.083887
O29	O	1.038759	-0.411527	-0.538107
O30	O	1.538759	0.088473	-0.038107
O31	O	1.046674	-0.632485	-0.337827
O32	O	1.546674	-0.132485	0.162173
O33	O	0.956910	-0.632127	-0.420666
O34	O	1.456910	-0.132127	0.079334
C35	C	0.819296	-0.443306	-0.371943
C36	C	1.319296	0.056694	0.128057
C37	C	0.741192	-0.439575	-0.368817
C38	C	1.241192	0.060425	0.131183
C39	C	0.702702	-0.491432	-0.412204
C40	C	1.202702	0.008568	0.087796
C41	C	0.629314	-0.487916	-0.409270
C42	C	1.129314	0.012084	0.090730
C43	C	0.594418	-0.432544	-0.362946
C44	C	1.094418	0.067456	0.137054
C45	C	0.632913	-0.380681	-0.319557
C46	C	1.132913	0.119319	0.180443
C47	C	0.706299	-0.384194	-0.322495
C48	C	1.206299	0.115806	0.177505
C49	C	0.375130	-0.416284	-0.349354
C50	C	0.875130	0.083716	0.150646
C51	C	0.301739	-0.412776	-0.346418
C52	C	0.801739	0.087224	0.153582
C53	C	0.298145	-0.520010	-0.436133
C54	C	0.798145	-0.020010	0.063867
C55	C	0.371533	-0.523522	-0.439063
C56	C	0.871533	-0.023522	0.060937
C57	C	0.410021	-0.471655	-0.395677
C58	C	0.910021	0.028345	0.104323
N59	N	0.519405	-0.428950	-0.359945
N60	N	1.019405	0.071050	0.140055
N61	N	0.485034	-0.475247	-0.398682
N62	N	0.985034	0.024753	0.101318
C63	C	1.001799	-0.661563	-0.379256
C64	C	1.501799	-0.161563	0.120744
C65	C	1.001834	-0.751186	-0.379268
C66	C	1.501834	-0.251186	0.120732
C67	C	1.001954	-1.079371	-0.379346
C68	C	1.501954	-0.579371	0.120654
C69	C	1.001918	-0.988060	-0.379327
C70	C	1.501918	-0.488060	0.120673
C71	C	1.001894	-0.915281	-0.379307
C72	C	1.501894	-0.415281	0.120693
C73	C	1.001859	-0.823965	-0.379288
C74	C	1.501859	-0.323965	0.120712
C75	C	1.185146	-0.460881	-0.386662
C76	C	1.685146	0.039119	0.113338
C77	C	1.263249	-0.464634	-0.389805
C78	C	1.763249	0.035366	0.110195
C79	C	0.994535	-0.460123	-0.562568
C80	C	1.494535	0.039877	-0.062568
C81	C	0.991412	-0.463552	-0.640671
C82	C	1.491412	0.036448	-0.140671
C83	C	1.001948	-0.241774	-0.379336
C84	C	1.501948	0.258226	0.120664
C85	C	1.001984	-0.152155	-0.379357
C86	C	1.501984	0.347845	0.120643
C87	C	1.034901	-0.415760	-0.679185
C88	C	1.534901	0.084240	-0.179185
C89	C	1.031958	-0.418978	-0.752571
C90	C	1.531958	0.081022	-0.252571
C91	C	0.985529	-0.469993	-0.787441
C92	C	1.485529	0.030007	-0.287441
C93	C	0.942035	-0.517786	-0.748922
C94	C	1.442035	-0.017786	-0.248922
C95	C	0.944975	-0.514563	-0.675537
C96	C	1.444975	-0.014563	-0.175537
C97	C	0.971911	-0.484926	-1.006722
C98	C	1.471911	0.015074	-0.506722
C99	C	0.968976	-0.488147	-1.080112
C100	C	1.468976	0.011853	-0.580112
C101	C	1.058898	-0.389338	-1.083755
C102	C	1.558898	0.110662	-0.583755
C103	C	1.061837	-0.386123	-1.010369
C104	C	1.561837	0.113877	-0.510369
C105	C	1.018341	-0.433913	-0.971856
C106	C	1.518341	0.066087	-0.471856
N107	N	0.982521	-0.473286	-0.862453
N108	N	1.482521	0.026714	-0.362453
N109	N	1.021346	-0.430616	-0.896846
N110	N	1.521346	0.069384	-0.396846
C111	C	1.009205	-0.444005	-0.196723
C112	C	1.509205	0.055995	0.303277
C113	C	1.012465	-0.440356	-0.118626
C114	C	1.512465	0.059644	0.381374
H115	H	0.604495	-0.335593	-0.281842
H116	H	1.104495	0.164407	0.218158
C117	C	1.079336	-0.366943	-0.568312
C118	C	1.579336	0.133057	-0.068312
C119	C	1.085936	-0.359680	-0.640858
C120	C	1.585936	0.140320	-0.140858
H121	H	1.110846	-0.332321	-0.544653
H122	H	1.610846	0.167679	-0.044653
H123	H	1.032615	-0.352348	-0.554390
H124	H	1.532615	0.147652	-0.054390
H125	H	1.090085	-0.421084	-0.556692
H126	H	1.590085	0.078916	-0.056692
H127	H	1.075182	-0.305540	-0.652478
H128	H	1.575182	0.194460	-0.152478
H129	H	1.132668	-0.374270	-0.654785
H130	H	1.632668	0.125730	-0.154785
C131	C	0.936482	-0.523862	-0.892617
C132	C	1.436482	-0.023862	-0.392617
C133	C	0.924106	-0.537462	-0.964394
C134	C	1.424106	-0.037462	-0.464394
H135	H	0.906965	-0.556295	-0.866485
H136	H	1.406965	-0.056295	-0.366485
H137	H	0.984166	-0.537402	-0.882492
H138	H	1.484166	-0.037402	-0.382492
H139	H	0.926698	-0.468664	-0.880196
H140	H	1.426698	0.031336	-0.380196
H141	H	0.933895	-0.592659	-0.976817
H142	H	1.433895	-0.092659	-0.476817
H143	H	0.876411	-0.523927	-0.974524
H144	H	1.376411	-0.023927	-0.474524
C145	C	0.720556	-0.537218	-0.532033
C146	C	1.220556	-0.037218	-0.032033
C147	C	0.741057	-0.552296	-0.463127
C148	C	1.241057	-0.052296	0.036873
H149	H	0.744238	-0.574790	-0.563472
H150	H	1.244238	-0.074790	-0.063472
H151	H	0.671347	-0.542550	-0.536488
H152	H	1.171347	-0.042550	-0.036488
H153	H	0.732190	-0.484090	-0.542872
H154	H	1.232190	0.015910	-0.042872
H155	H	0.729418	-0.605422	-0.452286
H156	H	1.229418	-0.105422	0.047714
H157	H	0.790277	-0.546971	-0.458670
H158	H	1.290277	-0.046971	0.041330
C159	C	0.871143	-0.498417	-1.158829
C160	C	1.371143	0.001583	-0.658829
C161	C	0.917928	-0.544219	-1.118441
C162	C	1.417928	-0.044219	-0.618441
H163	H	0.839633	-0.533033	-1.182494
H164	H	1.339633	-0.033033	-0.682494
H165	H	0.845432	-0.460743	-1.129126
H166	H	1.345432	0.039257	-0.629126
H167	H	0.896635	-0.470424	-1.192268
H168	H	1.396635	0.029576	-0.692268
H169	H	0.892436	-0.572207	-1.084998
H170	H	1.392436	-0.072207	-0.584998
H171	H	0.943641	-0.581908	-1.148147
H172	H	1.443641	-0.081908	-0.648147
C173	C	0.820393	-0.341964	-0.287167
C174	C	1.320393	0.158036	0.212833
C175	C	0.748611	-0.327191	-0.274803
C176	C	1.248611	0.172809	0.225197
H177	H	0.846512	-0.306765	-0.257727
H178	H	1.346512	0.193235	0.242273
H179	H	0.832814	-0.396233	-0.277275
H180	H	1.332814	0.103767	0.222725
H181	H	0.830535	-0.332898	-0.334882
H182	H	1.330535	0.167102	0.165118
H183	H	0.738468	-0.336263	-0.227088
H184	H	1.238468	0.163737	0.272912
H185	H	0.736186	-0.272910	-0.284689
H186	H	1.236186	0.227090	0.215311
C187	C	0.543035	-0.499502	-0.500479
C188	C	1.043035	0.000498	-0.000479
C189	C	0.587011	-0.544925	-0.456963
C190	C	1.087011	-0.044925	0.043037
H191	H	0.516924	-0.534701	-0.529926
H192	H	1.016924	-0.034701	-0.029926
H193	H	0.511749	-0.466031	-0.472474
H194	H	1.011749	0.033969	0.027526
H195	H	0.570611	-0.466977	-0.528556
H196	H	1.070611	0.033023	-0.028556
H197	H	0.559435	-0.577446	-0.428881
H198	H	1.059435	-0.077446	0.071119
H199	H	0.618301	-0.578411	-0.484970
H200	H	1.118301	-0.078411	0.015030
C201	C	0.909552	-0.553492	-0.561424
C202	C	1.409552	-0.053492	-0.061424
C203	C	0.897171	-0.567097	-0.633199
C204	C	1.397171	-0.067097	-0.133199
H205	H	0.880033	-0.585920	-0.535288
H206	H	1.380033	-0.085920	-0.035288
H207	H	0.957235	-0.567036	-0.551300
H208	H	1.457235	-0.067036	-0.051300
H209	H	0.899772	-0.498293	-0.549005
H210	H	1.399772	0.001707	-0.049005
H211	H	0.906956	-0.622295	-0.645619
H212	H	1.406956	-0.122295	-0.145619
H213	H	0.849476	-0.553558	-0.643327
H214	H	1.349476	-0.053558	-0.143327
H215	H	0.266800	-0.562235	-0.471456
H216	H	0.766800	-0.062235	0.028544
C217	C	0.360605	-0.629161	-0.527452
C218	C	0.860605	-0.129161	-0.027452
C219	C	0.409888	-0.584386	-0.489986
C220	C	0.909888	-0.084386	0.010014
H221	H	0.384286	-0.666734	-0.558890
H222	H	0.884286	-0.166734	-0.058890
H223	H	0.333194	-0.657229	-0.495642
H224	H	0.833194	-0.157229	0.004358
H225	H	0.330920	-0.593883	-0.553240
H226	H	0.830920	-0.093883	-0.053240
H227	H	0.439570	-0.619663	-0.464193
H228	H	0.939570	-0.119663	0.035807
H229	H	0.437311	-0.556316	-0.521801
H230	H	0.937311	-0.056316	-0.021801
C231	C	0.222951	-0.393270	-0.248626
C232	C	0.722951	0.106730	0.251374
C233	C	0.263369	-0.351893	-0.295515
C234	C	0.763369	0.148107	0.204485
H235	H	0.199263	-0.355682	-0.217206
H236	H	0.699263	0.144318	0.282794
H237	H	0.189538	-0.423661	-0.274046
H238	H	0.689538	0.076339	0.225954
H239	H	0.252645	-0.428520	-0.222820
H240	H	0.752645	0.071480	0.277180
H241	H	0.233674	-0.316648	-0.321326
H242	H	0.733674	0.183352	0.178674
H243	H	0.296785	-0.321489	-0.270092
H244	H	0.796785	0.178511	0.229908
C245	C	1.176996	-0.356771	-1.111156
C246	C	1.676996	0.143229	-0.611156
C247	C	1.106702	-0.336804	-1.126091
C248	C	1.606702	0.163196	-0.626091
H249	H	1.206506	-0.324338	-1.137296
H250	H	1.706506	0.175662	-0.637296
H251	H	1.185385	-0.347549	-1.062467
H252	H	1.685385	0.152451	-0.562467
H253	H	1.186769	-0.411968	-1.123589
H254	H	1.686769	0.088032	-0.623589
H255	H	1.096928	-0.281608	-1.113653
H256	H	1.596928	0.218392	-0.613653
H257	H	1.098309	-0.346020	-1.174791
H258	H	1.598309	0.153980	-0.674791
C259	C	0.371301	-0.309936	-0.260382
C260	C	0.871301	0.190064	0.239618
C261	C	0.417431	-0.359274	-0.301663
C262	C	0.917431	0.140726	0.198337
H263	H	0.397420	-0.274742	-0.230937
H264	H	0.897420	0.225258	0.269063
H265	H	0.341466	-0.279133	-0.289903
H266	H	0.841466	0.220867	0.210097
H267	H	0.343742	-0.342475	-0.232302
H268	H	0.843742	0.157525	0.267698
H269	H	0.444987	-0.326735	-0.329748
H270	H	0.944987	0.173265	0.170252
H271	H	0.447279	-0.390080	-0.272140
H272	H	0.947279	0.109920	0.227860
H273	H	1.099647	-0.344584	-0.981983
H274	H	1.599647	0.155416	-0.481983
C275	C	1.121147	-0.321000	-0.748802
C276	C	1.621147	0.179000	-0.248802
C277	C	1.079768	-0.366450	-0.794905
C278	C	1.579768	0.133550	-0.294905
H279	H	1.150666	-0.288574	-0.774939
H280	H	1.650666	0.211426	-0.274939
H281	H	1.091693	-0.287429	-0.718954
H282	H	1.591693	0.212571	-0.218954
H283	H	1.149153	-0.356177	-0.721253
H284	H	1.649153	0.143823	-0.221253
H285	H	1.051758	-0.331273	-0.822451
H286	H	1.551758	0.168727	-0.322451
H287	H	1.109225	-0.400024	-0.824765
H288	H	1.609225	0.099976	-0.324765
H289	H	0.904228	-0.559320	-0.777319
H290	H	1.404228	-0.059320	-0.277319
