data_functionalizedCrystal
_audit_creation_method	'MofGen! by Chris Wilmer'
_symmetry_space_group_name_H-M	'P1'
_symmetry_Int_Tables_number	1
_symmetry_cell_setting	triclinic
loop_
_symmetry_equiv_pos_as_xyz
  x,y,z
_cell_length_a	21.395362
_cell_length_b	19.805405
_cell_length_c	21.395355
_cell_angle_alpha	89.980090
_cell_angle_beta	89.956060
_cell_angle_gamma	90.042288
loop_
_atom_site_label
_atom_site_type_symbol
_atom_site_fract_x
_atom_site_fract_y
_atom_site_fract_z
Zn1	Zn	0.957878	-0.269255	-0.354580
Zn2	Zn	1.291212	0.064079	-0.021246
Zn3	Zn	1.624545	0.397412	0.312087
Zn4	Zn	0.957789	-0.382425	-0.249800
Zn5	Zn	1.291122	-0.049091	0.083534
Zn6	Zn	1.624455	0.284242	0.416867
Zn7	Zn	0.853093	-0.269286	-0.249781
Zn8	Zn	1.186426	0.064047	0.083553
Zn9	Zn	1.519760	0.397380	0.416886
Zn10	Zn	0.853070	-0.382438	-0.354504
Zn11	Zn	1.186403	-0.049105	-0.021171
Zn12	Zn	1.519737	0.284228	0.312162
O13	O	0.905458	-0.325851	-0.302166
O14	O	1.238791	0.007482	0.031167
O15	O	1.572124	0.340816	0.364501
O16	O	1.045544	-0.284248	-0.340720
O17	O	1.378878	0.049085	-0.007386
O18	O	1.712211	0.382419	0.325947
O19	O	0.943873	-0.367424	-0.162119
O20	O	1.277206	-0.034091	0.171214
O21	O	1.610539	0.299243	0.504548
O22	O	0.867040	-0.174565	-0.263706
O23	O	1.200374	0.158768	0.069627
O24	O	1.533707	0.492101	0.402960
O25	O	1.045478	-0.367393	-0.263738
O26	O	1.378812	-0.034060	0.069595
O27	O	1.712145	0.299273	0.402929
O28	O	0.944025	-0.174542	-0.340701
O29	O	1.277359	0.158791	-0.007368
O30	O	1.610692	0.492124	0.325965
O31	O	0.866953	-0.284302	-0.162105
O32	O	1.200287	0.049032	0.171228
O33	O	1.533620	0.382365	0.504561
O34	O	0.765412	-0.284315	-0.263633
O35	O	1.098746	0.049018	0.069700
O36	O	1.432079	0.382352	0.403033
O37	O	0.867001	-0.367417	-0.442192
O38	O	1.200334	-0.034084	-0.108859
O39	O	1.533668	0.299250	0.224475
O40	O	0.765395	-0.367448	-0.340573
O41	O	1.098729	-0.034114	-0.007240
O42	O	1.432062	0.299219	0.326094
O43	O	0.944003	-0.284261	-0.442247
O44	O	1.277336	0.049072	-0.108914
O45	O	1.610670	0.382405	0.224419
O46	O	0.943850	-0.477143	-0.263665
O47	O	1.277184	-0.143810	0.069668
O48	O	1.610517	0.189524	0.403002
O49	O	0.866914	-0.477153	-0.340591
O50	O	1.200247	-0.143820	-0.007258
O51	O	1.533581	0.189513	0.326075
C52	C	0.742670	-0.325887	-0.302093
C53	C	1.076003	0.007447	0.031240
C54	C	1.409336	0.340780	0.364573
C55	C	0.673029	-0.325918	-0.302077
C56	C	1.006362	0.007415	0.031256
C57	C	1.339695	0.340748	0.364590
C58	C	0.905387	-0.501707	-0.302136
C59	C	1.238720	-0.168374	0.031198
C60	C	1.572054	0.164960	0.364531
C61	C	0.905414	-0.576939	-0.302144
C62	C	1.238748	-0.243606	0.031190
C63	C	1.572081	0.089728	0.364523
C64	C	0.640323	-0.369263	-0.342080
C65	C	0.973656	-0.035930	-0.008746
C66	C	1.306990	0.297404	0.324587
C67	C	0.574888	-0.369246	-0.342108
C68	C	0.908221	-0.035913	-0.008774
C69	C	1.241554	0.297420	0.324559
C70	C	0.542160	-0.325892	-0.302122
C71	C	0.875494	0.007441	0.031212
C72	C	1.208827	0.340774	0.364545
C73	C	0.574874	-0.282539	-0.262116
C74	C	0.908207	0.050794	0.071217
C75	C	1.241540	0.384127	0.404550
C76	C	0.640308	-0.282553	-0.262094
C77	C	0.973641	0.050781	0.071239
C78	C	1.306974	0.384114	0.404573
C79	C	0.438435	-0.320440	-0.245717
C80	C	0.771768	0.012894	0.087617
C81	C	1.105102	0.346227	0.420950
C82	C	0.373002	-0.320431	-0.245738
C83	C	0.706336	0.012902	0.087595
C84	C	1.039669	0.346235	0.420929
C85	C	0.340340	-0.325848	-0.302191
C86	C	0.673673	0.007485	0.031142
C87	C	1.007006	0.340818	0.364476
C88	C	0.373118	-0.331287	-0.358624
C89	C	0.706451	0.002046	-0.025291
C90	C	1.039785	0.335379	0.308042
C91	C	0.438552	-0.331301	-0.358602
C92	C	0.771885	0.002033	-0.025269
C93	C	1.105219	0.335366	0.308065
C94	C	0.471208	-0.325873	-0.302142
C95	C	0.804541	0.007460	0.031192
C96	C	1.137875	0.340794	0.364525
C97	C	0.236682	-0.369177	-0.342227
C98	C	0.570015	-0.035844	-0.008894
C99	C	0.903348	0.297490	0.324440
C100	C	0.171245	-0.369156	-0.342256
C101	C	0.504578	-0.035822	-0.008923
C102	C	0.837912	0.297511	0.324411
C103	C	0.171232	-0.282452	-0.262259
C104	C	0.504566	0.050881	0.071074
C105	C	0.837899	0.384214	0.404407
C106	C	0.236668	-0.282470	-0.262236
C107	C	0.570001	0.050863	0.071097
C108	C	0.903334	0.384196	0.404431
C109	C	0.269388	-0.325836	-0.302219
C110	C	0.602722	0.007497	0.031114
C111	C	0.936055	0.340831	0.364448
C112	C	0.945514	-0.612255	-0.262130
C113	C	1.278847	-0.278922	0.071203
C114	C	1.612180	0.054411	0.404536
C115	C	0.945540	-0.682944	-0.262144
C116	C	1.278874	-0.349610	0.071189
C117	C	1.612207	-0.016277	0.404523
C118	C	0.905464	-0.718315	-0.302169
C119	C	1.238797	-0.384981	0.031165
C120	C	1.572130	-0.051648	0.364498
C121	C	0.865362	-0.682993	-0.342187
C122	C	1.198696	-0.349660	-0.008853
C123	C	1.532029	-0.016327	0.324480
C124	C	0.865339	-0.612306	-0.342175
C125	C	1.198673	-0.278973	-0.008842
C126	C	1.532006	0.054361	0.324491
C127	C	0.865455	-0.968067	-0.342233
C128	C	1.198788	-0.634733	-0.008900
C129	C	1.532122	-0.301400	0.324434
C130	C	0.865480	-1.038759	-0.342240
C131	C	1.198813	-0.705425	-0.008906
C132	C	1.532146	-0.372092	0.324427
C133	C	0.945656	-1.038704	-0.262202
C134	C	1.278989	-0.705371	0.071132
C135	C	1.612322	-0.372037	0.404465
C136	C	0.945633	-0.968017	-0.262191
C137	C	1.278966	-0.634684	0.071143
C138	C	1.612299	-0.301350	0.404476
C139	C	0.905534	-0.932702	-0.302210
C140	C	1.238867	-0.599369	0.031123
C141	C	1.572201	-0.266035	0.364456
C142	C	0.905507	-0.856053	-0.302196
C143	C	1.238840	-0.522720	0.031138
C144	C	1.572173	-0.189387	0.364471
C145	C	0.905488	-0.794962	-0.302181
C146	C	1.238821	-0.461628	0.031153
C147	C	1.572154	-0.128295	0.364486
C148	C	1.068881	-0.325816	-0.302239
C149	C	1.402214	0.007518	0.031094
C150	C	1.735548	0.340851	0.364427
C151	C	1.138522	-0.325800	-0.302271
C152	C	1.471855	0.007533	0.031063
C153	C	1.805189	0.340866	0.364396
C154	C	0.905510	-0.325837	-0.465589
C155	C	1.238843	0.007496	-0.132256
C156	C	1.572176	0.340829	0.201077
C157	C	0.905532	-0.325831	-0.535231
C158	C	1.238865	0.007502	-0.201897
C159	C	1.572198	0.340835	0.131436
C160	C	0.905545	-0.149308	-0.302210
C161	C	1.238879	0.184025	0.031123
C162	C	1.572212	0.517358	0.364456
C163	C	0.905583	-0.074076	-0.302229
C164	C	1.238916	0.259257	0.031104
C165	C	1.572249	0.592590	0.364438
C166	C	0.945625	-0.282530	-0.567974
C167	C	1.278958	0.050803	-0.234640
C168	C	1.612292	0.384136	0.098693
C169	C	0.945624	-0.282501	-0.633409
C170	C	1.278957	0.050832	-0.300076
C171	C	1.612291	0.384165	0.033258
C172	C	0.905537	-0.325785	-0.666099
C173	C	1.238870	0.007548	-0.332766
C174	C	1.572203	0.340881	0.000568
C175	C	0.865436	-0.369089	-0.633348
C176	C	1.198769	-0.035756	-0.300015
C177	C	1.532102	0.297577	0.033318
C178	C	0.865433	-0.369112	-0.567914
C179	C	1.198766	-0.035779	-0.234581
C180	C	1.532100	0.297554	0.098753
C181	C	0.900565	-0.386731	-0.769762
C182	C	1.233898	-0.053398	-0.436428
C183	C	1.567232	0.279936	-0.103095
C184	C	0.900572	-0.386709	-0.835195
C185	C	1.233905	-0.053376	-0.501861
C186	C	1.567238	0.279958	-0.168528
C187	C	0.905540	-0.325714	-0.867920
C188	C	1.238874	0.007620	-0.534587
C189	C	1.572207	0.340953	-0.201253
C190	C	0.910516	-0.264738	-0.835204
C191	C	1.243849	0.068595	-0.501871
C192	C	1.577182	0.401928	-0.168538
C193	C	0.910513	-0.264762	-0.769770
C194	C	1.243846	0.068572	-0.436437
C195	C	1.577180	0.401905	-0.103103
C196	C	0.905534	-0.325765	-0.737051
C197	C	1.238868	0.007569	-0.403718
C198	C	1.572201	0.340902	-0.070385
C199	C	0.945635	-0.282378	-0.971615
C200	C	1.278968	0.050956	-0.638282
C201	C	1.612302	0.384289	-0.304949
C202	C	0.945630	-0.282347	-1.037052
C203	C	1.278963	0.050986	-0.703719
C204	C	1.612296	0.384319	-0.370385
C205	C	0.865444	-0.368941	-1.036990
C206	C	1.198778	-0.035608	-0.703657
C207	C	1.532111	0.297725	-0.370323
C208	C	0.865446	-0.368966	-0.971555
C209	C	1.198780	-0.035632	-0.638221
C210	C	1.532113	0.297701	-0.304888
C211	C	0.905545	-0.325685	-0.938871
C212	C	1.238878	0.007649	-0.605538
C213	C	1.572212	0.340982	-0.272205
C214	C	0.905442	-0.325816	-0.139378
C215	C	1.238775	0.007518	0.193955
C216	C	1.572108	0.340851	0.527288
C217	C	0.905541	-0.325631	-0.069738
C218	C	1.238874	0.007702	0.263596
C219	C	1.572208	0.341036	0.596929
H220	H	0.666960	-0.404574	-0.374638
H221	H	1.000294	-0.071240	-0.041305
H222	H	1.333627	0.262093	0.292029
H223	H	0.896524	-0.436359	-0.861827
H224	H	1.229858	-0.103026	-0.528493
H225	H	1.563191	0.230308	-0.195160
Cl226	Cl	0.815026	-0.423553	-0.526749
Cl227	Cl	1.148360	-0.090220	-0.193416
Cl228	Cl	1.481693	0.243114	0.139917
Cl229	Cl	0.916765	-0.188053	-0.876337
Cl230	Cl	1.250098	0.145280	-0.543004
Cl231	Cl	1.583432	0.478613	-0.209670
H232	H	0.978282	-0.247132	-0.945003
H233	H	1.311615	0.086201	-0.611670
H234	H	1.644949	0.419535	-0.278337
H235	H	0.832798	-0.404177	-1.063606
H236	H	1.166131	-0.070844	-0.730272
H237	H	1.499465	0.262490	-0.396939
Cl238	Cl	0.479757	-0.338134	-0.429544
Cl239	Cl	0.813090	-0.004800	-0.096210
Cl240	Cl	1.146424	0.328533	0.237123
H241	H	0.666936	-0.247254	-0.229519
H242	H	1.000270	0.086079	0.103814
H243	H	1.333603	0.419412	0.437148
H244	H	0.832802	-0.404230	-0.944895
H245	H	1.166135	-0.070897	-0.611562
H246	H	1.499469	0.262437	-0.278228
Cl247	Cl	0.996047	-0.227917	-1.078215
Cl248	Cl	1.329381	0.105416	-0.744882
Cl249	Cl	1.662714	0.438749	-0.411549
Cl250	Cl	0.995895	-0.567796	-0.211806
Cl251	Cl	1.329228	-0.234463	0.121527
Cl252	Cl	1.662561	0.098870	0.454860
Cl253	Cl	0.916762	-0.188111	-0.728644
Cl254	Cl	1.250096	0.145223	-0.395311
Cl255	Cl	1.583429	0.478556	-0.061977
Cl256	Cl	0.814984	-0.727460	-0.392507
Cl257	Cl	1.148317	-0.394126	-0.059174
Cl258	Cl	1.481650	-0.060793	0.274159
H259	H	0.548254	-0.404542	-0.374685
H260	H	0.881587	-0.071209	-0.041352
H261	H	1.214920	0.262124	0.291982
H262	H	0.346526	-0.335697	-0.404594
H263	H	0.679859	-0.002364	-0.071261
H264	H	1.013192	0.330969	0.262073
Cl265	Cl	0.277819	-0.423689	-0.392494
Cl266	Cl	0.611153	-0.090355	-0.059161
Cl267	Cl	0.944486	0.242978	0.274172
Cl268	Cl	0.996031	-0.228116	-0.526889
Cl269	Cl	1.329364	0.105217	-0.193556
Cl270	Cl	1.662697	0.438550	0.139777
H271	H	0.978265	-0.939220	-0.229597
H272	H	1.311598	-0.605887	0.103737
H273	H	1.644931	-0.272554	0.437070
H274	H	0.832687	-0.583552	-0.374759
H275	H	1.166020	-0.250219	-0.041426
H276	H	1.499354	0.083114	0.291907
Cl277	Cl	0.130129	-0.423647	-0.392554
Cl278	Cl	0.463462	-0.090314	-0.059220
Cl279	Cl	0.796795	0.243019	0.274113
Cl280	Cl	0.533732	-0.228034	-0.211851
Cl281	Cl	0.867065	0.105299	0.121482
Cl282	Cl	1.200398	0.438633	0.454815
Cl283	Cl	0.996070	-1.083105	-0.211893
Cl284	Cl	1.329403	-0.749771	0.121440
Cl285	Cl	1.662737	-0.416438	0.454773
H286	H	0.346319	-0.316007	-0.199786
H287	H	0.679652	0.017327	0.133547
H288	H	1.012986	0.350660	0.466880
H289	H	0.832794	-0.404329	-0.659969
H290	H	1.166127	-0.070996	-0.326635
H291	H	1.499461	0.262337	0.006698
H292	H	0.144586	-0.247150	-0.229705
H293	H	0.477920	0.086184	0.103628
H294	H	0.811253	0.419517	0.436962
H295	H	0.978193	-0.711695	-0.229561
H296	H	1.311526	-0.378362	0.103773
H297	H	1.644860	-0.045029	0.437106
Cl298	Cl	0.815095	-1.083224	-0.392562
Cl299	Cl	1.148428	-0.749891	-0.059228
Cl300	Cl	1.481762	-0.416557	0.274105
H301	H	0.263297	-0.247178	-0.229658
H302	H	0.596630	0.086156	0.103675
H303	H	0.929963	0.419489	0.437008
H304	H	0.832804	-0.939318	-0.374817
H305	H	1.166137	-0.605985	-0.041484
H306	H	1.499471	-0.272652	0.291849
Cl307	Cl	0.996018	-0.228048	-0.674580
Cl308	Cl	1.329352	0.105285	-0.341247
Cl309	Cl	1.662685	0.438619	-0.007914
H310	H	0.465024	-0.316026	-0.199743
H311	H	0.798357	0.017308	0.133591
H312	H	1.131690	0.350641	0.466924
H313	H	0.896351	-0.436388	-0.743122
H314	H	1.229684	-0.103055	-0.409789
H315	H	1.563018	0.230278	-0.076455
