data_functionalizedCrystal
_audit_creation_method	'MofGen! by Chris Wilmer'
_symmetry_space_group_name_H-M	'P1'
_symmetry_Int_Tables_number	1
_symmetry_cell_setting	triclinic
loop_
_symmetry_equiv_pos_as_xyz
  x,y,z
_cell_length_a	15.944551
_cell_length_b	16.109298
_cell_length_c	15.021413
_cell_angle_alpha	90.006795
_cell_angle_beta	90.011299
_cell_angle_gamma	83.479463
loop_
_atom_site_label
_atom_site_type_symbol
_atom_site_fract_x
_atom_site_fract_y
_atom_site_fract_z
O1	O	-1.114474	-0.107222	0.073928
O2	O	-0.869920	-0.120442	0.073949
O3	O	-0.998917	0.007197	0.073945
O4	O	-0.985478	-0.234861	0.073933
O5	O	-0.998932	0.007189	-0.074120
O6	O	-0.869935	-0.120450	-0.074115
O7	O	-1.114489	-0.107230	-0.074136
Zn8	Zn	-0.992215	-0.113842	-0.097634
Zn9	Zn	-0.992195	-0.113831	0.097447
O10	O	-0.985493	-0.234869	-0.074131
C11	C	-0.838634	-0.119898	-0.000080
C12	C	-0.745389	-0.118252	-0.000072
C13	C	-0.998380	0.038168	-0.000084
C14	C	-0.996750	0.130464	-0.000073
C15	C	-1.145776	-0.107775	-0.000105
C16	C	-1.239021	-0.109420	-0.000107
C17	C	-0.530560	-0.035203	-0.000085
C18	C	-0.469520	-0.073764	0.072917
C19	C	-0.574664	-0.115276	-0.000082
C20	C	-0.469557	-0.073791	-0.073063
C21	C	-0.409752	-0.112395	-0.000096
C22	C	-0.514851	-0.153859	0.072980
C23	C	-0.514895	-0.153875	-0.073065
C24	C	-0.453871	-0.192494	-0.000046
C25	C	-0.669665	-0.116933	-0.000073
C26	C	-0.314751	-0.110743	-0.000098
C27	C	-0.986029	-0.265840	-0.000101
C28	C	-0.987660	-0.358136	-0.000105
N29	N	-0.992234	-0.113848	-0.230771
C30	C	-0.991420	0.429539	0.080618
C31	C	-0.992964	0.342818	0.080624
C32	C	-0.992992	0.342795	-0.080803
C33	C	-0.991455	0.429515	-0.080809
C34	C	-0.990664	0.472884	-0.000095
C35	C	-0.993745	0.299444	-0.000084
C36	C	-0.995419	0.205418	-0.000078
C37	C	-0.988992	0.566916	-0.000101
C38	C	-1.051894	-0.054814	-0.470433
C39	C	-0.976000	-0.038663	-0.529754
C40	C	-0.992215	-0.113838	-0.412378
C41	C	-1.068090	-0.129940	-0.529799
C42	C	-0.992203	-0.113826	-0.587802
C43	C	-0.916282	-0.097650	-0.470393
C44	C	-1.008423	-0.188959	-0.470432
C45	C	-0.932474	-0.172840	-0.529727
C46	C	-0.992223	-0.113843	-0.311321
C47	C	-0.992186	-0.113822	-0.688858
N48	N	-0.992182	-0.113818	0.230585
H49	H	-0.449415	-0.039893	0.134638
C50	C	-0.993801	0.295550	-0.168339
C51	C	-0.995284	0.210324	-0.151061
C52	C	-0.996016	0.166777	-0.231678
H53	H	-1.042496	0.315994	-0.201571
H54	H	-0.944582	0.303369	-0.201508
H55	H	-1.044498	0.202510	-0.117906
H56	H	-0.946594	0.189856	-0.117842
H57	H	-0.946797	0.174595	-0.264848
H58	H	-1.044711	0.187227	-0.264904
H59	H	-0.997015	0.108945	-0.219966
C60	C	-0.990654	0.476734	-0.168353
C61	C	-0.989156	0.561964	-0.151080
C62	C	-0.988425	0.605489	-0.231699
H63	H	-0.941965	0.456275	-0.201571
H64	H	-1.039879	0.468915	-0.201536
H65	H	-0.939937	0.569778	-0.117911
H66	H	-1.037841	0.582447	-0.117875
H67	H	-1.037650	0.597670	-0.264882
H68	H	-0.939735	0.585023	-0.264911
H69	H	-0.987417	0.663323	-0.219990
H70	H	-0.881945	-0.222752	-0.555597
H71	H	-0.535021	-0.187717	-0.134789
H72	H	-0.852096	-0.083953	-0.444409
C73	C	-0.957567	0.046048	-0.564381
C74	C	-0.878703	0.063312	-0.532971
C75	C	-0.861706	0.141346	-0.564837
H76	H	-0.957118	0.045372	-0.627612
H77	H	-0.999982	0.087953	-0.544057
H78	H	-0.836299	0.021418	-0.553300
H79	H	-0.879132	0.064005	-0.469744
H80	H	-0.904120	0.183251	-0.544513
H81	H	-0.861261	0.140663	-0.628066
H82	H	-0.808199	0.153074	-0.543523
C83	C	-0.574972	0.053431	0.000200
C84	C	-0.552125	0.094974	0.076822
C85	C	-0.593034	0.176617	0.077127
H86	H	-0.558855	0.082266	-0.051073
H87	H	-0.634346	0.051794	-0.000280
H88	H	-0.492765	0.096615	0.077294
H89	H	-0.568244	0.066164	0.128107
H90	H	-0.652407	0.174980	0.076647
H91	H	-0.576913	0.205444	0.025851
H92	H	-0.577544	0.204812	0.129118
C93	C	-0.541644	-0.198911	0.155336
C94	C	-0.629336	-0.199875	0.154412
C95	C	-0.654050	-0.241356	0.230268
H96	H	-0.514779	-0.254647	0.155622
H97	H	-0.525799	-0.170648	0.207139
H98	H	-0.645172	-0.228139	0.102622
H99	H	-0.656221	-0.144151	0.154139
H100	H	-0.638206	-0.213093	0.282071
H101	H	-0.627181	-0.297089	0.230547
H102	H	-0.713552	-0.242008	0.229655
H103	H	-0.449488	-0.039912	-0.134778
C104	C	-0.990595	0.476480	0.168340
C105	C	-0.991601	0.419956	0.239026
C106	C	-0.990846	0.463166	0.319850
H107	H	-0.941048	0.503966	0.171809
H108	H	-1.038961	0.516641	0.171755
H109	H	-0.943240	0.379810	0.235613
H110	H	-1.041144	0.392468	0.235586
H111	H	-1.039212	0.503327	0.323264
H112	H	-0.941299	0.490650	0.323310
H113	H	-0.991536	0.424822	0.367820
H114	H	-0.420690	-0.259017	-0.000008
H115	H	-1.022167	-0.252472	-0.444355
C116	C	-1.153742	-0.148021	-0.564427
C117	C	-1.215981	-0.086062	-0.534345
C118	C	-1.294898	-0.102700	-0.566196
H119	H	-1.153118	-0.148387	-0.627659
H120	H	-1.165685	-0.200971	-0.543191
H121	H	-1.204040	-0.033125	-0.555586
H122	H	-1.216631	-0.085686	-0.471118
H123	H	-1.306841	-0.155650	-0.544959
H124	H	-1.294265	-0.103066	-0.629426
H125	H	-1.337137	-0.060668	-0.545783
H126	H	-0.993580	0.307531	0.146349
H127	H	-1.102310	-0.004873	-0.444397
