data_functionalizedCrystal
_audit_creation_method	'MofGen! by Chris Wilmer'
_symmetry_space_group_name_H-M	'P1'
_symmetry_Int_Tables_number	1
_symmetry_cell_setting	triclinic
loop_
_symmetry_equiv_pos_as_xyz
  x,y,z
_cell_length_a	10.654541
_cell_length_b	15.995292
_cell_length_c	9.130307
_cell_angle_alpha	89.999900
_cell_angle_beta	89.999822
_cell_angle_gamma	83.976272
loop_
_atom_site_label
_atom_site_type_symbol
_atom_site_fract_x
_atom_site_fract_y
_atom_site_fract_z
O1	O	1.666266	0.117595	-0.121743
O2	O	1.300637	0.128801	-0.121755
O3	O	1.493484	0.001365	-0.121751
O4	O	1.473418	0.245031	-0.121747
O5	O	1.493478	0.001364	0.121848
O6	O	1.300630	0.128800	0.121844
O7	O	1.666259	0.117593	0.121856
Cu8	Cu	1.483444	0.123197	0.144093
Cu9	Cu	1.483452	0.123198	-0.143992
O10	O	1.473412	0.245029	0.121852
C11	C	1.253847	0.127978	0.000043
C12	C	1.114436	0.125518	0.000038
C13	C	1.084427	0.277902	0.000022
C14	C	1.003929	0.352935	0.000008
C15	C	0.872942	0.350618	0.000007
C16	C	0.822451	0.273260	0.000024
C17	C	0.902949	0.198227	0.000038
C18	C	1.033938	0.200552	0.000035
C19	C	0.932958	0.045844	0.000064
C20	C	1.063946	0.048159	0.000055
C21	C	0.882468	-0.031514	0.000081
C22	C	0.962966	-0.106549	0.000084
C23	C	1.093960	-0.104228	0.000084
C24	C	1.144443	-0.026873	0.000069
C25	C	1.492664	-0.029836	0.000045
C26	C	1.490216	-0.122803	0.000034
C27	C	1.481215	-0.460594	0.000047
C28	C	1.620407	-0.436474	0.000596
C29	C	1.623052	-0.339783	0.000041
C30	C	1.485681	-0.293012	0.000041
C31	C	1.416095	-0.322516	-0.139063
C32	C	1.414420	-0.419316	-0.139175
C33	C	1.411570	-0.419191	0.137843
C34	C	1.416728	-0.322669	0.139676
C35	C	1.488198	-0.198301	0.000033
C36	C	1.478694	-0.555304	0.000045
C37	C	1.713050	0.118416	0.000055
C38	C	1.852460	0.120877	0.000050
C39	C	1.474232	0.276230	0.000053
C40	C	1.476680	0.369198	0.000054
N41	N	1.483448	0.123195	0.346715
N42	N	1.483458	0.123193	-0.346614
C43	C	1.654284	0.010383	0.346709
C44	C	1.739710	-0.046020	0.423372
C45	C	1.739722	-0.046020	0.576706
C46	C	1.654297	0.010387	0.653379
C47	C	1.568871	0.066790	0.576716
C48	C	1.568870	0.066786	0.423379
C49	C	1.398032	0.179596	0.576722
C50	C	1.398023	0.179602	0.423389
C51	C	1.312607	0.236004	0.653396
C52	C	1.227184	0.292412	0.576732
C53	C	1.227176	0.292411	0.423390
C54	C	1.312597	0.236006	0.346725
H55	H	1.191082	0.279797	-0.000009
Cl56	Cl	1.260026	-0.274217	-0.147063
Cl57	Cl	1.488843	-0.460291	-0.299709
H58	H	1.045053	0.415919	-0.000002
H59	H	1.312363	-0.434458	-0.145477
Cl60	Cl	1.490710	-0.291117	-0.298896
Cl61	Cl	1.195148	-0.198562	0.000113
Cl62	Cl	0.771741	0.444945	0.000003
H63	H	0.715793	0.271380	0.000040
Cl64	Cl	1.707162	-0.309916	0.154014
H65	H	1.251098	-0.024977	0.000052
Cl66	Cl	0.717797	-0.034427	0.000086
Cl67	Cl	1.703244	-0.479219	0.154616
Cl68	Cl	1.702790	-0.480793	-0.152553
H69	H	1.654293	0.010385	0.221857
Cl70	Cl	1.494945	-0.293544	0.298565
H71	H	1.809260	-0.091948	0.360931
Cl72	Cl	1.261917	-0.272669	0.152649
Cl73	Cl	0.899485	-0.203788	0.000118
H74	H	1.809279	-0.091952	0.639125
Cl75	Cl	1.707692	-0.310869	-0.154181
H76	H	1.312603	0.236003	0.221873
H77	H	1.455402	-0.447026	0.243284
Cl78	Cl	1.253389	-0.441710	0.139295
H79	H	1.654302	0.010376	0.778231
Cl80	Cl	1.312614	0.236001	0.846159
H81	H	1.157632	0.338331	0.639169
H82	H	1.157608	0.338338	0.360978
