data_functionalizedCrystal
_audit_creation_method	'MofGen! by Chris Wilmer'
_symmetry_space_group_name_H-M	'P1'
_symmetry_Int_Tables_number	1
_symmetry_cell_setting	triclinic
loop_
_symmetry_equiv_pos_as_xyz
  x,y,z
_cell_length_a	15.995292
_cell_length_b	15.995350
_cell_length_c	14.472311
_cell_angle_alpha	89.992543
_cell_angle_beta	89.994888
_cell_angle_gamma	83.480495
loop_
_atom_site_label
_atom_site_type_symbol
_atom_site_fract_x
_atom_site_fract_y
_atom_site_fract_z
O1	O	1.111015	0.107701	-0.076861
O2	O	0.867233	0.121079	-0.076857
O3	O	0.995787	-0.007499	-0.076858
O4	O	0.982460	0.236279	-0.076860
O5	O	0.995779	-0.007515	0.076824
O6	O	0.867224	0.121063	0.076825
O7	O	1.111006	0.107685	0.076821
Cu8	Cu	0.989114	0.114372	0.090855
Cu9	Cu	0.989124	0.114392	-0.090892
O10	O	0.982451	0.236263	0.076822
C11	C	0.836033	0.120527	-0.000016
C12	C	0.743080	0.118894	-0.000014
C13	C	0.405341	0.112893	-0.000025
C14	C	0.428654	0.205697	-0.000368
C15	C	0.525329	0.207461	-0.000018
C16	C	0.572897	0.115871	-0.000020
C17	C	0.543791	0.069464	0.087737
C18	C	0.447000	0.068347	0.087807
C19	C	0.447154	0.066470	-0.086958
C20	C	0.543647	0.069909	-0.088114
C21	C	0.667593	0.117549	-0.000014
C22	C	0.310646	0.111212	-0.000024
C23	C	0.995232	-0.038702	-0.000019
C24	C	0.993580	-0.131652	-0.000024
C25	C	0.987648	-0.469398	-0.000021
C26	C	0.896094	-0.421945	-0.000364
C27	C	0.897746	-0.325255	-0.000018
C28	C	0.990591	-0.301838	-0.000023
C29	C	1.035744	-0.342934	0.087734
C30	C	1.033444	-0.439570	0.087808
C31	C	1.035345	-0.439910	-0.086958
C32	C	1.035323	-0.342964	-0.088117
C33	C	0.992259	-0.207141	-0.000021
C34	C	0.985983	-0.564095	-0.000017
C35	C	1.142206	0.108237	-0.000023
C36	C	1.235159	0.109870	-0.000030
C37	C	0.983006	0.267466	-0.000019
C38	C	0.984658	0.360416	-0.000020
N39	N	0.989114	0.114358	0.218686
C40	C	0.989127	0.114385	0.592777
C41	C	1.058137	0.045815	0.553582
C42	C	1.057957	0.045562	0.446494
C43	C	0.989121	0.114372	0.407186
C44	C	0.901762	0.095309	0.446079
C45	C	0.902171	0.094824	0.553200
C46	C	1.006689	0.202220	0.553281
C47	C	1.008672	0.201631	0.446153
C48	C	0.989112	0.114366	0.302298
C49	C	0.989130	0.114389	0.697665
N50	N	0.989135	0.114398	0.781278
H51	H	0.399632	0.241263	0.062213
Br52	Br	1.110600	0.232760	0.598284
H53	H	0.961666	0.255046	0.419393
H54	H	0.400661	0.241475	-0.063303
H55	H	1.103030	-0.327616	-0.093420
Br56	Br	1.166742	0.064425	0.596495
Br57	Br	0.814102	0.176333	0.403649
Br58	Br	1.166187	0.064493	0.402659
Br59	Br	1.039711	-0.062216	0.598460
Br60	Br	1.147853	-0.492869	-0.087949
H61	H	0.862252	-0.296819	-0.062926
H62	H	0.885903	0.031982	0.419260
H63	H	0.432450	0.000302	0.091792
Br64	Br	0.980761	-0.296986	-0.196342
Br65	Br	1.115780	0.225751	0.403777
Br66	Br	0.399956	0.114836	-0.197823
H67	H	0.956366	0.253248	0.578633
H68	H	1.046736	-0.019621	0.420878
Br69	Br	0.598592	-0.041519	-0.096952
H70	H	0.544359	0.243800	-0.062928
Br71	Br	0.978551	-0.470078	0.197149
Br72	Br	0.556006	0.268375	0.105015
Br73	Br	0.835191	-0.454999	0.103626
H74	H	0.886692	0.030767	0.578196
H75	H	0.420180	0.100473	0.153408
Br76	Br	0.814010	0.174897	0.596424
H77	H	0.575659	0.002065	0.090999
Br78	Br	0.835102	-0.452803	-0.105259
H79	H	0.562220	0.103699	-0.153037
Br80	Br	0.577215	0.123151	0.196596
Br81	Br	0.423840	-0.047386	-0.087947
Br82	Br	1.145473	-0.493347	0.094450
Br83	Br	0.838173	-0.278802	0.105011
H84	H	1.004376	-0.314553	0.153044
H85	H	1.103954	-0.328823	0.090994
H86	H	1.005415	-0.460436	-0.153473
