data_functionalizedCrystal
_audit_creation_method	'MofGen! by Chris Wilmer'
_symmetry_space_group_name_H-M	'P1'
_symmetry_Int_Tables_number	1
_symmetry_cell_setting	triclinic
loop_
_symmetry_equiv_pos_as_xyz
  x,y,z
_cell_length_a	15.995355
_cell_length_b	15.995343
_cell_length_c	15.072220
_cell_angle_alpha	90.005852
_cell_angle_beta	89.991677
_cell_angle_gamma	96.508305
loop_
_atom_site_label
_atom_site_type_symbol
_atom_site_fract_x
_atom_site_fract_y
_atom_site_fract_z
O1	O	-1.110991	0.107939	0.073706
O2	O	-0.867215	0.121263	0.073728
O3	O	-0.995770	-0.007287	0.073700
O4	O	-0.982436	0.236489	0.073734
O5	O	-0.995738	-0.007280	-0.073865
O6	O	-0.867184	0.121270	-0.073837
O7	O	-1.110959	0.107946	-0.073859
Zn8	Zn	-0.989066	0.114609	-0.097277
Zn9	Zn	-0.989108	0.114600	0.097146
O10	O	-0.982404	0.236496	-0.073831
C11	C	-0.836005	0.120715	-0.000052
C12	C	-0.743055	0.119062	-0.000045
C13	C	-0.572869	0.116061	-0.000057
C14	C	-0.549526	0.023262	-0.000070
C15	C	-0.452849	0.021512	-0.000411
C16	C	-0.405311	0.113105	-0.000069
C17	C	-0.434382	0.159770	-0.084162
C18	C	-0.531174	0.160875	-0.084227
C19	C	-0.531121	0.162225	0.083589
C20	C	-0.434627	0.158795	0.084688
C21	C	-0.310613	0.111439	-0.000078
C22	C	-0.667567	0.117729	-0.000054
C23	C	-0.995204	-0.038478	-0.000085
C24	C	-0.993555	-0.131429	-0.000092
C25	C	-0.990561	-0.301615	-0.000071
C26	C	-0.897764	-0.324962	-0.000061
C27	C	-0.896019	-0.421640	0.000284
C28	C	-0.987613	-0.469175	-0.000052
C29	C	-1.034291	-0.440080	0.084041
C30	C	-1.035391	-0.343287	0.084102
C31	C	-1.036714	-0.343383	-0.083714
C32	C	-1.033288	-0.439878	-0.084809
C33	C	-0.985951	-0.563874	-0.000038
C34	C	-0.992226	-0.206917	-0.000079
C35	C	-0.142171	0.108483	-0.000078
C36	C	-0.235125	0.110104	-0.000082
C37	C	-0.982970	0.267688	-0.000044
C38	C	-0.984619	0.360638	-0.000032
N39	N	-0.989044	0.114615	-0.229966
C40	C	-0.989106	0.114597	-0.589168
C41	C	-0.920088	0.183151	-0.551546
C42	C	-0.920246	0.183401	-0.448720
C43	C	-0.989074	0.114606	-0.410964
C44	C	-1.076439	0.133689	-0.448260
C45	C	-1.076052	0.134176	-0.551117
C46	C	-0.971539	0.026757	-0.551279
C47	C	-0.969535	0.027342	-0.448415
C48	C	-0.989062	0.114610	-0.310250
C49	C	-0.989125	0.114595	-0.689881
N50	N	-0.989137	0.114587	0.229835
H51	H	-0.416084	0.124812	0.146901
N52	N	-0.566584	0.125543	0.163605
N53	N	-0.602536	0.169351	0.217080
H54	H	-0.627581	0.143450	0.273596
H55	H	-0.434400	-0.014840	-0.061055
N56	N	-1.117133	-0.481211	-0.091495
N57	N	-1.144714	-0.533162	-0.033641
H58	H	-1.203933	-0.562354	-0.038357
N59	N	-0.548697	0.247913	0.084606
N60	N	-0.591768	0.274962	0.024061
H61	H	-0.604183	0.335477	0.024771
N62	N	-0.429008	-0.024335	0.075179
N63	N	-0.392625	-0.088808	0.064838
H64	H	-0.375793	-0.121195	0.118223
H65	H	-0.578499	-0.012117	-0.060294
N66	N	-1.096308	0.213145	-0.415931
N67	N	-1.048715	0.278669	-0.432886
H68	H	-1.062741	0.334787	-0.410055
H69	H	-0.545745	0.228926	-0.087813
N70	N	-0.994163	-0.465273	0.162873
N71	N	-1.034542	-0.513117	0.217250
H72	H	-1.006199	-0.530908	0.272925
H73	H	-0.859473	-0.440662	-0.059980
H74	H	-0.855307	0.172031	-0.423505
N75	N	-0.888907	0.009179	-0.417851
N76	N	-0.824484	0.057678	-0.436618
H77	H	-0.767539	0.044854	-0.415028
H78	H	-0.861783	-0.296957	-0.060358
N79	N	-0.838361	0.169115	-0.582606
N80	N	-0.830024	0.108427	-0.632837
H81	H	-0.772302	0.098511	-0.654779
N82	N	-0.393367	0.242674	0.091323
N83	N	-0.341452	0.270267	0.033434
H84	H	-0.312340	0.329524	0.038091
N85	N	-1.095458	0.214549	-0.581182
N86	N	-1.049145	0.279710	-0.559956
H87	H	-1.062848	0.336477	-0.581183
H88	H	-1.129014	0.086214	-0.576003
N89	N	-1.120757	-0.324991	0.088575
N90	N	-1.171631	-0.350680	0.028971
H91	H	-1.231919	-0.337759	0.032133
H92	H	-1.129024	0.085086	-0.423801
N93	N	-1.034660	-0.037258	-0.581802
N94	N	-1.032112	-0.112069	-0.559038
H95	H	-1.076692	-0.157276	-0.580599
H96	H	-1.007422	-0.315116	-0.147477
N97	N	-1.118862	-0.480015	0.087663
N98	N	-1.168950	-0.469529	0.026074
H99	H	-1.228680	-0.497734	0.028630
N100	N	-0.990641	-0.463168	-0.162851
N101	N	-0.926845	-0.501204	-0.156143
H102	H	-0.896724	-0.517658	-0.211258
H103	H	-0.859681	-0.440076	0.060929
H104	H	-1.016539	-0.026062	-0.422718
H105	H	-0.557947	0.128943	-0.147336
N106	N	-0.893330	0.003765	-0.583834
N107	N	-0.826398	0.049599	-0.568041
H108	H	-0.771157	0.033371	-0.591029
N109	N	-1.122398	-0.325798	-0.084733
N110	N	-1.149454	-0.282706	-0.024191
H111	H	-1.209966	-0.270281	-0.024903
N112	N	-0.394414	0.244329	-0.087777
N113	N	-0.315989	0.258057	-0.091443
H114	H	-0.287757	0.317777	-0.093994
N115	N	-0.933970	0.264460	-0.583956
N116	N	-0.994473	0.272138	-0.634641
H117	H	-1.004280	0.329563	-0.657533
H118	H	-0.577548	-0.012708	0.060224
N119	N	-0.934272	0.265190	-0.417838
N120	N	-0.943983	0.322262	-0.472251
H121	H	-0.953875	0.380034	-0.450443
H122	H	-0.862395	-0.295976	0.060160
N123	N	-0.995348	-0.309690	0.163272
N124	N	-0.966783	-0.357752	0.218095
H125	H	-0.938500	-0.334028	0.274012
H126	H	-0.414278	0.127757	-0.146991
