data_functionalizedCrystal
_audit_creation_method	'MofGen! by Chris Wilmer'
_symmetry_space_group_name_H-M	'P1'
_symmetry_Int_Tables_number	1
_symmetry_cell_setting	triclinic
loop_
_symmetry_equiv_pos_as_xyz
  x,y,z
_cell_length_a	15.995292
_cell_length_b	7.681481
_cell_length_c	8.559649
_cell_angle_alpha	85.069100
_cell_angle_beta	76.623640
_cell_angle_gamma	95.721069
loop_
_atom_site_label
_atom_site_type_symbol
_atom_site_fract_x
_atom_site_fract_y
_atom_site_fract_z
O1	O	1.088907	-0.146467	0.220658
O2	O	0.843484	-0.146459	0.246188
O3	O	0.987818	-0.146462	0.000812
O4	O	0.944574	-0.146464	0.466033
O5	O	1.005587	0.146395	-0.029458
O6	O	0.861254	0.146398	0.215918
O7	O	1.106677	0.146390	0.190388
Zn8	Zn	0.986786	0.192892	0.198347
Zn9	Zn	0.963374	-0.192961	0.238229
O10	O	0.962343	0.146393	0.435763
C11	C	0.821240	-0.000029	0.230014
C12	C	0.728488	-0.000027	0.226898
C13	C	0.391484	-0.000047	0.215448
C14	C	0.403368	-0.000701	0.392621
C15	C	0.499868	-0.000034	0.395918
C16	C	0.558676	-0.000038	0.221130
C17	C	0.545414	0.167193	0.115300
C18	C	0.448769	0.167325	0.113154
C19	C	0.428939	-0.165708	0.143960
C20	C	0.524876	-0.167911	0.150751
C21	C	0.653166	-0.000027	0.224331
C22	C	0.296995	-0.000046	0.212240
C23	C	1.128921	-0.000043	0.206562
C24	C	1.221672	-0.000058	0.209679
N25	N	1.002771	0.456226	0.171127
C26	C	0.999980	-0.000037	-0.073854
C27	C	1.009734	-0.000047	-0.251237
N28	N	0.947398	-0.456294	0.265436
C29	C	0.950181	-0.000036	0.510430
C30	C	0.940426	-0.000037	0.687814
H31	H	0.569071	0.291648	0.163925
H32	H	0.873626	-0.000030	-0.228664
H33	H	0.377220	0.118553	0.448181
C34	C	0.375564	-0.336949	0.236599
H35	H	0.399244	-0.435308	0.191548
H36	H	0.377242	-0.342084	0.347095
H37	H	0.317272	-0.339105	0.228288
H38	H	1.076539	-0.000035	-0.334770
H39	H	1.059304	0.531430	0.074872
C40	C	0.871034	0.442139	0.395474
H41	H	0.837896	0.523325	0.451929
H42	H	0.835493	0.370230	0.345445
H43	H	0.892605	0.370213	0.469300
H44	H	0.585931	0.173408	-0.013964
C45	C	0.509724	-0.161960	0.506346
H46	H	0.454651	-0.228740	0.549596
H47	H	0.547609	-0.232718	0.445476
H48	H	0.532977	-0.124310	0.592125
H49	H	0.363706	-0.120631	0.473282
H50	H	0.425594	0.292336	0.161555
C51	C	0.528526	0.162192	0.473371
H52	H	0.587667	0.163147	0.475667
H53	H	0.521514	0.266216	0.411712
H54	H	0.494082	0.157282	0.580539
C55	C	0.441006	0.177609	-0.063318
H56	H	0.381943	0.177753	-0.065823
H57	H	0.473716	0.282686	-0.122063
H58	H	0.462563	0.078713	-0.110931
C59	C	0.534216	-0.335045	0.255113
H60	H	0.558617	-0.302673	0.341213
H61	H	0.478841	-0.400706	0.298013
H62	H	0.570972	-0.404854	0.190496
C63	C	0.579660	-0.181558	-0.020193
H64	H	0.624057	-0.084614	-0.051021
H65	H	0.604987	-0.288293	-0.020660
H66	H	0.543730	-0.180142	-0.094375
H67	H	0.423260	-0.166842	0.013716
