data_functionalizedCrystal
_audit_creation_method	'MofGen! by Chris Wilmer'
_symmetry_space_group_name_H-M	'P1'
_symmetry_Int_Tables_number	1
_symmetry_cell_setting	triclinic
loop_
_symmetry_equiv_pos_as_xyz
  x,y,z
_cell_length_a	15.944551
_cell_length_b	10.654550
_cell_length_c	14.421503
_cell_angle_alpha	89.988769
_cell_angle_beta	89.996660
_cell_angle_gamma	96.008180
loop_
_atom_site_label
_atom_site_type_symbol
_atom_site_fract_x
_atom_site_fract_y
_atom_site_fract_z
O1	O	0.117965	-1.666322	0.077190
O2	O	0.129205	-1.300699	0.077175
O3	O	0.001368	-1.493495	0.077175
O4	O	0.245802	-1.473526	0.077191
O5	O	0.001387	-1.493463	-0.077049
O6	O	0.129224	-1.300667	-0.077048
O7	O	0.117984	-1.666290	-0.077033
Cu8	Cu	0.123606	-1.483476	-0.091122
Cu9	Cu	0.123583	-1.483513	0.091265
O10	O	0.245821	-1.473494	-0.077033
C11	C	0.128389	-1.253895	0.000062
C12	C	0.125920	-1.114484	0.000056
C13	C	-0.029921	-1.492650	0.000063
C14	C	-0.123182	-1.490165	0.000062
C15	C	0.118800	-1.713094	0.000082
C16	C	0.121269	-1.852505	0.000094
C17	C	-0.338765	-1.364720	0.000070
C18	C	-0.399435	-1.422957	-0.075969
C19	C	-0.293934	-1.485669	0.000069
C20	C	-0.399437	-1.423017	0.076083
C21	C	-0.458872	-1.481317	0.000080
C22	C	-0.353376	-1.543938	-0.076033
C23	C	-0.353372	-1.543981	0.076088
C24	C	-0.414024	-1.602306	0.000030
C25	C	-0.198917	-1.488172	0.000062
C26	C	-0.553887	-1.478822	0.000080
C27	C	0.277110	-1.474339	0.000081
C28	C	0.370371	-1.476824	0.000088
N29	N	0.123621	-1.483458	-0.219404
C30	C	0.201188	-1.034024	0.000074
C31	C	0.198863	-0.903034	0.000090
C32	C	0.045995	-0.932975	0.000073
C33	C	0.048321	-1.063963	0.000051
C34	C	0.289446	-1.016737	0.000088
C35	C	0.287121	-0.885746	0.000104
C36	C	0.182706	-1.394293	-0.469057
C37	C	0.199670	-1.507771	-0.530854
C38	C	0.123601	-1.483489	-0.408565
C39	C	0.106657	-1.370041	-0.530862
C40	C	0.123584	-1.483508	-0.591287
C41	C	0.140603	-1.597023	-0.469001
C42	C	0.047557	-1.459219	-0.469004
C43	C	0.064489	-1.572778	-0.530773
C44	C	0.123613	-1.483476	-0.303304
C45	C	0.123571	-1.483534	-0.696545
N46	N	0.123561	-1.483541	0.219546
H47	H	-0.419832	-1.371787	-0.140258
H48	H	-0.016725	-1.438637	-0.441815
H49	H	0.320367	-0.843597	0.064653
O50	O	0.330641	-1.051403	-0.076842
C51	C	0.332889	-1.183340	-0.076728
H52	H	0.325304	-1.220388	-0.002715
H53	H	0.279341	-1.229492	-0.121485
C54	C	0.427241	-1.169569	-0.207028
C55	C	0.417932	-1.215071	-0.116122
H56	H	0.479697	-1.189145	-0.231332
H57	H	0.425724	-1.080681	-0.207107
H58	H	0.382612	-1.208034	-0.244314
H59	H	0.462554	-1.176595	-0.078835
H60	H	0.419459	-1.303954	-0.116038
H61	H	0.317540	-1.052043	0.066675
O62	O	0.157762	-1.711607	-0.436885
C63	C	0.169769	-1.791759	-0.512445
H64	H	0.136764	-1.757377	-0.576305
H65	H	0.240094	-1.790702	-0.527141
C66	C	0.173008	-1.969413	-0.410433
C67	C	0.132464	-1.927191	-0.488865
H68	H	0.150001	-2.052955	-0.395887
H69	H	0.164922	-1.915413	-0.359526
H70	H	0.231610	-1.968522	-0.422690
H71	H	0.073866	-1.928068	-0.476603
H72	H	0.140540	-1.981194	-0.539769
H73	H	0.014496	-1.648298	-0.557701
O74	O	0.089512	-1.255521	-0.563121
C75	C	0.078306	-1.174826	-0.487661
H76	H	0.059719	-1.233734	-0.423469
H77	H	0.139718	-1.112879	-0.473707
C78	C	0.031046	-1.018432	-0.589636
C79	C	0.008209	-1.090784	-0.510796
H80	H	-0.012190	-0.966587	-0.603907
H81	H	0.038598	-1.072796	-0.640475
H82	H	0.082223	-0.966821	-0.577997
H83	H	-0.042961	-1.142405	-0.522439
H84	H	0.000647	-1.036427	-0.459958
H85	H	-0.012970	-1.129470	0.000022
O86	O	0.242315	-1.304421	-0.436562
C87	C	0.241030	-1.304898	-0.338806
H88	H	0.176586	-1.347841	-0.313522
H89	H	0.291804	-1.363251	-0.311734
C90	C	0.337240	-1.115839	-0.333800
C91	C	0.258087	-1.168574	-0.302746
H92	H	0.347765	-1.031750	-0.311556
H93	H	0.338108	-1.115520	-0.399660
H94	H	0.379543	-1.164479	-0.311238
H95	H	0.215785	-1.119943	-0.325318
H96	H	0.257211	-1.168882	-0.236889
O97	O	0.318865	-0.830995	-0.079418
C98	C	0.271245	-0.881264	-0.155673
H99	H	0.238408	-0.978018	-0.136573
H100	H	0.221964	-0.815492	-0.174785
C101	C	0.370487	-0.775491	-0.262411
C102	C	0.330162	-0.894331	-0.238955
H103	H	0.406828	-0.783547	-0.313785
H104	H	0.402568	-0.741619	-0.211037
H105	H	0.329412	-0.720693	-0.278332
H106	H	0.371236	-0.949121	-0.223023
H107	H	0.298089	-0.928212	-0.290328
H108	H	-0.306038	-1.264327	-0.000010
H109	H	-0.419818	-1.371858	0.140373
H110	H	-0.017184	-0.891824	0.000083
O111	O	0.276376	-1.532106	-0.563385
C112	C	0.310826	-1.430199	-0.618533
H113	H	0.257879	-1.376099	-0.645638
H114	H	0.356137	-1.364486	-0.575052
C115	C	0.423801	-1.547174	-0.667604
C116	C	0.358770	-1.480734	-0.700902
H117	H	0.453379	-1.578345	-0.718412
H118	H	0.400594	-1.615830	-0.630447
H119	H	0.461552	-1.492403	-0.631370
H120	H	0.321016	-1.535509	-0.737126
H121	H	0.381972	-1.412088	-0.738067
O122	O	-0.329025	-1.604815	-0.152783
C123	C	-0.240719	-1.606400	-0.151869
H124	H	-0.210995	-1.525794	-0.106807
H125	H	-0.224426	-1.700174	-0.122468
C126	C	-0.242926	-1.689343	-0.306807
C127	C	-0.206418	-1.590335	-0.251466
H128	H	-0.221767	-1.679440	-0.368243
H129	H	-0.302421	-1.688281	-0.307422
H130	H	-0.229346	-1.767479	-0.282295
H131	H	-0.220007	-1.512204	-0.275972
H132	H	-0.146925	-1.591384	-0.250858
H133	H	-0.446602	-1.702787	-0.000009
O134	O	-0.329029	-1.604792	0.152880
C135	C	-0.352265	-1.540730	0.232895
H136	H	-0.359620	-1.438341	0.214673
H137	H	-0.414633	-1.588234	0.260641
C138	C	-0.274426	-1.670646	0.329817
C139	C	-0.283453	-1.544887	0.307438
H140	H	-0.231982	-1.673214	0.375801
H141	H	-0.258774	-1.713810	0.275910
H142	H	-0.326404	-1.710219	0.352933
H143	H	-0.231478	-1.505321	0.284311
H144	H	-0.299095	-1.501717	0.361343
