data_functionalizedCrystal
_audit_creation_method	'MofGen! by Chris Wilmer'
_symmetry_space_group_name_H-M	'P1'
_symmetry_Int_Tables_number	1
_symmetry_cell_setting	triclinic
loop_
_symmetry_equiv_pos_as_xyz
  x,y,z
_cell_length_a	18.878441
_cell_length_b	14.560438
_cell_length_c	14.560438
_cell_angle_alpha	60.001579
_cell_angle_beta	90.000064
_cell_angle_gamma	60.000434
loop_
_atom_site_label
_atom_site_type_symbol
_atom_site_fract_x
_atom_site_fract_y
_atom_site_fract_z
Zr1	Zr	0.682380	1.005306	-0.120536
O2	O	0.569275	1.196901	-0.267175
O3	O	0.717052	0.813707	-0.075586
O4	O	0.717050	1.005307	-0.267185
O5	O	0.569279	1.005301	0.075564
O6	O	0.833618	1.005312	-0.267190
O7	O	0.569277	1.005301	-0.075576
O8	O	0.833622	0.662575	0.075545
O9	O	0.569275	1.348039	-0.267172
O10	O	0.818833	0.892520	-0.056416
O11	O	0.731841	0.892516	0.056381
O12	O	0.731839	1.118101	-0.169201
O13	O	0.644847	1.118097	-0.056404
Zr14	Zr	0.868295	1.005315	0.120506
Zr15	Zr	0.868292	1.005314	-0.120544
Zr16	Zr	0.682383	1.005307	0.120514
Zr17	Zr	0.682380	1.246354	-0.120531
Zr18	Zr	0.868295	0.764268	0.120501
O19	O	0.833622	1.196914	0.075556
O20	O	0.833618	1.196913	-0.267186
O21	O	0.569279	1.196902	0.075567
O22	O	0.981400	0.813720	0.267144
O23	O	0.981395	0.813719	-0.075597
O24	O	0.717056	0.813708	0.267156
O25	O	0.981396	1.005320	-0.075594
O26	O	0.833624	1.005314	0.267154
O27	O	0.717057	1.005309	0.267159
O28	O	0.981398	1.005320	0.075545
O29	O	0.717051	1.348046	-0.267178
O30	O	0.833624	0.662576	0.267148
O31	O	0.981399	0.662582	0.267141
O32	O	0.981397	0.662582	0.075539
O33	O	0.569278	1.348039	-0.075569
O34	O	0.717053	1.348046	-0.075576
O35	O	0.818836	0.892521	0.169171
O36	O	0.905828	0.892524	0.056374
O37	O	0.818833	1.118105	-0.056412
O38	O	0.731842	1.118101	0.056386
C39	C	0.775337	0.703797	-0.000021
C40	C	0.775337	0.601466	-0.000023
C41	C	0.820744	0.553392	-0.058902
C42	C	0.820747	0.457232	-0.058891
C43	C	0.729929	0.457234	0.058879
C44	C	0.729932	0.553385	0.058874
C45	C	0.542790	1.005300	-0.000005
C46	C	0.463865	1.005296	-0.000001
C47	C	0.472194	0.887547	0.058867
C48	C	0.398033	0.887551	0.058868
C49	C	0.315544	1.005306	-0.000007
C50	C	0.307217	1.123065	-0.058878
C51	C	0.381377	1.123059	-0.058871
C52	C	0.152646	1.123068	-0.058889
C53	C	0.078481	1.123075	-0.058898
C54	C	0.169302	0.887560	0.058850
C55	C	0.243463	0.887554	0.058857
C56	C	0.235130	1.005314	-0.000016
C57	C	1.007885	1.005321	-0.000025
C58	C	1.086810	1.005325	-0.000029
C59	C	0.775334	1.005310	-0.301532
C60	C	0.775333	1.005309	-0.403863
C61	C	0.775338	1.306824	-0.000009
C62	C	0.775338	1.409155	-0.000008
C63	C	0.711120	1.005309	-0.548099
C64	C	0.711117	1.005303	-0.451944
C65	C	0.839561	1.005308	-0.451936
C66	C	0.839567	1.005305	-0.548084
C67	C	0.775341	1.005312	0.301501
C68	C	0.775342	1.005312	0.403833
C69	C	1.007885	0.703808	-0.000031
C70	C	1.086809	0.601480	-0.000036
C71	C	0.775341	0.703798	0.301496
C72	C	0.775342	0.601467	0.403826
C73	C	1.007888	0.703809	0.301485
C74	C	1.086814	0.601482	0.403812
C75	C	0.542786	1.306813	-0.301516
C76	C	0.463861	1.409140	-0.403842
C77	C	0.542790	1.306814	0.000001
C78	C	0.463866	1.409141	0.000006
C79	C	0.775334	1.306823	-0.301526
C80	C	0.775333	1.409154	-0.403856
C81	C	1.078463	0.553424	-0.058924
C82	C	1.152613	0.457290	-0.058952
C83	C	1.235110	0.409207	-0.000084
C84	C	1.243455	0.457273	0.058805
C85	C	1.169305	0.553412	0.058825
C86	C	1.169295	0.553430	0.392986
C87	C	1.243461	0.457296	0.489124
C88	C	1.235144	0.409209	0.596086
C89	C	1.152655	0.457271	0.606909
C90	C	1.078490	0.553409	0.510773
C91	C	0.381380	1.457203	-0.393017
C92	C	0.307214	1.553367	-0.489154
C93	C	0.315530	1.601459	-0.596116
C94	C	0.398020	1.553391	-0.606939
C95	C	0.472184	1.457236	-0.510803
C96	C	0.472212	1.457207	0.058884
C97	C	0.398061	1.553368	0.058885
C98	C	0.315565	1.601454	0.000014
C99	C	0.307220	1.553384	-0.058871
C100	C	0.381370	1.457231	-0.058878
C101	C	0.820752	0.553392	0.510776
C102	C	0.820743	0.457251	0.606922
C103	C	0.729913	0.457264	0.489154
C104	C	0.729917	0.553410	0.393010
H105	H	0.857717	0.592535	-0.106858
H106	H	1.145802	0.418166	-0.106906
Cl107	Cl	1.179773	0.613870	0.258532
H108	H	0.692955	0.592526	0.106826
H109	H	0.404781	1.592560	-0.694039
Cl110	Cl	0.877830	0.396804	-0.132918
Cl111	Cl	0.672857	0.396776	0.132923
Cl112	Cl	0.370862	1.396808	-0.132895
Cl113	Cl	0.142169	1.271111	-0.132899
H114	H	0.374590	1.218943	-0.106794
H115	H	0.310627	0.791668	0.106787
H116	H	0.240054	1.592487	-0.480320
H117	H	1.295481	0.330923	-0.000109
H118	H	0.692934	0.592556	0.305921
H119	H	0.011316	1.218961	-0.106839
H120	H	0.857736	0.592522	0.519588
Cl121	Cl	0.974803	0.613798	0.524402
H122	H	1.310633	0.418110	0.106733
H123	H	0.658825	1.005312	-0.587245
H124	H	1.310621	0.418174	0.480291
Cl125	Cl	0.575872	1.396815	-0.524432
H126	H	0.374591	1.418052	-0.305932
Cl127	Cl	0.672814	0.396838	0.475569
Cl128	Cl	1.179813	0.613805	0.132873
H129	H	1.145896	0.418104	0.694010
H130	H	0.255194	1.679747	0.000029
Cl131	Cl	0.222285	1.722339	-0.716964
Cl132	Cl	0.920314	1.005299	-0.608513
Cl133	Cl	0.203515	1.271101	-0.132885
Cl134	Cl	0.575891	0.739502	0.132880
Cl135	Cl	0.408509	0.739516	0.132890
H136	H	1.295541	0.330927	0.674357
H137	H	0.539378	1.418063	0.106831
Cl138	Cl	0.203503	1.613843	-0.132869
Cl139	Cl	0.179778	0.739520	0.132857
Cl140	Cl	0.408572	1.613774	0.132923
Cl141	Cl	0.920295	1.005307	-0.391489
Cl142	Cl	0.630378	1.005295	-0.391517
Cl143	Cl	0.974762	0.613856	-0.132944
H144	H	0.857719	0.418114	0.694002
