data_functionalizedCrystal
_audit_creation_method	'MofGen! by Chris Wilmer'
_symmetry_space_group_name_H-M	'P1'
_symmetry_Int_Tables_number	1
_symmetry_cell_setting	triclinic
loop_
_symmetry_equiv_pos_as_xyz
  x,y,z
_cell_length_a	6.817900
_cell_length_b	10.773972
_cell_length_c	10.773894
_cell_angle_alpha	96.486187
_cell_angle_beta	96.645922
_cell_angle_gamma	96.646171
loop_
_atom_site_label
_atom_site_type_symbol
_atom_site_fract_x
_atom_site_fract_y
_atom_site_fract_z
V1	V	-3.915801	-0.168033	-0.386968
O2	O	-3.940462	0.012792	-0.381691
O3	O	-3.834381	-0.337718	-0.382312
O4	O	-3.834380	-0.163378	-0.556655
O5	O	-3.940463	-0.162755	-0.206141
V6	V	-4.407986	-0.146649	-0.365584
O7	O	-4.158058	-0.214941	-0.433876
O8	O	-4.615927	-0.099741	-0.318676
O9	O	-4.266200	0.023037	-0.370239
O10	O	-4.500722	-0.327474	-0.370861
O11	O	-4.500721	-0.151927	-0.546410
O12	O	-4.266201	-0.151303	-0.195897
C13	C	-3.672417	-0.379149	-0.375689
C14	C	-3.686913	-0.517855	-0.373013
C15	C	-3.879078	-0.729023	-0.374892
C16	C	-3.864100	-0.585664	-0.377664
C17	C	-3.672415	-0.156759	-0.598079
C18	C	-3.686909	-0.154076	-0.736785
C19	C	-3.864079	-0.158726	-0.804593
C20	C	-3.879064	-0.155953	-0.947953
C21	C	-4.091505	0.064460	-0.376859
C22	C	-4.056245	0.203166	-0.379543
C23	C	-4.091508	-0.157927	-0.154466
C24	C	-4.056254	-0.160604	-0.015759
H25	H	-4.196837	-0.748757	-0.385582
H26	H	-4.196857	-0.166642	-0.967685
H27	H	-3.546308	-0.565927	-0.366987
H28	H	-3.738488	-0.777102	-0.368866
O29	O	-3.711234	-0.148529	-1.005207
C30	C	-3.585109	-0.037060	-0.953949
H31	H	-3.676996	0.034381	-0.910764
H32	H	-3.468087	-0.059180	-0.878010
C33	C	-3.368433	-0.069668	-1.111913
C34	C	-3.481293	0.018082	-1.058882
H35	H	-3.304387	-0.035655	-1.176638
H36	H	-3.453401	-0.144769	-1.146444
H37	H	-3.270931	-0.088093	-1.048619
H38	H	-3.578808	0.036494	-1.122172
H39	H	-3.396339	0.093188	-1.024364
H40	H	-4.004666	-0.164751	-0.756510
H41	H	-4.004705	-0.537592	-0.383704
H42	H	-3.546320	-0.148034	-0.784865
