data_functionalizedCrystal
_audit_creation_method	'MofGen! by Chris Wilmer'
_symmetry_space_group_name_H-M	'P1'
_symmetry_Int_Tables_number	1
_symmetry_cell_setting	triclinic
loop_
_symmetry_equiv_pos_as_xyz
  x,y,z
_cell_length_a	16.109301
_cell_length_b	15.072220
_cell_length_c	16.109304
_cell_angle_alpha	89.998322
_cell_angle_beta	83.462059
_cell_angle_gamma	90.009777
loop_
_atom_site_label
_atom_site_type_symbol
_atom_site_fract_x
_atom_site_fract_y
_atom_site_fract_z
O1	O	1.103143	0.073721	0.106861
O2	O	1.603143	0.573721	0.606861
O3	O	0.861081	0.073734	0.120161
O4	O	1.361081	0.573734	0.620161
O5	O	0.988761	0.073728	-0.007520
O6	O	1.488761	0.573728	0.492480
O7	O	0.975464	0.073727	0.234542
O8	O	1.475464	0.573727	0.734542
O9	O	0.988729	-0.073837	-0.007513
O10	O	1.488729	0.426163	0.492487
O11	O	0.861050	-0.073831	0.120168
O12	O	1.361050	0.426169	0.620168
O13	O	1.103112	-0.073844	0.106869
O14	O	1.603112	0.426156	0.606869
Zn15	Zn	0.982076	-0.097267	0.113519
Zn16	Zn	1.482076	0.402733	0.613519
Zn17	Zn	0.982117	0.097157	0.113510
Zn18	Zn	1.482117	0.597157	0.613510
O19	O	0.975432	-0.073838	0.234549
O20	O	1.475432	0.426162	0.734549
C21	C	0.830091	-0.000047	0.119626
C22	C	1.330091	0.499953	0.619626
C23	C	0.737795	-0.000041	0.118010
C24	C	1.237795	0.499959	0.618010
N25	N	0.982053	-0.229956	0.113525
N26	N	1.482053	0.270044	0.613525
C27	C	0.515524	-0.000052	0.190018
C28	C	1.015524	0.499948	0.690018
C29	C	0.428803	-0.000057	0.188494
C30	C	0.928803	0.499943	0.688494
C31	C	0.448676	-0.000053	0.037005
C32	C	0.948676	0.499947	0.537005
C33	C	0.535395	-0.000054	0.038530
C34	C	1.035395	0.499946	0.538530
C35	C	0.568816	-0.000049	0.115039
C36	C	1.068816	0.499951	0.615039
C37	C	0.395377	-0.000054	0.111990
C38	C	0.895377	0.499946	0.611990
C39	C	0.301351	-0.000060	0.110337
C40	C	0.801351	0.499940	0.610337
C41	C	0.662848	-0.000044	0.116693
C42	C	1.162848	0.499956	0.616693
C43	C	0.982116	-0.589157	0.113507
C44	C	1.482116	-0.089157	0.613507
C45	C	0.913568	-0.551547	0.181597
C46	C	1.413568	-0.051547	0.681597
C47	C	0.913725	-0.448721	0.181846
C48	C	1.413725	0.051279	0.681846
C49	C	0.982084	-0.410953	0.113516
C50	C	1.482084	0.089047	0.613516
C51	C	1.068829	-0.448249	0.132440
C52	C	1.568829	0.051751	0.632440
C53	C	1.068444	-0.551107	0.132924
C54	C	1.568444	-0.051107	0.632924
C55	C	0.964693	-0.551256	0.026291
C56	C	1.464693	-0.051256	0.526291
C57	C	0.962702	-0.448393	0.026873
C58	C	1.462702	0.051607	0.526873
C59	C	0.982072	-0.310240	0.113519
C60	C	1.482072	0.189760	0.613519
C61	C	0.982134	-0.689870	0.113505
C62	C	1.482134	-0.189870	0.613505
C63	C	1.134102	-0.000062	0.107404
C64	C	1.634102	0.499938	0.607404
C65	C	1.226398	-0.000061	0.109019
C66	C	1.726398	0.499939	0.609019
C67	C	0.988206	-0.000053	-0.038491
C68	C	1.488206	0.499947	0.461509
C69	C	0.986590	-0.000047	-0.130786
C70	C	1.486590	0.499953	0.369214
N71	N	0.982146	0.229845	0.113498
N72	N	1.482146	0.729845	0.613498
C73	C	0.982873	0.080388	-0.343127
C74	C	1.482873	0.580388	0.156873
C75	C	0.981347	0.080387	-0.429848
C76	C	1.481347	0.580387	0.070152
C77	C	0.981317	-0.080496	-0.429837
C78	C	1.481317	0.419504	0.070163
C79	C	0.982837	-0.080495	-0.343118
C80	C	1.482837	0.419505	0.156882
C81	C	0.983620	-0.000050	-0.299766
C82	C	1.483620	0.499950	0.200234
C83	C	0.980573	-0.000052	-0.473205
C84	C	1.480573	0.499948	0.026795
C85	C	0.978919	-0.000054	-0.567231
C86	C	1.478919	0.499946	-0.067231
C87	C	0.985273	-0.000048	-0.205734
C88	C	1.485273	0.499952	0.294266
C89	C	0.975987	-0.000055	0.265520
C90	C	1.475987	0.499945	0.765520
C91	C	0.977603	-0.000056	0.357816
C92	C	1.477603	0.499944	0.857816
H93	H	0.385416	-0.000061	0.249550
H94	H	0.885416	0.499939	0.749550
H95	H	0.924537	-0.577386	0.245955
H96	H	1.424537	-0.077386	0.745955
C97	C	0.980529	0.168866	-0.477546
C98	C	1.480529	0.668866	0.022454
H99	H	0.979502	0.157348	-0.535401
H100	H	1.479502	0.657348	-0.035401
H101	H	1.029239	0.201917	-0.469692
H102	H	1.529239	0.701917	0.030308
H103	H	0.932324	0.201918	-0.456979
H104	H	1.432324	0.701918	0.043021
H105	H	1.121045	-0.575985	0.085284
H106	H	1.621045	-0.075985	0.585284
H107	H	0.980682	-0.145992	-0.465145
H108	H	1.480682	0.354008	0.034855
C109	C	1.025764	-0.413670	-0.044788
C110	C	1.525764	0.086330	0.455212
H111	H	1.012546	-0.437340	-0.096341
H112	H	1.512546	0.062660	0.403659
H113	H	1.080555	-0.431499	-0.035682
H114	H	1.580555	0.068501	0.464318
H115	H	1.023087	-0.350744	-0.046559
H116	H	1.523087	0.149256	0.453441
C117	C	0.928755	-0.415464	0.269276
C118	C	1.428755	0.084536	0.769276
H119	H	0.934797	-0.464817	0.304778
H120	H	1.434797	0.035183	0.804778
H121	H	0.882578	-0.380483	0.291877
H122	H	1.382578	0.119517	0.791877
H123	H	0.978180	-0.380585	0.265113
H124	H	1.478180	0.119415	0.765113
C125	C	0.983661	-0.168981	-0.295416
C126	C	1.483661	0.331019	0.204584
H127	H	0.982989	-0.216891	-0.333656
H128	H	1.482989	0.283109	0.166344
H129	H	0.935799	-0.172322	-0.255233
H130	H	1.435799	0.327678	0.244767
H131	H	1.032714	-0.172321	-0.267943
H132	H	1.532714	0.327679	0.232057
C133	C	0.876500	-0.415469	0.007468
C134	C	1.376500	0.084531	0.507468
H135	H	0.852419	-0.379053	0.051975
H136	H	1.352419	0.120947	0.551975
H137	H	0.841137	-0.464918	0.001353
H138	H	1.341137	0.035082	0.501353
H139	H	0.882769	-0.382105	-0.042890
H140	H	1.382769	0.117895	0.457110
C141	C	0.594020	-0.000047	-0.043950
C142	C	1.094020	0.499953	0.456050
H143	H	0.561697	-0.000037	-0.089735
H144	H	1.061697	0.499963	0.410265
H145	H	0.628255	-0.051505	-0.046503
H146	H	1.128255	0.448495	0.453497
H147	H	0.628269	0.051419	-0.046501
H148	H	1.128269	0.551419	0.453499
C149	C	0.411909	-0.000048	-0.047147
C150	C	0.911909	0.499952	0.452853
H151	H	0.352630	-0.000038	-0.037318
H152	H	0.852630	0.499962	0.462682
H153	H	0.430193	-0.051504	-0.078021
H154	H	0.930193	0.448496	0.421979
H155	H	0.430214	0.051420	-0.078015
H156	H	0.930214	0.551420	0.421985
C157	C	1.089179	-0.583511	0.218849
C158	C	1.589179	-0.083511	0.718849
H159	H	1.097753	-0.533812	0.253134
H160	H	1.597753	-0.033812	0.753134
H161	H	1.138459	-0.618597	0.211830
H162	H	1.638459	-0.118597	0.711830
H163	H	1.044101	-0.618100	0.244605
H164	H	1.544101	-0.118100	0.744605
C165	C	0.826616	-0.414653	0.166635
C166	C	1.326616	0.085347	0.666635
H167	H	0.790813	-0.463677	0.160252
H168	H	1.290813	0.036323	0.660252
H169	H	0.831190	-0.379516	0.117371
H170	H	1.331190	0.120484	0.617371
H171	H	0.804095	-0.379763	0.212916
H172	H	1.304095	0.120237	0.712916
C173	C	0.826174	-0.584980	0.166625
C174	C	1.326174	-0.084980	0.666625
H175	H	0.785702	-0.561525	0.208372
H176	H	1.285702	-0.061525	0.708372
H177	H	0.825048	-0.647942	0.169145
H178	H	1.325048	-0.147942	0.669145
H179	H	0.813849	-0.566080	0.113119
H180	H	1.313849	-0.066080	0.613119
C181	C	0.552285	-0.000055	0.274173
C182	C	1.052285	0.499945	0.774173
H183	H	0.508123	-0.000066	0.318609
H184	H	1.008123	0.499934	0.818609
H185	H	0.585710	0.051403	0.277920
H186	H	1.085710	0.551403	0.777920
H187	H	0.585691	-0.051522	0.277916
H188	H	1.085691	0.448478	0.777916
C189	C	1.139386	-0.415194	0.067233
C190	C	1.639386	0.084806	0.567233
H191	H	1.116514	-0.378262	0.027797
H192	H	1.616514	0.121738	0.527797
H193	H	1.166426	-0.464569	0.039235
H194	H	1.666426	0.035431	0.539235
H195	H	1.178743	-0.382340	0.094443
H196	H	1.678743	0.117660	0.594443
C197	C	1.032215	-0.584117	-0.042163
C198	C	1.532215	-0.084117	0.457837
H199	H	1.070841	-0.620757	-0.017756
H200	H	1.570841	-0.120757	0.482244
H201	H	1.060802	-0.534653	-0.068424
H202	H	1.560802	-0.034653	0.431576
H203	H	1.006655	-0.617235	-0.082531
H204	H	1.506655	-0.117235	0.417469
H205	H	1.084553	-0.422481	0.195320
H206	H	1.584553	0.077519	0.695320
H207	H	0.902814	-0.577243	0.008088
H208	H	1.402814	-0.077243	0.508088
H209	H	0.983508	0.145891	-0.307833
H210	H	1.483508	0.645891	0.192167
