data_functionalizedCrystal
_audit_creation_method	'MofGen! by Chris Wilmer'
_symmetry_space_group_name_H-M	'P1'
_symmetry_Int_Tables_number	1
_symmetry_cell_setting	triclinic
loop_
_symmetry_equiv_pos_as_xyz
  x,y,z
_cell_length_a	15.995350
_cell_length_b	19.188930
_cell_length_c	15.072220
_cell_angle_alpha	89.993728
_cell_angle_beta	89.991149
_cell_angle_gamma	83.318578
loop_
_atom_site_label
_atom_site_type_symbol
_atom_site_fract_x
_atom_site_fract_y
_atom_site_fract_z
O1	O	1.110666	0.089991	-0.073718
O2	O	0.866850	0.101105	-0.073737
O3	O	0.995794	-0.006090	-0.073709
O4	O	0.981722	0.197186	-0.073745
O5	O	0.995763	-0.006084	0.073856
O6	O	0.866819	0.101111	0.073828
O7	O	1.110634	0.089997	0.073848
Zn8	Zn	0.988721	0.095555	0.097267
Zn9	Zn	0.988763	0.095547	-0.097156
O10	O	0.981690	0.197192	0.073820
C11	C	0.835641	0.100648	0.000043
C12	C	0.742696	0.099271	0.000037
C13	C	0.404967	0.094324	0.000056
C14	C	0.452680	0.017982	0.000398
C15	C	0.549365	0.019360	0.000059
C16	C	0.572518	0.096778	0.000047
C17	C	0.531311	0.134429	-0.084223
C18	C	0.434683	0.132511	-0.084287
C19	C	0.434302	0.134095	0.083522
C20	C	0.531247	0.134077	0.084629
C21	C	0.667211	0.098169	0.000039
C22	C	0.310274	0.092936	0.000058
C23	C	0.995323	-0.032099	0.000076
C24	C	0.993955	-0.109607	0.000083
C25	C	1.069615	-0.154338	0.000093
C26	C	1.068330	-0.227165	0.000079
C27	C	0.991380	-0.255258	0.000072
C28	C	0.915710	-0.210517	0.000057
C29	C	0.916997	-0.137691	0.000062
N30	N	0.932550	-0.363410	0.050287
N31	N	0.931333	-0.432592	0.050284
C32	C	0.987497	-0.474676	0.000054
N33	N	1.044937	-0.444966	-0.050161
N34	N	1.046158	-0.375779	-0.050154
C35	C	0.989976	-0.334224	0.000066
C36	C	1.061769	-0.598375	0.000048
C37	C	1.060480	-0.671204	0.000028
C38	C	0.907859	-0.654553	0.000015
C39	C	0.909149	-0.581727	0.000025
C40	C	0.986106	-0.553643	0.000046
C41	C	1.141843	0.090454	0.000065
C42	C	1.234789	0.091831	0.000066
C43	C	0.982162	0.223201	0.000033
C44	C	0.983530	0.300709	0.000019
N45	N	0.988699	0.095560	0.229956
N46	N	0.988792	0.095537	-0.229845
C47	C	0.988762	0.095544	0.589157
C48	C	0.919536	0.152710	0.551535
C49	C	0.919693	0.152918	0.448710
C50	C	0.988730	0.095552	0.410953
C51	C	1.076036	0.111464	0.448248
C52	C	1.075648	0.111870	0.551106
C53	C	0.971460	0.022298	0.551269
C54	C	0.969454	0.022787	0.448405
C55	C	0.988717	0.095555	0.310240
C56	C	0.988780	0.095543	0.689871
H57	H	0.402230	0.188560	-0.088121
F58	F	0.549521	0.208766	-0.088348
H59	H	0.433211	-0.012395	-0.059692
H60	H	1.128756	0.071875	0.575991
H61	H	1.128769	0.070935	0.423790
H62	H	0.577345	-0.010441	-0.060444
F63	F	1.096506	0.180489	0.414557
F64	F	0.885510	0.007002	0.416548
H65	H	0.559795	0.108273	-0.146930
F66	F	0.890059	0.002310	0.585212
F67	F	0.410899	0.096616	-0.166612
F68	F	0.834846	0.140563	0.415751
F69	F	0.934070	0.223971	0.416522
H70	H	0.413844	0.109140	0.147396
H71	H	0.558651	0.106592	0.146972
H72	H	0.546404	0.190533	0.089710
F73	F	1.143672	-0.568483	0.000074
F74	F	1.031109	-0.035422	0.414827
H75	H	1.122095	-0.707624	0.000031
F76	F	0.825962	-0.684447	0.000003
F77	F	1.095628	0.181691	0.582444
F78	F	0.392519	0.207665	0.084255
H79	H	1.021947	-0.020242	0.575598
F80	F	0.586651	-0.019325	0.079017
F81	F	0.933746	0.223358	0.585282
H82	H	0.854420	0.143386	0.576294
F83	F	0.428596	-0.021901	0.079391
F84	F	1.151520	-0.124453	0.000096
F85	F	1.148861	-0.274780	0.000089
F86	F	0.833815	-0.240416	0.000044
H87	H	0.855384	-0.101270	0.000054
F88	F	0.828620	-0.534118	0.000018
