data_functionalizedCrystal
_audit_creation_method	'MofGen! by Chris Wilmer'
_symmetry_space_group_name_H-M	'P1'
_symmetry_Int_Tables_number	1
_symmetry_cell_setting	triclinic
loop_
_symmetry_equiv_pos_as_xyz
  x,y,z
_cell_length_a	12.811438
_cell_length_b	14.044220
_cell_length_c	11.892095
_cell_angle_alpha	94.243827
_cell_angle_beta	91.498957
_cell_angle_gamma	88.596945
loop_
_atom_site_label
_atom_site_type_symbol
_atom_site_fract_x
_atom_site_fract_y
_atom_site_fract_z
O1	O	1.401370	0.130925	0.049675
O2	O	1.099116	0.142819	0.018683
O3	O	1.245705	-0.001160	0.033725
O4	O	1.254781	0.274904	0.034633
O5	O	1.233481	0.010826	0.220478
O6	O	1.086892	0.154805	0.205436
O7	O	1.389146	0.142911	0.236428
Zn8	Zn	1.236078	0.150761	0.250583
Zn9	Zn	1.252184	0.134969	0.004528
O10	O	1.242556	0.286890	0.221386
C11	C	1.054088	0.147777	0.108069
C12	C	0.938130	0.144682	0.096179
C13	C	0.781353	0.133787	-0.022365
C14	C	0.890306	0.136694	-0.011203
C15	C	0.876994	0.149761	0.192407
C16	C	0.768041	0.146855	0.181245
C17	C	0.720224	0.138869	0.073855
C18	C	0.611269	0.135969	0.062694
C19	C	0.597959	0.149029	0.266303
C20	C	0.706912	0.151936	0.277465
C21	C	1.235621	-0.030523	0.126695
C22	C	1.223774	-0.135874	0.125481
C23	C	1.202116	-0.328765	0.123244
C24	C	1.286142	-0.385511	0.131857
C25	C	1.274091	-0.492842	0.130612
C26	C	1.214165	-0.221424	0.124489
C27	C	1.434174	0.137953	0.147040
C28	C	1.550132	0.141048	0.158922
C29	C	1.252641	0.316253	0.128414
C30	C	1.264488	0.421604	0.129620
N31	N	1.225094	0.161538	0.418510
N32	N	1.263176	0.124185	-0.163398
C33	C	1.339604	0.049138	0.666908
C34	C	1.331934	0.056678	0.784463
C35	C	1.202080	0.184154	0.771176
C36	C	1.209750	0.176614	0.653622
C37	C	1.278515	0.109104	0.601492
C38	C	1.286189	0.101569	0.483935
C39	C	1.156331	0.229040	0.470650
C40	C	1.148661	0.236580	0.588205
H41	H	0.915945	0.156252	0.279838
O42	O	1.105436	-0.366841	0.113484
C43	C	1.044624	-0.330284	0.204639
H44	H	1.077191	-0.259224	0.240442
H45	H	1.047058	-0.383076	0.273067
C46	C	0.890914	-0.402307	0.119438
C47	C	0.930908	-0.315025	0.163406
H48	H	0.820767	-0.392898	0.094006
H49	H	0.931884	-0.426940	0.058026
H50	H	0.892952	-0.446292	0.176468
H51	H	0.928882	-0.271047	0.106372
H52	H	0.889935	-0.290385	0.224807
H53	H	0.940074	0.132556	-0.089556
H54	H	1.381677	0.007846	0.837722
H55	H	0.572339	0.129470	-0.024748
H56	H	1.342184	0.046603	0.441493
H57	H	1.367136	-0.353489	0.140086
O58	O	0.735067	0.125997	-0.126760
C59	C	0.812384	0.122169	-0.209296
H60	H	0.889626	0.096175	-0.171345
H61	H	0.822150	0.196430	-0.239799
C62	C	0.684439	0.084716	-0.356130
C63	C	0.779307	0.052781	-0.309520
H64	H	0.664034	0.041918	-0.417956
H65	H	0.632347	0.087298	-0.300525
H66	H	0.692589	0.146600	-0.381540
H67	H	0.771151	-0.009096	-0.284099
H68	H	0.831396	0.050187	-0.365124
O69	O	1.081805	0.302032	0.638970
C70	C	1.008281	0.254869	0.699879
H71	H	1.041767	0.182209	0.721031
H72	H	0.933552	0.244673	0.646628
C73	C	0.942552	0.404521	0.783796
C74	C	0.983684	0.315281	0.809783
H75	H	0.927374	0.441786	0.851587
H76	H	0.992083	0.436296	0.742757
H77	H	0.880282	0.396011	0.739418
H78	H	1.045958	0.323791	0.854148
H79	H	0.934162	0.283508	0.850832
O80	O	1.406285	-0.016552	0.616289
C81	C	1.378767	-0.108832	0.642394
H82	H	1.293113	-0.108165	0.666174
H83	H	1.429549	-0.131689	0.716266
C84	C	1.501013	-0.180476	0.509790
C85	C	1.395809	-0.179659	0.538988
H86	H	1.511529	-0.224168	0.446008
H87	H	1.519556	-0.118306	0.492205
H88	H	1.543319	-0.199522	0.571359
H89	H	1.353506	-0.160603	0.477425
H90	H	1.377259	-0.241828	0.556561
H91	H	1.146086	0.239112	0.813635
O92	O	1.097141	0.287334	0.406999
C93	C	1.162884	0.342143	0.345302
H94	H	1.242132	0.304118	0.335678
H95	H	1.173539	0.415246	0.392008
C96	C	1.015921	0.401332	0.239635
C97	C	1.113252	0.354625	0.227807
H98	H	0.985305	0.409036	0.167161
H99	H	0.971627	0.364409	0.281204
H100	H	1.024813	0.462246	0.278561
H101	H	1.104357	0.293708	0.188895
H102	H	1.157543	0.391538	0.186229
O103	O	0.538546	0.153787	0.359750
C104	C	0.479283	0.070510	0.359806
H105	H	0.518810	0.010370	0.305695
H106	H	0.397550	0.085093	0.323907
C107	C	0.423015	0.114950	0.547917
C108	C	0.471567	0.041082	0.481464
H109	H	0.418251	0.096799	0.622960
H110	H	0.462938	0.171057	0.547878
H111	H	0.354910	0.127095	0.517988
H112	H	0.539676	0.028947	0.511385
H113	H	0.431655	-0.015028	0.481510
O114	O	0.753327	0.159526	0.381802
C115	C	0.726808	0.080810	0.441456
H116	H	0.703668	0.018875	0.379129
H117	H	0.658472	0.101739	0.498357
C118	C	0.849831	0.126284	0.590501
C119	C	0.821418	0.050212	0.513949
H120	H	0.908188	0.107411	0.635223
H121	H	0.867695	0.179319	0.550314
H122	H	0.792876	0.143718	0.637908
H123	H	0.878368	0.032788	0.466536
H124	H	0.803566	-0.002827	0.554131
