data_functionalizedCrystal
_audit_creation_method	'MofGen! by Chris Wilmer'
_symmetry_space_group_name_H-M	'P1'
_symmetry_Int_Tables_number	1
_symmetry_cell_setting	triclinic
loop_
_symmetry_equiv_pos_as_xyz
  x,y,z
_cell_length_a	10.654560
_cell_length_b	10.654550
_cell_length_c	9.130313
_cell_angle_alpha	89.994353
_cell_angle_beta	89.996043
_cell_angle_gamma	84.487109
loop_
_atom_site_label
_atom_site_type_symbol
_atom_site_fract_x
_atom_site_fract_y
_atom_site_fract_z
O1	O	0.176400	1.667851	-0.121773
O2	O	0.193206	1.302373	-0.121780
O3	O	0.002064	1.493508	-0.121774
O4	O	0.367541	1.476716	-0.121780
O5	O	0.002055	1.493485	0.121825
O6	O	0.193197	1.302350	0.121819
O7	O	0.176391	1.667828	0.121825
Cu8	Cu	0.184793	1.485087	0.144065
Cu9	Cu	0.184804	1.485114	-0.144019
O10	O	0.367532	1.476693	0.121819
C11	C	0.191967	1.255564	0.000018
C12	C	0.188275	1.116120	0.000016
C13	C	-0.044738	1.492261	0.000024
C14	C	-0.184181	1.488564	0.000017
N15	N	0.184784	1.485077	0.346687
C16	C	-0.380724	1.483360	0.132803
C17	C	-0.249701	1.486819	0.132804
C18	C	-0.249688	1.486837	-0.132781
C19	C	-0.380708	1.483369	-0.132780
C20	C	-0.446240	1.481629	0.265599
C21	C	-0.380741	1.483353	0.398397
C22	C	-0.249718	1.486811	0.398398
C23	C	-0.184194	1.488546	0.265601
C24	C	0.414334	1.477940	0.000019
C25	C	0.553777	1.481638	0.000016
C26	C	0.177629	1.714638	0.000024
C27	C	0.181321	1.854081	0.000017
C28	C	0.068780	1.933562	0.000013
C29	C	0.072256	2.064583	0.000018
C30	C	0.300825	2.036629	0.000024
C31	C	0.297347	1.905610	0.000029
N32	N	0.184802	1.485134	-0.346642
C33	C	0.269407	1.400469	0.576712
C34	C	0.269395	1.400437	0.423375
C35	C	0.100171	1.569746	0.423344
C36	C	0.100177	1.569771	0.576678
C37	C	0.354032	1.315832	0.653392
C38	C	0.438644	1.231162	0.576745
C39	C	0.438633	1.231130	0.423408
C40	C	0.354009	1.315769	0.346718
H41	H	-0.434098	1.481929	0.506515
O42	O	0.406711	1.828446	-0.000230
C43	C	0.601044	1.764515	-0.126380
C44	C	0.477233	1.851953	-0.126293
H45	H	0.658108	1.783507	-0.228275
H46	H	0.578701	1.661998	-0.126466
H47	H	0.658025	1.783369	-0.024388
H48	H	0.420191	1.833211	-0.228267
H49	H	0.499664	1.954441	-0.126130
O50	O	-0.185890	1.488353	-0.261682
C51	C	-0.024750	1.383603	-0.415855
C52	C	-0.096876	1.381751	-0.269802
H53	H	0.047215	1.297411	-0.422482
H54	H	0.025964	1.472903	-0.422534
H55	H	-0.094110	1.381831	-0.510732
H56	H	-0.027601	1.383477	-0.174843
H57	H	-0.147610	1.292458	-0.263251
H58	H	-0.552926	1.478816	0.265613
O59	O	-0.043815	1.883297	-0.000050
C60	C	-0.150478	1.693849	0.000050
C61	C	-0.022875	1.750601	0.000082
H62	H	-0.133592	1.586557	0.000187
H63	H	-0.206167	1.726418	-0.101919
H64	H	-0.206149	1.726573	0.101973
H65	H	0.032899	1.717903	-0.101773
H66	H	0.032719	1.718038	0.102117
H67	H	-0.196391	1.488200	0.506528
O68	O	0.017860	1.652012	0.349079
C69	C	-0.149926	1.820007	0.365224
C70	C	-0.056800	1.726883	0.449509
H71	H	-0.210295	1.880582	0.446386
H72	H	-0.213261	1.765296	0.293503
H73	H	-0.095093	1.883146	0.293370
H74	H	-0.111531	1.663721	0.521443
H75	H	0.006535	1.781672	0.521138
O76	O	-0.037184	2.141611	-0.000055
C77	C	-0.264259	2.155502	0.000020
C78	C	-0.140408	2.068125	0.000066
H79	H	-0.347748	2.096124	0.000148
H80	H	-0.268425	2.217525	-0.101950
H81	H	-0.268286	2.217558	0.101942
H82	H	-0.136298	2.005991	-0.101788
H83	H	-0.136293	2.006188	0.102102
H84	H	-0.077503	1.491340	0.265613
H85	H	0.395290	2.078600	0.000031
H86	H	-0.434037	1.481957	-0.240907
O87	O	0.354172	1.315655	0.802341
C88	C	0.447096	1.222862	1.022403
C89	C	0.447052	1.222903	0.853722
H90	H	0.522199	1.147898	1.063996
H91	H	0.350621	1.201326	1.064142
H92	H	0.468555	1.319411	1.063951
H93	H	0.425646	1.126382	0.812049
H94	H	0.543534	1.244509	0.812083
H95	H	0.507535	1.162244	0.639194
O96	O	0.520992	1.149009	0.349020
C97	C	0.738692	1.077272	0.302171
C98	C	0.645551	1.170363	0.386474
H99	H	0.839418	1.094487	0.332445
H100	H	0.724266	1.091782	0.179388
H101	H	0.721334	0.976558	0.332347
H102	H	0.662853	1.271114	0.356421
H103	H	0.659999	1.155743	0.509236
H104	H	0.353998	1.315727	0.221861
H105	H	0.031283	1.638711	0.639084
