data_functionalizedCrystal
_audit_creation_method	'MofGen! by Chris Wilmer'
_symmetry_space_group_name_H-M	'P1'
_symmetry_Int_Tables_number	1
_symmetry_cell_setting	triclinic
loop_
_symmetry_equiv_pos_as_xyz
  x,y,z
_cell_length_a	10.654550
_cell_length_b	10.654550
_cell_length_c	9.730223
_cell_angle_alpha	89.996328
_cell_angle_beta	90.000649
_cell_angle_gamma	84.484931
loop_
_atom_site_label
_atom_site_type_symbol
_atom_site_fract_x
_atom_site_fract_y
_atom_site_fract_z
O1	O	-1.667838	-0.176398	0.114187
O2	O	-1.302359	-0.193204	0.114212
O3	O	-1.493502	-0.002061	0.114190
O4	O	-1.476696	-0.367540	0.114209
O5	O	-1.493492	-0.002058	-0.114390
O6	O	-1.302349	-0.193200	-0.114368
O7	O	-1.667828	-0.176394	-0.114393
Zn8	Zn	-1.485087	-0.184797	-0.150672
Zn9	Zn	-1.485100	-0.184801	0.150492
O10	O	-1.476686	-0.367537	-0.114371
C11	C	-1.255556	-0.191968	-0.000075
C12	C	-1.116113	-0.188276	-0.000065
C13	C	-1.492263	0.044738	-0.000099
C14	C	-1.488571	0.184181	-0.000096
C15	C	-1.714631	-0.177630	-0.000103
C16	C	-1.854074	-0.181322	-0.000104
C17	C	-1.036628	-0.300818	-0.000064
C18	C	-0.905607	-0.297341	-0.000088
C19	C	-0.933570	-0.068772	-0.000109
C20	C	-1.064588	-0.072250	-0.000095
N21	N	-1.485087	-0.184793	-0.356209
C22	C	-1.477925	-0.414336	-0.000079
C23	C	-1.481617	-0.553779	-0.000072
C24	C	-1.601112	0.263667	-0.000104
C25	C	-1.597636	0.394688	-0.000087
C26	C	-1.369066	0.366725	-0.000061
C27	C	-1.372544	0.235706	-0.000068
C28	C	-1.569760	-0.100187	-0.572037
C29	C	-1.569752	-0.100189	-0.428154
C30	C	-1.400433	-0.269410	-0.428154
C31	C	-1.400448	-0.269414	-0.572035
N32	N	-1.485110	-0.184795	0.356028
H33	H	-0.840894	-0.388984	-0.000089
H34	H	-0.891602	0.025693	-0.000142
H35	H	-1.689279	0.459401	-0.000090
O36	O	-1.251150	0.149967	-0.000078
H37	H	-1.195678	0.168404	0.093086
O38	O	-1.150335	0.049139	-0.000100
H39	H	-1.092498	0.130404	-0.000104
O40	O	-1.661040	-0.008913	-0.350572
H41	H	-1.646815	-0.023126	-0.238436
O42	O	-1.726248	0.208086	-0.000106
H43	H	-1.803920	0.285375	-0.000090
H44	H	-1.331501	-0.338303	-0.369569
O45	O	-1.243926	0.422296	-0.000060
H46	H	-1.260412	0.526756	-0.000076
O47	O	-1.661087	-0.008944	-0.649633
H48	H	-1.719959	0.049876	-0.575433
O49	O	-1.309164	-0.360709	-0.649618
H50	H	-1.211110	-0.343819	-0.622039
O51	O	-1.092208	-0.425953	-0.000060
H52	H	-1.014920	-0.503625	-0.000081
