data_functionalizedCrystal
_audit_creation_method	'MofGen! by Chris Wilmer'
_symmetry_space_group_name_H-M	'P1'
_symmetry_Int_Tables_number	1
_symmetry_cell_setting	triclinic
loop_
_symmetry_equiv_pos_as_xyz
  x,y,z
_cell_length_a	19.288864
_cell_length_b	14.853567
_cell_length_c	18.366186
_cell_angle_alpha	89.997562
_cell_angle_beta	89.977106
_cell_angle_gamma	83.385589
loop_
_atom_site_label
_atom_site_type_symbol
_atom_site_fract_x
_atom_site_fract_y
_atom_site_fract_z
O1	O	0.921732	0.112464	-0.060777
O2	O	1.421732	0.612464	0.439223
O3	O	0.719523	0.127635	-0.060727
O4	O	1.219523	0.627635	0.439273
O5	O	0.826029	-0.011211	-0.060755
O6	O	1.326029	0.488789	0.439245
O7	O	0.815226	0.251310	-0.060748
O8	O	1.315226	0.751310	0.439252
O9	O	0.826011	-0.011217	0.060344
O10	O	1.326011	0.488783	0.560344
O11	O	0.719505	0.127629	0.060373
O12	O	1.219505	0.627629	0.560373
O13	O	0.921714	0.112457	0.060322
O14	O	1.421714	0.612457	0.560322
Zn15	Zn	0.820607	0.120042	0.079575
Zn16	Zn	1.320607	0.620042	0.579575
Zn17	Zn	0.820631	0.120051	-0.079979
Zn18	Zn	1.320631	0.620051	0.420021
O19	O	0.815208	0.251304	0.060351
O20	O	1.315208	0.751304	0.560351
C21	C	0.693636	0.127144	-0.000171
C22	C	1.193636	0.627144	0.499829
C23	C	0.616527	0.125679	-0.000152
C24	C	1.116527	0.625679	0.499848
C25	C	0.572106	0.207147	-0.000161
C26	C	1.072106	0.707147	0.499839
C27	C	0.499654	0.205770	-0.000169
C28	C	0.999654	0.705770	0.499831
C29	C	0.471627	0.122920	-0.000182
C30	C	0.971627	0.622920	0.499818
C31	C	0.516058	0.041441	-0.000169
C32	C	1.016058	0.541441	0.499831
C33	C	0.588508	0.042820	-0.000154
C34	C	1.088508	0.542820	0.499846
C35	C	0.363152	0.057794	-0.042635
C36	C	0.863152	0.557794	0.457365
C37	C	0.290702	0.056418	-0.042655
C38	C	0.790702	0.556418	0.457345
C39	C	0.248167	0.118664	-0.000227
C40	C	0.748167	0.618664	0.499773
C41	C	0.278088	0.182300	0.042212
C42	C	0.778088	0.682300	0.542212
C43	C	0.350538	0.183679	0.042228
C44	C	0.850538	0.683679	0.542228
C45	C	0.393068	0.121416	-0.000199
C46	C	0.893068	0.621416	0.499801
C47	C	0.125185	0.198645	-0.000243
C48	C	0.625185	0.698645	0.499757
C49	C	0.052732	0.197265	-0.000247
C50	C	0.552732	0.697265	0.499753
C51	C	0.069138	0.032933	-0.000254
C52	C	0.569138	0.532933	0.499746
C53	C	0.141589	0.034316	-0.000244
C54	C	0.641589	0.534316	0.499756
C55	C	0.169608	0.117174	-0.000242
C56	C	0.669608	0.617174	0.499758
C57	C	0.825530	-0.044800	-0.000208
C58	C	1.325530	0.455200	0.499792
C59	C	0.824064	-0.144875	-0.000214
C60	C	1.324064	0.355125	0.499786
C61	C	0.754596	-0.557014	-0.000182
C62	C	1.254596	-0.057014	0.499818
C63	C	0.881128	-0.579015	-0.000214
C64	C	1.381128	-0.079015	0.499786
C65	C	0.882507	-0.484989	-0.000219
C66	C	1.382507	0.015011	0.499781
C67	C	0.819930	-0.426971	-0.000204
C68	C	1.319930	0.073029	0.499796
C69	C	0.755974	-0.462979	-0.000185
C70	C	1.255974	0.037021	0.499815
C71	C	0.946462	-0.448973	-0.000231
C72	C	1.446462	0.051027	0.499769
C73	C	0.947844	-0.354942	-0.000235
C74	C	1.447844	0.145058	0.499765
C75	C	0.885266	-0.296923	-0.000225
C76	C	1.385266	0.203077	0.499775
C77	C	0.821307	-0.332936	-0.000207
C78	C	1.321307	0.167064	0.499793
C79	C	0.758730	-0.274918	-0.000192
C80	C	1.258730	0.225082	0.499808
C81	C	0.694770	-0.310930	-0.000179
C82	C	1.194770	0.189070	0.499821
C83	C	0.693396	-0.404960	-0.000176
C84	C	1.193396	0.095040	0.499824
C85	C	0.886641	-0.202893	-0.000228
C86	C	1.386641	0.297107	0.499772
C87	C	0.760107	-0.180883	-0.000194
C88	C	1.260107	0.319117	0.499806
C89	C	0.947601	0.112949	-0.000236
C90	C	1.447601	0.612949	0.499764
C91	C	1.024710	0.114414	-0.000259
C92	C	1.524710	0.614414	0.499741
C93	C	0.815707	0.284893	-0.000198
C94	C	1.315707	0.784893	0.499802
C95	C	0.817174	0.384968	-0.000197
C96	C	1.317174	0.884968	0.499803
N97	N	0.820595	0.120035	0.188466
N98	N	1.320595	0.620035	0.688466
N99	N	0.820647	0.120050	-0.188870
N100	N	1.320647	0.620050	0.311130
C101	C	0.867772	0.058584	0.226553
C102	C	1.367772	0.558584	0.726553
C103	C	0.867776	0.058580	0.302781
C104	C	1.367776	0.558580	0.802781
C105	C	0.820611	0.120043	0.340918
C106	C	1.320611	0.620043	0.840918
C107	C	0.773426	0.181498	0.302822
C108	C	1.273426	0.681498	0.802822
C109	C	0.773418	0.181495	0.226595
C110	C	1.273418	0.681495	0.726595
C111	C	0.811590	0.202186	0.461682
C112	C	1.311590	0.702186	0.961682
C113	C	0.811602	0.202191	0.537907
C114	C	1.311602	0.702191	1.037907
C115	C	0.820631	0.120054	0.576026
C116	C	1.320631	0.620054	1.076026
C117	C	0.829661	0.037908	0.537910
C118	C	1.329661	0.537908	1.037910
C119	C	0.829653	0.037905	0.461684
C120	C	1.329653	0.537905	0.961684
C121	C	0.820614	0.120053	0.423573
C122	C	1.320614	0.620053	0.923573
C123	C	0.867814	0.058594	0.696769
C124	C	1.367814	0.558594	1.196769
C125	C	0.867814	0.058588	0.772998
C126	C	1.367814	0.558588	1.272998
C127	C	0.773467	0.181514	0.773037
C128	C	1.273467	0.681514	1.273037
C129	C	0.773464	0.181512	0.696809
C130	C	1.273464	0.681512	1.196809
C131	C	0.820641	0.120052	0.658679
C132	C	1.320641	0.620052	1.158679
H133	H	0.266346	0.004605	-0.077214
H134	H	0.766346	0.504605	0.422786
H135	H	0.397779	0.007104	-0.077190
H136	H	0.897779	0.507104	0.422810
C137	C	0.919699	-0.009016	0.654823
C138	C	1.419699	0.490984	1.154823
H139	H	0.947790	-0.045626	0.688427
H140	H	1.447790	0.454374	1.188427
H141	H	0.948640	0.023316	0.625070
H142	H	1.448640	0.523316	1.125070
H143	H	0.894671	-0.046465	0.625103
H144	H	1.394671	0.453535	1.125103
C145	C	0.919681	-0.008994	0.184611
C146	C	1.419681	0.491006	0.684611
H147	H	0.912931	-0.000184	0.133758
H148	H	1.412931	0.499816	0.633758
H149	H	0.912109	-0.069150	0.197101
H150	H	1.412109	0.430850	0.697101
H151	H	0.966037	0.000683	0.197091
H152	H	1.466037	0.500683	0.697091
C153	C	0.919706	-0.009013	0.814898
C154	C	1.419706	0.490987	1.314898
H155	H	0.912949	-0.000218	0.865757
H156	H	1.412949	0.499782	1.365757
H157	H	0.966068	0.000626	0.802384
H158	H	1.466068	0.500626	1.302384
H159	H	0.912105	-0.069161	0.802410
H160	H	1.412105	0.430839	1.302410
H161	H	0.046319	-0.034525	-0.000311
H162	H	0.546319	0.465475	0.499689
C163	C	0.691271	-0.117071	-0.000178
C164	C	1.191271	0.382929	0.499822
H165	H	0.652986	-0.151987	-0.000164
H166	H	1.152986	0.348013	0.499836
H167	H	0.689184	-0.079928	-0.042406
H168	H	1.189184	0.420072	0.457594
H169	H	0.689171	-0.079937	0.042060
H170	H	1.189171	0.420063	0.542060
H171	H	0.906194	0.008538	0.333798
H172	H	1.406194	0.508538	0.833798
H173	H	0.594914	0.274617	-0.000161
H174	H	1.094914	0.774617	0.499839
H175	H	0.493234	-0.026016	-0.000190
H176	H	0.993234	0.473984	0.499810
H177	H	0.837004	-0.028981	0.430653
H178	H	1.337004	0.471019	0.930653
H179	H	0.932075	-0.626258	-0.000220
H180	H	1.432075	-0.126258	0.499780
C181	C	0.721583	0.249123	0.654907
C182	C	1.221583	0.749123	1.154907
H183	H	0.728332	0.240317	0.604048
H184	H	1.228332	0.740317	1.104048
H185	H	0.729189	0.309265	0.667395
H186	H	1.229189	0.809265	1.167395
H187	H	0.675216	0.239489	0.667420
H188	H	1.175216	0.739489	1.167420
C189	C	0.625938	-0.247109	-0.000162
C190	C	1.125938	0.252891	0.499838
H191	H	0.587648	-0.282018	-0.000149
H192	H	1.087648	0.217982	0.499851
H193	H	0.623856	-0.209966	-0.042389
H194	H	1.123856	0.290034	0.457611
H195	H	0.623842	-0.209977	0.042077
H196	H	1.123842	0.290023	0.542077
C197	C	0.721585	0.249122	0.814979
C198	C	1.221585	0.749122	1.314979
H199	H	0.728348	0.240327	0.865832
H200	H	1.228348	0.740327	1.365832
H201	H	0.675221	0.239485	0.802511
H202	H	1.175221	0.739485	1.302511
H203	H	0.729188	0.309269	0.802478
H204	H	1.229188	0.809269	1.302478
H205	H	0.837012	-0.028975	0.568945
H206	H	1.337012	0.471025	1.068945
C207	C	0.801675	0.292546	0.579828
C208	C	1.301675	0.792546	1.079828
H209	H	0.796285	0.341462	0.546210
H210	H	1.296285	0.841462	1.046210
H211	H	0.841369	0.297422	0.609540
H212	H	1.341369	0.797422	1.109540
H213	H	0.761234	0.294502	0.609587
H214	H	1.261234	0.794502	1.109587
C215	C	0.003868	0.286885	-0.000257
C216	C	0.503868	0.786885	0.499743
H217	H	0.030935	0.336426	-0.000261
H218	H	0.530935	0.836426	0.499739
H219	H	-0.024759	0.289767	0.041967
H220	H	0.475241	0.789767	0.541967
H221	H	-0.024712	0.289758	-0.042498
H222	H	0.475288	0.789758	0.457502
H223	H	0.804226	0.269076	0.430652
H224	H	1.304226	0.769076	0.930652
C225	C	0.623049	-0.444575	-0.000151
C226	C	1.123049	0.055425	0.499849
H227	H	0.631192	-0.508884	-0.000141
H228	H	1.131192	-0.008884	0.499859
H229	H	0.597280	-0.424651	-0.042373
H230	H	1.097280	0.075349	0.457627
H231	H	0.597278	-0.424642	0.042093
H232	H	1.097278	0.075358	0.542093
C233	C	0.637377	-0.046797	-0.000149
C234	C	1.137377	0.453203	0.499851
H235	H	0.684539	-0.034109	-0.000136
H236	H	1.184539	0.465891	0.499864
H237	H	0.628896	-0.080782	-0.042381
H238	H	1.128896	0.419218	0.457619
H239	H	0.628852	-0.080782	0.042084
H240	H	1.128852	0.419218	0.542084
C241	C	0.684246	-0.596622	-0.000165
C242	C	1.184246	-0.096622	0.499835
H243	H	0.692385	-0.660932	-0.000162
H244	H	1.192385	-0.160932	0.499838
H245	H	0.658482	-0.576687	-0.042387
H246	H	1.158482	-0.076687	0.457613
H247	H	0.658474	-0.576692	0.042078
H248	H	1.158474	-0.076692	0.542078
H249	H	0.997409	-0.496218	-0.000236
H250	H	1.497409	0.003782	0.499764
H251	H	0.999924	-0.325630	-0.000246
H252	H	1.499924	0.174370	0.499754
C253	C	0.956987	-0.163282	-0.000241
C254	C	1.456987	0.336718	0.499759
H255	H	0.994058	-0.211303	-0.000250
H256	H	1.494058	0.288697	0.499750
H257	H	0.960145	-0.127055	0.041986
H258	H	1.460145	0.372945	0.541986
H259	H	0.960163	-0.127063	-0.042479
H260	H	1.460163	0.372937	0.457521
C261	C	0.721547	0.249108	0.344769
C262	C	1.221547	0.749108	0.844769
H263	H	0.728313	0.240316	0.395623
H264	H	1.228313	0.740316	0.895623
H265	H	0.675182	0.239470	0.332305
H266	H	1.175182	0.739470	0.832305
H267	H	0.729149	0.309254	0.332266
H268	H	1.229149	0.809254	0.832266
C269	C	0.721527	0.249100	0.184697
C270	C	1.221527	0.749100	0.684697
H271	H	0.693438	0.285709	0.218325
H272	H	1.193438	0.785709	0.718325
H273	H	0.692584	0.216766	0.154975
H274	H	1.192584	0.716766	0.654975
H275	H	0.746550	0.286549	0.154950
H276	H	1.246550	0.786549	0.654950
H277	H	0.463479	0.272114	-0.000174
H278	H	0.963479	0.772114	0.499826
H279	H	0.374897	0.235492	0.076785
H280	H	0.874897	0.735492	0.576785
H281	H	0.147999	0.266113	-0.000231
H282	H	0.647999	0.766113	0.499769
C283	C	0.231309	0.250779	0.088882
C284	C	0.731309	0.750779	0.588882
H285	H	0.183875	0.240842	0.082801
H286	H	0.683875	0.740842	0.582801
H287	H	0.237237	0.310650	0.073965
H288	H	0.737237	0.810650	0.573965
H289	H	0.243946	0.243080	0.138673
H290	H	0.743946	0.743080	0.638673
H291	H	0.177758	-0.032025	-0.000240
H292	H	0.677758	0.467975	0.499760
