data_functionalizedCrystal
_audit_creation_method	'MofGen! by Chris Wilmer'
_symmetry_space_group_name_H-M	'P1'
_symmetry_Int_Tables_number	1
_symmetry_cell_setting	triclinic
loop_
_symmetry_equiv_pos_as_xyz
  x,y,z
_cell_length_a	10.723023
_cell_length_b	15.944551
_cell_length_c	9.798715
_cell_angle_alpha	90.004349
_cell_angle_beta	90.003242
_cell_angle_gamma	83.983143
loop_
_atom_site_label
_atom_site_type_symbol
_atom_site_fract_x
_atom_site_fract_y
_atom_site_fract_z
O1	O	1.655699	0.117805	0.113480
O2	O	1.292405	0.129083	0.113486
O3	O	1.483973	0.001226	0.113471
O4	O	1.464131	0.245662	0.113496
O5	O	1.483959	0.001225	-0.113511
O6	O	1.292390	0.129082	-0.113496
O7	O	1.655685	0.117804	-0.113502
Zn8	Zn	1.474036	0.123443	-0.149537
Zn9	Zn	1.474054	0.123444	0.149522
O10	O	1.464117	0.245661	-0.113486
C11	C	1.245908	0.128262	-0.000004
C12	C	1.107385	0.125807	-0.000002
C13	C	1.045619	0.124712	-0.117585
C14	C	0.902448	0.122174	-0.117585
C15	C	1.483142	-0.030073	-0.000020
C16	C	1.480673	-0.123333	-0.000021
C17	C	1.356027	-0.338903	-0.000000
C18	C	1.413901	-0.399590	-0.111917
C19	C	1.476205	-0.294085	-0.000011
C20	C	1.413944	-0.399572	0.111869
C21	C	1.471881	-0.459022	0.000006
C22	C	1.534112	-0.353543	-0.112020
C23	C	1.534138	-0.353519	0.111867
C24	C	1.592100	-0.414188	-0.000077
C25	C	1.478693	-0.199068	-0.000021
C26	C	1.469403	-0.554038	0.000006
C27	C	1.702182	0.118625	-0.000008
C28	C	1.840705	0.121080	-0.000001
C29	C	1.464948	0.276960	0.000008
C30	C	1.467417	0.370220	0.000018
N31	N	1.474032	0.123441	-0.353637
C32	C	1.546182	0.172147	-0.421411
C33	C	1.546201	0.172146	-0.578573
N34	N	1.474068	0.123439	0.353621
H35	H	1.098734	0.125648	-0.218251
H36	H	0.849330	0.121237	-0.218252
N37	N	1.040763	0.124643	0.126290
N38	N	1.043706	0.184007	0.209160
H39	H	0.996656	0.183186	0.298359
H40	H	1.584894	-0.333262	-0.206741
H41	H	1.607942	0.213843	-0.363082
N42	N	1.396599	0.071106	-0.573277
N43	N	1.411223	-0.007096	-0.589132
H44	H	1.356516	-0.044059	-0.537492
N45	N	1.396553	0.071139	-0.426817
N46	N	1.314245	0.103623	-0.506593
H47	H	1.259521	0.066684	-0.558276
H48	H	1.256274	-0.306167	-0.000110
N49	N	0.907340	0.122249	0.126286
N50	N	0.991496	0.064429	0.153777
H51	H	1.038567	0.065251	0.242969
N52	N	1.350118	-0.425177	-0.230605
N53	N	1.237964	-0.398055	-0.250544
H54	H	1.192909	-0.416124	-0.334363
H55	H	1.363103	-0.419940	0.206493
N56	N	1.717352	-0.455061	-0.000164
N57	N	1.789904	-0.442933	-0.096341
H58	H	1.878364	-0.471799	-0.096408
H59	H	1.607965	0.213850	-0.636857
N60	N	1.597852	-0.327906	0.230576
N61	N	1.556899	-0.342417	0.346697
H62	H	1.601888	-0.324327	0.430546
