data_functionalizedCrystal
_audit_creation_method	'MofGen! by Chris Wilmer'
_symmetry_space_group_name_H-M	'P1'
_symmetry_Int_Tables_number	1
_symmetry_cell_setting	triclinic
loop_
_symmetry_equiv_pos_as_xyz
  x,y,z
_cell_length_a	13.635800
_cell_length_b	27.923497
_cell_length_c	12.908943
_cell_angle_alpha	83.223649
_cell_angle_beta	100.860631
_cell_angle_gamma	81.035752
loop_
_atom_site_label
_atom_site_type_symbol
_atom_site_fract_x
_atom_site_fract_y
_atom_site_fract_z
V1	V	1.987127	-0.066521	0.329370
O2	O	1.992785	0.003820	0.322386
O3	O	1.952098	-0.132499	0.327805
O4	O	1.956479	-0.065224	0.472706
O5	O	1.988374	-0.063921	0.176481
V6	V	2.231179	-0.058139	0.311000
O7	O	2.112730	-0.084905	0.369667
O8	O	2.330674	-0.039755	0.270703
O9	O	2.154604	0.007839	0.312565
O10	O	2.284219	-0.128480	0.317984
O11	O	2.288630	-0.060739	0.463889
O12	O	2.150223	-0.059436	0.167664
V13	V	2.487127	-0.066521	0.329370
O14	O	2.492785	0.003820	0.322386
O15	O	2.452098	-0.132499	0.327805
O16	O	2.456479	-0.065224	0.472706
O17	O	2.488374	-0.063921	0.176481
V18	V	2.731179	-0.058139	0.311000
O19	O	2.612730	-0.084905	0.369667
O20	O	2.830674	-0.039755	0.270703
O21	O	2.654604	0.007839	0.312565
O22	O	2.784219	-0.128480	0.317984
O23	O	2.788630	-0.060739	0.463889
O24	O	2.650223	-0.059436	0.167664
C25	C	1.872173	-0.148591	0.322786
C26	C	1.884134	-0.202527	0.322461
C27	C	1.943865	-0.530232	0.223727
C28	C	1.988854	-0.732941	0.222451
O29	O	1.982363	-0.753413	0.140128
N30	N	2.008998	-0.765038	0.318900
C31	C	2.017902	-0.746454	0.415677
O32	O	2.036079	-0.778405	0.497684
C33	C	1.972921	-0.543745	0.416953
C34	C	1.952766	-0.511651	0.320496
C35	C	1.923712	-0.498138	0.127279
C36	C	1.912460	-0.447463	0.127598
C37	C	1.921361	-0.428883	0.224367
C38	C	1.941514	-0.460976	0.320816
C39	C	1.981832	-0.525163	0.513728
C40	C	1.970588	-0.474482	0.514039
C41	C	1.950433	-0.442387	0.417582
C42	C	1.939163	-0.391721	0.417904
N43	N	1.919019	-0.359625	0.321454
C44	C	1.910118	-0.378206	0.224686
C45	C	2.041515	-0.852878	0.415000
C46	C	2.052759	-0.903555	0.414681
C47	C	2.023711	-0.890039	0.221455
C48	C	2.012460	-0.839361	0.221774
C49	C	2.021371	-0.820782	0.318550
C50	C	1.886488	-0.271786	0.225365
C51	C	1.875233	-0.221108	0.225693
C52	C	1.904287	-0.234628	0.418919
C53	C	1.915536	-0.285302	0.418591
C54	C	1.906639	-0.303879	0.321805
O55	O	1.945652	-0.371215	0.500184
O56	O	1.891963	-0.346247	0.142692
C57	C	1.955117	-0.580906	0.223408
C58	C	1.975269	-0.613000	0.319856
C59	C	1.984170	-0.594419	0.416625
C60	C	1.986513	-0.663677	0.319537
C61	C	1.977612	-0.682257	0.222769
C62	C	1.957468	-0.650161	0.126319
C63	C	1.946216	-0.599487	0.126639
C64	C	2.004315	-0.626515	0.513075
C65	C	2.015564	-0.677189	0.512747
C66	C	2.006664	-0.695770	0.415978
C67	C	1.877761	-0.062775	0.507621
C68	C	1.893273	-0.062151	0.624804
C69	C	2.066200	0.023928	0.317581
C70	C	2.043858	0.077864	0.317912
C71	C	2.060613	-0.061887	0.132743
C72	C	2.034720	-0.062508	0.015560
C73	C	2.372173	-0.148591	0.322786
C74	C	2.384134	-0.202527	0.322461
C75	C	2.377761	-0.062775	0.507621
C76	C	2.393273	-0.062151	0.624804
C77	C	2.103258	-0.065794	0.855788
C78	C	2.117838	-0.065209	0.965892
C79	C	1.937014	-0.060391	0.955116
C80	C	1.922434	-0.060977	0.845012
C81	C	2.005560	-0.063679	0.795352
C82	C	1.990980	-0.064268	0.685248
C83	C	1.810156	-0.059447	0.674473
C84	C	1.824736	-0.058861	0.784576
C85	C	2.566200	0.023928	0.317581
C86	C	2.543858	0.077864	0.317912
C87	C	2.560613	-0.061887	0.132743
C88	C	2.534720	-0.062508	0.015560
C89	C	2.480165	-0.230320	0.327602
C90	C	2.491420	-0.281000	0.327313
C91	C	2.406641	-0.303886	0.321876
C92	C	2.310602	-0.276089	0.316739
C93	C	2.299350	-0.225411	0.317035
C94	C	2.603258	-0.065794	0.855788
C95	C	2.617838	-0.065209	0.965892
C96	C	2.437014	-0.060391	0.955116
C97	C	2.422434	-0.060977	0.845012
C98	C	2.505560	-0.063679	0.795352
C99	C	2.490980	-0.064268	0.685248
C100	C	2.310156	-0.059447	0.674473
C101	C	2.324736	-0.058861	0.784576
C102	C	2.620320	0.105657	0.312775
C103	C	2.599337	0.156337	0.313069
C104	C	2.501893	0.179222	0.318508
C105	C	2.425425	0.151426	0.323642
C106	C	2.446407	0.100748	0.323341
H107	H	1.858817	-0.194978	0.147143
H108	H	1.757060	-0.056659	0.825024
H109	H	2.569626	-0.303625	0.331494
H110	H	1.869340	-0.058187	0.995567
H111	H	1.730602	-0.057727	0.625255
O112	O	2.715022	0.083513	0.307434
C113	C	2.778001	0.118918	0.302984
H114	H	2.729116	0.156665	0.271203
H115	H	2.823856	0.119124	0.386413
C116	C	2.910929	0.059963	0.267387
C117	C	2.850888	0.106324	0.228345
H118	H	2.955892	0.052194	0.221351
H119	H	2.868501	0.036109	0.270389
H120	H	2.949132	0.060140	0.336911
H121	H	2.812676	0.106144	0.158829
H122	H	2.893311	0.130178	0.225330
H123	H	2.661613	0.178961	0.308889
H124	H	2.415817	-0.345152	0.321636
H125	H	2.549207	-0.211693	0.332022
H126	H	2.069154	-0.929682	0.493225
O127	O	2.712816	-0.067293	1.024451
C128	C	2.783049	-0.069792	0.957000
H129	H	2.750341	-0.084922	0.882321
H130	H	2.798676	-0.031517	0.933297
C131	C	2.923015	-0.085206	1.107943
C132	C	2.882846	-0.103792	1.016224
H133	H	2.984576	-0.106177	1.144476
H134	H	2.875698	-0.083521	1.153386
H135	H	2.936028	-0.053310	1.088177
H136	H	2.869821	-0.135685	1.035992
H137	H	2.930163	-0.105484	0.970786
O138	O	1.877765	-0.289745	0.131251
C139	C	1.857588	-0.250544	0.046204
H140	H	1.822434	-0.215551	0.072936
H141	H	1.931489	-0.245235	0.021181
C142	C	1.826384	-0.305143	-0.081835
C143	C	1.783199	-0.262165	-0.049006
H144	H	1.780501	-0.312311	-0.140567
H145	H	1.839981	-0.331554	-0.024538
H146	H	1.887967	-0.300713	-0.102681
H147	H	1.721624	-0.266597	-0.028148
H148	H	1.769590	-0.235755	-0.106301
H149	H	2.558667	-0.066471	0.644817
H150	H	2.484821	0.220488	0.318752
O151	O	2.228351	-0.298397	0.311409
C152	C	2.258894	-0.349088	0.312272
H153	H	2.333091	-0.355769	0.283232
H154	H	2.270578	-0.369294	0.396960
C155	C	2.085116	-0.359932	0.273709
C156	C	2.176242	-0.368138	0.238033
H157	H	2.034132	-0.371684	0.227920
H158	H	2.064538	-0.325781	0.273132
H159	H	2.094867	-0.376771	0.344283
H160	H	2.166494	-0.351294	0.167466
H161	H	2.196817	-0.402287	0.238596
O162	O	2.205978	-0.198483	0.311976
C163	C	2.133577	-0.229557	0.307138
H164	H	2.163075	-0.264059	0.274933
H165	H	2.119748	-0.240129	0.390504
C166	C	1.997094	-0.160236	0.272296
C167	C	2.033320	-0.202610	0.232733
H168	H	1.935249	-0.143613	0.226405
H169	H	2.045872	-0.139301	0.275560
H170	H	1.985578	-0.169052	0.341768
H171	H	2.044848	-0.193793	0.163269
H172	H	1.984542	-0.223543	0.229456
O173	O	2.034969	-0.708379	0.606414
C174	C	1.956474	-0.735778	0.606999
H175	H	1.884798	-0.715048	0.548765
H176	H	1.980524	-0.772899	0.581943
C177	C	2.023103	-0.769030	0.791670
C178	C	1.935065	-0.743566	0.720153
H179	H	2.009899	-0.773836	0.861470
H180	H	2.075988	-0.750572	0.791277
H181	H	2.043135	-0.799961	0.770778
H182	H	1.915042	-0.712634	0.741039
H183	H	1.882176	-0.762020	0.720553
O184	O	1.914961	-0.516239	0.033333
C185	C	1.834684	-0.542804	0.022319
H186	H	1.820340	-0.555488	0.104474
H187	H	1.763037	-0.518302	-0.028749
C188	C	1.880774	-0.572204	-0.132610
C189	C	1.863162	-0.587787	-0.031704
H190	H	1.898336	-0.599951	-0.165938
H191	H	1.934855	-0.554306	-0.125193
H192	H	1.821064	-0.551786	-0.175153
H193	H	1.922875	-0.608200	0.010841
H194	H	1.809090	-0.605690	-0.039115
H195	H	1.929805	-0.573359	0.048094
H196	H	2.670944	-0.068000	0.815356
H197	H	2.011565	-0.611393	0.591877
O198	O	2.212816	-0.067293	1.024451
C199	C	2.283049	-0.069792	0.957000
H200	H	2.250341	-0.084922	0.882321
H201	H	2.298676	-0.031517	0.933297
C202	C	2.423015	-0.085206	1.107943
C203	C	2.382846	-0.103792	1.016224
H204	H	2.484576	-0.106177	1.144476
H205	H	2.375698	-0.083521	1.153386
H206	H	2.436028	-0.053310	1.088177
H207	H	2.369821	-0.135685	1.035992
H208	H	2.430163	-0.105484	0.970786
O209	O	2.372024	0.073821	0.328397
C210	C	2.281519	0.104894	0.333239
H211	H	2.300490	0.139395	0.365448
H212	H	2.231202	0.115468	0.249873
C213	C	2.201703	0.035573	0.368072
C214	C	2.225003	0.077946	0.407641
H215	H	2.166837	0.018950	0.413962
H216	H	2.262675	0.014638	0.364806
H217	H	2.159776	0.044391	0.298601
H218	H	2.266939	0.069127	0.477104
H219	H	2.164036	0.098879	0.410920
H220	H	2.369340	-0.058187	0.995567
H221	H	1.896056	-0.421336	0.049054
O222	O	2.330840	0.173734	0.328978
C223	C	2.328728	0.224424	0.328122
H224	H	2.409023	0.231104	0.357160
H225	H	2.297301	0.244633	0.243437
C226	C	2.161791	0.235266	0.366695
C227	C	2.260410	0.243471	0.402369
H228	H	2.119646	0.247017	0.412489
H229	H	2.163212	0.201116	0.367267
H230	H	2.135615	0.252108	0.296123
H231	H	2.286588	0.226625	0.472933
H232	H	2.258992	0.277619	0.401810
H233	H	2.058667	-0.066471	0.644817
H234	H	2.257060	-0.056659	0.825024
H235	H	2.170944	-0.068000	0.815356
O236	O	1.993023	-0.808141	0.128155
C237	C	2.071562	-0.780770	0.127566
H238	H	2.111124	-0.779820	0.213169
H239	H	2.128875	-0.798605	0.083289
C240	C	1.977900	-0.729227	-0.034039
C241	C	2.026485	-0.728057	0.071100
H242	H	1.950098	-0.696712	-0.068874
H243	H	1.924989	-0.747669	-0.033646
H244	H	2.025669	-0.744092	-0.070923
H245	H	1.978714	-0.713198	0.107986
H246	H	2.079388	-0.709611	0.070711
H247	H	2.048770	-0.837757	0.493810
O248	O	2.015159	-0.908176	0.127550
C249	C	2.029389	-0.959786	0.147964
H250	H	2.074783	-0.973360	0.232798
H251	H	1.952328	-0.971689	0.138618
C252	C	2.031959	-0.965077	-0.035903
C253	C	2.087719	-0.981748	0.068289
H254	H	2.067935	-0.978624	-0.085053
H255	H	2.022368	-0.930306	-0.049658
H256	H	1.967744	-0.974996	-0.043676
H257	H	2.151926	-0.971823	0.076064
H258	H	2.097322	-1.016518	0.082043
O259	O	2.001456	-0.556264	0.607526
C260	C	2.006878	-0.528986	0.692990
H261	H	2.025993	-0.491734	0.666709
H262	H	1.930585	-0.523511	0.718084
C263	C	2.066562	-0.602658	0.820225
C264	C	2.090048	-0.556906	0.787949
H265	H	2.117861	-0.619881	0.878803
H266	H	2.062905	-0.621036	0.762647
H267	H	2.002983	-0.598089	0.841130
H268	H	2.153619	-0.561476	0.767033
H269	H	2.093717	-0.538529	0.845526
H270	H	2.230602	-0.057727	0.625255
H271	H	1.931931	-0.311435	0.497133
H272	H	1.911527	-0.219491	0.497705
O273	O	1.979409	-0.456416	0.608033
C274	C	2.059648	-0.429829	0.619010
H275	H	2.114829	-0.442894	0.567594
H276	H	2.027799	-0.389079	0.592168
C277	C	2.048009	-0.422137	0.799864
C278	C	2.115787	-0.438187	0.736721
H279	H	2.082636	-0.427290	0.872473
H280	H	1.993947	-0.440048	0.792468
H281	H	2.021473	-0.388180	0.777483
H282	H	2.142311	-0.472145	0.759093
H283	H	2.169854	-0.420282	0.744123
H284	H	1.950216	-0.665298	0.047526
