data_functionalizedCrystal
_audit_creation_method	'MofGen! by Chris Wilmer'
_symmetry_space_group_name_H-M	'P1'
_symmetry_Int_Tables_number	1
_symmetry_cell_setting	triclinic
loop_
_symmetry_equiv_pos_as_xyz
  x,y,z
_cell_length_a	12.759401
_cell_length_b	12.759393
_cell_length_c	12.759387
_cell_angle_alpha	89.972388
_cell_angle_beta	90.018391
_cell_angle_gamma	89.984747
loop_
_atom_site_label
_atom_site_type_symbol
_atom_site_fract_x
_atom_site_fract_y
_atom_site_fract_z
Zn1	Zn	1.606252	0.418203	0.594007
Zn2	Zn	1.606147	0.593919	0.418336
Zn3	Zn	1.430555	0.418255	0.418346
Zn4	Zn	1.430542	0.593841	0.593977
O5	O	1.518374	0.506054	0.506167
O6	O	1.753259	0.441522	0.570712
O7	O	1.582815	0.570671	0.271316
O8	O	1.453911	0.271227	0.441664
O9	O	1.753182	0.570620	0.441648
O10	O	1.582995	0.271188	0.570722
O11	O	1.453809	0.441612	0.271323
O12	O	1.283532	0.441537	0.441635
O13	O	1.453889	0.570488	0.741002
O14	O	1.283523	0.570539	0.570671
O15	O	1.582983	0.441447	0.741024
O16	O	1.582803	0.740929	0.441619
O17	O	1.453787	0.740873	0.570662
C18	C	1.245407	0.506036	0.506152
C19	C	1.128630	0.506054	0.506170
C20	C	1.073809	0.438954	0.573478
C21	C	0.964085	0.438965	0.573485
C22	C	0.964013	0.573184	0.438874
C23	C	1.073735	0.573167	0.438862
C24	C	1.518311	0.779022	0.506159
C25	C	1.518380	0.895799	0.506191
C26	C	1.652825	0.895804	0.371919
C27	C	1.720075	0.950668	0.304799
C28	C	1.720137	1.060389	0.304835
C29	C	1.652943	1.115250	0.372000
C30	C	1.585693	1.060386	0.439120
C31	C	1.585637	0.950662	0.439075
C32	C	1.451255	1.060381	0.573395
C33	C	1.451187	0.950659	0.573356
C34	C	1.384062	1.115241	0.640560
C35	C	1.316805	1.060378	0.707676
C36	C	1.316746	0.950649	0.707637
C37	C	1.383937	0.895796	0.640476
C38	C	1.792407	0.506073	0.506182
C39	C	1.909184	0.506081	0.506189
C40	C	1.518446	0.505953	0.780200
C41	C	1.518477	0.505910	0.896977
C42	C	1.518466	1.232021	0.506214
C43	C	1.518505	1.115244	0.506275
C44	C	1.518362	0.506080	0.233199
C45	C	1.518535	0.505827	0.116423
C46	C	1.652969	0.371465	1.116443
C47	C	1.720168	0.304300	1.061592
C48	C	1.720138	0.304335	0.951871
C49	C	1.652904	0.371545	0.896997
C50	C	1.585706	0.438710	0.951848
C51	C	1.585740	0.438665	1.061572
C52	C	1.451279	0.573075	0.951828
C53	C	1.451301	0.573037	1.061549
C54	C	1.384045	0.640285	0.896954
C55	C	1.316840	0.707446	0.951805
C56	C	1.316871	0.707408	1.061533
C57	C	1.384103	0.640202	1.116400
H58	H	1.118502	0.384303	0.628281
O59	O	0.910995	0.373753	0.638969
C60	C	0.982980	0.314498	0.698350
H61	H	1.061188	0.357528	0.701906
H62	H	0.951314	0.303397	0.781150
H63	H	0.994646	0.234656	0.660013
O64	O	0.910637	0.638493	0.373652
C65	C	0.847170	0.706415	0.433362
H66	H	0.880273	0.712997	0.516093
H67	H	0.845899	0.787223	0.395228
H68	H	0.764019	0.673948	0.437046
O69	O	1.653162	0.371329	1.223026
C70	C	1.726889	0.297589	1.259696
H71	H	1.788258	0.282901	1.196470
H72	H	1.766767	0.329269	1.333099
H73	H	1.685260	0.220972	1.279174
O74	O	1.126832	0.638452	0.373443
C75	C	1.054855	0.697680	0.314025
H76	H	0.976658	0.701387	0.357058
H77	H	1.086548	0.780437	0.302674
H78	H	1.043156	0.659111	0.234299
H79	H	1.652768	0.806463	0.371870
H80	H	1.384030	0.640313	0.807613
H81	H	1.774785	0.905991	0.250116
O82	O	1.251645	0.772801	1.114695
C83	C	1.274584	0.877524	1.087889
H84	H	1.314954	0.879729	1.008227
H85	H	1.198744	0.924631	1.084119
H86	H	1.328601	0.912894	1.149642
O87	O	1.383713	0.789213	0.640535
C88	C	1.309972	0.752547	0.714198
H89	H	1.248614	0.815812	0.728891
H90	H	1.270081	0.679200	0.682437
H91	H	1.351589	0.732980	0.790829
O92	O	1.785421	0.238868	1.114783
C93	C	1.762472	0.134162	1.088004
H94	H	1.722063	0.132009	1.008336
H95	H	1.838311	0.087060	1.084260
H96	H	1.708485	0.098750	1.149759
H97	H	1.384128	0.640157	1.205741
O98	O	1.785610	1.113570	0.239688
C99	C	1.890298	1.086678	0.262740
H100	H	1.892416	1.006976	0.303100
H101	H	1.937443	1.082952	0.186952
H102	H	1.925690	1.148358	0.316807
H103	H	1.653009	1.204591	0.372032
H104	H	1.384122	1.204582	0.640589
O105	O	1.785266	0.239040	0.898468
C106	C	1.725450	0.171183	0.835030
H107	H	1.645812	0.208237	0.818593
H108	H	1.768221	0.157137	0.757873
H109	H	1.713951	0.093308	0.877325
O110	O	1.251576	1.113829	0.772815
C111	C	1.266079	1.222436	0.758481
H112	H	1.300536	1.237460	0.677435
H113	H	1.187407	1.264203	0.765561
H114	H	1.322018	1.253467	0.820856
H115	H	1.261987	0.905985	0.762298
O116	O	1.653109	0.371581	0.790414
C117	C	1.753793	0.398612	0.753811
H118	H	1.814299	0.380654	0.817082
H119	H	1.772507	0.351246	0.680427
H120	H	1.755989	0.485792	0.734326
H121	H	1.262108	0.762168	0.907118
