data_functionalizedCrystal
_audit_creation_method	'MofGen! by Chris Wilmer'
_symmetry_space_group_name_H-M	'P1'
_symmetry_Int_Tables_number	1
_symmetry_cell_setting	triclinic
loop_
_symmetry_equiv_pos_as_xyz
  x,y,z
_cell_length_a	15.944551
_cell_length_b	15.944493
_cell_length_c	14.421503
_cell_angle_alpha	90.010165
_cell_angle_beta	89.996859
_cell_angle_gamma	83.486891
loop_
_atom_site_label
_atom_site_type_symbol
_atom_site_fract_x
_atom_site_fract_y
_atom_site_fract_z
O1	O	1.114507	0.108323	-0.077003
O2	O	0.869954	0.121680	-0.077024
O3	O	0.998934	-0.007276	-0.077021
O4	O	0.985527	0.237280	-0.077006
O5	O	0.998913	-0.007257	0.077203
O6	O	0.869933	0.121699	0.077199
O7	O	1.114485	0.108343	0.077221
Cu8	Cu	0.992207	0.115023	0.091292
Cu9	Cu	0.992232	0.115000	-0.091095
O10	O	0.985506	0.237299	0.077217
C11	C	0.838650	0.121135	0.000084
C12	C	0.745404	0.119473	0.000076
C13	C	0.998375	-0.038562	0.000087
C14	C	0.996733	-0.131810	0.000075
C15	C	0.530565	0.035566	0.000089
C16	C	0.469547	0.074520	-0.075949
C17	C	0.574679	0.116465	0.000086
C18	C	0.469548	0.074558	0.076103
C19	C	0.409767	0.113555	0.000101
C20	C	0.514889	0.155442	-0.076014
C21	C	0.514897	0.155468	0.076106
C22	C	0.453897	0.194481	0.000050
C23	C	0.669681	0.118140	0.000077
C24	C	0.314766	0.111886	0.000103
C25	C	1.072653	-0.367570	0.000099
C26	C	1.031722	-0.418148	-0.075944
C27	C	0.993688	-0.302531	0.000086
C28	C	1.031683	-0.418105	0.076108
C29	C	0.990754	-0.467441	0.000101
C30	C	0.952779	-0.351881	-0.076020
C31	C	0.952751	-0.351834	0.076101
C32	C	0.911763	-0.402379	0.000039
C33	C	0.995381	-0.207531	0.000077
C34	C	0.989055	-0.562438	0.000104
C35	C	1.145790	0.108888	0.000110
C36	C	1.239036	0.110550	0.000113
C37	C	0.986064	0.268584	0.000107
C38	C	0.987707	0.361833	0.000113
N39	N	0.992196	0.115038	0.219573
N40	N	0.992251	0.114978	-0.219377
C41	C	0.932545	0.174641	0.469225
C42	C	1.008441	0.190949	0.531036
C43	C	0.992216	0.115018	0.408734
C44	C	0.916339	0.098730	0.531018
C45	C	0.992229	0.115001	0.591456
C46	C	1.068151	0.131364	0.469184
C47	C	0.975998	0.039112	0.469161
C48	C	1.051950	0.055388	0.530944
C49	C	0.992207	0.115030	0.303473
C50	C	0.992246	0.114988	0.696715
H51	H	0.449453	0.040295	-0.140238
N52	N	0.444334	0.031627	0.156738
N53	N	0.406889	-0.032707	0.148284
H54	H	0.389082	-0.063034	0.205228
H55	H	0.534879	0.189625	-0.140369
H56	H	0.535012	0.189665	0.140398
H57	H	0.420724	0.261690	0.000011
N58	N	1.157982	-0.347973	0.000025
N59	N	1.217579	-0.406107	-0.000701
H60	H	1.277843	-0.392267	-0.000756
H61	H	0.843692	-0.417845	-0.000009
N62	N	0.869307	0.237948	0.435237
N63	N	0.872698	0.313801	0.455098
H64	H	0.828039	0.358514	0.431095
H65	H	1.065079	-0.447101	-0.140228
N66	N	1.025672	0.271454	0.565158
N67	N	1.089105	0.277043	0.614727
H68	H	1.101270	0.333902	0.638826
H69	H	0.919423	-0.322866	0.140387
N70	N	0.910994	-0.315761	-0.156774
N71	N	0.879916	-0.362110	-0.214282
H72	H	0.850408	-0.336601	-0.271316
N73	N	1.073533	-0.454385	0.156750
N74	N	1.149662	-0.446439	0.170282
H75	H	1.179225	-0.472061	0.227231
N76	N	1.148672	0.148726	0.435248
N77	N	1.161653	0.151563	0.349887
H78	H	1.218519	0.163826	0.325916
H79	H	1.102473	0.004956	0.557873
N80	N	0.958767	-0.041385	0.435031
N81	N	1.006427	-0.106343	0.455909
H82	H	0.994251	-0.163195	0.431803
N83	N	0.572359	-0.048675	-0.000015
N84	N	0.560802	-0.097527	-0.065412
H85	H	0.590319	-0.157021	-0.065489
N86	N	0.835833	0.081468	0.565096
N87	N	0.771040	0.129823	0.545323
H88	H	0.714180	0.117641	0.569391
