data_functionalizedCrystal
_audit_creation_method	'MofGen! by Chris Wilmer'
_symmetry_space_group_name_H-M	'P1'
_symmetry_Int_Tables_number	1
_symmetry_cell_setting	triclinic
loop_
_symmetry_equiv_pos_as_xyz
  x,y,z
_cell_length_a	21.395364
_cell_length_b	19.120786
_cell_length_c	21.395355
_cell_angle_alpha	92.459295
_cell_angle_beta	90.024552
_cell_angle_gamma	92.480057
loop_
_atom_site_label
_atom_site_type_symbol
_atom_site_fract_x
_atom_site_fract_y
_atom_site_fract_z
Zn1	Zn	0.947247	-0.279432	0.343622
Zn2	Zn	1.280581	0.053901	0.676955
Zn3	Zn	1.613914	0.387234	1.010289
Zn4	Zn	0.942690	-0.396873	0.234373
Zn5	Zn	1.276023	-0.063539	0.567706
Zn6	Zn	1.609356	0.269794	0.901039
Zn7	Zn	0.842461	-0.279463	0.238857
Zn8	Zn	1.175794	0.053870	0.572191
Zn9	Zn	1.509128	0.387204	0.905524
Zn10	Zn	0.837971	-0.396885	0.339112
Zn11	Zn	1.171304	-0.063552	0.672446
Zn12	Zn	1.504638	0.269782	1.005779
O13	O	0.892592	-0.338163	0.288991
O14	O	1.225926	-0.004830	0.622324
O15	O	1.559259	0.328503	0.955658
O16	O	1.034321	-0.294993	0.329140
O17	O	1.367655	0.038340	0.662473
O18	O	1.700988	0.371674	0.995807
O19	O	0.929366	-0.381306	0.147289
O20	O	1.262699	-0.047972	0.480623
O21	O	1.596033	0.285361	0.813956
O22	O	0.860148	-0.181168	0.256519
O23	O	1.193481	0.152165	0.589852
O24	O	1.526814	0.485498	0.923185
O25	O	1.030973	-0.381276	0.248875
O26	O	1.364306	-0.047942	0.582209
O27	O	1.697640	0.285391	0.915542
O28	O	0.937134	-0.181146	0.333489
O29	O	1.270467	0.152188	0.666822
O30	O	1.603800	0.485521	1.000155
O31	O	0.855728	-0.295045	0.150584
O32	O	1.189062	0.038288	0.483918
O33	O	1.522395	0.371621	0.817251
O34	O	0.754187	-0.295057	0.252146
O35	O	1.087520	0.038276	0.585479
O36	O	1.420854	0.371609	0.918813
O37	O	0.852495	-0.381297	0.427389
O38	O	1.185828	-0.047964	0.760722
O39	O	1.519162	0.285370	1.094055
O40	O	0.750888	-0.381327	0.325803
O41	O	1.084221	-0.047994	0.659136
O42	O	1.417555	0.285340	0.992470
O43	O	0.932780	-0.295005	0.430702
O44	O	1.266113	0.038328	0.764035
O45	O	1.599446	0.371662	1.097369
O46	O	0.925012	-0.495165	0.244503
O47	O	1.258345	-0.161831	0.577836
O48	O	1.591679	0.171502	0.911169
O49	O	0.848076	-0.495174	0.321454
O50	O	1.181409	-0.161841	0.654788
O51	O	1.514742	0.171493	0.988121
C52	C	0.729803	-0.338197	0.288972
C53	C	1.063137	-0.004864	0.622306
C54	C	1.396470	0.328469	0.955639
C55	C	0.660161	-0.338229	0.288978
C56	C	0.993494	-0.004896	0.622312
C57	C	1.326828	0.328438	0.955645
C58	C	0.629211	-0.293375	0.330831
C59	C	0.962544	0.039958	0.664165
C60	C	1.295877	0.373292	0.997498
C61	C	0.563776	-0.293356	0.330835
C62	C	0.897109	0.039977	0.664168
C63	C	1.230443	0.373310	0.997501
C64	C	0.529294	-0.338204	0.288991
C65	C	0.862627	-0.004871	0.622324
C66	C	1.195960	0.328463	0.955657
C67	C	0.560251	-0.383061	0.247130
C68	C	0.893585	-0.049728	0.580463
C69	C	1.226918	0.283605	0.913796
C70	C	0.625685	-0.383074	0.247124
C71	C	0.959018	-0.049740	0.580457
C72	C	1.292352	0.283593	0.913790
C73	C	0.423167	-0.401459	0.281545
C74	C	0.756500	-0.068125	0.614878
C75	C	1.089834	0.265208	0.948211
C76	C	0.357734	-0.401447	0.281555
C77	C	0.691068	-0.068114	0.614889
C78	C	1.024401	0.265219	0.948222
C79	C	0.327474	-0.338165	0.289006
C80	C	0.660808	-0.004832	0.622339
C81	C	0.994141	0.328501	0.955673
C82	C	0.362655	-0.274893	0.296460
C83	C	0.695988	0.058440	0.629793
C84	C	1.029321	0.391774	0.963126
C85	C	0.428088	-0.274905	0.296454
C86	C	0.761422	0.058428	0.629787
C87	C	1.094755	0.391761	0.963120
C88	C	0.458341	-0.338195	0.288992
C89	C	0.791675	-0.004862	0.622326
C90	C	1.125008	0.328471	0.955659
C91	C	0.225573	-0.293287	0.330865
C92	C	0.558906	0.040046	0.664198
C93	C	0.892239	0.373379	0.997532
C94	C	0.160137	-0.293268	0.330864
C95	C	0.493470	0.040066	0.664197
C96	C	0.826803	0.373399	0.997530
C97	C	0.156613	-0.382979	0.247162
C98	C	0.489946	-0.049645	0.580495
C99	C	0.823280	0.283688	0.913829
C100	C	0.222048	-0.382992	0.247160
C101	C	0.555381	-0.049659	0.580493
C102	C	0.888714	0.283674	0.913827
C103	C	0.256524	-0.338148	0.289015
C104	C	0.589857	-0.004814	0.622348
C105	C	0.923190	0.328519	0.955682
C106	C	0.885579	-0.520655	0.282016
C107	C	1.218912	-0.187322	0.615350
C108	C	1.552246	0.146012	0.948683
C109	C	0.882636	-0.598726	0.279053
C110	C	1.215969	-0.265393	0.612387
C111	C	1.549303	0.067941	0.945720
C112	C	0.921306	-0.635331	0.317768
C113	C	1.254639	-0.301998	0.651101
C114	C	1.587973	0.031335	0.984435
C115	C	0.918538	-0.708687	0.314985
C116	C	1.251872	-0.375354	0.648318
C117	C	1.585205	-0.042021	0.981652
C118	C	0.877103	-0.745436	0.273484
C119	C	1.210437	-0.412103	0.606817
C120	C	1.543770	-0.078769	0.940151
C121	C	0.838429	-0.708825	0.234768
C122	C	1.171762	-0.375492	0.568101
C123	C	1.505096	-0.042159	0.901434
C124	C	0.841194	-0.635471	0.237554
C125	C	1.174528	-0.302138	0.570887
C126	C	1.507861	0.031196	0.904221
C127	C	0.866748	-0.966923	0.263067
C128	C	1.200082	-0.633589	0.596400
C129	C	1.533415	-0.300256	0.929734
C130	C	0.863987	-1.040282	0.260282
C131	C	1.197321	-0.706949	0.593615
C132	C	1.530654	-0.373616	0.926949
C133	C	0.944096	-1.040139	0.340501
C134	C	1.277430	-0.706806	0.673834
C135	C	1.610763	-0.373473	1.007167
C136	C	0.946860	-0.966783	0.343281
C137	C	1.280194	-0.633450	0.676614
C138	C	1.613527	-0.300117	1.009947
C139	C	0.908184	-0.930179	0.304567
C140	C	1.241517	-0.596846	0.637900
C141	C	1.574850	-0.263512	0.971234
C142	C	0.874275	-0.820417	0.270637
C143	C	1.207608	-0.487084	0.603970
C144	C	1.540941	-0.153751	0.937304
C145	C	0.911010	-0.855199	0.307417
C146	C	1.244343	-0.521866	0.640751
C147	C	1.577676	-0.188532	0.974084
C148	C	1.056017	-0.338129	0.289010
C149	C	1.389350	-0.004796	0.622344
C150	C	1.722683	0.328537	0.955677
C151	C	1.125659	-0.338115	0.289019
C152	C	1.458992	-0.004782	0.622352
C153	C	1.792325	0.328552	0.955685
C154	C	0.892645	-0.338149	0.452415
C155	C	1.225978	-0.004816	0.785748
C156	C	1.559311	0.328518	1.119082
C157	C	0.892667	-0.338143	0.522057
C158	C	1.226001	-0.004810	0.855390
C159	C	1.559334	0.328524	1.188723
C160	C	0.899650	-0.154959	0.296007
C161	C	1.232983	0.178375	0.629340
C162	C	1.566317	0.511708	0.962674
C163	C	0.902657	-0.076888	0.298997
C164	C	1.235991	0.256445	0.632330
C165	C	1.569324	0.589779	0.965663
C166	C	0.892578	-0.338127	0.126205
C167	C	1.225911	-0.004793	0.459538
C168	C	1.559245	0.328540	0.792872
C169	C	0.892684	-0.337935	0.056571
C170	C	1.226018	-0.004602	0.389905
C171	C	1.559351	0.328732	0.723238
C172	C	0.934470	-0.293209	0.556496
C173	C	1.267803	0.040125	0.889829
C174	C	1.601137	0.373458	1.223162
C175	C	0.934470	-0.293179	0.621932
C176	C	1.267804	0.040155	0.955266
C177	C	1.601137	0.373488	1.288599
C178	C	0.892674	-0.338095	0.652927
C179	C	1.226007	-0.004762	0.986260
C180	C	1.559341	0.328572	1.319593
C181	C	0.850863	-0.383032	0.618479
C182	C	1.184197	-0.049699	0.951813
C183	C	1.517530	0.283634	1.285146
C184	C	0.850860	-0.383056	0.553044
C185	C	1.184193	-0.049723	0.886378
C186	C	1.517527	0.283610	1.219711
C187	C	0.885296	-0.401340	0.754184
C188	C	1.218629	-0.068007	1.087517
C189	C	1.551963	0.265326	1.420851
C190	C	0.885304	-0.401318	0.819618
C191	C	1.218637	-0.067984	1.152951
C192	C	1.551970	0.265349	1.486285
C193	C	0.892681	-0.338021	0.854750
C194	C	1.226014	-0.004688	1.188084
C195	C	1.559347	0.328646	1.521417
C196	C	0.900063	-0.274745	0.824441
C197	C	1.233396	0.058589	1.157774
C198	C	1.566730	0.391922	1.491108
C199	C	0.900060	-0.274769	0.759006
C200	C	1.233393	0.058565	1.092339
C201	C	1.566726	0.391898	1.425673
C202	C	0.892673	-0.338074	0.723880
C203	C	1.226006	-0.004740	1.057213
C204	C	1.559339	0.328593	1.390547
C205	C	0.934486	-0.293050	0.960144
C206	C	1.267819	0.040283	1.293477
C207	C	1.601153	0.373617	1.626810
C208	C	0.934482	-0.293019	1.025582
C209	C	1.267815	0.040315	1.358915
C210	C	1.601149	0.373648	1.692248
C211	C	0.850878	-0.382879	1.022127
C212	C	1.184211	-0.049545	1.355460
C213	C	1.517545	0.283788	1.688794
C214	C	0.850879	-0.382904	0.956691
C215	C	1.184212	-0.049571	1.290024
C216	C	1.517546	0.283763	1.623357
C217	C	0.892686	-0.337991	0.925703
C218	C	1.226020	-0.004657	1.259036
C219	C	1.559353	0.328676	1.592370
H220	H	0.338019	-0.223363	0.302527
H221	H	0.671352	0.109971	0.635860
H222	H	1.004685	0.443304	0.969194
N223	N	0.796117	-0.746350	0.192354
N224	N	1.129450	-0.413017	0.525688
N225	N	1.462784	-0.079683	0.859021
N226	N	0.761603	-0.713655	0.157782
N227	N	1.094936	-0.380322	0.491115
N228	N	1.428269	-0.046988	0.824448
H229	H	0.731725	-0.740155	0.127820
H230	H	1.065058	-0.406822	0.461153
H231	H	1.398391	-0.073488	0.794486
H232	H	0.247247	-0.419520	0.213081
H233	H	0.580581	-0.086187	0.546414
H234	H	0.913914	0.247146	0.879748
N235	N	0.128533	-0.247442	0.373624
N236	N	0.461866	0.085891	0.706957
N237	N	0.795199	0.419224	1.040291
N238	N	0.135686	-0.252200	0.431249
N239	N	0.469019	0.081134	0.764583
N240	N	0.802352	0.414467	1.097916
H241	H	0.113367	-0.219833	0.461450
H242	H	0.446700	0.113500	0.794783
H243	H	0.780033	0.446834	1.128117
N244	N	0.958054	-0.746075	0.354519
N245	N	1.291387	-0.412742	0.687853
N246	N	1.624721	-0.079409	1.021186
N247	N	0.996450	-0.786965	0.330954
N248	N	1.329783	-0.453631	0.664287
N249	N	1.663116	-0.120298	0.997620
H250	H	1.024361	-0.813369	0.358876
H251	H	1.357695	-0.480036	0.692209
H252	H	1.691028	-0.146702	1.025542
N253	N	0.808180	-0.428799	0.921500
N254	N	1.141513	-0.095465	1.254834
N255	N	1.474847	0.237868	1.588167
N256	N	0.769205	-0.404103	0.885913
N257	N	1.102538	-0.070770	1.219247
N258	N	1.435872	0.262563	1.552580
H259	H	0.739044	-0.436515	0.861060
H260	H	1.072377	-0.103182	1.194393
H261	H	1.405711	0.230151	1.527726
H262	H	0.253645	-0.256768	0.364942
H263	H	0.586978	0.076566	0.698275
H264	H	0.920311	0.409899	1.031608
N265	N	0.321811	-0.466082	0.273950
N266	N	0.655145	-0.132749	0.607283
N267	N	0.988478	0.200584	0.940617
N268	N	0.348834	-0.522579	0.267291
N269	N	0.682168	-0.189245	0.600625
N270	N	1.015501	0.144088	0.933958
H271	H	0.323465	-0.568230	0.261921
H272	H	0.656799	-0.234896	0.595255
H273	H	0.990132	0.098437	0.928588
N274	N	0.821680	-1.077811	0.217860
N275	N	1.155014	-0.744477	0.551193
N276	N	1.488347	-0.411144	0.884526
N277	N	0.787167	-1.045121	0.183282
N278	N	1.120500	-0.711788	0.516615
N279	N	1.453834	-0.378455	0.849949
H280	H	0.757298	-1.071625	0.153313
H281	H	1.090632	-0.738292	0.486646
H282	H	1.423965	-0.404958	0.819980
N283	N	0.989191	-0.929259	0.385675
N284	N	1.322525	-0.595925	0.719008
N285	N	1.655858	-0.262592	1.052341
N286	N	1.023716	-0.961951	0.420239
N287	N	1.357050	-0.628618	0.753572
N288	N	1.690383	-0.295285	1.086905
H289	H	1.053616	-0.935450	0.450179
H290	H	1.386949	-0.602117	0.783512
H291	H	1.720282	-0.268783	1.116845
N292	N	0.877758	-0.465942	0.850585
N293	N	1.211091	-0.132609	1.183918
N294	N	1.544424	0.200725	1.517252
N295	N	0.877762	-0.465913	0.909009
N296	N	1.211095	-0.132580	1.242342
N297	N	1.544428	0.200753	1.575676
H298	H	0.872431	-0.511556	0.930880
H299	H	1.205764	-0.178222	1.264213
H300	H	1.539098	0.155111	1.597546
H301	H	0.809704	-0.605667	0.206029
H302	H	1.143038	-0.272334	0.539363
H303	H	1.476371	0.060999	0.872696
H304	H	0.840540	-0.850347	0.236845
H305	H	1.173873	-0.517013	0.570178
H306	H	1.507207	-0.183680	0.903511
H307	H	0.975584	-1.069950	0.372020
H308	H	1.308917	-0.736617	0.705353
H309	H	1.642250	-0.403284	1.038687
H310	H	0.447799	-0.452994	0.275476
H311	H	0.781132	-0.119661	0.608810
H312	H	1.114466	0.213673	0.942143
N313	N	0.907598	-0.210146	0.728035
N314	N	1.240931	0.123187	1.061368
N315	N	1.574264	0.456520	1.394701
N316	N	0.952727	-0.200315	0.691910
N317	N	1.286061	0.133018	1.025243
N318	N	1.619394	0.466352	1.358576
H319	H	0.958049	-0.154675	0.670035
H320	H	1.291383	0.178658	1.003368
H321	H	1.624716	0.511992	1.336701
N322	N	0.827229	-0.929549	0.223528
N323	N	1.160563	-0.596216	0.556861
N324	N	1.493896	-0.262883	0.890194
N325	N	0.769103	-0.937831	0.227324
N326	N	1.102436	-0.604497	0.560658
N327	N	1.435770	-0.271164	0.893991
H328	H	0.741187	-0.911437	0.199398
H329	H	1.074520	-0.578104	0.532732
H330	H	1.407854	-0.244770	0.866065
H331	H	0.879122	-0.452871	0.725585
H332	H	1.212455	-0.119538	1.058918
H333	H	1.545789	0.213795	1.392252
H334	H	0.532171	-0.419576	0.213060
H335	H	0.865505	-0.086243	0.546393
H336	H	1.198838	0.247091	0.879726
N337	N	0.977179	-0.247330	0.524854
N338	N	1.310512	0.086004	0.858187
N339	N	1.643845	0.419337	1.191520
N340	N	1.014501	-0.207213	0.555616
N341	N	1.347834	0.126121	0.888949
N342	N	1.681168	0.459454	1.222283
H343	H	1.044665	-0.174810	0.533268
H344	H	1.377999	0.158524	0.866602
H345	H	1.711332	0.491857	1.199935
N346	N	0.657303	-0.428886	0.204363
N347	N	0.990637	-0.095552	0.537697
N348	N	1.323970	0.237781	0.871030
N349	N	0.650155	-0.424126	0.146738
N350	N	0.983488	-0.090792	0.480071
N351	N	1.316821	0.242541	0.813405
H352	H	0.672486	-0.456481	0.116538
H353	H	1.005820	-0.123148	0.449871
H354	H	1.339153	0.210186	0.783204
H355	H	0.944744	-0.825276	0.341210
H356	H	1.278077	-0.491943	0.674543
H357	H	1.611410	-0.158609	1.007877
N358	N	0.121389	-0.428777	0.204415
N359	N	0.454722	-0.095444	0.537749
N360	N	0.788056	0.237889	0.871082
N361	N	0.062967	-0.428757	0.204422
N362	N	0.396300	-0.095423	0.537755
N363	N	0.729634	0.237910	0.871088
H364	H	0.038086	-0.461100	0.174228
H365	H	0.371420	-0.127767	0.507561
H366	H	0.704753	0.205567	0.840895
N367	N	0.464034	-0.210285	0.304052
N368	N	0.797367	0.123049	0.637385
N369	N	1.130700	0.456382	0.970718
N370	N	0.522456	-0.210309	0.304041
N371	N	0.855789	0.123025	0.637374
N372	N	1.189122	0.456358	0.970707
H373	H	0.547843	-0.164670	0.309404
H374	H	0.881177	0.168664	0.642737
H375	H	1.214510	0.501997	0.976071
H376	H	0.816841	-0.419444	1.047362
H377	H	1.150174	-0.086110	1.380695
H378	H	1.483507	0.247223	1.714029
H379	H	0.955050	-0.605415	0.351560
H380	H	1.288383	-0.272082	0.684893
H381	H	1.621716	0.061251	1.018227
H382	H	0.968510	-0.256584	0.649978
H383	H	1.301843	0.076749	0.983312
H384	H	1.635176	0.410083	1.316645
N385	N	0.907598	-0.210089	0.860328
N386	N	1.240931	0.123245	1.193661
N387	N	1.574264	0.456578	1.526995
N388	N	0.907594	-0.210073	0.918752
N389	N	1.240927	0.123261	1.252085
N390	N	1.574260	0.456594	1.585418
H391	H	0.912915	-0.164411	0.944100
H392	H	1.246248	0.168922	1.277434
H393	H	1.579582	0.502255	1.610767
N394	N	0.977190	-0.247167	0.928496
N395	N	1.310523	0.086166	1.261829
N396	N	1.643857	0.419499	1.595162
N397	N	1.014507	-0.207043	0.959257
N398	N	1.347841	0.126290	1.292590
N399	N	1.681174	0.459624	1.625923
H400	H	1.044667	-0.174637	0.936907
H401	H	1.378001	0.158697	1.270241
H402	H	1.711334	0.492030	1.603574
H403	H	0.968522	-0.256424	1.053621
H404	H	1.301855	0.076909	1.386955
H405	H	1.635188	0.410243	1.720288
H406	H	0.816831	-0.419601	0.643719
H407	H	1.150164	-0.086268	0.977053
H408	H	1.483497	0.247065	1.310386
N409	N	0.808151	-0.428960	0.517872
N410	N	1.141485	-0.095627	0.851205
N411	N	1.474818	0.237707	1.184538
N412	N	0.770831	-0.469057	0.545549
N413	N	1.104164	-0.135724	0.878882
N414	N	1.437498	0.197609	1.212215
H415	H	0.740667	-0.501478	0.520708
H416	H	1.074001	-0.168145	0.854041
H417	H	1.407334	0.165188	1.187374
H418	H	0.538572	-0.256827	0.364915
H419	H	0.871905	0.076506	0.698249
H420	H	1.205238	0.409839	1.031582
N421	N	0.664416	-0.247567	0.373590
N422	N	0.997750	0.085766	0.706923
N423	N	1.331083	0.419100	1.040256
N424	N	0.636769	-0.207522	0.410957
N425	N	0.970102	0.125811	0.744291
N426	N	1.303435	0.459144	1.077624
H427	H	0.661633	-0.175170	0.441157
H428	H	0.994966	0.158163	0.774490
H429	H	1.328300	0.491497	1.107823
