data_functionalizedCrystal
_audit_creation_method	'MofGen! by Chris Wilmer'
_symmetry_space_group_name_H-M	'P1'
_symmetry_Int_Tables_number	1
_symmetry_cell_setting	triclinic
loop_
_symmetry_equiv_pos_as_xyz
  x,y,z
_cell_length_a	12.759401
_cell_length_b	12.759394
_cell_length_c	12.759393
_cell_angle_alpha	89.970474
_cell_angle_beta	89.980198
_cell_angle_gamma	90.012941
loop_
_atom_site_label
_atom_site_type_symbol
_atom_site_fract_x
_atom_site_fract_y
_atom_site_fract_z
Zn1	Zn	1.606273	-0.418241	-0.593995
Zn2	Zn	1.606166	-0.593957	-0.418318
Zn3	Zn	1.430571	-0.418290	-0.418334
Zn4	Zn	1.430566	-0.593876	-0.593959
O5	O	1.518394	-0.506091	-0.506152
O6	O	1.753279	-0.441564	-0.570700
O7	O	1.582831	-0.570708	-0.271299
O8	O	1.453925	-0.271262	-0.441657
O9	O	1.753201	-0.570661	-0.441631
O10	O	1.583012	-0.271227	-0.570715
O11	O	1.453822	-0.441646	-0.271311
O12	O	1.283549	-0.441568	-0.441622
O13	O	1.453916	-0.570524	-0.740985
O14	O	1.283545	-0.570571	-0.570653
O15	O	1.583007	-0.441486	-0.741012
O16	O	1.582826	-0.740967	-0.441596
O17	O	1.453813	-0.740908	-0.570638
C18	C	1.245427	-0.506067	-0.506136
C19	C	1.128650	-0.506081	-0.506155
C20	C	0.964092	-0.439006	-0.573472
C21	C	1.073816	-0.438985	-0.573465
C22	C	1.073754	-0.573210	-0.438854
C23	C	0.964032	-0.573235	-0.438868
C24	C	1.518336	-0.779059	-0.506134
C25	C	1.518407	-0.895835	-0.506162
C26	C	1.652724	-0.895640	-0.640651
C27	C	1.719916	-0.950403	-0.707903
C28	C	1.719979	-1.060125	-0.707925
C29	C	1.652840	-1.115086	-0.640691
C30	C	1.585648	-1.060322	-0.573439
C31	C	1.585595	-0.950598	-0.573421
C32	C	1.451326	-1.060518	-0.438957
C33	C	1.451268	-0.950796	-0.438928
C34	C	1.384187	-1.115479	-0.371723
C35	C	1.316999	-1.060715	-0.304464
C36	C	1.316940	-0.950987	-0.304443
C37	C	1.384076	-0.896033	-0.371675
C38	C	1.792427	-0.506116	-0.506168
C39	C	1.909204	-0.506127	-0.506175
C40	C	1.518473	-0.505990	-0.780185
C41	C	1.518506	-0.505947	-0.896962
C42	C	1.518481	-0.232058	-0.506192
C43	C	1.518518	-0.115281	-0.506209
C44	C	1.585729	-0.438746	-0.951839
C45	C	1.585746	-0.438701	-1.061564
C46	C	1.451316	-0.573067	-1.061523
C47	C	1.451294	-0.573106	-0.951801
C48	C	1.518376	-0.506116	-0.233184
C49	C	1.518546	-0.505863	-0.116408
H50	H	1.118501	-0.384330	-0.628266
H51	H	0.919341	-0.627899	-0.384065
F52	F	1.245419	-0.892712	-0.232867
H53	H	1.774681	-1.104713	-0.762699
H54	H	0.919454	-0.384362	-0.628277
H55	H	1.396596	-0.627747	-1.106186
F56	F	1.652654	-0.778864	-0.640642
H57	H	1.118408	-0.627845	-0.384053
F58	F	1.791359	-0.891903	-0.779463
H59	H	1.652888	-1.204427	-0.640724
F60	F	1.384367	-1.232254	-0.371637
F61	F	1.657259	-0.367268	-0.893479
H62	H	1.640484	-0.383978	-1.106240
H63	H	1.396545	-0.627828	-0.907118
F64	F	1.384007	-0.779257	-0.371671
H65	H	1.262335	-1.105473	-0.249732
