data_functionalizedCrystal
_audit_creation_method	'MofGen! by Chris Wilmer'
_symmetry_space_group_name_H-M	'P1'
_symmetry_Int_Tables_number	1
_symmetry_cell_setting	triclinic
loop_
_symmetry_equiv_pos_as_xyz
  x,y,z
_cell_length_a	21.295419
_cell_length_b	12.645331
_cell_length_c	12.645323
_cell_angle_alpha	90.022676
_cell_angle_beta	89.983477
_cell_angle_gamma	89.998963
loop_
_atom_site_label
_atom_site_type_symbol
_atom_site_fract_x
_atom_site_fract_y
_atom_site_fract_z
Zn1	Zn	-0.250621	-1.620846	-0.599508
Zn2	Zn	-0.355896	-1.620776	-0.422274
Zn3	Zn	-0.250643	-1.443561	-0.422252
Zn4	Zn	-0.355855	-1.443591	-0.599489
O5	O	-0.303254	-1.532194	-0.510881
O6	O	-0.264594	-1.769184	-0.576014
O7	O	-0.341960	-1.597227	-0.273924
O8	O	-0.162550	-1.467095	-0.445764
O9	O	-0.341939	-1.769133	-0.445801
O10	O	-0.162535	-1.597346	-0.575993
O11	O	-0.264631	-1.467027	-0.273908
O12	O	-0.264591	-1.295218	-0.445746
O13	O	-0.341869	-1.467146	-0.747839
O14	O	-0.341890	-1.295240	-0.575961
O15	O	-0.264555	-1.597375	-0.747853
O16	O	-0.443980	-1.597256	-0.445783
O17	O	-0.443949	-1.467078	-0.575982
C18	C	-0.303239	-1.256764	-0.510850
C19	C	-0.303247	-1.138934	-0.510862
C20	C	-0.139063	-1.532225	-0.510878
C21	C	-0.069095	-1.532238	-0.510878
C22	C	-0.466805	-1.532192	-0.510906
C23	C	-0.536773	-1.532288	-0.510952
C24	C	-0.036236	-1.464436	-0.443076
C25	C	0.029507	-1.464434	-0.443088
C26	C	0.062387	-1.532254	-0.510892
C27	C	0.029520	-1.600061	-0.578707
C28	C	-0.036221	-1.600053	-0.578699
N29	N	0.165605	-1.625064	-0.519042
N30	N	0.228057	-1.625069	-0.519043
C31	C	0.260462	-1.532281	-0.510919
N32	N	0.228057	-1.439486	-0.502773
N33	N	0.165599	-1.439483	-0.502767
C34	C	0.133673	-1.532270	-0.510907
C35	C	0.364607	-1.464471	-0.443127
C36	C	0.430351	-1.464468	-0.443147
C37	C	0.430363	-1.600105	-0.578760
C38	C	0.364620	-1.600098	-0.578745
C39	C	0.331746	-1.532283	-0.510923
C40	C	-0.303205	-1.532272	-0.787386
C41	C	-0.303184	-1.532305	-0.905216
C42	C	-0.303269	-1.808699	-0.510912
C43	C	-0.303276	-1.926529	-0.510925
C44	C	-0.254395	-0.971321	-0.429395
C45	C	-0.254521	-1.093880	-0.429037
C46	C	-0.369560	-1.094444	-0.480364
C47	C	-0.369293	-0.971846	-0.479808
C48	C	-0.286418	-0.971777	-0.623142
C49	C	-0.284937	-1.094382	-0.622518
C50	C	-0.351594	-1.450125	-1.072772
C51	C	-0.351833	-1.450341	-0.950212
C52	C	-0.321189	-1.644013	-0.949741
C53	C	-0.321492	-1.643562	-1.072339
C54	C	-0.236500	-1.503833	-1.072398
C55	C	-0.236899	-1.501341	-0.949791
C56	C	-0.303257	-1.532177	-0.235451
C57	C	-0.303100	-1.532349	-0.117621
H58	H	-0.062998	-1.409214	-0.387851
H59	H	-0.370178	-1.667730	-1.100962
H60	H	-0.286985	-1.706920	-0.920597
H61	H	0.337840	-1.409247	-0.387908
H62	H	-0.340566	-1.367506	-0.920107
O63	O	-0.378614	-1.673470	-0.913036
C64	C	-0.372953	-1.768163	-0.854987
H65	H	-0.322655	-1.776850	-0.825402
H66	H	-0.385208	-1.838133	-0.907983
C67	C	-0.479935	-1.754681	-0.796292
C68	C	-0.418159	-1.765345	-0.759948
H69	H	-0.507822	-1.752946	-0.737670
H70	H	-0.483750	-1.690886	-0.835404
H71	H	-0.490139	-1.812991	-0.840456
H72	H	-0.407954	-1.707029	-0.715797
H73	H	-0.414344	-1.829130	-0.720826
H74	H	-0.401207	-1.469168	-0.920910
O75	O	0.061527	-1.665795	-0.644621
C76	C	0.099556	-1.605460	-0.713101
H77	H	0.109401	-1.525114	-0.675701
H78	H	0.074232	-1.593829	-0.791659
C79	C	0.149912	-1.762482	-0.778241
C80	C	0.162009	-1.663803	-0.732302
H81	H	0.188435	-1.798471	-0.790090
H82	H	0.124290	-1.803131	-0.732108
H83	H	0.128808	-1.752775	-0.843701
H84	H	0.183105	-1.673511	-0.666837
H85	H	0.187636	-1.623156	-0.778424
H86	H	-0.383589	-0.943207	-0.397772
O87	O	-0.338320	-1.351056	-1.108097
C88	C	-0.341049	-1.349431	-1.219487
H89	H	-0.371927	-1.417156	-1.248416
H90	H	-0.291701	-1.358869	-1.253170
C91	C	-0.331053	-1.160242	-1.221054
C92	C	-0.368982	-1.243418	-1.256584
H93	H	-0.348280	-1.094846	-1.243939
H94	H	-0.329212	-1.161335	-1.146008
H95	H	-0.289932	-1.168120	-1.249126
H96	H	-0.410099	-1.235546	-1.228501
H97	H	-0.370831	-1.242320	-1.331626
O98	O	-0.281113	-1.719072	-1.107621
C99	C	-0.220137	-1.697015	-1.070217
H100	H	-0.223306	-1.645555	-0.996367
H101	H	-0.192525	-1.653394	-1.133953
C102	C	-0.182655	-1.864564	-1.133723
C103	C	-0.186548	-1.801367	-1.043014
H104	H	-0.161934	-1.928932	-1.116947
H105	H	-0.223735	-1.879423	-1.158927
H106	H	-0.159646	-1.828201	-1.186828
H107	H	-0.209563	-1.837724	-0.989916
H108	H	-0.145471	-1.786516	-1.017801
H109	H	-0.205074	-0.941834	-0.448304
O110	O	-0.216839	-1.408434	-1.109367
C111	C	-0.160309	-1.421492	-1.165955
H112	H	-0.156511	-1.506678	-1.194792
H113	H	-0.118865	-1.402664	-1.112095
C114	C	-0.164339	-1.241490	-1.226149
C115	C	-0.159676	-1.346116	-1.261576
H116	H	-0.163946	-1.194992	-1.285131
H117	H	-0.202423	-1.232691	-1.188022
H118	H	-0.129801	-1.225815	-1.181266
H119	H	-0.194218	-1.361793	-1.306448
H120	H	-0.121598	-1.354916	-1.299714
O121	O	-0.410094	-1.472540	-1.109600
C122	C	-0.407385	-1.562181	-1.175785
H123	H	-0.364063	-1.610995	-1.155290
H124	H	-0.404571	-1.535809	-1.261857
C125	C	-0.519959	-1.569829	-1.184669
C126	C	-0.466753	-1.629789	-1.159491
H127	H	-0.556580	-1.611531	-1.174624
H128	H	-0.521784	-1.509434	-1.140082
H129	H	-0.517605	-1.547856	-1.256395
H130	H	-0.469103	-1.651749	-1.087764
H131	H	-0.464929	-1.690189	-1.204066
H132	H	-0.223321	-1.419134	-0.920689
H133	H	0.457106	-1.409250	-0.387938
O134	O	-0.191595	-1.567690	-0.913201
C135	C	-0.218966	-1.643888	-0.846128
H136	H	-0.270968	-1.652226	-0.865811
H137	H	-0.213536	-1.617843	-0.760296
C138	C	-0.122083	-1.740805	-0.838045
C139	C	-0.185952	-1.751051	-0.862226
H140	H	-0.101717	-1.806907	-0.847970
H141	H	-0.103642	-1.689467	-0.883230
H142	H	-0.117566	-1.719096	-0.766519
H143	H	-0.190468	-1.772746	-0.933754
H144	H	-0.204393	-1.802395	-0.817053
H145	H	-0.200370	-1.563720	-1.101402
H146	H	-0.317942	-1.125055	-0.686511
H147	H	-0.062975	-1.655266	-0.633916
O148	O	0.332794	-1.666075	-0.644630
C149	C	0.375910	-1.725919	-0.704497
H150	H	0.422768	-1.729578	-0.661085
H151	H	0.382911	-1.687126	-0.785009
C152	C	0.292700	-1.834254	-0.773098
C153	C	0.350251	-1.838756	-0.719773
H154	H	0.276872	-1.903856	-0.782526
H155	H	0.263652	-1.793934	-0.732768
H156	H	0.298543	-1.801922	-0.840186
H157	H	0.344406	-1.871074	-0.652682
H158	H	0.379298	-1.879084	-0.760093
O159	O	0.061368	-1.398423	-0.377276
C160	C	0.045327	-1.292765	-0.400437
H161	H	-0.002402	-1.290563	-0.441177
H162	H	0.082335	-1.257082	-0.454942
C163	C	0.100908	-1.231234	-0.247040
C164	C	0.042284	-1.228528	-0.297070
H165	H	0.099033	-1.191607	-0.183280
H166	H	0.111717	-1.302417	-0.231437
H167	H	0.131742	-1.201499	-0.292472
H168	H	0.011453	-1.258274	-0.251644
H169	H	0.031469	-1.157349	-0.312663
O170	O	-0.195844	-1.129631	-0.451949
C171	C	-0.177711	-1.092684	-0.552612
H172	H	-0.205799	-1.018722	-0.573050
H173	H	-0.187183	-1.156568	-0.614214
C174	C	-0.072668	-1.156778	-0.526646
C175	C	-0.107162	-1.065932	-0.551745
H176	H	-0.029150	-1.140281	-0.526114
H177	H	-0.084885	-1.181674	-0.458829
H178	H	-0.080569	-1.210007	-0.577985
H179	H	-0.099267	-1.012710	-0.500400
H180	H	-0.094942	-1.041026	-0.619554
O181	O	-0.267674	-0.934550	-0.330815
C182	C	-0.320926	-0.868445	-0.335213
H183	H	-0.349922	-0.888924	-0.408168
H184	H	-0.305296	-0.782344	-0.339840
C185	C	-0.325427	-0.859727	-0.145615
C186	C	-0.361043	-0.884886	-0.235214
H187	H	-0.350172	-0.869864	-0.083929
H188	H	-0.289548	-0.904260	-0.142651
H189	H	-0.312404	-0.787977	-0.149485
H190	H	-0.374059	-0.956638	-0.231350
H191	H	-0.396925	-0.840365	-0.238175
H192	H	-0.265663	-1.123163	-0.345879
H193	H	0.457133	-1.655321	-0.633971
O194	O	-0.414174	-0.936611	-0.547691
C195	C	-0.401140	-0.974040	-0.650422
H196	H	-0.370581	-1.047871	-0.645181
H197	H	-0.375263	-0.910304	-0.696957
C198	C	-0.500667	-0.910608	-0.713297
C199	C	-0.463140	-1.001294	-0.706859
H200	H	-0.538911	-0.927415	-0.748113
H201	H	-0.509448	-0.885387	-0.644086
H202	H	-0.479097	-0.857503	-0.752073
H203	H	-0.484707	-1.054392	-0.668072
H204	H	-0.454364	-1.026524	-0.776064
O205	O	-0.414243	-1.129308	-0.548824
C206	C	-0.460007	-1.187365	-0.492952
H207	H	-0.459608	-1.162552	-0.406276
H208	H	-0.449110	-1.275416	-0.499185
C209	C	-0.525742	-1.195832	-0.647040
C210	C	-0.525257	-1.165351	-0.540585
H211	H	-0.565991	-1.182258	-0.676425
H212	H	-0.494910	-1.156722	-0.684685
H213	H	-0.516659	-1.269207	-0.652221
H214	H	-0.534332	-1.091976	-0.535407
H215	H	-0.556092	-1.204448	-0.502941
O216	O	-0.229716	-0.934834	-0.656062
C217	C	-0.204410	-0.867414	-0.578136
H218	H	-0.226112	-0.887098	-0.498109
H219	H	-0.215282	-0.781704	-0.599230
C220	C	-0.106109	-0.858781	-0.670914
C221	C	-0.132760	-0.882964	-0.572621
H222	H	-0.061912	-0.868368	-0.667514
H223	H	-0.123158	-0.904200	-0.723416
H224	H	-0.115175	-0.787357	-0.688481
H225	H	-0.123700	-0.954390	-0.555061
H226	H	-0.115707	-0.837557	-0.520115
O227	O	-0.226714	-1.128927	-0.650099
C228	C	-0.210774	-1.088468	-0.750463
H229	H	-0.239399	-1.014044	-0.766688
H230	H	-0.221432	-1.150293	-0.813597
C231	C	-0.105143	-1.152700	-0.732964
C232	C	-0.140296	-1.061286	-0.752889
H233	H	-0.061668	-1.135937	-0.734464
H234	H	-0.115881	-1.179962	-0.665349
H235	H	-0.114031	-1.204212	-0.785579
H236	H	-0.131413	-1.009781	-0.700267
H237	H	-0.129554	-1.034015	-0.820495
H238	H	-0.384101	-1.125106	-0.399209
H239	H	-0.322021	-0.942814	-0.683889
