data_functionalizedCrystal
_audit_creation_method	'MofGen! by Chris Wilmer'
_symmetry_space_group_name_H-M	'P1'
_symmetry_Int_Tables_number	1
_symmetry_cell_setting	triclinic
loop_
_symmetry_equiv_pos_as_xyz
  x,y,z
_cell_length_a	16.109301
_cell_length_b	13.596369
_cell_length_c	16.109301
_cell_angle_alpha	90.007411
_cell_angle_beta	83.461481
_cell_angle_gamma	90.002607
loop_
_atom_site_label
_atom_site_type_symbol
_atom_site_fract_x
_atom_site_fract_y
_atom_site_fract_z
O1	O	1.103133	0.081732	0.106869
O2	O	1.353133	0.331732	0.356869
O3	O	1.603133	0.581732	0.606869
O4	O	1.853133	0.831732	0.856869
O5	O	0.861071	0.081748	0.120168
O6	O	1.111071	0.331748	0.370168
O7	O	1.361071	0.581748	0.620168
O8	O	1.611071	0.831748	0.870168
O9	O	0.988751	0.081730	-0.007513
O10	O	1.238751	0.331730	0.242487
O11	O	1.488751	0.581730	0.492487
O12	O	1.738751	0.831730	0.742487
O13	O	0.975452	0.081751	0.234549
O14	O	1.225452	0.331751	0.484549
O15	O	1.475452	0.581751	0.734549
O16	O	1.725452	0.831751	0.984549
O17	O	0.988739	-0.081853	-0.007520
O18	O	1.238739	0.168147	0.242480
O19	O	1.488739	0.418147	0.492480
O20	O	1.738739	0.668147	0.742480
O21	O	0.861058	-0.081835	0.120161
O22	O	1.111058	0.168165	0.370161
O23	O	1.361058	0.418165	0.620161
O24	O	1.611058	0.668165	0.870161
O25	O	1.103120	-0.081851	0.106862
O26	O	1.353120	0.168149	0.356862
O27	O	1.603120	0.418149	0.606862
O28	O	1.853120	0.668149	0.856862
Zn29	Zn	0.982087	-0.107815	0.113510
Zn30	Zn	1.232087	0.142185	0.363510
Zn31	Zn	1.482087	0.392185	0.613510
Zn32	Zn	1.732087	0.642185	0.863510
Zn33	Zn	0.982104	0.107713	0.113519
Zn34	Zn	1.232104	0.357713	0.363519
Zn35	Zn	1.482104	0.607713	0.613519
Zn36	Zn	1.732104	0.857713	0.863519
O37	O	0.975439	-0.081832	0.234542
O38	O	1.225439	0.168168	0.484542
O39	O	1.475439	0.418168	0.734542
O40	O	1.725439	0.668168	0.984542
C41	C	0.830090	-0.000041	0.119626
C42	C	1.080090	0.249959	0.369626
C43	C	1.330090	0.499959	0.619626
C44	C	1.580090	0.749959	0.869626
C45	C	0.737794	-0.000035	0.118011
C46	C	0.987794	0.249965	0.368011
C47	C	1.237794	0.499965	0.618011
C48	C	1.487794	0.749965	0.868011
N49	N	0.982082	-0.254907	0.113504
N50	N	1.232082	-0.004907	0.363504
N51	N	1.482082	0.245093	0.613504
N52	N	1.732082	0.495093	0.863504
C53	C	0.515522	-0.000041	0.190018
C54	C	0.765522	0.249959	0.440018
C55	C	1.015522	0.499959	0.690018
C56	C	1.265522	0.749959	0.940018
C57	C	0.428801	-0.000047	0.188494
C58	C	0.678801	0.249953	0.438494
C59	C	0.928801	0.499953	0.688494
C60	C	1.178801	0.749953	0.938494
C61	C	0.448676	-0.000056	0.037006
C62	C	0.698676	0.249944	0.287006
C63	C	0.948676	0.499944	0.537006
C64	C	1.198676	0.749944	0.787006
C65	C	0.535394	-0.000057	0.038530
C66	C	0.785394	0.249943	0.288530
C67	C	1.035394	0.499943	0.538530
C68	C	1.285394	0.749943	0.788530
C69	C	0.568815	-0.000044	0.115039
C70	C	0.818815	0.249956	0.365039
C71	C	1.068815	0.499956	0.615039
C72	C	1.318815	0.749956	0.865039
C73	C	0.395376	-0.000050	0.111990
C74	C	0.645376	0.249950	0.361990
C75	C	0.895376	0.499950	0.611990
C76	C	1.145376	0.749950	0.861990
C77	C	0.301350	-0.000057	0.110337
C78	C	0.551350	0.249943	0.360337
C79	C	0.801350	0.499943	0.610337
C80	C	1.051350	0.749943	0.860337
C81	C	0.662847	-0.000039	0.116693
C82	C	0.912847	0.249961	0.366693
C83	C	1.162847	0.499961	0.616693
C84	C	1.412847	0.749961	0.866693
C85	C	0.982103	-0.656198	0.113520
C86	C	1.232103	-0.406198	0.363520
C87	C	1.482103	-0.156198	0.613520
C88	C	1.732103	0.093802	0.863520
C89	C	0.982094	-0.544546	0.113518
C90	C	1.232094	-0.294546	0.363518
C91	C	1.482094	-0.044546	0.613518
C92	C	1.732094	0.205454	0.863518
C93	C	0.982093	-0.455556	0.113513
C94	C	1.232093	-0.205556	0.363513
C95	C	1.482093	0.044444	0.613513
C96	C	1.732093	0.294444	0.863513
C97	C	0.982083	-0.343897	0.113510
C98	C	1.232083	-0.093897	0.363510
C99	C	1.482083	0.156103	0.613510
C100	C	1.732083	0.406103	0.863510
C101	C	1.134101	-0.000059	0.107404
C102	C	1.384101	0.249941	0.357404
C103	C	1.634101	0.499941	0.607404
C104	C	1.884101	0.749941	0.857404
C105	C	1.226397	-0.000058	0.109019
C106	C	1.476397	0.249942	0.359019
C107	C	1.726397	0.499942	0.609019
C108	C	1.976397	0.749942	0.859019
C109	C	0.988206	-0.000062	-0.038491
C110	C	1.238206	0.249938	0.211509
C111	C	1.488206	0.499938	0.461509
C112	C	1.738206	0.749938	0.711509
C113	C	0.986591	-0.000063	-0.130786
C114	C	1.236591	0.249937	0.119214
C115	C	1.486591	0.499937	0.369214
C116	C	1.736591	0.749937	0.619214
N117	N	0.982116	0.254805	0.113519
N118	N	1.232116	0.504805	0.363519
N119	N	1.482116	0.754805	0.613519
N120	N	1.732116	1.004805	0.863519
C121	C	1.058599	-0.000052	-0.353059
C122	C	1.308599	0.249948	-0.103059
C123	C	1.558599	0.499948	0.146941
C124	C	1.808599	0.749948	0.396941
C125	C	1.057075	-0.000044	-0.439779
C126	C	1.307075	0.249956	-0.189779
C127	C	1.557075	0.499956	0.060221
C128	C	1.807075	0.749956	0.310221
C129	C	0.905586	-0.000038	-0.419905
C130	C	1.155586	0.249962	-0.169905
C131	C	1.405586	0.499962	0.080095
C132	C	1.655586	0.749962	0.330095
C133	C	0.907111	-0.000039	-0.333186
C134	C	1.157111	0.249961	-0.083186
C135	C	1.407111	0.499961	0.166814
C136	C	1.657111	0.749961	0.416814
C137	C	0.983620	-0.000051	-0.299766
C138	C	1.233620	0.249949	-0.049766
C139	C	1.483620	0.499949	0.200234
C140	C	1.733620	0.749949	0.450234
C141	C	0.980571	-0.000042	-0.473205
C142	C	1.230571	0.249958	-0.223205
C143	C	1.480571	0.499958	0.026795
C144	C	1.730571	0.749958	0.276795
C145	C	0.978918	-0.000033	-0.567231
C146	C	1.228918	0.249967	-0.317231
C147	C	1.478918	0.499967	-0.067231
C148	C	1.728918	0.749967	0.182769
C149	C	0.985273	-0.000058	-0.205734
C150	C	1.235273	0.249942	0.044266
C151	C	1.485273	0.499942	0.294266
C152	C	1.735273	0.749942	0.544266
C153	C	0.975984	-0.000038	0.265521
C154	C	1.225984	0.249962	0.515521
C155	C	1.475984	0.499962	0.765521
C156	C	1.725984	0.749962	1.015521
C157	C	0.977600	-0.000030	0.357816
C158	C	1.227600	0.249970	0.607816
C159	C	1.477600	0.499970	0.857816
C160	C	1.727600	0.749970	1.107816
H161	H	0.542730	-0.000038	0.252317
H162	H	0.792730	0.249962	0.502317
H163	H	1.042730	0.499962	0.752317
H164	H	1.292730	0.749962	1.002317
F165	F	0.372086	-0.000045	0.268298
F166	F	0.622086	0.249955	0.518298
F167	F	0.872086	0.499955	0.768298
F168	F	1.122086	0.749955	1.018298
F169	F	0.413100	-0.000065	-0.044416
F170	F	0.663100	0.249935	0.205584
F171	F	0.913100	0.499935	0.455584
F172	F	1.163100	0.749935	0.705584
F173	F	1.136878	-0.000043	-0.496495
F174	F	1.386878	0.249957	-0.246495
F175	F	1.636878	0.499957	0.003505
F176	F	1.886878	0.749957	0.253505
H177	H	0.578788	-0.000062	-0.022530
H178	H	0.828788	0.249938	0.227470
H179	H	1.078788	0.499938	0.477470
H180	H	1.328788	0.749938	0.727470
F181	F	1.140026	-0.000064	-0.317493
F182	F	1.390026	0.249936	-0.067493
F183	F	1.640026	0.499936	0.182507
F184	F	1.890026	0.749936	0.432507
F185	F	0.824164	-0.000025	-0.455481
F186	F	1.074164	0.249975	-0.205481
F187	F	1.324164	0.499975	0.044519
F188	F	1.574164	0.749975	0.294519
F189	F	0.827304	-0.000031	-0.276464
F190	F	1.077304	0.249969	-0.026464
F191	F	1.327304	0.499969	0.223536
F192	F	1.577304	0.749969	0.473536
