data_functionalizedCrystal
_audit_creation_method	'MofGen! by Chris Wilmer'
_symmetry_space_group_name_H-M	'P1'
_symmetry_Int_Tables_number	1
_symmetry_cell_setting	triclinic
loop_
_symmetry_equiv_pos_as_xyz
  x,y,z
_cell_length_a	8.497374
_cell_length_b	13.033748
_cell_length_c	13.033615
_cell_angle_alpha	105.186600
_cell_angle_beta	97.184998
_cell_angle_gamma	82.830727
loop_
_atom_site_label
_atom_site_type_symbol
_atom_site_fract_x
_atom_site_fract_y
_atom_site_fract_z
Zn1	Zn	0.549906	1.570024	-0.216455
Zn2	Zn	0.256401	1.547453	-0.394033
Zn3	Zn	0.315801	1.392458	-0.239029
Zn4	Zn	0.549802	1.369869	-0.416618
O5	O	0.417978	1.469951	-0.316534
O6	O	0.486156	1.715661	-0.221112
O7	O	0.043518	1.526900	-0.373467
O8	O	0.371758	1.434912	-0.087396
O9	O	0.270519	1.699078	-0.351578
O10	O	0.543754	1.565369	-0.070811
O11	O	0.087159	1.413026	-0.259586
O12	O	0.371658	1.240830	-0.281486
O13	O	0.770579	1.396412	-0.390070
O14	O	0.543577	1.224234	-0.411959
O15	O	0.770655	1.543465	-0.243012
O16	O	0.270419	1.504996	-0.545667
O17	O	0.485979	1.374526	-0.562260
C18	C	0.464053	1.193993	-0.351623
C19	C	0.483797	1.075934	-0.366661
C20	C	0.407708	1.031496	-0.308712
C21	C	0.428113	0.909476	-0.324253
C22	C	0.464394	1.505178	-0.039486
C23	C	0.484173	1.520190	0.078575
C24	C	0.829459	1.469943	-0.316536
C25	C	1.008101	1.469944	-0.316547
C26	C	0.371772	1.434889	-0.592500
C27	C	0.352041	1.419987	-0.710547
C28	C	0.371723	1.746986	-0.281308
C29	C	0.352013	1.865042	-0.266296
C30	C	0.407892	1.462336	0.123005
C31	C	0.428333	1.477850	0.245027
H32	H	0.508362	0.857189	-0.385376
H33	H	0.327452	1.083785	-0.247600
F34	F	0.246892	1.340225	0.221105
H35	H	0.327457	1.401315	0.070705
H36	H	0.271752	0.917326	-0.205179
H37	H	0.564041	1.023644	-0.427780
F38	F	0.533493	1.557604	0.313376
F39	F	0.589327	1.599941	0.146928
