data_functionalizedCrystal
_audit_creation_method	'MofGen! by Chris Wilmer'
_symmetry_space_group_name_H-M	'P1'
_symmetry_Int_Tables_number	1
_symmetry_cell_setting	triclinic
loop_
_symmetry_equiv_pos_as_xyz
  x,y,z
_cell_length_a	31.640172
_cell_length_b	14.560438
_cell_length_c	31.640172
_cell_angle_alpha	119.996391
_cell_angle_beta	90.000060
_cell_angle_gamma	59.995003
loop_
_atom_site_label
_atom_site_type_symbol
_atom_site_fract_x
_atom_site_fract_y
_atom_site_fract_z
Zr1	Zr	0.407179	1.005209	0.055507
O2	O	0.339689	1.196814	0.122991
O3	O	0.427868	0.813601	0.034816
O4	O	0.427866	1.005187	0.122989
O5	O	0.339693	1.005247	-0.034731
O6	O	0.497422	1.005171	0.122992
O7	O	0.339691	1.005229	0.034818
O8	O	0.497426	0.662460	-0.034735
O9	O	0.339689	1.347958	0.122996
O10	O	0.488601	0.892401	0.025998
O11	O	0.436694	0.892426	-0.025908
O12	O	0.436691	1.117993	0.077906
O13	O	0.384784	1.118018	0.026000
Zr14	Zr	0.518117	1.005212	-0.055410
Zr15	Zr	0.518113	1.005184	0.055511
Zr16	Zr	0.407182	1.005237	-0.055415
Zr17	Zr	0.407180	1.246266	0.055514
Zr18	Zr	0.518116	0.764155	-0.055418
O19	O	0.497428	1.196820	-0.034719
O20	O	0.497423	1.196779	0.122998
O21	O	0.339694	1.196855	-0.034725
O22	O	0.585607	0.813607	-0.122895
O23	O	0.585602	0.813566	0.034822
O24	O	0.427873	0.813642	-0.122901
O25	O	0.585603	1.005174	0.034828
O26	O	0.497430	1.005234	-0.122893
O27	O	0.427873	1.005250	-0.122895
O28	O	0.585605	1.005192	-0.034721
O29	O	0.427867	1.347938	0.122999
O30	O	0.497429	0.662482	-0.122903
O31	O	0.585606	0.662463	-0.122899
O32	O	0.585604	0.662440	-0.034731
O33	O	0.339692	1.347981	0.034828
O34	O	0.427870	1.347961	0.034831
O35	O	0.488604	0.892428	-0.077809
O36	O	0.540512	0.892403	-0.025904
O37	O	0.488602	1.117995	0.026004
O38	O	0.436694	1.118020	-0.025901
C39	C	0.462647	0.703685	0.000039
C40	C	0.462646	0.601350	0.000036
C41	C	0.424325	0.636563	0.038358
C42	C	0.424327	0.540423	0.038371
C43	C	0.500974	0.373859	-0.038263
C44	C	0.500974	0.469998	-0.038274
C45	C	0.323886	1.005241	0.000043
C46	C	0.276792	1.005252	0.000041
C47	C	-0.015215	1.005177	0.038362
C48	C	-0.192202	1.005161	0.038366
O49	O	-0.215075	1.005095	0.070939
N50	N	-0.214331	1.005173	0.000052
C51	C	-0.192209	1.005181	-0.038268
O52	O	-0.215090	1.005178	-0.070860
C53	C	-0.015221	1.005188	-0.038274
C54	C	0.006903	1.005189	0.000046
C55	C	0.006909	1.005176	0.076679
C56	C	0.051152	1.005188	0.076679
C57	C	0.073270	1.005199	0.038363
C58	C	0.051145	1.005200	0.000046
C59	C	0.006902	1.005187	-0.076596
C60	C	0.051152	1.005186	-0.076594
C61	C	0.073276	1.005186	-0.038274
C62	C	0.117505	1.005223	-0.038270
N63	N	0.139635	1.005211	0.000045
C64	C	0.117517	1.005199	0.038361
C65	C	-0.285131	1.005180	-0.038262
C66	C	-0.329378	1.005181	-0.038260
C67	C	-0.329367	1.005158	0.038374
C68	C	-0.285121	1.005167	0.038373
C69	C	-0.263002	1.005168	0.000052
C70	C	0.210429	1.005223	0.038359
C71	C	0.254674	1.005240	0.038357
C72	C	0.254660	1.005256	-0.038278
C73	C	0.210417	1.005246	-0.038275
C74	C	0.188304	1.005226	0.000046
O75	O	0.140410	1.005275	-0.070829
O76	O	0.140412	1.005173	0.070941
C77	C	-0.059457	1.005166	0.038362
C78	C	-0.081582	1.005167	0.000045
C79	C	-0.059464	1.005179	-0.038271
C80	C	-0.125829	1.005167	0.000047
C81	C	-0.147947	1.005155	0.038363
C82	C	-0.125818	1.005143	0.076678
C83	C	-0.081575	1.005154	0.076678
C84	C	-0.081594	1.005191	-0.076585
C85	C	-0.125836	1.005182	-0.076582
C86	C	-0.147954	1.005170	-0.038266
C87	C	0.601409	1.005179	0.000054
C88	C	0.648504	1.005169	0.000056
C89	C	0.462643	1.005175	0.138795
C90	C	0.462642	1.005163	0.185884
C91	C	0.462649	1.306736	0.000057
C92	C	0.462649	1.409071	0.000060
C93	C	0.435548	1.122987	0.505015
C94	C	0.435546	1.123012	0.682012
O95	O	0.412519	1.223161	0.727941
N96	N	0.462641	1.005257	0.677046
C97	C	0.489741	0.887487	0.627828
O98	O	0.512791	0.787329	0.627666
C99	C	0.489746	0.887463	0.450833
C100	C	0.462645	1.005226	0.455802
C101	C	0.408450	1.240741	0.509982
C102	C	0.408448	1.240733	0.465736
C103	C	0.435545	1.122972	0.416522
C104	C	0.462643	1.005218	0.411555
C105	C	0.516849	0.769694	0.401615
C106	C	0.516849	0.769698	0.357366
C107	C	0.489748	0.887461	0.362335
C108	C	0.489739	0.887450	0.318095
N109	N	0.462644	1.005205	0.323060
C110	C	0.435547	1.122966	0.372274
C111	C	0.489735	0.887508	0.720754
C112	C	0.489734	0.887513	0.765003
C113	C	0.435539	1.123039	0.819184
C114	C	0.435538	1.123032	0.774934
C115	C	0.462640	1.005263	0.725719
C116	C	0.435546	1.122942	0.279350
C117	C	0.435545	1.122924	0.235098
C118	C	0.489742	0.887398	0.180921
C119	C	0.489740	0.887415	0.225169
C120	C	0.462641	1.005198	0.274386
O121	O	0.512758	0.787353	0.272150
O122	O	0.412510	1.223109	0.372425
C123	C	0.435549	1.122995	0.549262
C124	C	0.462648	1.005241	0.544295
C125	C	0.489745	0.887480	0.495081
C126	C	0.462646	1.005247	0.588544
C127	C	0.435549	1.123008	0.637757
C128	C	0.408454	1.240763	0.642722
C129	C	0.408452	1.240756	0.598476
C130	C	0.516840	0.769724	0.490116
C131	C	0.516839	0.769741	0.534365
C132	C	0.489742	0.887503	0.583579
C133	C	0.462648	1.005250	0.861303
C134	C	0.462637	1.005274	0.814216
C135	C	0.601408	0.703654	0.000045
C136	C	0.648503	0.601308	0.000044
C137	C	0.462651	0.703721	-0.138707
C138	C	0.462652	0.601398	-0.185799
C139	C	0.601413	0.703690	-0.138701
C140	C	0.648508	0.601356	-0.185792
C141	C	0.323883	1.306731	0.138798
C142	C	0.276787	1.409065	0.185888
C143	C	0.323887	1.306767	0.000052
C144	C	0.276793	1.409112	0.000053
C145	C	0.462644	1.306700	0.138804
C146	C	0.462643	1.409023	0.185896
C147	C	0.643522	0.553245	0.027140
C148	C	0.687767	0.457094	0.027149
C149	C	0.736993	0.409001	0.000059
C150	C	0.741973	0.457074	-0.027038
C151	C	0.697728	0.553230	-0.027044
C152	C	0.489749	0.553347	-0.235011
C153	C	0.489749	0.457217	-0.279263
C154	C	0.462653	0.409134	-0.274303
C155	C	0.435552	0.457194	-0.225086
C156	C	0.435551	0.553329	-0.180835
C157	C	0.697725	0.553287	-0.180812
C158	C	0.741980	0.457147	-0.225054
C159	C	0.737018	0.409072	-0.274276
C160	C	0.687797	0.457152	-0.279254
C161	C	0.643542	0.553296	-0.235013
C162	C	0.227571	1.457146	0.180908
C163	C	0.183315	1.553316	0.225151
C164	C	0.188277	1.601395	0.274372
C165	C	0.237499	1.553310	0.279351
C166	C	0.281753	1.457149	0.235109
C167	C	0.281774	1.457186	-0.027039
C168	C	0.237528	1.553364	-0.027036
C169	C	0.188302	1.601460	0.000056
C170	C	0.183322	1.553382	0.027151
C171	C	0.227567	1.457213	0.027150
C172	C	0.489744	1.457076	0.180919
C173	C	0.489753	1.553207	0.225163
C174	C	0.462658	1.601289	0.274383
C175	C	0.435556	1.553226	0.279359
C176	C	0.435551	1.457091	0.235116
H177	H	0.272685	1.005244	0.069563
Br178	Br	0.462661	0.278664	-0.334365
H179	H	0.143236	1.592557	0.049208
H180	H	0.152279	1.679767	0.000052
Br181	Br	0.681071	0.391894	-0.346059
H182	H	0.143241	1.592451	0.221087
H183	H	0.223505	1.418074	0.049210
Br184	Br	0.081170	1.005179	-0.128607
H185	H	0.393114	0.743512	0.069550
Br186	Br	0.372319	0.588220	0.090383
Br187	Br	0.526534	1.618419	0.218398
H188	H	0.782054	0.418010	-0.220991
Br189	Br	0.797084	0.278589	-0.334314
H190	H	0.701775	0.592415	-0.140737
Br191	Br	0.576750	0.618517	-0.241781
H192	H	-0.267110	1.005166	0.069576
H193	H	0.223521	1.418005	0.140834
Br194	Br	0.526520	1.391844	0.114126
Br195	Br	0.680997	0.391870	0.063925
Br196	Br	0.244299	1.618588	-0.063811
H197	H	0.192429	1.005204	0.069563
H198	H	0.462667	1.679569	0.310405
Br199	Br	-0.051556	1.005156	0.128686
H200	H	-0.347393	1.005201	-0.069459
Br201	Br	0.128212	1.731902	0.334410
H202	H	0.782059	0.417903	-0.049093
Br203	Br	0.797036	0.278502	0.000073
Br204	Br	0.244224	1.618572	0.346156
H205	H	-0.011105	1.005186	-0.107799
H206	H	0.413486	0.592439	-0.140766
H207	H	0.701791	0.592351	-0.049111
H208	H	0.321826	1.418001	0.239170
H209	H	0.413480	1.417977	0.239175
H210	H	0.532178	0.266903	-0.069455
Br211	Br	0.552988	0.422207	-0.090283
Br212	Br	0.526529	0.618576	-0.241757
Br213	Br	0.348575	1.391938	-0.063808
H214	H	0.413496	1.592389	0.319440
H215	H	0.069164	1.005183	0.107881
H216	H	-0.011094	1.005162	0.107880
H217	H	-0.347383	1.005151	0.069573
H218	H	0.538920	0.673794	0.317294
H219	H	0.511819	0.418098	-0.319333
H220	H	0.192399	1.005265	-0.069474
Br221	Br	0.284683	1.005278	-0.090276
Br222	Br	-0.255117	1.005185	-0.090273
Br223	Br	-0.155860	1.005192	-0.128589
Br224	Br	-0.155845	1.005136	0.128680
Br225	Br	0.526504	0.727685	0.758252
H226	H	-0.063588	1.005199	-0.107787
Br227	Br	0.398782	0.391923	-0.218363
H228	H	0.413474	1.218825	0.239150
H229	H	0.386388	1.336649	0.682801
Br230	Br	0.398769	1.282790	0.346137
H231	H	0.386382	1.336628	0.469788
Br232	Br	0.398758	1.282859	0.781684
Br233	Br	0.371670	1.400582	0.576769
H234	H	0.413473	1.218925	0.859262
H235	H	0.511807	0.791600	0.680683
H236	H	0.603443	0.592401	0.049206
H237	H	0.538919	0.673798	0.397558
H238	H	0.511801	0.791523	0.221122
H239	H	0.511802	0.791520	0.140844
H240	H	0.386384	1.336651	0.602528
H241	H	0.538906	0.673837	0.530311
H242	H	0.538907	0.673827	0.450047
