data_functionalizedCrystal
_audit_creation_method	'MofGen! by Chris Wilmer'
_symmetry_space_group_name_H-M	'P1'
_symmetry_Int_Tables_number	1
_symmetry_cell_setting	triclinic
loop_
_symmetry_equiv_pos_as_xyz
  x,y,z
_cell_length_a	10.489741
_cell_length_b	10.489763
_cell_length_c	13.330367
_cell_angle_alpha	90.009358
_cell_angle_beta	89.995141
_cell_angle_gamma	95.456232
loop_
_atom_site_label
_atom_site_type_symbol
_atom_site_fract_x
_atom_site_fract_y
_atom_site_fract_z
O1	O	1.694074	-0.179965	-0.083373
O2	O	1.322880	-0.196858	-0.083390
O3	O	1.516908	-0.002816	-0.083363
O4	O	1.500045	-0.374008	-0.083401
O5	O	1.516880	-0.002811	0.083485
O6	O	1.322851	-0.196853	0.083457
O7	O	1.694046	-0.179961	0.083474
Cu8	Cu	1.508446	-0.188407	0.098700
Cu9	Cu	1.508479	-0.188412	-0.098616
O10	O	1.500017	-0.374003	0.083446
C11	C	1.275334	-0.195580	0.000032
C12	C	1.133704	-0.191763	0.000026
C13	C	1.065554	-0.068299	0.000048
C14	C	0.973446	-0.126624	-0.082220
C15	C	0.973452	-0.126649	0.082278
C16	C	1.043461	-0.250139	-0.082310
C17	C	1.043477	-0.250146	0.082262
C18	C	0.951396	-0.308561	-0.000026
C19	C	1.515614	0.044718	0.000064
C20	C	1.511786	0.186346	0.000072
C21	C	1.388316	0.254485	0.000064
C22	C	1.446618	0.346609	0.082337
C23	C	1.446675	0.346579	-0.082161
C24	C	1.570139	0.276604	0.082412
C25	C	1.570179	0.276565	-0.082160
C26	C	1.628571	0.368661	0.000133
C27	C	1.741591	-0.181239	0.000050
C28	C	1.883221	-0.185056	0.000049
C29	C	1.501291	0.578461	0.000035
C30	C	1.505059	0.436826	0.000073
N31	N	1.508431	-0.188402	0.237481
N32	N	1.508504	-0.188407	-0.237398
C33	C	1.422559	-0.274300	0.710092
C34	C	1.594434	-0.102515	0.710084
C35	C	1.594419	-0.102511	0.605066
C36	C	1.508475	-0.188404	0.552556
C37	C	1.422545	-0.274301	0.605064
C38	C	1.680356	-0.016624	0.552550
C39	C	1.680346	-0.016617	0.447525
C40	C	1.594395	-0.102505	0.395013
C41	C	1.508460	-0.188405	0.447528
C42	C	1.422516	-0.274298	0.395018
C43	C	1.336574	-0.360193	0.447530
C44	C	1.336593	-0.360189	0.552552
C45	C	1.594376	-0.102509	0.289992
C46	C	1.422501	-0.274299	0.289990
H47	H	1.074515	-0.302342	0.151808
F48	F	1.761367	0.433265	0.000200
F49	F	1.378320	0.387146	0.173243
H50	H	1.622390	0.245519	-0.151712
H51	H	0.942458	-0.074385	0.151830
F52	F	1.255638	0.189590	0.000157
F53	F	1.685842	-0.011107	0.234110
F54	F	1.378377	0.387076	-0.173061
H55	H	1.115235	0.033196	-0.000044
F56	F	1.331019	-0.365715	0.234112
H57	H	1.622325	0.245775	0.152038
H58	H	1.664413	-0.032589	0.752842
F59	F	1.245116	-0.451612	0.391634
F60	F	1.771828	0.074778	0.608435
H61	H	1.266624	-0.430123	0.595314
H62	H	1.352583	-0.344231	0.752851
F63	F	1.771807	0.074800	0.391645
H64	H	0.942439	-0.074386	-0.151763
H65	H	1.074305	-0.302340	-0.151940
H66	H	0.901980	-0.410164	-0.000082
