data_functionalizedCrystal
_audit_creation_method	'MofGen! by Chris Wilmer'
_symmetry_space_group_name_H-M	'P1'
_symmetry_Int_Tables_number	1
_symmetry_cell_setting	triclinic
loop_
_symmetry_equiv_pos_as_xyz
  x,y,z
_cell_length_a	10.654550
_cell_length_b	14.519709
_cell_length_c	9.130313
_cell_angle_alpha	89.997798
_cell_angle_beta	89.996220
_cell_angle_gamma	84.082524
loop_
_atom_site_label
_atom_site_type_symbol
_atom_site_fract_x
_atom_site_fract_y
_atom_site_fract_z
O1	O	1.666589	0.129528	-0.121923
O2	O	1.300991	0.141869	-0.121900
O3	O	1.493483	0.001510	-0.121899
O4	O	1.474097	0.269887	-0.121924
O5	O	1.493481	0.001514	0.121700
O6	O	1.300989	0.141873	0.121699
O7	O	1.666586	0.129532	0.121676
Cu8	Cu	1.483787	0.135703	0.143930
Cu9	Cu	1.483790	0.135698	-0.144154
O10	O	1.474094	0.269891	0.121675
C11	C	1.254201	0.140965	-0.000098
C12	C	1.114784	0.138254	-0.000088
C13	C	1.492579	-0.032852	-0.000099
C14	C	1.489871	-0.135247	-0.000098
C15	C	1.034504	0.220895	-0.000117
C16	C	0.903507	0.218342	-0.000143
C17	C	0.933085	0.050500	-0.000116
C18	C	1.064078	0.053054	-0.000080
C19	C	1.017426	0.317797	-0.000139
C20	C	0.886430	0.315244	-0.000164
C21	C	1.479904	-0.510195	-0.000136
C22	C	1.482672	-0.405873	-0.000125
C23	C	1.484887	-0.322725	-0.000116
C24	C	1.487656	-0.218396	-0.000108
C25	C	1.713377	0.130436	-0.000130
C26	C	1.852794	0.133147	-0.000149
C27	C	1.474999	0.304253	-0.000128
C28	C	1.477707	0.406648	-0.000139
N29	N	1.483795	0.135705	0.346552
N30	N	1.483793	0.135688	-0.346777
C31	C	1.569052	0.073576	0.423205
C32	C	1.569048	0.073565	0.576542
C33	C	1.398527	0.197821	0.576560
C34	C	1.398525	0.197827	0.423226
C35	C	1.667505	0.001840	0.423195
C36	C	1.667502	0.001829	0.576532
H37	H	0.891784	-0.018867	-0.000131
C38	C	1.151177	-0.036703	-0.000333
C39	C	1.128291	-0.087955	-0.125671
C40	C	1.208514	-0.170641	-0.125960
H41	H	1.135832	-0.071702	0.084521
H42	H	1.236475	-0.023023	-0.000389
H43	H	1.043013	-0.101637	-0.125601
H44	H	1.143645	-0.052983	-0.210545
H45	H	1.293812	-0.156962	-0.126016
H46	H	1.193161	-0.205633	-0.041101
H47	H	1.193005	-0.205422	-0.211006
H48	H	1.758473	0.024302	0.375629
H49	H	1.646744	-0.069045	0.381583
C50	C	1.627758	-0.087586	0.639676
C51	C	1.601409	-0.146806	0.525207
C52	C	1.564828	-0.229190	0.583322
H53	H	1.554456	-0.074186	0.698235
H54	H	1.694135	-0.116711	0.698172
H55	H	1.535037	-0.117687	0.466736
H56	H	1.674693	-0.160233	0.466639
H57	H	1.631206	-0.258315	0.641818
H58	H	1.491530	-0.215781	0.641880
H59	H	1.546957	-0.269385	0.505665
H60	H	1.763861	0.017630	0.618141
H61	H	0.840476	0.344531	0.105001
C62	C	0.830447	0.364072	-0.136053
C63	C	0.858215	0.456246	-0.135717
C64	C	0.806676	0.501250	-0.260874
H65	H	0.741549	0.362447	-0.136195
H66	H	0.865569	0.333706	-0.221046
H67	H	0.823088	0.486605	-0.050746
H68	H	0.947103	0.457899	-0.135596
H69	H	0.841798	0.470884	-0.345867
H70	H	0.717780	0.499618	-0.261005
H71	H	0.825519	0.563792	-0.260669
C72	C	1.305894	0.265378	0.340267
C73	C	1.231246	0.319793	0.440238
C74	C	1.145907	0.382041	0.363870
H75	H	1.253434	0.231948	0.280450
H76	H	1.351109	0.304136	0.280479
H77	H	1.186034	0.281040	0.500000
H78	H	1.283671	0.353243	0.500057
H79	H	1.191122	0.420799	0.304082
H80	H	1.093456	0.348603	0.304056
H81	H	1.095256	0.418975	0.431688
H82	H	1.046392	0.355697	0.101809
H83	H	1.052786	0.348651	-0.105314
H84	H	1.329102	0.248398	0.639004
