data_functionalizedCrystal
_audit_creation_method	'MofGen! by Chris Wilmer'
_symmetry_space_group_name_H-M	'P1'
_symmetry_Int_Tables_number	1
_symmetry_cell_setting	triclinic
loop_
_symmetry_equiv_pos_as_xyz
  x,y,z
_cell_length_a	19.188930
_cell_length_b	18.266242
_cell_length_c	10.540539
_cell_angle_alpha	90.004163
_cell_angle_beta	83.835136
_cell_angle_gamma	90.022918
loop_
_atom_site_label
_atom_site_type_symbol
_atom_site_fract_x
_atom_site_fract_y
_atom_site_fract_z
O1	O	0.927206	0.061113	0.158472
O2	O	0.724037	0.061063	0.179804
O3	O	0.830256	0.061088	-0.015671
O4	O	0.820986	0.061088	0.353947
O5	O	0.830238	-0.060674	-0.015681
O6	O	0.724018	-0.060699	0.179794
O7	O	0.927187	-0.060649	0.158462
Zn8	Zn	0.825600	-0.080006	0.169126
Zn9	Zn	0.825624	0.080420	0.169140
O10	O	0.820968	-0.060674	0.353937
C11	C	0.698012	0.000175	0.179108
C12	C	0.620494	0.000156	0.177035
C13	C	0.576334	0.000167	0.291733
C14	C	0.503497	0.000175	0.289785
C15	C	0.474823	0.000187	0.173132
C16	C	0.518992	0.000171	0.058418
C17	C	0.591827	0.000156	0.060370
N18	N	0.366255	0.041657	0.083968
N19	N	0.297064	0.041673	0.082122
C20	C	0.255375	0.000232	0.167245
N21	N	0.285490	-0.041218	0.254302
N22	N	0.354687	-0.041231	0.256152
C23	C	0.395846	0.000203	0.171003
C24	C	0.132237	0.000251	0.279839
C25	C	0.059400	0.000254	0.277885
C26	C	0.074896	0.000257	0.046516
C27	C	0.147732	0.000247	0.048472
C28	C	0.176398	0.000247	0.165137
N29	N	0.825589	-0.189493	0.169117
C30	C	0.872639	-0.227791	0.082603
C31	C	0.872643	-0.304436	0.082597
C32	C	0.825604	-0.342780	0.169127
C33	C	0.778546	-0.304473	0.255647
C34	C	0.778538	-0.227830	0.255642
N35	N	0.817278	-0.463114	0.281492
N36	N	0.817289	-0.535922	0.281493
C37	C	0.825624	-0.573703	0.169145
N38	N	0.833960	-0.535924	0.056793
N39	N	0.833952	-0.463110	0.056793
C40	C	0.825607	-0.425887	0.169141
C41	C	0.872681	-0.695107	0.082617
C42	C	0.872681	-0.771754	0.082610
C43	C	0.778587	-0.771790	0.255671
C44	C	0.778584	-0.695145	0.255668
C45	C	0.825635	-0.656808	0.169142
C46	C	0.953212	0.000240	0.159157
C47	C	1.030731	0.000264	0.161231
C48	C	0.829552	0.000208	-0.062963
C49	C	0.827472	0.000212	-0.203866
N50	N	0.825641	0.189907	0.169139
C51	C	0.747771	0.000465	-0.385536
C52	C	0.749879	0.000192	-0.238965
C53	C	0.864803	-0.069311	-0.266352
C54	C	0.862155	-0.069370	-0.412838
C55	C	0.863753	0.069096	-0.413380
C56	C	0.864468	0.070016	-0.266413
C57	C	0.821672	0.000207	0.401229
C58	C	0.823752	0.000209	0.542132
H59	H	0.023445	0.000259	0.371291
N60	N	0.195365	0.000251	-0.075242
H61	H	0.245856	0.000241	-0.056306
H62	H	0.185993	-0.044883	-0.126108
H63	H	0.495641	0.000191	-0.036562
N64	N	0.710978	0.066206	-0.181653
H65	H	0.670658	0.049598	-0.118737
H66	H	0.743965	0.097473	-0.136302
H67	H	0.720284	-0.049742	-0.196561
H68	H	0.740223	-0.196647	0.326094
H69	H	0.467536	0.000183	0.383189
H70	H	0.740284	-0.803009	0.326121
H71	H	0.717237	-0.049126	-0.415075
H72	H	0.740245	-0.335697	0.326099
H73	H	0.051551	0.000312	-0.048466
N74	N	0.923424	-0.653752	-0.010704
H75	H	0.953228	-0.689646	-0.065520
H76	H	0.896416	-0.621967	-0.066699
N77	N	0.828347	0.138147	-0.211375
H78	H	0.852375	0.182861	-0.251963
H79	H	0.777664	0.137626	-0.229122
N80	N	0.923382	-0.186442	-0.010721
H81	H	0.953188	-0.222339	-0.065530
H82	H	0.896373	-0.154662	-0.066723
H83	H	0.910992	-0.802936	0.012153
N84	N	0.825591	-0.138226	-0.449405
H85	H	0.811340	-0.168253	-0.370403
H86	H	0.782530	-0.124704	-0.491542
H87	H	0.919798	0.069578	-0.461840
N88	N	0.936067	-0.073535	-0.478019
H89	H	0.970224	-0.075328	-0.411555
H90	H	0.941375	-0.119109	-0.532454
H91	H	0.910958	-0.335623	0.012144
N92	N	0.727836	-0.653832	0.348980
H93	H	0.698036	-0.689751	0.403796
H94	H	0.754836	-0.622012	0.404976
H95	H	0.717127	0.050320	-0.413457
H96	H	0.921784	-0.071882	-0.245253
N97	N	0.639460	0.000155	-0.063348
H98	H	0.689951	0.000147	-0.044410
H99	H	0.630090	-0.044981	-0.114211
N100	N	0.163163	0.000247	0.405661
H101	H	0.124133	0.000249	0.478030
H102	H	0.193023	-0.044896	0.411505
H103	H	0.599669	0.000169	0.386731
H104	H	0.838856	-0.121061	-0.223185
H105	H	0.838648	0.121791	-0.444375
H106	H	0.921040	0.074229	-0.243438
