data_functionalizedCrystal
_audit_creation_method	'MofGen! by Chris Wilmer'
_symmetry_space_group_name_H-M	'P1'
_symmetry_Int_Tables_number	1
_symmetry_cell_setting	triclinic
loop_
_symmetry_equiv_pos_as_xyz
  x,y,z
_cell_length_a	13.897449
_cell_length_b	29.839131
_cell_length_c	13.897441
_cell_angle_alpha	90.035143
_cell_angle_beta	90.020733
_cell_angle_gamma	90.042700
loop_
_atom_site_label
_atom_site_type_symbol
_atom_site_fract_x
_atom_site_fract_y
_atom_site_fract_z
Zn1	Zn	1.474544	-0.178824	0.545351
Zn2	Zn	1.474371	-0.253959	0.384039
Zn3	Zn	1.313233	-0.178845	0.384069
Zn4	Zn	1.313148	-0.253929	0.545292
O5	O	1.393824	-0.216389	0.464688
O6	O	1.609502	-0.188794	0.523965
O7	O	1.452959	-0.244016	0.249061
O8	O	1.334739	-0.115975	0.405500
O9	O	1.609375	-0.243995	0.405450
O10	O	1.453253	-0.115959	0.523993
O11	O	1.334571	-0.188830	0.249083
O12	O	1.178240	-0.188802	0.405443
O13	O	1.334594	-0.243945	0.680281
O14	O	1.178177	-0.243966	0.523893
O15	O	1.453171	-0.188765	0.680325
O16	O	1.452876	-0.316822	0.405393
O17	O	1.334426	-0.316800	0.523864
C18	C	1.143209	-0.216383	0.464666
C19	C	1.035995	-0.216391	0.464679
C20	C	0.839700	-0.216393	0.464704
C21	C	0.948933	-0.216391	0.464688
C22	C	1.393649	-0.333112	0.464640
C23	C	1.393663	-0.383046	0.464652
C24	C	1.455613	-0.692688	0.403090
C25	C	1.455732	-0.880361	0.403127
O26	O	1.508265	-0.904625	0.350748
N27	N	1.394024	-0.903831	0.464760
C28	C	1.332286	-0.880380	0.526393
O29	O	1.279809	-0.904649	0.578824
C30	C	1.332172	-0.692708	0.526360
C31	C	1.393878	-0.669240	0.464716
C32	C	1.517314	-0.669221	0.341451
C33	C	1.517280	-0.622305	0.341439
C34	C	1.455545	-0.598857	0.403065
C35	C	1.393844	-0.622325	0.464703
C36	C	1.270440	-0.669258	0.587997
C37	C	1.270419	-0.622336	0.587985
C38	C	1.332124	-0.598869	0.526341
C39	C	1.332074	-0.551962	0.526317
N40	N	1.393782	-0.528492	0.464684
C41	C	1.455518	-0.551939	0.403057
C42	C	1.332349	-0.978911	0.526405
C43	C	1.332375	-1.025828	0.526412
C44	C	1.455823	-1.025806	0.403147
C45	C	1.455790	-0.978888	0.403136
C46	C	1.394057	-0.955441	0.464772
C47	C	1.455441	-0.453414	0.403035
C48	C	1.455398	-0.406494	0.403026
C49	C	1.331955	-0.406520	0.526294
C50	C	1.331993	-0.453436	0.526301
C51	C	1.393744	-0.476881	0.464668
O52	O	1.279576	-0.527669	0.578676
O53	O	1.508002	-0.527662	0.350650
C54	C	1.455647	-0.739604	0.403102
C55	C	1.393946	-0.763071	0.464741
C56	C	1.332211	-0.739623	0.526367
C57	C	1.393973	-0.809989	0.464748
C58	C	1.455708	-0.833437	0.403122
C59	C	1.517416	-0.809967	0.341489
C60	C	1.517382	-0.763051	0.341476
C61	C	1.270503	-0.763093	0.588000
C62	C	1.270541	-0.810009	0.588007
C63	C	1.332276	-0.833457	0.526381
C64	C	1.645417	-0.216395	0.464710
C65	C	1.752631	-0.216398	0.464720
C66	C	1.393892	-0.216349	0.716281
C67	C	1.393921	-0.216332	0.823495
C68	C	1.394025	-0.099211	0.464757
C69	C	1.394111	-0.049276	0.464786
C70	C	1.393811	-0.216396	0.214073
C71	C	1.393969	-0.216287	0.106860
C72	C	1.393948	-0.216302	1.019790
C73	C	1.393930	-0.216320	0.910558
H74	H	1.505646	-0.387388	0.352824
C75	C	1.210317	-0.983655	0.648235
C76	C	1.264473	-0.953141	0.594150
H77	H	1.168407	-0.967747	0.690050
H78	H	1.252336	-1.001920	0.685174
H79	H	1.173469	-1.001988	0.606159
H80	H	1.301327	-0.934811	0.636227
H81	H	1.222449	-0.934869	0.557209
C82	C	1.577449	-0.448666	0.281180
C83	C	1.523310	-0.479180	0.335282
H84	H	1.619340	-0.464574	0.239345
H85	H	1.614309	-0.430336	0.323238
H86	H	1.535412	-0.430398	0.244253
H87	H	1.565348	-0.497446	0.372214
H88	H	1.486448	-0.497518	0.293219
H89	H	1.506090	-1.044906	0.352969
C90	C	1.577810	-0.983589	0.281295
C91	C	1.523624	-0.953094	0.335381
H92	H	1.619694	-0.967666	0.239470
H93	H	1.535810	-1.001918	0.244368
H94	H	1.614689	-1.001860	0.323370
H95	H	1.486740	-0.934826	0.293306
H96	H	1.565630	-0.934758	0.372311
C97	C	1.209974	-0.448742	0.648147
C98	C	1.264167	-0.479234	0.594060
H99	H	1.168111	-0.464668	0.689989
H100	H	1.173082	-0.430480	0.606081
H101	H	1.251978	-0.430404	0.685066
H102	H	1.222163	-0.497570	0.557135
H103	H	1.301062	-0.497503	0.636131
C104	C	1.639316	-0.627011	0.219617
C105	C	1.585123	-0.596514	0.273691
H106	H	1.681208	-0.611089	0.177798
H107	H	1.597320	-0.645339	0.182683
H108	H	1.676185	-0.645281	0.261699
H109	H	1.548248	-0.578245	0.231609
H110	H	1.627125	-0.578177	0.310627
H111	H	1.567628	-0.743947	0.291280
H112	H	1.567591	-0.688307	0.291268
C113	C	1.318929	-1.078552	0.656162
C114	C	1.264541	-1.051622	0.594166
H115	H	1.277050	-1.094476	0.697990
H116	H	1.360919	-1.060217	0.693085
H117	H	1.355691	-1.099234	0.619452
H118	H	1.227785	-1.030938	0.630876
H119	H	1.222535	-1.069959	0.557239
H120	H	1.220232	-0.744006	0.638185
H121	H	1.220189	-0.688357	0.638190
C122	C	1.148410	-0.627075	0.709842
C123	C	1.202558	-0.596564	0.655740
H124	H	1.106513	-0.611164	0.751665
H125	H	1.190435	-0.645340	0.746772
H126	H	1.111548	-0.645407	0.667777
H127	H	1.239426	-0.578234	0.697804
H128	H	1.160528	-0.578291	0.618807
C129	C	1.277118	-0.334604	0.581006
C130	C	1.264102	-0.380740	0.594036
H131	H	1.235236	-0.318688	0.622837
H132	H	1.263022	-0.326947	0.516191
H133	H	1.341922	-0.326887	0.595172
H134	H	1.199299	-0.388458	0.579864
H135	H	1.278191	-0.388400	0.658867
C136	C	1.564521	-0.824471	0.178202
C137	C	1.585278	-0.835754	0.273761
H138	H	1.606413	-0.840398	0.136401
H139	H	1.573353	-0.793176	0.169358
H140	H	1.499720	-0.832195	0.164035
H141	H	1.650077	-0.828027	0.287930
H142	H	1.576453	-0.867056	0.282609
C143	C	1.257108	-0.862728	0.717770
C144	C	1.202710	-0.835802	0.655774
H145	H	1.215236	-0.878652	0.759605
H146	H	1.299098	-0.844389	0.754686
H147	H	1.293870	-0.883409	0.681061
H148	H	1.165953	-0.815118	0.692483
H149	H	1.160703	-0.854143	0.618854
