data_functionalizedCrystal
_audit_creation_method	'MofGen! by Chris Wilmer'
_symmetry_space_group_name_H-M	'P1'
_symmetry_Int_Tables_number	1
_symmetry_cell_setting	triclinic
loop_
_symmetry_equiv_pos_as_xyz
  x,y,z
_cell_length_a	13.339070
_cell_length_b	19.188930
_cell_length_c	12.376457
_cell_angle_alpha	101.232575
_cell_angle_beta	75.589755
_cell_angle_gamma	99.387037
loop_
_atom_site_label
_atom_site_type_symbol
_atom_site_fract_x
_atom_site_fract_y
_atom_site_fract_z
O1	O	1.360197	0.340100	-0.094096
O2	O	1.065870	0.294198	-0.094082
O3	O	1.221523	0.217159	-0.094067
O4	O	1.204545	0.417139	-0.094111
O5	O	1.182624	0.236385	0.093941
O6	O	1.026971	0.313424	0.093926
O7	O	1.321298	0.359326	0.093913
Zn8	Zn	1.167958	0.339428	0.123770
Zn9	Zn	1.219210	0.314097	-0.123939
O10	O	1.165645	0.436365	0.093898
C11	C	1.008765	0.296057	-0.000076
C12	C	0.896565	0.272945	-0.000070
C13	C	0.530988	0.452652	-0.000127
C14	C	0.636407	0.474369	-0.000136
C15	C	0.701451	0.424015	-0.000119
C16	C	0.661067	0.351940	-0.000094
C17	C	0.555640	0.330220	-0.000093
C18	C	0.726103	0.301583	-0.000086
C19	C	0.685719	0.229508	-0.000060
C20	C	0.580302	0.207792	-0.000059
C21	C	0.515258	0.258146	-0.000076
C22	C	0.831530	0.323303	-0.000086
C23	C	0.856182	0.200871	-0.000053
C24	C	0.750763	0.179154	-0.000043
C25	C	1.201522	0.200654	-0.000060
C26	C	1.199869	0.122827	-0.000050
C27	C	1.291202	0.095789	-0.000049
C28	C	1.289655	0.022659	-0.000067
C29	C	1.196764	-0.023428	-0.000063
C30	C	1.105420	0.003617	-0.000071
C31	C	1.106972	0.076744	-0.000064
N32	N	1.112522	-0.138794	0.063923
N33	N	1.111052	-0.208261	0.063919
C34	C	1.192081	-0.243757	-0.000086
N35	N	1.274646	-0.207158	-0.064073
N36	N	1.276118	-0.137684	-0.064064
C37	C	1.195070	-0.102723	-0.000071
C38	C	1.281743	-0.350089	-0.000106
C39	C	1.280193	-0.423221	-0.000131
C40	C	1.095953	-0.442261	-0.000124
C41	C	1.097508	-0.369132	-0.000110
C42	C	1.190404	-0.323049	-0.000096
C43	C	1.378403	0.357467	-0.000096
C44	C	1.490606	0.380578	-0.000110
C45	C	1.185646	0.452870	-0.000112
C46	C	1.187301	0.530696	-0.000130
N47	N	1.132988	0.356716	0.292825
N48	N	1.254188	0.296804	-0.292994
C49	C	1.335365	0.256657	0.647829
C50	C	1.359835	0.244556	0.529492
C51	C	1.303125	0.272595	0.470319
C52	C	1.221942	0.312738	0.529496
C53	C	1.197474	0.324845	0.647845
C54	C	1.165235	0.340783	0.470335
C55	C	1.084051	0.380926	0.529511
C56	C	1.059587	0.393031	0.647849
C57	C	1.116297	0.364992	0.707021
C58	C	1.189702	0.328675	0.351986
C59	C	1.051811	0.396863	0.352001
C60	C	1.027341	0.408964	0.470339
H61	H	0.787288	0.441701	-0.000129
C62	C	1.449126	0.200398	0.464396
C63	C	1.426691	0.131063	0.383058
C64	C	1.515985	0.086902	0.317959
C65	C	1.627716	0.112076	0.334197
C66	C	1.650157	0.181415	0.415538
C67	C	1.560862	0.225576	0.480638
H68	H	1.343976	0.112424	0.371035
H69	H	1.499373	0.035572	0.257744
H70	H	1.693817	0.079385	0.286006
H71	H	1.732871	0.200054	0.427562
H72	H	1.577475	0.276906	0.540852
H73	H	0.717869	0.120468	-0.000032
C74	C	1.390124	-0.007092	-0.000054
C75	C	1.492304	0.043596	-0.000036
C76	C	1.592772	0.013848	-0.000019
C77	C	1.591060	-0.066589	-0.000020
C78	C	1.488877	-0.117282	-0.000038
C79	C	1.388409	-0.087534	-0.000055
H80	H	1.493575	0.103145	-0.000035
H81	H	1.668415	0.051374	-0.000006
H82	H	1.665433	-0.088611	-0.000008
H83	H	1.487606	-0.176831	-0.000039
H84	H	1.312766	-0.125060	-0.000069
C85	C	0.970292	0.437192	0.712949
C86	C	0.992729	0.506530	0.794281
C87	C	0.903434	0.550691	0.859381
C88	C	0.791702	0.525514	0.843148
C89	C	0.769260	0.456173	0.761812
C90	C	0.858555	0.412012	0.696712
H91	H	1.075444	0.525170	0.806300
H92	H	0.920048	0.602022	0.919591
H93	H	0.725601	0.558205	0.891339
H94	H	0.686545	0.437532	0.749793
H95	H	0.841941	0.360680	0.636502
H96	H	1.020320	-0.479785	-0.000127
H97	H	1.032595	0.098757	-0.000065
H98	H	1.381537	0.233836	0.696015
H99	H	1.366847	0.133305	-0.000041
H100	H	0.909143	0.159867	-0.000044
C101	C	1.003238	-0.047075	-0.000065
C102	C	0.902767	-0.017331	-0.000065
C103	C	0.800582	-0.068023	-0.000064
C104	C	0.798868	-0.148459	-0.000064
C105	C	0.899342	-0.178208	-0.000064
C106	C	1.001527	-0.127516	-0.000064
H107	H	0.904033	0.042217	-0.000065
H108	H	0.726205	-0.046000	-0.000065
H109	H	0.723224	-0.185985	-0.000063
H110	H	0.898076	-0.237756	-0.000063
H111	H	1.075904	-0.149538	-0.000064
C112	C	0.997033	-0.339385	-0.000096
C113	C	0.992960	-0.301704	-0.097717
C114	C	0.892481	-0.271959	-0.097707
C115	C	0.796075	-0.279897	-0.000075
C116	C	0.800145	-0.317580	0.097554
C117	C	0.900624	-0.347324	0.097543
H118	H	1.064329	-0.295826	-0.169997
H119	H	0.889469	-0.244063	-0.169979
H120	H	0.721695	-0.257878	-0.000067
H121	H	0.728776	-0.323457	0.169833
H122	H	0.903636	-0.375220	0.169815
C123	C	1.278994	0.284516	0.286900
C124	C	1.274288	0.206415	0.303198
C125	C	1.363584	0.162252	0.238113
C126	C	1.457585	0.196188	0.156730
C127	C	1.462295	0.274292	0.140429
C128	C	1.372999	0.318456	0.205513
H129	H	1.204700	0.181290	0.363446
H130	H	1.360098	0.104434	0.250182
H131	H	1.523688	0.163495	0.108551
H132	H	1.531883	0.299418	0.080181
H133	H	1.376485	0.376274	0.193445
H134	H	1.357386	-0.312567	-0.000100
C135	C	0.989422	0.427708	0.286923
C136	C	1.016330	0.414388	0.156751
C137	C	0.953950	0.445232	0.091665
C138	C	0.864660	0.489396	0.156750
C139	C	0.837747	0.502717	0.286930
C140	C	0.900128	0.471873	0.352016
H141	H	1.082431	0.381694	0.108564
H142	H	0.973873	0.435370	-0.004703
H143	H	0.818482	0.512228	0.108569
H144	H	0.771646	0.535411	0.335116
H145	H	0.880205	0.481735	0.448384
H146	H	0.864399	0.381987	-0.000102
H147	H	0.669282	0.533052	-0.000166
H148	H	0.478023	0.493642	-0.000150
H149	H	0.429416	0.240467	-0.000068
H150	H	0.547428	0.149102	-0.000051
H151	H	1.354572	-0.445233	-0.000136
H152	H	1.323053	0.262740	0.373963
H153	H	1.096371	0.374842	0.803381
H154	H	0.961240	0.441650	0.518535
