data_functionalizedCrystal
_audit_creation_method	'MofGen! by Chris Wilmer'
_symmetry_space_group_name_H-M	'P1'
_symmetry_Int_Tables_number	1
_symmetry_cell_setting	triclinic
loop_
_symmetry_equiv_pos_as_xyz
  x,y,z
_cell_length_a	17.699097
_cell_length_b	10.540539
_cell_length_c	16.176319
_cell_angle_alpha	90.004634
_cell_angle_beta	90.011012
_cell_angle_gamma	83.906961
loop_
_atom_site_label
_atom_site_type_symbol
_atom_site_fract_x
_atom_site_fract_y
_atom_site_fract_z
O1	O	1.005117	0.160601	0.068811
O2	O	0.784875	0.181467	0.068798
O3	O	0.900021	-0.013764	0.068804
O4	O	0.889971	0.355832	0.068805
O5	O	0.900005	-0.013776	-0.068689
O6	O	0.784859	0.181455	-0.068696
O7	O	1.005101	0.160588	-0.068682
Cu8	Cu	0.894978	0.171020	-0.081243
Cu9	Cu	0.894997	0.171035	0.081359
O10	O	0.889955	0.355820	-0.068688
C11	C	0.756666	0.180710	0.000049
C12	C	0.672633	0.178459	0.000044
C13	C	0.156834	0.164664	0.075025
C14	C	0.235792	0.166771	0.075021
C15	C	0.275256	0.167820	0.000070
C16	C	0.235759	0.166749	-0.074882
C17	C	0.156803	0.164633	-0.074877
C18	C	0.554179	0.175281	-0.074904
C19	C	0.633140	0.177401	-0.074903
C20	C	0.633167	0.177419	0.074994
C21	C	0.554212	0.175303	0.074999
C22	C	0.514722	0.174225	0.000048
C23	C	0.429107	0.171938	0.000053
C24	C	0.360869	0.170116	0.000064
C25	C	0.899259	-0.061059	0.000059
C26	C	0.897004	-0.201966	0.000063
C27	C	0.810606	-0.383820	0.000366
C28	C	0.812891	-0.237243	0.000057
C29	C	0.937474	-0.264368	-0.078450
C30	C	0.934603	-0.410861	-0.078516
C31	C	0.936332	-0.411396	0.077839
C32	C	0.937107	-0.264428	0.078877
C33	C	1.033310	0.161345	0.000068
C34	C	1.117342	0.163597	0.000079
C35	C	0.890717	0.403115	0.000059
C36	C	0.892972	0.544022	0.000060
N37	N	0.894971	0.171009	-0.195608
C38	C	0.945973	0.084596	-0.238870
C39	C	0.945976	0.084595	-0.325417
C40	C	0.894981	0.171014	-0.368701
C41	C	0.843974	0.257431	-0.325433
C42	C	0.843967	0.257425	-0.238888
C43	C	0.844000	0.257455	-0.674462
C44	C	0.844012	0.257456	-0.761013
C45	C	0.946009	0.084624	-0.760990
C46	C	0.946003	0.084619	-0.674445
C47	C	0.894993	0.171031	-0.631185
C48	C	0.894988	0.171030	-0.537341
C49	C	0.894989	0.171022	-0.462543
N50	N	0.895011	0.171036	0.195724
H51	H	0.665269	0.178254	-0.135941
C52	C	1.002115	-0.010443	-0.808584
N53	N	1.044374	-0.082045	-0.844430
H54	H	0.522083	0.174456	0.136032
C55	C	0.899562	-0.453339	0.158232
N56	N	0.871857	-0.484928	0.218781
H57	H	0.802449	0.327791	-0.360680
H58	H	0.802435	0.327790	-0.203665
H59	H	0.777508	-0.413430	-0.055625
C60	C	0.765720	-0.421646	0.076423
N61	N	0.731911	-0.450149	0.133709
H62	H	0.267898	0.167594	-0.135908
C63	C	0.769554	-0.180046	-0.076111
N64	N	0.736912	-0.136966	-0.133485
C65	C	0.894171	-0.448229	-0.157804
N66	N	0.863713	-0.476368	-0.217523
H67	H	0.665329	0.178291	0.136023
C68	C	0.113363	0.163464	-0.157323
N69	N	0.080644	0.162581	-0.219425
C70	C	0.787987	0.352675	-0.626887
N71	N	0.745830	0.424459	-0.591051
H72	H	0.995096	-0.459931	-0.082074
C73	C	1.020918	-0.235664	-0.082402
N74	N	1.083766	-0.214033	-0.085381
H75	H	0.781047	-0.194055	0.056338
C76	C	1.019958	-0.233225	0.085286
N77	N	1.082366	-0.209728	0.090105
C78	C	0.897142	-0.208422	0.157347
N79	N	0.867033	-0.166242	0.216448
C80	C	0.899474	-0.206145	-0.157388
N81	N	0.870847	-0.162293	-0.216843
C82	C	1.018407	-0.476698	0.078562
N83	N	1.080222	-0.525891	0.079101
H84	H	0.522037	0.174384	-0.135933
C85	C	1.002072	-0.010474	-0.191265
N86	N	1.044325	-0.082087	-0.155412
C87	C	1.002099	-0.010451	-0.626837
N88	N	1.044350	-0.082065	-0.590980
C89	C	0.113431	0.163509	0.157478
N90	N	0.080743	0.162632	0.219585
H91	H	0.987506	0.014230	-0.360640
C92	C	0.787906	0.352520	-0.808624
N93	N	0.745648	0.424118	-0.844484
H94	H	0.267943	0.167632	0.136049
