data_functionalizedCrystal
_audit_creation_method	'MofGen! by Chris Wilmer'
_symmetry_space_group_name_H-M	'P1'
_symmetry_Int_Tables_number	1
_symmetry_cell_setting	triclinic
loop_
_symmetry_equiv_pos_as_xyz
  x,y,z
_cell_length_a	16.109301
_cell_length_b	16.109301
_cell_length_c	14.586319
_cell_angle_alpha	89.994786
_cell_angle_beta	89.999213
_cell_angle_gamma	83.461481
loop_
_atom_site_label
_atom_site_type_symbol
_atom_site_fract_x
_atom_site_fract_y
_atom_site_fract_z
O1	O	1.103131	0.106866	-0.076185
O2	O	1.603131	0.606866	0.423815
O3	O	0.861069	0.120165	-0.076200
O4	O	1.361069	0.620165	0.423800
O5	O	0.988749	-0.007515	-0.076183
O6	O	1.488749	0.492485	0.423817
O7	O	0.975450	0.234547	-0.076203
O8	O	1.475450	0.734547	0.423797
O9	O	0.988741	-0.007517	0.076298
O10	O	1.488741	0.492483	0.576298
O11	O	0.861060	0.120164	0.076281
O12	O	1.361060	0.620164	0.576281
O13	O	1.103122	0.106864	0.076295
O14	O	1.603122	0.606864	0.576295
Cu15	Cu	0.982090	0.113514	0.090211
Cu16	Cu	1.482090	0.613514	0.590211
Cu17	Cu	0.982101	0.113516	-0.090115
Cu18	Cu	1.482101	0.613516	0.409885
O19	O	0.975441	0.234545	0.076278
O20	O	1.475441	0.734545	0.576278
C21	C	0.830090	0.119626	0.000038
C22	C	1.330090	0.619626	0.500038
C23	C	0.737794	0.118011	0.000033
C24	C	1.237794	0.618011	0.500033
C25	C	0.988206	-0.038491	0.000058
C26	C	1.488206	0.461509	0.500058
C27	C	0.986591	-0.130786	0.000059
C28	C	1.486591	0.369214	0.500059
C29	C	0.515522	0.190018	0.000038
C30	C	1.015522	0.690018	0.500038
C31	C	0.428801	0.188494	0.000044
C32	C	0.928801	0.688494	0.500044
C33	C	0.448676	0.037006	0.000052
C34	C	0.948676	0.537006	0.500052
C35	C	0.535394	0.038530	0.000053
C36	C	1.035394	0.538530	0.500053
C37	C	0.568815	0.115039	0.000041
C38	C	1.068815	0.615039	0.500041
C39	C	0.395376	0.111990	0.000046
C40	C	0.895376	0.611990	0.500046
C41	C	0.301350	0.110337	0.000053
C42	C	0.801350	0.610337	0.500053
C43	C	0.662847	0.116693	0.000036
C44	C	1.162847	0.616693	0.500036
C45	C	1.058599	-0.353059	0.000049
C46	C	1.558599	0.146941	0.500049
C47	C	1.057075	-0.439779	0.000041
C48	C	1.557075	0.060221	0.500041
C49	C	0.905586	-0.419905	0.000036
C50	C	1.405586	0.080095	0.500036
C51	C	0.907111	-0.333186	0.000037
C52	C	1.407111	0.166814	0.500037
C53	C	0.983620	-0.299766	0.000048
C54	C	1.483620	0.200234	0.500048
C55	C	0.980571	-0.473205	0.000039
C56	C	1.480571	0.026795	0.500039
C57	C	0.978918	-0.567231	0.000031
C58	C	1.478918	-0.067231	0.500031
C59	C	0.985273	-0.205734	0.000055
C60	C	1.485273	0.294266	0.500055
C61	C	1.134101	0.107404	0.000055
C62	C	1.634101	0.607404	0.500055
C63	C	1.226397	0.109019	0.000054
C64	C	1.726397	0.609019	0.500054
C65	C	0.975984	0.265521	0.000035
C66	C	1.475984	0.765521	0.500035
C67	C	0.977600	0.357816	0.000028
C68	C	1.477600	0.857816	0.500028
N69	N	0.982089	0.113512	0.217042
N70	N	1.482089	0.613512	0.717042
N71	N	0.982109	0.113511	-0.216947
N72	N	1.482109	0.613511	0.283053
C73	C	1.038644	0.056994	0.452057
C74	C	1.538644	0.556994	0.952057
C75	C	1.038647	0.056992	0.548038
C76	C	1.538647	0.556992	1.048038
C77	C	0.925547	0.170032	0.548032
C78	C	1.425547	0.670032	1.048032
C79	C	0.925541	0.170030	0.452052
C80	C	1.425541	0.670030	0.952052
C81	C	0.982095	0.113511	0.404067
C82	C	1.482095	0.613511	0.904067
C83	C	0.982103	0.113512	0.596028
C84	C	1.482103	0.613512	1.096028
C85	C	0.982105	0.113510	0.700095
C86	C	1.482105	0.613510	1.200095
C87	C	0.982092	0.113512	0.299993
C88	C	1.482092	0.613512	0.799993
H89	H	0.542730	0.252317	0.000035
H90	H	1.042730	0.752317	0.500035
C91	C	0.370179	0.270969	0.000036
C92	C	0.870179	0.770969	0.500036
H93	H	0.313745	0.259107	0.000046
H94	H	0.813745	0.759107	0.500046
H95	H	0.380308	0.302341	-0.053140
H96	H	0.880308	0.802341	0.446860
H97	H	0.380310	0.302338	0.053213
H98	H	0.880310	0.802338	0.553213
H99	H	0.421454	-0.025285	0.000067
H100	H	0.921454	0.474715	0.500067
C101	C	1.139552	-0.498398	0.000048
C102	C	1.639552	0.001602	0.500048
H103	H	1.185333	-0.466071	0.000062
H104	H	1.685333	0.033929	0.500062
H105	H	1.142112	-0.532636	-0.053126
H106	H	1.642112	-0.032636	0.446874
H107	H	1.142101	-0.532644	0.053228
H108	H	1.642101	-0.032644	0.553228
H109	H	0.578788	-0.022530	0.000058
H110	H	1.078788	0.477470	0.500058
C111	C	1.100850	-0.005176	0.600827
C112	C	1.600850	0.494824	1.100827
H113	H	1.092750	0.002911	0.664861
H114	H	1.592750	0.502911	1.164861
H115	H	1.156332	0.003867	0.585094
H116	H	1.656332	0.503867	1.085094
H117	H	1.091831	-0.060669	0.585101
H118	H	1.591831	0.439331	1.085101
C119	C	0.821433	-0.456671	0.000036
C120	C	1.321433	0.043329	0.500036
H121	H	0.831262	-0.515950	0.000046
H122	H	1.331262	-0.015950	0.500046
H123	H	0.790559	-0.438373	-0.053136
H124	H	1.290559	0.061627	0.446864
H125	H	0.790565	-0.438379	0.053217
H126	H	1.290565	0.061621	0.553217
H127	H	1.120897	-0.325851	0.000056
H128	H	1.620897	0.174149	0.500056
H129	H	0.879487	0.216053	0.412977
H130	H	1.379487	0.716053	0.912977
C131	C	0.824630	-0.274560	0.000038
C132	C	1.324630	0.225440	0.500038
H133	H	0.778846	-0.306882	0.000045
H134	H	1.278846	0.193118	0.500045
H135	H	0.822079	-0.240312	-0.053134
H136	H	1.322079	0.259688	0.446866
H137	H	0.822078	-0.240324	0.053219
H138	H	1.322078	0.259676	0.553219
H139	H	0.879503	0.216049	0.587111
H140	H	1.379503	0.716049	1.087111
C141	C	1.100843	-0.005181	0.399276
C142	C	1.600843	0.494819	0.899276
H143	H	1.134516	-0.038846	0.441607
H144	H	1.634516	0.461154	0.941607
H145	H	1.135442	0.024732	0.361825
H146	H	1.635442	0.524732	0.861825
H147	H	1.070937	-0.039802	0.361844
H148	H	1.570937	0.460198	0.861844
