data_functionalizedCrystal
_audit_creation_method	'MofGen! by Chris Wilmer'
_symmetry_space_group_name_H-M	'P1'
_symmetry_Int_Tables_number	1
_symmetry_cell_setting	triclinic
loop_
_symmetry_equiv_pos_as_xyz
  x,y,z
_cell_length_a	6.817900
_cell_length_b	14.858565
_cell_length_c	16.255661
_cell_angle_alpha	95.050358
_cell_angle_beta	103.488922
_cell_angle_gamma	104.523916
loop_
_atom_site_label
_atom_site_type_symbol
_atom_site_fract_x
_atom_site_fract_y
_atom_site_fract_z
V1	V	-4.031916	-0.129422	-0.264108
V2	V	-3.698582	0.203911	0.069225
V3	V	-3.365249	0.537245	0.402558
O4	O	-4.013971	0.005446	-0.258838
O5	O	-3.680638	0.338780	0.074495
O6	O	-3.347305	0.672113	0.407829
O7	O	-3.988552	-0.255878	-0.262536
O8	O	-3.655219	0.077455	0.070798
O9	O	-3.321885	0.410788	0.404131
O10	O	-3.983411	-0.127770	-0.379189
O11	O	-3.650078	0.205563	-0.045855
O12	O	-3.316745	0.538896	0.287478
O13	O	-4.019148	-0.123549	-0.141377
O14	O	-3.685814	0.209785	0.191956
O15	O	-3.352481	0.543118	0.525289
V16	V	-4.514905	-0.113250	-0.249400
V17	V	-4.181571	0.220083	0.083933
V18	V	-3.848238	0.553417	0.417266
O19	O	-4.294346	-0.164896	-0.296372
O20	O	-3.961012	0.168437	0.036962
O21	O	-3.627679	0.501770	0.370295
O22	O	-4.702672	-0.077776	-0.217137
O23	O	-4.369338	0.255558	0.116196
O24	O	-4.036005	0.588891	0.449529
O25	O	-4.335062	0.013206	-0.250973
O26	O	-4.001728	0.346540	0.082360
O27	O	-3.668395	0.679873	0.415693
O28	O	-4.650246	-0.248118	-0.254671
O29	O	-4.316912	0.085215	0.078663
O30	O	-3.983579	0.418549	0.411996
O31	O	-4.645069	-0.119123	-0.372131
O32	O	-4.311736	0.214210	-0.038798
O33	O	-3.978403	0.547543	0.294535
O34	O	-4.340202	-0.114902	-0.134320
O35	O	-4.006869	0.218432	0.199013
O36	O	-3.673536	0.551765	0.532346
C37	C	-3.834781	-0.286695	-0.258429
C38	C	-3.501448	0.046638	0.074904
C39	C	-3.168115	0.379972	0.408237
C40	C	-3.880612	-0.390077	-0.257911
C41	C	-3.547279	-0.056744	0.075423
C42	C	-3.213946	0.276590	0.408756
C43	C	-4.048360	-0.768643	-0.256023
C44	C	-3.715026	-0.435309	0.077311
C45	C	-3.381693	-0.101976	0.410644
C46	C	-4.001679	-0.663314	-0.256547
C47	C	-3.668345	-0.329981	0.076786
C48	C	-3.335012	0.003353	0.410119
C49	C	-3.964487	-0.579363	-0.256966
C50	C	-3.631153	-0.246030	0.076368
C51	C	-3.297820	0.087304	0.409701
C52	C	-3.917804	-0.474028	-0.257492
C53	C	-3.584471	-0.140695	0.075841
C54	C	-3.251138	0.192639	0.409174
C55	C	-3.828223	-0.123279	-0.407231
C56	C	-3.494889	0.210054	-0.073898
C57	C	-3.161556	0.543387	0.259436
C58	C	-3.869882	-0.122766	-0.501311
C59	C	-3.536549	0.210568	-0.167978
C60	C	-3.203215	0.543901	0.165355
C61	C	-3.780192	-0.116631	-0.724119
C62	C	-3.446858	0.216703	-0.390785
C63	C	-3.113525	0.550036	-0.057452
C64	C	-3.939791	-0.195814	-0.793740
C65	C	-3.606458	0.137520	-0.460407
C66	C	-3.273125	0.470853	-0.127073
C67	C	-3.946228	-0.121803	-0.673558
C68	C	-3.612894	0.211530	-0.340225
C69	C	-3.279561	0.544864	-0.006891
C70	C	-3.860882	-0.041714	-0.771572
C71	C	-3.527549	0.291620	-0.438239
C72	C	-3.194215	0.624953	-0.104906
C73	C	-4.019958	-0.120868	-0.839940
C74	C	-3.686625	0.212465	-0.506607
C75	C	-3.353291	0.545798	-0.173273
C76	C	-4.105312	-0.201056	-0.741950
C77	C	-3.771979	0.132277	-0.408616
C78	C	-3.438645	0.465610	-0.075283
C79	C	-4.026338	-0.046887	-0.719766
C80	C	-3.693004	0.286447	-0.386433
C81	C	-3.359671	0.619780	-0.053100
C82	C	-4.186075	-0.126092	-0.789368
C83	C	-3.852742	0.207241	-0.456035
C84	C	-3.519408	0.540575	-0.122702
C85	C	-3.903748	-0.122342	-0.577710
C86	C	-3.570415	0.210991	-0.244376
C87	C	-3.237082	0.544325	0.088957
C88	C	-4.062455	-0.120336	-0.935788
C89	C	-3.729121	0.212997	-0.602454
C90	C	-3.395788	0.546330	-0.269121
C91	C	-4.152175	0.044018	-0.255077
C92	C	-3.818841	0.377352	0.078256
C93	C	-3.485508	0.710685	0.411590
C94	C	-4.085582	0.147399	-0.255601
C95	C	-3.752248	0.480733	0.077732
C96	C	-3.418915	0.814066	0.411065
C97	C	-4.158733	-0.119396	-0.106273
C98	C	-3.825400	0.213938	0.227060
C99	C	-3.492066	0.547271	0.560393
C100	C	-4.096312	-0.119904	-0.012192
C101	C	-3.762979	0.213429	0.321141
C102	C	-3.429646	0.546762	0.654474
H103	H	-3.608281	-0.112733	-0.695631
H104	H	-3.274948	0.220600	-0.362298
H105	H	-2.941614	0.553933	-0.028964
H106	H	-3.757940	0.025610	-0.785059
H107	H	-3.424607	0.358943	-0.451725
H108	H	-3.091273	0.692277	-0.118392
H109	H	-4.358109	-0.130113	-0.817722
H110	H	-4.024776	0.203220	-0.484389
H111	H	-3.691442	0.536553	-0.151056
Br112	Br	-4.086446	0.058063	-0.666053
Br113	Br	-3.753113	0.391396	-0.332719
Br114	Br	-3.419779	0.724729	0.000614
Br115	Br	-4.276876	-0.313418	-0.719717
Br116	Br	-3.943542	0.019915	-0.386384
Br117	Br	-3.610209	0.353249	-0.053050
Br118	Br	-3.879563	-0.300758	-0.847412
Br119	Br	-3.546230	0.032575	-0.514079
Br120	Br	-3.212896	0.365908	-0.180746
