data_functionalizedCrystal
_audit_creation_method	'MofGen! by Chris Wilmer'
_symmetry_space_group_name_H-M	'P1'
_symmetry_Int_Tables_number	1
_symmetry_cell_setting	triclinic
loop_
_symmetry_equiv_pos_as_xyz
  x,y,z
_cell_length_a	11.792241
_cell_length_b	10.868271
_cell_length_c	10.654550
_cell_angle_alpha	90.000241
_cell_angle_beta	84.339159
_cell_angle_gamma	90.000156
loop_
_atom_site_label
_atom_site_type_symbol
_atom_site_fract_x
_atom_site_fract_y
_atom_site_fract_z
O1	O	1.507307	0.102199	0.172129
O2	O	1.177007	0.102228	0.189870
O3	O	1.349751	0.102208	-0.001761
O4	O	1.334562	0.102219	0.363760
O5	O	1.349735	-0.102436	-0.001755
O6	O	1.176991	-0.102417	0.189876
O7	O	1.507291	-0.102445	0.172135
Zn8	Zn	1.342138	-0.134923	0.181007
Zn9	Zn	1.342159	0.134705	0.180998
O10	O	1.334547	-0.102426	0.363766
C11	C	1.134705	-0.000091	0.188758
C12	C	1.008684	-0.000080	0.185423
N13	N	1.342133	-0.318937	0.181011
C14	C	1.348628	-0.000112	-0.048553
C15	C	1.345291	-0.000108	-0.187987
C16	C	0.777957	-0.000116	0.179290
C17	C	0.906351	-0.000096	0.182697
C18	C	1.549592	-0.000124	0.173247
C19	C	1.675614	-0.000127	0.176582
C20	C	1.342141	-0.430275	0.181012
C21	C	1.342156	-0.569952	0.181000
N22	N	1.342174	0.318719	0.180984
C23	C	1.447000	-0.000120	-0.267760
C24	C	1.443858	-0.000111	-0.398772
C25	C	1.237290	-0.000083	-0.370224
C26	C	1.240433	-0.000083	-0.239215
C27	C	1.551859	-0.000145	-0.216532
C28	C	1.653577	-0.000159	-0.296307
C29	C	1.650435	-0.000150	-0.427319
C30	C	1.545575	-0.000128	-0.478556
C31	C	1.335670	-0.000102	0.410558
C32	C	1.339006	-0.000099	0.549992
H33	H	1.554429	-0.000156	-0.109857
H34	H	1.151918	-0.000066	-0.411953
Br35	Br	1.102397	-0.000061	-0.130942
H36	H	1.738949	-0.000147	-0.254580
Br37	Br	1.788476	-0.000151	-0.535582
H38	H	1.543025	-0.000107	-0.585236
