data_functionalizedCrystal
_audit_creation_method	'MofGen! by Chris Wilmer'
_symmetry_space_group_name_H-M	'P1'
_symmetry_Int_Tables_number	1
_symmetry_cell_setting	triclinic
loop_
_symmetry_equiv_pos_as_xyz
  x,y,z
_cell_length_a	17.038272
_cell_length_b	17.038272
_cell_length_c	9.016244
_cell_angle_alpha	89.997742
_cell_angle_beta	89.998173
_cell_angle_gamma	91.111556
loop_
_atom_site_label
_atom_site_type_symbol
_atom_site_fract_x
_atom_site_fract_y
_atom_site_fract_z
O1	O	1.048758	0.170534	-0.123156
O2	O	1.548758	0.670534	0.376844
O3	O	0.820946	0.167826	-0.123200
O4	O	1.320946	0.667826	0.376800
O5	O	0.933498	0.055274	-0.123166
O6	O	1.433498	0.555274	0.376834
O7	O	0.936206	0.283086	-0.123189
O8	O	1.436206	0.783086	0.376811
O9	O	0.933481	0.055276	0.123514
O10	O	1.433481	0.555276	0.623514
O11	O	0.820929	0.167827	0.123481
O12	O	1.320929	0.667827	0.623481
O13	O	1.048741	0.170535	0.123525
O14	O	1.548741	0.670535	0.623525
Cu15	Cu	0.934833	0.169182	0.146027
Cu16	Cu	1.434833	0.669182	0.646027
Cu17	Cu	0.934854	0.169180	-0.145702
Cu18	Cu	1.434854	0.669180	0.354298
O19	O	0.936189	0.283087	0.123491
O20	O	1.436189	0.783087	0.623491
C21	C	0.791645	0.165364	0.000135
C22	C	1.291645	0.665364	0.500135
C23	C	0.704361	0.158016	0.000119
C24	C	1.204361	0.658016	0.500119
C25	C	0.658752	0.225479	0.000113
C26	C	1.158752	0.725479	0.500113
C27	C	0.576740	0.218570	0.000134
C28	C	1.076740	0.718570	0.500134
C29	C	0.540339	0.144197	0.000151
C30	C	1.040339	0.644197	0.500151
C31	C	0.585954	0.076728	0.000161
C32	C	1.085954	0.576728	0.500161
C33	C	0.667965	0.083638	0.000150
C34	C	1.167965	0.583638	0.500150
C35	C	0.292951	0.119787	0.000193
C36	C	0.792951	0.619787	0.500193
C37	C	0.210935	0.112882	0.000199
C38	C	0.710935	0.612882	0.500199
C39	C	0.201726	0.254725	0.000175
C40	C	0.701726	0.754725	0.500175
C41	C	0.283739	0.261628	0.000156
C42	C	0.783739	0.761628	0.500156
C43	C	0.329347	0.194159	0.000174
C44	C	0.829347	0.694159	0.500174
C45	C	0.456510	0.137133	0.000168
C46	C	0.956510	0.637133	0.500168
C47	C	0.413174	0.201224	0.000167
C48	C	0.913174	0.701224	0.500167
C49	C	0.931027	0.025982	0.000173
C50	C	1.431027	0.525982	0.500173
C51	C	0.923679	-0.061301	0.000172
C52	C	1.423679	0.438699	0.500172
C53	C	0.991142	-0.106911	0.000186
C54	C	1.491142	0.393089	0.500186
C55	C	0.984233	-0.188923	0.000171
C56	C	1.484233	0.311077	0.500171
C57	C	0.909860	-0.225324	0.000151
C58	C	1.409860	0.274676	0.500151
C59	C	0.842391	-0.179708	0.000132
C60	C	1.342391	0.320292	0.500132
C61	C	0.849301	-0.097698	0.000137
C62	C	1.349301	0.402302	0.500137
C63	C	0.885449	-0.472712	0.000126
C64	C	1.385449	0.027288	0.500126
C65	C	0.878545	-0.554728	0.000126
C66	C	1.378545	-0.054728	0.500126
C67	C	1.020387	-0.563937	0.000161
C68	C	1.520387	-0.063937	0.500161
C69	C	1.027291	-0.481924	0.000175
C70	C	1.527291	0.018076	0.500175
C71	C	0.959822	-0.436316	0.000148
C72	C	1.459822	0.063684	0.500148
C73	C	0.902796	-0.309153	0.000140
C74	C	1.402796	0.190847	0.500140
C75	C	0.966886	-0.352488	0.000149
C76	C	1.466886	0.147512	0.500149
C77	C	1.078042	0.172997	0.000187
C78	C	1.578042	0.672997	0.500187
C79	C	1.165326	0.180346	0.000193
C80	C	1.665326	0.680346	0.500193
C81	C	0.938660	0.312379	0.000148
C82	C	1.438660	0.812379	0.500148
C83	C	0.946008	0.399663	0.000141
C84	C	1.446008	0.899663	0.500141
N85	N	0.934824	0.169183	0.351213
N86	N	1.434824	0.669183	0.851213
N87	N	0.934868	0.169173	-0.350888
N88	N	1.434868	0.669173	0.149112
C89	C	0.874408	0.229165	0.586228
C90	C	1.374408	0.729165	1.086228
C91	C	0.874564	0.229412	0.414337
C92	C	1.374564	0.729412	0.914337
C93	C	1.017959	0.192532	0.413565
C94	C	1.517959	0.692532	0.913565
C95	C	1.017635	0.192963	0.585510
C96	C	1.517635	0.692963	1.085510
C97	C	0.912909	0.085690	0.585761
C98	C	1.412909	0.585690	1.085761
C99	C	0.911057	0.086116	0.413806
C100	C	1.411057	0.586116	0.913806
H101	H	0.426863	0.076578	0.000223
H102	H	0.926863	0.576578	0.500223
Cl103	Cl	1.047011	0.285769	0.347058
Cl104	Cl	1.547011	0.785769	0.847058
Cl105	Cl	1.046224	0.287219	0.647407
Cl106	Cl	1.546224	0.787219	1.147407
Cl107	Cl	0.816596	0.058950	0.350891
Cl108	Cl	1.316596	0.558950	0.850891
Cl109	Cl	0.809301	-0.354921	0.000108
Cl110	Cl	1.309301	0.145079	0.500108
H111	H	0.830511	-0.435587	0.000105
H112	H	1.330511	0.064413	0.500105
H113	H	1.064320	0.151282	0.627106
H114	H	1.564320	0.651282	1.127106
Cl115	Cl	0.764486	-0.040360	0.000113
Cl116	Cl	1.264486	0.459640	0.500113
H117	H	1.051705	-0.077279	0.000211
H118	H	1.551705	0.422721	0.500211
H119	H	0.313370	0.322190	0.000125
H120	H	0.813370	0.822190	0.500125
Cl121	Cl	0.779416	0.206742	0.349247
Cl122	Cl	1.279416	0.706742	0.849247
Cl123	Cl	1.069049	-0.246257	0.000193
Cl124	Cl	1.569049	0.253743	0.500193
H125	H	0.888830	0.290649	0.629417
H126	H	1.388830	0.790649	1.129417
H127	H	1.027441	-0.322847	0.000132
H128	H	1.527441	0.177153	0.500132
H129	H	0.951809	0.038960	0.370843
H130	H	1.451809	0.538960	0.870843
Cl131	Cl	0.980880	0.016662	0.648545
Cl132	Cl	1.480880	0.516662	1.148545
Cl133	Cl	1.089426	0.127219	0.350442
Cl134	Cl	1.589426	0.627219	0.850442
H135	H	0.781835	-0.209353	0.000107
H136	H	1.281835	0.290647	0.500107
H137	H	0.164583	0.309653	0.000164
H138	H	0.664583	0.809653	0.500164
Cl139	Cl	0.778985	0.206684	0.650084
Cl140	Cl	1.278985	0.706684	1.150084
Cl141	Cl	0.540193	-0.016770	0.000190
Cl142	Cl	1.040193	0.483230	0.500190
Cl143	Cl	1.120792	-0.436169	0.000151
Cl144	Cl	1.620792	0.063831	0.500151
H145	H	0.889149	0.291250	0.373186
H146	H	1.389149	0.791250	0.873186
Cl147	Cl	0.820882	0.053127	0.652773
Cl148	Cl	1.320882	0.553127	1.152773
H149	H	0.181300	0.052315	0.000210
H150	H	0.681300	0.552315	0.500210
Cl151	Cl	0.704505	0.318982	0.000083
Cl152	Cl	1.204505	0.818982	0.500083
H153	H	1.075316	-0.601079	0.000180
H154	H	1.575316	-0.101079	0.500180
H155	H	0.539608	0.273507	0.000128
H156	H	1.039608	0.773507	0.500128
Cl157	Cl	0.785040	-0.600488	0.000111
Cl158	Cl	1.285040	-0.100488	0.500111
Cl159	Cl	0.458937	0.294718	0.000152
Cl160	Cl	0.958937	0.794718	0.500152
H161	H	0.330076	0.064848	0.000209
H162	H	0.830076	0.564848	0.500209
H163	H	0.705099	0.028702	0.000154
H164	H	1.205099	0.528702	0.500154
