data_functionalizedCrystal
_audit_creation_method	'MofGen! by Chris Wilmer'
_symmetry_space_group_name_H-M	'P1'
_symmetry_Int_Tables_number	1
_symmetry_cell_setting	triclinic
loop_
_symmetry_equiv_pos_as_xyz
  x,y,z
_cell_length_a	10.654550
_cell_length_b	14.048226
_cell_length_c	14.971494
_cell_angle_alpha	89.995286
_cell_angle_beta	84.051230
_cell_angle_gamma	89.990034
loop_
_atom_site_label
_atom_site_type_symbol
_atom_site_fract_x
_atom_site_fract_y
_atom_site_fract_z
O1	O	1.666502	-0.079235	0.125632
O2	O	1.300896	-0.079219	0.137602
O3	O	1.493493	-0.079225	0.001471
O4	O	1.473905	-0.079229	0.261763
O5	O	1.493469	0.079096	0.001463
O6	O	1.300873	0.079102	0.137594
O7	O	1.666479	0.079086	0.125624
Zn8	Zn	1.483672	0.104231	0.131608
Zn9	Zn	1.483703	-0.104364	0.131618
O10	O	1.473882	0.079093	0.261755
C11	C	1.254096	-0.000057	0.136719
C12	C	1.114680	-0.000051	0.134089
N13	N	1.483660	0.246592	0.131600
N14	N	1.483724	-0.246725	0.131619
C15	C	1.034338	-0.000066	0.214241
C16	C	0.903344	-0.000082	0.211765
C17	C	0.933047	-0.000073	0.048979
C18	C	1.064039	-0.000049	0.051456
C19	C	1.084980	-0.000067	0.296875
C20	C	1.004637	-0.000083	0.377033
C21	C	0.873642	-0.000099	0.374557
C22	C	0.822991	-0.000100	0.291923
C23	C	1.713279	-0.000078	0.126507
C24	C	1.852694	-0.000090	0.129137
C25	C	1.492603	-0.000066	-0.031863
C26	C	1.489972	-0.000070	-0.131174
C27	C	1.568969	0.296407	0.071346
C28	C	1.568978	0.396065	0.071346
C29	C	1.483682	0.445905	0.131604
C30	C	1.398365	0.396083	0.191860
C31	C	1.398351	0.296427	0.191856
C32	C	1.398401	0.603797	0.191867
C33	C	1.398416	0.703460	0.191873
C34	C	1.569027	0.703435	0.071357
C35	C	1.569014	0.603779	0.071352
C36	C	1.483697	0.553964	0.131610
C37	C	1.488752	-0.086372	-0.177821
C38	C	1.486272	-0.086374	-0.271133
C39	C	1.485022	-0.000072	-0.317798
C40	C	1.486238	0.086237	-0.271144
C41	C	1.488709	0.086237	-0.177832
C42	C	1.481091	0.086231	-0.465635
C43	C	1.478623	0.086231	-0.558953
C44	C	1.478654	-0.086380	-0.558936
C45	C	1.481125	-0.086380	-0.465624
C46	C	1.482344	-0.000071	-0.418977
C47	C	1.474771	-0.000069	0.295089
C48	C	1.477402	-0.000071	0.394400
H49	H	1.191641	-0.000058	0.298900
H50	H	0.716326	-0.000098	0.289913
H51	H	1.482153	-0.156654	-0.427633
H52	H	0.808229	-0.000103	0.439826
H53	H	1.045886	-0.000075	0.444311
Br54	Br	1.282561	0.228820	0.273626
Br55	Br	1.684743	0.228777	-0.010431
H56	H	1.638441	0.436624	0.022282
Br57	Br	0.864306	-0.000076	-0.063160
Br58	Br	1.173083	-0.000023	-0.057323
H59	H	1.638473	0.563199	0.022290
Br60	Br	1.684817	0.771044	-0.010416
Br61	Br	1.282652	0.771094	0.273655
H62	H	1.328923	0.563241	0.240932
Br63	Br	1.476994	-0.203514	-0.622241
H64	H	1.328909	0.436669	0.240920
Br65	Br	1.490462	-0.203503	-0.114500
H66	H	1.485284	-0.156649	-0.309109
H67	H	1.477594	0.156506	-0.596944
H68	H	1.482056	0.156513	-0.427656
H69	H	1.485212	0.156506	-0.309145
Br70	Br	1.490359	0.203366	-0.114524
