data_functionalizedCrystal
_audit_creation_method	'MofGen! by Chris Wilmer'
_symmetry_space_group_name_H-M	'P1'
_symmetry_Int_Tables_number	1
_symmetry_cell_setting	triclinic
loop_
_symmetry_equiv_pos_as_xyz
  x,y,z
_cell_length_a	25.639242
_cell_length_b	25.639240
_cell_length_c	13.033454
_cell_angle_alpha	82.770124
_cell_angle_beta	97.151288
_cell_angle_gamma	90.028283
loop_
_atom_site_label
_atom_site_type_symbol
_atom_site_fract_x
_atom_site_fract_y
_atom_site_fract_z
Zn1	Zn	0.761747	-0.170616	-0.591058
Zn2	Zn	0.772768	-0.269172	-0.416276
Zn3	Zn	0.685411	-0.181744	-0.416297
Zn4	Zn	0.674284	-0.258023	-0.590945
O5	O	0.723553	-0.219889	-0.503644
O6	O	0.836372	-0.183699	-0.567912
O7	O	0.770449	-0.266897	-0.270041
O8	O	0.695581	-0.107099	-0.439536
O9	O	0.844469	-0.256107	-0.439500
O10	O	0.751665	-0.098924	-0.567932
O11	O	0.706268	-0.202664	-0.270056
O12	O	0.610772	-0.191854	-0.439426
O13	O	0.676617	-0.237105	-0.737198
O14	O	0.602598	-0.247895	-0.567739
O15	O	0.740876	-0.172888	-0.737281
O16	O	0.759660	-0.340862	-0.439390
O17	O	0.687305	-0.332671	-0.567718
C18	C	0.587715	-0.219873	-0.503573
C19	C	0.529601	-0.219877	-0.503568
C20	C	0.723484	-0.355736	-0.503562
C21	C	0.723500	-0.413850	-0.503562
C22	C	0.164989	-0.249130	-0.570393
C23	C	0.110384	-0.249132	-0.570410
O24	O	0.078539	-0.273982	-0.627167
N25	N	0.087309	-0.219899	-0.503712
C26	C	0.118842	-0.190657	-0.437001
O27	O	0.094201	-0.165792	-0.380272
C28	C	0.173446	-0.190653	-0.436991
C29	C	0.196519	-0.219892	-0.503685
C30	C	0.188062	-0.278366	-0.637083
C31	C	0.242664	-0.278364	-0.637065
C32	C	0.274193	-0.249127	-0.570357
C33	C	0.251120	-0.219890	-0.503667
C34	C	0.204978	-0.161409	-0.370286
C35	C	0.259585	-0.161406	-0.370282
C36	C	0.282658	-0.190645	-0.436976
C37	C	0.337251	-0.190651	-0.436941
N38	N	0.360326	-0.219884	-0.503639
C39	C	0.328797	-0.249122	-0.570347
C40	C	0.004170	-0.190669	-0.437030
C41	C	-0.050433	-0.190676	-0.437034
C42	C	-0.058887	-0.249150	-0.570444
C43	C	-0.004283	-0.249145	-0.570434
C44	C	0.027245	-0.219902	-0.503727
C45	C	0.443465	-0.249117	-0.570303
C46	C	0.498072	-0.249114	-0.570276
C47	C	0.506521	-0.190639	-0.436870
C48	C	0.451919	-0.190643	-0.436893
C49	C	0.420392	-0.219883	-0.503618
O50	O	0.369129	-0.165812	-0.380215
O51	O	0.353444	-0.273977	-0.627076
C52	C	0.752764	-0.769905	-0.570621
C53	C	0.752778	-0.824508	-0.570642
O54	O	0.777577	-0.849087	-0.627573
N55	N	0.723619	-0.856121	-0.503745
C56	C	0.694439	-0.833128	-0.436830
O57	O	0.669637	-0.865032	-0.379932
C58	C	0.694422	-0.778526	-0.436815
C59	C	0.723588	-0.746916	-0.503709
C60	C	0.781927	-0.738295	-0.637510
C61	C	0.781914	-0.683696	-0.637487
C62	C	0.752738	-0.660707	-0.570575
C63	C	0.723575	-0.692317	-0.503686
C64	C	0.665240	-0.755534	-0.369906
C65	C	0.665225	-0.700927	-0.369897
C66	C	0.694391	-0.669317	-0.436791
C67	C	0.694385	-0.614729	-0.436751
N68	N	0.723544	-0.583115	-0.503648
C69	C	0.752721	-0.606105	-0.570560
C70	C	0.694475	-0.947797	-0.436869
C71	C	0.694495	-1.002398	-0.436878
C72	C	0.752834	-0.993774	-0.570691
C73	C	0.752817	-0.939172	-0.570676
C74	C	0.723635	-0.916183	-0.503765
C75	C	0.752691	-0.491443	-0.570506
C76	C	0.752677	-0.436840	-0.570474
C77	C	0.694336	-0.445468	-0.436665
C78	C	0.694352	-0.500067	-0.436693
C79	C	0.723531	-0.523053	-0.503622
O80	O	0.669597	-0.590113	-0.379852
O81	O	0.777513	-0.574195	-0.627458
C82	C	0.859921	-0.219905	-0.503716
C83	C	0.918033	-0.219912	-0.503746
C84	C	0.706276	-0.202512	-0.776218
C85	C	0.698914	-0.195107	-0.892372
C86	C	0.723634	-0.083509	-0.503749
C87	C	0.723669	-0.025392	-0.503794
C88	C	0.727387	-0.223587	-0.944150
C89	C	0.719778	-0.215934	-1.064202
C90	C	0.740792	-0.237160	-0.232131
C91	C	0.748256	-0.244418	-0.115977
H92	H	0.516854	-0.272926	-0.624587
H93	H	-0.084569	-0.272955	-0.624765
O94	O	0.781018	-0.406208	-0.635560
C95	C	0.806780	-0.438214	-0.694605
H96	H	0.785145	-0.476923	-0.698187
H97	H	0.848927	-0.446436	-0.656426
C98	C	0.833787	-0.362233	-0.801437
C99	C	0.807211	-0.409775	-0.805845
H100	H	0.834055	-0.344691	-0.870054
H101	H	0.816432	-0.340671	-0.761655
H102	H	0.868906	-0.369092	-0.769617
H103	H	0.772091	-0.402915	-0.837652
H104	H	0.824560	-0.431337	-0.845634
O105	O	0.810305	-0.652978	-0.702327
C106	C	0.847852	-0.625159	-0.642910
H107	H	0.856340	-0.646875	-0.560613
H108	H	0.831908	-0.584021	-0.639270
C109	C	0.888511	-0.594334	-0.795173
C110	C	0.898940	-0.621009	-0.694097
H111	H	0.920024	-0.591771	-0.826749
H112	H	0.863214	-0.613074	-0.835205
H113	H	0.875224	-0.560055	-0.792126
H114	H	0.912220	-0.655289	-0.697146
H115	H	0.924240	-0.602273	-0.654066
O116	O	0.784100	-0.280275	-1.063008
C117	C	0.809087	-0.305278	-1.134462
H118	H	0.806011	-0.278936	-1.212313
H119	H	0.789189	-0.344255	-1.145989
C120	C	0.871193	-0.347878	-0.996162
C121	C	0.867418	-0.315522	-1.091778
H122	H	0.907174	-0.354199	-0.969832
H123	H	0.854358	-0.331034	-0.948021
H124	H	0.854608	-0.380355	-1.005781
H125	H	0.883997	-0.283043	-1.082156
H126	H	0.884257	-0.332360	-1.139917
O127	O	0.636801	-0.678651	-0.304950
C128	C	0.583244	-0.690569	-0.327708
H129	H	0.579611	-0.727641	-0.367896
H130	H	0.562202	-0.656413	-0.381388
C131	C	0.562535	-0.654114	-0.176411
C132	C	0.558073	-0.699649	-0.225762
H133	H	0.547006	-0.659713	-0.113527
H134	H	0.598617	-0.646082	-0.161079
H135	H	0.545000	-0.625655	-0.221154
H136	H	0.575613	-0.728105	-0.181024
H137	H	0.521993	-0.707686	-0.241083
O138	O	0.429565	-0.162279	-0.371965
C139	C	0.449466	-0.180271	-0.267753
H140	H	0.489246	-0.200511	-0.265476
H141	H	0.420948	-0.209373	-0.232468
C142	C	0.407132	-0.108410	-0.207454
C143	C	0.455993	-0.133266	-0.204657
H144	H	0.411156	-0.079416	-0.168531
H145	H	0.393723	-0.096290	-0.277663
H146	H	0.383372	-0.132668	-0.178052
H147	H	0.479750	-0.109011	-0.234071
H148	H	0.469407	-0.145382	-0.134452
O149	O	0.666056	-0.423165	-0.371526
C150	C	0.684109	-0.443170	-0.267394
H151	H	0.726214	-0.458481	-0.262192
H152	H	0.657830	-0.476638	-0.240033
C153	C	0.630740	-0.380328	-0.204023
C154	C	0.682455	-0.399128	-0.197633
H155	H	0.629717	-0.353162	-0.160989
H156	H	0.618575	-0.366851	-0.274178
H157	H	0.608846	-0.408222	-0.181224
H158	H	0.704347	-0.371236	-0.220444
H159	H	0.694624	-0.412599	-0.127479
O160	O	0.290199	-0.133067	-0.305326
C161	C	0.283421	-0.151047	-0.201135
H162	H	0.268735	-0.193159	-0.195704
H163	H	0.253455	-0.124730	-0.173940
C164	C	0.354370	-0.097630	-0.138065
C165	C	0.336337	-0.149354	-0.131393
H166	H	0.387011	-0.096584	-0.095043
H167	H	0.358936	-0.085515	-0.208261
H168	H	0.329394	-0.075705	-0.115404
H169	H	0.361310	-0.171277	-0.154066
H170	H	0.331777	-0.161474	-0.061200
H171	H	0.689769	-0.185882	-1.108747
O172	O	0.265106	-0.306825	-0.701714
C173	C	0.300457	-0.344343	-0.642101
H174	H	0.289208	-0.352764	-0.559782
H175	H	0.342071	-0.328399	-0.638561
C176	C	0.311869	-0.385146	-0.794067
C177	C	0.298051	-0.395493	-0.692965
H178	H	0.310387	-0.416697	-0.825444
H179	H	0.288054	-0.359869	-0.834231
H180	H	0.346547	-0.371858	-0.791103
H181	H	0.263372	-0.408774	-0.695931
H182	H	0.321860	-0.420774	-0.652802
H183	H	0.417801	-0.272926	-0.624639
O184	O	0.663051	-0.159331	-0.945554
C185	C	0.625300	-0.185100	-1.008669
H186	H	0.624123	-0.228367	-0.975678
H187	H	0.636261	-0.181668	-1.091357
C188	C	0.572295	-0.106295	-1.051001
C189	C	0.570845	-0.159436	-1.010475
H190	H	0.538704	-0.090463	-1.052119
H191	H	0.597729	-0.088934	-1.008482
H192	H	0.581431	-0.103442	-1.119904
H193	H	0.561716	-0.162287	-0.941569
H194	H	0.545408	-0.176797	-1.052982
H195	H	0.776590	-1.012502	-0.625176
O196	O	0.182571	-0.133097	-0.305353
C197	C	0.155249	-0.167129	-0.237753
H198	H	0.172094	-0.208725	-0.231185
H199	H	0.111816	-0.166885	-0.270020
C200	C	0.140629	-0.097353	-0.137261
C201	C	0.161321	-0.148441	-0.129187
H202	H	0.144372	-0.085825	-0.070294
H203	H	0.159034	-0.074424	-0.182807
H204	H	0.104437	-0.097156	-0.164154
H205	H	0.197514	-0.148636	-0.102307
H206	H	0.142922	-0.171370	-0.083634
H207	H	0.162396	-0.302175	-0.691411
H208	H	0.757399	-0.253633	-0.899601
O209	O	0.810238	-0.760555	-0.702656
C210	C	0.792160	-0.740562	-0.806782
H211	H	0.771906	-0.700802	-0.808888
H212	H	0.763054	-0.769068	-0.841944
C213	C	0.863965	-0.782759	-0.867594
C214	C	0.839092	-0.733923	-0.870181
H215	H	0.892914	-0.778665	-0.906704
H216	H	0.876144	-0.796230	-0.797443
H217	H	0.839705	-0.806509	-0.896894
H218	H	0.863350	-0.710176	-0.840870
H219	H	0.826918	-0.720447	-0.940329
O220	O	0.018039	-0.277555	-0.635325
C221	C	-0.021503	-0.303371	-0.694179
H222	H	-0.060651	-0.281725	-0.697877
H223	H	-0.024897	-0.345501	-0.655757
C224	C	0.040851	-0.330489	-0.800830
C225	C	-0.007230	-0.303900	-0.805380
H226	H	0.049656	-0.330818	-0.869422
H227	H	0.067492	-0.313098	-0.761177
H228	H	0.038017	-0.365594	-0.768807
H229	H	-0.004393	-0.268794	-0.837390
H230	H	-0.033871	-0.321286	-0.845041
H231	H	-0.069212	-0.166873	-0.382714
O232	O	0.537217	-0.162315	-0.372024
C233	C	0.573054	-0.196340	-0.304391
H234	H	0.578890	-0.233654	-0.341087
H235	H	0.556908	-0.206958	-0.226923
C236	C	0.618958	-0.122929	-0.240519
C237	C	0.626130	-0.168757	-0.285594
H238	H	0.651698	-0.105915	-0.228919
H239	H	0.594813	-0.100005	-0.286081
H240	H	0.605502	-0.131784	-0.175967
H241	H	0.639580	-0.159902	-0.350149
H242	H	0.650279	-0.191679	-0.240042
H243	H	0.670607	-0.525806	-0.382214
H244	H	0.029838	-0.166857	-0.382702
H245	H	0.776566	-0.913438	-0.625147
O246	O	0.666121	-0.925556	-0.371758
C247	C	0.640381	-0.965170	-0.312742
H248	H	0.662039	-1.004302	-0.309192
H249	H	0.598238	-0.968567	-0.350925
C250	C	0.613334	-0.902934	-0.205852
C251	C	0.639938	-0.950995	-0.201485
H252	H	0.613058	-0.894189	-0.137225
H253	H	0.630674	-0.876244	-0.245614
H254	H	0.578218	-0.905770	-0.237676
H255	H	0.675055	-0.948155	-0.169674
H256	H	0.622603	-0.977684	-0.161714
H257	H	0.776447	-0.510151	-0.625013
H258	H	0.670751	-1.028132	-0.382395
H259	H	0.641490	-0.781262	-0.315434
