data_functionalizedCrystal
_audit_creation_method	'MofGen! by Chris Wilmer'
_symmetry_space_group_name_H-M	'P1'
_symmetry_Int_Tables_number	1
_symmetry_cell_setting	triclinic
loop_
_symmetry_equiv_pos_as_xyz
  x,y,z
_cell_length_a	10.654562
_cell_length_b	27.732048
_cell_length_c	9.130313
_cell_angle_alpha	89.991693
_cell_angle_beta	89.999880
_cell_angle_gamma	83.566379
loop_
_atom_site_label
_atom_site_type_symbol
_atom_site_fract_x
_atom_site_fract_y
_atom_site_fract_z
O1	O	1.664964	0.067915	-0.121913
O2	O	1.299216	0.074376	-0.121897
O3	O	1.493449	0.000820	-0.121878
O4	O	1.470731	0.141471	-0.121932
O5	O	1.493459	0.000818	0.121721
O6	O	1.299225	0.074374	0.121702
O7	O	1.664973	0.067913	0.121686
Cu8	Cu	1.482100	0.071144	0.143936
Cu9	Cu	1.482089	0.071145	-0.144148
O10	O	1.470740	0.141470	0.121666
C11	C	1.252443	0.073900	-0.000095
C12	C	1.113060	0.072476	-0.000087
C13	C	1.047563	0.071812	0.132687
C14	C	0.916596	0.070478	0.132663
C15	C	0.916636	0.070476	-0.132922
C16	C	1.047601	0.071806	-0.132896
C17	C	1.047538	0.071815	0.286021
C18	C	0.916571	0.070481	0.285997
C19	C	1.492977	-0.017191	-0.000074
C20	C	1.491541	-0.070855	-0.000062
C21	C	1.597280	-0.409010	-0.000142
C22	C	1.591952	-0.610703	-0.000162
O23	O	1.688642	-0.641354	-0.000231
N24	N	1.476779	-0.630546	-0.000156
C25	C	1.362931	-0.599962	-0.000154
O26	O	1.264848	-0.621468	-0.000164
C27	C	1.368260	-0.398270	-0.000144
C28	C	1.483440	-0.378430	-0.000136
C29	C	1.712450	-0.389169	-0.000135
C30	C	1.713781	-0.338749	-0.000122
C31	C	1.599941	-0.308169	-0.000116
C32	C	1.484771	-0.328010	-0.000123
C33	C	1.254413	-0.367687	-0.000152
C34	C	1.255756	-0.317262	-0.000154
C35	C	1.370936	-0.297422	-0.000145
C36	C	1.372262	-0.247010	-0.000103
N37	N	1.487434	-0.227167	-0.000110
C38	C	1.601274	-0.257746	-0.000116
C39	C	1.360141	-0.705853	-0.000156
C40	C	1.358808	-0.756276	-0.000156
C41	C	1.587830	-0.767013	-0.000167
C42	C	1.589161	-0.716590	-0.000157
C43	C	1.475313	-0.686010	-0.000162
C44	C	1.604060	-0.151860	-0.000088
C45	C	1.605381	-0.101435	-0.000068
C46	C	1.376360	-0.090702	-0.000065
C47	C	1.375039	-0.141123	-0.000076
C48	C	1.488899	-0.171701	-0.000093
O49	O	1.275623	-0.216329	-0.000051
O50	O	1.699343	-0.236231	-0.000139
C51	C	1.595949	-0.459430	-0.000155
C52	C	1.480779	-0.479270	-0.000162
C53	C	1.366939	-0.448691	-0.000155
C54	C	1.479446	-0.529693	-0.000162
C55	C	1.593286	-0.560273	-0.000168
C56	C	1.708458	-0.540430	-0.000175
C57	C	1.709789	-0.490010	-0.000161
C58	C	1.251766	-0.468534	-0.000149
C59	C	1.250445	-0.518955	-0.000160
C60	C	1.364285	-0.549534	-0.000167
C61	C	1.711746	0.068390	-0.000120
C62	C	1.851129	0.069813	-0.000137
C63	C	1.471212	0.159480	-0.000140
C64	C	1.472648	0.213144	-0.000162
N65	N	1.482082	0.071143	-0.346770
C66	C	1.568277	0.038640	-0.576752
C67	C	1.568257	0.038639	-0.423415
C68	C	1.395913	0.103647	-0.423470
C69	C	1.395928	0.103645	-0.576804
C70	C	1.667783	0.001110	-0.576718
C71	C	1.667763	0.001109	-0.423382
N72	N	1.482117	0.071142	0.346559
H73	H	0.888467	0.035232	0.333590
H74	H	1.095204	0.038412	0.344917
H75	H	1.763860	0.009464	-0.381758
H76	H	1.648092	-0.036064	-0.618313
H77	H	1.160622	-0.383832	-0.000168
C78	C	1.800994	-0.095056	-0.125306
C79	C	1.731994	-0.079626	-0.000071
H80	H	1.879153	-0.081591	-0.125311
H81	H	1.816486	-0.129459	-0.125303
H82	H	1.754144	-0.084576	-0.210238
H83	H	1.778840	-0.090110	0.084862
H84	H	1.716506	-0.045217	-0.000061
C85	C	1.034483	0.071663	-0.395414
C86	C	1.119600	0.072531	-0.278846
H87	H	1.078934	0.072113	-0.485519
H88	H	0.993513	0.043012	-0.389875
H89	H	0.973288	0.099283	-0.389914
H90	H	1.180790	0.044909	-0.284340
H91	H	1.160590	0.101186	-0.284387
H92	H	1.163045	-0.292366	-0.000161
H93	H	1.680522	-0.791920	-0.000171
H94	H	1.801150	-0.565337	-0.000173
H95	H	1.283675	-0.065795	-0.000054
H96	H	1.159062	-0.443640	-0.000147
H97	H	1.758400	0.012949	-0.624273
H98	H	1.803580	-0.473861	-0.000155
H99	H	0.863324	0.069931	-0.241050
H100	H	1.805158	-0.414063	-0.000146
C101	C	1.603308	-0.077478	-0.473355
C102	C	1.628853	-0.046326	-0.359149
H103	H	1.579307	-0.106764	-0.433695
H104	H	1.536529	-0.062290	-0.531901
H105	H	1.676776	-0.084513	-0.531908
H106	H	1.555382	-0.039289	-0.300601
H107	H	1.695638	-0.061517	-0.300578
C108	C	0.976819	0.149290	0.392393
C109	C	1.085479	0.119396	0.350242
H110	H	1.000247	0.178663	0.432045
H111	H	0.924112	0.156338	0.309469
H112	H	0.932418	0.133142	0.464271
H113	H	1.129875	0.135542	0.278356
H114	H	1.138206	0.112349	0.433176
H115	H	1.156645	-0.535103	-0.000154
H116	H	1.682951	-0.700440	-0.000151
C117	C	1.132569	-0.740586	-0.000157
C118	C	1.232199	-0.778081	-0.000153
H119	H	1.054405	-0.754047	-0.000171
H120	H	1.137857	-0.721149	0.084789
H121	H	1.137869	-0.721137	-0.085109
H122	H	1.226905	-0.797527	0.084805
H123	H	1.226909	-0.797525	-0.085107
H124	H	1.325759	0.130106	-0.639243
C125	C	1.940017	-0.354442	-0.000149
C126	C	1.840392	-0.316945	-0.000133
H127	H	2.018184	-0.340983	-0.000168
H128	H	1.934734	-0.373888	0.084794
H129	H	1.934707	-0.373881	-0.085103
H130	H	1.845696	-0.297509	0.084827
H131	H	1.845677	-0.297491	-0.085085
C132	C	1.240665	-0.191607	0.125142
C133	C	1.248430	-0.162932	-0.000070
H134	H	1.162496	-0.205064	0.125138
H135	H	1.308259	-0.217036	0.125118
H136	H	1.245953	-0.172163	0.210090
H137	H	1.243151	-0.182376	-0.085018
H138	H	1.180817	-0.137499	-0.000059
H139	H	0.868883	0.103884	0.344849
C140	C	1.225550	0.167899	-0.438928
C141	C	1.301175	0.139372	-0.339228
H142	H	1.167056	0.189952	-0.386919
H143	H	1.277384	0.185516	-0.498724
H144	H	1.180903	0.147574	-0.498739
H145	H	1.345829	0.159697	-0.279423
H146	H	1.249334	0.121754	-0.279406
H147	H	1.267427	-0.680960	-0.000160
C148	C	1.735463	-0.214777	-0.125330
C149	C	1.729217	-0.185466	-0.000099
H150	H	1.812733	-0.235521	-0.125332
H151	H	1.666700	-0.233814	-0.125326
H152	H	1.731214	-0.194872	-0.210265
H153	H	1.733457	-0.205371	0.084836
H154	H	1.797999	-0.166427	-0.000090
