data_functionalizedCrystal
_audit_creation_method	'MofGen! by Chris Wilmer'
_symmetry_space_group_name_H-M	'P1'
_symmetry_Int_Tables_number	1
_symmetry_cell_setting	triclinic
loop_
_symmetry_equiv_pos_as_xyz
  x,y,z
_cell_length_a	18.215407
_cell_length_b	13.897448
_cell_length_c	18.215399
_cell_angle_alpha	89.971263
_cell_angle_beta	89.983176
_cell_angle_gamma	90.018140
loop_
_atom_site_label
_atom_site_type_symbol
_atom_site_fract_x
_atom_site_fract_y
_atom_site_fract_z
Zn1	Zn	1.125087	-0.383990	-0.416124
Zn2	Zn	1.125017	-0.545307	-0.293061
Zn3	Zn	1.002026	-0.384029	-0.293072
Zn4	Zn	1.002001	-0.545246	-0.416086
O5	O	1.063533	-0.464643	-0.354586
O6	O	1.228062	-0.405399	-0.399811
O7	O	1.108684	-0.523954	-0.190078
O8	O	1.018390	-0.249042	-0.309415
O9	O	1.228011	-0.523917	-0.309398
O10	O	1.108802	-0.249014	-0.399821
O11	O	1.018322	-0.405464	-0.190086
O12	O	0.899038	-0.405405	-0.309378
O13	O	1.018347	-0.523814	-0.519076
O14	O	0.899020	-0.523851	-0.399757
O15	O	1.108778	-0.405340	-0.519103
O16	O	1.108659	-0.680280	-0.309361
O17	O	1.018279	-0.680236	-0.399747
C18	C	0.872326	-0.464627	-0.354565
C19	C	0.790528	-0.464643	-0.354573
C20	C	0.602343	-0.526414	-0.401574
C21	C	0.525485	-0.526417	-0.401583
C22	C	0.525474	-0.402889	-0.307614
C23	C	0.602331	-0.402882	-0.307609
C24	C	0.640764	-0.464650	-0.354588
C25	C	0.487048	-0.464660	-0.354602
C26	C	0.403714	-0.464663	-0.354612
C27	C	0.724103	-0.464646	-0.354579
C28	C	1.063479	-0.715257	-0.354565
C29	C	1.063523	-0.822471	-0.354580
C30	C	1.063601	-1.018766	-0.354626
C31	C	1.063556	-0.909534	-0.354603
C32	C	1.255486	-0.464660	-0.354607
C33	C	1.337284	-0.464668	-0.354617
C34	C	1.063567	-0.464566	-0.546539
C35	C	1.063582	-0.464533	-0.628338
C36	C	1.063607	-0.213050	-0.354623
C37	C	1.063638	-0.105836	-0.354639
C38	C	1.016571	-0.402794	-0.816537
C39	C	1.016584	-0.402774	-0.893395
C40	C	1.110682	-0.526158	-0.893377
C41	C	1.110665	-0.526181	-0.816520
C42	C	1.063610	-0.464494	-0.778101
C43	C	1.063640	-0.464451	-0.931818
C44	C	1.063654	-0.464430	-1.015151
C45	C	1.063595	-0.464515	-0.694762
C46	C	1.063540	-0.464650	-0.163380
C47	C	1.063668	-0.464411	-0.081581
H48	H	0.633615	-0.352580	-0.269347
C49	C	1.006407	-0.273010	-0.979864
C50	C	0.964876	-0.334957	-0.935649
H51	H	0.974480	-0.231149	-1.005953
H52	H	1.038466	-0.236120	-0.949895
H53	H	1.034432	-0.309753	-1.013740
H54	H	0.936856	-0.298215	-0.901769
H55	H	0.932804	-0.371851	-0.965621
C56	C	0.688751	-0.656180	-0.411630
C57	C	0.644588	-0.594302	-0.453219
H58	H	0.714825	-0.698093	-0.443517
H59	H	0.722633	-0.619397	-0.383653
H60	H	0.658742	-0.693026	-0.379523
H61	H	0.674598	-0.557450	-0.485322
H62	H	0.610703	-0.631089	-0.481208
H63	H	1.148992	-0.576381	-0.924666
C64	C	1.203687	-0.648137	-0.824215
C65	C	1.162376	-0.594005	-0.774266
H66	H	1.235611	-0.690003	-0.798127
H67	H	1.171621	-0.685022	-0.854181
H68	H	1.231855	-0.606093	-0.854204
H69	H	1.134203	-0.636049	-0.744280
H70	H	1.194446	-0.557117	-0.744287
C71	C	0.923552	-0.280846	-0.824278
C72	C	0.964841	-0.335000	-0.774307
H73	H	0.891611	-0.238999	-0.798206
H74	H	0.955631	-0.243938	-0.854261
H75	H	0.895403	-0.322876	-0.854247
H76	H	0.992994	-0.292970	-0.744341
H77	H	0.932758	-0.371910	-0.744310
H78	H	0.494173	-0.352601	-0.269364
H79	H	0.494206	-0.576711	-0.439845
