data_functionalizedCrystal
_audit_creation_method	'MofGen! by Chris Wilmer'
_symmetry_space_group_name_H-M	'P1'
_symmetry_Int_Tables_number	1
_symmetry_cell_setting	triclinic
loop_
_symmetry_equiv_pos_as_xyz
  x,y,z
_cell_length_a	14.908783
_cell_length_b	29.839131
_cell_length_c	14.908308
_cell_angle_alpha	86.738717
_cell_angle_beta	90.211273
_cell_angle_gamma	93.332050
loop_
_atom_site_label
_atom_site_type_symbol
_atom_site_fract_x
_atom_site_fract_y
_atom_site_fract_z
Zn1	Zn	1.345201	-0.157134	0.587801
Zn2	Zn	1.353730	-0.227701	0.437429
Zn3	Zn	1.203514	-0.156647	0.428773
Zn4	Zn	1.194749	-0.236303	0.579049
O5	O	1.274298	-0.194446	0.508263
O6	O	1.472162	-0.163098	0.575140
O7	O	1.341041	-0.214471	0.310458
O8	O	1.222408	-0.093843	0.449909
O9	O	1.478429	-0.214943	0.464662
O10	O	1.326504	-0.094200	0.566746
O11	O	1.230678	-0.162269	0.304099
O12	O	1.076521	-0.170611	0.441422
O13	O	1.207469	-0.229605	0.706032
O14	O	1.070082	-0.229134	0.551829
O15	O	1.318005	-0.171439	0.712463
O16	O	1.332542	-0.291711	0.456175
O17	O	1.215740	-0.298031	0.560222
C18	C	1.040675	-0.200753	0.494737
C19	C	0.940729	-0.203463	0.488972
C20	C	0.746382	-0.154652	0.593355
C21	C	0.652473	-0.157197	0.587941
C22	C	0.659001	-0.211094	0.472726
C23	C	0.752910	-0.208549	0.478140
C24	C	0.796597	-0.180328	0.538457
C25	C	0.890507	-0.177786	0.543875
C26	C	0.897034	-0.231681	0.428656
C27	C	0.803125	-0.234225	0.423242
C28	C	1.274139	-0.311172	0.508209
C29	C	1.274151	-0.361106	0.508221
C30	C	1.335217	-0.667443	0.454175
C31	C	1.335326	-0.855114	0.454217
O32	O	1.387120	-0.876569	0.408224
N33	N	1.274481	-0.881885	0.508342
C34	C	1.213608	-0.861736	0.562464
O35	O	1.161864	-0.888813	0.608509
C36	C	1.213504	-0.674066	0.562427
C37	C	1.274347	-0.647297	0.508292
C38	C	1.396056	-0.640674	0.400045
C39	C	1.396025	-0.593759	0.400032
C40	C	1.335155	-0.573613	0.454149
C41	C	1.274316	-0.600382	0.508279
C42	C	1.152636	-0.653918	0.616554
C43	C	1.152617	-0.606997	0.616542
C44	C	1.213460	-0.580228	0.562407
C45	C	1.213415	-0.533321	0.562382
N46	N	1.274260	-0.506550	0.508257
C47	C	1.335130	-0.526695	0.454140
C48	C	1.213666	-0.960266	0.562479
C49	C	1.213691	-1.007183	0.562487
C50	C	1.335410	-1.000557	0.454240
C51	C	1.335380	-0.953639	0.454228
C52	C	1.274511	-0.933494	0.508354
C53	C	1.335060	-0.428171	0.454116
C54	C	1.335021	-0.381252	0.454104
C55	C	1.213305	-0.387882	0.562354
C56	C	1.213340	-0.434797	0.562362
C57	C	1.274225	-0.454940	0.508240
O58	O	1.161655	-0.511835	0.608358
O59	O	1.386880	-0.499611	0.408118
C60	C	1.335248	-0.714358	0.454189
C61	C	1.274410	-0.741127	0.508319
C62	C	1.213540	-0.720981	0.562435
C63	C	1.274434	-0.788044	0.508327
C64	C	1.335304	-0.808190	0.454211
C65	C	1.396149	-0.781418	0.400086
C66	C	1.396118	-0.734503	0.400072
C67	C	1.152694	-0.747752	0.616560
C68	C	1.152730	-0.794667	0.616569
C69	C	1.213600	-0.814813	0.562452
C70	C	1.508834	-0.188115	0.521842
C71	C	1.608779	-0.185417	0.527629
C72	C	1.260808	-0.201536	0.742784
C73	C	1.255059	-0.204557	0.842723
C74	C	1.274482	-0.077265	0.508338
C75	C	1.274561	-0.027329	0.508370
C76	C	1.287788	-0.187350	0.274657
C77	C	1.293711	-0.184198	0.174729
C78	C	1.359355	-0.149656	1.037217
C79	C	1.353956	-0.152493	1.131119
C80	C	1.238859	-0.213066	1.124430
C81	C	1.244258	-0.210229	1.030528
C82	C	1.304509	-0.178523	0.986925
C83	C	1.309911	-0.175689	0.893022
C84	C	1.194810	-0.236259	0.886335
C85	C	1.189412	-0.239096	0.980237
H86	H	0.781952	-0.131675	0.642472
H87	H	1.163800	-0.456594	0.606446
C88	C	0.662067	-0.262059	0.363787
C89	C	0.755099	-0.265246	0.356947
H90	H	0.632421	-0.281213	0.322863
H91	H	0.647468	-0.231889	0.349843
H92	H	0.643219	-0.270919	0.423293
H93	H	0.773949	-0.256382	0.297442
H94	H	0.769705	-0.295422	0.370885
C95	C	1.360464	-0.094912	1.237467
C96	C	1.414245	-0.120761	1.186398
H97	H	1.397686	-0.075318	1.271588
H98	H	1.323823	-0.114199	1.276875
H99	H	1.323419	-0.077682	1.198566
H100	H	1.451285	-0.137993	1.225299
H101	H	1.450901	-0.101471	1.146985
C102	C	1.080490	-0.296416	0.889159
C103	C	1.134511	-0.267991	0.831053
H104	H	1.043270	-0.316007	0.855028
H105	H	1.044022	-0.278877	0.923803
H106	H	1.117544	-0.313649	0.928044
H107	H	1.097457	-0.250755	0.792172
H108	H	1.170982	-0.285532	0.796394
C109	C	1.448720	-0.573541	0.250358
C110	C	1.462918	-0.564340	0.340534
H111	H	1.490027	-0.555383	0.213629
H112	H	1.389083	-0.567110	0.233649
H113	H	1.457436	-0.604369	0.242639
H114	H	1.454195	-0.533511	0.348255
H115	H	1.522570	-0.570767	0.357249
C116	C	1.043886	-0.251716	0.385796
C117	C	0.952233	-0.259906	0.368308
H118	H	1.077961	-0.269141	0.348539
H119	H	1.055800	-0.259744	0.447067
H120	H	1.060056	-0.220708	0.373629
H121	H	0.936061	-0.290914	0.380482
H122	H	0.940313	-0.251881	0.307023
C123	C	1.415716	-0.689485	0.279906
C124	C	1.463000	-0.662832	0.340617
H125	H	1.457055	-0.703169	0.243236
H126	H	1.378574	-0.671233	0.243163
H127	H	1.379462	-0.712133	0.312149
H128	H	1.499249	-0.640182	0.308374
H129	H	1.500157	-0.681085	0.377364
C130	C	1.369293	-0.144442	0.752047
C131	C	1.376133	-0.140837	0.845089
H132	H	1.410179	-0.122926	0.722459
H133	H	1.309777	-0.139037	0.733172
H134	H	1.383302	-0.173807	0.737410
H135	H	1.362117	-0.111472	0.859727
H136	H	1.435662	-0.146239	0.863971
C137	C	1.194166	-1.063924	0.682706
C138	C	1.146805	-1.036606	0.621987
H139	H	1.152873	-1.082088	0.719438
H140	H	1.231320	-1.045576	0.719386
H141	H	1.230413	-1.082638	0.650468
H142	H	1.110562	-1.017889	0.654224
H143	H	1.109635	-1.054955	0.585302
H144	H	1.408418	-0.123842	1.001715
H145	H	0.926075	-0.154807	0.592990
C146	C	0.655456	-0.103670	0.702375
C147	C	0.597275	-0.128976	0.648291
H148	H	0.621377	-0.086250	0.739638
H149	H	0.694341	-0.084282	0.665374
H150	H	0.690098	-0.123320	0.738806
H151	H	0.562638	-0.109326	0.611856
H152	H	0.558374	-0.148367	0.685297
C153	C	1.455344	-0.379422	0.347109
C154	C	1.401908	-0.351828	0.394599
H155	H	1.496639	-0.361257	0.310380
H156	H	1.418186	-0.397766	0.310424
H157	H	1.487458	-0.397954	0.388319
H158	H	1.369788	-0.333299	0.353389
H159	H	1.439071	-0.333477	0.431286
C160	C	1.084900	-0.239931	1.144512
C161	C	1.172626	-0.247912	1.172363
H162	H	1.044010	-0.261443	1.174107
H163	H	1.080276	-0.242376	1.081398
H164	H	1.070914	-0.210564	1.159157
H165	H	1.186614	-0.277279	1.157712
H166	H	1.177253	-0.245471	1.235491
C167	C	1.456807	-0.477206	0.448741
C168	C	1.401998	-0.450302	0.394631
H169	H	1.498136	-0.490865	0.412017
H170	H	1.420585	-0.499870	0.480959
H171	H	1.488882	-0.459128	0.489935
H172	H	1.369918	-0.468381	0.353441
H173	H	1.438225	-0.427635	0.362398
H174	H	1.140355	-0.264909	1.015751
C175	C	1.455692	-0.951813	0.347232
C176	C	1.402266	-0.924216	0.394727
H177	H	1.496990	-0.933650	0.310503
H178	H	1.418529	-0.970154	0.310548
H179	H	1.487804	-0.970347	0.388439
H180	H	1.370149	-0.905685	0.353520
H181	H	1.439434	-0.905868	0.431415
H182	H	1.384973	-1.016968	0.410177
H183	H	0.623416	-0.234065	0.423608
H184	H	1.164097	-0.943867	0.606556
C185	C	1.032343	-0.655734	0.723567
C186	C	1.085760	-0.683335	0.676069
H187	H	0.991059	-0.673896	0.760315
H188	H	1.000224	-0.637207	0.682369
H189	H	1.069521	-0.637388	0.760240
H190	H	1.048582	-0.701679	0.639390
H191	H	1.117881	-0.701870	0.717272
H192	H	1.103051	-0.590598	0.660621
C193	C	1.159238	-0.318898	0.610398
C194	C	1.146403	-0.365731	0.621842
H195	H	1.117941	-0.305223	0.647132
H196	H	1.149590	-0.309759	0.549221
H197	H	1.218886	-0.309950	0.627094
H198	H	1.086757	-0.374680	0.605139
H199	H	1.156044	-0.374874	0.683032
H200	H	1.445710	-0.797829	0.356019
H201	H	1.445663	-0.712711	0.355991
C202	C	1.032421	-0.796492	0.723579
C203	C	1.085846	-0.824089	0.676082
H204	H	0.991140	-0.814656	0.760327
H205	H	1.000299	-0.777966	0.682381
H206	H	1.069595	-0.778144	0.760254
H207	H	1.048673	-0.842435	0.639402
H208	H	1.117971	-0.842623	0.717286
H209	H	1.103128	-0.731354	0.660630
