data_functionalizedCrystal
_audit_creation_method	'MofGen! by Chris Wilmer'
_symmetry_space_group_name_H-M	'P1'
_symmetry_Int_Tables_number	1
_symmetry_cell_setting	triclinic
loop_
_symmetry_equiv_pos_as_xyz
  x,y,z
_cell_length_a	14.853567
_cell_length_b	17.766277
_cell_length_c	19.288857
_cell_angle_alpha	90.006698
_cell_angle_beta	83.384020
_cell_angle_gamma	90.002750
loop_
_atom_site_label
_atom_site_type_symbol
_atom_site_fract_x
_atom_site_fract_y
_atom_site_fract_z
O1	O	1.195848	0.062546	0.090684
O2	O	0.933326	0.062559	0.101487
O3	O	1.072176	0.062543	-0.005020
O4	O	1.056998	0.062562	0.197190
O5	O	1.072161	-0.062645	-0.005022
O6	O	0.933311	-0.062629	0.101484
O7	O	1.195832	-0.062643	0.090681
Cu8	Cu	1.064570	-0.074067	0.096083
Cu9	Cu	1.064588	0.073983	0.096086
O10	O	1.056982	-0.062626	0.197188
C11	C	0.899733	-0.000033	0.100996
C12	C	0.799657	-0.000029	0.099529
N13	N	1.064564	-0.178197	0.096080
C14	C	1.126086	-0.782493	0.048935
C15	C	1.126087	-0.703691	0.048936
C16	C	1.064589	-0.664286	0.096079
C17	C	1.003100	-0.703689	0.143236
C18	C	1.003106	-0.782489	0.143238
C19	C	0.982439	-0.539449	0.105072
C20	C	0.982432	-0.460650	0.105065
C21	C	1.064569	-0.421239	0.096078
C22	C	1.146718	-0.460637	0.087083
C23	C	1.146724	-0.539437	0.087084
C24	C	1.064575	-0.578840	0.096083
C25	C	1.126060	-0.296400	0.048929
C26	C	1.126062	-0.217597	0.048936
C27	C	1.003067	-0.217596	0.143232
C28	C	1.003072	-0.296398	0.143229
C29	C	1.064568	-0.335795	0.096074
C30	C	0.387521	-0.000052	0.030062
C31	C	0.365516	-0.000039	0.156594
C32	C	0.459542	-0.000037	0.157973
C33	C	0.517562	-0.000041	0.095395
C34	C	0.481556	-0.000047	0.031439
C35	C	0.495555	-0.000023	0.221928
C36	C	0.589586	-0.000019	0.223310
C37	C	0.647608	-0.000029	0.160732
C38	C	0.611597	-0.000036	0.096773
C39	C	0.669617	-0.000040	0.034195
C40	C	0.633607	-0.000052	-0.029765
C41	C	0.539578	-0.000056	-0.031139
C42	C	0.741637	-0.000025	0.162107
C43	C	0.763651	-0.000035	0.035573
C44	C	1.229426	-0.000048	0.091172
C45	C	1.329501	-0.000048	0.092639
C46	C	1.071681	-0.000052	-0.030899
C47	C	1.070219	-0.000054	-0.108008
N48	N	1.064601	0.178114	0.096083
C49	C	1.069544	0.068187	-0.144219
C50	C	1.068157	0.068192	-0.216670
C51	C	1.067463	-0.000046	-0.252908
C52	C	1.068132	-0.068296	-0.216688
C53	C	1.069510	-0.068299	-0.144237
C54	C	1.118078	-0.052324	-0.372970
C55	C	1.116705	-0.052317	-0.445420
C56	C	1.063208	-0.000038	-0.476369
C57	C	1.011095	0.052248	-0.434860
C58	C	1.012473	0.052244	-0.362410
C59	C	1.065968	-0.000050	-0.331468
C60	C	1.061029	0.068214	-0.591139
C61	C	1.059636	0.068217	-0.663591
C62	C	1.059620	-0.068273	-0.663608
C63	C	1.061003	-0.068274	-0.591157
C64	C	1.061712	-0.000029	-0.554927
C65	C	1.057477	-0.000030	0.223067
C66	C	1.058940	-0.000023	0.300176
H67	H	1.176161	-0.814568	0.010540
H68	H	0.448309	-0.000012	0.272875
Br69	Br	0.712359	-0.000049	-0.114688
Br70	Br	0.638448	-0.000002	0.310110
Br71	Br	0.938484	0.123203	-0.476852
Br72	Br	0.790505	0.000001	0.248901
Br73	Br	1.070502	0.160805	-0.095054
H74	H	1.213602	-0.428550	0.079770
Br75	Br	1.067239	0.160811	-0.265825
H76	H	0.510250	-0.000084	-0.083212
Br77	Br	1.209538	-0.650219	-0.015055
Br78	Br	1.209519	-0.164130	-0.015050
Br79	Br	1.058668	-0.160885	-0.712779
Br80	Br	1.190712	-0.123264	-0.330978
H81	H	0.970040	0.094816	-0.328617
Br82	Br	1.067178	-0.160906	-0.265865
H83	H	1.070055	-0.123871	-0.114754
Br84	Br	0.338655	-0.000076	-0.056737
Br85	Br	0.286775	-0.000020	0.241516
H86	H	1.061600	0.123783	-0.561639
Br87	Br	1.058711	0.160837	-0.712736
Br88	Br	1.061914	-0.160892	-0.542009
H89	H	0.915541	-0.428579	0.112382
Br90	Br	0.919623	-0.349867	0.207217
Br91	Br	1.258205	-0.592903	0.074883
Br92	Br	1.209519	-0.349870	-0.015064
Br93	Br	0.919614	-0.164124	0.207220
H94	H	0.915548	-0.571531	0.112394
Br95	Br	0.919643	-0.650213	0.207222
Br96	Br	1.187435	-0.123271	-0.501745
Br97	Br	0.842387	-0.000049	-0.049359
Br98	Br	0.919658	-0.835956	0.207230
