data_functionalizedCrystal
_audit_creation_method	'MofGen! by Chris Wilmer'
_symmetry_space_group_name_H-M	'P1'
_symmetry_Int_Tables_number	1
_symmetry_cell_setting	triclinic
loop_
_symmetry_equiv_pos_as_xyz
  x,y,z
_cell_length_a	6.817900
_cell_length_b	11.102210
_cell_length_c	10.943624
_cell_angle_alpha	91.861509
_cell_angle_beta	108.838799
_cell_angle_gamma	108.604261
loop_
_atom_site_label
_atom_site_type_symbol
_atom_site_fract_x
_atom_site_fract_y
_atom_site_fract_z
V1	V	-4.114273	-0.175805	-0.402548
O2	O	-4.073263	0.008482	-0.394888
O3	O	-4.091022	-0.348625	-0.399792
O4	O	-4.092255	-0.173086	-0.578115
O5	O	-4.072022	-0.168272	-0.215331
V6	V	-4.591224	-0.153764	-0.380156
O7	O	-4.389948	-0.224154	-0.451668
O8	O	-4.765746	-0.105415	-0.331037
O9	O	-4.391268	0.019056	-0.382912
O10	O	-4.749631	-0.338051	-0.387816
O11	O	-4.750872	-0.161297	-0.567373
O12	O	-4.390036	-0.156483	-0.204589
C13	C	-3.941288	-0.390755	-0.393441
C14	C	-4.003740	-0.532038	-0.392358
C15	C	-4.030815	-0.713041	-0.272617
C16	C	-3.972110	-0.580289	-0.273620
C17	C	-4.094060	-0.616546	-0.510101
C18	C	-4.152749	-0.749296	-0.509096
C19	C	-3.942858	-0.166836	-0.620908
C20	C	-4.006305	-0.165756	-0.764434
C21	C	-3.851186	-0.158485	-0.841582
C22	C	-4.039794	-0.266415	-0.947570
C23	C	-3.930776	-0.055914	-0.914187
C24	C	-4.194124	-0.273788	-0.868546
C25	C	-4.085026	-0.063191	-0.835139
C26	C	-4.273770	-0.171152	-0.941097
C27	C	-4.204345	0.061179	-0.389260
C28	C	-4.121133	0.202460	-0.390351
C29	C	-4.202774	-0.162737	-0.161790
C30	C	-4.118564	-0.163811	-0.018262
H31	H	-4.021335	-0.352331	-0.996517
H32	H	-4.103400	0.022729	-0.786157
H33	H	-4.304866	-0.365969	-0.848000
H34	H	-3.672021	-0.153273	-0.798133
O35	O	-3.884270	-0.498026	-0.159368
C36	C	-3.839291	-0.370512	-0.185711
H37	H	-3.819740	-0.365712	-0.285224
H38	H	-3.981736	-0.337673	-0.186067
C39	C	-3.648157	-0.287964	0.042641
C40	C	-3.624126	-0.282066	-0.079577
H41	H	-3.515440	-0.233403	0.108112
H42	H	-3.678467	-0.373872	0.060391
H43	H	-3.766869	-0.260600	0.042326
H44	H	-3.505435	-0.309444	-0.079265
H45	H	-3.593791	-0.196160	-0.097324
H46	H	-4.119797	-0.577249	-0.606779
H47	H	-4.453047	-0.176534	-0.984342
O48	O	-3.798571	0.054040	-0.938668
C49	C	-3.644218	0.129524	-0.819625
H50	H	-3.710931	0.102245	-0.737525
H51	H	-3.481359	0.111848	-0.797976
C52	C	-3.523549	0.306211	-0.930575
C53	C	-3.605497	0.272714	-0.829740
H54	H	-3.499654	0.394538	-0.936814
H55	H	-3.627533	0.255355	-1.010777
H56	H	-3.387842	0.291471	-0.912521
H57	H	-3.741214	0.287439	-0.847802
H58	H	-3.501534	0.323576	-0.749540
O59	O	-4.000254	-0.759762	-0.157199
C60	C	-4.123728	-0.722464	-0.091647
H61	H	-4.156759	-0.633285	-0.128041
H62	H	-4.287664	-0.803994	-0.111752
C63	C	-3.951964	-0.801584	0.100979
C64	C	-3.992518	-0.692047	0.056287
H65	H	-3.871035	-0.782827	0.192233
H66	H	-3.868783	-0.826717	0.056815
H67	H	-4.088590	-0.869516	0.084213
H68	H	-3.855894	-0.624123	0.073039
H69	H	-4.075673	-0.666901	0.100458
O70	O	-4.240436	-0.831563	-0.623349
C71	C	-4.285499	-0.959076	-0.596997
H72	H	-4.177180	-0.959373	-0.493006
H73	H	-4.467032	-1.003301	-0.607982
C74	C	-4.368859	-1.037856	-0.821571
C75	C	-4.235807	-1.038222	-0.693851
H76	H	-4.338218	-1.086680	-0.881318
H77	H	-4.338509	-0.951949	-0.839327
H78	H	-4.520126	-1.074707	-0.830707
H79	H	-4.084546	-1.001356	-0.684712
H80	H	-4.266132	-1.124125	-0.676096
