data_functionalizedCrystal
_audit_creation_method	'MofGen! by Chris Wilmer'
_symmetry_space_group_name_H-M	'P1'
_symmetry_Int_Tables_number	1
_symmetry_cell_setting	triclinic
loop_
_symmetry_equiv_pos_as_xyz
  x,y,z
_cell_length_a	23.532416
_cell_length_b	14.519709
_cell_length_c	22.610064
_cell_angle_alpha	89.999219
_cell_angle_beta	89.989806
_cell_angle_gamma	96.733738
loop_
_atom_site_label
_atom_site_type_symbol
_atom_site_fract_x
_atom_site_fract_y
_atom_site_fract_z
O1	O	0.755770	-0.111979	-0.049133
O2	O	1.255770	0.388021	0.450867
O3	O	0.589980	-0.128168	-0.049146
O4	O	1.089980	0.371832	0.450854
O5	O	0.677271	0.014217	-0.049134
O6	O	1.177271	0.514217	0.450866
O7	O	0.668480	-0.254364	-0.049145
O8	O	1.168480	0.245636	0.450855
O9	O	0.677246	0.014200	0.049235
O10	O	1.177246	0.514200	0.549235
O11	O	0.589956	-0.128184	0.049223
O12	O	1.089956	0.371816	0.549223
O13	O	0.755745	-0.111995	0.049236
O14	O	1.255745	0.388005	0.549236
Zn15	Zn	0.672847	-0.120092	0.064848
Zn16	Zn	1.172847	0.379908	0.564848
Zn17	Zn	0.672879	-0.120071	-0.064758
Zn18	Zn	1.172879	0.379929	0.435242
O19	O	0.668455	-0.254380	0.049224
O20	O	1.168455	0.245620	0.549224
C21	C	0.568750	-0.127763	0.000037
C22	C	1.068750	0.372237	0.500037
C23	C	0.505528	-0.126519	0.000032
C24	C	1.005528	0.373481	0.500032
C25	C	0.776975	-0.112401	0.000052
C26	C	1.276975	0.387599	0.500052
C27	C	0.840198	-0.113644	0.000053
C28	C	1.340198	0.386356	0.500053
C29	C	0.676849	0.048564	0.000051
C30	C	1.176849	0.548564	0.500051
C31	C	0.675621	0.150930	0.000051
C32	C	1.175621	0.650930	0.500051
C33	C	1.113458	-0.118925	0.053671
C34	C	1.613458	0.381075	0.553671
C35	C	1.054052	-0.117774	0.053672
C36	C	1.554052	0.382226	0.553672
O37	O	1.023317	-0.117154	0.099274
O38	O	1.523317	0.382846	0.599274
N39	N	1.024357	-0.117195	0.000051
N40	N	1.524357	0.382805	0.500051
C41	C	1.054071	-0.117758	-0.053575
C42	C	1.554071	0.382242	0.446425
O43	O	1.023358	-0.117159	-0.099184
O44	O	1.523358	0.382841	0.400816
C45	C	1.113476	-0.118902	-0.053576
C46	C	1.613476	0.381098	0.446424
C47	C	1.143167	-0.119490	0.000049
C48	C	1.643167	0.380510	0.500049
C49	C	1.143149	-0.119512	0.107292
C50	C	1.643149	0.380488	0.607292
C51	C	1.202551	-0.120665	0.107290
C52	C	1.702551	0.379335	0.607290
C53	C	1.232260	-0.121230	0.053668
C54	C	1.732260	0.378770	0.553668
C55	C	1.202569	-0.120643	0.000048
C56	C	1.702569	0.379357	0.500048
C57	C	1.143189	-0.119459	-0.107201
C58	C	1.643189	0.380541	0.392799
C59	C	1.202598	-0.120603	-0.107197
C60	C	1.702598	0.379397	0.392803
C61	C	1.232290	-0.121191	-0.053572
C62	C	1.732290	0.378809	0.446428
C63	C	1.291679	-0.122362	-0.053576
C64	C	1.791679	0.377638	0.446424
N65	N	1.321375	-0.122941	0.000046
N66	N	1.821375	0.377059	0.500046
C67	C	1.291665	-0.122375	0.053667
C68	C	1.791665	0.377625	0.553667
C69	C	0.929317	-0.115353	-0.053570
C70	C	1.429317	0.384647	0.446430
C71	C	0.869912	-0.114215	-0.053570
C72	C	1.369912	0.385785	0.446430
C73	C	0.869898	-0.114229	0.053678
C74	C	1.369898	0.385771	0.553678
C75	C	0.929303	-0.115373	0.053677
C76	C	1.429303	0.384627	0.553677
C77	C	0.959012	-0.115931	0.000052
C78	C	1.459012	0.384069	0.500052
C79	C	1.416412	-0.124797	0.053660
C80	C	1.916412	0.375203	0.553660
C81	C	1.475818	-0.125953	0.053654
C82	C	1.975818	0.374047	0.553654
C83	C	1.475828	-0.125935	-0.053593
C84	C	1.975828	0.374065	0.446407
C85	C	1.416426	-0.124783	-0.053587
C86	C	1.916426	0.375217	0.446413
C87	C	1.386720	-0.124211	0.000044
C88	C	1.886720	0.375789	0.500044
O89	O	1.322453	-0.122979	-0.099154
O90	O	1.822453	0.377021	0.400846
O91	O	1.322386	-0.122962	0.099269
O92	O	1.822386	0.377038	0.599269
C93	C	0.668877	-0.288727	0.000038
C94	C	1.168877	0.211273	0.500038
C95	C	0.670105	-0.391094	0.000034
C96	C	1.170105	0.108906	0.500034
N97	N	0.672829	-0.120106	0.153300
N98	N	1.172829	0.379894	0.653300
C99	C	0.671101	0.525773	0.000035
C100	C	1.171101	1.025773	0.500035
C101	C	0.672356	0.421480	0.000040
C102	C	1.172356	0.921480	0.500040
C103	C	0.673361	0.338355	0.000044
C104	C	1.173361	0.838355	0.500044
C105	C	0.674616	0.234055	0.000047
C106	C	1.174616	0.734055	0.500047
N107	N	0.672902	-0.120050	-0.153210
N108	N	1.172902	0.379950	0.346790
C109	C	0.638270	-0.064413	0.438141
C110	C	1.138270	0.435587	0.938141
C111	C	0.638265	-0.064418	0.376221
C112	C	1.138265	0.435582	0.876221
O113	O	0.608858	-0.017069	0.344196
O114	O	1.108858	0.482931	0.844196
N115	N	0.672852	-0.120077	0.345252
N116	N	1.172852	0.379923	0.845252
C117	C	0.707452	-0.175728	0.376207
C118	C	1.207452	0.324272	0.876207
O119	O	0.736871	-0.223070	0.344180
O120	O	1.236871	0.276930	0.844180
C121	C	0.707460	-0.175718	0.438126
C122	C	1.207460	0.324282	0.938126
C123	C	0.672866	-0.120062	0.469091
C124	C	1.172866	0.379938	0.969091
C125	C	0.603679	-0.008762	0.469107
C126	C	1.103679	0.491238	0.969107
C127	C	0.603684	-0.008759	0.531022
C128	C	1.103684	0.491241	1.031022
C129	C	0.638280	-0.064407	0.561972
C130	C	1.138280	0.435593	1.061972
C131	C	0.672870	-0.120059	0.531007
C132	C	1.172870	0.379941	1.031007
C133	C	0.742062	-0.231363	0.469079
C134	C	1.242062	0.268637	0.969079
C135	C	0.742068	-0.231348	0.531002
C136	C	1.242068	0.268652	1.031002
C137	C	0.707473	-0.175692	0.561967
C138	C	1.207473	0.324308	1.061967
C139	C	0.707471	-0.175705	0.623873
C140	C	1.207471	0.324295	1.123873
N141	N	0.672883	-0.120046	0.654841
N142	N	1.172883	0.379954	1.154841
C143	C	0.638288	-0.064397	0.623891
C144	C	1.138288	0.435603	1.123891
C145	C	0.707433	-0.175743	0.246173
C146	C	1.207433	0.324257	0.746173
C147	C	0.707422	-0.175759	0.184256
C148	C	1.207422	0.324241	0.684256
C149	C	0.638236	-0.064448	0.184274
C150	C	1.138236	0.435552	0.684274
C151	C	0.638244	-0.064438	0.246193
C152	C	1.138244	0.435562	0.746193
C153	C	0.672845	-0.120085	0.277142
C154	C	1.172845	0.379915	0.777142
C155	C	0.638300	-0.064396	0.753919
C156	C	1.138300	0.435604	1.253919
C157	C	0.638306	-0.064401	0.815840
C158	C	1.138306	0.435599	1.315840
C159	C	0.707495	-0.175708	0.815816
C160	C	1.207495	0.324292	1.315816
C161	C	0.707487	-0.175707	0.753900
C162	C	1.207487	0.324293	1.253900
C163	C	0.672888	-0.120044	0.722953
C164	C	1.172888	0.379956	1.222953
O165	O	0.736864	-0.223027	0.655937
O166	O	1.236864	0.276973	1.155937
O167	O	0.608879	-0.017054	0.655926
O168	O	1.108879	0.482946	1.155926
H169	H	1.392232	-0.124339	0.097332
H170	H	1.892232	0.375661	0.597332
N171	N	1.386085	-0.124198	-0.108358
N172	N	1.886085	0.375802	0.391642
N173	N	1.347760	-0.188562	-0.120327
N174	N	1.847760	0.311438	0.379673
H175	H	1.326335	-0.188143	-0.159009
H176	H	1.826335	0.311857	0.340991
N177	N	0.839544	-0.113624	0.108452
N178	N	1.339544	0.386376	0.608452
N179	N	0.851342	-0.048738	0.144356
N180	N	1.351342	0.451262	0.644356
H181	H	0.829902	-0.048310	0.183038
H182	H	1.329902	0.451690	0.683038
H183	H	0.610074	-0.019118	0.271401
H184	H	1.110074	0.480882	0.771401
N185	N	0.742829	-0.232535	0.722257
N186	N	1.242829	0.267465	1.222257
N187	N	0.780439	-0.196193	0.687701
N188	N	1.280439	0.303807	1.187701
H189	H	0.805405	-0.236317	0.665353
H190	H	1.305405	0.263683	1.165353
H191	H	1.226784	-0.121058	-0.150867
H192	H	1.726784	0.378942	0.349133
H193	H	0.770234	-0.276682	0.443877
H194	H	1.270234	0.223318	0.943877
N195	N	0.742827	-0.232546	0.847446
N196	N	1.242827	0.267454	1.347446
N197	N	0.742825	-0.232523	0.902730
N198	N	1.242825	0.267477	1.402730
H199	H	0.767782	-0.272660	0.925072
H200	H	1.267782	0.227340	1.425072
H201	H	0.610066	-0.019135	0.159063
H202	H	1.110066	0.480865	0.659063
N203	N	0.839576	-0.113632	-0.108341
N204	N	1.339576	0.386368	0.391659
N205	N	0.801253	-0.178000	-0.120310
N206	N	1.301253	0.322000	0.379690
H207	H	0.779829	-0.177585	-0.158993
H208	H	1.279829	0.322415	0.341007
H209	H	1.499990	-0.126435	0.097324
H210	H	1.999990	0.373565	0.597324
H211	H	0.953501	-0.115816	-0.097241
H212	H	1.453501	0.384184	0.402759
H213	H	1.226721	-0.121138	0.150957
H214	H	1.726721	0.378862	0.650957
H215	H	1.118966	-0.119049	0.150959
H216	H	1.618966	0.380951	0.650959
H217	H	1.500028	-0.126399	-0.097251
H218	H	2.000028	0.373601	0.402749
N219	N	0.742771	-0.232591	0.277796
N220	N	1.242771	0.267409	0.777796
N221	N	0.780392	-0.196279	0.312335
N222	N	1.280392	0.303721	0.812335
H223	H	0.805349	-0.236427	0.334668
H224	H	1.305349	0.263573	0.834668
H225	H	0.575507	0.036559	0.443914
H226	H	1.075507	0.536559	0.943914
N227	N	0.959620	-0.115986	0.108459
N228	N	1.459620	0.384014	0.608459
N229	N	0.933078	-0.115493	0.156329
N230	N	1.433078	0.384507	0.656329
H231	H	0.954486	-0.115929	0.195021
H232	H	1.454486	0.384071	0.695021
H233	H	0.610133	-0.019080	0.841049
H234	H	1.110133	0.480920	1.341049
N235	N	0.777420	-0.288192	0.562605
N236	N	1.277420	0.211808	1.062605
N237	N	0.808303	-0.337873	0.534945
N238	N	1.308303	0.162127	1.034945
H239	H	0.833271	-0.378021	0.557263
H240	H	1.333271	0.121979	1.057263
N241	N	0.742754	-0.232630	0.152638
N242	N	1.242754	0.267370	0.652638
N243	N	0.773637	-0.282312	0.180287
N244	N	1.273637	0.217688	0.680287
H245	H	0.798594	-0.322476	0.157960
H246	H	1.298594	0.177524	0.657960
H247	H	0.610126	-0.019070	0.728729
H248	H	1.110126	0.480930	1.228729
H249	H	1.119025	-0.118979	-0.150869
H250	H	1.619025	0.381021	0.349131
N251	N	0.568344	0.048100	0.562639
N252	N	1.068344	0.548100	1.062639
N253	N	0.537462	0.097780	0.534987
N254	N	1.037462	0.597780	1.034987
H255	H	0.512502	0.137943	0.557312
H256	H	1.012502	0.637943	1.057312
