data_functionalizedCrystal
_audit_creation_method	'MofGen! by Chris Wilmer'
_symmetry_space_group_name_H-M	'P1'
_symmetry_Int_Tables_number	1
_symmetry_cell_setting	triclinic
loop_
_symmetry_equiv_pos_as_xyz
  x,y,z
_cell_length_a	14.971487
_cell_length_b	13.101039
_cell_length_c	14.971486
_cell_angle_alpha	93.366125
_cell_angle_beta	83.614266
_cell_angle_gamma	86.644460
loop_
_atom_site_label
_atom_site_type_symbol
_atom_site_fract_x
_atom_site_fract_y
_atom_site_fract_z
O1	O	-1.191851	0.085068	-0.111643
O2	O	-0.931453	0.085102	-0.125599
O3	O	-1.068631	0.085077	0.011579
O4	O	-1.054673	0.085093	-0.248820
O5	O	-1.058789	-0.085351	0.001720
O6	O	-0.921611	-0.085326	-0.135457
O7	O	-1.182009	-0.085360	-0.121501
Zn8	Zn	-1.050247	-0.112402	-0.130045
Zn9	Zn	-1.063215	0.112144	-0.117055
O10	O	-1.044831	-0.085335	-0.258679
C11	C	-0.893207	-0.000108	-0.129903
C12	C	-0.793911	-0.000095	-0.128032
C13	C	-0.736686	-0.000090	-0.208621
C14	C	-0.643386	-0.000103	-0.206858
C15	C	-0.607313	-0.000114	-0.124505
C16	C	-0.664545	-0.000122	-0.043910
C17	C	-0.757843	-0.000116	-0.045674
C18	C	-0.470082	-0.000131	-0.040240
C19	C	-0.376778	-0.000135	-0.038475
C20	C	-0.355625	-0.000118	-0.201423
C21	C	-0.448923	-0.000113	-0.203187
C22	C	-0.506149	-0.000119	-0.122592
N23	N	-1.041403	-0.265649	-0.138909
C24	C	-1.029371	-0.474690	-0.150977
C25	C	-1.084095	-0.525575	-0.096119
C26	C	-1.077400	-0.641893	-0.102834
C27	C	-1.036065	-0.358362	-0.144263
C28	C	-0.220255	-0.000142	-0.117195
C29	C	-0.319553	-0.000130	-0.119064
C30	C	-1.063086	-0.000137	0.039974
C31	C	-1.061215	-0.000136	0.139272
N32	N	-1.072065	0.265391	-0.108184
C33	C	-1.050376	-0.000119	-0.287074
C34	C	-1.052247	-0.000113	-0.386371
C35	C	-1.141803	-0.000147	0.196496
C36	C	-1.140041	-0.000137	0.289796
C37	C	-1.057689	-0.000122	0.325869
C38	C	-0.977094	-0.000108	0.268638
C39	C	-0.978858	-0.000111	0.175340
C40	C	-0.973423	-0.000103	0.463101
C41	C	-0.971659	-0.000102	0.556405
C42	C	-1.134606	-0.000129	0.577557
C43	C	-1.136370	-0.000132	0.484259
C44	C	-1.055775	-0.000120	0.427033
H45	H	-0.596796	-0.000098	-0.272482
O46	O	-1.145893	-0.473492	-0.033880
C47	C	-1.199684	-0.440813	0.123557
C48	C	-1.129636	-0.499778	0.053127
H49	H	-1.186576	-0.462060	0.193917
H50	H	-1.194218	-0.354909	0.118191
H51	H	-1.270162	-0.461872	0.110692
H52	H	-1.059126	-0.478805	0.065946
H53	H	-1.135181	-0.585668	0.058510
H54	H	-1.208864	-0.000165	0.167133
H55	H	-0.977498	-0.518477	-0.202983
O56	O	-0.900523	0.000035	0.119847
C57	C	-0.766924	0.088388	0.078283
C58	C	-0.855603	0.088331	0.141200
H59	H	-0.730589	0.159778	0.095512
H60	H	-0.722218	0.017120	0.087298
H61	H	-0.782350	0.088337	0.005410
H62	H	-0.840260	0.088417	0.214097
H63	H	-0.900282	0.159592	0.132107
H64	H	-1.200230	-0.000136	0.624155
H65	H	-1.205664	-0.000148	0.336385
O66	O	-0.300090	0.000063	-0.279730
C67	C	-0.258588	0.088342	-0.413377
C68	C	-0.321528	0.088269	-0.324715
H69	H	-0.275911	0.159638	-0.449782
H70	H	-0.185694	0.088396	-0.398027
H71	H	-0.267605	0.016993	-0.457993
H72	H	-0.312591	0.159605	-0.280056
H73	H	-0.394399	0.088162	-0.340131
H74	H	-0.907794	-0.000091	0.416510
O75	O	-0.629541	-0.000312	0.036101
C76	C	-0.614039	-0.088579	0.170831
C77	C	-0.653712	-0.088510	0.080231
H78	H	-0.633582	-0.159869	0.206546
H79	H	-0.537519	-0.088644	0.158303
H80	H	-0.641700	-0.017225	0.214749
H81	H	-0.626121	-0.159852	0.036268
H82	H	-0.730230	-0.088392	0.092827
O83	O	-1.216319	-0.000011	0.449119
C84	C	-1.317996	0.088300	0.361205
C85	C	-1.227420	0.088274	0.400930
H86	H	-1.327009	0.159681	0.322251
H87	H	-1.318792	0.017023	0.313877
H88	H	-1.375277	0.088245	0.418144
H89	H	-1.170089	0.088365	0.344051
H90	H	-1.226702	0.159544	0.448282
O91	O	-0.891589	-0.000027	0.591303
C92	C	-0.730152	-0.000023	0.560482
C93	C	-0.820769	-0.000091	0.520841
H94	H	-0.672868	-0.000097	0.503532
H95	H	-0.729330	0.071322	0.607723
H96	H	-0.721173	-0.071326	0.599545
H97	H	-0.829806	0.071163	0.481735
H98	H	-0.821549	-0.071484	0.473649
O99	O	-0.484013	0.000096	-0.283153
C100	C	-0.582188	0.088407	-0.374570
C101	C	-0.542504	0.088304	-0.283977
H102	H	-0.629500	0.159704	-0.375260
H103	H	-0.525295	0.088480	-0.431897
H104	H	-0.621195	0.017060	-0.383599
H105	H	-0.503506	0.159639	-0.274861
H106	H	-0.599436	0.088177	-0.226698
H107	H	-0.804436	-0.000119	0.019949
H108	H	-0.766049	-0.000080	-0.275682
O109	O	-0.341844	-0.000015	0.041582
C110	C	-0.336407	0.088283	0.186481
C111	C	-0.376055	0.088262	0.095866
H112	H	-0.364036	0.159658	0.230388
H113	H	-0.355878	0.017000	0.222246
H114	H	-0.259895	0.088236	0.173864
H115	H	-0.452571	0.088345	0.108403
H116	H	-0.356513	0.159538	0.060129
O117	O	-0.897032	-0.000227	0.303562
C118	C	-0.752141	-0.088526	0.308959
C119	C	-0.842766	-0.088504	0.269329
H120	H	-0.708249	-0.159901	0.281313
H121	H	-0.716369	-0.017243	0.289491
H122	H	-0.764744	-0.088478	0.385473
H123	H	-0.830243	-0.088588	0.192813
H124	H	-0.878510	-0.159780	0.288868
H125	H	-0.516674	-0.000138	0.025390
