data_functionalizedCrystal
_audit_creation_method	'MofGen! by Chris Wilmer'
_symmetry_space_group_name_H-M	'P1'
_symmetry_Int_Tables_number	1
_symmetry_cell_setting	triclinic
loop_
_symmetry_equiv_pos_as_xyz
  x,y,z
_cell_length_a	6.817900
_cell_length_b	10.992421
_cell_length_c	10.943624
_cell_angle_alpha	91.800796
_cell_angle_beta	108.838799
_cell_angle_gamma	108.764763
loop_
_atom_site_label
_atom_site_type_symbol
_atom_site_fract_x
_atom_site_fract_y
_atom_site_fract_z
V1	V	-4.115111	-0.177727	-0.402533
O2	O	-4.073223	0.008575	-0.394889
O3	O	-4.092684	-0.352436	-0.399762
O4	O	-4.093080	-0.174978	-0.578100
O5	O	-4.072824	-0.170111	-0.215317
V6	V	-4.591957	-0.155445	-0.380143
O7	O	-4.391017	-0.226605	-0.451648
O8	O	-4.766248	-0.106567	-0.331028
O9	O	-4.391177	0.019264	-0.382914
O10	O	-4.751242	-0.341747	-0.387787
O11	O	-4.751641	-0.163061	-0.567359
O12	O	-4.390782	-0.158194	-0.204576
C13	C	-3.943150	-0.395027	-0.393408
C14	C	-4.006276	-0.537854	-0.392312
C15	C	-3.873921	-0.733142	-0.383483
C16	C	-3.807840	-0.584497	-0.384111
C17	C	-4.076627	-0.576499	-0.271911
C18	C	-4.140860	-0.725043	-0.270636
C19	C	-4.272894	-0.763604	-0.517452
C20	C	-4.203846	-0.615090	-0.520065
C21	C	-3.943653	-0.168660	-0.620893
C22	C	-4.007095	-0.167568	-0.764420
C23	C	-3.851941	-0.160217	-0.841568
C24	C	-4.041064	-0.269328	-0.947547
C25	C	-3.931042	-0.056525	-0.914182
C26	C	-4.195429	-0.276781	-0.868522
C27	C	-4.085327	-0.063882	-0.835133
C28	C	-4.274586	-0.173023	-0.941083
C29	C	-4.204054	0.061848	-0.389265
C30	C	-4.120168	0.204674	-0.390368
C31	C	-4.203550	-0.164516	-0.161776
C32	C	-4.119345	-0.165601	-0.018248
H33	H	-3.935835	-0.522269	-0.177332
C34	C	-3.780890	0.069237	-0.942181
C35	C	-3.529150	0.100148	-0.896645
C36	C	-3.378984	0.225902	-0.924641
C37	C	-3.480558	0.320744	-0.998174
C38	C	-3.732311	0.289835	-1.043715
C39	C	-3.882477	0.164082	-1.015719
H40	H	-3.453947	0.029938	-0.842207
H41	H	-3.192619	0.248782	-0.890929
H42	H	-3.369396	0.413835	-1.018899
H43	H	-3.807514	0.360046	-1.098153
H44	H	-4.068842	0.141201	-1.049432
C45	C	-3.990898	-0.748728	-0.141499
C46	C	-3.840410	-0.826845	-0.143598
C47	C	-3.690437	-0.850522	-0.014460
C48	C	-3.690951	-0.796082	0.116777
C49	C	-3.841444	-0.717960	0.118880
C50	C	-3.991418	-0.694283	-0.010258
H51	H	-3.840025	-0.867149	-0.240751
H52	H	-3.579032	-0.908354	-0.016018
H53	H	-3.579932	-0.813610	0.212372
H54	H	-3.841830	-0.677656	0.216034
H55	H	-4.102822	-0.636451	-0.008700
H56	H	-4.452757	-0.804720	-0.523763
C57	C	-4.406258	-0.574306	-0.538227
C58	C	-4.395643	-0.469690	-0.436919
C59	C	-4.598062	-0.428909	-0.455068
C60	C	-4.811096	-0.492745	-0.574525
C61	C	-4.821719	-0.597367	-0.675842
C62	C	-4.619300	-0.638148	-0.657693
H63	H	-4.237936	-0.422429	-0.348482
H64	H	-4.590197	-0.351461	-0.380066
H65	H	-4.960939	-0.462557	-0.587960
H66	H	-4.979426	-0.644628	-0.764279
H67	H	-4.627165	-0.715596	-0.732695
H68	H	-3.750901	-0.558726	-0.470142
H69	H	-3.672752	-0.154949	-0.798120
H70	H	-3.848281	-0.779555	-0.468981
H71	H	-3.757931	-0.753709	-0.291834
H72	H	-4.023014	-0.356183	-0.996487
H73	H	-3.658963	-0.532063	-0.292386
H74	H	-4.317071	-0.765926	-0.270446
H75	H	-4.306610	-0.369970	-0.847968
H76	H	-4.266751	-0.813113	-0.608557
H77	H	-4.222261	-0.546263	-0.273299
H78	H	-4.155037	-0.591186	-0.609143
H79	H	-4.453889	-0.178464	-0.984327
H80	H	-4.103292	0.022977	-0.786159
