data_functionalizedCrystal
_audit_creation_method	'MofGen! by Chris Wilmer'
_symmetry_space_group_name_H-M	'P1'
_symmetry_Int_Tables_number	1
_symmetry_cell_setting	triclinic
loop_
_symmetry_equiv_pos_as_xyz
  x,y,z
_cell_length_a	10.654550
_cell_length_b	9.065218
_cell_length_c	7.540329
_cell_angle_alpha	90.002155
_cell_angle_beta	89.998040
_cell_angle_gamma	95.249592
loop_
_atom_site_label
_atom_site_type_symbol
_atom_site_fract_x
_atom_site_fract_y
_atom_site_fract_z
O1	O	0.184155	-1.959390	-0.147487
O2	O	0.199261	-1.530023	-0.147489
O3	O	0.009008	-1.754578	-0.147477
O4	O	0.374408	-1.734835	-0.147499
O5	O	0.009010	-1.754568	0.147488
O6	O	0.199263	-1.530012	0.147476
O7	O	0.184158	-1.959380	0.147478
Cu8	Cu	0.191711	-1.744695	0.174410
Cu9	Cu	0.191708	-1.744707	-0.174421
O10	O	0.374411	-1.734824	0.147466
C11	C	-0.037795	-1.753124	0.000005
C12	C	-0.177255	-1.748786	0.000002
C13	C	0.197810	-1.475039	-0.000007
C14	C	0.193469	-1.311220	-0.000008
C15	C	0.185608	-2.014364	-0.000008
C16	C	0.189949	-2.178183	-0.000019
C17	C	-0.256217	-1.881001	0.000002
C18	C	-0.387254	-1.876917	-0.000019
C19	C	-0.360354	-1.608391	-0.000034
C20	C	-0.229320	-1.612477	-0.000025
C21	C	-0.582483	-2.032638	-0.103368
C22	C	-0.661450	-2.164860	-0.103337
C23	C	-0.630803	-2.284719	0.000031
C24	C	-0.521190	-2.272362	0.103411
C25	C	-0.442230	-2.140138	0.103397
C26	C	-0.472876	-2.020284	-0.000013
C27	C	-0.034090	-1.456766	0.103338
C28	C	0.044874	-1.324540	0.103336
C29	C	0.014230	-1.204668	-0.000021
C30	C	-0.095385	-1.217011	-0.103375
C31	C	-0.174348	-1.349236	-0.103373
C32	C	-0.143695	-1.469109	-0.000019
C33	C	0.421213	-1.736279	-0.000020
C34	C	0.560673	-1.740616	-0.000028
N35	N	0.191712	-1.744697	0.419758
N36	N	0.191710	-1.744708	0.580231
H37	H	-0.213831	-1.991993	0.000020
H38	H	0.134121	-1.314492	0.187515
N39	N	-0.779675	-2.178190	-0.214824
H40	H	-0.787106	-2.082200	-0.280331
H41	H	-0.775472	-2.261413	-0.303064
H42	H	-0.607439	-1.935054	-0.187564
N43	N	-0.324016	-2.126791	0.214889
H44	H	-0.316583	-2.222784	0.280390
H45	H	-0.248175	-2.104975	0.135624
N46	N	-0.488152	-2.401629	0.214943
H47	H	-0.554806	-2.487265	0.199269
H48	H	-0.403698	-2.432693	0.176343
N49	N	-0.416506	-1.461376	-0.000031
H50	H	-0.387820	-1.403393	-0.109374
H51	H	-0.511488	-1.478967	0.000039
N52	N	-0.292580	-1.362556	-0.214842
H53	H	-0.300017	-1.266554	-0.280323
H54	H	-0.288373	-1.445761	-0.303105
H55	H	-0.695107	-2.392377	0.000053
H56	H	-0.120354	-1.119388	-0.187501
N57	N	-0.001031	-1.586069	0.214806
H58	H	0.080385	-1.558181	0.280290
H59	H	-0.070766	-1.612588	0.303065
H60	H	0.078524	-1.096996	0.000009
