data_functionalizedCrystal
_audit_creation_method	'MofGen! by Chris Wilmer'
_symmetry_space_group_name_H-M	'P1'
_symmetry_Int_Tables_number	1
_symmetry_cell_setting	triclinic
loop_
_symmetry_equiv_pos_as_xyz
  x,y,z
_cell_length_a	13.635800
_cell_length_b	17.296766
_cell_length_c	14.899797
_cell_angle_alpha	90.142509
_cell_angle_beta	135.074580
_cell_angle_gamma	77.378987
loop_
_atom_site_label
_atom_site_type_symbol
_atom_site_fract_x
_atom_site_fract_y
_atom_site_fract_z
V1	V	2.254402	-0.111103	0.409043
O2	O	2.235277	0.005336	0.388101
O3	O	2.236489	-0.220296	0.418897
O4	O	2.331680	-0.109395	0.581668
O5	O	2.139427	-0.106332	0.224203
V6	V	2.482252	-0.097176	0.385397
O7	O	2.415547	-0.141655	0.460910
O8	O	2.546206	-0.066624	0.333530
O9	O	2.388562	0.012017	0.375543
O10	O	2.560076	-0.213615	0.406339
O11	O	2.655926	-0.101946	0.570237
O12	O	2.293371	-0.098883	0.212772
V13	V	2.754402	-0.111103	0.409043
O14	O	2.735277	0.005336	0.388101
O15	O	2.736489	-0.220296	0.418897
O16	O	2.831680	-0.109395	0.581668
O17	O	2.639427	-0.106332	0.224203
V18	V	2.982252	-0.097176	0.385397
O19	O	2.915547	-0.141655	0.460910
O20	O	3.046206	-0.066624	0.333530
O21	O	2.888562	0.012017	0.375543
O22	O	3.060076	-0.213615	0.406339
O23	O	3.155926	-0.101946	0.570237
O24	O	2.793371	-0.098883	0.212772
C25	C	2.157235	-0.246915	0.415709
C26	C	2.183909	-0.336182	0.424917
C27	C	2.107062	-0.366651	0.311538
C28	C	2.132137	-0.450527	0.320195
C29	C	2.234053	-0.503932	0.442231
C30	C	2.310909	-0.473458	0.555618
C31	C	2.285840	-0.389584	0.546961
C32	C	2.314222	-0.757753	0.474259
C33	C	2.339282	-0.841633	0.482907
C34	C	2.160510	-0.818696	0.247482
C35	C	2.135443	-0.734821	0.238836
C36	C	2.212306	-0.704354	0.352224
C37	C	2.259683	-0.589668	0.451082
C38	C	2.186683	-0.618620	0.343372
C39	C	2.278660	-0.105449	0.623337
C40	C	2.382526	-0.104775	0.764543
C41	C	2.299485	0.038632	0.378728
C42	C	2.262435	0.127898	0.369528
C43	C	2.572857	-0.112800	0.778436
C44	C	2.716816	-0.116498	0.851720
C45	C	2.814400	-0.115864	0.984394
C46	C	2.768017	-0.111529	1.043784
C47	C	2.624059	-0.107831	0.970500
C48	C	2.526484	-0.108468	0.837825
C49	C	2.433727	-0.099800	0.956605
C50	C	2.336143	-0.100440	0.823933
C51	C	2.387344	-0.095465	1.015995
C52	C	2.243387	-0.091773	0.942713
C53	C	2.145801	-0.092408	0.810032
C54	C	2.192185	-0.096742	0.750649
C55	C	2.657235	-0.246915	0.415709
C56	C	2.683909	-0.336182	0.424917
C57	C	2.681545	-0.102831	1.171096
C58	C	2.577685	-0.103498	1.029889
C59	C	2.178059	-0.102832	0.171096
C60	C	2.063810	-0.103502	0.029889
C61	C	2.778660	-0.105449	0.623337
C62	C	2.882526	-0.104775	0.764543
C63	C	2.799485	0.038632	0.378728
C64	C	2.762435	0.127898	0.369528
C65	C	2.791532	-0.382197	0.436062
C66	C	2.816624	-0.466075	0.444734
C67	C	2.734085	-0.503935	0.442251
C68	C	2.626456	-0.457914	0.431109
C69	C	2.601372	-0.374039	0.422446
C70	C	2.827308	0.173912	0.358386
C71	C	2.792492	0.257790	0.349721
C72	C	2.692810	0.295650	0.352207
C73	C	2.627929	0.249630	0.363346
C74	C	2.662738	0.165755	0.372002
C75	C	1.972125	0.043574	-0.023348
C76	C	1.872609	0.116796	-0.116303
C77	C	1.765269	0.116164	-0.248978
C78	C	1.757449	0.042303	-0.288698
C79	C	1.856965	-0.030918	-0.195743
C80	C	1.964300	-0.030279	-0.063067
C81	C	1.948655	-0.177993	-0.142507
C82	C	2.055991	-0.177363	-0.009831
C83	C	1.940836	-0.251853	-0.182227
C84	C	2.040346	-0.325077	-0.089271
C85	C	2.147690	-0.324442	0.043411
C86	C	2.155506	-0.250584	0.083124
H87	H	2.024063	-0.323172	0.212163
Cl88	Cl	2.874074	0.315626	0.335723
H89	H	2.052461	-0.691342	0.139461
Cl90	Cl	2.030514	-0.417919	-0.139214
H91	H	2.609913	0.128295	0.381085
H92	H	2.103708	-0.575135	0.244011
H93	H	2.112741	-0.097264	0.642622
H94	H	2.028574	-0.089377	0.750364
H95	H	2.513729	-0.336578	0.413365
H96	H	2.546764	0.280469	0.365367
Cl97	Cl	2.510023	-0.094668	1.182786
H98	H	2.908479	0.143098	0.356362
Cl99	Cl	2.649066	0.401095	0.341325
H100	H	2.348430	-0.364778	0.639287
H101	H	2.059511	0.044096	0.084682
H102	H	2.754566	-0.120025	0.803348
Cl103	Cl	2.995375	-0.120505	1.076523
H104	H	2.342665	-0.633160	0.550444
H105	H	2.858747	-0.351381	0.438078
H106	H	2.904263	-0.503533	0.453803
H107	H	1.878991	0.176932	-0.083948
Cl108	Cl	1.640185	0.208215	-0.365842
Cl109	Cl	2.467495	-0.908775	0.636341
H110	H	1.670054	0.041795	-0.396733
Cl111	Cl	1.805905	-0.252647	-0.349021
H112	H	2.376797	-0.732958	0.566586
Cl113	Cl	2.522698	-0.505522	0.427981
H114	H	2.069561	-0.475330	0.227870
Cl115	Cl	2.063898	-0.857003	0.104948
H116	H	2.228718	-0.384068	0.119091
Cl117	Cl	2.290438	-0.249780	0.249914
H118	H	2.493413	-0.113327	0.670411
H119	H	2.754524	-0.572233	0.449306
H120	H	2.847479	-0.111003	1.151811
Cl121	Cl	2.185093	-0.086320	1.017380
Cl122	Cl	2.439040	-0.540597	0.709037
