data_functionalizedCrystal
_audit_creation_method	'MofGen! by Chris Wilmer'
_symmetry_space_group_name_H-M	'P1'
_symmetry_Int_Tables_number	1
_symmetry_cell_setting	triclinic
loop_
_symmetry_equiv_pos_as_xyz
  x,y,z
_cell_length_a	18.215407
_cell_length_b	18.215405
_cell_length_c	18.215399
_cell_angle_alpha	90.027541
_cell_angle_beta	90.019833
_cell_angle_gamma	90.023180
loop_
_atom_site_label
_atom_site_type_symbol
_atom_site_fract_x
_atom_site_fract_y
_atom_site_fract_z
Zn1	Zn	1.125083	-0.292983	0.416118
Zn2	Zn	1.625083	0.207017	0.916118
Zn3	Zn	1.124996	-0.416054	0.293053
Zn4	Zn	1.624996	0.083946	0.793053
Zn5	Zn	1.002016	-0.293007	0.293065
Zn6	Zn	1.502016	0.206993	0.793065
Zn7	Zn	1.001986	-0.416013	0.416077
Zn8	Zn	1.501986	0.083987	0.916077
O9	O	1.063520	-0.354514	0.354578
O10	O	1.563520	0.145486	0.854578
O11	O	1.228056	-0.309316	0.399805
O12	O	1.728056	0.190684	0.899805
O13	O	1.108658	-0.399759	0.190070
O14	O	1.608658	0.100241	0.690070
O15	O	1.018389	-0.190020	0.309411
O16	O	1.518389	0.309980	0.809411
O17	O	1.227992	-0.399736	0.309389
O18	O	1.727992	0.100264	0.809389
O19	O	1.108807	-0.190002	0.399817
O20	O	1.608807	0.309998	0.899817
O21	O	1.018305	-0.309357	0.190079
O22	O	1.518305	0.190643	0.690079
O23	O	0.899027	-0.309317	0.309372
O24	O	1.399027	0.190683	0.809372
O25	O	1.018339	-0.399666	0.519067
O26	O	1.518339	0.100334	1.019067
O27	O	0.899006	-0.399689	0.399748
O28	O	1.399006	0.100311	0.899748
O29	O	1.108778	-0.309276	0.519097
O30	O	1.608778	0.190724	1.019097
O31	O	1.108630	-0.519033	0.309350
O32	O	1.608630	-0.019033	0.809350
O33	O	1.018255	-0.519003	0.399736
O34	O	1.518255	-0.019003	0.899736
C35	C	0.872314	-0.354502	0.354557
C36	C	1.372314	0.145498	0.854557
C37	C	0.790515	-0.354514	0.354566
C38	C	1.290515	0.145486	0.854566
C39	C	0.602329	-0.401645	0.401566
C40	C	1.102329	0.098355	0.901566
C41	C	0.525470	-0.401647	0.401575
C42	C	1.025470	0.098353	0.901575
C43	C	0.525463	-0.307397	0.307607
C44	C	1.025463	0.192603	0.807607
C45	C	0.602321	-0.307392	0.307602
C46	C	1.102321	0.192608	0.807602
C47	C	0.640751	-0.354520	0.354580
C48	C	1.140751	0.145480	0.854580
C49	C	0.487035	-0.354528	0.354594
C50	C	0.987035	0.145472	0.854594
C51	C	0.403702	-0.354530	0.354604
C52	C	0.903702	0.145470	0.854604
C53	C	0.724090	-0.354517	0.354572
C54	C	1.224090	0.145483	0.854572
C55	C	1.063450	-0.545721	0.354553
C56	C	1.563450	-0.045721	0.854553
C57	C	1.063487	-0.627520	0.354567
C58	C	1.563487	-0.127520	0.854567
C59	C	1.110589	-0.815643	0.401705
C60	C	1.610589	-0.315643	0.901705
C61	C	1.110616	-0.892502	0.401719
C62	C	1.610616	-0.392502	0.901719
C63	C	1.016542	-0.892634	0.307497
C64	C	1.516542	-0.392634	0.807497
C65	C	1.016512	-0.815776	0.307488
C66	C	1.516512	-0.315776	0.807488
C67	C	1.063540	-0.777283	0.354590
C68	C	1.563540	-0.277283	0.854590
C69	C	1.063597	-0.930999	0.354614
C70	C	1.563597	-0.430999	0.854614
C71	C	1.063625	-1.014333	0.354628
C72	C	1.563625	-0.514333	0.854628
C73	C	1.063511	-0.693944	0.354577
C74	C	1.563511	-0.193944	0.854577
C75	C	1.255473	-0.354528	0.354600
C76	C	1.755473	0.145472	0.854600
C77	C	1.337272	-0.354533	0.354609
C78	C	1.837272	0.145467	0.854609
C79	C	1.063565	-0.354464	0.546531
C80	C	1.563565	0.145536	1.046531
C81	C	1.063584	-0.354442	0.628330
C82	C	1.563584	0.145558	1.128330
C83	C	1.063611	-0.162561	0.354620
C84	C	1.563611	0.337439	0.854620
C85	C	1.063650	-0.080763	0.354638
C86	C	1.563650	0.419237	0.854638
C87	C	1.063518	-0.354512	0.163372
C88	C	1.563518	0.145488	0.663372
C89	C	1.063641	-0.354326	0.081574
C90	C	1.563641	0.145674	0.581574
C91	C	1.110692	-0.307332	0.816541
C92	C	1.610692	0.192668	1.316541
C93	C	1.110701	-0.307311	0.893400
C94	C	1.610701	0.192689	1.393400
C95	C	1.016528	-0.401438	0.893358
C96	C	1.516528	0.098562	1.393358
C97	C	1.016516	-0.401455	0.816500
C98	C	1.516516	0.098545	1.316500
C99	C	1.063602	-0.354403	0.778094
C100	C	1.563602	0.145597	1.278094
C101	C	1.063623	-0.354365	0.931810
C102	C	1.563623	0.145635	1.431810
C103	C	1.063632	-0.354342	1.015144
C104	C	1.563632	0.145658	1.515144
C105	C	1.063592	-0.354425	0.694755
C106	C	1.563592	0.145575	1.194755
H107	H	0.633617	-0.440018	0.439820
H108	H	1.133617	0.059982	0.939820
H109	H	0.494190	-0.440020	0.439836
H110	H	0.994190	0.059980	0.939836
H111	H	1.148881	-0.784304	0.440060
H112	H	1.648881	-0.284304	0.940060
Cl113	Cl	1.169884	-0.248178	0.768261
Cl114	Cl	1.669884	0.251822	1.268261
Cl115	Cl	1.169763	-0.940723	0.460955
Cl116	Cl	1.669763	-0.440723	0.960955
Cl117	Cl	0.957354	-0.767548	0.248259
Cl118	Cl	1.457354	-0.267548	0.748259
H119	H	0.978193	-0.439748	0.924637
H120	H	1.478193	0.060252	1.424637
Cl121	Cl	0.957308	-0.460632	0.768163
Cl122	Cl	1.457308	0.039368	1.268163
Cl123	Cl	0.477145	-0.248156	0.248550
Cl124	Cl	0.977145	0.251844	0.748550
Cl125	Cl	0.650627	-0.248139	0.248535
Cl126	Cl	1.150627	0.251861	0.748535
Cl127	Cl	0.957424	-0.941030	0.248286
Cl128	Cl	1.457424	-0.441030	0.748286
H129	H	1.149046	-0.268979	0.924700
H130	H	1.649046	0.231021	1.424700
