data_functionalizedCrystal
_audit_creation_method	'MofGen! by Chris Wilmer'
_symmetry_space_group_name_H-M	'P1'
_symmetry_Int_Tables_number	1
_symmetry_cell_setting	triclinic
loop_
_symmetry_equiv_pos_as_xyz
  x,y,z
_cell_length_a	8.634740
_cell_length_b	16.109301
_cell_length_c	14.586319
_cell_angle_alpha	90.005214
_cell_angle_beta	90.003210
_cell_angle_gamma	92.015894
loop_
_atom_site_label
_atom_site_type_symbol
_atom_site_fract_x
_atom_site_fract_y
_atom_site_fract_z
O1	O	-2.045923	-0.271057	-0.076253
O2	O	-1.596982	-0.248328	-0.076253
O3	O	-1.833785	-0.139651	-0.076244
O4	O	-1.809120	-0.379733	-0.076262
O5	O	-1.833769	-0.139648	0.076237
O6	O	-1.596966	-0.248324	0.076228
O7	O	-2.045906	-0.271054	0.076228
Cu8	Cu	-1.821434	-0.259689	0.090151
Cu9	Cu	-1.821454	-0.259692	-0.090176
O10	O	-1.809103	-0.379730	0.076218
C11	C	-1.539526	-0.243177	-0.000013
C12	C	-1.368351	-0.227824	-0.000012
C13	C	-1.832778	-0.108594	-0.000003
C14	C	-1.829782	-0.016059	-0.000001
C15	C	-2.103362	-0.276204	-0.000015
C16	C	-2.274538	-0.291557	-0.000021
C17	C	-1.810110	-0.410787	-0.000024
C18	C	-1.813106	-0.503323	-0.000032
N19	N	-1.821432	-0.259686	0.216982
C20	C	-1.963331	0.195496	-0.000016
C21	C	-1.960505	0.282443	-0.000024
C22	C	-1.679546	0.285117	-0.000020
C23	C	-1.682374	0.198171	-0.000019
C24	C	-1.824272	0.153363	-0.000012
C25	C	-1.818617	0.327256	-0.000021
C26	C	-1.815551	0.421528	-0.000029
C27	C	-1.827338	0.059085	-0.000006
N28	N	-1.821468	-0.259689	-0.217007
C29	C	-1.926323	-0.211586	0.451993
C30	C	-1.926327	-0.211584	0.547974
C31	C	-1.716566	-0.307791	0.547975
C32	C	-1.716556	-0.307788	0.451996
C33	C	-1.821443	-0.259687	0.404007
C34	C	-1.821458	-0.259689	0.595968
C35	C	-1.821462	-0.259687	0.700035
C36	C	-1.821437	-0.259687	0.299933
H37	H	-1.325174	-0.357866	-0.000018
Br38	Br	-2.149238	0.339621	-0.000034
Br39	Br	-1.283955	-0.117295	0.000002
H40	H	-2.078873	0.159016	-0.000013
H41	H	-2.011729	-0.172415	0.587042
H42	H	-1.564018	0.321610	-0.000024
Br43	Br	-2.068666	-0.146305	0.386869
Br44	Br	-1.574228	-0.373070	0.613106
Br45	Br	-1.493636	0.140985	-0.000026
Br46	Br	-1.574197	-0.373064	0.386864
