data_functionalizedCrystal
_audit_creation_method	'MofGen! by Chris Wilmer'
_symmetry_space_group_name_H-M	'P1'
_symmetry_Int_Tables_number	1
_symmetry_cell_setting	triclinic
loop_
_symmetry_equiv_pos_as_xyz
  x,y,z
_cell_length_a	17.699077
_cell_length_b	19.188924
_cell_length_c	16.176319
_cell_angle_alpha	89.991125
_cell_angle_beta	89.993140
_cell_angle_gamma	83.211270
loop_
_atom_site_label
_atom_site_type_symbol
_atom_site_fract_x
_atom_site_fract_y
_atom_site_fract_z
O1	O	1.003963	0.088275	-0.068739
O2	O	0.783569	0.099767	-0.068744
O3	O	0.900129	-0.007628	-0.068732
O4	O	0.887403	0.195670	-0.068751
O5	O	0.900113	-0.007635	0.068761
O6	O	0.783553	0.099760	0.068749
O7	O	1.003947	0.088268	0.068754
Cu8	Cu	0.893748	0.094013	0.081306
Cu9	Cu	0.893767	0.094021	-0.081296
O10	O	0.887387	0.195663	0.068742
C11	C	0.755364	0.099352	0.000002
C12	C	0.671347	0.098119	0.000001
C13	C	0.631872	0.097534	0.074949
C14	C	0.552931	0.096364	0.074950
C15	C	0.513466	0.095784	0.000002
C16	C	0.552947	0.096367	-0.074952
C17	C	0.631888	0.097532	-0.074952
C18	C	0.234590	0.091668	-0.074953
C19	C	0.155644	0.090506	-0.074947
C20	C	0.155634	0.090501	0.074949
C21	C	0.234574	0.091666	0.074949
C22	C	0.274049	0.092245	-0.000004
C23	C	0.359646	0.093512	-0.000005
C24	C	0.427870	0.094522	0.000001
C25	C	0.899709	-0.033643	0.000016
C26	C	0.898475	-0.111149	0.000018
C27	C	0.897908	-0.147545	-0.074930
C28	C	0.896737	-0.220369	-0.074936
C29	C	0.896149	-0.256796	0.000009
C30	C	0.896712	-0.220391	0.074967
C31	C	0.897875	-0.147568	0.074971
N32	N	0.937387	-0.376417	0.055791
N33	N	0.936284	-0.445596	0.055782
C34	C	0.892643	-0.476209	0.000001
N35	N	0.850157	-0.435031	-0.055782
N36	N	0.851263	-0.365845	-0.055775
C37	C	0.894887	-0.335761	0.000013
C38	C	0.890805	-0.591569	-0.074958
C39	C	0.889630	-0.664394	-0.074962
C40	C	0.889613	-0.664416	0.074944
C41	C	0.890781	-0.591591	0.074945
C42	C	0.891380	-0.555173	-0.000008
C43	C	1.032152	0.088683	0.000006
C44	C	1.116168	0.089916	0.000002
C45	C	0.887806	0.221678	-0.000007
C46	C	0.889041	0.299184	-0.000015
N47	N	0.893741	0.094007	0.195671
N48	N	0.893781	0.094022	-0.195661
C49	C	0.945369	0.046472	0.238941
C50	C	0.945373	0.046471	0.325488
C51	C	0.893751	0.094010	0.368764
C52	C	0.842118	0.141547	0.325488
C53	C	0.842111	0.141544	0.238942
C54	C	0.842143	0.141560	0.674516
C55	C	0.842156	0.141561	0.761068
C56	C	0.945405	0.046488	0.761061
C57	C	0.945399	0.046485	0.674516
C58	C	0.893763	0.094019	0.631248
C59	C	0.893758	0.094018	0.537404
C60	C	0.893759	0.094014	0.462606
H61	H	0.520809	0.095890	-0.135977
H62	H	0.891289	-0.561915	-0.135990
H63	H	0.898394	-0.117897	-0.135963
H64	H	0.987448	0.007780	0.796300
H65	H	0.800117	0.180274	0.796302
H66	H	0.800101	0.180265	0.639294
Br67	Br	0.499358	0.095582	0.176671
H68	H	0.266722	0.092138	-0.135985
H69	H	0.664027	0.098009	-0.135983
H70	H	0.889164	-0.694026	-0.135995
H71	H	0.896270	-0.250008	-0.135970
Br72	Br	0.102084	0.089719	-0.176670
Br73	Br	0.891547	-0.542193	0.176666
H74	H	0.987412	0.007764	0.360717
Br75	Br	0.685423	0.098328	0.176671
Br76	Br	0.895905	-0.269825	0.176680
Br77	Br	0.772052	0.206060	0.384216
H78	H	0.987436	0.007777	0.639283
Br79	Br	0.888807	-0.713844	0.176658
H80	H	0.898334	-0.117934	0.136005
H81	H	0.987408	0.007764	0.203711
H82	H	0.800069	0.180251	0.203713
Br83	Br	0.288129	0.092459	0.176668
H84	H	0.123484	0.090026	0.135980
