data_functionalizedCrystal
_audit_creation_method	'MofGen! by Chris Wilmer'
_symmetry_space_group_name_H-M	'P1'
_symmetry_Int_Tables_number	1
_symmetry_cell_setting	triclinic
loop_
_symmetry_equiv_pos_as_xyz
  x,y,z
_cell_length_a	16.625547
_cell_length_b	16.625539
_cell_length_c	19.805404
_cell_angle_alpha	90.027676
_cell_angle_beta	89.969301
_cell_angle_gamma	89.975178
loop_
_atom_site_label
_atom_site_type_symbol
_atom_site_fract_x
_atom_site_fract_y
_atom_site_fract_z
Zn1	Zn	1.232634	-0.456004	0.269463
Zn2	Zn	1.732634	0.043996	0.769463
Zn3	Zn	1.232518	-0.321173	0.382656
Zn4	Zn	1.732518	0.178827	0.882656
Zn5	Zn	1.097796	-0.321175	0.269487
Zn6	Zn	1.597796	0.178825	0.769487
Zn7	Zn	1.097747	-0.455953	0.382615
Zn8	Zn	1.597747	0.044047	0.882615
O9	O	1.165174	-0.388576	0.326055
O10	O	1.665174	0.111424	0.826055
O11	O	1.345451	-0.438139	0.284486
O12	O	1.845451	0.061861	0.784486
O13	O	1.214618	-0.208341	0.367671
O14	O	1.714618	0.291659	0.867671
O15	O	1.115752	-0.339083	0.174767
O16	O	1.615752	0.160917	0.674767
O17	O	1.345366	-0.339079	0.367648
O18	O	1.845366	0.160921	0.867648
O19	O	1.214817	-0.438141	0.174750
O20	O	1.714817	0.061859	0.674750
O21	O	1.115639	-0.208342	0.284526
O22	O	1.615639	0.291658	0.784526
O23	O	0.984957	-0.339033	0.284486
O24	O	1.484957	0.160967	0.784486
O25	O	1.115668	-0.568792	0.367578
O26	O	1.615668	-0.068792	0.867578
O27	O	0.984921	-0.438054	0.367601
O28	O	1.484921	0.061946	0.867601
O29	O	1.214769	-0.568830	0.284446
O30	O	1.714769	-0.068830	0.784446
O31	O	1.214571	-0.339030	0.477368
O32	O	1.714571	0.160970	0.977368
O33	O	1.115555	-0.438052	0.477337
O34	O	1.615555	0.061948	0.977337
C35	C	0.955683	-0.388538	0.326042
C36	C	1.455683	0.111462	0.826042
C37	C	0.866062	-0.388541	0.326053
C38	C	1.366062	0.111459	0.826053
C39	C	1.165226	-0.598885	0.326005
C40	C	1.665226	-0.098885	0.826005
C41	C	1.165248	-0.688506	0.325983
C42	C	1.665248	-0.188506	0.825983
C43	C	0.793279	-0.388551	0.326054
C44	C	1.293279	0.111449	0.826054
C45	C	0.701971	-0.388571	0.326058
C46	C	1.201971	0.111429	0.826058
C47	C	0.629194	-0.388592	0.326064
C48	C	1.129194	0.111408	0.826064
C49	C	0.537880	-0.388611	0.326069
C50	C	1.037880	0.111389	0.826069
C51	C	1.165286	-1.016682	0.325908
C52	C	1.665286	-0.516682	0.825908
C53	C	1.165273	-0.925374	0.325931
C54	C	1.665273	-0.425374	0.825931
C55	C	1.165267	-0.852597	0.325946
C56	C	1.665267	-0.352597	0.825946
C57	C	1.165254	-0.761283	0.325968
C58	C	1.665254	-0.261283	0.825968
C59	C	1.375482	-0.388615	0.326069
C60	C	1.875482	0.111385	0.826069
C61	C	1.465104	-0.388632	0.326075
C62	C	1.965104	0.111368	0.826075
C63	C	1.165067	-0.388552	0.501911
C64	C	1.665067	0.111448	1.001911
C65	C	1.165095	-0.388569	0.577143
C66	C	1.665095	0.111431	1.077143
C67	C	1.165168	-0.179085	0.326057
C68	C	1.665168	0.320915	0.826057
C69	C	1.165302	-0.089465	0.325888
C70	C	1.665302	0.410535	0.825888
C71	C	1.216912	-0.337157	1.038928
C72	C	1.716912	0.162843	1.538928
C73	C	1.216876	-0.337139	0.968239
C74	C	1.716876	0.162861	1.468239
C75	C	1.165265	-0.388644	0.932905
C76	C	1.665265	0.111356	1.432905
C77	C	1.113680	-0.440165	0.968263
C78	C	1.613680	0.059835	1.468263
C79	C	1.113713	-0.440179	1.038950
C80	C	1.613713	0.059821	1.538950
C81	C	1.113547	-0.440109	0.683190
C82	C	1.613547	0.059891	1.183190
C83	C	1.113520	-0.440093	0.612498
C84	C	1.613520	0.059907	1.112498
C85	C	1.216710	-0.337069	0.612479
C86	C	1.716710	0.162931	1.112479
C87	C	1.216742	-0.337083	0.683166
C88	C	1.716742	0.162917	1.183166
C89	C	1.165156	-0.388601	0.718518
C90	C	1.665156	0.111399	1.218518
C91	C	1.165194	-0.388619	0.795166
C92	C	1.665194	0.111381	1.295166
C93	C	1.165229	-0.388630	0.856258
C94	C	1.665229	0.111370	1.356258
C95	C	1.165297	-0.388628	1.149513
C96	C	1.665297	0.111372	1.649513
C97	C	1.165333	-0.388676	1.074281
C98	C	1.665333	0.111324	1.574281
H99	H	1.258944	-0.295220	1.067691
H100	H	1.758944	0.204780	1.567691
H101	H	1.071489	-0.482036	0.583730
H102	H	1.571489	0.017964	1.083730
O103	O	1.266904	-0.287120	0.933793
O104	O	1.766904	0.212880	1.433793
C105	C	1.312620	-0.241464	0.824887
C106	C	1.812620	0.258536	1.324887
C107	C	1.255909	-0.298142	0.863812
C108	C	1.755909	0.201858	1.363812
H109	H	1.303763	-0.250368	0.768300
H110	H	1.803763	0.249632	1.268300
H111	H	1.298506	-0.176419	0.838785
H112	H	1.798506	0.323581	1.338785
H113	H	1.377626	-0.255686	0.838765
H114	H	1.877626	0.244314	1.338765
H115	H	1.190885	-0.283993	0.849954
H116	H	1.690885	0.216007	1.349954
H117	H	1.270093	-0.363170	0.849911
H118	H	1.770093	0.136830	1.349911
H119	H	1.258772	-0.295145	0.711931
H120	H	1.758772	0.204855	1.211931
H121	H	1.071653	-0.482098	0.939490
H122	H	1.571653	0.017902	1.439490
H123	H	1.071536	-0.482052	0.711965
H124	H	1.571536	0.017948	1.211965
H125	H	1.258712	-0.295118	0.583688
H126	H	1.758712	0.204882	1.083688
H127	H	1.071717	-0.482135	1.067734
H128	H	1.571717	0.017865	1.567734
