data_functionalizedCrystal
_audit_creation_method	'MofGen! by Chris Wilmer'
_symmetry_space_group_name_H-M	'P1'
_symmetry_Int_Tables_number	1
_symmetry_cell_setting	triclinic
loop_
_symmetry_equiv_pos_as_xyz
  x,y,z
_cell_length_a	14.519709
_cell_length_b	14.519731
_cell_length_c	9.130313
_cell_angle_alpha	89.997760
_cell_angle_beta	90.005376
_cell_angle_gamma	83.684499
loop_
_atom_site_label
_atom_site_type_symbol
_atom_site_fract_x
_atom_site_fract_y
_atom_site_fract_z
O1	O	1.223872	0.120886	-0.121612
O2	O	1.557205	0.454219	0.211721
O3	O	1.890538	0.787553	0.545055
O4	O	0.955396	0.135122	-0.121657
O5	O	1.288729	0.468456	0.211676
O6	O	1.622062	0.801789	0.545010
O7	O	1.096742	-0.006233	-0.121620
O8	O	1.430075	0.327100	0.211713
O9	O	1.763408	0.660434	0.545047
O10	O	1.082526	0.262241	-0.121649
O11	O	1.415859	0.595575	0.211684
O12	O	1.749192	0.928908	0.545018
O13	O	1.096740	-0.006229	0.121979
O14	O	1.430073	0.327104	0.455312
O15	O	1.763407	0.660437	0.788645
O16	O	0.955394	0.135126	0.121942
O17	O	1.288727	0.468459	0.455275
O18	O	1.622061	0.801793	0.788608
O19	O	1.223870	0.120890	0.121987
O20	O	1.557203	0.454223	0.455320
O21	O	1.890536	0.787556	0.788654
Cu22	Cu	1.089632	0.128008	0.144207
Cu23	Cu	1.422965	0.461342	0.477540
Cu24	Cu	1.756298	0.794675	0.810873
Cu25	Cu	1.089634	0.128004	-0.143877
Cu26	Cu	1.422967	0.461337	0.189456
Cu27	Cu	1.756300	0.794670	0.522790
O28	O	1.082524	0.262245	0.121950
O29	O	1.415857	0.595578	0.455283
O30	O	1.749190	0.928912	0.788616
C31	C	0.921035	0.134461	0.000137
C32	C	1.254368	0.467794	0.333470
C33	C	1.587702	0.801127	0.666803
C34	C	0.818654	0.132473	0.000120
C35	C	1.151987	0.465806	0.333453
C36	C	1.485320	0.799139	0.666787
C37	C	0.443757	0.125153	0.000187
C38	C	0.777091	0.458486	0.333521
C39	C	1.110424	0.791820	0.666854
C40	C	0.548065	0.127186	0.000168
C41	C	0.881399	0.460519	0.333501
C42	C	1.214732	0.793852	0.666835
C43	C	0.631202	0.128813	0.000152
C44	C	0.964535	0.462146	0.333486
C45	C	1.297869	0.795479	0.666819
C46	C	0.735517	0.130846	0.000136
C47	C	1.068850	0.464179	0.333469
C48	C	1.402183	0.797512	0.666802
C49	C	1.096075	-0.040591	0.000180
C50	C	1.429408	0.292743	0.333513
C51	C	1.762741	0.626076	0.666846
C52	C	1.094079	-0.142971	0.000180
C53	C	1.427412	0.190363	0.333514
C54	C	1.760745	0.523696	0.666847
C55	C	1.092457	-0.226115	0.000176
C56	C	1.425790	0.107218	0.333510
C57	C	1.759123	0.440552	0.666843
C58	C	1.090430	-0.330424	0.000165
C59	C	1.423763	0.002910	0.333498
C60	C	1.757097	0.336243	0.666832
C61	C	1.088822	-0.413563	0.000155
C62	C	1.422155	-0.080229	0.333489
C63	C	1.755488	0.253104	0.666822
C64	C	1.086795	-0.517878	0.000146
C65	C	1.420129	-0.184545	0.333480
C66	C	1.753462	0.148789	0.666813
C67	C	1.258230	0.121551	0.000190
C68	C	1.591564	0.454885	0.333523
C69	C	1.924897	0.788218	0.666857
C70	C	1.360612	0.123539	0.000197
C71	C	1.693945	0.456873	0.333530
C72	C	2.027279	0.790206	0.666864
C73	C	1.083191	0.296603	0.000147
C74	C	1.416524	0.629936	0.333480
C75	C	1.749858	0.963269	0.666814
C76	C	1.085187	0.398983	0.000137
C77	C	1.418520	0.732316	0.333470
C78	C	1.751854	1.065649	0.666803
N79	N	1.089637	0.128011	0.346829
N80	N	1.422970	0.461344	0.680163
N81	N	1.756304	0.794678	1.013496
N82	N	1.089636	0.127994	-0.346500
N83	N	1.422969	0.461327	-0.013166
N84	N	1.756302	0.794661	0.320167
C85	C	1.152241	0.065440	0.423498
C86	C	1.485574	0.398773	0.756831
C87	C	1.818908	0.732107	1.090165
C88	C	1.152238	0.065429	0.576835
C89	C	1.485572	0.398762	0.910168
C90	C	1.818905	0.732096	1.243501
C91	C	1.027025	0.190568	0.576821
C92	C	1.360359	0.523901	0.910155
C93	C	1.693692	0.857234	1.243488
C94	C	1.027024	0.190574	0.423487
C95	C	1.360357	0.523907	0.756821
C96	C	1.693691	0.857240	1.090154
C97	C	1.214854	0.002877	0.346840
C98	C	1.548187	0.336210	0.680173
C99	C	1.881521	0.669544	1.013507
C100	C	1.277464	-0.059698	0.423509
C101	C	1.610797	0.273635	0.756842
C102	C	1.944130	0.606968	1.090175
C103	C	1.277461	-0.059709	0.576846
C104	C	1.610795	0.273624	0.910179
C105	C	1.944128	0.606957	1.243512
C106	C	1.214849	0.002855	0.653514
C107	C	1.548182	0.336188	0.986847
C108	C	1.881516	0.669522	1.320180
H109	H	1.214863	0.002882	0.221986
H110	H	1.548197	0.336215	0.555319
H111	H	1.881530	0.669549	0.888652
H112	H	1.328435	-0.110641	0.361078
H113	H	1.661769	0.222692	0.694411
H114	H	1.995102	0.556025	1.027744
H115	H	1.328434	-0.110666	0.639268
H116	H	1.661767	0.222667	0.972601
H117	H	1.995101	0.556000	1.305934
Cl118	Cl	1.214843	0.002829	0.846282
Cl119	Cl	1.548176	0.336162	1.179616
Cl120	Cl	1.881509	0.669496	1.512949
H121	H	0.976050	0.241506	0.639254
H122	H	1.309383	0.574839	0.972588
H123	H	1.642716	0.908173	1.305921
H124	H	0.976045	0.241524	0.361063
H125	H	1.309379	0.574857	0.694397
H126	H	1.642712	0.908191	1.027730
