data_functionalizedCrystal
_audit_creation_method	'MofGen! by Chris Wilmer'
_symmetry_space_group_name_H-M	'P1'
_symmetry_Int_Tables_number	1
_symmetry_cell_setting	triclinic
loop_
_symmetry_equiv_pos_as_xyz
  x,y,z
_cell_length_a	15.944551
_cell_length_b	14.971486
_cell_length_c	13.448316
_cell_angle_alpha	90.006811
_cell_angle_beta	89.997731
_cell_angle_gamma	96.443567
loop_
_atom_site_label
_atom_site_type_symbol
_atom_site_fract_x
_atom_site_fract_y
_atom_site_fract_z
O1	O	1.114636	-0.115362	-0.082589
O2	O	1.614636	0.384638	0.417411
O3	O	0.870100	-0.129585	-0.082613
O4	O	1.370100	0.370415	0.417387
O5	O	0.998923	0.007734	-0.082593
O6	O	1.498923	0.507734	0.417407
O7	O	0.985814	-0.252680	-0.082609
O8	O	1.485814	0.247320	0.417391
O9	O	0.998906	0.007742	0.082791
O10	O	1.498906	0.507742	0.582791
O11	O	0.870084	-0.129576	0.082770
O12	O	1.370084	0.370424	0.582770
O13	O	1.114620	-0.115354	0.082795
O14	O	1.614620	0.384646	0.582795
Cu15	Cu	0.992351	-0.122464	0.097884
Cu16	Cu	1.492351	0.377536	0.597884
Cu17	Cu	0.992370	-0.122474	-0.097702
Cu18	Cu	1.492370	0.377526	0.402298
O19	O	0.985798	-0.252672	0.082775
O20	O	1.485798	0.247328	0.582775
C21	C	0.838798	-0.128990	0.000075
C22	C	1.338798	0.371010	0.500075
C23	C	0.745550	-0.127220	0.000066
C24	C	1.245550	0.372780	0.500066
N25	N	0.992343	-0.122456	0.235448
N26	N	1.492343	0.377544	0.735448
C27	C	0.998328	0.041062	0.000098
C28	C	1.498328	0.541062	0.500098
C29	C	0.996572	0.140357	0.000097
C30	C	1.496572	0.640357	0.500097
C31	C	0.530608	-0.037872	0.000091
C32	C	1.030608	0.462128	0.500091
C33	C	0.469636	-0.079366	-0.081455
C34	C	0.969636	0.420634	0.418545
C35	C	0.574821	-0.124017	0.000078
C36	C	1.074821	0.375983	0.500078
C37	C	0.469642	-0.079379	0.081601
C38	C	0.969642	0.420621	0.581601
C39	C	0.409905	-0.120918	0.000094
C40	C	0.909905	0.379082	0.500094
C41	C	0.515077	-0.165535	-0.081535
C42	C	1.015077	0.334465	0.418465
C43	C	0.515089	-0.165535	0.081594
C44	C	1.015089	0.334465	0.581594
C45	C	0.454134	-0.207092	0.000029
C46	C	0.954134	0.292908	0.500029
C47	C	0.669825	-0.125801	0.000068
C48	C	1.169825	0.374199	0.500068
C49	C	0.314903	-0.119141	0.000097
C50	C	0.814903	0.380859	0.500097
C51	C	1.145923	-0.115948	0.000104
C52	C	1.645923	0.384052	0.500104
C53	C	1.239171	-0.117718	0.000107
C54	C	1.739171	0.382282	0.500107
C55	C	0.986392	-0.286000	0.000081
C56	C	1.486392	0.214000	0.500081
C57	C	0.988149	-0.385295	0.000076
C58	C	1.488149	0.114705	0.500076
C59	C	1.072251	0.197664	0.000106
C60	C	1.572251	0.697664	0.500106
C61	C	1.070595	0.290962	0.000095
C62	C	1.570595	0.790962	0.500095
C63	C	0.993259	0.326951	0.000084
C64	C	1.493259	0.826951	0.500084
C65	C	0.917574	0.269637	0.000073
C66	C	1.417574	0.769637	0.500073
C67	C	0.919230	0.176341	0.000076
C68	C	1.419230	0.676341	0.500076
C69	C	0.914127	0.464095	0.000069
C70	C	1.414127	0.964095	0.500069
C71	C	0.912470	0.557398	0.000067
C72	C	1.412470	1.057398	0.500067
C73	C	1.065491	0.578717	0.000088
C74	C	1.565491	1.078717	0.500088
C75	C	1.067148	0.485421	0.000091
C76	C	1.567148	0.985421	0.500091
C77	C	0.991462	0.428113	0.000082
C78	C	1.491462	0.928113	0.500082
N79	N	0.992384	-0.122475	-0.235266
N80	N	1.492384	0.377525	0.264734
C81	C	1.049404	-0.061677	0.287497
C82	C	1.549404	0.438323	0.787497
C83	C	1.049409	-0.061676	0.391600
C84	C	1.549409	0.438324	0.891600
C85	C	0.992357	-0.122460	0.443653
C86	C	1.492357	0.377540	0.943653
C87	C	0.935291	-0.183243	0.391596
C88	C	1.435291	0.316757	0.891596
C89	C	0.935282	-0.183238	0.287495
C90	C	1.435282	0.316762	0.787495
C91	C	0.935314	-0.183249	0.608576
C92	C	1.435314	0.316751	1.108576
C93	C	0.935324	-0.183254	0.712685
C94	C	1.435324	0.316746	1.212685
C95	C	1.049441	-0.061686	0.712682
C96	C	1.549441	0.438314	1.212682
C97	C	1.049432	-0.061682	0.608581
C98	C	1.549432	0.438318	1.108581
C99	C	0.992367	-0.122466	0.556531
C100	C	1.492367	0.377534	1.056531
H101	H	0.563873	0.033621	-0.000006
H102	H	1.063873	0.533621	0.499994
Cl103	Cl	0.546218	-0.221738	0.188033
Cl104	Cl	1.046218	0.278262	0.688033
H105	H	1.130122	0.456122	0.000108
H106	H	1.630122	0.956122	0.500108
Cl107	Cl	1.121180	0.014725	0.778119
Cl108	Cl	1.621180	0.514725	1.278119
Cl109	Cl	1.169479	0.152431	0.000130
Cl110	Cl	1.669479	0.652431	0.500130
Cl111	Cl	0.818977	0.392052	0.000056
Cl112	Cl	1.318977	0.892052	0.500056
Cl113	Cl	0.824086	0.104297	0.000061
Cl114	Cl	1.324086	0.604297	0.500061
Cl115	Cl	1.165740	0.363002	0.000109
Cl116	Cl	1.665740	0.863002	0.500109
H117	H	1.095865	-0.012183	0.245123
H118	H	1.595865	0.487817	0.745123
H119	H	0.888843	-0.232743	0.566201
H120	H	1.388843	0.267257	1.066201
Cl121	Cl	0.863543	-0.259648	0.222062
Cl122	Cl	1.363543	0.240352	0.722062
Cl123	Cl	1.160639	0.650760	0.000095
Cl124	Cl	1.660639	1.150760	0.500095
H125	H	1.095871	-0.012184	0.433979
H126	H	1.595871	0.487816	0.933979
H127	H	0.449498	-0.042934	-0.150391
H128	H	0.949498	0.457066	0.349609
Cl129	Cl	1.121159	0.014727	0.543142
Cl130	Cl	1.621159	0.514727	1.043142
H131	H	0.449514	-0.042923	0.150539
H132	H	0.949514	0.457077	0.650539
H133	H	0.535106	-0.201947	-0.150550
H134	H	1.035106	0.298053	0.349450
H135	H	0.888865	-0.232750	0.755060
H136	H	1.388865	0.267250	1.255060
H137	H	0.421044	-0.278659	-0.000021
H138	H	0.921044	0.221341	0.499979
Cl139	Cl	0.815246	0.602640	0.000054
Cl140	Cl	1.315246	1.102640	0.500054
Cl141	Cl	0.820351	0.314880	0.000046
Cl142	Cl	1.320351	0.814880	0.500046
Cl143	Cl	0.863563	-0.259654	0.457031
Cl144	Cl	1.363563	0.240346	0.957031
