data_functionalizedCrystal
_audit_creation_method	'MofGen! by Chris Wilmer'
_symmetry_space_group_name_H-M	'P1'
_symmetry_Int_Tables_number	1
_symmetry_cell_setting	triclinic
loop_
_symmetry_equiv_pos_as_xyz
  x,y,z
_cell_length_a	16.625548
_cell_length_b	12.759394
_cell_length_c	12.759387
_cell_angle_alpha	90.031660
_cell_angle_beta	89.977122
_cell_angle_gamma	89.984095
loop_
_atom_site_label
_atom_site_type_symbol
_atom_site_fract_x
_atom_site_fract_y
_atom_site_fract_z
Zn1	Zn	1.232742	0.418181	-0.594065
Zn2	Zn	1.732742	0.918181	-0.094065
Zn3	Zn	1.232657	0.593898	-0.418383
Zn4	Zn	1.732657	1.093898	0.081617
Zn5	Zn	1.097898	0.418237	-0.418395
Zn6	Zn	1.597898	0.918237	0.081605
Zn7	Zn	1.097892	0.593822	-0.594015
Zn8	Zn	1.597892	1.093822	-0.094015
O9	O	1.165297	0.506035	-0.506214
O10	O	1.665297	1.006035	-0.006214
O11	O	1.345563	0.441499	-0.570777
O12	O	1.845563	0.941499	-0.070777
O13	O	1.214749	0.570652	-0.271363
O14	O	1.714749	1.070652	0.228637
O15	O	1.115823	0.271208	-0.441724
O16	O	1.615823	0.771208	0.058276
O17	O	1.345501	0.570597	-0.441704
O18	O	1.845501	1.070597	0.058296
O19	O	1.214892	0.271167	-0.570788
O20	O	1.714892	0.771167	-0.070788
O21	O	1.115741	0.441594	-0.271372
O22	O	1.615741	0.941594	0.228628
O23	O	0.985065	0.441520	-0.441675
O24	O	1.485065	0.941520	0.058325
O25	O	1.115813	0.570468	-0.741043
O26	O	1.615813	1.070468	-0.241043
O27	O	0.985060	0.570522	-0.570702
O28	O	1.485060	1.070522	-0.070702
O29	O	1.214886	0.441425	-0.741080
O30	O	1.714886	0.941425	-0.241080
O31	O	1.214743	0.740909	-0.441655
O32	O	1.714743	1.240909	0.058345
O33	O	1.115731	0.740853	-0.570691
O34	O	1.615731	1.240853	-0.070691
C35	C	1.165249	0.779002	-0.506189
C36	C	1.665249	1.279002	-0.006189
C37	C	1.165302	0.895779	-0.506213
C38	C	1.665302	1.395779	-0.006213
C39	C	0.955806	0.506020	-0.506185
C40	C	1.455806	1.006020	-0.006185
C41	C	0.866185	0.506038	-0.506197
C42	C	1.366185	1.006038	-0.006197
C43	C	1.165358	0.505932	-0.780248
C44	C	1.665358	1.005932	-0.280248
C45	C	1.165384	0.505888	-0.897025
C46	C	1.665384	1.005888	-0.397025
C47	C	0.538010	0.506045	-0.506242
C48	C	1.038010	1.006045	-0.006242
C49	C	0.629318	0.506040	-0.506227
C50	C	1.129318	1.006040	-0.006227
C51	C	0.702094	0.506042	-0.506219
C52	C	1.202094	1.006042	-0.006219
C53	C	0.793409	0.506036	-0.506205
C54	C	1.293409	1.006036	-0.006205
C55	C	1.375606	0.506050	-0.506245
C56	C	1.875606	1.006050	-0.006245
C57	C	1.465227	0.506057	-0.506257
C58	C	1.965227	1.006057	-0.006257
C59	C	1.165368	0.232001	-0.506263
C60	C	1.665368	0.732001	-0.006263
C61	C	1.165398	0.115224	-0.506284
C62	C	1.665398	0.615224	-0.006284
C63	C	1.268480	0.895784	-0.371949
C64	C	1.768480	1.395784	0.128051
C65	C	1.320090	0.950647	-0.304829
C66	C	1.820090	1.450647	0.195171
C67	C	1.320137	1.060368	-0.304858
C68	C	1.820137	1.560368	0.195142
C69	C	1.268571	1.115229	-0.372015
C70	C	1.768571	1.615229	0.127985
C71	C	1.216961	1.060366	-0.439135
C72	C	1.716961	1.560366	0.060865
C73	C	1.216917	0.950642	-0.439097
C74	C	1.716917	1.450642	0.060903
C75	C	1.113788	1.060361	-0.573403
C76	C	1.613788	1.560361	-0.073403
C77	C	1.113735	0.950640	-0.573371
C78	C	1.613735	1.450640	-0.073371
C79	C	1.062221	1.115222	-0.640561
C80	C	1.562221	1.615222	-0.140561
C81	C	1.010606	1.060359	-0.707677
C82	C	1.510606	1.560359	-0.207677
C83	C	1.010560	0.950631	-0.707645
C84	C	1.510560	1.450631	-0.207645
C85	C	1.062125	0.895776	-0.640491
C86	C	1.562125	1.395776	-0.140491
C87	C	1.268556	0.371524	-0.897083
C88	C	1.768556	0.871524	-0.397083
C89	C	1.320154	0.304327	-0.951973
C90	C	1.820154	0.804327	-0.451973
C91	C	1.320173	0.304289	-1.061695
C92	C	1.820173	0.804289	-0.561695
C93	C	1.268588	0.371453	-1.116529
C94	C	1.768588	0.871453	-0.616529
C95	C	1.216991	0.438650	-1.061639
C96	C	1.716991	0.938650	-0.561639
C97	C	1.216979	0.438683	-0.951915
C98	C	1.716979	0.938683	-0.451915
C99	C	1.113816	0.573007	-1.061581
C100	C	1.613816	1.073007	-0.561581
C101	C	1.113799	0.573052	-0.951859
C102	C	1.613799	1.073052	-0.451859
C103	C	1.062231	0.640171	-1.116415
C104	C	1.562231	1.140171	-0.616415
C105	C	1.010636	0.707375	-1.061525
C106	C	1.510636	1.207375	-0.561525
C107	C	1.010619	0.707411	-0.951797
C108	C	1.510619	1.207411	-0.451797
C109	C	1.062202	0.640249	-0.896969
C110	C	1.562202	1.140249	-0.396969
C111	C	1.165283	0.506061	-0.233247
C112	C	1.665283	1.006061	0.266753
C113	C	1.165413	0.505809	-0.116471
C114	C	1.665413	1.005809	0.383529
H115	H	1.362077	0.905970	-0.250151
H116	H	1.862077	1.405970	0.249849
H117	H	1.268436	0.806443	-0.371905
H118	H	1.768436	1.306443	0.128095
N119	N	1.375798	1.119559	-0.232471
N120	N	1.875798	1.619559	0.267529
H121	H	1.433397	1.100397	-0.248841
H122	H	1.933397	1.600397	0.251159
H123	H	1.363224	1.100524	-0.157412
H124	H	1.863224	1.600524	0.342588
H125	H	1.268621	1.204570	-0.372042
H126	H	1.768621	1.704570	0.127958
H127	H	1.362183	0.249564	-1.106386
H128	H	1.862183	0.749564	-0.606386
N129	N	1.375801	0.231897	-0.892839
N130	N	1.875801	0.731897	-0.392839
H131	H	1.433403	0.248233	-0.911961
H132	H	1.933403	0.748233	-0.411961
H133	H	1.363243	0.156849	-0.911973
H134	H	1.863243	0.656849	-0.411973
N135	N	1.268586	0.371387	-1.234871
N136	N	1.768586	0.871387	-0.734871
H137	H	1.309093	0.318617	-1.261323
H138	H	1.809093	0.818617	-0.761323
H139	H	1.283359	0.443481	-1.261229
H140	H	1.783359	0.943481	-0.761229
N141	N	1.062272	1.233564	-0.640601
N142	N	1.562272	1.733564	-0.140601
H143	H	1.102788	1.259997	-0.587889
H144	H	1.602788	1.759997	-0.087889
H145	H	1.006947	1.259981	-0.621272
H146	H	1.506947	1.759981	-0.121272
N147	N	0.954989	1.119530	-0.780096
N148	N	1.454989	1.619530	-0.280096
H149	H	0.922282	1.068129	-0.822608
H150	H	1.422282	1.568129	-0.322608
H151	H	0.987814	1.164974	-0.828769
H152	H	1.487814	1.664974	-0.328769
N153	N	0.954898	0.891459	-0.780045
N154	N	1.454898	1.391459	-0.280045
H155	H	0.922242	0.942866	-0.822590
H156	H	1.422242	1.442866	-0.322590
H157	H	0.917575	0.846013	-0.737228
H158	H	1.417575	1.346013	-0.237228
H159	H	1.062247	0.640131	-1.205756
H160	H	1.562247	1.140131	-0.705756
N161	N	1.062075	0.777435	-0.640447
N162	N	1.562075	1.277435	-0.140447
H163	H	1.117371	0.750931	-0.659807
H164	H	1.617371	1.250931	-0.159807
H165	H	1.021521	0.751083	-0.693146
H166	H	1.521521	1.251083	-0.193146
N167	N	1.268545	0.371580	-0.778741
N168	N	1.768545	0.871580	-0.278741
H169	H	1.309053	0.318841	-0.752333
H170	H	1.809053	0.818841	-0.252333
H171	H	1.213210	0.352297	-0.752377
H172	H	1.713210	0.852297	-0.252377
H173	H	0.968636	0.762049	-1.106180
H174	H	1.468636	1.262049	-0.606180
H175	H	0.968594	0.762120	-0.907112
H176	H	1.468594	1.262120	-0.407112
N177	N	1.062171	0.640298	-0.778627
N178	N	1.562171	1.140298	-0.278627
H179	H	1.117469	0.659632	-0.752196
H180	H	1.617469	1.159632	-0.252196
H181	H	1.047333	0.568216	-0.752296
H182	H	1.547333	1.068216	-0.252296
