data_functionalizedCrystal
_audit_creation_method	'MofGen! by Chris Wilmer'
_symmetry_space_group_name_H-M	'P1'
_symmetry_Int_Tables_number	1
_symmetry_cell_setting	triclinic
loop_
_symmetry_equiv_pos_as_xyz
  x,y,z
_cell_length_a	14.908571
_cell_length_b	13.897448
_cell_length_c	14.908308
_cell_angle_alpha	93.267188
_cell_angle_beta	90.175053
_cell_angle_gamma	86.713891
loop_
_atom_site_label
_atom_site_type_symbol
_atom_site_fract_x
_atom_site_fract_y
_atom_site_fract_z
Zn1	Zn	1.345318	-0.503381	-0.587582
Zn2	Zn	1.678651	-0.170048	-0.254249
Zn3	Zn	2.011985	0.163285	0.079084
Zn4	Zn	1.353905	-0.655952	-0.437223
Zn5	Zn	1.687238	-0.322619	-0.103889
Zn6	Zn	2.020572	0.010715	0.229444
Zn7	Zn	1.203632	-0.484854	-0.428580
Zn8	Zn	1.536966	-0.151521	-0.095247
Zn9	Zn	1.870299	0.181813	0.238087
Zn10	Zn	1.194933	-0.654806	-0.578874
Zn11	Zn	1.528266	-0.321473	-0.245541
Zn12	Zn	1.861599	0.011861	0.087792
O13	O	1.274447	-0.574748	-0.508065
O14	O	1.607780	-0.241415	-0.174731
O15	O	1.941114	0.091918	0.158602
O16	O	1.472283	-0.531853	-0.574898
O17	O	1.805617	-0.198520	-0.241565
O18	O	2.138950	0.134813	0.091769
O19	O	1.341206	-0.625981	-0.310251
O20	O	1.674539	-0.292648	0.023082
O21	O	2.007872	0.040685	0.356415
O22	O	1.222474	-0.352335	-0.449699
O23	O	1.555808	-0.019001	-0.116366
O24	O	1.889141	0.314332	0.216967
O25	O	1.478592	-0.643947	-0.464429
O26	O	1.811926	-0.310613	-0.131096
O27	O	2.145259	0.022720	0.202237
O28	O	1.326570	-0.365946	-0.566518
O29	O	1.659903	-0.032613	-0.233184
O30	O	1.993237	0.300720	0.100149
O31	O	1.230801	-0.500276	-0.303902
O32	O	1.564134	-0.166943	0.029432
O33	O	1.897468	0.166390	0.362765
O34	O	1.076652	-0.499165	-0.441256
O35	O	1.409985	-0.165832	-0.107922
O36	O	1.743319	0.167502	0.225411
O37	O	1.207647	-0.641993	-0.705854
O38	O	1.540980	-0.308660	-0.372521
O39	O	1.874314	0.024673	-0.039187
O40	O	1.070260	-0.624028	-0.551676
O41	O	1.403594	-0.290695	-0.218343
O42	O	1.736927	0.042638	0.114991
O43	O	1.318134	-0.530742	-0.712252
O44	O	1.651468	-0.197409	-0.378918
O45	O	1.984801	0.135924	-0.045585
O46	O	1.332770	-0.790777	-0.455986
O47	O	1.666103	-0.457444	-0.122652
O48	O	1.999437	-0.124110	0.210681
O49	O	1.215974	-0.789935	-0.560056
O50	O	1.549307	-0.456602	-0.226723
O51	O	1.882640	-0.123269	0.106610
C52	C	1.040831	-0.559463	-0.494584
C53	C	1.374164	-0.226129	-0.161250
C54	C	1.707497	0.107204	0.172083
C55	C	0.940888	-0.552948	-0.488838
C56	C	1.274221	-0.219614	-0.155504
C57	C	1.607554	0.113719	0.177829
C58	C	0.746485	-0.670908	-0.592867
C59	C	1.079819	-0.337575	-0.259533
C60	C	1.413152	-0.004242	0.073800
C61	C	0.652579	-0.664790	-0.587471
C62	C	0.985913	-0.331457	-0.254138
C63	C	1.319246	0.001877	0.079196
C64	C	0.659168	-0.534590	-0.472656
C65	C	0.992501	-0.201256	-0.139322
C66	C	1.325835	0.132077	0.194011
C67	C	0.753074	-0.540708	-0.478051
C68	C	1.086407	-0.207374	-0.144718
C69	C	1.419741	0.125959	0.188615
C70	C	0.796729	-0.608870	-0.538158
C71	C	1.130062	-0.275537	-0.204825
C72	C	1.463396	0.057796	0.128509
C73	C	0.890637	-0.614992	-0.543549
C74	C	1.223970	-0.281659	-0.210215
C75	C	1.557304	0.051674	0.123118
C76	C	0.897224	-0.484788	-0.428738
C77	C	1.230557	-0.151455	-0.095405
C78	C	1.563890	0.181879	0.237928
C79	C	0.803318	-0.478670	-0.423343
C80	C	1.136651	-0.145336	-0.090009
C81	C	1.469984	0.187997	0.243324
C82	C	1.274383	-0.825357	-0.508035
C83	C	1.607716	-0.492024	-0.174702
C84	C	1.941050	-0.158690	0.158632
C85	C	1.274436	-0.932575	-0.508057
C86	C	1.607769	-0.599242	-0.174724
C87	C	1.941103	-0.265909	0.158610
C88	C	1.274527	-1.128880	-0.508119
C89	C	1.607861	-0.795547	-0.174786
C90	C	1.941194	-0.462213	0.158548
C91	C	1.274474	-1.019642	-0.508087
C92	C	1.607807	-0.686309	-0.174754
C93	C	1.941140	-0.352976	0.158580
C94	C	1.508975	-0.590094	-0.521599
C95	C	1.842309	-0.256761	-0.188266
C96	C	2.175642	0.076572	0.145068
C97	C	1.608918	-0.596634	-0.527367
C98	C	1.942251	-0.263301	-0.194033
C99	C	2.275584	0.070033	0.139300
C100	C	1.260963	-0.588307	-0.742590
C101	C	1.594296	-0.254973	-0.409257
C102	C	1.927629	0.078360	-0.075923
C103	C	1.255216	-0.594084	-0.842531
C104	C	1.588550	-0.260751	-0.509197
C105	C	1.921883	0.072582	-0.175864
C106	C	1.274535	-0.323164	-0.508116
C107	C	1.607868	0.010169	-0.174782
C108	C	1.941201	0.343503	0.158551
C109	C	1.274572	-0.215954	-0.508138
C110	C	1.607905	0.117380	-0.174804
C111	C	1.941239	0.450713	0.158529
C112	C	1.359466	-0.489073	-1.036993
C113	C	1.692799	-0.155739	-0.703660
C114	C	2.026133	0.177594	-0.370327
C115	C	1.354070	-0.494498	-1.130897
C116	C	1.687403	-0.161165	-0.797563
C117	C	2.020736	0.172168	-0.464230
C118	C	1.239023	-0.610355	-1.124242
C119	C	1.572357	-0.277022	-0.790909
C120	C	1.905690	0.056311	-0.457576
C121	C	1.244420	-0.604930	-1.030339
C122	C	1.577753	-0.271596	-0.697006
C123	C	1.911086	0.061737	-0.363672
C124	C	1.304644	-0.544287	-0.986718
C125	C	1.637977	-0.210954	-0.653385
C126	C	1.971311	0.122379	-0.320051
C127	C	1.310044	-0.538868	-0.892813
C128	C	1.643378	-0.205534	-0.559480
C129	C	1.976711	0.127799	-0.226146
C130	C	1.194994	-0.654719	-0.886160
C131	C	1.528327	-0.321386	-0.552827
C132	C	1.861660	0.011948	-0.219493
C133	C	1.189597	-0.660144	-0.980064
C134	C	1.522931	-0.326811	-0.646730
C135	C	1.856264	0.006522	-0.313397
C136	C	1.287931	-0.561177	-0.274455
C137	C	1.621264	-0.227843	0.058878
C138	C	1.954598	0.105490	0.392212
C139	C	1.293851	-0.555139	-0.174525
C140	C	1.627185	-0.221805	0.158809
C141	C	1.960518	0.111528	0.492142
H142	H	0.926180	-0.670495	-0.592489
H143	H	1.259513	-0.337162	-0.259156
H144	H	1.592846	-0.003828	0.074178
H145	H	0.938142	-0.434274	-0.384188
H146	H	1.271476	-0.100940	-0.050855
H147	H	1.604809	0.232393	0.282478
H148	H	1.359083	-0.489491	-0.857299
H149	H	1.692417	-0.156158	-0.523965
H150	H	2.025750	0.177176	-0.190632
H151	H	1.408508	-0.439701	-1.001477
H152	H	1.741841	-0.106367	-0.668144
H153	H	2.075174	0.226966	-0.334810
H154	H	0.782030	-0.726414	-0.641803
H155	H	1.115364	-0.393080	-0.308470
H156	H	1.448697	-0.059747	0.024864
H157	H	1.189991	-0.659727	-1.159775
H158	H	1.523325	-0.326393	-0.826442
H159	H	1.856658	0.006940	-0.493108
H160	H	1.140563	-0.709515	-1.015593
H161	H	1.473896	-0.376182	-0.682259
H162	H	1.807229	-0.042849	-0.348926
H163	H	1.398709	-0.449534	-1.171828
H164	H	1.732043	-0.116201	-0.838494
H165	H	2.065376	0.217133	-0.505161
H166	H	0.611674	-0.715306	-0.632022
H167	H	0.945007	-0.381973	-0.298689
H168	H	1.278341	-0.048639	0.034644
H169	H	0.623607	-0.479089	-0.423726
H170	H	0.956941	-0.145756	-0.090392
H171	H	1.290274	0.187577	0.242941
H172	H	0.767761	-0.423172	-0.374408
H173	H	1.101094	-0.089838	-0.041075
H174	H	1.434427	0.243495	0.292259
H175	H	1.150356	-0.699682	-0.845216
H176	H	1.483689	-0.366348	-0.511882
H177	H	1.817022	-0.033015	-0.178549
