data_functionalizedCrystal
_audit_creation_method	'MofGen! by Chris Wilmer'
_symmetry_space_group_name_H-M	'P1'
_symmetry_Int_Tables_number	1
_symmetry_cell_setting	triclinic
loop_
_symmetry_equiv_pos_as_xyz
  x,y,z
_cell_length_a	6.817900
_cell_length_b	16.418049
_cell_length_c	16.305550
_cell_angle_alpha	95.392859
_cell_angle_beta	103.455250
_cell_angle_gamma	103.389670
loop_
_atom_site_label
_atom_site_type_symbol
_atom_site_fract_x
_atom_site_fract_y
_atom_site_fract_z
V1	V	-4.025855	-0.116594	-0.263330
O2	O	-4.013857	0.004875	-0.258012
O3	O	-3.976925	-0.230486	-0.261823
O4	O	-3.977266	-0.115119	-0.378044
O5	O	-4.013514	-0.111290	-0.140987
V6	V	-4.509576	-0.102027	-0.248661
O7	O	-4.286679	-0.148547	-0.295508
O8	O	-4.698950	-0.070073	-0.216484
O9	O	-4.335300	0.011866	-0.250168
O10	O	-4.638971	-0.223496	-0.253980
O11	O	-4.639315	-0.107331	-0.371005
O12	O	-4.334959	-0.103501	-0.133948
C13	C	-3.821803	-0.258241	-0.257745
C14	C	-3.863082	-0.351351	-0.257277
C15	C	-4.140109	-0.569849	-0.260438
C16	C	-4.178884	-0.657337	-0.260006
C17	C	-3.814681	-0.648771	-0.251559
C18	C	-3.775912	-0.561285	-0.251997
C19	C	-3.938631	-0.521826	-0.256432
C20	C	-4.016174	-0.696800	-0.255562
C21	C	-4.058214	-0.791658	-0.255094
C22	C	-3.896590	-0.426962	-0.256902
C23	C	-3.822237	-0.111078	-0.405994
C24	C	-3.863790	-0.110626	-0.499775
C25	C	-4.014883	-0.108876	-0.840516
C26	C	-3.778853	-0.103678	-0.799574
C27	C	-3.735656	-0.104495	-0.702081
C28	C	-3.939923	-0.109743	-0.671470
C29	C	-4.106679	-0.192465	-0.722309
C30	C	-4.148544	-0.191997	-0.819857
C31	C	-4.069896	-0.032013	-0.794476
C32	C	-4.021969	-0.031358	-0.696631
C33	C	-3.897571	-0.110237	-0.575934
C34	C	-4.057244	-0.108388	-0.936054
C35	C	-4.153764	0.039616	-0.254244
C36	C	-4.091723	0.132725	-0.254717
C37	C	-4.153330	-0.107545	-0.105993
C38	C	-4.091015	-0.107993	-0.012211
H39	H	-3.609358	-0.045019	-0.666905
H40	H	-4.051051	-0.250668	-0.705645
C41	C	-3.635716	-0.022954	-0.816070
C42	C	-3.731391	0.039236	-0.866921
C43	C	-3.588254	0.119964	-0.883422
C44	C	-3.349443	0.138501	-0.849074
C45	C	-3.253756	0.076309	-0.798220
C46	C	-3.396893	-0.004418	-0.781719
H47	H	-3.908184	0.025515	-0.892350
H48	H	-3.659089	0.166002	-0.921068
H49	H	-3.243485	0.198260	-0.861289
H50	H	-3.076963	0.090030	-0.772791
H51	H	-3.326058	-0.050456	-0.744073
C52	C	-3.717678	-0.178286	-0.842321
C53	C	-3.881027	-0.243819	-0.914171
C54	C	-3.819863	-0.318431	-0.956916
C55	C	-3.595350	-0.327508	-0.927811
C56	C	-3.431986	-0.261972	-0.855958
C57	C	-3.493150	-0.187361	-0.813213
H58	H	-4.047238	-0.237102	-0.935719
H59	H	-3.940797	-0.366945	-1.010107
H60	H	-3.550073	-0.382740	-0.959453
H61	H	-3.265775	-0.268690	-0.834409
H62	H	-3.372216	-0.138847	-0.760022
C63	C	-3.645664	-0.179957	-0.680254
C64	C	-3.612939	-0.239666	-0.751587
C65	C	-3.522946	-0.315132	-0.729761
C66	C	-3.465678	-0.330889	-0.636602
C67	C	-3.498402	-0.271178	-0.565263
C68	C	-3.588395	-0.195712	-0.587089
H69	H	-3.655334	-0.228004	-0.820554
H70	H	-3.498722	-0.359334	-0.782572
H71	H	-3.399059	-0.386753	-0.620445
H72	H	-3.456007	-0.282840	-0.496296
H73	H	-3.612619	-0.151510	-0.534279
C74	C	-3.946682	0.052668	-0.812293
C75	C	-3.706080	0.077304	-0.785442
C76	C	-3.582836	0.161983	-0.803252
C77	C	-3.700194	0.222026	-0.847913
C78	C	-3.940810	0.197391	-0.874766
C79	C	-4.064054	0.112713	-0.856956
H80	H	-3.619193	0.032855	-0.752379
H81	H	-3.404716	0.180218	-0.783373
H82	H	-3.608961	0.284710	-0.861097
H83	H	-4.027697	0.241840	-0.907829
H84	H	-4.242174	0.094477	-0.876835
C85	C	-3.858732	0.051304	-0.649979
C86	C	-3.651890	0.047683	-0.589316
C87	C	-3.488650	0.130343	-0.542656
C88	C	-3.532252	0.216624	-0.556659
C89	C	-3.739104	0.220248	-0.617324
C90	C	-3.902343	0.137588	-0.663984
H91	H	-3.619605	-0.016190	-0.578948
H92	H	-3.335525	0.127660	-0.497748
H93	H	-3.411412	0.277814	-0.522118
H94	H	-3.771389	0.284121	-0.627692
H95	H	-4.055468	0.140271	-0.708893
H96	H	-4.272608	-0.537724	-0.264048
H97	H	-4.342945	-0.696435	-0.263269
H98	H	-4.112205	-0.250184	-0.850388
H99	H	-4.169260	-0.030329	-0.675281
H100	H	-4.241951	-0.035085	-0.821299
H101	H	-3.682205	-0.680908	-0.247947
H102	H	-4.322356	-0.199252	-0.847868
H103	H	-3.611838	-0.522183	-0.248739
H104	H	-4.259812	-0.199297	-0.703414
