data_functionalizedCrystal
_audit_creation_method	'MofGen! by Chris Wilmer'
_symmetry_space_group_name_H-M	'P1'
_symmetry_Int_Tables_number	1
_symmetry_cell_setting	triclinic
loop_
_symmetry_equiv_pos_as_xyz
  x,y,z
_cell_length_a	18.050591
_cell_length_b	18.050589
_cell_length_c	16.120297
_cell_angle_alpha	87.124343
_cell_angle_beta	87.117317
_cell_angle_gamma	90.027061
loop_
_atom_site_label
_atom_site_type_symbol
_atom_site_fract_x
_atom_site_fract_y
_atom_site_fract_z
Zn1	Zn	1.114037	-0.316990	0.471313
Zn2	Zn	1.120235	-0.434885	0.331911
Zn3	Zn	0.996142	-0.310711	0.331926
Zn4	Zn	0.989805	-0.441139	0.471288
O5	O	1.055055	-0.375931	0.401610
O6	O	1.218784	-0.332639	0.452825
O7	O	1.109019	-0.413168	0.215249
O8	O	1.011840	-0.207620	0.350434
O9	O	1.223337	-0.419256	0.350407
O10	O	1.098456	-0.212233	0.452840
O11	O	1.017849	-0.321938	0.215261
O12	O	0.891377	-0.328003	0.350409
O13	O	1.001039	-0.429915	0.587955
O14	O	0.886722	-0.423827	0.452797
O15	O	1.092312	-0.338703	0.587974
O16	O	1.102874	-0.539638	0.350382
O17	O	1.007049	-0.544233	0.452782
C18	C	0.862103	-0.375913	0.401603
C19	C	0.779556	-0.375924	0.401620
C20	C	0.528224	-0.428132	0.457222
C21	C	0.581026	-0.442771	0.381129
C22	C	0.482436	-0.375947	0.401618
C23	C	0.576716	-0.361332	0.477708
C24	C	0.628421	-0.375937	0.401623
C25	C	0.534152	-0.390619	0.325484
C26	C	0.529836	-0.309151	0.422115
C27	C	0.582618	-0.323761	0.345968
C28	C	0.398338	-0.375954	0.401616
C29	C	0.712518	-0.375930	0.401616
C30	C	1.054966	-0.568883	0.401596
C31	C	1.054994	-0.651429	0.401618
C32	C	1.002934	-0.853405	0.457283
C33	C	0.988267	-0.899407	0.381211
C34	C	1.055067	-0.802560	0.401629
C35	C	1.069770	-0.903640	0.477710
C36	C	1.055135	-0.948546	0.401646
C37	C	1.040366	-0.847473	0.325516
C38	C	1.121898	-0.851705	0.422066
C39	C	1.107259	-0.897682	0.345941
C40	C	1.055026	-0.718462	0.401620
C41	C	1.055177	-1.032643	0.401646
C42	C	1.248760	-0.375950	0.401617
C43	C	1.331306	-0.375958	0.401620
C44	C	1.045277	-0.385707	0.619060
C45	C	1.041111	-0.389873	0.711724
C46	C	1.055164	-0.182227	0.401642
C47	C	1.055210	-0.099682	0.401655
C48	C	1.064837	-0.366140	0.185005
C49	C	1.069148	-0.361765	0.092342
C50	C	1.033476	-0.397462	0.881383
C51	C	1.076780	-0.354178	0.922688
C52	C	1.072532	-0.358400	1.017092
C53	C	1.037723	-0.393240	0.786970
H54	H	0.507363	-0.252684	0.439477
H55	H	0.993217	-0.437688	0.916917
H56	H	0.504426	-0.472297	0.504184
H57	H	0.515435	-0.403045	0.261120
F58	F	1.129420	-0.301608	0.876242
H59	H	0.606284	-0.279623	0.298893
F60	F	0.610381	-0.516598	0.358465
H61	H	0.595526	-0.348973	0.542054
F62	F	0.945235	-0.827879	0.518715
F63	F	0.914434	-0.926831	0.358617
H64	H	1.027891	-0.823004	0.261164
F65	F	1.164928	-0.923021	0.284365
H66	H	1.082179	-0.928198	0.542044
F67	F	1.195710	-0.824259	0.444687
