data_functionalizedCrystal
_audit_creation_method	'MofGen! by Chris Wilmer'
_symmetry_space_group_name_H-M	'P1'
_symmetry_Int_Tables_number	1
_symmetry_cell_setting	triclinic
loop_
_symmetry_equiv_pos_as_xyz
  x,y,z
_cell_length_a	14.853567
_cell_length_b	13.330367
_cell_length_c	14.853559
_cell_angle_alpha	90.002448
_cell_angle_beta	83.633192
_cell_angle_gamma	90.004582
loop_
_atom_site_label
_atom_site_type_symbol
_atom_site_fract_x
_atom_site_fract_y
_atom_site_fract_z
O1	O	1.196365	0.083349	0.117704
O2	O	0.933905	0.083366	0.131725
O3	O	1.072150	0.083356	-0.006515
O4	O	1.058121	0.083359	0.255945
O5	O	1.072130	-0.083491	-0.006519
O6	O	0.933885	-0.083481	0.131722
O7	O	1.196345	-0.083498	0.117701
Cu8	Cu	1.065113	-0.098724	0.124711
Cu9	Cu	1.065137	0.098592	0.124715
O10	O	1.058100	-0.083488	0.255942
C11	C	0.900307	-0.000055	0.131089
C12	C	0.800223	-0.000049	0.129185
N13	N	1.065103	-0.237505	0.124708
C14	C	0.387692	-0.000072	0.039019
C15	C	0.366406	-0.000070	0.203252
C16	C	0.460440	-0.000066	0.205042
C17	C	0.518104	-0.000065	0.123819
C18	C	0.481735	-0.000066	0.040806
C19	C	0.496816	-0.000055	0.288054
C20	C	0.590855	-0.000050	0.289847
C21	C	0.648521	-0.000056	0.208623
C22	C	0.612147	-0.000058	0.125607
C23	C	0.669811	-0.000057	0.044384
C24	C	0.633438	-0.000067	-0.038633
C25	C	0.539401	-0.000072	-0.040418
C26	C	0.742559	-0.000051	0.210408
C27	C	0.763854	-0.000050	0.046172
C28	C	1.003920	-0.710124	0.185904
C29	C	1.126379	-0.710101	0.063519
C30	C	1.126369	-0.605082	0.063516
C31	C	1.065134	-0.552580	0.124709
C32	C	1.003909	-0.605096	0.185905
C33	C	1.187598	-0.552559	0.002328
C34	C	1.187591	-0.447534	0.002323
C35	C	1.126351	-0.395029	0.063513
C36	C	1.065124	-0.447552	0.124710
C37	C	1.003889	-0.395050	0.185903
C38	C	0.942656	-0.447570	0.247097
C39	C	0.942670	-0.552592	0.247094
C40	C	1.126338	-0.290008	0.063515
C41	C	1.003879	-0.290021	0.185904
C42	C	1.229944	-0.000074	0.118338
C43	C	1.330027	-0.000074	0.120242
C44	C	1.071506	-0.000066	-0.040106
C45	C	1.069605	-0.000060	-0.140190
N46	N	1.065154	0.237374	0.124711
C47	C	1.061552	0.090889	-0.563363
C48	C	1.061530	-0.091014	-0.563361
C49	C	1.063323	-0.091015	-0.469328
C50	C	1.064230	-0.000062	-0.422308
C51	C	1.063343	0.090891	-0.469321
C52	C	1.064201	-0.181967	-0.422307
C53	C	1.065994	-0.181971	-0.328268
C54	C	1.066907	-0.091018	-0.281247
C55	C	1.066021	-0.000061	-0.328266
C56	C	1.066927	0.090892	-0.281245
C57	C	1.066047	0.181850	-0.328264
C58	C	1.064256	0.181845	-0.422300
C59	C	1.068698	-0.091012	-0.187210
C60	C	1.068718	0.090894	-0.187203
C61	C	1.058745	-0.000064	0.289532
C62	C	1.060646	-0.000063	0.389616
H63	H	0.810799	-0.000053	-0.019971
F64	F	0.694819	-0.000058	-0.125073
F65	F	1.069689	0.187700	-0.137169
H66	H	1.060839	0.164945	-0.601650
F67	F	0.435442	-0.000042	0.374490
H68	H	1.060786	-0.165063	-0.601650
H69	H	1.063539	0.255898	-0.460590
H70	H	0.892817	-0.595360	0.296917
H71	H	0.319450	-0.000063	0.269380
F72	F	0.938699	-0.234153	0.251031
F73	F	0.877493	-0.391682	0.312227
H74	H	0.509777	-0.000103	-0.108006
F75	F	0.348982	-0.000088	-0.049330
H76	H	0.772169	-0.000044	0.277999
H77	H	1.063458	-0.256015	-0.460597
F78	F	1.069632	-0.187809	-0.137174
F79	F	0.629557	-0.000041	0.378200
F80	F	0.938751	-0.766018	0.251025
F81	F	1.067014	0.278645	-0.278211
F82	F	1.252757	-0.391645	-0.062805
H83	H	1.066713	-0.256035	-0.289994
H84	H	1.176239	-0.752851	0.013702
H85	H	1.237458	-0.595309	-0.047490
H86	H	1.176197	-0.247250	0.013696
