data_functionalizedCrystal
_audit_creation_method	'MofGen! by Chris Wilmer'
_symmetry_space_group_name_H-M	'P1'
_symmetry_Int_Tables_number	1
_symmetry_cell_setting	triclinic
loop_
_symmetry_equiv_pos_as_xyz
  x,y,z
_cell_length_a	33.428889
_cell_length_b	33.428139
_cell_length_c	33.424847
_cell_angle_alpha	60.004234
_cell_angle_beta	60.008465
_cell_angle_gamma	59.994972
loop_
_atom_site_label
_atom_site_type_symbol
_atom_site_fract_x
_atom_site_fract_y
_atom_site_fract_z
O1	O	0.055565	-0.584504	0.488714
O2	O	0.020982	-0.455083	0.393778
O3	O	0.102943	-0.536959	0.393689
O4	O	-0.026396	-0.502628	0.488803
O5	O	0.130140	-0.509767	0.420792
O6	O	0.048179	-0.427891	0.420881
O7	O	0.082762	-0.557312	0.515817
Cu8	Cu	0.067954	-0.490119	0.470823
Cu9	Cu	0.035790	-0.522276	0.438771
O10	O	0.000801	-0.475436	0.515906
N11	N	0.090577	-0.467504	0.493370
N12	N	0.013171	-0.544895	0.416225
C13	C	0.143377	-0.280390	0.546067
C14	C	0.143515	-0.414755	0.680369
C15	C	0.143392	-0.414735	0.546069
C16	C	0.277766	-0.414702	0.545966
C17	C	0.158177	-0.324719	0.560828
C18	C	0.158255	-0.399967	0.636038
C19	C	0.233434	-0.399936	0.560773
C20	C	0.158186	-0.399955	0.560829
C21	C	0.124540	-0.223964	0.527278
C22	C	0.124565	-0.433545	0.527281
C23	C	0.177014	-0.381145	0.579617
C24	C	0.359814	-0.400540	0.502735
C25	C	0.411105	-0.417624	0.485606
C26	C	0.411136	-0.500620	0.517255
C27	C	0.359845	-0.483534	0.534385
C28	C	0.136887	-0.198305	0.476855
C29	C	0.119761	-0.147011	0.459777
C30	C	0.077945	-0.147038	0.543547
C31	C	0.095072	-0.198332	0.560625
C32	C	0.074134	-0.421169	0.539710
C33	C	0.057023	-0.438269	0.522625
C34	C	0.140770	-0.480120	0.480694
C35	C	0.157883	-0.463020	0.497773
C36	C	0.074339	-0.421208	0.762475
C37	C	0.057288	-0.438323	0.813768
C38	C	0.141075	-0.480183	0.813699
C39	C	0.158125	-0.463069	0.762404
C40	C	0.124756	-0.433580	0.736794
C41	C	0.334186	-0.433494	0.527123
C42	C	-0.173769	-0.597444	0.363037
C43	C	-0.039302	-0.597595	0.228856
C44	C	-0.039496	-0.597587	0.363300
C45	C	-0.039512	-0.731889	0.363237
C46	C	-0.129442	-0.612265	0.348329
C47	C	-0.054138	-0.612351	0.273187
C48	C	-0.054257	-0.687554	0.348440
C49	C	-0.054247	-0.612346	0.348477
C50	C	-0.230191	-0.578579	0.381758
C51	C	-0.020722	-0.578803	0.382168
C52	C	-0.073020	-0.631130	0.329609
C53	C	-0.053713	-0.813916	0.406386
C54	C	-0.036654	-0.865210	0.423504
C55	C	0.046338	-0.865293	0.391984
C56	C	0.029278	-0.813999	0.374865
C57	C	-0.255900	-0.590938	0.432169
C58	C	-0.307191	-0.573786	0.449185
C59	C	-0.307060	-0.531922	0.365377
C60	C	-0.255769	-0.549074	0.348360
C61	C	-0.033081	-0.528377	0.369764
C62	C	-0.016014	-0.511306	0.386922
C63	C	0.025770	-0.595083	0.428877
C64	C	0.008703	-0.612156	0.411725
C65	C	-0.032755	-0.528393	0.146761
C66	C	-0.015585	-0.511324	0.095468
C67	C	0.026262	-0.595106	0.095516
C68	C	0.009094	-0.612174	0.146811
C69	C	-0.020417	-0.578816	0.172432
C70	C	-0.020748	-0.788312	0.382068
N71	N	0.436037	-0.467415	0.493101
O72	O	0.592642	-0.471896	0.376066
O73	O	0.592838	-0.567146	0.505347
O74	O	0.592754	-0.566928	0.423360
O75	O	0.592727	-0.472113	0.458053
O76	O	0.511269	-0.539835	0.450606
O77	O	0.511353	-0.540052	0.532594
O78	O	0.511157	-0.444802	0.403312
Cu79	Cu	0.503815	-0.489954	0.470441
Cu80	Cu	0.600180	-0.521995	0.438219
O81	O	0.511242	-0.445020	0.485300
N82	N	0.667959	-0.544533	0.415554
N83	N	0.090544	-0.122107	0.493359
O84	O	-0.026406	0.034587	0.488773
O85	O	0.102877	0.034627	0.393499
O86	O	0.020848	0.034591	0.393771
O87	O	0.055623	0.034623	0.488500
O88	O	0.048051	-0.046899	0.420925
O89	O	0.130080	-0.046864	0.420653
O90	O	0.000796	-0.046903	0.515927
Cu91	Cu	0.067922	-0.054324	0.470769
Cu92	Cu	0.035752	0.042048	0.438656
O93	O	0.082825	-0.046867	0.515655
N94	N	0.013123	0.109830	0.416068
N95	N	0.090892	-0.467554	0.838649
O96	O	0.086330	-0.584488	0.995334
O97	O	-0.008902	-0.455160	0.995379
O98	O	-0.008679	-0.537172	0.995355
O99	O	0.086107	-0.502475	0.995358
O100	O	0.018452	-0.509990	0.913868
O101	O	0.018230	-0.427978	0.913891
O102	O	0.113461	-0.557306	0.913847
Cu103	Cu	0.068323	-0.490160	0.906429
Cu104	Cu	0.036237	-0.522306	1.002797
O105	O	0.113239	-0.475293	0.913870
N106	N	0.013667	-0.544916	1.070577
C107	C	0.031339	-0.425179	0.394250
C108	C	0.132837	-0.526572	0.394139
C109	C	0.072405	-0.587216	0.515344
C110	C	-0.029093	-0.485823	0.515455
C111	C	0.552119	-0.566716	0.535258
C112	C	0.552016	-0.566447	0.433726
C113	C	0.551873	-0.445232	0.373402
C114	C	0.551980	-0.445502	0.474933
C115	C	0.132731	-0.006013	0.393923
C116	C	0.031182	-0.006158	0.394293
C117	C	-0.029092	-0.006163	0.515469
C118	C	0.072491	-0.006119	0.515133
C119	C	-0.008451	-0.425276	0.954641
C120	C	-0.008170	-0.526833	0.954596
C121	C	0.113010	-0.587190	0.954585
C122	C	0.112735	-0.485627	0.954611
H123	H	0.047163	-0.397193	0.741627
O124	O	0.176957	-0.005821	0.358167
C125	C	0.198804	-0.047929	0.344817
H126	H	0.182808	-0.077591	0.376234
H127	H	0.191228	-0.038346	0.310832
C128	C	0.274155	-0.030374	0.295116
C129	C	0.254512	-0.066806	0.333704
H130	H	0.308518	-0.042018	0.288259
H131	H	0.259436	-0.002004	0.304108
H132	H	0.267837	-0.022392	0.266800
H133	H	0.260825	-0.074784	0.362021
H134	H	0.269233	-0.095179	0.324716
O135	O	-0.044061	-0.380925	0.954591
C136	C	-0.027329	-0.343984	0.912387
H137	H	0.014433	-0.357459	0.898309
H138	H	-0.041237	-0.334821	0.882838
C139	C	-0.097974	-0.281254	0.942514
C140	C	-0.046680	-0.297803	0.925224
H141	H	-0.109912	-0.252767	0.950431
H142	H	-0.109247	-0.306142	0.970946
H143	H	-0.109557	-0.273622	0.917886
H144	H	-0.035098	-0.305440	0.949854
H145	H	-0.035405	-0.272915	0.896796
O146	O	-0.043621	-0.535745	0.954532
C147	C	-0.025771	-0.583909	0.954516
H148	H	0.015963	-0.596807	0.939106
H149	H	-0.038170	-0.609266	0.993599
C150	C	-0.097157	-0.569003	0.941446
C151	C	-0.045899	-0.584843	0.922516
H152	H	-0.109575	-0.569580	0.921709
H153	H	-0.109184	-0.536555	0.941459
H154	H	-0.107483	-0.590135	0.974015
H155	H	-0.035575	-0.563707	0.889951
H156	H	-0.033871	-0.617288	0.922497
O157	O	0.081290	-0.631603	0.550857
C158	C	0.129445	-0.661983	0.533073
H159	H	0.142359	-0.648627	0.491340
H160	H	0.154799	-0.660628	0.545459
C161	C	0.114492	-0.731442	0.604549
C162	C	0.130352	-0.715041	0.553291
H163	H	0.115053	-0.764172	0.617022
H164	H	0.082050	-0.710975	0.616532
H165	H	0.135623	-0.730309	0.614864
H166	H	0.109218	-0.716168	0.542977
H167	H	0.162791	-0.735510	0.541307
H168	H	-0.066242	-0.478508	0.545321
H169	H	0.169984	-0.533889	0.364272
H170	H	-0.066220	-0.006175	0.545378
O171	O	0.148620	-0.631533	0.954588
C172	C	0.130990	-0.662020	0.954566
H173	H	0.089256	-0.648755	0.970004
H174	H	0.143430	-0.660685	0.915468
C175	C	0.202558	-0.731337	0.967544
C176	C	0.151300	-0.715047	0.986508
H177	H	0.215088	-0.764047	0.987245
H178	H	0.214437	-0.710797	0.967557
H179	H	0.212919	-0.730221	0.934962
H180	H	0.140940	-0.716158	1.019086
H181	H	0.139420	-0.735588	0.986501
H182	H	0.551974	-0.415718	0.482355
H183	H	0.079939	-0.006110	0.544893
H184	H	0.142514	-0.478200	0.954606
H185	H	0.016234	-0.428240	0.834672
O186	O	0.022316	-0.006265	0.358830
C187	C	0.010791	-0.048479	0.375734
H188	H	0.026624	-0.077962	0.406153
H189	H	-0.030700	-0.038953	0.390527
C190	C	0.013414	-0.031422	0.295766
C191	C	0.032864	-0.067635	0.333124
H192	H	0.027027	-0.043238	0.269482
H193	H	0.021177	-0.002981	0.284377
H194	H	-0.021161	-0.023487	0.308100
H195	H	0.067437	-0.075565	0.320791
H196	H	0.025107	-0.096079	0.344509
O197	O	0.173557	-0.508839	0.838501
C198	C	0.221713	-0.516079	0.804836
H199	H	0.221587	-0.510335	0.768281
H200	H	0.236406	-0.488776	0.799375
C201	C	0.254795	-0.575683	0.869715
C202	C	0.254640	-0.568632	0.824819
H203	H	0.275107	-0.608099	0.882042
H204	H	0.222351	-0.570804	0.892397
H205	H	0.267038	-0.552927	0.865158
H206	H	0.242392	-0.591383	0.829378
H207	H	0.287082	-0.573516	0.802138
O208	O	0.552271	-0.602405	0.579532
C209	C	0.594487	-0.613742	0.588288
H210	H	0.623945	-0.602867	0.551904
H211	H	0.584953	-0.592755	0.611970
C212	C	0.577505	-0.682520	0.659699
C213	C	0.613688	-0.669168	0.615011
H214	H	0.589348	-0.716709	0.676185
H215	H	0.549063	-0.674881	0.653801
H216	H	0.569564	-0.665028	0.679428
H217	H	0.621624	-0.686656	0.595281
H218	H	0.642132	-0.676811	0.620906
O219	O	0.207087	-0.475061	0.737383
C220	C	0.214983	-0.453625	0.686619
H221	H	0.181311	-0.445898	0.679642
H222	H	0.221804	-0.417838	0.672061
C223	C	0.301239	-0.498479	0.668825
C224	C	0.259883	-0.488993	0.660256
H225	H	0.328936	-0.520294	0.652562
H226	H	0.295920	-0.512919	0.703026
H227	H	0.306916	-0.468654	0.656694
H228	H	0.254203	-0.518816	0.672393
H229	H	0.265203	-0.474558	0.626057
O230	O	0.041703	-0.392521	0.568347
C231	C	-0.006478	-0.385273	0.575657
H232	H	-0.006412	-0.390999	0.544741
H233	H	-0.021143	-0.412583	0.612199
C234	C	-0.039465	-0.325696	0.614015
C235	C	-0.039385	-0.332725	0.576041
H236	H	-0.059765	-0.293283	0.614254
H237	H	-0.007005	-0.330581	0.609092
H238	H	-0.051685	-0.348458	0.644462
H239	H	-0.027159	-0.309967	0.545594
H240	H	-0.071843	-0.327835	0.580959
O241	O	0.551942	-0.601939	0.424880
C242	C	0.509719	-0.585086	0.413382
H243	H	0.480215	-0.554679	0.429221
H244	H	0.519209	-0.570292	0.371893
C245	C	0.526865	-0.665082	0.416018
C246	C	0.490628	-0.627739	0.435476
H247	H	0.515090	-0.691393	0.429644
H248	H	0.555314	-0.676436	0.423763
H249	H	0.534771	-0.652748	0.381445
H250	H	0.482727	-0.640072	0.470048
H251	H	0.462178	-0.616388	0.427738
O252	O	0.008039	-0.426192	0.534613
C253	C	-0.004402	-0.400370	0.491539
H254	H	0.024490	-0.382998	0.460711
H255	H	-0.006114	-0.426742	0.480745
C256	C	-0.090196	-0.381344	0.538573
C257	C	-0.054712	-0.360003	0.500711
H258	H	-0.121230	-0.356445	0.544231
H259	H	-0.081815	-0.398742	0.567594
H260	H	-0.091616	-0.403320	0.529574
H261	H	-0.053288	-0.338033	0.509714
H262	H	-0.063094	-0.342600	0.471693
H263	H	0.431972	-0.390789	0.465748
H264	H	0.167905	-0.504126	0.456671
H265	H	0.338981	-0.510371	0.554246
O266	O	0.206888	-0.475097	0.485667
C267	C	0.232625	-0.504765	0.455945
H268	H	0.208168	-0.523428	0.462513
H269	H	0.243636	-0.481084	0.415771
C270	C	0.308939	-0.521029	0.460808
C271	C	0.278902	-0.543954	0.468878
H272	H	0.337486	-0.545201	0.468784
H273	H	0.291600	-0.501039	0.480830
H274	H	0.318110	-0.501295	0.427330
H275	H	0.269727	-0.563682	0.502357
H276	H	0.296241	-0.563948	0.448862
H277	H	0.338923	-0.359792	0.496821
O278	O	0.435986	-0.549246	0.524366
C279	C	0.402367	-0.574669	0.549554
H280	H	0.365812	-0.552302	0.570590
H281	H	0.396887	-0.580605	0.522125
C282	C	0.467324	-0.652107	0.559867
C283	C	0.422428	-0.624637	0.585708
H284	H	0.479699	-0.682931	0.582167
H285	H	0.489974	-0.634980	0.542896
H286	H	0.462751	-0.657049	0.537011
H287	H	0.427003	-0.619691	0.608560
H288	H	0.399779	-0.641765	0.602684
O289	O	-0.331834	-0.503252	0.332869
C290	C	-0.298142	-0.496040	0.284725
H291	H	-0.261596	-0.501808	0.284882
H292	H	-0.292675	-0.523342	0.270022
C293	C	-0.362978	-0.436406	0.251590
C294	C	-0.318092	-0.443486	0.251783
H295	H	-0.375285	-0.403989	0.231268
H296	H	-0.385677	-0.441266	0.284025
H297	H	-0.358416	-0.459161	0.239338
H298	H	-0.322656	-0.420736	0.264040
H299	H	-0.295394	-0.438621	0.219348
O300	O	0.551735	-0.409569	0.329113
C301	C	0.509504	-0.398215	0.320374
H302	H	0.495479	-0.430625	0.343238
H303	H	0.479937	-0.364638	0.330956
C304	C	0.539481	-0.347582	0.237567
C305	C	0.522259	-0.387390	0.265646
H306	H	0.547348	-0.340902	0.203808
H307	H	0.567933	-0.355229	0.243455
H308	H	0.514839	-0.319606	0.246391
H309	H	0.546902	-0.415367	0.256827
H310	H	0.493811	-0.379747	0.259756
H311	H	0.129813	-0.126117	0.418717
O312	O	0.165488	-0.223126	0.444394
C313	C	0.172718	-0.189478	0.396226
H314	H	0.141783	-0.152922	0.396341
H315	H	0.209252	-0.184007	0.381503
C316	C	0.211049	-0.254392	0.363201
C317	C	0.173051	-0.209494	0.363341
H318	H	0.211257	-0.266739	0.342915
H319	H	0.206180	-0.277062	0.395652
H320	H	0.241490	-0.249827	0.350932
H321	H	0.142611	-0.214061	0.375615
H322	H	0.177915	-0.186825	0.330891
H323	H	0.085016	-0.219221	0.601683
O324	O	0.049311	-0.122213	0.576006
C325	C	0.042104	-0.155861	0.624174
H326	H	0.047840	-0.192427	0.624082
H327	H	0.069427	-0.161309	0.638839
C328	C	-0.017473	-0.090955	0.657220
C329	C	-0.010431	-0.135864	0.657107
H330	H	-0.049878	-0.078619	0.677535
H331	H	-0.012616	-0.068285	0.624768
H332	H	0.005300	-0.095501	0.669439
H333	H	-0.033200	-0.131316	0.644882
H334	H	-0.015293	-0.158533	0.689558
H335	H	-0.025639	-0.470264	0.074572
H336	H	-0.056788	-0.501226	0.167618
H337	H	0.050281	-0.622271	0.074658
H338	H	-0.026079	-0.470245	0.376824
H339	H	0.019144	-0.653235	0.167709
H340	H	-0.057039	-0.501216	0.345698
H341	H	0.049734	-0.622248	0.452940
H342	H	0.018765	-0.653217	0.421828
H343	H	0.087072	-0.886205	0.386121
O344	O	0.061358	-0.789185	0.351193
C345	C	0.096212	-0.801745	0.308926
H346	H	0.098612	-0.838977	0.313548
H347	H	0.084676	-0.772874	0.275665
C348	C	0.143677	-0.758442	0.295765
C349	C	0.146628	-0.804173	0.301444
H350	H	0.174776	-0.759938	0.291148
H351	H	0.120195	-0.749979	0.324240
H352	H	0.134062	-0.734388	0.268048
H353	H	0.156238	-0.828225	0.329164
H354	H	0.170114	-0.812641	0.272973
O355	O	-0.068744	-0.890009	0.447136
C356	C	-0.116556	-0.856339	0.449812
H357	H	-0.118547	-0.819783	0.446462
H358	H	-0.126084	-0.850880	0.418696
C359	C	-0.150779	-0.921215	0.503408
C360	C	-0.153225	-0.876318	0.499297
H361	H	-0.173399	-0.933539	0.533931
H362	H	-0.118567	-0.943900	0.501603
H363	H	-0.158718	-0.916660	0.477475
H364	H	-0.145280	-0.880875	0.525226
H365	H	-0.185437	-0.853634	0.501107
O366	O	-0.102288	-0.788902	0.413287
C367	C	-0.109183	-0.759245	0.367465
H368	H	-0.073890	-0.751606	0.338935
H369	H	-0.119272	-0.778994	0.356027
C370	C	-0.194109	-0.719872	0.406444
C371	C	-0.150763	-0.710487	0.371403
H372	H	-0.219759	-0.689796	0.408873
H373	H	-0.189465	-0.739853	0.437315
H374	H	-0.202510	-0.736331	0.396908
H375	H	-0.142360	-0.694033	0.380943
H376	H	-0.155407	-0.690501	0.340534
H377	H	-0.328125	-0.583847	0.490235
O378	O	-0.231130	-0.619575	0.464677
C379	C	-0.264822	-0.626810	0.512822
H380	H	-0.301362	-0.595856	0.512673
H381	H	-0.270304	-0.663332	0.527505
C382	C	-0.199980	-0.665211	0.545964
C383	C	-0.244858	-0.627190	0.545781
H384	H	-0.187666	-0.665447	0.566295
H385	H	-0.177281	-0.660338	0.513528
H386	H	-0.204555	-0.695641	0.558198
H387	H	-0.240282	-0.596760	0.533541
H388	H	-0.267557	-0.632057	0.578215
O389	O	0.022578	-0.380807	0.358688
C390	C	0.056201	-0.359040	0.345467
H391	H	0.070549	-0.375264	0.376864
H392	H	0.088102	-0.366428	0.311377
C393	C	0.012831	-0.283440	0.296098
C394	C	0.030451	-0.303364	0.334663
H395	H	-0.003052	-0.249097	0.289431
H396	H	-0.009821	-0.298105	0.305003
H397	H	0.039418	-0.289602	0.267694
H398	H	0.003863	-0.297208	0.363067
H399	H	0.053097	-0.288697	0.325762
H400	H	-0.234840	-0.539009	0.307312
