data_functionalizedCrystal
_audit_creation_method	'MofGen! by Chris Wilmer'
_symmetry_space_group_name_H-M	'P1'
_symmetry_Int_Tables_number	1
_symmetry_cell_setting	triclinic
loop_
_symmetry_equiv_pos_as_xyz
  x,y,z
_cell_length_a	10.654550
_cell_length_b	16.109301
_cell_length_c	15.186229
_cell_angle_alpha	90.000638
_cell_angle_beta	89.996404
_cell_angle_gamma	96.026794
loop_
_atom_site_label
_atom_site_type_symbol
_atom_site_fract_x
_atom_site_fract_y
_atom_site_fract_z
O1	O	0.161419	-1.104090	-0.073173
O2	O	0.494752	-0.770757	0.260161
O3	O	0.828086	-0.437424	0.593494
O4	O	0.181507	-0.862148	-0.073187
O5	O	0.514841	-0.528814	0.260147
O6	O	0.848174	-0.195481	0.593480
O7	O	-0.011352	-0.988682	-0.073174
O8	O	0.321982	-0.655348	0.260160
O9	O	0.655315	-0.322015	0.593493
O10	O	0.354278	-0.977556	-0.073185
O11	O	0.687611	-0.644223	0.260148
O12	O	1.020944	-0.310890	0.593481
O13	O	-0.011354	-0.988673	0.073284
O14	O	0.321979	-0.655340	0.406617
O15	O	0.655312	-0.322007	0.739950
O16	O	0.181504	-0.862139	0.073271
O17	O	0.514838	-0.528806	0.406604
O18	O	0.848171	-0.195473	0.739937
O19	O	0.161416	-1.104082	0.073285
O20	O	0.494749	-0.770748	0.406618
O21	O	0.828083	-0.437415	0.739951
Zn22	Zn	0.171460	-0.983109	0.096531
Zn23	Zn	0.504793	-0.649776	0.429864
Zn24	Zn	0.838127	-0.316443	0.763198
Zn25	Zn	0.171463	-0.983120	-0.096433
Zn26	Zn	0.504797	-0.649787	0.236900
Zn27	Zn	0.838130	-0.316454	0.570234
O28	O	0.354275	-0.977548	0.073272
O29	O	0.687608	-0.644215	0.406605
O30	O	1.020942	-0.310881	0.739938
C31	C	0.180692	-0.831164	0.000040
C32	C	0.514026	-0.497831	0.333374
C33	C	0.847359	-0.164497	0.666707
C34	C	0.178253	-0.738854	0.000035
C35	C	0.511586	-0.405521	0.333368
C36	C	0.844919	-0.072187	0.666702
C37	C	-0.058140	-0.987861	0.000054
C38	C	0.275193	-0.654527	0.333388
C39	C	0.608527	-0.321194	0.666721
C40	C	-0.197550	-0.985417	0.000053
C41	C	0.135783	-0.652083	0.333386
C42	C	0.469117	-0.318750	0.666720
C43	C	0.162231	-1.135066	0.000056
C44	C	0.495565	-0.801732	0.333389
C45	C	0.828898	-0.468399	0.666722
C46	C	0.164671	-1.227376	0.000055
C47	C	0.498004	-0.894042	0.333389
C48	C	0.831337	-0.560709	0.666722
C49	C	-0.278046	-1.059918	0.000057
C50	C	0.055287	-0.726585	0.333390
C51	C	0.388620	-0.393251	0.666724
C52	C	-0.409036	-1.057616	0.000046
C53	C	-0.075703	-0.724283	0.333379
C54	C	0.257631	-0.390950	0.666713
C55	C	-0.379020	-0.906306	0.000031
C56	C	-0.045687	-0.572973	0.333364
C57	C	0.287647	-0.239639	0.666698
C58	C	-0.248033	-0.908608	0.000035
C59	C	0.085300	-0.575275	0.333369
C60	C	0.418634	-0.241942	0.666702
C61	C	-0.606070	-1.145364	-0.051264
C62	C	-0.272737	-0.812031	0.282069
C63	C	0.060596	-0.478697	0.615402
C64	C	-0.686572	-1.219869	-0.051245
C65	C	-0.353238	-0.886536	0.282088
C66	C	-0.019905	-0.553203	0.615421
C67	C	-0.657317	-1.287407	0.000083
C68	C	-0.323984	-0.954074	0.333416
C69	C	0.009350	-0.620741	0.666750
C70	C	-0.547563	-1.280443	0.051414
C71	C	-0.214230	-0.947110	0.384747
C72	C	0.119103	-0.613777	0.718080
C73	C	-0.467068	-1.205937	0.051402
C74	C	-0.133735	-0.872603	0.384736
C75	C	0.199598	-0.539270	0.718069
C76	C	-0.496322	-1.138402	0.000054
C77	C	-0.162988	-0.805068	0.333387
C78	C	0.170345	-0.471735	0.666720
C79	C	-0.050997	-0.820866	0.051353
C80	C	0.282336	-0.487533	0.384687
C81	C	0.615669	-0.154199	0.718020
C82	C	0.029500	-0.746359	0.051348
C83	C	0.362834	-0.413025	0.384682
C84	C	0.696167	-0.079692	0.718015
C85	C	0.000249	-0.678814	0.000025
C86	C	0.333583	-0.345480	0.333359
C87	C	0.666916	-0.012147	0.666692
C88	C	-0.109507	-0.685769	-0.051292
C89	C	0.223827	-0.352436	0.282041
C90	C	0.557160	-0.019103	0.615375
C91	C	-0.190004	-0.760277	-0.051287
C92	C	0.143329	-0.426943	0.282046
C93	C	0.476662	-0.093610	0.615379
C94	C	-0.160745	-0.827822	0.000034
C95	C	0.172589	-0.494489	0.333367
C96	C	0.505922	-0.161156	0.666701
C97	C	0.401063	-0.978369	0.000042
C98	C	0.734397	-0.645036	0.333375
C99	C	1.067730	-0.311702	0.666708
C100	C	0.540473	-0.980813	0.000037
C101	C	0.873807	-0.647480	0.333371
C102	C	1.207140	-0.314146	0.666704
N103	N	0.171457	-0.983108	0.228224
N104	N	0.504790	-0.649774	0.561557
N105	N	0.838123	-0.316441	0.894890
C106	C	0.287019	-0.517228	0.000042
C107	C	0.620352	-0.183895	0.333375
C108	C	0.953685	0.149438	0.666708
C109	C	0.284717	-0.430494	0.000048
C110	C	0.618050	-0.097161	0.333381
C111	C	0.951383	0.236172	0.666714
C112	C	0.055896	-0.449008	0.000051
C113	C	0.389229	-0.115675	0.333385
C114	C	0.722563	0.217659	0.666718
C115	C	0.058199	-0.535741	0.000052
C116	C	0.391533	-0.202407	0.333385
C117	C	0.724866	0.130926	0.666718
C118	C	0.173764	-0.569848	0.000043
C119	C	0.507098	-0.236515	0.333376
C120	C	0.840431	0.096819	0.666709
C121	C	0.169159	-0.396382	0.000048
C122	C	0.502492	-0.063048	0.333381
C123	C	0.835826	0.270285	0.666714
C124	C	0.166662	-0.302341	0.000054
C125	C	0.499995	0.030993	0.333387
C126	C	0.833329	0.364326	0.666721
C127	C	0.176262	-0.663895	0.000038
C128	C	0.509595	-0.330562	0.333371
C129	C	0.842929	0.002772	0.666705
N130	N	0.171457	-0.983129	-0.228126
N131	N	0.504790	-0.649795	0.105208
N132	N	0.838123	-0.316462	0.438541
C133	C	0.086088	-1.039156	0.453952
C134	C	0.419421	-0.705823	0.787285
C135	C	0.752754	-0.372490	1.120619
C136	C	0.086085	-1.039159	0.546142
C137	C	0.419418	-0.705826	0.879475
C138	C	0.752751	-0.372492	1.212808
C139	C	0.256830	-0.927074	0.546140
C140	C	0.590163	-0.593741	0.879473
C141	C	0.923497	-0.260407	1.212806
C142	C	0.256826	-0.927068	0.453952
C143	C	0.590159	-0.593735	0.787285
C144	C	0.923493	-0.260401	1.120618
C145	C	0.171456	-0.983114	0.407860
C146	C	0.504790	-0.649780	0.741194
C147	C	0.838123	-0.316447	1.074527
C148	C	0.171457	-0.983122	0.592238
C149	C	0.504791	-0.649789	0.925571
C150	C	0.838124	-0.316456	1.258905
C151	C	0.171455	-0.983125	0.692194
C152	C	0.504788	-0.649791	1.025527
C153	C	0.838121	-0.316458	1.358861
C154	C	0.171457	-0.983111	0.307898
C155	C	0.504790	-0.649777	0.641231
C156	C	0.838123	-0.316444	0.974564
H157	H	-0.236948	-1.122460	0.000069
H158	H	0.096385	-0.789127	0.333403
H159	H	0.429719	-0.455793	0.666736
F160	F	-0.062348	-0.591746	0.000058
F161	F	0.270985	-0.258413	0.333392
F162	F	0.604319	0.074920	0.666725
H163	H	-0.133341	-0.630761	-0.093065
H164	H	0.199992	-0.297428	0.240268
H165	H	0.533326	0.035905	0.573601
H166	H	0.016573	-1.084791	0.416427
H167	H	0.349906	-0.751458	0.749760
H168	H	0.683239	-0.418124	1.083093
H169	H	-0.629892	-1.090377	-0.093073
H170	H	-0.296559	-0.757044	0.240260
H171	H	0.036775	-0.423711	0.573594
H172	H	-0.038193	-0.421227	0.000064
H173	H	0.295140	-0.087894	0.333397
H174	H	0.628474	0.245440	0.666731
H175	H	0.381119	-0.544996	0.000041
H176	H	0.714452	-0.211662	0.333374
H177	H	1.047786	0.121671	0.666708
H178	H	0.016568	-1.084793	0.583667
H179	H	0.349902	-0.751459	0.917001
H180	H	0.683235	-0.418126	1.250334
F181	F	0.347686	-0.867414	0.404893
F182	F	0.681020	-0.534080	0.738227
F183	F	1.014353	-0.200747	1.071560
F184	F	-0.432759	-0.824566	0.000012
F185	F	-0.099426	-0.491232	0.333345
F186	F	0.233907	-0.157899	0.666679
F187	F	0.405258	-0.374496	0.000048
F188	F	0.738591	-0.041162	0.333381
F189	F	1.071924	0.292171	0.666715
H190	H	-0.377712	-1.200266	0.093198
H191	H	-0.044379	-0.866932	0.426531
H192	H	0.288955	-0.533599	0.759864
F193	F	-0.516443	-1.352326	0.106050
F194	F	-0.183110	-1.018993	0.439384
F195	F	0.150224	-0.685660	0.772717
H196	H	0.326338	-0.881444	0.583676
H197	H	0.659671	-0.548110	0.917010
H198	H	0.993005	-0.214777	1.250343
F199	F	-0.803375	-1.227278	-0.105876
F200	F	-0.470042	-0.893945	0.227457
F201	F	-0.136708	-0.560612	0.560790
F202	F	-0.306819	-0.767678	-0.105905
F203	F	0.026514	-0.434345	0.227428
F204	F	0.359848	-0.101011	0.560762
F205	F	-0.743001	-1.366698	0.000107
F206	F	-0.409668	-1.033365	0.333440
F207	F	-0.076335	-0.700032	0.666773
F208	F	0.085918	-0.599512	0.000034
F209	F	0.419251	-0.266178	0.333367
F210	F	0.752584	0.067155	0.666700
H211	H	0.118862	-0.740696	0.093145
H212	H	0.452196	-0.407363	0.426478
H213	H	0.785529	-0.074030	0.759812
H214	H	-0.027152	-0.875873	0.093129
H215	H	0.306182	-0.542539	0.426462
H216	H	0.639515	-0.209206	0.759795
