data_functionalizedCrystal
_audit_creation_method	'MofGen! by Chris Wilmer'
_symmetry_space_group_name_H-M	'P1'
_symmetry_Int_Tables_number	1
_symmetry_cell_setting	triclinic
loop_
_symmetry_equiv_pos_as_xyz
  x,y,z
_cell_length_a	19.188930
_cell_length_b	19.188930
_cell_length_c	18.266242
_cell_angle_alpha	90.011475
_cell_angle_beta	89.977082
_cell_angle_gamma	96.855221
loop_
_atom_site_label
_atom_site_type_symbol
_atom_site_fract_x
_atom_site_fract_y
_atom_site_fract_z
O1	O	0.926149	-0.087169	-0.061124
O2	O	1.426149	0.412831	0.438876
O3	O	0.722838	-0.098903	-0.061075
O4	O	1.222838	0.401097	0.438925
O5	O	0.830361	0.008620	-0.061087
O6	O	1.330361	0.508620	0.438913
O7	O	0.818627	-0.194691	-0.061113
O8	O	1.318627	0.305309	0.438887
O9	O	0.830343	0.008625	0.060675
O10	O	1.330343	0.508625	0.560675
O11	O	0.722820	-0.098897	0.060687
O12	O	1.222820	0.401103	0.560687
O13	O	0.926131	-0.087163	0.060638
O14	O	1.426131	0.412837	0.560638
Zn15	Zn	0.824473	-0.093029	0.079994
Zn16	Zn	1.324473	0.406971	0.579994
Zn17	Zn	0.824497	-0.093037	-0.080432
Zn18	Zn	1.324497	0.406963	0.419568
O19	O	0.818608	-0.194686	0.060649
O20	O	1.318608	0.305314	0.560649
C21	C	0.696818	-0.098520	-0.000188
C22	C	1.196818	0.401480	0.499812
C23	C	0.619313	-0.097380	-0.000169
C24	C	1.119313	0.402620	0.499831
C25	C	0.829972	0.034634	-0.000204
C26	C	1.329972	0.534634	0.499796
C27	C	0.828831	0.112138	-0.000197
C28	C	1.328831	0.612138	0.499803
C29	C	0.574389	-0.160470	-0.000188
C30	C	1.074389	0.339530	0.499812
C31	C	0.501566	-0.159399	-0.000196
C32	C	1.001566	0.340601	0.499804
C33	C	0.473669	-0.095233	-0.000199
C34	C	0.973669	0.404767	0.499801
C35	C	0.518603	-0.032133	-0.000175
C36	C	1.018603	0.467867	0.499825
C37	C	0.591425	-0.033207	-0.000160
C38	C	1.091425	0.466793	0.499840
N39	N	0.365695	-0.046188	-0.041663
N40	N	0.865695	0.453812	0.458337
N41	N	0.296516	-0.045172	-0.041679
N42	N	0.796516	0.454828	0.458321
C43	C	0.254260	-0.091994	-0.000243
C44	C	0.754260	0.408006	0.499757
N45	N	0.283795	-0.139881	0.041200
N46	N	0.783795	0.360119	0.541200
N47	N	0.352980	-0.140899	0.041213
N48	N	0.852980	0.359101	0.541213
C49	C	0.394707	-0.094062	-0.000215
C50	C	0.894707	0.405938	0.499785
C51	C	0.130372	-0.153928	-0.000270
C52	C	0.630372	0.346072	0.499730
C53	C	0.057547	-0.152853	-0.000274
C54	C	0.557547	0.347147	0.499726
C55	C	0.074586	-0.025586	-0.000261
C56	C	0.574586	0.474414	0.499739
C57	C	0.147409	-0.026662	-0.000250
C58	C	0.647409	0.473338	0.499750
C59	C	0.175298	-0.090835	-0.000258
C60	C	0.675298	0.409165	0.499742
C61	C	0.952151	-0.087546	-0.000252
C62	C	1.452151	0.412454	0.499748
C63	C	1.029656	-0.088687	-0.000276
C64	C	1.529656	0.411313	0.499724
C65	C	0.818997	-0.220700	-0.000236
C66	C	1.318997	0.279300	0.499764
C67	C	0.820138	-0.298204	-0.000247
C68	C	1.320138	0.201796	0.499753
N69	N	0.824461	-0.093024	0.189481
N70	N	1.324461	0.406976	0.689481
C71	C	0.891922	0.157062	-0.000209
C72	C	1.391922	0.657062	0.499791
C73	C	0.890850	0.229886	-0.000220
C74	C	1.390850	0.729886	0.499780
C75	C	0.826684	0.257782	-0.000206
C76	C	1.326684	0.757782	0.499794
C77	C	0.763585	0.212849	-0.000198
C78	C	1.263585	0.712849	0.499802
C79	C	0.764658	0.140026	-0.000194
C80	C	1.264658	0.640026	0.499806
N81	N	0.777631	0.365789	0.041244
N82	N	1.277631	0.865789	0.541244
N83	N	0.776615	0.434968	0.041242
N84	N	1.276615	0.934968	0.541242
C85	C	0.823446	0.477191	-0.000220
C86	C	1.323446	0.977191	0.499780
N87	N	0.871341	0.447624	-0.041669
N88	N	1.371341	0.947624	0.458331
N89	N	0.872359	0.378439	-0.041664
N90	N	1.372359	0.878439	0.458336
C91	C	0.825513	0.336745	-0.000210
C92	C	1.325513	0.836745	0.499790
C93	C	0.885379	0.601079	-0.000245
C94	C	1.385379	1.101079	0.499755
C95	C	0.884305	0.673904	-0.000261
C96	C	1.384305	1.173904	0.499739
C97	C	0.757038	0.656865	-0.000231
C98	C	1.257038	1.156865	0.499769
C99	C	0.758114	0.584042	-0.000222
C100	C	1.258114	1.084042	0.499778
C101	C	0.822287	0.556154	-0.000226
C102	C	1.322287	1.056154	0.499774
N103	N	0.824513	-0.093037	-0.189919
N104	N	1.324513	0.406963	0.310081
C105	C	0.872088	-0.045436	0.227785
C106	C	1.372088	0.454564	0.727785
C107	C	0.872092	-0.045433	0.304430
C108	C	1.372092	0.454567	0.804430
C109	C	0.824477	-0.093030	0.342768
C110	C	1.324477	0.406970	0.842768
C111	C	0.776841	-0.140621	0.304455
C112	C	1.276841	0.359379	0.804455
C113	C	0.776834	-0.140618	0.227812
C114	C	1.276834	0.359382	0.727812
N115	N	0.815401	-0.154837	0.463094
N116	N	1.315401	0.345163	0.963094
N117	N	0.815413	-0.154838	0.535902
N118	N	1.315413	0.345162	1.035902
C119	C	0.824496	-0.093040	0.573691
C120	C	1.324496	0.406960	1.073691
N121	N	0.833582	-0.031239	0.535920
N122	N	1.333582	0.468761	1.035920
N123	N	0.833574	-0.031240	0.463106
N124	N	1.333574	0.468760	0.963106
C125	C	0.824480	-0.093038	0.425875
C126	C	1.324480	0.406962	0.925875
C127	C	0.872131	-0.045444	0.695101
C128	C	1.372131	0.454556	1.195101
C129	C	0.872130	-0.045440	0.771748
C130	C	1.372130	0.454560	1.271748
C131	C	0.776882	-0.140634	0.771772
C132	C	1.276882	0.359366	1.271772
C133	C	0.776879	-0.140632	0.695127
C134	C	1.276879	0.359368	1.195127
C135	C	0.824507	-0.093038	0.656796
C136	C	1.324507	0.406962	1.156796
H137	H	0.464982	-0.210776	-0.000210
H138	H	0.964982	0.289224	0.499790
H139	H	0.944176	0.134360	-0.000214
H140	H	1.444176	0.634360	0.499786
H141	H	0.020970	-0.204232	-0.000285
H142	H	0.520970	0.295768	0.499715
C143	C	0.682688	-0.234714	0.235536
C144	C	1.182688	0.265286	0.735536
C145	C	0.724484	-0.192936	0.185704
C146	C	1.224484	0.307064	0.685704
H147	H	0.650374	-0.267016	0.209537
H148	H	1.150374	0.232984	0.709537
H149	H	0.657667	-0.205713	0.265445
H150	H	1.157667	0.294287	0.765445
H151	H	0.711681	-0.259755	0.265412
H152	H	1.211681	0.240245	0.765412
H153	H	0.695492	-0.167890	0.155831
H154	H	1.195492	0.332110	0.655831
H155	H	0.749507	-0.221941	0.155782
H156	H	1.249507	0.278059	0.655782
C157	C	-0.029475	0.032568	-0.000286
C158	C	0.470525	0.532568	0.499714
C159	C	0.043931	0.044948	-0.000268
C160	C	0.543931	0.544948	0.499732
H161	H	-0.048401	0.076115	-0.000294
H162	H	0.451599	0.576115	0.499706
H163	H	-0.044929	0.006609	0.042168
H164	H	0.455071	0.506609	0.542168
H165	H	-0.044879	0.006594	-0.042754
H166	H	0.455121	0.506594	0.457246
H167	H	0.059335	0.070917	0.042203
H168	H	0.559335	0.570917	0.542203
H169	H	0.059391	0.070918	-0.042727
H170	H	0.559391	0.570918	0.457273
H171	H	0.183988	0.024713	-0.000238
H172	H	0.683988	0.524713	0.499762
H173	H	0.495885	0.020111	-0.000188
H174	H	0.995885	0.520111	0.499812
H175	H	0.738100	-0.179386	0.663938
H176	H	1.238100	0.320614	1.163938
H177	H	0.937632	0.578372	-0.000251
H178	H	1.437632	1.078372	0.499749
C179	C	0.735508	-0.261610	0.795354
C180	C	1.235508	0.238390	1.295354
C181	C	0.724540	-0.192954	0.813903
C182	C	1.224540	0.307046	1.313903
H183	H	0.703188	-0.293907	0.821364
H184	H	1.203188	0.206093	1.321364
H185	H	0.782074	-0.269074	0.807893
H186	H	1.282074	0.230926	1.307893
H187	H	0.728687	-0.268411	0.744224
H188	H	1.228687	0.231589	1.244224
H189	H	0.731365	-0.186151	0.865032
H190	H	1.231365	0.313849	1.365032
H191	H	0.677962	-0.185487	0.801368
H192	H	1.177962	0.314513	1.301368
C193	C	0.138306	-0.262741	-0.062865
C194	C	0.638306	0.237259	0.437135
C195	C	0.161034	-0.224463	-0.000268
C196	C	0.661034	0.275537	0.499732
H197	H	0.157232	-0.306288	-0.062859
H198	H	0.657232	0.193712	0.437141
H199	H	0.153765	-0.236777	-0.105314
H200	H	0.653765	0.263223	0.394686
H201	H	0.088505	-0.271128	-0.062865
H202	H	0.588505	0.228872	0.437135
H203	H	0.210835	-0.216072	-0.000271
H204	H	0.710835	0.283928	0.499729
H205	H	0.145579	-0.250433	0.042193
H206	H	0.645579	0.249567	0.542193
H207	H	0.597091	-0.212725	-0.000196
H208	H	1.097091	0.287275	0.499804
H209	H	0.942228	0.266470	-0.000233
H210	H	1.442228	0.766470	0.499767
C211	C	0.705432	0.316916	-0.000179
C212	C	1.205432	0.816916	0.499821
C213	C	0.693052	0.243510	-0.000178
C214	C	1.193052	0.743510	0.499822
H215	H	0.661886	0.335842	-0.000165
H216	H	1.161886	0.835842	0.499835
H217	H	0.731403	0.332337	-0.042644
H218	H	1.231403	0.832337	0.457356
H219	H	0.731395	0.332350	0.042279
H220	H	1.231395	0.832350	0.542279
H221	H	0.667093	0.228075	-0.042640
H222	H	1.167093	0.728075	0.457360
H223	H	0.667070	0.228082	0.042290
H224	H	1.167070	0.728082	0.542290
H225	H	0.713281	0.103448	-0.000184
H226	H	1.213281	0.603448	0.499816
H227	H	0.706738	0.547464	-0.000208
H228	H	1.206738	1.047464	0.499792
H229	H	0.910910	-0.006688	0.663892
H230	H	1.410910	0.493312	1.163892
H231	H	0.935683	0.710481	-0.000274
H232	H	1.435683	1.210481	0.499726
C233	C	0.648222	0.664775	0.062385
C234	C	1.148222	1.164775	0.562385
C235	C	0.686503	0.687520	-0.000217
C236	C	1.186503	1.187520	0.499783
H237	H	0.604674	0.683699	0.062387
H238	H	1.104674	1.183699	0.562387
H239	H	0.674182	0.680224	0.104831
H240	H	1.174182	1.180224	0.604831
H241	H	0.639837	0.614974	0.062383
H242	H	1.139837	1.114974	0.562383
H243	H	0.694893	0.737320	-0.000213
H244	H	1.194893	1.237320	0.499787
H245	H	0.660537	0.672074	-0.042674
H246	H	1.160537	1.172074	0.457326
H247	H	0.910868	-0.006681	0.196579
H248	H	1.410868	0.493319	0.696579
H249	H	0.628003	0.018171	-0.000145
H250	H	1.128003	0.518171	0.499855
H251	H	0.910877	-0.006680	0.335623
H252	H	1.410877	0.493320	0.835623
C253	C	0.734570	-0.182899	0.421956
C254	C	1.234570	0.317101	0.921956
C255	C	0.724503	-0.192943	0.346594
C256	C	1.224503	0.307057	0.846594
H257	H	0.702259	-0.215204	0.447968
H258	H	1.202259	0.284796	0.947968
H259	H	0.727133	-0.136326	0.434531
H260	H	1.227133	0.363674	0.934531
H261	H	0.781146	-0.190370	0.434480
H262	H	1.281146	0.309630	0.934480
H263	H	0.677929	-0.185467	0.334069
H264	H	1.177929	0.314533	0.834069
H265	H	0.731935	-0.239527	0.334014
H266	H	1.231935	0.260473	0.834014
C267	C	0.966291	0.048639	0.764021
C268	C	1.466291	0.548639	1.264021
C269	C	0.924489	0.006870	0.813854
C270	C	1.424489	0.506870	1.313854
H271	H	0.998619	0.080929	0.790018
H272	H	1.498619	0.580929	1.290018
H273	H	0.937310	0.073687	0.734150
H274	H	1.437310	0.573687	1.234150
H275	H	0.991304	0.019625	0.734105
H276	H	1.491304	0.519625	1.234105
H277	H	0.899471	0.035883	0.843767
H278	H	1.399471	0.535883	1.343767
H279	H	0.953473	-0.018181	0.843737
H280	H	1.453473	0.481819	1.343737
