data_functionalizedCrystal
_audit_creation_method	'MofGen! by Chris Wilmer'
_symmetry_space_group_name_H-M	'P1'
_symmetry_Int_Tables_number	1
_symmetry_cell_setting	triclinic
loop_
_symmetry_equiv_pos_as_xyz
  x,y,z
_cell_length_a	27.732048
_cell_length_b	27.732048
_cell_length_c	26.809956
_cell_angle_alpha	90.000636
_cell_angle_beta	90.003258
_cell_angle_gamma	82.642655
loop_
_atom_site_label
_atom_site_type_symbol
_atom_site_fract_x
_atom_site_fract_y
_atom_site_fract_z
O1	O	-0.640931	-0.057510	-0.041421
O2	O	-0.307598	0.275823	0.291913
O3	O	0.025736	0.609157	0.625246
O4	O	-0.500138	-0.066256	-0.041436
O5	O	-0.166804	0.267078	0.291897
O6	O	0.166529	0.600411	0.625230
O7	O	-0.574907	0.008514	-0.041419
O8	O	-0.241574	0.341847	0.291915
O9	O	0.091760	0.675180	0.625248
O10	O	-0.566162	-0.132280	-0.041439
O11	O	-0.232828	0.201054	0.291895
O12	O	0.100505	0.534387	0.625228
O13	O	-0.574893	0.008502	0.041541
O14	O	-0.241560	0.341836	0.374874
O15	O	0.091774	0.675169	0.708207
O16	O	-0.500123	-0.066267	0.041523
O17	O	-0.166790	0.267066	0.374856
O18	O	0.166543	0.600400	0.708189
O19	O	-0.640917	-0.057522	0.041539
O20	O	-0.307584	0.275812	0.374872
O21	O	0.025750	0.609145	0.708205
Zn22	Zn	-0.570518	-0.061896	0.054702
Zn23	Zn	-0.237185	0.271437	0.388036
Zn24	Zn	0.096149	0.604771	0.721369
Zn25	Zn	-0.570536	-0.061881	-0.054600
Zn26	Zn	-0.237203	0.271452	0.278733
Zn27	Zn	0.096130	0.604786	0.612067
O28	O	-0.566147	-0.132291	0.041521
O29	O	-0.232814	0.201042	0.374854
O30	O	0.100519	0.534376	0.708187
C31	C	-0.574716	0.026515	0.000062
C32	C	-0.241383	0.359848	0.333396
C33	C	0.091950	0.693182	0.666729
C34	C	-0.574164	0.080170	0.000066
C35	C	-0.240830	0.413503	0.333400
C36	C	0.092503	0.746837	0.666733
C37	C	-0.482124	-0.066078	0.000041
C38	C	-0.148790	0.267256	0.333375
C39	C	0.184543	0.600589	0.666708
C40	C	-0.428469	-0.065525	0.000036
C41	C	-0.095135	0.267808	0.333369
C42	C	0.238198	0.601142	0.666702
C43	C	-0.658931	-0.057699	0.000060
C44	C	-0.325598	0.275634	0.333393
C45	C	0.007736	0.608967	0.666726
C46	C	-0.712586	-0.058252	0.000062
C47	C	-0.379252	0.275081	0.333395
C48	C	-0.045919	0.608414	0.666729
C49	C	-0.089654	-0.106229	0.000051
C50	C	0.243680	0.227105	0.333385
C51	C	0.577013	0.560438	0.666718
C52	C	0.112006	-0.104178	0.000056
C53	C	0.445339	0.229156	0.333390
C54	C	0.778673	0.562489	0.666723
O55	O	0.143262	-0.141398	0.000073
O56	O	0.476595	0.191935	0.333406
O57	O	0.809928	0.525268	0.666739
N58	N	0.131130	-0.059843	0.000062
N59	N	0.464463	0.273491	0.333395
N60	N	0.797796	0.606824	0.666728
C61	C	0.099835	-0.016017	0.000069
C62	C	0.433168	0.317316	0.333402
C63	C	0.766502	0.650650	0.666736
O64	O	0.120728	0.021740	0.000079
O65	O	0.454062	0.355073	0.333412
O66	O	0.787395	0.688407	0.666746
C67	C	-0.101824	-0.018068	0.000068
C68	C	0.231510	0.315265	0.333401
C69	C	0.564843	0.648598	0.666735
C70	C	-0.120944	-0.062407	0.000057
C71	C	0.212389	0.270927	0.333391
C72	C	0.545722	0.604260	0.666724
C73	C	-0.108775	-0.150563	0.000042
C74	C	0.224558	0.182770	0.333375
C75	C	0.557892	0.516103	0.666708
C76	C	-0.159187	-0.151076	0.000038
C77	C	0.174147	0.182258	0.333371
C78	C	0.507480	0.515591	0.666704
C79	C	-0.190477	-0.107253	0.000044
C80	C	0.142856	0.226080	0.333377
C81	C	0.476189	0.559413	0.666710
C82	C	-0.171356	-0.062919	0.000054
C83	C	0.161977	0.270415	0.333387
C84	C	0.495310	0.603748	0.666720
C85	C	-0.133117	0.025757	0.000079
C86	C	0.200216	0.359090	0.333412
C87	C	0.533549	0.692423	0.666746
C88	C	-0.183535	0.025240	0.000080
C89	C	0.149799	0.358573	0.333413
C90	C	0.483132	0.691906	0.666747
C91	C	-0.202655	-0.019098	0.000069
C92	C	0.130678	0.314235	0.333403
C93	C	0.464011	0.647568	0.666736
C94	C	-0.253059	-0.019609	0.000056
C95	C	0.080275	0.313724	0.333389
C96	C	0.413608	0.647058	0.666722
N97	N	-0.272183	-0.063944	0.000050
N98	N	0.061151	0.269389	0.333384
N99	N	0.394484	0.602723	0.666717
C100	C	-0.240892	-0.107766	0.000044
C101	C	0.092441	0.225567	0.333378
C102	C	0.425775	0.558900	0.666711
C103	C	0.205709	-0.014943	0.000069
C104	C	0.539043	0.318390	0.333402
C105	C	0.872376	0.651724	0.666735
C106	C	0.256124	-0.014430	0.000068
C107	C	0.589457	0.318903	0.333401
C108	C	0.922790	0.652237	0.666735
C109	C	0.268291	-0.102591	0.000056
C110	C	0.601624	0.230742	0.333390
C111	C	0.934958	0.564076	0.666723
C112	C	0.217876	-0.103104	0.000053
C113	C	0.551209	0.230230	0.333387
C114	C	0.884542	0.563563	0.666720
C115	C	0.186585	-0.059278	0.000063
C116	C	0.519919	0.274055	0.333397
C117	C	0.853252	0.607388	0.666730
C118	C	-0.346761	-0.108839	0.000036
C119	C	-0.013428	0.224495	0.333369
C120	C	0.319906	0.557828	0.666702
C121	C	-0.397178	-0.109347	0.000030
C122	C	-0.063845	0.223986	0.333363
C123	C	0.269489	0.557319	0.666696
C124	C	-0.409341	-0.021186	0.000044
C125	C	-0.076008	0.312147	0.333378
C126	C	0.257326	0.645480	0.666711
C127	C	-0.358929	-0.020678	0.000048
C128	C	-0.025595	0.312656	0.333381
C129	C	0.307738	0.645989	0.666714
C130	C	-0.327639	-0.064508	0.000045
C131	C	0.005694	0.268825	0.333378
C132	C	0.339027	0.602159	0.666712
O133	O	-0.284343	0.017592	0.000045
O134	O	0.048991	0.350925	0.333378
O135	O	0.382324	0.684259	0.666712
O136	O	-0.261794	-0.145518	0.000045
O137	O	0.071539	0.187816	0.333379
O138	O	0.404872	0.521149	0.666712
C139	C	-0.039242	-0.105716	0.000055
C140	C	0.294092	0.227617	0.333389
C141	C	0.627425	0.560950	0.666722
C142	C	-0.020120	-0.061382	0.000065
C143	C	0.313213	0.271951	0.333399
C144	C	0.646546	0.605285	0.666732
C145	C	-0.051411	-0.017560	0.000071
C146	C	0.281922	0.315774	0.333405
C147	C	0.615256	0.649107	0.666738
C148	C	0.030294	-0.060869	0.000065
C149	C	0.363627	0.272464	0.333398
C150	C	0.696961	0.605798	0.666731
C151	C	0.061585	-0.104691	0.000059
C152	C	0.394918	0.228642	0.333392
C153	C	0.728251	0.561975	0.666725
C154	C	0.042461	-0.149026	0.000053
C155	C	0.375794	0.184307	0.333387
C156	C	0.709128	0.517640	0.666720
C157	C	-0.007951	-0.149539	0.000049
C158	C	0.325382	0.183795	0.333383
C159	C	0.658716	0.517128	0.666716
C160	C	-0.032287	0.026775	0.000077
C161	C	0.301046	0.360109	0.333410
C162	C	0.634379	0.693442	0.666743
C163	C	0.018125	0.027284	0.000080
C164	C	0.351459	0.360617	0.333413
C165	C	0.684792	0.693951	0.666747
C166	C	0.049416	-0.016538	0.000074
C167	C	0.382749	0.316795	0.333407
C168	C	0.716083	0.650129	0.666741
C169	C	-0.566338	-0.150292	0.000039
C170	C	-0.233005	0.183041	0.333372
C171	C	0.100329	0.516374	0.666705
C172	C	-0.566891	-0.203947	0.000031
C173	C	-0.233557	0.129386	0.333365
C174	C	0.099776	0.462720	0.666698
N175	N	-0.570509	-0.061906	0.129298
N176	N	-0.237175	0.271427	0.462632
N177	N	0.096158	0.604761	0.795965
C178	C	-0.614867	0.418985	0.000045
C179	C	-0.281534	0.752318	0.333379
C180	C	0.051799	1.085652	0.666712
C181	C	-0.612816	0.620645	0.000038
C182	C	-0.279483	0.953978	0.333372
C183	C	0.053850	1.287311	0.666705
O184	O	-0.650037	0.651900	0.000021
O185	O	-0.316704	0.985234	0.333354
O186	O	0.016630	1.318567	0.666687
N187	N	-0.568481	0.639768	0.000034
N188	N	-0.235148	0.973102	0.333367
N189	N	0.098186	1.306435	0.666700
C190	C	-0.524656	0.608474	0.000028
C191	C	-0.191322	0.941807	0.333361
C192	C	0.142011	1.275140	0.666694
O193	O	-0.486899	0.629367	0.000019
O194	O	-0.153565	0.962700	0.333352
O195	O	0.179768	1.296033	0.666685
C196	C	-0.526707	0.406815	0.000031
C197	C	-0.193374	0.740148	0.333365
C198	C	0.139960	1.073482	0.666698
C199	C	-0.571045	0.387694	0.000041
C200	C	-0.237712	0.721028	0.333374
C201	C	0.095622	1.054361	0.666708
C202	C	-0.659202	0.399864	0.000054
C203	C	-0.325868	0.733197	0.333388
C204	C	0.007465	1.066530	0.666721
C205	C	-0.659714	0.349452	0.000059
C206	C	-0.326381	0.682785	0.333392
C207	C	0.006953	1.016118	0.666726
C208	C	-0.615892	0.318161	0.000054
C209	C	-0.282559	0.651494	0.333388
C210	C	0.050775	0.984828	0.666721
C211	C	-0.571557	0.337282	0.000045
C212	C	-0.238224	0.670616	0.333379
C213	C	0.095109	1.003949	0.666712
C214	C	-0.482882	0.375521	0.000022
C215	C	-0.149549	0.708855	0.333355
C216	C	0.183785	1.042188	0.666688
C217	C	-0.483399	0.325104	0.000021
C218	C	-0.150066	0.658437	0.333355
C219	C	0.183268	0.991771	0.666688
C220	C	-0.527737	0.305983	0.000031
C221	C	-0.194404	0.639317	0.333364
C222	C	0.138930	0.972650	0.666698
C223	C	-0.528247	0.255580	0.000045
C224	C	-0.194914	0.588913	0.333379
C225	C	0.138419	0.922246	0.666712
N226	N	-0.572583	0.236456	0.000050
N227	N	-0.239249	0.569789	0.333383
N228	N	0.094084	0.903123	0.666717
C229	C	-0.616405	0.267747	0.000054
C230	C	-0.283072	0.601080	0.333388
C231	C	0.050262	0.934413	0.666721
C232	C	-0.523582	0.714348	0.000027
C233	C	-0.190248	1.047681	0.333360
C234	C	0.143085	1.381014	0.666693
C235	C	-0.523069	0.764762	0.000027
C236	C	-0.189735	1.098096	0.333360
C237	C	0.143598	1.431429	0.666693
C238	C	-0.611230	0.776930	0.000036
C239	C	-0.277896	1.110263	0.333370
C240	C	0.055437	1.443596	0.666703
C241	C	-0.611742	0.726514	0.000040
C242	C	-0.278409	1.059848	0.333373
C243	C	0.054925	1.393181	0.666707
C244	C	-0.567917	0.695224	0.000031
C245	C	-0.234583	1.028557	0.333365
C246	C	0.098750	1.361891	0.666698
C247	C	-0.617477	0.161878	0.000064
C248	C	-0.284144	0.495211	0.333398
C249	C	0.049189	0.828544	0.666731
C250	C	-0.617986	0.111461	0.000071
C251	C	-0.284652	0.444794	0.333404
C252	C	0.048681	0.778127	0.666738
C253	C	-0.529825	0.099298	0.000059
C254	C	-0.196492	0.432631	0.333392
C255	C	0.136842	0.765964	0.666725
C256	C	-0.529316	0.149710	0.000055
C257	C	-0.195983	0.483043	0.333388
C258	C	0.137350	0.816377	0.666721
C259	C	-0.573147	0.180999	0.000056
C260	C	-0.239813	0.514333	0.333389
C261	C	0.093520	0.847666	0.666723
O262	O	-0.491047	0.224296	0.000057
O263	O	-0.157713	0.557629	0.333391
O264	O	0.175620	0.890962	0.666724
O265	O	-0.654156	0.246844	0.000053
O266	O	-0.320823	0.580177	0.333386
O267	O	0.012510	0.913511	0.666719
C268	C	-0.614355	0.469397	0.000041
C269	C	-0.281022	0.802730	0.333374
C270	C	0.052312	1.136064	0.666708
C271	C	-0.570021	0.488518	0.000032
C272	C	-0.236687	0.821852	0.333365
C273	C	0.096646	1.155185	0.666699
C274	C	-0.526198	0.457228	0.000027
C275	C	-0.192865	0.790561	0.333361
C276	C	0.140468	1.123894	0.666694
C277	C	-0.569508	0.538933	0.000032
C278	C	-0.236174	0.872266	0.333365
C279	C	0.097159	1.205599	0.666699
C280	C	-0.613330	0.570223	0.000036
C281	C	-0.279996	0.903557	0.333370
C282	C	0.053337	1.236890	0.666703
C283	C	-0.657665	0.551100	0.000041
C284	C	-0.324332	0.884433	0.333374
C285	C	0.009002	1.217766	0.666708
C286	C	-0.658177	0.500688	0.000045
C287	C	-0.324844	0.834021	0.333379
C288	C	0.008489	1.167354	0.666712
C289	C	-0.481863	0.476351	0.000023
C290	C	-0.148530	0.809685	0.333356
C291	C	0.184803	1.143018	0.666690
C292	C	-0.481355	0.526764	0.000019
C293	C	-0.148021	0.860097	0.333352
C294	C	0.185312	1.193430	0.666686
C295	C	-0.525177	0.558054	0.000023
C296	C	-0.191843	0.891388	0.333357
C297	C	0.141490	1.224721	0.666690
N298	N	-0.570549	-0.061867	-0.129196
N299	N	-0.237216	0.271466	0.204137
N300	N	0.096117	0.604799	0.537471
C301	C	-0.603640	-0.028781	0.473932
C302	C	-0.270307	0.304552	0.807266
C303	C	0.063027	0.637885	1.140599
C304	C	-0.603652	-0.028774	0.682810
C305	C	-0.270318	0.304559	1.016143
C306	C	0.063015	0.637893	1.349477
O307	O	-0.631801	-0.000613	0.709820
O308	O	-0.298468	0.332720	1.043154
O309	O	0.034865	0.666054	1.376487
N310	N	-0.570539	-0.061870	0.708925
N311	N	-0.237206	0.271463	1.042259
N312	N	0.096127	0.604796	1.375592
C313	C	-0.537419	-0.094969	0.682818
C314	C	-0.204086	0.238364	1.016151
C315	C	0.129247	0.571698	1.349485
O316	O	-0.509252	-0.123116	0.709824
O317	O	-0.175919	0.210217	1.043157
O318	O	0.157415	0.543550	1.376490
C319	C	-0.537406	-0.094974	0.473941
C320	C	-0.204073	0.238360	0.807275
C321	C	0.129261	0.571693	1.140608
C322	C	-0.570524	-0.061878	0.447829
C323	C	-0.237191	0.271455	0.781162
C324	C	0.096143	0.604788	1.114495
C325	C	-0.636755	0.004312	0.447819
C326	C	-0.303422	0.337645	0.781153
C327	C	0.029912	0.670978	1.114486
C328	C	-0.636754	0.004308	0.395603
C329	C	-0.303420	0.337641	0.728936
C330	C	0.029913	0.670975	1.062270
C331	C	-0.603637	-0.028789	0.369500
C332	C	-0.270304	0.304544	0.702833
C333	C	0.063029	0.637877	1.036166
C334	C	-0.570522	-0.061882	0.395612
C335	C	-0.237189	0.271451	0.728946
C336	C	0.096144	0.604784	1.062279
C337	C	-0.504284	-0.128070	0.447835
C338	C	-0.170951	0.205264	0.781168
C339	C	0.162382	0.538597	1.114502
C340	C	-0.504283	-0.128067	0.395613
C341	C	-0.170950	0.205266	0.728946
C342	C	0.162384	0.538599	1.062279
C343	C	-0.537401	-0.094972	0.369500
C344	C	-0.204068	0.238362	0.702833
C345	C	0.129266	0.571695	1.036167
C346	C	-0.537405	-0.094983	0.317293
C347	C	-0.204071	0.238350	0.650626
C348	C	0.129262	0.571683	0.983959
N349	N	-0.570517	-0.061887	0.291177
N350	N	-0.237184	0.271447	0.624510
N351	N	0.096150	0.604780	0.957844
C352	C	-0.603633	-0.028790	0.317281
C353	C	-0.270300	0.304544	0.650614
C354	C	0.063033	0.637877	0.983947
C355	C	-0.537429	-0.094965	0.792481
C356	C	-0.204096	0.238368	1.125815
C357	C	0.129237	0.571702	1.459148
C358	C	-0.537433	-0.094964	0.844700
C359	C	-0.204100	0.238369	1.178034
C360	C	0.129233	0.571702	1.511367
C361	C	-0.603665	-0.028768	0.844689
C362	C	-0.270332	0.304565	1.178022
C363	C	0.063002	0.637898	1.511355
C364	C	-0.603663	-0.028772	0.792469
C365	C	-0.270330	0.304562	1.125802
C366	C	0.063004	0.637895	1.459135
C367	C	-0.570542	-0.061868	0.766366
C368	C	-0.237209	0.271465	1.099699
C369	C	0.096125	0.604798	1.433033
C370	C	-0.603628	-0.028801	0.207623
C371	C	-0.270295	0.304533	0.540956
C372	C	0.063039	0.637866	0.874289
C373	C	-0.603625	-0.028809	0.155402
C374	C	-0.270292	0.304524	0.488735
C375	C	0.063042	0.637858	0.822068
C376	C	-0.537392	-0.095003	0.155418
C377	C	-0.204058	0.238330	0.488751
C378	C	0.129275	0.571664	0.822085
C379	C	-0.537396	-0.094997	0.207635
C380	C	-0.204063	0.238337	0.540968
C381	C	0.129270	0.571670	0.874301
C382	C	-0.570516	-0.061892	0.233735
C383	C	-0.237183	0.271442	0.567069
C384	C	0.096150	0.604775	0.900402
O385	O	-0.509266	-0.123126	0.290250
O386	O	-0.175933	0.210208	0.623583
O387	O	0.157401	0.543541	0.956916
O388	O	-0.631789	-0.000640	0.290266
O389	O	-0.298456	0.332694	0.623599
O390	O	0.034877	0.666027	0.956933
C391	C	-0.603642	-0.028777	0.526149
C392	C	-0.270308	0.304556	0.859482
C393	C	0.063025	0.637889	1.192815
C394	C	-0.570527	-0.061870	0.552261
C395	C	-0.237193	0.271463	0.885595
C396	C	0.096140	0.604796	1.218928
C397	C	-0.537410	-0.094968	0.526158
C398	C	-0.204077	0.238366	0.859491
C399	C	0.129256	0.571699	1.192824
C400	C	-0.570531	-0.061870	0.604480
C401	C	-0.237197	0.271463	0.937814
C402	C	0.096136	0.604797	1.271147
C403	C	-0.603647	-0.028773	0.630584
C404	C	-0.270314	0.304560	0.963917
C405	C	0.063020	0.637894	1.297250
C406	C	-0.636759	0.004324	0.604468
C407	C	-0.303426	0.337657	0.937802
C408	C	0.029907	0.670990	1.271135
C409	C	-0.636758	0.004320	0.552252
C410	C	-0.303425	0.337653	0.885585
C411	C	0.029909	0.670986	1.218919
C412	C	-0.504298	-0.128064	0.552273
C413	C	-0.170965	0.205269	0.885606
C414	C	0.162369	0.538603	1.218940
C415	C	-0.504303	-0.128058	0.604489
C416	C	-0.170969	0.205276	0.937823
C417	C	0.162364	0.538609	1.271156
C418	C	-0.537419	-0.094961	0.630593
C419	C	-0.204086	0.238373	0.963926
C420	C	0.129248	0.571706	1.297260
H421	H	-0.412743	-0.145454	0.000021
H422	H	-0.079410	0.187879	0.333354
H423	H	0.253924	0.521213	0.666687
H424	H	-0.446777	0.391080	0.000011
H425	H	-0.113444	0.724414	0.333344
H426	H	0.219889	1.057747	0.666678
H427	H	-0.447710	0.299629	0.000014
H428	H	-0.114377	0.632963	0.333347
H429	H	0.218957	0.966296	0.666680
N430	N	-0.468583	-0.163766	0.524120
N431	N	-0.135250	0.169567	0.857453
N432	N	0.198083	0.502901	1.190786
H433	H	-0.447317	-0.145447	0.502454
H434	H	-0.113983	0.187886	0.835787
H435	H	0.219350	0.521220	1.169120
H436	H	-0.447642	-0.184722	0.548620
H437	H	-0.114308	0.148611	0.881954
H438	H	0.219025	0.481944	1.215287
H439	H	0.202311	-0.139207	0.000047
H440	H	0.535645	0.194126	0.333381
H441	H	0.868978	0.527459	0.666714
N442	N	-0.481496	0.170337	0.000051
N443	N	-0.148163	0.503670	0.333385
N444	N	0.185170	0.837004	0.666718
H445	H	-0.453813	0.142863	0.000051
H446	H	-0.120480	0.476196	0.333384
H447	H	0.212853	0.809529	0.666718
H448	H	-0.479369	0.190984	-0.030707
H449	H	-0.146036	0.524318	0.302626
H450	H	0.187298	0.857651	0.635960
N451	N	-0.217283	0.072510	0.000094
N452	N	0.116050	0.405843	0.333427
N453	N	0.449383	0.739176	0.666761
H454	H	-0.197517	0.100672	0.000101
H455	H	0.135817	0.434005	0.333435
H456	H	0.469150	0.767339	0.666768
H457	H	-0.238467	0.074226	-0.030660
H458	H	0.094866	0.407559	0.302673
H459	H	0.428199	0.740892	0.636006
N460	N	-0.665811	0.090841	0.000083
N461	N	-0.332478	0.424174	0.333417
N462	N	0.000856	0.757508	0.666750
H463	H	-0.684998	0.102273	-0.030668
H464	H	-0.351664	0.435606	0.302665
H465	H	-0.018331	0.768940	0.635999
H466	H	-0.659450	0.054158	0.000106
H467	H	-0.326116	0.387492	0.333439
H468	H	0.007217	0.720825	0.666773
N469	N	-0.704931	0.584854	0.000050
N470	N	-0.371598	0.918187	0.333384
N471	N	-0.038265	1.251520	0.666717
H472	H	-0.697874	0.619691	0.000047
H473	H	-0.364540	0.953024	0.333380
H474	H	-0.031207	1.286358	0.666714
H475	H	-0.724276	0.578701	-0.030701
H476	H	-0.390943	0.912034	0.302632
H477	H	-0.057610	1.245368	0.635966
H478	H	-0.653168	0.187348	0.000063
H479	H	-0.319835	0.520681	0.333397
H480	H	0.013499	0.854015	0.666730
N481	N	-0.482561	0.065544	0.000067
N482	N	-0.149228	0.398877	0.333401
N483	N	0.184105	0.732210	0.666734
H484	H	-0.489618	0.030706	0.000073
H485	H	-0.156285	0.364040	0.333406
H486	H	0.177049	0.697373	0.666740
H487	H	-0.463222	0.071690	-0.030687
H488	H	-0.129889	0.405024	0.302646
H489	H	0.203445	0.738357	0.635979
H490	H	0.293777	-0.138273	0.000051
H491	H	0.627110	0.195061	0.333385
H492	H	0.960443	0.528394	0.666718
H493	H	-0.023514	-0.185643	0.000042
H494	H	0.309819	0.147690	0.333375
H495	H	0.643153	0.481023	0.666708
N496	N	0.076215	-0.196293	0.000044
N497	N	0.409548	0.137041	0.333377
N498	N	0.742882	0.470374	0.666710
H499	H	0.111052	-0.189235	0.000047
H500	H	0.444386	0.144098	0.333380
H501	H	0.777719	0.477432	0.666714
H502	H	0.070064	-0.215636	0.030795
H503	H	0.403397	0.117698	0.364128
H504	H	0.736731	0.451031	0.697461
N505	N	-0.707536	0.328832	0.000068
N506	N	-0.374203	0.662166	0.333401
N507	N	-0.040869	0.995499	0.666734
H508	H	-0.735215	0.356310	0.000069
H509	H	-0.401882	0.689644	0.333402
H510	H	-0.068549	1.022977	0.666735
H511	H	-0.709676	0.308181	-0.030686
H512	H	-0.376343	0.641514	0.302647
H513	H	-0.043010	0.974847	0.635981
N514	N	-0.658497	0.810682	0.000036
N515	N	-0.325164	1.144016	0.333369
N516	N	0.008170	1.477349	0.666703
H517	H	-0.677857	0.804574	0.030789
H518	H	-0.344524	1.137907	0.364123
H519	H	-0.011190	1.471240	0.697456
H520	H	-0.651401	0.845506	0.000015
H521	H	-0.318067	1.178839	0.333349
H522	H	0.015266	1.512172	0.666682
N523	N	0.038748	0.075108	0.000091
N524	N	0.372081	0.408441	0.333424
N525	N	0.705415	0.741774	0.666758
H526	H	0.027313	0.094297	-0.030657
H527	H	0.360647	0.427630	0.302676
H528	H	0.693980	0.760963	0.636009
H529	H	0.027306	0.094241	0.030869
H530	H	0.360639	0.427575	0.364202
H531	H	0.693973	0.760908	0.697536
N532	N	-0.313018	-0.156111	0.000045
N533	N	0.020315	0.177222	0.333378
N534	N	0.353649	0.510555	0.666711
H535	H	-0.332788	-0.184271	0.000041
H536	H	0.000546	0.149062	0.333374
H537	H	0.333879	0.482396	0.666707
H538	H	-0.291831	-0.157824	-0.030705
H539	H	0.041502	0.175509	0.302628
H540	H	0.374836	0.508843	0.635962
N541	N	-0.066033	0.074043	0.000087
N542	N	0.267300	0.407377	0.333420
N543	N	0.600634	0.740710	0.666753
H544	H	-0.046264	0.102203	0.000092
H545	H	0.287070	0.435537	0.333425
H546	H	0.620403	0.768870	0.666758
H547	H	-0.087216	0.075758	-0.030668
H548	H	0.246117	0.409092	0.302665
H549	H	0.579451	0.742425	0.635998
N550	N	0.171963	0.032329	0.000082
N551	N	0.505297	0.365662	0.333415
N552	N	0.838630	0.698995	0.666749
H553	H	0.191733	0.060489	0.000085
H554	H	0.525066	0.393822	0.333418
H555	H	0.858400	0.727155	0.666751
H556	H	0.150777	0.034045	-0.030671
H557	H	0.484111	0.367378	0.302662
H558	H	0.817444	0.700711	0.635996
H559	H	-0.510433	-0.121951	0.228896
H560	H	-0.177100	0.211383	0.562229
H561	H	0.156233	0.544716	0.895563
H562	H	-0.694889	0.425336	0.000056
H563	H	-0.361556	0.758670	0.333390
H564	H	-0.028223	1.092003	0.666723
H565	H	-0.510430	-0.121952	0.134157
H566	H	-0.177097	0.211382	0.467490
H567	H	0.156236	0.544715	0.800823
N568	N	-0.433530	0.547384	0.000017
N569	N	-0.100196	0.880717	0.333350
N570	N	0.233137	1.214050	0.666683
H571	H	-0.405849	0.519907	0.000015
H572	H	-0.072515	0.853240	0.333348
H573	H	0.260818	1.186574	0.666681
H574	H	-0.431399	0.568033	-0.030739
H575	H	-0.098066	0.901367	0.302594
H576	H	0.235267	1.234700	0.635927
N577	N	-0.705999	0.480068	0.000057
N578	N	-0.372666	0.813401	0.333390
N579	N	-0.039332	1.146735	0.666723
H580	H	-0.733679	0.507546	0.000059
H581	H	-0.400345	0.840880	0.333392
H582	H	-0.067012	1.174213	0.666725
H583	H	-0.708141	0.459416	-0.030696
H584	H	-0.374808	0.792749	0.302637
H585	H	-0.041475	1.126082	0.635971
H586	H	-0.477310	-0.155018	0.374362
H587	H	-0.143977	0.178315	0.707696
H588	H	0.189356	0.511649	1.041029
H589	H	-0.647846	0.710950	0.000047
H590	H	-0.314513	1.044283	0.333381
H591	H	0.018821	1.377617	0.666714
H592	H	-0.174750	-0.187180	0.000029
H593	H	0.158583	0.146153	0.333362
H594	H	0.491917	0.479487	0.666696
N595	N	-0.476308	0.680606	0.000023
N596	N	-0.142974	1.013939	0.333357
N597	N	0.190359	1.347272	0.666690
H598	H	-0.474548	0.659418	0.030776
H599	H	-0.141215	0.992751	0.364110
H600	H	0.192118	1.326084	0.697443
H601	H	-0.474582	0.659449	-0.030750
H602	H	-0.141249	0.992782	0.302583
H603	H	0.192085	1.326115	0.635917
N604	N	-0.468579	-0.163755	0.632651
N605	N	-0.135245	0.169579	0.965984
N606	N	0.198088	0.502912	1.299318
H607	H	-0.447599	-0.184718	0.608186
H608	H	-0.114266	0.148615	0.941519
H609	H	0.219067	0.481949	1.274853
H610	H	-0.447351	-0.145388	0.654313
H611	H	-0.114018	0.187946	0.987646
H612	H	0.219316	0.521279	1.320980
N613	N	-0.475247	0.785383	0.000030
N614	N	-0.141914	1.118716	0.333363
N615	N	0.191419	1.452049	0.666697
H616	H	-0.447566	0.757906	0.000027
H617	H	-0.114233	1.091239	0.333361
H618	H	0.219100	1.424573	0.666694
H619	H	-0.473115	0.806035	-0.030723
H620	H	-0.139781	1.139369	0.302610
H621	H	0.193552	1.472702	0.635943
H622	H	-0.663725	0.031269	0.530995
H623	H	-0.330392	0.364603	0.864328
H624	H	0.002941	0.697936	1.197661
H625	H	0.271687	0.021674	0.000069
H626	H	0.605020	0.355008	0.333402
H627	H	0.938354	0.688341	0.666736
N628	N	-0.672481	0.040020	0.632628
N629	N	-0.339147	0.373353	0.965961
N630	N	-0.005814	0.706686	1.299295
H631	H	-0.667453	0.034996	0.669670
H632	H	-0.334119	0.368329	1.003003
H633	H	-0.000786	0.701663	1.336336
H634	H	-0.667155	0.074274	0.623502
H635	H	-0.333821	0.407607	0.956836
H636	H	-0.000488	0.740941	1.290169
H637	H	-0.117558	0.061861	0.000088
H638	H	0.215775	0.395195	0.333421
H639	H	0.549108	0.728528	0.666755
N640	N	-0.075030	-0.197833	0.000063
N641	N	0.258303	0.135501	0.333397
N642	N	0.591637	0.468834	0.666730
H643	H	-0.094801	-0.225992	0.000067
H644	H	0.238532	0.107342	0.333400
H645	H	0.571866	0.440675	0.666733
H646	H	-0.053838	-0.199557	-0.030683
H647	H	0.279495	0.133777	0.302650
H648	H	0.612828	0.467110	0.635983
N649	N	-0.338302	0.027142	0.000049
N650	N	-0.004968	0.360475	0.333383
N651	N	0.328365	0.693809	0.666716
H652	H	-0.365776	0.054825	0.000050
H653	H	-0.032443	0.388158	0.333383
H654	H	0.300891	0.721492	0.666717
H655	H	-0.317651	0.029272	0.030807
H656	H	0.015682	0.362606	0.364140
H657	H	0.349015	0.695939	0.697473
N658	N	-0.639378	0.006935	0.764314
N659	N	-0.306045	0.340268	1.097647
N660	N	0.027289	0.673601	1.430981
H661	H	-0.621065	0.028212	0.742655
H662	H	-0.287731	0.361546	1.075988
H663	H	0.045602	0.694879	1.409322
H664	H	-0.660636	-0.011416	0.742671
H665	H	-0.327303	0.321917	1.076004
H666	H	0.006030	0.655251	1.409337
H667	H	-0.663722	0.031266	0.469068
H668	H	-0.330389	0.364599	0.802402
H669	H	0.002944	0.697932	1.135735
H670	H	-0.434827	0.014492	0.000047
H671	H	-0.101494	0.347826	0.333381
H672	H	0.231840	0.681159	0.666714
N673	N	-0.434595	0.442606	0.000018
N674	N	-0.101262	0.775939	0.333351
N675	N	0.232071	1.109272	0.666684
H676	H	-0.406435	0.462375	0.000014
H677	H	-0.073102	0.795708	0.333347
H678	H	0.260232	1.129042	0.666681
H679	H	-0.432881	0.421426	0.030774
H680	H	-0.099548	0.754760	0.364107
H681	H	0.233785	1.088093	0.697441
N682	N	-0.639348	0.006887	0.127237
N683	N	-0.306014	0.340220	0.460571
N684	N	0.027319	0.673553	0.793904
H685	H	-0.660325	0.027854	0.151701
H686	H	-0.326992	0.361188	0.485034
H687	H	0.006342	0.694521	0.818367
H688	H	-0.621004	0.028129	0.105571
H689	H	-0.287671	0.361463	0.438905
H690	H	0.045662	0.694796	0.772238
N691	N	-0.501716	-0.130663	0.872862
N692	N	-0.168383	0.202671	1.206195
N693	N	0.164950	0.536004	1.539529
H694	H	-0.480737	-0.151626	0.848397
H695	H	-0.147403	0.181708	1.181730
H696	H	0.185930	0.515041	1.515064
H697	H	-0.480488	-0.112300	0.894528
H698	H	-0.147155	0.221033	1.227862
H699	H	0.186178	0.554367	1.561195
N700	N	-0.501710	-0.130668	0.764328
N701	N	-0.168377	0.202666	1.097661
N702	N	0.164957	0.535999	1.430995
H703	H	-0.480442	-0.112347	0.742665
H704	H	-0.147109	0.220986	1.075999
H705	H	0.186225	0.554320	1.409332
H706	H	-0.480770	-0.151625	0.788829
H707	H	-0.147436	0.181708	1.122162
H708	H	0.185897	0.515041	1.455496
N709	N	-0.639352	0.006901	0.235770
N710	N	-0.306019	0.340235	0.569103
N711	N	0.027314	0.673568	0.902437
H712	H	-0.660329	0.027861	0.211298
H713	H	-0.326996	0.361194	0.544631
H714	H	0.006338	0.694527	0.877964
H715	H	-0.660583	-0.011460	0.257432
H716	H	-0.327249	0.321874	0.590765
H717	H	0.006084	0.655207	0.924099
H718	H	-0.663720	0.031258	0.374345
H719	H	-0.330386	0.364592	0.707679
H720	H	0.002947	0.697925	1.041012
N721	N	-0.639386	0.006929	0.872847
N722	N	-0.306053	0.340262	1.206180
N723	N	0.027280	0.673595	1.539514
H724	H	-0.621076	0.028203	0.894515
H725	H	-0.287743	0.361537	1.227848
H726	H	0.045591	0.694870	1.561182
H727	H	-0.660354	0.027864	0.848350
H728	H	-0.327021	0.361197	1.181684
H729	H	0.006312	0.694530	1.515017
N730	N	-0.468555	-0.163759	0.475990
N731	N	-0.135222	0.169574	0.809323
N732	N	0.198111	0.502908	1.142656
H733	H	-0.473854	-0.198032	0.466900
H734	H	-0.140520	0.135302	0.800234
H735	H	0.192813	0.468635	1.133567
H736	H	-0.434313	-0.158372	0.466884
H737	H	-0.100980	0.174961	0.800217
H738	H	0.232353	0.508295	1.133550
