data_functionalizedCrystal
_audit_creation_method	'MofGen! by Chris Wilmer'
_symmetry_space_group_name_H-M	'P1'
_symmetry_Int_Tables_number	1
_symmetry_cell_setting	triclinic
loop_
_symmetry_equiv_pos_as_xyz
  x,y,z
_cell_length_a	11.169417
_cell_length_b	11.169416
_cell_length_c	18.101389
_cell_angle_alpha	90.009195
_cell_angle_beta	89.984656
_cell_angle_gamma	89.985662
loop_
_atom_site_label
_atom_site_type_symbol
_atom_site_fract_x
_atom_site_fract_y
_atom_site_fract_z
Zn1	Zn	1.834890	0.477893	-0.418709
Zn2	Zn	1.834784	0.678568	-0.294887
Zn3	Zn	1.634190	0.477902	-0.294889
Zn4	Zn	1.634174	0.678537	-0.418695
O5	O	1.734510	0.578225	-0.356795
O6	O	2.002826	0.504522	-0.402288
O7	O	1.808138	0.651965	-0.191255
O8	O	1.660865	0.309951	-0.311321
O9	O	2.002748	0.651957	-0.311317
O10	O	1.808318	0.309944	-0.402290
O11	O	1.660762	0.504537	-0.191256
O12	O	1.466239	0.504507	-0.311308
O13	O	1.660836	0.651905	-0.522330
O14	O	1.466226	0.651913	-0.402267
O15	O	1.808302	0.504493	-0.522340
O16	O	1.808122	0.846513	-0.311304
O17	O	1.660734	0.846491	-0.402265
C18	C	1.422685	0.578209	-0.356787
C19	C	1.289285	0.578231	-0.356801
C20	C	1.734447	0.890050	-0.356799
C21	C	1.734530	1.023449	-0.356825
C22	C	2.047552	0.578242	-0.356804
C23	C	2.180952	0.578249	-0.356808
C24	C	1.734579	0.578194	-0.549957
C25	C	1.734609	0.578182	-0.632271
C26	C	1.734593	1.265182	-0.356815
C27	C	1.734598	1.131782	-0.356843
C28	C	1.734678	0.577957	-0.931362
C29	C	1.641578	0.670409	-0.900031
C30	C	1.641829	0.670838	-0.814413
C31	C	1.734643	0.578068	-0.782980
C32	C	1.861103	0.612397	-0.814077
C33	C	1.860584	0.613004	-0.899722
C34	C	1.702418	0.450969	-0.899777
C35	C	1.699605	0.451703	-0.814126
C36	C	1.734630	0.578129	-0.699120
C37	C	1.734699	0.577899	-1.015222
C38	C	1.734510	0.578168	-0.164385
C39	C	1.734713	0.577843	-0.082071
H40	H	1.547521	0.649148	-0.920624
H41	H	1.548055	0.649357	-0.793387
C42	C	1.903944	0.437937	-0.741244
C43	C	1.957274	0.524362	-0.786589
H44	H	1.963318	0.383594	-0.724271
H45	H	1.845043	0.395531	-0.768573
H46	H	1.867321	0.476078	-0.700127
H47	H	1.993890	0.486222	-0.827709
H48	H	2.016197	0.566774	-0.759260
C49	C	1.498180	0.399470	-0.847360
C50	C	1.573974	0.416751	-0.786686
H51	H	1.420619	0.377903	-0.830414
H52	H	1.529194	0.337343	-0.877667
H53	H	1.493309	0.471455	-0.875139
H54	H	1.578852	0.344763	-0.758910
H55	H	1.542951	0.478882	-0.756366
C56	C	1.897530	0.740476	-1.004058
C57	C	1.897511	0.738312	-0.926715
H58	H	1.920339	0.817835	-1.020718
H59	H	1.819566	0.722296	-1.021737
H60	H	1.952714	0.682777	-1.022172
H61	H	1.842320	0.796005	-0.908601
H62	H	1.975486	0.756507	-0.909029
C63	C	1.764525	0.245153	-0.898726
C64	C	1.793952	0.357974	-0.927129
H65	H	1.821043	0.187753	-0.915611
H66	H	1.686744	0.223190	-0.915019
H67	H	1.765854	0.248000	-0.846282
H68	H	1.792615	0.355130	-0.979573
H69	H	1.871754	0.379942	-0.910840
H70	H	1.762464	0.379164	-0.792729
C71	C	1.664261	0.796872	-1.006364
C72	C	1.670052	0.796705	-0.929093
H73	H	1.681853	0.874840	-1.024304
H74	H	1.586102	0.774346	-1.021647
H75	H	1.720918	0.741555	-1.025546
H76	H	1.613389	0.852016	-0.909911
H77	H	1.748223	0.819246	-0.913804
H78	H	1.663131	0.764965	-0.793937
C79	C	2.005111	0.725834	-0.744831
C80	C	1.898658	0.736385	-0.785148
H81	H	2.028284	0.802381	-0.726970
H82	H	2.066283	0.694795	-0.775862
H83	H	1.992952	0.673182	-0.704311
H84	H	1.910819	0.789029	-0.825672
H85	H	1.837472	0.767440	-0.754115
H86	H	1.932305	0.548588	-0.920449
H87	H	1.611804	0.419693	-0.921369
