data_functionalizedCrystal
_audit_creation_method	'MofGen! by Chris Wilmer'
_symmetry_space_group_name_H-M	'P1'
_symmetry_Int_Tables_number	1
_symmetry_cell_setting	triclinic
loop_
_symmetry_equiv_pos_as_xyz
  x,y,z
_cell_length_a	15.944551
_cell_length_b	11.804365
_cell_length_c	13.339070
_cell_angle_alpha	105.112168
_cell_angle_beta	99.564016
_cell_angle_gamma	78.155318
loop_
_atom_site_label
_atom_site_type_symbol
_atom_site_fract_x
_atom_site_fract_y
_atom_site_fract_z
O1	O	1.157119	-0.098894	0.110075
O2	O	0.916321	-0.098923	0.126155
O3	O	1.009083	-0.098908	-0.029150
O4	O	1.064356	-0.098909	0.265381
O5	O	0.984653	0.099144	0.011695
O6	O	0.891890	0.099129	0.167000
O7	O	1.132688	0.099158	0.150920
Cu8	Cu	1.010058	0.117227	0.162690
Cu9	Cu	1.038950	-0.116992	0.114386
O10	O	1.039925	0.099143	0.306226
C11	C	0.872656	0.000099	0.145909
C12	C	0.778945	0.000088	0.143905
N13	N	0.989743	0.281964	0.196663
N14	N	1.059270	-0.281730	0.080404
C15	C	0.540539	0.000111	0.042857
C16	C	0.502499	-0.097539	0.069644
C17	C	0.607374	0.000102	0.140286
C18	C	0.478440	0.097725	0.109937
C19	C	0.441642	0.000121	0.136784
C20	C	0.570578	-0.097629	0.167083
C21	C	0.546511	0.097723	0.207380
C22	C	0.508508	0.000049	0.234233
C23	C	0.702847	0.000090	0.142300
C24	C	0.346172	0.000124	0.134776
C25	C	1.176353	0.000133	0.131166
C26	C	1.270065	0.000136	0.133169
C27	C	0.987532	0.000115	-0.046418
C28	C	0.959703	0.000107	-0.158723
C29	C	1.108049	0.655932	-0.001198
C30	C	1.123416	0.531273	-0.026903
C31	C	1.089999	0.468939	0.028986
C32	C	1.041213	0.531278	0.110585
C33	C	1.025851	0.655949	0.136298
C34	C	1.007800	0.468957	0.166482
C35	C	0.959015	0.531295	0.248082
C36	C	0.943655	0.655954	0.273790
C37	C	0.977072	0.718288	0.217901
C38	C	1.023163	0.344285	0.140769
C39	C	0.940964	0.344303	0.278266
C40	C	0.925598	0.468962	0.303971
C41	C	1.176092	0.000133	-0.523496
C42	C	1.202241	0.000148	-0.417979
C43	C	1.141609	0.000137	-0.353160
C44	C	1.054823	0.000113	-0.393868
C45	C	1.028671	0.000108	-0.499394
C46	C	0.994187	0.000111	-0.329058
C47	C	0.907401	0.000087	-0.369767
C48	C	0.881254	0.000082	-0.475283
C49	C	0.941886	0.000092	-0.540101
C50	C	1.020339	0.000116	-0.223532
C51	C	0.872918	0.000091	-0.199430
C52	C	0.846769	0.000077	-0.304948
C53	C	1.061477	0.000117	0.323493
C54	C	1.089307	0.000118	0.435797
H55	H	0.555046	-0.000009	-0.038028
H56	H	0.494216	-0.000006	0.315165
Br57	Br	0.877462	0.740560	0.384546
Br58	Br	0.411978	0.235319	0.069602
H59	H	1.225448	0.000152	-0.576278
H60	H	1.162904	0.000149	-0.267243
Br61	Br	0.579085	0.235329	0.304390
Br62	Br	0.636869	-0.235378	0.207310
Br63	Br	0.906420	-0.000089	-0.683344
H64	H	0.776107	0.000058	-0.338108
H65	H	1.135259	0.706692	-0.046691
Br66	Br	1.089370	0.259699	0.030033
H67	H	0.810586	0.000071	-0.508422
Br68	Br	0.895617	0.259717	0.354127
H69	H	0.823545	0.000088	-0.146653
Br70	Br	1.189623	0.446672	-0.137636
Br71	Br	0.956209	0.887476	0.252783
Br72	Br	1.138115	0.000153	-0.168297
H73	H	0.885876	0.519733	0.370411
Br74	Br	0.469955	-0.235144	-0.027413
H75	H	1.272901	0.000169	-0.384841
H76	H	1.102512	0.367436	0.008053
