data_functionalizedCrystal
_audit_creation_method	'MofGen! by Chris Wilmer'
_symmetry_space_group_name_H-M	'P1'
_symmetry_Int_Tables_number	1
_symmetry_cell_setting	triclinic
loop_
_symmetry_equiv_pos_as_xyz
  x,y,z
_cell_length_a	12.837943
_cell_length_b	19.188930
_cell_length_c	11.295483
_cell_angle_alpha	94.076039
_cell_angle_beta	85.461227
_cell_angle_gamma	88.986861
loop_
_atom_site_label
_atom_site_type_symbol
_atom_site_fract_x
_atom_site_fract_y
_atom_site_fract_z
O1	O	1.381633	0.177215	-0.099031
O2	O	1.079869	0.168252	-0.099037
O3	O	1.239458	0.071676	-0.099010
O4	O	1.222044	0.273791	-0.099057
O5	O	1.225441	0.080144	0.099038
O6	O	1.065852	0.176720	0.099012
O7	O	1.367616	0.185683	0.099017
Cu8	Cu	1.215454	0.181975	0.117098
Cu9	Cu	1.232031	0.171960	-0.117117
O10	O	1.208027	0.282259	0.098991
C11	C	1.034253	0.169458	-0.000013
C12	C	0.919217	0.160427	-0.000014
C13	C	0.677767	0.268994	-0.000022
C14	C	0.569680	0.260512	-0.000022
C15	C	0.594953	0.134982	-0.000006
C16	C	0.703040	0.143464	-0.000006
C17	C	0.744443	0.210472	-0.000016
C18	C	0.852533	0.218953	-0.000024
C19	C	0.877803	0.093423	0.000001
C20	C	0.769716	0.084941	0.000001
C21	C	1.231885	0.049861	0.000017
C22	C	1.230191	-0.027760	0.000027
C23	C	1.323833	-0.066260	0.000035
C24	C	1.322244	-0.139194	0.000016
C25	C	1.227005	-0.173623	0.000013
C26	C	1.133352	-0.135114	-0.000001
C27	C	1.134944	-0.062182	0.000006
N28	N	1.149437	-0.283739	0.067411
N29	N	1.147930	-0.353022	0.067407
C30	C	1.222201	-0.393362	-0.000011
N31	N	1.298051	-0.361803	-0.067410
N32	N	1.299560	-0.292515	-0.067400
C33	C	1.225268	-0.252705	0.000005
C34	C	1.314126	-0.510946	-0.000026
C35	C	1.312534	-0.583882	-0.000052
C36	C	1.123638	-0.579799	-0.000057
C37	C	1.125234	-0.506866	-0.000043
C38	C	1.220481	-0.472444	-0.000021
C39	C	1.413232	0.184477	-0.000009
C40	C	1.528268	0.193508	-0.000016
C41	C	1.215600	0.304074	-0.000039
C42	C	1.217295	0.381694	-0.000057
N43	N	1.203803	0.189018	0.281832
N44	N	1.243691	0.164912	-0.281852
C45	C	1.327566	0.114169	0.531142
C46	C	1.318768	0.119497	0.655804
C47	C	1.177405	0.204999	0.655821
C48	C	1.186202	0.199671	0.531159
C49	C	1.261286	0.154255	0.468824
C50	C	1.270089	0.148931	0.344159
C51	C	1.128721	0.234429	0.344179
C52	C	1.119923	0.239757	0.468841
H53	H	0.735989	0.030385	0.000023
H54	H	0.886241	0.273515	-0.000030
H55	H	1.331228	0.111953	0.293407
H56	H	1.048980	-0.475518	-0.000042
H57	H	0.932104	0.045770	-0.000002
O58	O	1.043876	-0.024882	0.000058
C59	C	0.856358	-0.028532	-0.000025
C60	C	0.959413	-0.070860	-0.000059
H61	H	0.788045	-0.065688	-0.000146
H62	H	0.846441	0.009230	0.082883
H63	H	0.858307	0.002202	-0.082883
H64	H	0.957537	-0.101635	0.082742
H65	H	0.969291	-0.108579	-0.083023
H66	H	1.116266	0.241971	0.706591
H67	H	0.711478	0.323555	-0.000032
H68	H	1.388709	0.077195	0.480388
O69	O	1.383263	0.080530	0.716157
C70	C	1.524356	-0.004875	0.702979
C71	C	1.451397	0.039231	0.634483
H72	H	1.579445	-0.038287	0.636976
H73	H	1.571946	0.031181	0.761293
H74	H	1.475627	-0.040209	0.761391
H75	H	1.500046	0.074570	0.576006
H76	H	1.403803	0.003135	0.576244
H77	H	1.046093	-0.607831	-0.000065
H78	H	1.058789	0.276732	0.519608
H79	H	1.398501	-0.170548	0.000017
H80	H	1.074755	0.267072	0.293425
H81	H	0.561216	0.080430	0.000101
O82	O	0.505062	0.317432	-0.000086
C83	C	0.491401	0.442840	-0.000033
C84	C	0.564701	0.378434	0.000011
H85	H	0.539588	0.492177	0.000071
H86	H	0.446052	0.438515	-0.082937
H87	H	0.434280	0.445507	0.082829
H88	H	0.621884	0.375727	-0.082795
H89	H	0.609975	0.382785	0.082969
O90	O	1.416448	-0.032936	-0.000005
C91	C	1.603628	-0.044682	0.000085
C92	C	1.498819	-0.082513	0.000103
H93	H	1.670251	-0.084747	0.000197
H94	H	1.615041	-0.014196	-0.082814
H95	H	1.603172	-0.007085	0.082952
H96	H	1.499201	-0.120144	-0.082708
H97	H	1.487447	-0.112953	0.083057
H98	H	1.391682	-0.482919	-0.000014
O99	O	1.040913	-0.168640	-0.000160
C100	C	0.936732	-0.252961	-0.102810
C101	C	1.041477	-0.215056	-0.102756
H102	H	0.937144	-0.290486	-0.185763
H103	H	0.925383	-0.283517	-0.019985
H104	H	0.870086	-0.212897	-0.102756
H105	H	1.108185	-0.255073	-0.102852
H106	H	1.052734	-0.184488	-0.185574
H107	H	1.388792	-0.615228	-0.000053
