data_functionalizedCrystal
_audit_creation_method	'MofGen! by Chris Wilmer'
_symmetry_space_group_name_H-M	'P1'
_symmetry_Int_Tables_number	1
_symmetry_cell_setting	triclinic
loop_
_symmetry_equiv_pos_as_xyz
  x,y,z
_cell_length_a	14.853567
_cell_length_b	15.944551
_cell_length_c	13.330367
_cell_angle_alpha	89.994404
_cell_angle_beta	89.995418
_cell_angle_gamma	83.566834
loop_
_atom_site_label
_atom_site_type_symbol
_atom_site_fract_x
_atom_site_fract_y
_atom_site_fract_z
O1	O	1.196228	0.109665	-0.083357
O2	O	0.933752	0.122728	-0.083374
O3	O	1.072158	-0.006070	-0.083356
O4	O	1.057822	0.238463	-0.083375
O5	O	1.072137	-0.006073	0.083491
O6	O	0.933732	0.122725	0.083473
O7	O	1.196208	0.109662	0.083491
Cu8	Cu	1.064968	0.116193	0.098716
Cu9	Cu	1.064992	0.116197	-0.098600
O10	O	1.057802	0.238460	0.083472
C11	C	0.900154	0.122135	0.000047
C12	C	0.800072	0.120361	0.000041
C13	C	0.387646	0.036354	0.000070
C14	C	0.366169	0.189369	0.000057
C15	C	0.460201	0.191037	0.000054
C16	C	0.517960	0.115362	0.000057
C17	C	0.481687	0.038019	0.000064
C18	C	0.496480	0.268379	0.000037
C19	C	0.590517	0.270050	0.000033
C20	C	0.648278	0.194374	0.000043
C21	C	0.612000	0.117028	0.000051
C22	C	0.669759	0.041353	0.000054
C23	C	0.633483	-0.035994	0.000069
C24	C	0.539448	-0.037657	0.000074
C25	C	0.742313	0.196036	0.000038
C26	C	0.763800	0.043018	0.000048
C27	C	1.071552	-0.037367	0.000068
C28	C	1.069768	-0.130615	0.000068
C29	C	0.979713	-0.345572	0.000049
C30	C	1.021522	-0.406544	0.082317
C31	C	1.066541	-0.301344	0.000060
C32	C	1.021562	-0.406524	-0.082181
C33	C	1.063416	-0.466260	0.000048
C34	C	1.108373	-0.361088	0.082397
C35	C	1.108401	-0.361062	-0.082175
C36	C	1.150273	-0.422017	0.000113
C37	C	1.068338	-0.206340	0.000068
C38	C	1.061626	-0.561263	0.000048
C39	C	1.229806	0.110255	0.000067
C40	C	1.329887	0.112029	0.000067
C41	C	1.058407	0.269756	0.000046
C42	C	1.060191	0.363004	0.000039
N43	N	1.064958	0.116190	0.237498
N44	N	1.065009	0.116193	-0.237381
C45	C	1.003703	0.173206	0.710113
C46	C	1.126305	0.059180	0.710097
C47	C	1.126295	0.059178	0.605078
C48	C	1.064989	0.116191	0.552572
C49	C	1.003693	0.173207	0.605085
C50	C	1.187595	0.002169	0.552558
C51	C	1.187588	0.002164	0.447534
C52	C	1.126277	0.059174	0.395026
C53	C	1.064978	0.116192	0.447544
C54	C	1.003672	0.173205	0.395038
C55	C	0.942368	0.230220	0.447555
C56	C	0.942382	0.230217	0.552577
C57	C	1.126264	0.059177	0.290004
C58	C	1.003662	0.173206	0.290010
H59	H	0.319136	0.250981	0.000046
C60	C	0.876925	0.266530	0.000018
C61	C	0.782190	0.281046	0.000020
H62	H	0.901541	0.319016	0.000002
H63	H	0.896739	0.235375	0.058203
H64	H	0.896744	0.235363	-0.058164
H65	H	0.762372	0.312207	0.058206
H66	H	0.762369	0.312214	-0.058171
C67	C	0.882641	-0.394787	0.176047
C68	C	0.971938	-0.433755	0.176200
H69	H	0.852026	-0.411588	0.234002
H70	H	0.882937	-0.335249	0.176417
H71	H	0.852395	-0.411109	0.117624
H72	H	1.002186	-0.417427	0.234620
H73	H	0.971646	-0.493305	0.175840
C74	C	1.159074	-0.246369	0.175574
C75	C	1.157892	-0.334055	0.176398
H76	H	1.189637	-0.229680	0.233610
H77	H	1.189717	-0.230445	0.117238
H78	H	1.098664	-0.219514	0.175332
H79	H	1.218302	-0.360910	0.176633
H80	H	1.127251	-0.349988	0.234749
C81	C	1.179225	-0.086142	0.742442
C82	C	1.193681	-0.003491	0.767813
H83	H	1.220823	-0.124835	0.778075
H84	H	1.119064	-0.095351	0.759667
H85	H	1.187998	-0.094295	0.672379
H86	H	1.184901	0.004664	0.837876
H87	H	1.253856	0.005721	0.750595
H88	H	1.145102	-0.340890	-0.151725
C89	C	0.882692	-0.394711	-0.175911
C90	C	0.971984	-0.433692	-0.176075
H91	H	0.852084	-0.411477	-0.233879
H92	H	0.852437	-0.411051	-0.117505
H93	H	0.883001	-0.335167	-0.176256
H94	H	0.971675	-0.493237	-0.175723
H95	H	1.002248	-0.417357	-0.234497
C96	C	1.292871	-0.443761	0.086388
C97	C	1.247646	-0.466682	0.000180
H98	H	1.352981	-0.471342	0.086433
H99	H	1.294523	-0.384384	0.086933
H100	H	1.261785	-0.460025	0.144263
H101	H	1.278727	-0.450412	-0.057696
H102	H	1.245999	-0.526072	-0.000374
C103	C	0.882474	0.285920	0.300576
C104	C	0.936273	0.235881	0.232299
H105	H	0.840876	0.324615	0.264945
H106	H	0.850051	0.250897	0.341542
H107	H	0.920011	0.316195	0.341533
H108	H	0.898736	0.205601	0.191346
H109	H	0.968698	0.270908	0.191315
H110	H	0.892471	0.276637	0.595342
C111	C	0.917487	-0.022377	0.000042
C112	C	0.827287	-0.040168	0.000053
H113	H	0.956679	-0.073733	0.000051
H114	H	0.928479	0.009324	-0.058144
H115	H	0.928477	0.009333	0.058223
H116	H	0.816295	-0.071873	-0.058133
H117	H	0.816290	-0.071882	0.058244
H118	H	0.680523	-0.097609	0.000065
C119	C	0.404836	-0.108149	0.000074
C120	C	0.499571	-0.122671	0.000079
H121	H	0.380218	-0.160633	0.000069
H122	H	0.385016	-0.076994	0.058253
H123	H	0.385028	-0.076981	-0.058114
H124	H	0.519380	-0.153833	0.058272
H125	H	0.519399	-0.153838	-0.058105
H126	H	0.358106	-0.026620	0.000086
H127	H	0.892456	0.276644	0.404792
H128	H	0.953788	0.219624	0.752874
C129	C	1.240512	-0.143154	0.584902
C130	C	1.254966	-0.060504	0.610281
H131	H	1.282105	-0.181848	0.620540
H132	H	1.180349	-0.152363	0.602114
H133	H	1.249296	-0.151305	0.514839
H134	H	1.246175	-0.052351	0.680342
H135	H	1.315143	-0.051292	0.593075
H136	H	1.237504	-0.044260	0.404781
H137	H	1.176181	0.012761	0.247250
H138	H	0.449447	0.329989	0.000024
C139	C	0.601141	0.400993	-0.085750
C140	C	0.630378	0.355072	0.000022
H141	H	0.625745	0.453485	-0.085749
H142	H	0.620979	0.369834	-0.143919
H143	H	0.536870	0.410816	-0.085739
H144	H	0.694650	0.345244	0.000008
H145	H	0.610546	0.386237	0.058207
C146	C	0.885088	-0.213207	-0.000748
C147	C	0.882424	-0.300711	0.000138
H148	H	0.825027	-0.185514	-0.000697
H149	H	0.916222	-0.197003	0.057101
H150	H	0.915811	-0.197761	-0.059261
H151	H	0.851707	-0.316158	0.058655
H152	H	0.851277	-0.316921	-0.057717
