data_functionalizedCrystal
_audit_creation_method	'MofGen! by Chris Wilmer'
_symmetry_space_group_name_H-M	'P1'
_symmetry_Int_Tables_number	1
_symmetry_cell_setting	triclinic
loop_
_symmetry_equiv_pos_as_xyz
  x,y,z
_cell_length_a	16.625548
_cell_length_b	18.101397
_cell_length_c	16.625539
_cell_angle_alpha	90.031854
_cell_angle_beta	90.020568
_cell_angle_gamma	90.021534
loop_
_atom_site_label
_atom_site_type_symbol
_atom_site_fract_x
_atom_site_fract_y
_atom_site_fract_z
Zn1	Zn	1.232692	-0.294807	0.455889
Zn2	Zn	1.566025	0.038526	0.789223
Zn3	Zn	1.899358	0.371860	1.122556
Zn4	Zn	1.232600	-0.418656	0.321048
Zn5	Zn	1.565933	-0.085323	0.654382
Zn6	Zn	1.899266	0.248010	0.987715
Zn7	Zn	1.097853	-0.294835	0.321070
Zn8	Zn	1.431187	0.038498	0.654403
Zn9	Zn	1.764520	0.371831	0.987737
Zn10	Zn	1.097829	-0.418614	0.455838
Zn11	Zn	1.431162	-0.085280	0.789172
Zn12	Zn	1.764495	0.248053	1.122505
O13	O	1.165243	-0.356728	0.388462
O14	O	1.498577	-0.023395	0.721795
O15	O	1.831910	0.309939	1.055128
O16	O	1.345512	-0.311242	0.438015
O17	O	1.678845	0.022091	0.771348
O18	O	2.012178	0.355425	1.104682
O19	O	1.214697	-0.402261	0.208219
O20	O	1.548030	-0.068927	0.541552
O21	O	1.881364	0.264406	0.874885
O22	O	1.115789	-0.191199	0.338985
O23	O	1.449122	0.142135	0.672318
O24	O	1.782456	0.475468	1.005651
O25	O	1.345444	-0.402233	0.338948
O26	O	1.678778	-0.068900	0.672281
O27	O	2.012111	0.264433	1.005614
O28	O	1.214854	-0.191178	0.438036
O29	O	1.548187	0.142155	0.771369
O30	O	1.881521	0.475489	1.104703
O31	O	1.115700	-0.311290	0.208235
O32	O	1.449033	0.022043	0.541568
O33	O	1.782366	0.355377	0.874901
O34	O	0.985018	-0.311249	0.338935
O35	O	1.318351	0.022085	0.672268
O36	O	1.651684	0.355418	1.005602
O37	O	1.115747	-0.402161	0.568677
O38	O	1.449080	-0.068828	0.902011
O39	O	1.782413	0.264506	1.235344
O40	O	0.985000	-0.402188	0.437949
O41	O	1.318333	-0.068855	0.771282
O42	O	1.651666	0.264478	1.104615
O43	O	1.214830	-0.311201	0.568715
O44	O	1.548163	0.022133	0.902048
O45	O	1.881497	0.355466	1.235382
O46	O	1.214673	-0.522283	0.338898
O47	O	1.548006	-0.188950	0.672231
O48	O	1.881340	0.144383	1.005565
O49	O	1.115657	-0.522252	0.437928
O50	O	1.448991	-0.188919	0.771261
O51	O	1.782324	0.144414	1.104594
C52	C	0.955752	-0.356718	0.388439
C53	C	1.289086	-0.023384	0.721772
C54	C	1.622419	0.309949	1.055106
C55	C	0.866131	-0.356731	0.388448
C56	C	1.199465	-0.023397	0.721782
C57	C	1.532798	0.309936	1.055115
C58	C	1.165174	-0.549139	0.388422
C59	C	1.498508	-0.215805	0.721756
C60	C	1.831841	0.117528	1.055089
C61	C	1.165219	-0.631453	0.388433
C62	C	1.498552	-0.298119	0.721766
C63	C	1.831885	0.035214	1.055099
C64	C	0.537956	-0.356736	0.388483
C65	C	0.871289	-0.023402	0.721816
C66	C	1.204622	0.309931	1.055150
C67	C	0.629264	-0.356732	0.388471
C68	C	0.962598	-0.023399	0.721804
C69	C	1.295931	0.309934	1.055137
C70	C	0.702041	-0.356734	0.388465
C71	C	1.035374	-0.023400	0.721798
C72	C	1.368707	0.309933	1.055132
C73	C	0.793355	-0.356729	0.388454
C74	C	1.126688	-0.023396	0.721787
C75	C	1.460022	0.309937	1.055121
C76	C	1.165322	-0.930544	0.388506
C77	C	1.498655	-0.597210	0.721840
C78	C	1.831988	-0.263877	1.055173
C79	C	1.227446	-0.899207	0.326033
C80	C	1.560779	-0.565874	0.659366
C81	C	1.894112	-0.232541	0.992699
C82	C	1.227661	-0.813589	0.326194
C83	C	1.560994	-0.480255	0.659528
C84	C	1.894328	-0.146922	0.992861
C85	C	1.165271	-0.782161	0.388469
C86	C	1.498604	-0.448828	0.721802
C87	C	1.831937	-0.115494	1.055136
C88	C	1.188307	-0.813166	0.473459
C89	C	1.521640	-0.479833	0.806792
C90	C	1.854973	-0.146500	1.140126
C91	C	1.188788	-0.898811	0.473119
C92	C	1.522121	-0.565478	0.806452
C93	C	1.855454	-0.232145	1.139786
C94	C	1.079995	-0.899055	0.366725
C95	C	1.413329	-0.565721	0.700059
C96	C	1.746662	-0.232388	1.033392
C97	C	1.080417	-0.813405	0.364828
C98	C	1.413750	-0.480072	0.698162
C99	C	1.747083	-0.146738	1.031495
C100	C	1.165240	-0.698302	0.388453
C101	C	1.498574	-0.364968	0.721787
C102	C	1.831907	-0.031635	1.055120
C103	C	1.165354	-1.014403	0.388528
C104	C	1.498687	-0.681070	0.721861
C105	C	1.832020	-0.347736	1.055194
C106	C	1.375552	-0.356739	0.388485
C107	C	1.708886	-0.023406	0.721818
C108	C	2.042219	0.309927	1.055151
C109	C	1.465173	-0.356744	0.388494
C110	C	1.798507	-0.023411	0.721828
C111	C	2.131840	0.309923	1.055161
C112	C	1.165296	-0.356673	0.598771
C113	C	1.498629	-0.023340	0.932104
C114	C	1.831962	0.309994	1.265437
C115	C	1.165318	-0.356649	0.688392
C116	C	1.498651	-0.023316	1.021725
C117	C	1.831985	0.310017	1.355058
C118	C	1.165335	-0.163566	0.388518
C119	C	1.498668	0.169767	0.721852
C120	C	1.832001	0.503101	1.055185
C121	C	1.165373	-0.081252	0.388543
C122	C	1.498707	0.252081	0.721876
C123	C	1.832040	0.585415	1.055209
C124	C	1.165238	-0.356730	0.178971
C125	C	1.498571	-0.023396	0.512304
C126	C	1.831904	0.309937	0.845637
C127	C	1.165371	-0.356544	0.089350
C128	C	1.498705	-0.023211	0.422683
C129	C	1.832038	0.310122	0.756017
C130	C	1.165355	-0.356566	1.016568
C131	C	1.498689	-0.023233	1.349901
C132	C	1.832022	0.310100	1.683234
C133	C	1.165343	-0.356592	0.925259
C134	C	1.498676	-0.023259	1.258592
C135	C	1.832009	0.310075	1.591926
C136	C	1.165337	-0.356609	0.852483
C137	C	1.498670	-0.023275	1.185816
C138	C	1.832004	0.310058	1.519149
C139	C	1.165324	-0.356633	0.761168
C140	C	1.498657	-0.023299	1.094502
C141	C	1.831990	0.310034	1.427835
H142	H	1.213208	-0.919852	0.262825
H143	H	1.546541	-0.586519	0.596158
H144	H	1.879874	-0.253185	0.929492
H145	H	1.251157	-0.918729	0.491569
H146	H	1.584490	-0.585395	0.824902
H147	H	1.917824	-0.252062	1.158236
O148	O	1.054895	-0.924970	0.294137
O149	O	1.388228	-0.591637	0.627471
O150	O	1.721562	-0.258304	0.960804
C151	C	0.954161	-0.993832	0.221643
C152	C	1.287494	-0.660499	0.554976
C153	C	1.620827	-0.327165	0.888310
C154	C	0.982492	-0.964542	0.303904
C155	C	1.315826	-0.631208	0.637238
C156	C	1.649159	-0.297875	0.970571
H157	H	0.895611	-1.025818	0.229509
H158	H	1.228945	-0.692485	0.562842
H159	H	1.562278	-0.359152	0.896176
H160	H	1.002055	-1.031915	0.195418
H161	H	1.335388	-0.698582	0.528752
H162	H	1.668722	-0.365249	0.862085
H163	H	0.943817	-0.945393	0.179088
H164	H	1.277150	-0.612060	0.512421
H165	H	1.610483	-0.278726	0.845755
H166	H	0.992829	-1.012934	0.346520
H167	H	1.326162	-0.679600	0.679853
H168	H	1.659496	-0.346267	1.013186
H169	H	0.934583	-0.926437	0.330063
H170	H	1.267917	-0.593103	0.663396
H171	H	1.601250	-0.259770	0.996730
O172	O	1.137155	-0.923419	0.530608
O173	O	1.470488	-0.590086	0.863941
O174	O	1.803821	-0.256752	1.197274
C175	C	1.043156	-0.890545	0.634938
C176	C	1.376490	-0.557211	0.968271
C177	C	1.709823	-0.223878	1.301605
C178	C	1.101608	-0.862581	0.569868
C179	C	1.434942	-0.529247	0.903202
C180	C	1.768275	-0.195914	1.236535
H181	H	1.014388	-0.841371	0.666687
H182	H	1.347722	-0.508038	1.000020
H183	H	1.681055	-0.174705	1.333354
H184	H	1.077478	-0.925350	0.680614
H185	H	1.410811	-0.592017	1.013947
H186	H	1.744144	-0.258683	1.347281
H187	H	0.994284	-0.925625	0.605641
H188	H	1.327618	-0.592291	0.938974
H189	H	1.660951	-0.258958	1.272308
H190	H	1.150493	-0.827471	0.599095
H191	H	1.483826	-0.494137	0.932428
H192	H	1.817160	-0.160804	1.265761
H193	H	1.067231	-0.827815	0.524200
H194	H	1.400564	-0.494482	0.857533
H195	H	1.733897	-0.161149	1.190866
H196	H	1.213249	-0.792629	0.263176
H197	H	1.546582	-0.459295	0.596509
H198	H	1.879915	-0.125962	0.929842
H199	H	1.144442	-0.792807	0.521259
H200	H	1.477775	-0.459473	0.854592
H201	H	1.811109	-0.126140	1.187925
H202	H	1.290866	-0.793044	0.340606
H203	H	1.624199	-0.459711	0.673939
H204	H	1.957532	-0.126377	1.007272
H205	H	1.031640	-0.792020	0.406999
H206	H	1.364973	-0.458686	0.740332
H207	H	1.698306	-0.125353	1.073665
H208	H	1.249978	-0.791657	0.492221
H209	H	1.583311	-0.458324	0.825554
H210	H	1.916645	-0.124991	1.158888
H211	H	1.063047	-0.793148	0.302282
H212	H	1.396380	-0.459815	0.635616
H213	H	1.729713	-0.126481	0.968949
H214	H	1.290305	-0.920674	0.340278
H215	H	1.623638	-0.587341	0.673611
H216	H	1.956972	-0.254007	1.006945
H217	H	1.033708	-0.919320	0.412227
H218	H	1.367041	-0.585987	0.745561
H219	H	1.700375	-0.252653	1.078894
