data_functionalizedCrystal
_audit_creation_method	'MofGen! by Chris Wilmer'
_symmetry_space_group_name_H-M	'P1'
_symmetry_Int_Tables_number	1
_symmetry_cell_setting	triclinic
loop_
_symmetry_equiv_pos_as_xyz
  x,y,z
_cell_length_a	17.077404
_cell_length_b	18.215405
_cell_length_c	17.077396
_cell_angle_alpha	90.028580
_cell_angle_beta	90.019501
_cell_angle_gamma	90.022957
loop_
_atom_site_label
_atom_site_type_symbol
_atom_site_fract_x
_atom_site_fract_y
_atom_site_fract_z
Zn1	Zn	1.200055	-0.292980	0.443842
Zn2	Zn	1.199963	-0.416053	0.312576
Zn3	Zn	1.068787	-0.293006	0.312590
Zn4	Zn	1.068756	-0.416010	0.443800
O5	O	1.134390	-0.354512	0.378202
O6	O	1.309890	-0.309313	0.426441
O7	O	1.182537	-0.399760	0.202731
O8	O	1.086252	-0.190018	0.330025
O9	O	1.309822	-0.399735	0.330001
O10	O	1.182694	-0.189999	0.426455
O11	O	1.086163	-0.309357	0.202741
O12	O	0.958936	-0.309315	0.329983
O13	O	1.086198	-0.399660	0.553652
O14	O	0.958913	-0.399685	0.426382
O15	O	1.182664	-0.309271	0.553683
O16	O	1.182506	-0.519032	0.329959
O17	O	1.086109	-0.519000	0.426369
C18	C	0.930442	-0.354499	0.378180
C19	C	0.843193	-0.354511	0.378190
C20	C	0.802211	-0.401638	0.428304
C21	C	0.720230	-0.401639	0.428317
C22	C	0.679233	-0.354517	0.378210
C23	C	0.720221	-0.307385	0.328094
C24	C	0.802200	-0.307380	0.328086
C25	C	0.549351	-0.307400	0.328112
C26	C	0.467366	-0.307405	0.328119
C27	C	0.467381	-0.401659	0.428344
C28	C	0.549360	-0.401654	0.428336
C29	C	0.590342	-0.354522	0.378218
C30	C	1.134315	-0.545718	0.378175
C31	C	1.134355	-0.627517	0.378190
C32	C	1.184596	-0.815640	0.428469
C33	C	1.184625	-0.892499	0.428484
C34	C	1.084282	-0.892632	0.327984
C35	C	1.084250	-0.815775	0.327974
C36	C	1.134411	-0.777281	0.378215
C37	C	1.134472	-0.930997	0.378240
C38	C	1.134502	-1.014330	0.378255
C39	C	1.134380	-0.693942	0.378201
C40	C	1.339135	-0.354526	0.378224
C41	C	1.426384	-0.354532	0.378234
C42	C	1.134438	-0.354458	0.582946
C43	C	1.134458	-0.354435	0.670196
C44	C	1.134487	-0.162559	0.378246
C45	C	1.134529	-0.080760	0.378265
C46	C	1.134388	-0.354513	0.174254
C47	C	1.134520	-0.354329	0.087005
C48	C	1.184689	-0.307365	0.711204
C49	C	1.184699	-0.307341	0.793184
C50	C	1.134480	-0.354390	0.834156
C51	C	1.084243	-0.401462	0.793142
C52	C	1.084231	-0.401482	0.711163
C53	C	1.084275	-0.401418	0.964012
C54	C	1.084289	-0.401399	1.045997
C55	C	1.184743	-0.307276	1.046034
C56	C	1.184730	-0.307296	0.964055
C57	C	1.134494	-0.354369	0.923047
H58	H	0.686834	-0.269014	0.287299
O59	O	1.030194	-0.934160	0.273791
H60	H	0.968569	-0.919457	0.287193
H61	H	1.043380	-0.784540	0.287051
H62	H	1.225586	-0.269054	0.677851
H63	H	0.582716	-0.269014	0.287308
H64	H	0.835566	-0.269001	0.287281
O65	O	1.238697	-0.774118	0.482654
H66	H	1.273595	-0.813708	0.517603
H67	H	1.225604	-0.269013	0.826569
H68	H	0.686867	-0.440015	0.469124
H69	H	0.433988	-0.269025	0.287327
O70	O	0.593584	-0.452474	0.482380
H71	H	0.551316	-0.485242	0.517238
H72	H	1.043319	-0.439804	0.677776
H73	H	1.225646	-0.268946	1.079426
O74	O	1.238754	-0.933876	0.482683
H75	H	1.273630	-0.894193	0.517611
O76	O	1.238897	-0.256556	0.919859
H77	H	1.273827	-0.223815	0.962145
H78	H	1.043395	-0.439709	1.079354
H79	H	1.043355	-0.439738	0.930626
O80	O	1.030073	-0.452203	0.837332
H81	H	1.043495	-0.509967	0.821582
O82	O	0.846433	-0.452453	0.482354
H83	H	0.830674	-0.510200	0.468797
O84	O	0.423187	-0.452490	0.482408
H85	H	0.359295	-0.444571	0.474006
