data_functionalizedCrystal
_audit_creation_method	'MofGen! by Chris Wilmer'
_symmetry_space_group_name_H-M	'P1'
_symmetry_Int_Tables_number	1
_symmetry_cell_setting	triclinic
loop_
_symmetry_equiv_pos_as_xyz
  x,y,z
_cell_length_a	18.215407
_cell_length_b	18.050590
_cell_length_c	18.215399
_cell_angle_alpha	89.968856
_cell_angle_beta	89.986109
_cell_angle_gamma	90.016012
loop_
_atom_site_label
_atom_site_type_symbol
_atom_site_fract_x
_atom_site_fract_y
_atom_site_fract_z
Zn1	Zn	1.125082	-0.295700	-0.416054
Zn2	Zn	1.125011	-0.419900	-0.292986
Zn3	Zn	1.002021	-0.295723	-0.293008
Zn4	Zn	1.001995	-0.419847	-0.416017
O5	O	1.063527	-0.357792	-0.354516
O6	O	1.228057	-0.312188	-0.399735
O7	O	1.108677	-0.403459	-0.190005
O8	O	1.018387	-0.191795	-0.309355
O9	O	1.228005	-0.403437	-0.309318
O10	O	1.108799	-0.191778	-0.399756
O11	O	1.018318	-0.312227	-0.190021
O12	O	0.899034	-0.312176	-0.309319
O13	O	1.018341	-0.403347	-0.519007
O14	O	0.899014	-0.403369	-0.399694
O15	O	1.108773	-0.312136	-0.519034
O16	O	1.108651	-0.523818	-0.309282
O17	O	1.018272	-0.523779	-0.399673
C18	C	0.872321	-0.357770	-0.354505
C19	C	0.790522	-0.357778	-0.354518
C20	C	0.525474	-0.405355	-0.401510
C21	C	0.602332	-0.405348	-0.401506
C22	C	0.602322	-0.310247	-0.307536
C23	C	0.525465	-0.310257	-0.307536
C24	C	0.487043	-0.357810	-0.354527
C25	C	0.640759	-0.357793	-0.354524
C26	C	0.724092	-0.357786	-0.354519
C27	C	0.403704	-0.357819	-0.354531
C28	C	1.063471	-0.550745	-0.354487
C29	C	1.063514	-0.633290	-0.354499
C30	C	1.112765	-0.832735	-0.305413
C31	C	1.130738	-0.882065	-0.372579
C32	C	1.063556	-0.784421	-0.354529
C33	C	1.045657	-0.882172	-0.287393
C34	C	1.063597	-0.930406	-0.354551
C35	C	1.081564	-0.832664	-0.421730
C36	C	0.996451	-0.832766	-0.336498
C37	C	1.014399	-0.882074	-0.403710
C38	C	1.063533	-0.700322	-0.354515
C39	C	1.063619	-1.014502	-0.354572
C40	C	1.255480	-0.357816	-0.354528
C41	C	1.337279	-0.357826	-0.354533
C42	C	1.063562	-0.357733	-0.546469
C43	C	1.063577	-0.357708	-0.628268
C44	C	1.063604	-0.164087	-0.354562
C45	C	1.063637	-0.081541	-0.354581
C46	C	1.016566	-0.310171	-0.816472
C47	C	1.016579	-0.310156	-0.893330
C48	C	1.110675	-0.405156	-0.893303
C49	C	1.110658	-0.405174	-0.816446
C50	C	1.063605	-0.357677	-0.778032
C51	C	1.063635	-0.357644	-0.931748
C52	C	1.063649	-0.357628	-1.015082
C53	C	1.063590	-0.357694	-0.694693
C54	C	1.063535	-0.357798	-0.163310
C55	C	1.063663	-0.357614	-0.081512
H56	H	0.494174	-0.271540	-0.269274
N57	N	1.161420	-0.456380	-0.934743
H58	H	1.195543	-0.426195	-0.966641
H59	H	1.191167	-0.486473	-0.898685
N60	N	1.205925	-0.910765	-0.392801
H61	H	1.219846	-0.891982	-0.443156
H62	H	1.242998	-0.892818	-0.355619
H63	H	1.096663	-0.811009	-0.478564
N64	N	0.643760	-0.258953	-0.256858
H65	H	0.675637	-0.289086	-0.222702
H66	H	0.675616	-0.224576	-0.286877
H67	H	0.972803	-0.903601	-0.445303
H68	H	0.978275	-0.271472	-0.924625
N69	N	1.161391	-0.456420	-0.774980
H70	H	1.191205	-0.486502	-0.810976
H71	H	1.195452	-0.426202	-0.743099
N72	N	0.484037	-0.456652	-0.452185
H73	H	0.452136	-0.491034	-0.422216
H74	H	0.452203	-0.426468	-0.486335
H75	H	0.633619	-0.444065	-0.439763
H76	H	1.154393	-0.811070	-0.263921
N77	N	0.921279	-0.804053	-0.316257
H78	H	0.907786	-0.822031	-0.265499
H79	H	0.921762	-0.748107	-0.316917
N80	N	1.025577	-0.910981	-0.212179
H81	H	1.062769	-0.893034	-0.175114
H82	H	0.975223	-0.892272	-0.198233
N83	N	0.965820	-0.258944	-0.775038
H84	H	0.936024	-0.228847	-0.811055
H85	H	0.931744	-0.289175	-0.743137
