data_functionalizedCrystal
_audit_creation_method	'MofGen! by Chris Wilmer'
_symmetry_space_group_name_H-M	'P1'
_symmetry_Int_Tables_number	1
_symmetry_cell_setting	triclinic
loop_
_symmetry_equiv_pos_as_xyz
  x,y,z
_cell_length_a	6.817900
_cell_length_b	11.102289
_cell_length_c	19.453114
_cell_angle_alpha	94.505474
_cell_angle_beta	101.709288
_cell_angle_gamma	108.605707
loop_
_atom_site_label
_atom_site_type_symbol
_atom_site_fract_x
_atom_site_fract_y
_atom_site_fract_z
V1	V	-4.033154	-0.177162	-0.218999
O2	O	-3.993679	0.007152	-0.214830
O3	O	-4.010467	-0.349973	-0.217501
O4	O	-3.975753	-0.175035	-0.314512
O5	O	-4.028634	-0.168998	-0.117148
V6	V	-4.514617	-0.155046	-0.206817
O7	O	-4.298932	-0.225677	-0.245722
O8	O	-4.699036	-0.106531	-0.180094
O9	O	-4.314097	0.017766	-0.208315
O10	O	-4.671489	-0.339360	-0.210985
O11	O	-4.636534	-0.163210	-0.308668
O12	O	-4.348812	-0.157173	-0.111304
C13	C	-3.862015	-0.392082	-0.214046
C14	C	-3.924692	-0.533362	-0.213458
C15	C	-3.817731	-0.168929	-0.337792
C16	C	-3.852253	-0.168333	-0.415875
C17	C	-4.136891	-0.606229	-0.216686
C18	C	-4.195775	-0.738978	-0.216139
C19	C	-3.830237	-0.725977	-0.209134
C20	C	-3.771359	-0.593233	-0.209686
C21	C	-4.347931	-0.613735	-0.220727
C22	C	-4.406815	-0.746484	-0.220180
C23	C	-4.051203	-0.174432	-0.456132
C24	C	-4.083640	-0.173872	-0.529499
C25	C	-3.917128	-0.167238	-0.562607
C26	C	-3.718147	-0.161131	-0.522340
C27	C	-3.685710	-0.161678	-0.448974
N28	N	-3.867372	-0.234355	-0.681397
N29	N	-3.898200	-0.233839	-0.751092
C30	C	-4.014849	-0.165586	-0.783656
N31	N	-4.099543	-0.097887	-0.743893
N32	N	-4.068721	-0.098410	-0.674192
C33	C	-3.952281	-0.166643	-0.642160
C34	C	-4.248982	-0.171077	-0.903466
C35	C	-4.281408	-0.170509	-0.976833
C36	C	-3.915916	-0.157780	-0.969674
C37	C	-3.883489	-0.158336	-0.896307
C38	C	-4.050033	-0.164990	-0.863208
C39	C	-4.125893	0.059868	-0.211767
C40	C	-4.042453	0.201146	-0.212360
C41	C	-4.170176	-0.163283	-0.088020
C42	C	-4.114892	-0.163873	-0.009936
H43	H	-3.598576	-0.533911	-0.207066
C44	C	-4.745522	-0.793427	-0.302419
C45	C	-4.559623	-0.825037	-0.290422
H46	H	-4.839855	-0.841930	-0.345781
H47	H	-4.709973	-0.704264	-0.305190
H48	H	-4.812829	-0.812672	-0.264426
H49	H	-4.492306	-0.805783	-0.328413
H50	H	-4.595170	-0.914220	-0.287657
H51	H	-4.441515	-0.594823	-0.271809
C52	C	-4.310677	-0.409708	-0.157803
C53	C	-4.371944	-0.541463	-0.153875
H54	H	-4.325487	-0.365091	-0.116529
H55	H	-4.398814	-0.396012	-0.198765
H56	H	-4.166163	-0.378664	-0.160768
H57	H	-4.516464	-0.572508	-0.150915
H58	H	-4.283807	-0.555167	-0.112901
H59	H	-4.475293	-0.771163	-0.172200
H60	H	-4.186816	-0.179845	-0.429187
H61	H	-4.245657	-0.178845	-0.562283
H62	H	-3.582572	-0.155726	-0.549302
C63	C	-3.417607	-0.260841	-0.429773
C64	C	-3.467007	-0.155003	-0.404733
H65	H	-3.282592	-0.256729	-0.402460
H66	H	-3.413122	-0.259546	-0.478200
H67	H	-3.523592	-0.338030	-0.425629
H68	H	-3.361029	-0.077814	-0.408882
H69	H	-3.471476	-0.156287	-0.356294
C70	C	-4.603883	-0.291906	-0.896435
C71	C	-4.432029	-0.178375	-0.867075
H72	H	-4.716890	-0.296405	-0.873972
H73	H	-4.559676	-0.363865	-0.889353
H74	H	-4.651652	-0.292431	-0.945890
H75	H	-4.384249	-0.177855	-0.817621
H76	H	-4.476240	-0.106398	-0.874151
C77	C	-4.583261	-0.287092	-1.072949
C78	C	-4.500110	-0.177210	-1.021087
H79	H	-4.718274	-0.291222	-1.100272
H80	H	-4.599198	-0.361525	-1.050595
H81	H	-4.488711	-0.283036	-1.103161
H82	H	-4.594653	-0.181271	-0.990872
H83	H	-4.484184	-0.102758	-1.043443
H84	H	-3.705408	-0.774741	-0.206064
H85	H	-3.780333	-0.152368	-0.996630
H86	H	-3.721491	-0.153383	-0.863530
