data_functionalizedCrystal
_audit_creation_method	'MofGen! by Chris Wilmer'
_symmetry_space_group_name_H-M	'P1'
_symmetry_Int_Tables_number	1
_symmetry_cell_setting	triclinic
loop_
_symmetry_equiv_pos_as_xyz
  x,y,z
_cell_length_a	16.992694
_cell_length_b	11.792241
_cell_length_c	16.053802
_cell_angle_alpha	92.583059
_cell_angle_beta	87.249047
_cell_angle_gamma	87.430819
loop_
_atom_site_label
_atom_site_type_symbol
_atom_site_fract_x
_atom_site_fract_y
_atom_site_fract_z
O1	O	1.044699	0.236280	-0.069325
O2	O	0.816403	0.233637	-0.069350
O3	O	0.936091	0.070242	-0.069331
O4	O	0.925011	0.399675	-0.069344
O5	O	0.929503	0.079196	0.069527
O6	O	0.809815	0.242591	0.069508
O7	O	1.038111	0.245234	0.069533
Zn8	Zn	0.922917	0.245334	0.091567
Zn9	Zn	0.931597	0.233537	-0.091384
O10	O	0.918423	0.408630	0.069514
C11	C	0.783882	0.234716	0.000076
C12	C	0.696796	0.224578	0.000067
C13	C	0.646971	0.322395	0.000064
C14	C	0.565143	0.312864	0.000076
C15	C	0.533142	0.205513	0.000085
C16	C	0.582973	0.107688	0.000091
C17	C	0.664799	0.117221	0.000085
C18	C	0.289375	0.166002	0.000109
C19	C	0.207543	0.156476	0.000112
C20	C	0.189719	0.361652	0.000099
C21	C	0.271548	0.371176	0.000088
C22	C	0.321371	0.273351	0.000098
N23	N	0.449501	0.195767	0.000094
N24	N	0.405010	0.283098	0.000095
C25	C	0.932101	0.032371	0.000098
C26	C	0.930018	-0.093813	0.000097
C27	C	0.926188	-0.324840	0.000082
C28	C	0.928316	-0.196280	0.000090
C29	C	1.070632	0.244155	0.000105
C30	C	1.157719	0.254293	0.000109
C31	C	0.922413	0.446500	0.000084
C32	C	0.924497	0.572684	0.000079
N33	N	0.916999	0.253386	0.216427
N34	N	0.937521	0.225477	-0.216243
C35	C	0.967945	0.183889	0.260129
C36	C	0.963812	0.189532	0.347535
C37	C	0.908737	0.264679	0.391237
C38	C	0.857785	0.334179	0.347529
C39	C	0.861915	0.328529	0.260125
C40	C	0.890699	0.289327	0.652644
C41	C	0.886575	0.294974	0.740055
C42	C	0.992602	0.150325	0.740054
C43	C	0.996729	0.144687	0.652648
C44	C	0.945775	0.214182	0.608948
N45	N	0.904513	0.270452	0.480580
N46	N	0.949996	0.208403	0.519606
H47	H	0.329932	0.086345	0.000118
H48	H	0.705366	0.037567	0.000087
H49	H	1.012796	0.122701	0.224552
H50	H	0.297597	0.458591	0.000071
C51	C	1.069049	0.046021	0.338755
C52	C	1.019826	0.113157	0.395572
H53	H	1.103635	-0.001123	0.368413
H54	H	1.037843	-0.000026	0.304679
H55	H	1.099059	0.093685	0.304649
H56	H	0.989811	0.065493	0.429674
H57	H	1.051035	0.159209	0.429662
H58	H	1.041576	0.083496	0.617067
C59	C	1.004321	0.003711	0.838358
C60	C	1.048599	0.073927	0.788093
H61	H	1.038893	-0.043462	0.868011
H62	H	0.970939	0.049278	0.876889
H63	H	0.973112	-0.042316	0.804260
H64	H	1.079804	0.119961	0.822192
H65	H	1.081995	0.028356	0.749557
C66	C	0.782162	0.437362	0.731281
C67	C	0.826021	0.377565	0.788095
H68	H	0.744776	0.488338	0.760941
H69	H	0.816585	0.479003	0.697184
H70	H	0.755369	0.385294	0.697196
H71	H	0.852819	0.429632	0.822176
H72	H	0.791593	0.335920	0.822206
H73	H	0.849212	0.345915	0.617070
H74	H	0.812938	0.395361	0.383117
H75	H	0.149145	0.441295	0.000092
H76	H	0.673020	0.409812	0.000056
C77	C	0.555745	0.516625	0.000051
C78	C	0.510376	0.420388	0.000068
H79	H	0.521933	0.583007	0.000042
H80	H	0.585741	0.519202	0.048467
H81	H	0.590322	0.512938	-0.048379
H82	H	0.475803	0.424071	0.048501
H83	H	0.480367	0.417811	-0.048353
H84	H	0.181491	0.069053	0.000119
C85	C	0.465456	0.001971	0.000098
C86	C	0.547799	-0.010315	0.000099
H87	H	0.443745	-0.070883	0.000096
H88	H	0.446097	0.045674	0.048516
H89	H	0.450683	0.039438	-0.048330
H90	H	0.562572	-0.047775	0.048530
H91	H	0.567165	-0.054036	-0.048325
H92	H	0.820428	0.385119	0.224543
