data_functionalizedCrystal
_audit_creation_method	'MofGen! by Chris Wilmer'
_symmetry_space_group_name_H-M	'P1'
_symmetry_Int_Tables_number	1
_symmetry_cell_setting	triclinic
loop_
_symmetry_equiv_pos_as_xyz
  x,y,z
_cell_length_a	10.654545
_cell_length_b	14.971486
_cell_length_c	9.730223
_cell_angle_alpha	89.995390
_cell_angle_beta	89.997167
_cell_angle_gamma	84.048604
loop_
_atom_site_label
_atom_site_type_symbol
_atom_site_fract_x
_atom_site_fract_y
_atom_site_fract_z
O1	O	1.666495	0.125612	-0.114277
O2	O	2.166495	0.625612	0.385723
O3	O	1.300887	0.137585	-0.114283
O4	O	1.800887	0.637585	0.385717
O5	O	1.493490	0.001452	-0.114270
O6	O	1.993490	0.501452	0.385730
O7	O	1.473892	0.261745	-0.114290
O8	O	1.973892	0.761745	0.385710
O9	O	1.493478	0.001448	0.114310
O10	O	1.993478	0.501448	0.614310
O11	O	1.300875	0.137581	0.114297
O12	O	1.800875	0.637581	0.614297
O13	O	1.666482	0.125608	0.114303
O14	O	2.166482	0.625608	0.614303
Zn15	Zn	1.483677	0.131594	0.150592
Zn16	Zn	1.983677	0.631594	0.650592
Zn17	Zn	1.483693	0.131599	-0.150572
Zn18	Zn	1.983693	0.631599	0.349428
O19	O	1.473879	0.261742	0.114290
O20	O	1.973879	0.761742	0.614290
C21	C	1.254092	0.136705	0.000006
C22	C	1.754092	0.636705	0.500006
C23	C	1.114677	0.134077	0.000005
C24	C	1.614677	0.634077	0.500005
C25	C	1.049179	0.132838	0.124604
C26	C	1.549179	0.632838	0.624604
C27	C	0.918186	0.130354	0.124605
C28	C	1.418186	0.630354	0.624605
C29	C	0.918200	0.130352	-0.124606
C30	C	1.418200	0.630352	0.375394
C31	C	1.049192	0.132830	-0.124605
C32	C	1.549192	0.632830	0.375395
C33	C	1.492608	-0.031880	0.000020
C34	C	1.992608	0.468120	0.500020
C35	C	1.489981	-0.131191	0.000018
C36	C	1.989981	0.368809	0.500018
C37	C	1.603130	-0.187802	0.000021
C38	C	2.103130	0.312198	0.500021
C39	C	1.600655	-0.281115	0.000007
C40	C	2.100655	0.218885	0.500007
C41	C	1.485029	-0.317815	0.000000
C42	C	1.985029	0.182185	0.500000
C43	C	1.371871	-0.261197	-0.000006
C44	C	1.871871	0.238803	0.499994
C45	C	1.374348	-0.167886	-0.000002
C46	C	1.874348	0.332114	0.499998
C47	C	1.366717	-0.455687	-0.000012
C48	C	1.866717	0.044313	0.499988
C49	C	1.364240	-0.549005	-0.000013
C50	C	1.864240	-0.049005	0.499987
C51	C	1.593024	-0.568916	-0.000002
C52	C	2.093024	-0.068916	0.499998
C53	C	1.595500	-0.475605	0.000002
C54	C	2.095500	0.024395	0.500002
C55	C	1.482342	-0.418994	-0.000002
C56	C	1.982342	0.081006	0.499998
C57	C	1.713277	0.126488	0.000011
C58	C	2.213277	0.626488	0.500011
C59	C	1.852693	0.129116	0.000004
C60	C	2.352693	0.629116	0.500004
C61	C	1.474762	0.295073	-0.000002
C62	C	1.974762	0.795073	0.499998
C63	C	1.477389	0.394384	-0.000010
C64	C	1.977389	0.894384	0.499990
N65	N	1.483675	0.131590	0.356128
N66	N	1.983675	0.631590	0.856128
N67	N	1.483705	0.131596	-0.356108
N68	N	1.983705	0.631596	0.143892
C69	C	1.568988	0.071336	0.428060
C70	C	2.068988	0.571336	0.928060
C71	C	1.569001	0.071336	0.571943
C72	C	2.069001	0.571336	1.071943
C73	C	1.398382	0.191853	0.571950
C74	C	1.898382	0.691853	1.071950
C75	C	1.398365	0.191848	0.428070
C76	C	1.898365	0.691848	0.928070
H77	H	0.864864	0.129346	0.226066
H78	H	1.364864	0.629346	0.726066
F79	F	1.118905	0.134143	-0.257228
F80	F	1.618905	0.634143	0.242772
F81	F	1.307553	0.255978	0.351509
F82	F	1.807553	0.755978	0.851509
H83	H	1.102493	0.133854	0.226069
H84	H	1.602493	0.633854	0.726069
F85	F	0.848499	0.129007	-0.257216
F86	F	1.348499	0.629007	0.242784
F87	F	1.726197	-0.148752	0.000042
F88	F	2.226197	0.351248	0.500042
F89	F	1.721084	-0.341361	0.000013
F90	F	2.221084	0.158639	0.500013
F91	F	1.718562	-0.436548	0.000006
F92	F	2.218562	0.063452	0.500006
F93	F	1.713456	-0.629168	-0.000003
F94	F	2.213456	-0.129168	0.499997
H95	H	1.638451	0.022269	0.369489
H96	H	2.138451	0.522269	0.869489
F97	F	1.659800	0.007204	0.648493
F98	F	2.159800	0.507204	1.148493
H99	H	1.270087	-0.578883	0.000004
H100	H	1.770087	-0.078883	0.500004
F101	F	1.246280	-0.395439	-0.000019
F102	F	1.746280	0.104561	0.499981
F103	F	1.248813	-0.300258	-0.000029
F104	F	1.748813	0.199742	0.499971
H105	H	1.282210	-0.121793	-0.000005
H106	H	1.782210	0.378207	0.499995
F107	F	1.307596	0.255983	0.648524
F108	F	1.807596	0.755983	1.148524
