data_functionalizedCrystal
_audit_creation_method	'MofGen! by Chris Wilmer'
_symmetry_space_group_name_H-M	'P1'
_symmetry_Int_Tables_number	1
_symmetry_cell_setting	triclinic
loop_
_symmetry_equiv_pos_as_xyz
  x,y,z
_cell_length_a	6.817900
_cell_length_b	19.453114
_cell_length_c	16.256275
_cell_angle_alpha	95.856798
_cell_angle_beta	103.500333
_cell_angle_gamma	101.709288
loop_
_atom_site_label
_atom_site_type_symbol
_atom_site_fract_x
_atom_site_fract_y
_atom_site_fract_z
V1	V	-4.006925	-0.219251	-0.117976
O2	O	-3.994737	-0.214820	0.004762
O3	O	-3.958652	-0.217999	-0.233054
O4	O	-3.949838	-0.314761	-0.116559
O5	O	-4.003613	-0.117388	-0.112539
V6	V	-4.491662	-0.207037	-0.103248
O7	O	-4.265520	-0.246042	-0.150283
O8	O	-4.683263	-0.180245	-0.070941
O9	O	-4.316727	-0.208289	0.011830
O10	O	-4.621245	-0.211468	-0.225986
O11	O	-4.612370	-0.308900	-0.108685
O12	O	-4.325541	-0.111527	-0.104665
C13	C	-3.803965	-0.214604	-0.261096
C14	C	-3.845726	-0.214216	-0.355176
C15	C	-4.136426	-0.216934	-0.587009
C16	C	-4.097598	-0.273071	-0.652206
C17	C	-3.922092	-0.213495	-0.527422
C18	C	-4.035318	-0.156682	-0.629862
C19	C	-3.995871	-0.212796	-0.693802
C20	C	-3.882739	-0.269686	-0.591388
C21	C	-3.820456	-0.153245	-0.569030
C22	C	-3.781485	-0.209394	-0.634201
C23	C	-3.879596	-0.213899	-0.431574
C24	C	-4.038355	-0.212397	-0.789649
C25	C	-3.792721	-0.338032	-0.112493
C26	C	-3.827331	-0.416114	-0.112096
C27	C	-4.025377	-0.456380	-0.116158
C28	C	-4.057897	-0.529746	-0.115785
C29	C	-3.892368	-0.562845	-0.111367
C30	C	-3.694291	-0.522569	-0.107300
C31	C	-3.661773	-0.449204	-0.107665
N32	N	-3.832674	-0.681730	-0.156062
N33	N	-3.863579	-0.751425	-0.155718
C34	C	-3.990333	-0.783891	-0.110267
N35	N	-4.085051	-0.744032	-0.065185
N36	N	-4.054151	-0.674332	-0.065533
C37	C	-3.927609	-0.642397	-0.110971
C38	C	-4.223653	-0.903709	-0.113924
C39	C	-4.256164	-0.977075	-0.113545
C40	C	-3.892556	-0.969899	-0.105069
C41	C	-3.860047	-0.896532	-0.105439
C42	C	-4.025605	-0.863443	-0.109870
C43	C	-4.134757	-0.211682	0.039867
C44	C	-4.072234	-0.212074	0.133947
C45	C	-4.146001	-0.088252	-0.108733
C46	C	-4.090630	-0.010169	-0.109126
H47	H	-4.215146	-0.323729	-0.688298
H48	H	-4.417438	-1.009858	-0.116846
H49	H	-4.286076	-0.220198	-0.566154
H50	H	-3.817946	-0.317498	-0.574306
H51	H	-3.631684	-0.206218	-0.654915
H52	H	-3.702968	-0.102586	-0.532921
H53	H	-4.219178	-0.562537	-0.119097
H54	H	-4.100278	-0.108926	-0.647062
H55	H	-3.500493	-0.416418	-0.104351
H56	H	-3.559517	-0.549523	-0.103701
H57	H	-4.160189	-0.429442	-0.119763
H58	H	-4.358460	-0.876765	-0.117529
H59	H	-3.757774	-0.996846	-0.101465
H60	H	-3.698782	-0.863749	-0.102141
