data_functionalizedCrystal
_audit_creation_method	'MofGen! by Chris Wilmer'
_symmetry_space_group_name_H-M	'P1'
_symmetry_Int_Tables_number	1
_symmetry_cell_setting	triclinic
loop_
_symmetry_equiv_pos_as_xyz
  x,y,z
_cell_length_a	13.635800
_cell_length_b	11.102244
_cell_length_c	17.982968
_cell_angle_alpha	85.767805
_cell_angle_beta	102.451960
_cell_angle_gamma	71.395130
loop_
_atom_site_label
_atom_site_type_symbol
_atom_site_fract_x
_atom_site_fract_y
_atom_site_fract_z
V1	V	2.020683	-0.177029	0.237546
O2	O	2.000870	0.007282	0.233027
O3	O	2.009309	-0.349840	0.235920
O4	O	1.993775	-0.174843	0.341150
O5	O	2.016512	-0.168927	0.127068
V6	V	2.261186	-0.154920	0.224333
O7	O	2.154073	-0.225527	0.266532
O8	O	2.352895	-0.106421	0.195347
O9	O	2.160958	0.017892	0.225959
O10	O	2.339698	-0.339231	0.228853
O11	O	2.324056	-0.163022	0.334811
O12	O	2.176492	-0.157105	0.120730
V13	V	2.520683	-0.177029	0.237546
O14	O	2.500870	0.007282	0.233027
O15	O	2.509309	-0.349840	0.235920
O16	O	2.493775	-0.174843	0.341150
O17	O	2.516512	-0.168927	0.127068
V18	V	2.761186	-0.154920	0.224333
O19	O	2.654073	-0.225527	0.266532
O20	O	2.852895	-0.106421	0.195347
O21	O	2.660958	0.017892	0.225959
O22	O	2.839698	-0.339231	0.228853
O23	O	2.824056	-0.163022	0.334811
O24	O	2.676492	-0.157105	0.120730
C25	C	1.935017	-0.391951	0.232172
C26	C	1.966343	-0.533230	0.231533
C27	C	1.961276	-0.581114	0.161465
C28	C	1.990716	-0.713863	0.160873
C29	C	2.030283	-0.750835	0.300423
C30	C	2.000851	-0.618088	0.301014
C31	C	1.926768	-0.496256	0.091984
C32	C	1.921698	-0.544138	0.021910
C33	C	1.951138	-0.676887	0.021318
C34	C	1.985647	-0.761755	0.090800
C35	C	1.915201	-0.168724	0.366402
C36	C	1.933927	-0.168080	0.451098
C37	C	2.066921	0.059996	0.229705
C38	C	2.025215	0.201274	0.230349
C39	C	2.086737	-0.163229	0.095473
C40	C	2.057630	-0.163866	0.010776
C41	C	2.435017	-0.391951	0.232172
C42	C	2.466343	-0.533230	0.231533
C43	C	2.415201	-0.168724	0.366402
C44	C	2.433927	-0.168080	0.451098
C45	C	2.034157	-0.174146	0.494770
C46	C	2.051746	-0.173541	0.574350
C47	C	1.969106	-0.166878	0.610259
C48	C	1.868866	-0.160808	0.566581
C49	C	1.851277	-0.161404	0.487001
C50	C	1.939801	-0.158401	0.887518
C51	C	1.957400	-0.157809	0.967104
C52	C	2.140271	-0.170538	0.974867
C53	C	2.122681	-0.171134	0.895287
C54	C	2.022442	-0.165057	0.851616
C55	C	2.003371	-0.165711	0.765325
C56	C	1.988178	-0.166233	0.696549
C57	C	2.566921	0.059996	0.229705
C58	C	2.525215	0.201274	0.230349
C59	C	2.586737	-0.163229	0.095473
C60	C	2.557630	-0.163866	0.010776
C61	C	2.534161	-0.174134	0.494756
C62	C	2.551766	-0.173513	0.574335
C63	C	2.469138	-0.166847	0.610257
C64	C	2.368894	-0.160789	0.566593
C65	C	2.351289	-0.161401	0.487014
C66	C	2.458026	-0.170518	-0.025126
C67	C	2.430658	-0.171101	-0.104708
C68	C	2.502898	-0.165042	-0.148386
C69	C	2.602509	-0.158386	-0.112479
C70	C	2.629873	-0.157794	-0.032899
C71	C	2.572502	-0.606096	0.235033
C72	C	2.601931	-0.738844	0.234439
C73	C	2.419031	-0.725848	0.226841
C74	C	2.389605	-0.593104	0.227440
C75	C	2.649240	-0.546222	0.239125
C76	C	2.755406	-0.619088	0.242625
C77	C	2.784835	-0.751836	0.242031
C78	C	2.708099	-0.811719	0.237937
H79	H	1.902788	-0.388162	0.092457
H80	H	2.058379	-0.819943	0.356991
Br81	Br	2.859547	-0.537828	0.248193
H82	H	2.871281	-0.811163	0.244888
Br83	Br	2.359966	-0.178742	0.034135
Br84	Br	2.314896	-0.807116	0.221283
Br85	Br	1.874897	-0.428970	-0.072380
H86	H	2.101457	-0.179580	0.465540
Br87	Br	2.025616	-0.941917	0.089995
H88	H	2.133360	-0.178473	0.609904
H89	H	2.710983	-0.152385	-0.003674
Br90	Br	1.944277	-0.741870	-0.073778
Br91	Br	2.748045	-0.991882	0.237144
H92	H	2.349546	-0.176521	-0.133932
Br93	Br	2.007737	-0.553096	0.396108
H94	H	2.189979	-0.176566	0.866056
Br95	Br	2.245530	-0.494208	0.222698
H96	H	2.480609	-0.165541	-0.213184
Br97	Br	2.700542	-0.150178	-0.171767
H98	H	2.221891	-0.175481	1.010434
Br99	Br	2.256770	-0.151759	0.615358
Br100	Br	2.215249	-0.153199	0.427775
H101	H	1.890098	-0.152380	0.996338
H102	H	1.858194	-0.153498	0.851974
H103	H	2.601455	-0.179565	0.465519
Br104	Br	2.609302	-0.366062	0.239920
H105	H	1.801578	-0.155375	0.595823
H106	H	2.633397	-0.178451	0.609876
Br107	Br	1.715240	-0.153153	0.427729
Br108	Br	2.493051	-0.166020	0.718260
