data_functionalizedCrystal
_audit_creation_method	'MofGen! by Chris Wilmer'
_symmetry_space_group_name_H-M	'P1'
_symmetry_Int_Tables_number	1
_symmetry_cell_setting	triclinic
loop_
_symmetry_equiv_pos_as_xyz
  x,y,z
_cell_length_a	14.044191
_cell_length_b	15.944551
_cell_length_c	15.021413
_cell_angle_alpha	90.009504
_cell_angle_beta	90.002216
_cell_angle_gamma	88.345257
loop_
_atom_site_label
_atom_site_type_symbol
_atom_site_fract_x
_atom_site_fract_y
_atom_site_fract_z
O1	O	1.257721	0.202539	0.073992
O2	O	0.981751	0.195225	0.074004
O3	O	1.127272	0.077171	0.073990
O4	O	1.112200	0.320592	0.074006
O5	O	1.127260	0.077157	-0.074075
O6	O	0.981739	0.195211	-0.074061
O7	O	1.257709	0.202524	-0.074072
Zn8	Zn	1.119722	0.198865	-0.097575
Zn9	Zn	1.119738	0.198884	0.097506
O10	O	1.112187	0.320578	-0.074058
C11	C	0.946430	0.192018	-0.000027
C12	C	0.841204	0.182475	-0.000023
C13	C	0.590920	0.232713	-0.000029
C14	C	0.648545	0.165040	-0.000032
C15	C	0.755750	0.174743	-0.000027
C16	C	0.483705	0.223011	-0.000033
C17	C	1.126640	0.045824	-0.000043
C18	C	1.124764	-0.047563	-0.000043
C19	C	1.030080	-0.269512	-0.000027
C20	C	1.074042	-0.327243	-0.073033
C21	C	1.121371	-0.218543	-0.000036
C22	C	1.074076	-0.327210	0.072946
C23	C	1.118086	-0.383702	-0.000025
C24	C	1.165358	-0.275044	-0.073103
C25	C	1.165379	-0.275007	0.072943
C26	C	1.209408	-0.332715	-0.000082
C27	C	1.123261	-0.123399	-0.000043
C28	C	1.116203	-0.478844	-0.000025
C29	C	1.293030	0.205731	-0.000039
C30	C	1.398256	0.215275	-0.000037
C31	C	1.112820	0.351926	-0.000024
C32	C	1.114695	0.445312	-0.000017
N33	N	1.119717	0.198853	-0.230712
C34	C	1.186502	0.143753	-0.529710
C35	C	1.205672	0.220859	-0.470339
C36	C	1.119739	0.198880	-0.587749
C37	C	1.100603	0.121766	-0.470378
C38	C	1.119731	0.198862	-0.412325
C39	C	1.138952	0.276027	-0.529684
C40	C	1.033846	0.176881	-0.529729
C41	C	1.052980	0.254039	-0.470385
C42	C	1.119747	0.198889	-0.688806
C43	C	1.119723	0.198862	-0.311270
N44	N	1.119750	0.198891	0.230644
H45	H	0.954304	-0.241879	-0.000097
H46	H	1.285250	-0.360193	-0.000126
H47	H	0.617366	0.099817	0.000026
H48	H	1.203933	-0.252170	-0.134892
C49	C	1.169529	-0.270116	0.232641
C50	C	1.217466	-0.243911	0.156261
H51	H	1.201677	-0.250912	0.284082
H52	H	1.168218	-0.329636	0.233536
H53	H	1.106183	-0.247560	0.232109
H54	H	1.280810	-0.266472	0.156789
H55	H	1.218787	-0.184379	0.155366
C56	C	0.928062	-0.326173	0.156123
C57	C	1.021945	-0.358222	0.156270
H58	H	0.895878	-0.345312	0.207564
H59	H	0.896254	-0.344865	0.104291
H60	H	0.928387	-0.266605	0.156429
H61	H	1.021620	-0.417790	0.155957
H62	H	1.053761	-0.339534	0.208115
C63	C	0.995490	0.037968	-0.383930
C64	C	1.078750	0.033741	-0.435207
H65	H	0.982009	-0.016375	-0.362215
H66	H	0.943932	0.058193	-0.419614
H67	H	1.004069	0.074943	-0.335175
H68	H	1.070168	-0.003229	-0.483966
H69	H	1.130319	0.013504	-0.399521
H70	H	1.278306	0.239464	-0.444252
H71	H	1.155212	0.341256	-0.555627
H72	H	0.622098	0.297931	-0.000022
C73	C	0.997021	0.397688	-0.465532
C74	C	0.976755	0.317032	-0.435431
H75	H	0.949969	0.436577	-0.443946
H76	H	0.996961	0.398358	-0.528759
H77	H	1.057875	0.412833	-0.444291
H78	H	0.915904	0.301884	-0.456678
H79	H	0.976806	0.316360	-0.372191
C80	C	1.352657	0.104149	-0.534902
C81	C	1.262770	0.080913	-0.564885
H82	H	1.399741	0.065359	-0.556624
H83	H	1.353556	0.104069	-0.471676
H84	H	1.365639	0.158776	-0.556085
H85	H	1.249784	0.026288	-0.543696
H86	H	1.261869	0.080985	-0.628124
H87	H	0.961234	0.158254	-0.555836
H88	H	1.035424	-0.350249	-0.134751
