data_functionalizedCrystal
_audit_creation_method	'MofGen! by Chris Wilmer'
_symmetry_space_group_name_H-M	'P1'
_symmetry_Int_Tables_number	1
_symmetry_cell_setting	triclinic
loop_
_symmetry_equiv_pos_as_xyz
  x,y,z
_cell_length_a	10.654559
_cell_length_b	19.288865
_cell_length_c	9.730223
_cell_angle_alpha	90.004391
_cell_angle_beta	90.000283
_cell_angle_gamma	96.187534
loop_
_atom_site_label
_atom_site_type_symbol
_atom_site_fract_x
_atom_site_fract_y
_atom_site_fract_z
O1	O	1.665738	-0.097580	-0.114315
O2	O	1.300062	-0.106868	-0.114318
O3	O	1.493466	-0.001163	-0.114289
O4	O	1.472333	-0.203285	-0.114344
O5	O	1.493465	-0.001170	0.114291
O6	O	1.300061	-0.106875	0.114262
O7	O	1.665737	-0.097587	0.114265
Zn8	Zn	1.482899	-0.102232	0.150555
Zn9	Zn	1.482900	-0.102223	-0.150608
O10	O	1.472333	-0.203292	0.114236
C11	C	1.253278	-0.106188	-0.000028
C12	C	1.113879	-0.104143	-0.000028
C13	C	1.063713	-0.039985	-0.000007
C14	C	0.932732	-0.038068	-0.000017
C15	C	0.902094	-0.164475	-0.000062
C16	C	1.033073	-0.166391	-0.000062
C17	C	1.081401	0.032995	0.000026
C18	C	0.950419	0.034912	0.000016
C19	C	1.492786	0.024715	0.000005
C20	C	1.490745	0.101832	0.000017
C21	C	1.712520	-0.098267	-0.000028
C22	C	1.851919	-0.100311	-0.000037
C23	C	1.473013	-0.229169	-0.000061
C24	C	1.475054	-0.306286	-0.000082
N25	N	1.482908	-0.102238	0.356092
C26	C	1.604225	0.145783	0.000025
C27	C	1.602308	0.218242	0.000003
C28	C	1.486903	0.246748	0.000001
C29	C	1.373407	0.202787	-0.000014
C30	C	1.375328	0.130329	-0.000006
C31	C	1.396181	0.355628	0.080067
C32	C	1.394265	0.428085	0.080067
C33	C	1.480973	0.470232	-0.000030
C34	C	1.569619	0.439914	-0.080110
C35	C	1.571540	0.367456	-0.080102
C36	C	1.484807	0.325315	-0.000008
C37	C	1.592383	0.592753	-0.000048
C38	C	1.590460	0.665214	-0.000078
C39	C	1.361556	0.649756	-0.000081
C40	C	1.363482	0.577297	-0.000065
C41	C	1.478899	0.548800	-0.000042
N42	N	1.482901	-0.102211	-0.356145
C43	C	1.397248	-0.149008	0.571924
C44	C	1.397248	-0.149020	0.428041
C45	C	1.568565	-0.055436	0.428033
C46	C	1.568558	-0.055421	0.571913
C47	C	1.298342	-0.203041	0.571928
C48	C	1.298342	-0.203052	0.428045
H49	H	1.123737	0.060501	-0.095622
H50	H	1.643717	0.342775	-0.145308
H51	H	0.836286	-0.215154	-0.000091
H52	H	1.638304	-0.017340	0.369442
O53	O	1.663162	0.485354	-0.166512
H54	H	1.611489	0.514923	-0.241741
H55	H	1.638293	-0.017310	0.630478
H56	H	1.127514	0.055040	0.098729
H57	H	1.202081	-0.191141	0.610963
O58	O	1.087175	-0.235593	-0.000079
H59	H	1.054681	-0.265529	-0.093250
O60	O	1.337343	-0.269847	0.631084
H61	H	1.358017	-0.305280	0.546088
H62	H	1.207515	-0.186142	0.383410
O63	O	0.912313	0.072689	0.126756
H64	H	0.808464	0.074186	0.126666
O65	O	0.903888	0.065713	-0.130704
H66	H	0.835772	0.026565	-0.182425
O67	O	1.241084	0.529886	-0.000059
H68	H	1.236494	0.496508	0.093106
O69	O	1.728704	0.115044	0.000011
H70	H	1.807293	0.157785	-0.000007
O71	O	1.325242	-0.273767	0.376303
H72	H	1.418974	-0.285316	0.414349
H73	H	1.694720	0.254034	0.000003
H74	H	1.686362	0.569549	-0.000035
H75	H	1.682874	0.700999	-0.000079
O76	O	1.248937	0.233532	-0.000005
H77	H	1.194429	0.215923	-0.093177
H78	H	1.322078	0.452764	0.145265
O79	O	1.237078	0.680489	-0.000077
H80	H	1.254804	0.738258	-0.000072
H81	H	1.282915	0.094543	-0.000012
O82	O	1.302660	0.310171	0.166470
H83	H	1.240714	0.343425	0.222170
