data_functionalizedCrystal
_audit_creation_method	'MofGen! by Chris Wilmer'
_symmetry_space_group_name_H-M	'P1'
_symmetry_Int_Tables_number	1
_symmetry_cell_setting	triclinic
loop_
_symmetry_equiv_pos_as_xyz
  x,y,z
_cell_length_a	21.395364
_cell_length_b	15.299816
_cell_length_c	21.395356
_cell_angle_alpha	99.658221
_cell_angle_beta	89.976411
_cell_angle_gamma	80.365592
loop_
_atom_site_label
_atom_site_type_symbol
_atom_site_fract_x
_atom_site_fract_y
_atom_site_fract_z
Zn1	Zn	1.001000	-0.358711	-0.397435
Zn2	Zn	1.501000	0.141289	0.102565
Zn3	Zn	1.019045	-0.509529	-0.310810
Zn4	Zn	1.519045	-0.009529	0.189190
Zn5	Zn	0.896224	-0.358774	-0.292680
Zn6	Zn	1.396224	0.141226	0.207320
Zn7	Zn	0.914324	-0.509521	-0.415549
Zn8	Zn	1.414324	-0.009521	0.084451
O9	O	0.957648	-0.434134	-0.354118
O10	O	1.457648	0.065866	0.145882
O11	O	1.091069	-0.378694	-0.385951
O12	O	1.591069	0.121306	0.114049
O13	O	1.002730	-0.489561	-0.220731
O14	O	1.502730	0.010439	0.279269
O15	O	0.894996	-0.232560	-0.291407
O16	O	1.394996	0.267440	0.208593
O17	O	1.104326	-0.489499	-0.322308
O18	O	1.604326	0.010501	0.177692
O19	O	0.971975	-0.232514	-0.368371
O20	O	1.471975	0.267486	0.131629
O21	O	0.912494	-0.378802	-0.207410
O22	O	1.412494	0.121198	0.292590
O23	O	0.810950	-0.378794	-0.308972
O24	O	1.310950	0.121206	0.191028
O25	O	0.925845	-0.489485	-0.500820
O26	O	1.425845	0.010515	-0.000820
O27	O	0.824248	-0.489547	-0.399243
O28	O	1.324248	0.010453	0.100757
O29	O	0.989525	-0.378686	-0.487512
O30	O	1.489525	0.121314	0.012488
O31	O	1.020280	-0.635733	-0.339872
O32	O	1.520280	-0.135733	0.160128
O33	O	0.943342	-0.635727	-0.416823
O34	O	1.443342	-0.135727	0.083177
C35	C	0.794866	-0.434177	-0.354106
C36	C	1.294866	0.065823	0.145894
C37	C	0.725230	-0.434218	-0.354118
C38	C	1.225230	0.065782	0.145882
C39	C	0.685647	-0.376616	-0.387331
C40	C	1.185647	0.123384	0.112669
C41	C	0.620209	-0.376592	-0.387330
C42	C	1.120209	0.123408	0.112670
C43	C	0.594358	-0.434186	-0.354126
C44	C	1.094358	0.065814	0.145874
C45	C	0.633949	-0.491792	-0.320906
C46	C	1.133949	0.008208	0.179094
C47	C	0.699385	-0.491808	-0.320902
C48	C	1.199385	0.008192	0.179098
C49	C	0.500403	-0.515406	-0.358864
C50	C	1.000403	-0.015406	0.141136
C51	C	0.434968	-0.515392	-0.358872
C52	C	0.934968	-0.015392	0.141128
C53	C	0.392531	-0.434136	-0.354134
C54	C	0.892531	0.065864	0.145866
C55	C	0.415536	-0.352893	-0.349400
C56	C	0.915536	0.147107	0.150600
C57	C	0.480972	-0.352909	-0.349396
C58	C	0.980972	0.147091	0.150604
C59	C	0.523404	-0.434175	-0.354126
C60	C	1.023404	0.065825	0.145874
C61	C	0.281992	-0.376504	-0.387347
C62	C	0.781992	0.123496	0.112653
C63	C	0.216552	-0.376478	-0.387342
C64	C	0.716552	0.123522	0.112658
C65	C	0.230294	-0.491686	-0.320922
C66	C	0.730294	0.008314	0.179078
C67	C	0.295732	-0.491704	-0.320923
C68	C	0.795732	0.008296	0.179077
C69	C	0.321577	-0.434114	-0.354139
C70	C	0.821577	0.065886	0.145861
C71	C	0.985750	-0.668454	-0.382294
C72	C	1.485750	-0.168454	0.117706
C73	C	0.997830	-0.768697	-0.394369
C74	C	1.497830	-0.268697	0.105631
C75	C	0.871725	-1.051662	-0.268031
C76	C	1.371725	-0.551662	0.231969
C77	C	0.860373	-0.957479	-0.256688
C78	C	1.360373	-0.457479	0.243312
C79	C	0.894736	-0.910279	-0.291107
C80	C	1.394736	-0.410279	0.208893
C81	C	0.940454	-0.957271	-0.336872
C82	C	1.440454	-0.457271	0.163128
C83	C	0.951804	-1.051464	-0.348220
C84	C	1.451804	-0.551464	0.151780
C85	C	0.974815	-0.910081	-0.371295
C86	C	1.474815	-0.410081	0.128705
C87	C	1.020532	-0.957073	-0.417060
C88	C	1.520532	-0.457073	0.082940
C89	C	1.031881	-1.051257	-0.428406
C90	C	1.531881	-0.551257	0.071594
C91	C	0.997517	-1.098457	-0.393987
C92	C	1.497517	-0.598457	0.106013
C93	C	0.963465	-0.815888	-0.359948
C94	C	1.463465	-0.315888	0.140052
C95	C	1.043543	-0.815690	-0.440136
C96	C	1.543543	-0.315690	0.059864
C97	C	1.054896	-0.909873	-0.451479
C98	C	1.554896	-0.409873	0.048521
C99	C	1.121066	-0.434090	-0.354131
C100	C	1.621066	0.065910	0.145869
C101	C	1.190706	-0.434072	-0.354137
C102	C	1.690706	0.065928	0.145863
C103	C	0.957691	-0.434078	-0.517535
C104	C	1.457691	0.065922	-0.017535
C105	C	0.957709	-0.434054	-0.587173
C106	C	1.457709	0.065946	-0.087173
C107	C	0.929454	-0.198898	-0.325846
C108	C	1.429454	0.301102	0.174154
C109	C	0.917439	-0.098655	-0.313798
C110	C	1.417439	0.401345	0.186202
C111	C	0.910733	-0.376375	-0.612940
C112	C	1.410733	0.123625	-0.112940
C113	C	0.910729	-0.376359	-0.678374
C114	C	1.410729	0.123641	-0.178374
C115	C	0.957711	-0.434011	-0.718037
C116	C	1.457711	0.065989	-0.218037
C117	C	1.004691	-0.491701	-0.692263
C118	C	1.504691	0.008299	-0.192263
C119	C	1.004690	-0.491722	-0.626832
C120	C	1.504690	0.008278	-0.126832
C121	C	1.015013	-0.441080	-0.822574
C122	C	1.515013	0.058920	-0.322574
C123	C	1.015014	-0.441052	-0.888003
C124	C	1.515014	0.058948	-0.388003
C125	C	0.957714	-0.433950	-0.919850
C126	C	1.457714	0.066050	-0.419850
C127	C	0.900408	-0.426856	-0.886257
C128	C	1.400408	0.073144	-0.386257
C129	C	0.900407	-0.426878	-0.820825
C130	C	1.400407	0.073122	-0.320825
C131	C	0.957717	-0.433995	-0.788987
C132	C	1.457717	0.066005	-0.288987
C133	C	0.910730	-0.376250	-1.016567
C134	C	1.410730	0.123750	-0.516567
C135	C	0.910725	-0.376240	-1.082002
C136	C	1.410725	0.123760	-0.582002
C137	C	1.004692	-0.491577	-1.095890
C138	C	1.504692	0.008423	-0.595890
C139	C	1.004692	-0.491592	-1.030457
C140	C	1.504692	0.008408	-0.530457
C141	C	0.957711	-0.433924	-0.990798
C142	C	1.457711	0.066076	-0.490798
C143	C	0.957634	-0.434124	-0.191330
C144	C	1.457634	0.065876	0.308670
C145	C	0.957707	-0.433894	-0.121661
C146	C	1.457707	0.066106	0.378339
H147	H	0.380984	-0.286727	-0.345542
H148	H	0.880984	0.213273	0.154458
H149	H	1.006760	-1.175149	-0.403218
H150	H	1.506760	-0.675149	0.096782
H151	H	0.499700	-0.286758	-0.345540
H152	H	0.999700	0.213242	0.154460
C153	C	1.078051	-0.448855	-0.924950
C154	C	1.578051	0.051145	-0.424950
N155	N	1.125533	-0.454733	-0.952776
N156	N	1.625533	0.045267	-0.452776
H157	H	1.069104	-1.089516	-0.465673
H158	H	1.569104	-0.589516	0.034327
H159	H	0.853747	-0.421104	-0.793477
H160	H	1.353747	0.078896	-0.293477
C161	C	0.913177	-0.764207	-0.309607
C162	C	1.413177	-0.264207	0.190393
N163	N	0.875297	-0.725282	-0.271687
N164	N	1.375297	-0.225282	0.228313
H165	H	0.843749	-1.090101	-0.240015
H166	H	1.343749	-0.590101	0.259985
C167	C	0.859049	-0.312946	-0.569320
C168	C	1.359049	0.187054	-0.069320
N169	N	0.820118	-0.265172	-0.536465
N170	N	1.320118	0.234828	-0.036465
H171	H	1.042946	-0.538558	-1.009478
H172	H	1.542946	-0.038558	-0.509478
C173	C	1.081347	-0.763774	-0.477999
C174	C	1.581347	-0.263774	0.022001
N175	N	1.109818	-0.724665	-0.506514
N176	N	1.609818	-0.224665	-0.006514
H177	H	0.303035	-0.329605	-0.414389
H178	H	0.803035	0.170395	0.085611
C179	C	0.173010	-0.313107	-0.423880
C180	C	0.673010	0.186893	0.076120
N181	N	0.140214	-0.265376	-0.451401
N182	N	0.640214	0.234624	0.048599
H183	H	1.061677	-0.446856	-0.796649
H184	H	1.561677	0.053144	-0.296649
C185	C	1.056300	-0.555241	-0.735909
C186	C	1.556300	-0.055241	-0.235909
N187	N	1.095148	-0.603148	-0.768788
N188	N	1.595148	-0.103148	-0.268788
C189	C	0.201862	-0.555040	-0.284396
C190	C	0.701862	-0.055040	0.215604
N191	N	0.180443	-0.602758	-0.256883
N192	N	0.680443	-0.102758	0.243117
H193	H	0.885491	-0.833590	-0.281868
H194	H	1.385491	-0.333590	0.218132
C195	C	1.056380	-0.555157	-0.598486
C196	C	1.556380	-0.055157	-0.098486
N197	N	1.095318	-0.602930	-0.577134
N198	N	1.595318	-0.102930	-0.077134
H199	H	0.872476	-0.329385	-0.699357
H200	H	1.372476	0.170615	-0.199357
C201	C	1.105181	-0.961578	-0.501823
C202	C	1.605181	-0.461578	-0.001823
N203	N	1.143056	-1.000522	-0.539742
N204	N	1.643056	-0.500522	-0.039742
C205	C	0.837373	-0.419052	-0.921284
C206	C	1.337373	0.080948	-0.421284
N207	N	0.789896	-0.413175	-0.947670
N208	N	1.289896	0.086825	-0.447670
C209	C	0.339276	-0.555078	-0.284392
C210	C	0.839276	-0.055078	0.215608
N211	N	0.372073	-0.602814	-0.256875
N212	N	0.872073	-0.102814	0.243125
H213	H	0.706685	-0.329721	-0.414377
H214	H	1.206685	0.170279	0.085623
C215	C	1.056396	-0.554955	-1.139511
C216	C	1.556396	-0.054955	-0.639511
N217	N	1.095349	-0.602679	-1.172368
N218	N	1.595349	-0.102679	-0.672368
H219	H	0.731613	-0.538716	-0.293856
H220	H	1.231613	-0.038716	0.206144
H221	H	0.872475	-0.329294	-0.984275
H222	H	1.372475	0.170706	-0.484275
C223	C	0.576660	-0.313228	-0.423872
C224	C	1.076660	0.186772	0.076128
N225	N	0.543862	-0.265505	-0.451397
N226	N	1.043862	0.234495	0.048603
C227	C	0.409668	-0.604760	-0.364072
C228	C	0.909668	-0.104760	0.135928
N229	N	0.390615	-0.672074	-0.367985
N230	N	0.890615	-0.172074	0.132015
H231	H	0.534951	-0.581579	-0.362722
H232	H	1.034951	-0.081579	0.137278
H233	H	0.823150	-0.919221	-0.219427
H234	H	1.323150	-0.419221	0.280573
H235	H	0.612896	-0.538685	-0.293870
H236	H	1.112896	-0.038685	0.206130
C237	C	0.859047	-0.312783	-1.110344
C238	C	1.359047	0.187217	-0.610344
N239	N	0.820123	-0.264983	-1.131691
N240	N	1.320123	0.235017	-0.631691
