data_functionalizedCrystal
_audit_creation_method	'MofGen! by Chris Wilmer'
_symmetry_space_group_name_H-M	'P1'
_symmetry_Int_Tables_number	1
_symmetry_cell_setting	triclinic
loop_
_symmetry_equiv_pos_as_xyz
  x,y,z
_cell_length_a	23.532361
_cell_length_b	23.532407
_cell_length_c	22.010155
_cell_angle_alpha	90.002880
_cell_angle_beta	90.010098
_cell_angle_gamma	82.839173
loop_
_atom_site_label
_atom_site_type_symbol
_atom_site_fract_x
_atom_site_fract_y
_atom_site_fract_z
O1	O	0.755286	0.069002	0.050470
O2	O	1.088619	0.402335	0.383804
O3	O	1.421952	0.735669	0.717137
O4	O	0.589419	0.079033	0.050486
O5	O	0.922752	0.412366	0.383819
O6	O	1.256085	0.745700	0.717152
O7	O	0.677354	-0.008915	0.050466
O8	O	1.010687	0.324418	0.383800
O9	O	1.344020	0.657752	0.717133
O10	O	0.667350	0.156950	0.050490
O11	O	1.000684	0.490283	0.383823
O12	O	1.334017	0.823617	0.717156
O13	O	0.677328	-0.008905	-0.050584
O14	O	1.010662	0.324429	0.282749
O15	O	1.343995	0.657762	0.616083
O16	O	0.589393	0.079043	-0.050565
O17	O	0.922726	0.412377	0.282769
O18	O	1.256060	0.745710	0.616102
O19	O	0.755260	0.069012	-0.050580
O20	O	1.088594	0.402346	0.282753
O21	O	1.421927	0.735679	0.616087
Cu22	Cu	0.672324	0.074029	-0.059799
Cu23	Cu	1.005658	0.407362	0.273534
Cu24	Cu	1.338991	0.740695	0.606868
Cu25	Cu	0.672354	0.074017	0.059705
Cu26	Cu	1.005688	0.407350	0.393038
Cu27	Cu	1.339021	0.740683	0.726371
O28	O	0.667325	0.156960	-0.050561
O29	O	1.000658	0.490294	0.282773
O30	O	1.333992	0.823627	0.616106
C31	C	0.568189	0.078787	-0.000038
C32	C	0.901523	0.412120	0.333296
C33	C	1.234856	0.745454	0.666629
C34	C	0.504971	0.078032	-0.000032
C35	C	0.838304	0.411365	0.333301
C36	C	1.171637	0.744698	0.666634
C37	C	0.231741	0.074723	0.055046
C38	C	0.565074	0.408056	0.388380
C39	C	0.898408	0.741389	0.721713
C40	C	0.291141	0.075438	0.055048
C41	C	0.624474	0.408771	0.388381
C42	C	0.957807	0.742104	0.721715
O43	O	0.321878	0.075783	0.101892
O44	O	0.655212	0.409116	0.435226
O45	O	0.988545	0.742449	0.768559
N46	N	0.320832	0.075804	-0.000035
N47	N	0.654166	0.409138	0.333298
N48	N	0.987499	0.742471	0.666632
C49	C	0.291122	0.075450	-0.055123
C50	C	0.624456	0.408784	0.278211
C51	C	0.957789	0.742117	0.611544
O52	O	0.321832	0.075827	-0.101975
O53	O	0.655165	0.409161	0.231359
O54	O	0.988498	0.742494	0.564692
C55	C	0.231724	0.074731	-0.055124
C56	C	0.565057	0.408065	0.278210
C57	C	0.898391	0.741398	0.611543
C58	C	0.202035	0.074370	-0.000037
C59	C	0.535368	0.407704	0.333296
C60	C	0.868701	0.741037	0.666629
C61	C	0.202051	0.074361	0.110128
C62	C	0.535385	0.407694	0.443461
C63	C	0.868718	0.741028	0.776795
C64	C	0.142656	0.073647	0.110126
C65	C	0.475989	0.406981	0.443460
C66	C	0.809322	0.740314	0.776793
C67	C	0.112949	0.073295	0.055043
C68	C	0.446283	0.406628	0.388376
C69	C	0.779616	0.739962	0.721709
C70	C	0.142639	0.073657	-0.000039
C71	C	0.475972	0.406990	0.333294
C72	C	0.809305	0.740323	0.666627
C73	C	0.202015	0.074373	-0.110211
C74	C	0.535349	0.407707	0.223122
C75	C	0.868682	0.741040	0.556456
C76	C	0.142613	0.073654	-0.110207
C77	C	0.475947	0.406987	0.223126
C78	C	0.809280	0.740320	0.556459
C79	C	0.112924	0.073293	-0.055121
C80	C	0.446257	0.406626	0.278212
C81	C	0.779591	0.739959	0.611546
C82	C	0.053537	0.072590	-0.055125
C83	C	0.386870	0.405924	0.278209
C84	C	0.720203	0.739257	0.611542
N85	N	0.023845	0.072224	-0.000042
N86	N	0.357178	0.405557	0.333291
N87	N	0.690512	0.738890	0.666625
C88	C	0.053551	0.072576	0.055042
C89	C	0.386885	0.405909	0.388375
C90	C	0.720218	0.739243	0.721708
C91	C	0.415862	0.076959	-0.055117
C92	C	0.749196	0.410293	0.278217
C93	C	1.082529	0.743626	0.611550
C94	C	0.475259	0.077682	-0.055116
C95	C	0.808592	0.411016	0.278217
C96	C	1.141926	0.744349	0.611550
C97	C	0.475273	0.077668	0.055055
C98	C	0.808607	0.411002	0.388388
C99	C	1.141940	0.744335	0.721721
C100	C	0.415875	0.076949	0.055054
C101	C	0.749209	0.410283	0.388387
C102	C	1.082542	0.743616	0.721720
C103	C	0.386171	0.076593	-0.000034
C104	C	0.719504	0.409926	0.333299
C105	C	1.052837	0.743259	0.666633
C106	C	-0.071184	0.071077	0.055034
C107	C	0.262149	0.404411	0.388367
C108	C	0.595482	0.737744	0.721700
C109	C	-0.130586	0.070366	0.055027
C110	C	0.202748	0.403699	0.388360
C111	C	0.536081	0.737033	0.721694
C112	C	-0.130595	0.070377	-0.055144
C113	C	0.202739	0.403710	0.278190
C114	C	0.536072	0.737044	0.611523
C115	C	-0.071199	0.071091	-0.055137
C116	C	0.262134	0.404425	0.278196
C117	C	0.595468	0.737758	0.611529
C118	C	-0.041495	0.071440	-0.000044
C119	C	0.291838	0.404773	0.333290
C120	C	0.625172	0.738106	0.666623
O121	O	0.022762	0.072242	-0.101945
O122	O	0.356095	0.405576	0.231388
O123	O	0.689428	0.738909	0.564721
O124	O	0.022835	0.072191	0.101886
O125	O	0.356169	0.405525	0.435219
O126	O	0.689502	0.738858	0.768552
C127	C	0.677086	-0.030126	-0.000060
C128	C	1.010420	0.303207	0.333273
C129	C	1.343753	0.636541	0.666606
C130	C	0.676320	-0.093343	-0.000065
C131	C	1.009654	0.239991	0.333268
C132	C	1.342987	0.573324	0.666602
C133	C	0.723555	-0.492454	-0.000036
C134	C	1.056888	-0.159120	0.333297
C135	C	1.390222	0.174213	0.666631
C136	C	0.722844	-0.551854	-0.000031
C137	C	1.056177	-0.218521	0.333302
C138	C	1.389510	0.114813	0.666635
O139	O	0.766630	-0.588606	-0.000013
O140	O	1.099964	-0.255272	0.333320
O141	O	1.433297	0.078061	0.666654
N142	N	0.670566	-0.574471	-0.000027
N143	N	1.003899	-0.241138	0.333306
N144	N	1.337233	0.092195	0.666640
C145	C	0.618997	-0.537685	-0.000021
C146	C	0.952330	-0.204352	0.333312
C147	C	1.285663	0.128982	0.666646
O148	O	0.574465	-0.562377	-0.000016
O149	O	0.907799	-0.229044	0.333317
O150	O	1.241132	0.104289	0.666651
C151	C	0.619709	-0.478286	-0.000021
C152	C	0.953042	-0.144953	0.333312
C153	C	1.286375	0.188381	0.666645
C154	C	0.671990	-0.455672	-0.000032
C155	C	1.005323	-0.122339	0.333301
C156	C	1.338656	0.210994	0.666635
C157	C	0.775832	-0.469839	-0.000046
C158	C	1.109165	-0.136506	0.333287
C159	C	1.442498	0.196827	0.666621
C160	C	0.776543	-0.410443	-0.000052
C161	C	1.109876	-0.077110	0.333282
C162	C	1.443210	0.256223	0.666615
C163	C	0.724977	-0.373662	-0.000048
C164	C	1.058311	-0.040328	0.333286
C165	C	1.391644	0.293005	0.666619
C166	C	0.672701	-0.396276	-0.000038
C167	C	1.006034	-0.062943	0.333296
C168	C	1.339367	0.270390	0.666629
C169	C	0.568140	-0.441501	-0.000011
C170	C	0.901473	-0.108168	0.333322
C171	C	1.234807	0.225166	0.666656
C172	C	0.568857	-0.382099	-0.000011
C173	C	0.902190	-0.048765	0.333322
C174	C	1.235523	0.284568	0.666656
C175	C	0.621137	-0.359485	-0.000021
C176	C	0.954471	-0.026151	0.333312
C177	C	1.287804	0.307182	0.666645
C178	C	0.621847	-0.300099	-0.000039
C179	C	0.955180	0.033235	0.333294
C180	C	1.288513	0.366568	0.666627
N181	N	0.674124	-0.277481	-0.000044
N182	N	1.007457	0.055852	0.333290
N183	N	1.340791	0.389185	0.666623
C184	C	0.725690	-0.314263	-0.000048
C185	C	1.059023	0.019071	0.333285
C186	C	1.392356	0.352404	0.666619
C187	C	0.617505	-0.662427	-0.000019
C188	C	0.950839	-0.329094	0.333314
C189	C	1.284172	0.004239	0.666648
C190	C	0.616793	-0.721825	-0.000023
C191	C	0.950126	-0.388492	0.333310
C192	C	1.283459	-0.055158	0.666643
C193	C	0.720640	-0.735990	-0.000032
C194	C	1.053973	-0.402657	0.333301
C195	C	1.387306	-0.069323	0.666634
C196	C	0.721352	-0.676591	-0.000033
C197	C	1.054685	-0.343258	0.333301
C198	C	1.388018	-0.009924	0.666634
C199	C	0.669783	-0.639810	-0.000024
C200	C	1.003116	-0.306477	0.333310
C201	C	1.336449	0.026857	0.666643
C202	C	0.727179	-0.189526	-0.000061
C203	C	1.060513	0.143807	0.333273
C204	C	1.393846	0.477140	0.666606
C205	C	0.727886	-0.130124	-0.000069
C206	C	1.061219	0.203209	0.333264
C207	C	1.394553	0.536542	0.666598
C208	C	0.624039	-0.115965	-0.000057
C209	C	0.957372	0.217369	0.333277
C210	C	1.290706	0.550702	0.666610
C211	C	0.623332	-0.175361	-0.000051
C212	C	0.956665	0.157972	0.333282
C213	C	1.289999	0.491305	0.666615
C214	C	0.674907	-0.212141	-0.000051
C215	C	1.008240	0.121192	0.333282
C216	C	1.341573	0.454525	0.666615
O217	O	0.578083	-0.263312	-0.000055
O218	O	0.911416	0.070021	0.333278
O219	O	1.244749	0.403355	0.666611
O220	O	0.770214	-0.289562	-0.000045
O221	O	1.103547	0.043771	0.333289
O222	O	1.436880	0.377104	0.666622
C223	C	0.776489	0.069258	-0.000055
C224	C	1.109823	0.402592	0.333278
C225	C	1.443156	0.735925	0.666611
C226	C	0.839708	0.070014	-0.000057
C227	C	1.173041	0.403347	0.333277
C228	C	1.506375	0.736680	0.666610
C229	C	0.667592	0.178171	-0.000033
C230	C	1.000926	0.511505	0.333301
C231	C	1.334259	0.844838	0.666634
C232	C	0.668358	0.241388	-0.000024
C233	C	1.001692	0.574721	0.333309
C234	C	1.335025	0.908055	0.666643
N235	N	0.672307	0.074037	-0.143851
N236	N	1.005641	0.407370	0.189482
N237	N	1.338974	0.740704	0.522815
C238	C	0.637997	0.039651	-0.436458
C239	C	0.971330	0.372984	-0.103125
C240	C	1.304664	0.706318	0.230209
C241	C	0.637992	0.039654	-0.372851
C242	C	0.971325	0.372987	-0.039517
C243	C	1.304659	0.706320	0.293816
O244	O	0.608799	0.010419	-0.339955
O245	O	0.942132	0.343752	-0.006621
O246	O	1.275465	0.677086	0.326712
N247	N	0.672330	0.074019	-0.341036
N248	N	1.005663	0.407353	-0.007702
N249	N	1.338996	0.740686	0.325631
C250	C	0.706679	0.108380	-0.372832
C251	C	1.040012	0.441713	-0.039498
C252	C	1.373346	0.775047	0.293835
O253	O	0.735886	0.137610	-0.339930
O254	O	1.069219	0.470944	-0.006597
O255	O	1.402553	0.804277	0.326737
C256	C	0.706687	0.108374	-0.436438
C257	C	1.040020	0.441707	-0.103105
C258	C	1.373353	0.775041	0.230229
C259	C	0.672342	0.074011	-0.468250
C260	C	1.005676	0.407344	-0.134916
C261	C	1.339009	0.740677	0.198417
C262	C	0.603656	0.005290	-0.468270
C263	C	0.936989	0.338623	-0.134936
C264	C	1.270323	0.671957	0.198397
C265	C	0.603660	0.005288	-0.531873
C266	C	0.936994	0.338622	-0.198540
C267	C	1.270327	0.671955	0.134794
C268	C	0.638006	0.039648	-0.563665
C269	C	0.971339	0.372981	-0.230331
C270	C	1.304673	0.706315	0.103002
C271	C	0.672347	0.074009	-0.531853
C272	C	1.005680	0.407342	-0.198520
C273	C	1.339014	0.740676	0.134814
C274	C	0.741039	0.142731	-0.468233
C275	C	1.074372	0.476064	-0.134900
C276	C	1.407705	0.809398	0.198434
C277	C	0.741044	0.142722	-0.531844
C278	C	1.074377	0.476055	-0.198510
C279	C	1.407711	0.809388	0.134823
C280	C	0.706700	0.108358	-0.563655
C281	C	1.040033	0.441692	-0.230322
C282	C	1.373366	0.775025	0.103011
C283	C	0.706697	0.108367	-0.627248
C284	C	1.040030	0.441700	-0.293914
C285	C	1.373363	0.775033	0.039419
N286	N	0.672359	0.074001	-0.659063
N287	N	1.005692	0.407334	-0.325729
N288	N	1.339026	0.740668	0.007604
C289	C	0.638014	0.039642	-0.627271
C290	C	0.971347	0.372975	-0.293938
C291	C	1.304680	0.706308	0.039396
C292	C	0.706661	0.108389	-0.239254
C293	C	1.039994	0.441723	0.094079
C294	C	1.373328	0.775056	0.427413
C295	C	0.706651	0.108399	-0.175649
C296	C	1.039984	0.441732	0.157685
C297	C	1.373317	0.775066	0.491018
C298	C	0.637964	0.039672	-0.175672
C299	C	0.971298	0.373005	0.157662
C300	C	1.304631	0.706338	0.490995
C301	C	0.637972	0.039666	-0.239278
C302	C	0.971305	0.372999	0.094055
C303	C	1.304639	0.706332	0.427388
C304	C	0.672323	0.074024	-0.271069
C305	C	1.005657	0.407357	0.062265
C306	C	1.338990	0.740691	0.395598
C307	C	0.638025	0.039641	-0.760842
C308	C	0.971358	0.372975	-0.427509
C309	C	1.304692	0.706308	-0.094176
C310	C	0.638031	0.039644	-0.824451
C311	C	0.971364	0.372978	-0.491118
C312	C	1.304697	0.706311	-0.157785
C313	C	0.706719	0.108369	-0.824422
C314	C	1.040052	0.441702	-0.491089
C315	C	1.373386	0.775036	-0.157756
C316	C	0.706711	0.108368	-0.760819
C317	C	1.040045	0.441702	-0.427486
C318	C	1.373378	0.775035	-0.094152
C319	C	0.672363	0.074000	-0.729031
C320	C	1.005696	0.407333	-0.395697
C321	C	1.339029	0.740667	-0.062364
O322	O	0.735877	0.137585	-0.660184
O323	O	1.069210	0.470918	-0.326851
O324	O	1.402544	0.804251	0.006483
O325	O	0.608817	0.010411	-0.660180
O326	O	0.942151	0.343744	-0.326847
O327	O	1.275484	0.677077	0.006486
N328	N	0.672376	0.074004	0.143757
N329	N	1.005709	0.407337	0.477091
N330	N	1.339043	0.740670	0.810424
H331	H	0.118488	0.073351	0.154983
H332	H	0.451821	0.406684	0.488317
H333	H	0.785155	0.740017	0.821650
Br334	Br	0.515542	0.078187	-0.129879
Br335	Br	0.848876	0.411520	0.203454
Br336	Br	1.182209	0.744853	0.536787
Br337	Br	0.375554	0.076482	-0.129886
Br338	Br	0.708887	0.409815	0.203448
Br339	Br	1.042221	0.743148	0.536781
Br340	Br	0.242293	0.074864	-0.184976
Br341	Br	0.575626	0.408198	0.148357
Br342	Br	0.908960	0.741531	0.481691
H343	H	0.610055	0.011655	-0.734968
H344	H	0.943388	0.344989	-0.401634
H345	H	1.276722	0.678322	-0.068301
Br346	Br	0.790622	-0.785919	-0.000035
Br347	Br	1.123955	-0.452586	0.333298
Br348	Br	1.457289	-0.119253	0.666631
Br349	Br	0.753248	0.155051	-0.132484
Br350	Br	1.086581	0.488385	0.200850
Br351	Br	1.419915	0.821718	0.534183
H352	H	0.118430	0.073368	-0.155067
H353	H	0.451764	0.406701	0.178266
H354	H	0.785097	0.740035	0.511599
Br355	Br	0.787637	0.189386	-0.425076
Br356	Br	1.120970	0.522719	-0.091743
Br357	Br	1.454303	0.856052	0.241590
Br358	Br	-0.030906	0.071590	-0.129898
Br359	Br	0.302428	0.404924	0.203436
Br360	Br	0.635761	0.738257	0.536769
H361	H	0.770461	-0.111716	-0.000079
H362	H	1.103794	0.221618	0.333254
H363	H	1.437128	0.554951	0.666588
Br364	Br	0.787669	0.189351	-0.574984
Br365	Br	1.121003	0.522684	-0.241651
Br366	Br	1.454336	0.856017	0.091682
H367	H	0.580761	-0.193774	-0.000060
H368	H	0.914094	0.139559	0.333274
H369	H	1.247427	0.472892	0.666607
H370	H	0.734632	0.136373	-0.265134
H371	H	1.067965	0.469707	0.068200
H372	H	1.401299	0.803040	0.401533
Br373	Br	0.591414	-0.006992	-0.867620
Br374	Br	0.924748	0.326342	-0.534287
Br375	Br	1.258081	0.659675	-0.200954
H376	H	0.734681	0.136345	-0.850319
H377	H	1.068014	0.469678	-0.516985
H378	H	1.401347	0.803012	-0.183652
H379	H	0.769176	-0.219466	-0.000058
H380	H	1.102510	0.113867	0.333275
H381	H	1.435843	0.447201	0.666608
H382	H	0.582056	-0.086007	-0.000055
H383	H	0.915389	0.247327	0.333278
H384	H	1.248723	0.580660	0.666611
H385	H	0.819115	-0.392037	-0.000058
H386	H	1.152449	-0.058704	0.333276
H387	H	1.485782	0.274630	0.666609
Br388	Br	0.753329	0.154997	-0.717645
Br389	Br	1.086662	0.488330	-0.384311
Br390	Br	1.419996	0.821664	-0.050978
Br391	Br	0.845823	-0.519747	-0.000051
Br392	Br	1.179157	-0.186414	0.333282
Br393	Br	1.512490	0.146920	0.666616
H394	H	0.391706	0.076656	0.099910
H395	H	0.725039	0.409989	0.433243
H396	H	1.058373	0.743322	0.766577
Br397	Br	0.591352	-0.006960	-0.132514
Br398	Br	0.924686	0.326374	0.200819
Br399	Br	1.258019	0.659707	0.534153
H400	H	0.763923	-0.658183	-0.000041
H401	H	1.097257	-0.324850	0.333293
H402	H	1.430590	0.008483	0.666626
Br403	Br	0.515600	0.078150	0.129812
Br404	Br	0.848933	0.411483	0.463145
Br405	Br	1.182267	0.744816	0.796479
H406	H	0.610006	0.011684	-0.265175
H407	H	0.943339	0.345017	0.068158
H408	H	1.276672	0.678351	0.401492
Br409	Br	0.547512	-0.612515	-0.000012
Br410	Br	0.880845	-0.279182	0.333321
Br411	Br	1.214178	0.054151	0.666655
Br412	Br	-0.030881	0.071550	0.129804
Br413	Br	0.302452	0.404883	0.463137
Br414	Br	0.635786	0.738217	0.796471
Br415	Br	0.242356	0.074837	0.184895
Br416	Br	0.575690	0.408170	0.518228
Br417	Br	0.909023	0.741504	0.851562
Br418	Br	-0.170876	0.069879	0.129792
Br419	Br	0.162458	0.403213	0.463125
Br420	Br	0.495791	0.736546	0.796459
H421	H	-0.154793	0.070092	-0.099991
H422	H	0.178541	0.403426	0.233342
H423	H	0.511874	0.736759	0.566675
H424	H	0.575696	-0.022696	-0.557768
H425	H	0.909029	0.310637	-0.224435
H426	H	1.242363	0.643971	0.108898
H427	H	0.574220	-0.740232	-0.000025
H428	H	0.907554	-0.406898	0.333308
H429	H	1.240887	-0.073565	0.666642
Br430	Br	0.557033	-0.041342	-0.425136
Br431	Br	0.890367	0.291991	-0.091803
Br432	Br	1.223700	0.625325	0.241531
Br433	Br	0.498866	-0.332184	0.000004
Br434	Br	0.832199	0.001149	0.333338
Br435	Br	1.165532	0.334482	0.666671
Br436	Br	0.497183	-0.472176	0.000006
Br437	Br	0.830516	-0.138842	0.333339
Br438	Br	1.163849	0.194491	0.666672
