data_functionalizedCrystal
_audit_creation_method	'MofGen! by Chris Wilmer'
_symmetry_space_group_name_H-M	'P1'
_symmetry_Int_Tables_number	1
_symmetry_cell_setting	triclinic
loop_
_symmetry_equiv_pos_as_xyz
  x,y,z
_cell_length_a	16.625548
_cell_length_b	12.594516
_cell_length_c	16.625539
_cell_angle_alpha	89.978538
_cell_angle_beta	89.982945
_cell_angle_gamma	90.017121
loop_
_atom_site_label
_atom_site_type_symbol
_atom_site_fract_x
_atom_site_fract_y
_atom_site_fract_z
Zn1	Zn	1.232688	-0.423729	-0.455937
Zn2	Zn	1.732688	0.076271	0.044063
Zn3	Zn	1.232615	-0.601725	-0.321116
Zn4	Zn	1.732615	-0.101725	0.178884
Zn5	Zn	1.097859	-0.423764	-0.321118
Zn6	Zn	1.597859	0.076236	0.178882
Zn7	Zn	1.097836	-0.601670	-0.455906
Zn8	Zn	1.597836	-0.101670	0.044094
O9	O	1.165249	-0.512722	-0.388519
O10	O	1.665249	-0.012722	0.111481
O11	O	1.345511	-0.447350	-0.438065
O12	O	1.845511	0.052650	0.061935
O13	O	1.214718	-0.578156	-0.208284
O14	O	1.714718	-0.078156	0.291716
O15	O	1.115784	-0.274814	-0.339016
O16	O	1.615784	0.225186	0.160984
O17	O	1.345457	-0.578122	-0.339013
O18	O	1.845457	-0.078122	0.160987
O19	O	1.214843	-0.274788	-0.438067
O20	O	1.714843	0.225212	0.061933
O21	O	1.115713	-0.447409	-0.208285
O22	O	1.615713	0.052591	0.291715
O23	O	0.985023	-0.447355	-0.338985
O24	O	1.485023	0.052645	0.161015
O25	O	1.115745	-0.578028	-0.568743
O26	O	1.615745	-0.078028	-0.068743
O27	O	0.985006	-0.578062	-0.438014
O28	O	1.485006	-0.078062	0.061986
O29	O	1.214821	-0.447296	-0.568766
O30	O	1.714821	0.052704	-0.068766
O31	O	1.214696	-0.750663	-0.338983
O32	O	1.714696	-0.250663	0.161017
O33	O	1.115674	-0.750623	-0.438012
O34	O	1.615674	-0.250623	0.061988
C35	C	0.955759	-0.512707	-0.388497
C36	C	1.455759	-0.012707	0.111503
C37	C	0.866137	-0.512726	-0.388506
C38	C	1.366137	-0.012726	0.111494
C39	C	0.537962	-0.512733	-0.388541
C40	C	1.037962	-0.012733	0.111459
C41	C	0.629270	-0.512728	-0.388529
C42	C	1.129270	-0.012728	0.111471
C43	C	0.702047	-0.512730	-0.388523
C44	C	1.202047	-0.012730	0.111477
C45	C	0.793361	-0.512724	-0.388512
C46	C	1.293361	-0.012724	0.111488
C47	C	1.165197	-0.789263	-0.388511
C48	C	1.665197	-0.289263	0.111489
C49	C	1.165248	-0.907568	-0.388535
C50	C	1.665248	-0.407568	0.111465
C51	C	1.111385	-0.976838	-0.442359
C52	C	1.611385	-0.476838	0.057641
C53	C	1.091744	-1.047696	-0.368785
C54	C	1.591744	-0.547696	0.131215
C55	C	1.184962	-1.047510	-0.462122
C56	C	1.684962	-0.547510	0.037878
C57	C	1.145568	-0.976868	-0.314921
C58	C	1.645568	-0.476868	0.185079
C59	C	1.238820	-0.976675	-0.408308
C60	C	1.738820	-0.476675	0.091692
C61	C	1.219208	-1.047501	-0.334683
C62	C	1.719208	-0.547501	0.165317
C63	C	1.375558	-0.512738	-0.388542
C64	C	1.875558	-0.012738	0.111458
C65	C	1.465179	-0.512745	-0.388552
C66	C	1.965179	-0.012745	0.111448
C67	C	1.165289	-0.512652	-0.598828
C68	C	1.665289	-0.012652	-0.098828
C69	C	1.165306	-0.512622	-0.688449
C70	C	1.665306	-0.012622	-0.188449
C71	C	1.165324	-0.235101	-0.388545
C72	C	1.665324	0.264899	0.111455
C73	C	1.165356	-0.116796	-0.388556
C74	C	1.665356	0.383204	0.111444
C75	C	1.165319	-0.512598	-0.761232
C76	C	1.665319	-0.012598	-0.261232
C77	C	1.165338	-0.512559	-0.852540
C78	C	1.665338	-0.012559	-0.352540
C79	C	1.165357	-0.512521	-0.925317
C80	C	1.665357	-0.012521	-0.425317
C81	C	1.165377	-0.512483	-1.016631
C82	C	1.665377	-0.012483	-0.516631
C83	C	1.165256	-0.512715	-0.179028
C84	C	1.665256	-0.012715	0.320972
C85	C	1.165396	-0.512445	-0.089408
C86	C	1.665396	-0.012445	0.410592
H87	H	1.065753	-0.945810	-0.487811
H88	H	1.565753	-0.445810	0.012189
O89	O	1.273593	-1.084474	-0.280393
O90	O	1.773593	-0.584474	0.219607
C91	C	1.335117	-1.238151	-0.219830
C92	C	1.835117	-0.738151	0.280170
C93	C	1.273519	-1.196419	-0.281358
C94	C	1.773519	-0.696419	0.218642
H95	H	1.335065	-1.328663	-0.220577
H96	H	1.835065	-0.828663	0.279423
H97	H	1.397631	-1.207763	-0.236134
H98	H	1.897631	-0.707763	0.263866
H99	H	1.318213	-1.208912	-0.157181
H100	H	1.818213	-0.708912	0.342819
H101	H	1.290348	-1.225642	-0.344028
H102	H	1.790348	-0.725642	0.155972
H103	H	1.211021	-1.226798	-0.264985
H104	H	1.711021	-0.726798	0.235015
H105	H	1.300974	-0.945460	-0.425051
H106	H	1.800974	-0.445460	0.074949
H107	H	1.201592	-1.078540	-0.524346
H108	H	1.701592	-0.578540	-0.024346
O109	O	1.017527	-1.084866	-0.348967
O110	O	1.517527	-0.584866	0.151033
C111	C	0.876784	-1.090981	-0.383238
C112	C	1.376784	-0.590981	0.116762
C113	C	0.960793	-1.048842	-0.405777
C114	C	1.460793	-0.548842	0.094223
H115	H	0.830890	-1.061855	-0.429147
H116	H	1.330890	-0.561855	0.070853
H117	H	0.877647	-1.181492	-0.382901
H118	H	1.377647	-0.681492	0.117099
H119	H	0.859616	-1.060732	-0.320938
H120	H	1.359616	-0.560732	0.179062
H121	H	0.978014	-1.079013	-0.468082
H122	H	1.478014	-0.579013	0.031918
H123	H	0.959886	-0.958333	-0.406060
H124	H	1.459886	-0.458333	0.093940
O125	O	1.125617	-0.939834	-0.240725
O126	O	1.625617	-0.439834	0.259275
C127	C	1.103225	-0.786087	-0.157461
C128	C	1.603225	-0.286087	0.342539
C129	C	1.125815	-0.827887	-0.241527
C130	C	1.625815	-0.327887	0.258473
H131	H	1.103394	-0.695574	-0.158077
H132	H	1.603394	-0.195574	0.341923
H133	H	1.040728	-0.815898	-0.140491
H134	H	1.540728	-0.315898	0.359509
H135	H	1.148890	-0.815858	-0.111559
H136	H	1.648890	-0.315858	0.388441
H137	H	1.080205	-0.798134	-0.287485
H138	H	1.580205	-0.298134	0.212515
H139	H	1.188332	-0.798084	-0.258429
H140	H	1.688332	-0.298084	0.241571
