data_functionalizedCrystal
_audit_creation_method	'MofGen! by Chris Wilmer'
_symmetry_space_group_name_H-M	'P1'
_symmetry_Int_Tables_number	1
_symmetry_cell_setting	triclinic
loop_
_symmetry_equiv_pos_as_xyz
  x,y,z
_cell_length_a	10.686220
_cell_length_b	18.050589
_cell_length_c	10.686551
_cell_angle_alpha	85.596139
_cell_angle_beta	90.308082
_cell_angle_gamma	94.409750
loop_
_atom_site_label
_atom_site_type_symbol
_atom_site_fract_x
_atom_site_fract_y
_atom_site_fract_z
Zn1	Zn	1.972217	-0.181059	-0.562396
Zn2	Zn	2.305550	0.152274	-0.229062
Zn3	Zn	2.638884	0.485608	0.104271
Zn4	Zn	1.955936	-0.315479	-0.352644
Zn5	Zn	2.289269	0.017854	-0.019311
Zn6	Zn	2.622602	0.351188	0.314022
Zn7	Zn	1.746328	-0.200057	-0.368714
Zn8	Zn	2.079662	0.133276	-0.035381
Zn9	Zn	2.412995	0.466610	0.297952
Zn10	Zn	1.762366	-0.313974	-0.578422
Zn11	Zn	2.095700	0.019359	-0.245089
Zn12	Zn	2.429033	0.352693	0.088245
O13	O	1.859212	-0.252642	-0.465544
O14	O	2.192545	0.080691	-0.132211
O15	O	2.525878	0.414024	0.201123
O16	O	2.145602	-0.191569	-0.521139
O17	O	2.478935	0.141764	-0.187806
O18	O	2.812269	0.475098	0.145527
O19	O	1.914605	-0.308749	-0.179231
O20	O	2.247938	0.024585	0.154102
O21	O	2.581271	0.357918	0.487436
O22	O	1.776395	-0.093607	-0.394425
O23	O	2.109728	0.239727	-0.061091
O24	O	2.443061	0.573060	0.272242
O25	O	2.133640	-0.290327	-0.367036
O26	O	2.466973	0.043006	-0.033703
O27	O	2.800307	0.376340	0.299631
O28	O	1.942354	-0.079649	-0.536722
O29	O	2.275688	0.253684	-0.203388
O30	O	2.609021	0.587018	0.129945
O31	O	1.760607	-0.223949	-0.191038
O32	O	2.093941	0.109385	0.142296
O33	O	2.427274	0.442718	0.475629
O34	O	1.572911	-0.222489	-0.409965
O35	O	1.906244	0.110844	-0.076631
O36	O	2.239578	0.444177	0.256702
O37	O	1.803729	-0.287762	-0.751841
O38	O	2.137063	0.045571	-0.418508
O39	O	2.470396	0.378905	-0.085174
O40	O	1.584694	-0.306184	-0.564036
O41	O	1.918027	0.027150	-0.230703
O42	O	2.251361	0.360483	0.102631
O43	O	1.957906	-0.190110	-0.740067
O44	O	2.291239	0.143224	-0.406733
O45	O	2.624573	0.476557	-0.073400
O46	O	1.930156	-0.419209	-0.382576
O47	O	2.263490	-0.085876	-0.049243
O48	O	2.596823	0.247457	0.284091
O49	O	1.787942	-0.418104	-0.548454
O50	O	2.121275	-0.084770	-0.215120
O51	O	2.454608	0.248563	0.118213
C52	C	1.533286	-0.266235	-0.490484
C53	C	1.866619	0.067098	-0.157151
C54	C	2.199952	0.400432	0.176183
C55	C	1.393856	-0.272067	-0.501183
C56	C	1.727189	0.061267	-0.167850
C57	C	2.060522	0.394600	0.165484
C58	C	1.859059	-0.445602	-0.465535
C59	C	2.192392	-0.112268	-0.132202
C60	C	2.525725	0.221065	0.201132
C61	C	1.859111	-0.528144	-0.465564
C62	C	2.192445	-0.194810	-0.132231
C63	C	2.525778	0.138523	0.201103
C64	C	1.781855	-0.727018	-0.555733
C65	C	2.115188	-0.393685	-0.222399
C66	C	2.448522	-0.060351	0.110934
C67	C	1.742482	-0.783311	-0.443604
C68	C	2.075816	-0.449978	-0.110271
C69	C	2.409149	-0.116645	0.223062
C70	C	1.859236	-0.679268	-0.465571
C71	C	2.192569	-0.345935	-0.132238
C72	C	2.525902	-0.012602	0.201096
C73	C	1.898671	-0.770054	-0.577708
C74	C	2.232004	-0.436720	-0.244375
C75	C	2.565338	-0.103387	0.088959
C76	C	1.859354	-0.825247	-0.465588
C77	C	2.192688	-0.491914	-0.132255
C78	C	2.526021	-0.158580	0.201079
C79	C	1.819798	-0.734480	-0.353387
C80	C	2.153132	-0.401146	-0.020053
C81	C	2.486465	-0.067813	0.313280
C82	C	1.976046	-0.721212	-0.487563
C83	C	2.309379	-0.387878	-0.154230
C84	C	2.642713	-0.054545	0.179104
C85	C	1.936711	-0.777484	-0.375352
C86	C	2.270044	-0.444151	-0.042019
C87	C	2.603377	-0.110818	0.291314
C88	C	1.859164	-0.595174	-0.465563
C89	C	2.192498	-0.261840	-0.132230
C90	C	2.525831	0.071493	0.201104
C91	C	1.859425	-0.909341	-0.465583
C92	C	2.192758	-0.576007	-0.132250
C93	C	2.526092	-0.242674	0.201084
C94	C	2.186411	-0.238997	-0.440508
C95	C	2.519744	0.094337	-0.107174
C96	C	2.853077	0.427670	0.226159
C97	C	2.325843	-0.233182	-0.429838
C98	C	2.659176	0.100151	-0.096505
C99	C	2.992510	0.433485	0.236828
C100	C	1.884423	-0.236649	-0.792743
C101	C	2.217756	0.096685	-0.459410
C102	C	2.551089	0.430018	-0.126077
C103	C	1.895166	-0.229833	-0.932176
C104	C	2.228500	0.103500	-0.598843
C105	C	2.561833	0.436833	-0.265510
C106	C	1.859402	-0.058926	-0.465578
C107	C	2.192735	0.274407	-0.132245
C108	C	2.526068	0.607740	0.201088
C109	C	1.859483	0.023624	-0.465593
C110	C	2.192816	0.356957	-0.132259
C111	C	2.526149	0.690290	0.201074
C112	C	1.834171	-0.268517	-0.139612
C113	C	2.167504	0.064816	0.193721
C114	C	2.500838	0.398150	0.527055
C115	C	1.823671	-0.275113	-0.000161
C116	C	2.157004	0.058220	0.333172
C117	C	2.490338	0.391554	0.666505
H118	H	1.345409	-0.309826	-0.570447
H119	H	1.678742	0.023507	-0.237114
H120	H	2.012076	0.356841	0.096219
H121	H	1.716305	-0.704886	-0.631887
H122	H	2.049638	-0.371552	-0.298554
H123	H	2.382972	-0.038219	0.034779
H124	H	1.643756	-0.810397	-0.425021
H125	H	1.977089	-0.477064	-0.091688
H126	H	2.310423	-0.143730	0.241645
H127	H	1.374283	-0.195430	-0.360571
H128	H	1.707616	0.137903	-0.027237
H129	H	2.040950	0.471236	0.306096
H130	H	1.786378	-0.718720	-0.258543
H131	H	2.119712	-0.385387	0.074791
H132	H	2.453045	-0.052054	0.408124
F133	F	2.022305	-0.806248	-0.275599
F134	F	2.355639	-0.472915	0.057735
F135	F	2.688972	-0.139581	0.391068
H136	H	1.964605	-0.185853	-0.980647
H137	H	2.297939	0.147480	-0.647314
H138	H	2.631272	0.480813	-0.313981
F139	F	2.105066	-0.685807	-0.511925
F140	F	2.438400	-0.352473	-0.178592
F141	F	2.771733	-0.019140	0.154741
H142	H	1.931977	-0.785908	-0.672534
H143	H	2.265311	-0.452575	-0.339200
H144	H	2.598644	-0.119242	-0.005867
F145	F	1.732924	-0.332602	-0.936816
F146	F	2.066257	0.000731	-0.603483
F147	F	2.399591	0.334065	-0.270149
