data_functionalizedCrystal
_audit_creation_method	'MofGen! by Chris Wilmer'
_symmetry_space_group_name_H-M	'P1'
_symmetry_Int_Tables_number	1
_symmetry_cell_setting	triclinic
loop_
_symmetry_equiv_pos_as_xyz
  x,y,z
_cell_length_a	10.540539
_cell_length_b	19.188930
_cell_length_c	9.016244
_cell_angle_alpha	89.992636
_cell_angle_beta	89.994699
_cell_angle_gamma	83.835137
loop_
_atom_site_label
_atom_site_type_symbol
_atom_site_fract_x
_atom_site_fract_y
_atom_site_fract_z
O1	O	1.683725	0.098388	-0.123289
O2	O	1.314108	0.107659	-0.123309
O3	O	1.509583	0.001439	-0.123270
O4	O	1.488250	0.204608	-0.123329
O5	O	1.509554	0.001441	0.123411
O6	O	1.314079	0.107661	0.123372
O7	O	1.683697	0.098391	0.123392
Cu8	Cu	1.498885	0.103026	0.145905
Cu9	Cu	1.498919	0.103023	-0.145823
O10	O	1.488222	0.204611	0.123352
C11	C	1.266806	0.106965	0.000029
C12	C	1.125904	0.104885	0.000023
C13	C	0.944233	0.025184	0.000622
C14	C	1.090805	0.027292	0.000050
C15	C	1.063424	0.142224	-0.140849
C16	C	0.916938	0.139576	-0.140951
C17	C	0.916383	0.141157	0.139570
C18	C	1.063349	0.141872	0.141417
C19	C	1.508878	-0.024575	0.000075
C20	C	1.506804	-0.102094	0.000088
C21	C	1.621502	-0.146253	0.000101
C22	C	1.619554	-0.219090	0.000077
C23	C	1.502901	-0.247764	0.000070
C24	C	1.388187	-0.203595	0.000048
C25	C	1.390139	-0.130760	0.000057
N26	N	1.413724	-0.356363	0.084015
N27	N	1.411878	-0.425553	0.084010
C28	C	1.497014	-0.467212	0.000039
N29	N	1.584085	-0.437067	-0.083907
N30	N	1.585935	-0.367870	-0.083895
C31	C	1.500772	-0.326741	0.000059
C32	C	1.609608	-0.590350	0.000025
C33	C	1.607655	-0.663188	-0.000008
C34	C	1.376285	-0.647691	-0.000023
C35	C	1.378241	-0.574855	-0.000004
C36	C	1.494906	-0.546189	0.000026
C37	C	1.730998	0.099085	0.000050
C38	C	1.871901	0.101165	0.000047
C39	C	1.488927	0.230625	0.000004
C40	C	1.491000	0.308143	-0.000018
N41	N	1.498871	0.103028	0.351092
N42	N	1.498944	0.103016	-0.351009
C43	C	1.393992	0.159658	0.586103
C44	C	1.394216	0.159870	0.414212
C45	C	1.631229	0.119601	0.413432
C46	C	1.630654	0.120002	0.585376
C47	C	1.472714	0.029640	0.585655
C48	C	1.469658	0.030115	0.413700
H49	H	0.914710	-0.005341	-0.099826
H50	H	1.133214	-0.002297	-0.101092
C51	C	1.091931	0.219200	-0.147970
H52	H	1.142316	0.229272	-0.064898
H53	H	1.014014	0.249085	-0.146667
H54	H	1.137078	0.226726	-0.236735
C55	C	1.261288	0.146412	0.357268
H56	H	1.206661	0.140769	0.439222
H57	H	1.268479	0.105079	0.298542
H58	H	1.226700	0.185101	0.298932
C59	C	1.094384	0.218294	0.152890
H60	H	1.146119	0.228692	0.071228
H61	H	1.138836	0.224427	0.242792
H62	H	1.017332	0.248916	0.151694
C63	C	1.733830	-0.711764	0.000009
H64	H	1.803585	-0.684256	0.000043
H65	H	1.737899	-0.740492	-0.086018
H66	H	1.737856	-0.740505	0.086039
C67	C	1.121730	0.107180	-0.282462
H68	H	1.184132	0.069799	-0.256038
H69	H	1.160564	0.140719	-0.339469
H70	H	1.056456	0.089387	-0.339233
C71	C	1.416267	0.232790	0.644369
H72	H	1.352451	0.266701	0.605835
H73	H	1.497987	0.243778	0.613595
H74	H	1.412091	0.233012	0.749624
H75	H	1.378325	0.013867	0.629103
H76	H	1.134054	-0.002088	0.101034
C77	C	1.263965	-0.082182	0.000056
H78	H	1.194209	-0.109688	0.000055
H79	H	1.259927	-0.053436	-0.085958
H80	H	1.259911	-0.053459	0.086099
C81	C	1.663300	0.191101	0.355232
H82	H	1.743579	0.200661	0.393570
H83	H	1.599204	0.226709	0.386243
H84	H	1.666922	0.190039	0.249966
C85	C	0.850463	0.214956	-0.149624
H86	H	0.760570	0.213850	-0.149736
H87	H	0.875504	0.236592	-0.238139
H88	H	0.874295	0.240927	-0.066328
H89	H	1.704603	-0.567009	0.000043
C90	C	1.247965	-0.679220	-0.000037
H91	H	1.179932	-0.642485	-0.000048
H92	H	1.242380	-0.707321	0.085978
H93	H	1.242408	-0.707301	-0.086079
H94	H	1.284841	-0.538899	-0.000007
H95	H	1.410916	0.214309	0.373051
H96	H	0.916311	-0.005469	0.101650
H97	H	1.712958	-0.255051	0.000082
C98	C	1.749825	-0.114720	0.000129
H99	H	1.734564	-0.065017	0.000146
H100	H	1.797055	-0.129834	-0.085886
H101	H	1.797014	-0.129848	0.086171
C102	C	1.260643	0.146404	0.642033
H103	H	1.267775	0.106212	0.704247
H104	H	1.207486	0.138843	0.559793
H105	H	1.224406	0.185983	0.696602
H106	H	1.653829	0.173535	0.625451
C107	C	1.739288	0.066437	0.641580
H108	H	1.783584	0.044533	0.559323
H109	H	1.704585	0.031954	0.700148
H110	H	1.796734	0.089788	0.699923
C111	C	0.874501	0.107239	0.283821
H112	H	0.829493	0.068364	0.260300
H113	H	0.820534	0.140661	0.338808
H114	H	0.947647	0.091748	0.341334
C115	C	1.338132	0.013143	0.358671
H116	H	1.301170	0.050329	0.297785
H117	H	1.284175	0.007728	0.441336
H118	H	1.347915	-0.029097	0.302908
C119	C	1.566256	-0.029563	0.355687
H120	H	1.625937	-0.010708	0.292248
H121	H	1.522390	-0.062195	0.302016
H122	H	1.610065	-0.052594	0.437024
H123	H	0.889348	0.111977	-0.246239
C124	C	1.259873	-0.235134	0.000045
H125	H	1.275137	-0.284837	0.000057
H126	H	1.212670	-0.220009	-0.085980
H127	H	1.212654	-0.220019	0.086077
C128	C	1.576095	-0.027318	0.640603
H129	H	1.559739	-0.071536	0.601961
H130	H	1.574869	-0.028916	0.745892
H131	H	1.657461	-0.016641	0.607835
C132	C	1.119468	0.105022	0.282208
H133	H	1.180771	0.067256	0.254951
H134	H	1.053016	0.087542	0.337539
H135	H	1.159273	0.137538	0.340983
H136	H	0.867921	0.197202	0.140506
H137	H	1.711168	0.079472	0.372542
