data_functionalizedCrystal
_audit_creation_method	'MofGen! by Chris Wilmer'
_symmetry_space_group_name_H-M	'P1'
_symmetry_Int_Tables_number	1
_symmetry_cell_setting	triclinic
loop_
_symmetry_equiv_pos_as_xyz
  x,y,z
_cell_length_a	17.639054
_cell_length_b	13.897447
_cell_length_c	13.897441
_cell_angle_alpha	89.970673
_cell_angle_beta	78.752813
_cell_angle_gamma	101.208112
loop_
_atom_site_label
_atom_site_type_symbol
_atom_site_fract_x
_atom_site_fract_y
_atom_site_fract_z
Zn1	Zn	1.208626	-0.086161	-0.844208
Zn2	Zn	1.208535	-0.247505	-0.682890
Zn3	Zn	1.076419	-0.118781	-0.650240
Zn4	Zn	1.076400	-0.279998	-0.811474
O5	O	1.142495	-0.183111	-0.747203
O6	O	1.319242	-0.080313	-0.850173
O7	O	1.190979	-0.230482	-0.543570
O8	O	1.094003	0.020539	-0.676005
O9	O	1.319175	-0.198852	-0.731653
O10	O	1.191135	0.044505	-0.818513
O11	O	1.093914	-0.135909	-0.519582
O12	O	0.965788	-0.167417	-0.644264
O13	O	1.093970	-0.254232	-0.950806
O14	O	0.965774	-0.285862	-0.762722
O15	O	1.191116	-0.111820	-0.974855
O16	O	1.190961	-0.386808	-0.699913
O17	O	1.093882	-0.410681	-0.794383
C18	C	0.937097	-0.233706	-0.696399
C19	C	0.849226	-0.255374	-0.674687
C20	C	1.142431	-0.433741	-0.747165
C21	C	1.142476	-0.540944	-0.747199
C22	C	0.725341	-0.347530	-0.582290
C23	C	0.807909	-0.327162	-0.602699
C24	C	0.807986	-0.203928	-0.726301
C25	C	0.725417	-0.224289	-0.705906
C26	C	0.684101	-0.296090	-0.633899
C27	C	0.684176	-0.172849	-0.757515
C28	C	0.601614	-0.193205	-0.737118
C29	C	0.560293	-0.265000	-0.665113
C30	C	0.601539	-0.316446	-0.613503
C31	C	0.725494	-0.101043	-0.829517
C32	C	0.684253	-0.049603	-0.881126
C33	C	0.601690	-0.069963	-0.860734
C34	C	0.560368	-0.141759	-0.788729
C35	C	0.560444	-0.018518	-0.912344
C36	C	0.477882	-0.038874	-0.891948
C37	C	0.477806	-0.162115	-0.768332
C38	C	1.142514	-0.628004	-0.747230
C39	C	1.142569	-0.737223	-0.747269
C40	C	1.348695	-0.132319	-0.798206
C41	C	1.436566	-0.110675	-0.819941
C42	C	1.142551	-0.183012	-0.998810
C43	C	1.142575	-0.182970	-1.106030
C44	C	1.142581	0.068503	-0.747268
C45	C	1.142618	0.175726	-0.747296
C46	C	1.142596	-0.182899	-1.302331
C47	C	1.142582	-0.182942	-1.193094
C48	C	1.142485	-0.183129	-0.496586
C49	C	1.142614	-0.182862	-0.389405
H50	H	0.444164	-0.220591	-0.709705
H51	H	0.444303	0.003018	-0.933969
H52	H	0.691699	-0.406006	-0.523664
H53	H	0.717904	0.008860	-0.939751
C54	C	0.469471	-0.287393	-0.642677
N55	N	0.401064	-0.304261	-0.625780
C56	C	0.853443	-0.124948	-0.805505
N57	N	0.887680	-0.065461	-0.865165
C58	C	0.853270	-0.383761	-0.545923
N59	N	0.887436	-0.426390	-0.503160
H60	H	0.594095	0.039949	-0.970965
H61	H	0.567897	-0.374922	-0.554876
H62	H	0.792721	-0.084468	-0.846118
