data_functionalizedCrystal
_audit_creation_method	'MofGen! by Chris Wilmer'
_symmetry_space_group_name_H-M	'P1'
_symmetry_Int_Tables_number	1
_symmetry_cell_setting	triclinic
loop_
_symmetry_equiv_pos_as_xyz
  x,y,z
_cell_length_a	14.853566
_cell_length_b	23.532407
_cell_length_c	13.930277
_cell_angle_alpha	90.010364
_cell_angle_beta	89.995015
_cell_angle_gamma	96.758458
loop_
_atom_site_label
_atom_site_type_symbol
_atom_site_fract_x
_atom_site_fract_y
_atom_site_fract_z
O1	O	1.195557	-0.074349	-0.079781
O2	O	1.695557	0.425651	0.420219
O3	O	0.933000	-0.083207	-0.079798
O4	O	1.433000	0.416793	0.420202
O5	O	1.072196	0.004119	-0.079768
O6	O	1.572196	0.504119	0.420232
O7	O	1.056361	-0.161675	-0.079811
O8	O	1.556361	0.338325	0.420189
O9	O	1.072175	0.004121	0.079894
O10	O	1.572175	0.504121	0.579894
O11	O	0.932979	-0.083206	0.079864
O12	O	1.432979	0.416794	0.579864
O13	O	1.195536	-0.074348	0.079881
O14	O	1.695536	0.425652	0.579881
Zn15	Zn	1.064254	-0.078776	0.105222
Zn16	Zn	1.564254	0.421224	0.605222
Zn17	Zn	1.064282	-0.078778	-0.105139
Zn18	Zn	1.564282	0.421222	0.394861
O19	O	1.056340	-0.161674	0.079851
O20	O	1.556340	0.338326	0.579851
C21	C	0.899405	-0.082805	0.000031
C22	C	1.399405	0.417195	0.500031
C23	C	0.799335	-0.081603	0.000025
C24	C	1.299335	0.418397	0.500025
C25	C	0.376217	-0.076518	-0.086988
C26	C	0.876217	0.423482	0.413012
C27	C	0.376216	-0.076517	0.087081
C28	C	0.876216	0.423483	0.587081
C29	C	0.470237	-0.077646	0.087078
C30	C	0.970237	0.422354	0.587078
C31	C	0.517253	-0.078212	0.000040
C32	C	1.017253	0.421788	0.500040
C33	C	0.470247	-0.077649	-0.086994
C34	C	0.970247	0.422351	0.413006
C35	C	0.517249	-0.078215	0.174111
C36	C	1.017249	0.421785	0.674111
C37	C	0.611276	-0.079345	0.174111
C38	C	1.111276	0.420655	0.674111
C39	C	0.658295	-0.079907	0.087072
C40	C	1.158295	0.420093	0.587072
C41	C	0.611283	-0.079343	0.000034
C42	C	1.111283	0.420657	0.500034
C43	C	0.658299	-0.079909	-0.087003
C44	C	1.158299	0.420091	0.412997
C45	C	0.611290	-0.079341	-0.174042
C46	C	1.111290	0.420659	0.325958
C47	C	0.517265	-0.078211	-0.174033
C48	C	1.017265	0.421789	0.325967
C49	C	0.752319	-0.081037	0.087063
C50	C	1.252319	0.418963	0.587063
C51	C	0.752329	-0.081040	-0.087009
C52	C	1.252329	0.418960	0.412991
C53	C	1.071782	0.025338	0.000066
C54	C	1.571782	0.525338	0.500066
C55	C	1.070570	0.088560	0.000076
C56	C	1.570570	0.588560	0.500076
C57	C	1.145339	0.487337	0.000044
C58	C	1.645339	0.987337	0.500044
C59	C	1.144213	0.546742	0.000039
C60	C	1.644213	1.046742	0.500039
O61	O	1.213524	0.583184	0.000010
O62	O	1.713524	1.083184	0.500010
N63	N	1.061461	0.569729	0.000035
N64	N	1.561461	1.069729	0.500035
C65	C	0.979830	0.533308	0.000027
C66	C	1.479830	1.033308	0.500027
O67	O	0.909340	0.558315	0.000022
O68	O	1.409340	1.058315	0.500022
C69	C	0.980957	0.473904	0.000025
C70	C	1.480957	0.973904	0.500025
C71	C	1.063714	0.450920	0.000038
C72	C	1.563714	0.950920	0.500038
C73	C	1.228089	0.464353	0.000057
C74	C	1.728089	0.964353	0.500057
C75	C	1.229215	0.404952	0.000063
C76	C	1.729215	0.904952	0.500063
C77	C	1.147591	0.368535	0.000058
C78	C	1.647591	0.868535	0.500058
C79	C	1.064840	0.391519	0.000045
C80	C	1.564840	0.891519	0.500045
C81	C	0.899327	0.437483	0.000010
C82	C	1.399327	0.937483	0.500010
C83	C	0.900462	0.378076	0.000007
C84	C	1.400462	0.878076	0.500007
C85	C	0.983219	0.355092	0.000021
C86	C	1.483219	0.855092	0.500021
C87	C	0.984341	0.295701	0.000046
C88	C	1.484341	0.795701	0.500046
N89	N	1.067093	0.272714	0.000050
N90	N	1.567093	0.772714	0.500050
C91	C	1.148718	0.309131	0.000056
C92	C	1.648718	0.809131	0.500056
C93	C	0.977469	0.658060	0.000029
C94	C	1.477469	1.158060	0.500029
C95	C	0.976341	0.717463	0.000038
C96	C	1.476341	1.217463	0.500038
C97	C	1.140724	0.730894	0.000048
C98	C	1.640724	1.230894	0.500048
C99	C	1.141851	0.671490	0.000046
C100	C	1.641851	1.171490	0.500046
C101	C	1.060221	0.635073	0.000033
C102	C	1.560221	1.135073	0.500033
C103	C	1.151076	0.184384	0.000071
C104	C	1.651076	0.684384	0.500071
C105	C	1.152194	0.124977	0.000082
C106	C	1.652194	0.624977	0.500082
C107	C	0.987812	0.111552	0.000066
C108	C	1.487812	0.611552	0.500066
C109	C	0.986693	0.170953	0.000060
C110	C	1.486693	0.670953	0.500060
C111	C	1.068332	0.207369	0.000060
C112	C	1.568332	0.707369	0.500060
O113	O	0.915066	0.259224	0.000072
O114	O	1.415066	0.759224	0.500072
O115	O	1.219196	0.284115	0.000048
O116	O	1.719196	0.784115	0.500048
C117	C	1.229131	-0.074750	0.000050
C118	C	1.729131	0.425250	0.500050
C119	C	1.329201	-0.075952	0.000050
C120	C	1.829201	0.424048	0.500050
N121	N	1.064242	-0.078775	0.248788
N122	N	1.564242	0.421225	0.748788
C123	C	1.056754	0.817108	0.000025
C124	C	1.556754	1.317108	0.500025
C125	C	1.057966	0.753885	0.000038
C126	C	1.557966	1.253885	0.500038
C127	C	1.002635	-0.117433	0.701044
C128	C	1.502635	0.382567	1.201044
C129	C	1.125936	-0.040123	0.701040
C130	C	1.625936	0.459877	1.201040
C131	C	1.125927	-0.040121	0.600545
C132	C	1.625927	0.459879	1.100545
C133	C	1.064271	-0.078776	0.550294
C134	C	1.564271	0.421224	1.050294
C135	C	1.002625	-0.117434	0.600539
C136	C	1.502625	0.382566	1.100539
C137	C	1.187577	-0.001469	0.550292
C138	C	1.687577	0.498531	1.050292
C139	C	1.187571	-0.001465	0.449790
C140	C	1.687571	0.498535	0.949790
C141	C	1.125910	-0.040118	0.399538
C142	C	1.625910	0.459882	0.899538
C143	C	1.064261	-0.078777	0.449789
C144	C	1.564261	0.421223	0.949789
C145	C	1.002606	-0.117432	0.399539
C146	C	1.502606	0.382568	0.899539
C147	C	0.940952	-0.156088	0.449788
C148	C	1.440952	0.343912	0.949788
C149	C	0.940965	-0.156087	0.550287
C150	C	1.440965	0.343913	1.050287
C151	C	1.125897	-0.040120	0.299039
C152	C	1.625897	0.459880	0.799039
C153	C	1.002596	-0.117432	0.299034
C154	C	1.502596	0.382568	0.799034
N155	N	1.064291	-0.078778	0.751295
N156	N	1.564291	0.421222	1.251295
H157	H	0.337929	-0.076060	0.157943
H158	H	0.837929	0.423940	0.657943
F159	F	0.937018	-0.158570	0.754521
F160	F	1.437018	0.341430	1.254521
F161	F	1.237966	0.223131	0.000070
F162	F	1.737966	0.723131	0.500070
H163	H	1.296604	0.386244	0.000070
H164	H	1.796604	0.886244	0.500070
H165	H	0.478961	-0.077758	0.244972
H166	H	0.978961	0.422242	0.744972
F167	F	1.240280	0.100520	0.000096
F168	F	1.740280	0.600520	0.500096
F169	F	0.661337	-0.079947	-0.266671
F170	F	1.161337	0.420053	0.233329
H171	H	1.176139	-0.008654	0.741958
H172	H	1.676139	0.491346	1.241958
F173	F	0.813577	0.339322	-0.000010
F174	F	1.313577	0.839322	0.499990
H175	H	0.952385	-0.148908	0.258126
H176	H	1.452385	0.351092	0.758126
H177	H	1.237780	0.030001	0.591209
H178	H	1.737780	0.530001	1.091209
F179	F	0.326190	-0.075900	-0.179617
F180	F	0.826190	0.424100	0.320383
F181	F	1.314974	0.503102	0.000062
F182	F	1.814974	1.003102	0.500062
F183	F	1.191515	0.001015	0.245566
F184	F	1.691515	0.501015	0.745566
F185	F	1.229932	0.647034	0.000061
F186	F	1.729932	1.147034	0.500061
F187	F	0.661299	-0.079948	0.266744
F188	F	1.161299	0.420052	0.766744
F189	F	0.802360	-0.081638	-0.179649
F190	F	1.302360	0.418362	0.320351
H191	H	0.921355	0.081891	0.000065
H192	H	1.421355	0.581891	0.500065
H193	H	1.237771	0.030011	0.408883
H194	H	1.737771	0.530011	0.908883
F195	F	0.802344	-0.081645	0.179689
F196	F	1.302344	0.418355	0.679689
F197	F	0.467233	-0.077589	-0.266657
F198	F	0.967233	0.422411	0.233343
H199	H	0.890756	-0.187564	0.408863
H200	H	1.390756	0.312436	0.908863
F201	F	1.227597	0.769662	0.000049
F202	F	1.727597	1.269662	0.500049
H203	H	0.908952	0.736171	0.000043
H204	H	1.408952	1.236171	0.500043
H205	H	0.910992	0.628413	0.000026
H206	H	1.410992	1.128413	0.500026
H207	H	0.831938	0.456186	-0.000007
H208	H	1.331938	0.956186	0.499993
H209	H	0.919305	0.189667	0.000076
H210	H	1.419305	0.689667	0.500076
F211	F	0.875355	-0.197225	0.603770
F212	F	1.375355	0.302775	1.103770
