data_functionalizedCrystal
_audit_creation_method	'MofGen! by Chris Wilmer'
_symmetry_space_group_name_H-M	'P1'
_symmetry_Int_Tables_number	1
_symmetry_cell_setting	triclinic
loop_
_symmetry_equiv_pos_as_xyz
  x,y,z
_cell_length_a	17.640112
_cell_length_b	18.050589
_cell_length_c	17.637464
_cell_angle_alpha	101.181028
_cell_angle_beta	109.606029
_cell_angle_gamma	101.252307
loop_
_atom_site_label
_atom_site_type_symbol
_atom_site_fract_x
_atom_site_fract_y
_atom_site_fract_z
Zn1	Zn	1.165487	-0.114257	-0.211679
Zn2	Zn	1.193262	-0.207000	-0.073907
Zn3	Zn	1.055566	-0.114292	-0.101706
Zn4	Zn	1.027642	-0.269900	-0.239469
O5	O	1.110489	-0.176362	-0.156690
O6	O	1.284486	-0.100221	-0.170139
O7	O	1.198307	-0.168393	0.037718
O8	O	1.070210	-0.010352	-0.116298
O9	O	1.304893	-0.168359	-0.068918
O10	O	1.150968	-0.010326	-0.197095
O11	O	1.097142	-0.100281	0.017294
O12	O	0.936547	-0.161272	-0.143245
O13	O	1.022617	-0.275562	-0.351095
O14	O	0.916032	-0.275597	-0.244459
O15	O	1.123891	-0.161212	-0.330678
O16	O	1.171230	-0.319280	-0.095865
O17	O	1.049550	-0.365492	-0.217503
C18	C	0.896390	-0.225264	-0.199885
C19	C	0.804793	-0.246207	-0.218384
C20	C	0.556753	-0.017250	-0.016166
C21	C	0.470682	-0.036947	-0.033560
C22	C	0.449410	-0.156082	-0.138772
C23	C	0.535481	-0.136393	-0.121391
C24	C	0.589146	-0.066977	-0.060086
C25	C	0.567874	-0.186120	-0.165310
C26	C	0.653938	-0.166435	-0.147927
C27	C	0.707609	-0.097023	-0.086623
C28	C	0.675210	-0.047291	-0.042703
C29	C	0.514208	-0.255539	-0.226610
C30	C	0.546600	-0.305265	-0.270530
C31	C	0.632665	-0.285578	-0.253151
C32	C	0.686336	-0.216166	-0.191847
C33	C	0.665063	-0.335309	-0.297071
C34	C	0.751127	-0.315624	-0.279688
C35	C	0.772400	-0.196481	-0.174464
C36	C	1.110393	-0.369334	-0.156697
C37	C	1.110421	-0.451877	-0.156712
C38	C	1.044309	-0.676468	-0.222829
C39	C	1.039439	-0.713321	-0.151687
C40	C	1.110500	-0.602991	-0.156706
C41	C	1.115409	-0.713213	-0.227849
C42	C	1.110573	-0.748963	-0.156708
C43	C	1.105598	-0.638757	-0.085533
C44	C	1.181593	-0.638648	-0.161738
C45	C	1.176761	-0.675460	-0.090539
C46	C	1.110455	-0.518902	-0.156707
C47	C	1.110619	-0.833049	-0.156699
C48	C	1.325425	-0.127270	-0.113327
C49	C	1.417018	-0.106349	-0.094849
C50	C	1.067041	-0.225400	-0.371622
C51	C	1.048526	-0.246296	-0.463213
C52	C	1.110605	0.017364	-0.156698
C53	C	1.110655	0.099919	-0.156701
C54	C	0.969707	-0.335280	-0.602937
C55	C	0.987111	-0.315638	-0.516872
C56	C	1.092564	-0.196572	-0.495604
C57	C	1.075172	-0.216207	-0.581668
C58	C	1.013742	-0.285562	-0.635328
C59	C	1.119208	-0.166488	-0.614059
C60	C	1.101814	-0.186120	-0.700117
C61	C	1.040384	-0.255470	-0.753783
C62	C	0.996348	-0.305193	-0.721386
C63	C	1.180633	-0.097131	-0.560399
C64	C	1.224669	-0.047412	-0.592790
C65	C	1.207279	-0.067046	-0.678848
C66	C	1.145850	-0.136396	-0.732514
C67	C	1.251315	-0.017323	-0.711245
C68	C	1.233921	-0.036954	-0.797302
C69	C	1.128456	-0.156028	-0.818571
C70	C	1.153816	-0.127451	0.057414
C71	C	1.172491	-0.106309	0.149037
H72	H	0.600449	0.039284	0.033741
H73	H	1.078439	-0.212507	-0.862264
C74	C	0.729895	0.026953	0.102118
C75	C	0.734215	0.029009	0.024687
H76	H	0.766328	0.074052	0.143720
H77	H	0.674012	0.022360	0.098051
H78	H	0.746432	-0.016943	0.117100
H79	H	0.717673	0.072902	0.009701
H80	H	0.790111	0.033610	0.028753
H81	H	1.241658	-0.606262	-0.166027
H82	H	0.502895	-0.361786	-0.320441
C83	C	0.652676	-0.451097	-0.399340
C84	C	0.606069	-0.411608	-0.364458
H85	H	0.616255	-0.498203	-0.440940
H86	H	0.679875	-0.418305	-0.424134
H87	H	0.693500	-0.463578	-0.356603
H88	H	0.565249	-0.399122	-0.407194
H89	H	0.578857	-0.444407	-0.339664
C90	C	1.254083	-0.014185	-0.919782
C91	C	1.282326	0.017693	-0.832914
H92	H	1.283963	0.019557	-0.941766
H93	H	1.263260	-0.064546	-0.931445
H94	H	1.195871	-0.019171	-0.945047
H95	H	1.340537	0.022674	-0.807648
H96	H	1.273156	0.068068	-0.821244
H97	H	0.405705	-0.212602	-0.188684
C98	C	1.168932	-0.594513	0.064884
C99	C	1.099933	-0.595305	-0.004311
H100	H	1.165434	-0.567683	0.115023
H101	H	1.168941	-0.647035	0.065383
H102	H	1.219217	-0.568272	0.061179
H103	H	1.049648	-0.621552	-0.000609
H104	H	1.099916	-0.542774	-0.004808
H105	H	0.777687	-0.080997	-0.072469
C106	C	0.867205	-0.451020	-0.615326
C107	C	0.902184	-0.411519	-0.661928
H108	H	0.825518	-0.498082	-0.651747
H109	H	0.909874	-0.463574	-0.574519
H110	H	0.842487	-0.418197	-0.588119
H111	H	0.926907	-0.444340	-0.689131
H112	H	0.859507	-0.398968	-0.702751
C113	C	1.262965	-0.004171	-0.425544
C114	C	1.199755	-0.075548	-0.465802
H115	H	1.274764	0.009154	-0.367146
H116	H	1.312193	-0.009312	-0.434281
H117	H	1.244798	0.036055	-0.447896
H118	H	1.217924	-0.115776	-0.443454
H119	H	1.150517	-0.070412	-0.457059
C120	C	1.270254	0.093572	-0.558185
C121	C	1.292192	0.028819	-0.533800
H122	H	1.311941	0.140632	-0.521763
H123	H	1.266205	0.088994	-0.614065
H124	H	1.217744	0.095009	-0.555251
H125	H	1.344700	0.027378	-0.536740
H126	H	1.296251	0.033398	-0.477906
H127	H	1.232779	-0.675691	-0.034568
C128	C	0.895800	-0.329229	-0.442478
C129	C	0.938700	-0.370309	-0.481280
H130	H	0.865910	-0.362985	-0.420514
H131	H	0.934868	-0.285129	-0.398196
H132	H	0.857518	-0.311723	-0.482414
H133	H	0.976987	-0.387809	-0.441342
H134	H	0.899628	-0.414422	-0.525567
H135	H	1.026218	-0.271448	-0.823857
C136	C	1.296886	0.123659	-0.676646
C137	C	1.318832	0.058912	-0.652255
H138	H	1.338567	0.170724	-0.640224
H139	H	1.292840	0.119081	-0.732525
H140	H	1.244373	0.125090	-0.673717
H141	H	1.371344	0.057478	-0.655190
H142	H	1.322888	0.063492	-0.596362
C143	C	0.922857	-0.388156	-0.862753
C144	C	0.928823	-0.381430	-0.780379
H145	H	0.881174	-0.435220	-0.899171
H146	H	0.907980	-0.344225	-0.879280
H147	H	0.975372	-0.389596	-0.865675
H148	H	0.876310	-0.379983	-0.777455
H149	H	0.943696	-0.425371	-0.763848
H150	H	0.444312	0.003556	0.002204
C151	C	0.386658	-0.217960	-0.272665
C152	C	0.419602	-0.277189	-0.245726
H153	H	0.328252	-0.231333	-0.284472
H154	H	0.413971	-0.169509	-0.229874
H155	H	0.395397	-0.212880	-0.321928
H156	H	0.410868	-0.282265	-0.196459
H157	H	0.392281	-0.325654	-0.288521
H158	H	0.777501	-0.356116	-0.315453
H159	H	0.988279	-0.676083	-0.278694
H160	H	1.142579	-0.140102	-0.451903
C161	C	0.889051	-0.758492	-0.215231
C162	C	0.958326	-0.757038	-0.145930
H163	H	0.838974	-0.785484	-0.211681
H164	H	0.888215	-0.706126	-0.215701
H165	H	0.892975	-0.784864	-0.265310
H166	H	0.954404	-0.730660	-0.095851
H167	H	0.959160	-0.809414	-0.145452
C168	C	1.051567	-0.758246	-0.378213
C169	C	1.120985	-0.756805	-0.309063
H170	H	1.055009	-0.785153	-0.428352
H171	H	1.001552	-0.784690	-0.374185
H172	H	1.051071	-0.705869	-0.379004
H173	H	1.121477	-0.809183	-0.308268
H174	H	1.171013	-0.730363	-0.313092
H175	H	0.816095	-0.139947	-0.124556
