data_functionalizedCrystal
_audit_creation_method	'MofGen! by Chris Wilmer'
_symmetry_space_group_name_H-M	'P1'
_symmetry_Int_Tables_number	1
_symmetry_cell_setting	triclinic
loop_
_symmetry_equiv_pos_as_xyz
  x,y,z
_cell_length_a	14.853567
_cell_length_b	19.288871
_cell_length_c	18.366186
_cell_angle_alpha	89.990878
_cell_angle_beta	89.998262
_cell_angle_gamma	96.613061
loop_
_atom_site_label
_atom_site_type_symbol
_atom_site_fract_x
_atom_site_fract_y
_atom_site_fract_z
O1	O	1.195847	-0.090687	0.060501
O2	O	0.933326	-0.101490	0.060514
O3	O	1.072169	0.005016	0.060500
O4	O	1.057004	-0.197193	0.060515
O5	O	1.072167	0.005026	-0.060599
O6	O	0.933324	-0.101479	-0.060585
O7	O	1.195845	-0.090677	-0.060598
Zn8	Zn	1.064584	-0.096076	-0.079819
Zn9	Zn	1.064587	-0.096090	0.079735
O10	O	1.057002	-0.197183	-0.060584
C11	C	0.899739	-0.100995	-0.000034
C12	C	0.799664	-0.099528	-0.000029
C13	C	1.071679	0.030899	-0.000049
C14	C	1.070211	0.108007	-0.000050
N15	N	1.064589	-0.096066	-0.188710
C16	C	0.387523	-0.030061	-0.000051
C17	C	0.365526	-0.156593	-0.000041
C18	C	0.459552	-0.157972	-0.000039
C19	C	0.517568	-0.095395	-0.000041
C20	C	0.481558	-0.031439	-0.000046
C21	C	0.495570	-0.221927	-0.000026
C22	C	0.589601	-0.223309	-0.000023
C23	C	0.647619	-0.160731	-0.000031
C24	C	0.611603	-0.096772	-0.000036
C25	C	0.669619	-0.034195	-0.000039
C26	C	0.633605	0.029764	-0.000050
C27	C	0.539576	0.031139	-0.000054
C28	C	0.741648	-0.162105	-0.000027
C29	C	0.763654	-0.035572	-0.000034
C30	C	1.229432	-0.091172	-0.000048
C31	C	1.329507	-0.092638	-0.000048
C32	C	1.059672	0.663619	-0.066049
C33	C	1.061041	0.591166	-0.066052
C34	C	1.061731	0.554927	-0.000042
C35	C	1.061029	0.591144	0.065977
C36	C	1.059650	0.663594	0.065979
C37	C	1.116718	0.445405	0.050528
C38	C	1.118102	0.372957	0.050524
C39	C	1.065978	0.331466	-0.000043
C40	C	1.012483	0.362433	-0.050618
C41	C	1.011104	0.434884	-0.050617
C42	C	1.063225	0.476367	-0.000036
C43	C	1.068159	0.216696	-0.066061
C44	C	1.069523	0.144242	-0.066062
C45	C	1.069520	0.144221	0.065970
C46	C	1.068147	0.216674	0.065969
C47	C	1.067471	0.252907	-0.000049
C48	C	1.057496	0.776935	-0.000036
C49	C	1.058974	0.699827	-0.000039
N50	N	1.064590	-0.096095	0.188626
C51	C	1.126189	-0.049011	0.773170
C52	C	1.126186	-0.049010	0.696943
C53	C	1.064592	-0.096076	0.658837
C54	C	1.002981	-0.143135	0.696966
C55	C	1.002979	-0.143130	0.773193
C56	C	1.052357	-0.159322	0.538087
C57	C	1.052365	-0.159328	0.461862
C58	C	1.064593	-0.096091	0.423730
C59	C	1.076832	-0.032846	0.461832
C60	C	1.076830	-0.032841	0.538058
C61	C	1.064587	-0.096087	0.576183
C62	C	1.126194	-0.049031	0.302955
C63	C	1.126185	-0.049029	0.226726
C64	C	1.002984	-0.143160	0.226751
C65	C	1.002989	-0.143156	0.302979
C66	C	1.064598	-0.096092	0.341076
H67	H	0.810885	0.015386	-0.000039
O68	O	0.628445	-0.292288	-0.000016
H69	H	0.670766	-0.295932	-0.049372
H70	H	1.176358	-0.010706	0.333975
O71	O	0.936574	-0.193935	0.185649
H72	H	0.947718	-0.248121	0.200299
O73	O	0.348685	0.038921	-0.000069
H74	H	0.372004	0.068994	0.049284
O75	O	0.302960	-0.224085	-0.000046
H76	H	0.231525	-0.212383	-0.000056
O77	O	1.039177	-0.227543	0.420776
H78	H	0.977846	-0.228964	0.386039
H79	H	0.510244	0.083212	-0.000080
O80	O	0.433001	-0.289418	-0.000033
H81	H	0.361567	-0.277714	-0.000051
H82	H	1.176345	-0.010707	0.195688
H83	H	0.680854	0.080714	-0.000047
H84	H	1.059081	0.693074	0.119734
H85	H	0.770967	-0.214180	-0.000019
H86	H	1.067601	0.246198	-0.119817
O87	O	1.039175	-0.227532	0.579215
H88	H	1.030682	-0.271510	0.539916
O89	O	1.067399	0.255739	0.137164
H90	H	1.005332	0.282608	0.140314
H91	H	1.059120	0.693115	-0.119806
H92	H	0.952829	-0.181456	0.665937
O93	O	1.061806	0.552100	-0.137251
H94	H	1.061112	0.589468	-0.183156
H95	H	0.967547	0.460094	-0.091797
H96	H	1.070088	0.114762	-0.119817
O97	O	0.956250	0.317695	-0.105160
H98	H	0.966183	0.262112	-0.096661
H99	H	1.070071	0.114715	0.119718
O100	O	1.089790	0.035376	0.579151
H101	H	1.087654	0.024754	0.638560
H102	H	0.952832	-0.181476	0.334018
O103	O	0.936544	-0.193890	0.814315
H104	H	0.893714	-0.226622	0.775015
H105	H	1.161665	0.347750	0.091702
O106	O	1.172944	0.490156	0.105068
H107	H	1.210385	0.456454	0.140226
H108	H	1.061587	0.561633	0.119724
H109	H	1.176353	-0.010687	0.804187
O110	O	1.192637	0.001737	0.655813
H111	H	1.235482	0.034459	0.695111
H112	H	1.086788	0.018648	0.430786
