data_functionalizedCrystal
_audit_creation_method	'MofGen! by Chris Wilmer'
_symmetry_space_group_name_H-M	'P1'
_symmetry_Int_Tables_number	1
_symmetry_cell_setting	triclinic
loop_
_symmetry_equiv_pos_as_xyz
  x,y,z
_cell_length_a	15.944545
_cell_length_b	15.944551
_cell_length_c	14.472310
_cell_angle_alpha	89.997979
_cell_angle_beta	89.989758
_cell_angle_gamma	83.497455
loop_
_atom_site_label
_atom_site_type_symbol
_atom_site_fract_x
_atom_site_fract_y
_atom_site_fract_z
O1	O	1.114538	0.108301	-0.076783
O2	O	0.869988	0.121663	-0.076798
O3	O	0.998941	-0.007293	-0.076782
O4	O	0.985585	0.237257	-0.076799
O5	O	0.998908	-0.007285	0.076900
O6	O	0.869955	0.121670	0.076884
O7	O	1.114505	0.108309	0.076899
Cu8	Cu	0.992227	0.114990	0.090924
Cu9	Cu	0.992266	0.114981	-0.090823
O10	O	0.985552	0.237265	0.076883
C11	C	0.838677	0.121113	0.000041
C12	C	0.745431	0.119453	0.000035
C13	C	0.474798	0.034559	0.000051
C14	C	0.525364	0.075492	0.075824
C15	C	0.409787	0.113532	0.000051
C16	C	0.525377	0.075505	-0.075695
C17	C	0.574701	0.116437	0.000042
C18	C	0.459124	0.154444	0.075887
C19	C	0.459134	0.154446	-0.075700
C20	C	0.509667	0.195436	0.000091
C21	C	0.314785	0.111856	0.000058
C22	C	0.669700	0.118119	0.000042
C23	C	0.998370	-0.038583	0.000059
C24	C	0.996708	-0.131829	0.000060
C25	C	0.912803	-0.346684	0.000042
C26	C	0.951750	-0.407698	0.075819
C27	C	0.993701	-0.302555	0.000052
C28	C	0.951801	-0.407689	-0.075700
C29	C	0.990790	-0.467468	0.000041
C30	C	1.032669	-0.362341	0.075892
C31	C	1.032710	-0.362326	-0.075695
C32	C	1.071715	-0.423322	0.000101
C33	C	0.995375	-0.207553	0.000059
C34	C	0.989122	-0.562469	0.000041
C35	C	1.145816	0.108859	0.000058
C36	C	1.239062	0.110519	0.000057
C37	C	0.986123	0.268555	0.000039
C38	C	0.987785	0.361801	0.000033
N39	N	0.992206	0.114996	0.218755
N40	N	0.992294	0.114969	-0.218654
C41	C	0.992265	0.114978	0.592846
C42	C	0.923033	0.183748	0.553671
C43	C	0.923193	0.183999	0.446583
C44	C	0.992235	0.114987	0.407255
C45	C	1.079879	0.134132	0.446096
C46	C	1.079490	0.134621	0.553217
C47	C	0.974635	0.026859	0.553380
C48	C	0.972625	0.027446	0.446252
C49	C	0.992223	0.114990	0.302367
C50	C	0.992283	0.114976	0.697734
H51	H	0.554281	0.042142	0.139888
H52	H	0.525158	0.263501	0.000131
N53	N	1.041507	-0.040935	0.586931
H54	H	1.083026	-0.014744	0.627496
H55	H	1.014009	-0.084306	0.623560
N56	N	0.937944	0.270694	0.412719
H57	H	0.994150	0.285205	0.436289
H58	H	0.938025	0.271270	0.342937
N59	N	0.836896	0.168897	0.411803
H60	H	0.793482	0.215070	0.435177
H61	H	0.836905	0.169014	0.342017
H62	H	0.917519	-0.427803	0.139878
N63	N	0.836456	0.168894	0.587825
H64	H	0.811078	0.219731	0.623971
H65	H	0.799081	0.159532	0.533317
H66	H	1.138922	-0.456483	0.000148
N67	N	0.454059	-0.055528	0.000145
H68	H	0.478284	-0.085259	0.057440
H69	H	0.390768	-0.055940	-0.000478
N70	N	0.937761	0.269889	0.589262
H71	H	0.989080	0.264559	0.630657
H72	H	0.947234	0.307963	0.535385
H73	H	0.845655	-0.313375	0.000113
H74	H	0.430301	0.187774	0.140015
H75	H	1.019775	-0.026128	0.419485
N76	N	0.420804	0.198587	-0.160558
H77	H	0.445022	0.168686	-0.217767
H78	H	0.357587	0.197611	-0.159516
N79	N	1.077941	-0.335869	0.160844
H80	H	1.078759	-0.272625	0.160339
H81	H	1.047577	-0.352810	0.217958
N82	N	0.563706	0.031312	-0.160543
H83	H	0.551310	-0.029420	-0.160468
H84	H	0.538663	0.060575	-0.217731
H85	H	1.066910	-0.342199	-0.139757
N86	N	1.100067	0.219744	0.586305
H87	H	1.109304	0.256597	0.531305
H88	H	1.051662	0.247352	0.624632
N89	N	1.149751	0.070772	0.587551
H90	H	1.180844	0.042439	0.533097
H91	H	1.190226	0.100270	0.626235
N92	N	0.906483	-0.434309	-0.160553
H93	H	0.846467	-0.406142	-0.160485
H94	H	0.936507	-0.417000	-0.217738
H95	H	1.132627	0.085376	0.420619
N96	N	1.100951	0.218286	0.410543
H97	H	1.056011	0.264263	0.431073
H98	H	1.157475	0.229965	0.435930
N99	N	0.891803	0.002487	0.589202
H100	H	0.844399	0.046341	0.569718
H101	H	0.881816	-0.054248	0.563011
N102	N	0.887197	0.008224	0.412694
H103	H	0.861303	0.056011	0.372388
H104	H	0.893888	-0.045887	0.375799
