data_functionalizedCrystal
_audit_creation_method	'MofGen! by Chris Wilmer'
_symmetry_space_group_name_H-M	'P1'
_symmetry_Int_Tables_number	1
_symmetry_cell_setting	triclinic
loop_
_symmetry_equiv_pos_as_xyz
  x,y,z
_cell_length_a	23.532355
_cell_length_b	27.732048
_cell_length_c	22.610064
_cell_angle_alpha	89.999096
_cell_angle_beta	89.997644
_cell_angle_gamma	82.735077
loop_
_atom_site_label
_atom_site_type_symbol
_atom_site_fract_x
_atom_site_fract_y
_atom_site_fract_z
O1	O	0.755158	0.058553	-0.049110
O2	O	0.589272	0.067069	-0.049130
O3	O	0.677367	-0.007579	-0.049108
O4	O	0.667063	0.133201	-0.049132
O5	O	0.677351	-0.007568	0.049261
O6	O	0.589256	0.067080	0.049239
O7	O	0.755142	0.058564	0.049259
Zn8	Zn	0.672197	0.062824	0.064867
Zn9	Zn	0.672217	0.062809	-0.064739
O10	O	0.667047	0.133211	0.049237
C11	C	0.568048	0.066862	0.000052
C12	C	0.504831	0.066222	0.000045
C13	C	0.112817	0.062206	0.053692
C14	C	0.053419	0.061597	0.053694
O15	O	0.022694	0.061271	0.099296
N16	N	0.023720	0.061289	0.000073
C17	C	0.053422	0.061585	-0.053554
O18	O	0.022706	0.061267	-0.099162
C19	C	0.112820	0.062191	-0.053555
C20	C	0.142515	0.062504	0.000069
C21	C	0.142513	0.062518	0.107311
C22	C	0.201906	0.063128	0.107309
C23	C	0.231605	0.063426	0.053686
C24	C	0.201909	0.063114	0.000066
C25	C	0.142522	0.062484	-0.107181
C26	C	0.201924	0.063089	-0.107179
C27	C	0.231619	0.063402	-0.053554
C28	C	0.291001	0.064021	-0.053559
N29	N	0.320701	0.064329	0.000062
C30	C	0.291002	0.064031	0.053685
C31	C	-0.071317	0.060313	-0.053546
C32	C	-0.130714	0.059711	-0.053545
C33	C	-0.130713	0.059722	0.053703
C34	C	-0.071315	0.060327	0.053701
C35	C	-0.041617	0.060621	0.000075
C36	C	0.415734	0.065312	0.053675
C37	C	0.475132	0.065924	0.053668
C38	C	0.475127	0.065911	-0.053580
C39	C	0.415733	0.065301	-0.053573
C40	C	0.386038	0.065001	0.000059
O41	O	0.321764	0.064346	-0.099138
O42	O	0.321726	0.064343	0.099285
C43	C	0.677143	-0.025580	0.000078
C44	C	0.676491	-0.079236	0.000083
C45	C	0.724449	-0.417985	0.000058
C46	C	0.722033	-0.619648	0.000049
O47	O	0.765887	-0.650843	0.000029
N48	N	0.669796	-0.638844	0.000044
C49	C	0.618160	-0.607621	0.000036
O50	O	0.573674	-0.628575	0.000025
C51	C	0.620577	-0.405959	0.000041
C52	C	0.672817	-0.386766	0.000052
C53	C	0.776685	-0.398792	0.000069
C54	C	0.777289	-0.348379	0.000074
C55	C	0.725657	-0.317160	0.000069
C56	C	0.673421	-0.336353	0.000058
C57	C	0.568942	-0.374736	0.000029
C58	C	0.569551	-0.324318	0.000029
C59	C	0.621791	-0.305125	0.000040
C60	C	0.622392	-0.254721	0.000057
N61	N	0.674629	-0.235525	0.000063
C62	C	0.726261	-0.266744	0.000069
C63	C	0.616895	-0.713496	0.000035
C64	C	0.616290	-0.763912	0.000035
C65	C	0.720163	-0.775936	0.000047
C66	C	0.720767	-0.725520	0.000051
C67	C	0.669131	-0.694301	0.000041
C68	C	0.727525	-0.160873	0.000080
C69	C	0.728124	-0.110456	0.000088
C70	C	0.624251	-0.098436	0.000073
C71	C	0.623652	-0.148849	0.000068
C72	C	0.675293	-0.180067	0.000070
O73	O	0.578561	-0.223497	0.000071
O74	O	0.770740	-0.245780	0.000067
C75	C	0.723846	-0.468398	0.000053
C76	C	0.671610	-0.487591	0.000042
C77	C	0.619978	-0.456372	0.000036
C78	C	0.671006	-0.538007	0.000042
C79	C	0.722638	-0.569226	0.000047
C80	C	0.774875	-0.550030	0.000053
C81	C	0.775478	-0.499617	0.000058
C82	C	0.567741	-0.475568	0.000030
C83	C	0.567142	-0.525981	0.000026
C84	C	0.618774	-0.557200	0.000031
C85	C	0.776366	0.058771	0.000075
C86	C	0.839583	0.059411	0.000078
C87	C	0.667271	0.151213	0.000050
C88	C	0.667923	0.204869	0.000041
N89	N	0.672187	0.062833	0.153320
N90	N	0.672232	0.062796	-0.153191
C91	C	0.711227	0.029760	0.561971
C92	C	0.711230	0.029757	0.623891
O93	O	0.744400	0.001644	0.655917
N94	N	0.672217	0.062799	0.654857
C95	C	0.633194	0.095844	0.623900
O96	O	0.600010	0.123949	0.655925
C97	C	0.633189	0.095845	0.561981
C98	C	0.672209	0.062803	0.531018
C99	C	0.750244	-0.003279	0.531008
C100	C	0.750241	-0.003275	0.469092
C101	C	0.711223	0.029769	0.438139
C102	C	0.672206	0.062808	0.469102
C103	C	0.594164	0.128887	0.531025
C104	C	0.594162	0.128885	0.469102
C105	C	0.633182	0.095843	0.438139
C106	C	0.633185	0.095855	0.376234
N107	N	0.672199	0.062813	0.345268
C108	C	0.711217	0.029769	0.376221
C109	C	0.633207	0.095839	0.753933
C110	C	0.633215	0.095841	0.815851
C111	C	0.711250	0.029753	0.815837
C112	C	0.711245	0.029754	0.753919
C113	C	0.672221	0.062797	0.722967
C114	C	0.711210	0.029781	0.246193
C115	C	0.711206	0.029790	0.184272
C116	C	0.633168	0.095876	0.184291
C117	C	0.633174	0.095869	0.246207
C118	C	0.672197	0.062818	0.277156
O119	O	0.600031	0.123952	0.344168
O120	O	0.744391	0.001665	0.344188
H121	H	-0.154888	0.059464	-0.097211
O122	O	0.507158	0.066262	0.111510
H123	H	0.553450	0.066741	0.102504
O124	O	0.830564	-0.583709	0.000064
H125	H	0.855595	-0.576916	-0.040024
O126	O	-0.039287	0.060639	-0.111389
H127	H	-0.069923	0.060328	-0.148670
O128	O	0.833636	-0.327685	0.000081
H129	H	0.825391	-0.287382	0.000086
H130	H	0.391552	0.065055	-0.097238
H131	H	0.769576	-0.186286	0.000079
O132	O	0.110428	0.062234	0.165121
H133	H	0.127148	0.029418	0.190891
H134	H	0.226080	0.063380	0.150975
O135	O	0.591115	0.131480	0.720549
H136	H	0.614873	0.154867	0.692330
O137	O	0.753337	-0.005885	0.849232
H138	H	0.780474	-0.028860	0.817303
H139	H	0.742982	0.002883	0.159064
O140	O	0.591143	0.131496	0.849237
H141	H	0.546798	0.125542	0.837359
H142	H	-0.047141	0.060583	0.097367
O143	O	0.507165	0.066221	-0.111415
H144	H	0.553457	0.066688	-0.102402
O145	O	0.753304	-0.005860	0.279571
H146	H	0.780436	-0.028826	0.247630
H147	H	0.525695	-0.450153	0.000024
O148	O	0.233959	0.063405	-0.165018
H149	H	0.217192	0.096236	-0.190737
O150	O	0.792339	-0.038915	0.564388
H151	H	0.819469	-0.061881	0.532445
H152	H	0.782013	-0.030181	0.443885
O153	O	0.552098	0.164542	0.564413
H154	H	0.524973	0.187518	0.532477
O155	O	0.753324	-0.005888	0.720523
H156	H	0.780452	-0.028865	0.752455
O157	O	0.784470	-0.089754	0.000092
H158	H	0.820270	-0.119936	0.000086
O159	O	0.832379	-0.432461	0.000083
H160	H	0.868797	-0.410636	0.000097
O161	O	0.383784	0.065162	0.111580
H162	H	0.351436	0.097898	0.114053
O163	O	0.831825	-0.478923	0.000059
H164	H	0.856611	-0.491490	0.040150
O165	O	0.510792	-0.546678	0.000019
H166	H	0.508039	-0.569359	-0.040076
H167	H	0.763306	-0.709897	0.000060
H168	H	0.762204	-0.801363	0.000052
H169	H	0.573751	-0.779534	0.000036
O170	O	-0.162766	0.059506	0.111542
H171	H	-0.209062	0.059066	0.102530
O172	O	0.552071	0.164522	0.435712
H173	H	0.558993	0.202174	0.447591
O174	O	0.568564	-0.064758	0.000070
H175	H	0.543549	-0.071549	-0.040026
O176	O	0.561199	-0.679826	0.000037
H177	H	0.524779	-0.701649	0.000041
O178	O	0.512597	-0.395430	0.000014
H179	H	0.476801	-0.365244	0.000003
H180	H	0.601406	0.122779	0.271417
O181	O	0.591076	0.131502	0.150892
H182	H	0.614831	0.154888	0.122669
O183	O	0.110505	0.062121	-0.165019
H184	H	0.141147	0.062415	-0.202301
H185	H	0.581114	-0.164477	0.000075
O186	O	0.513857	-0.290645	0.000024
H187	H	0.477434	-0.312465	0.000022
