data_functionalizedCrystal
_audit_creation_method	'MofGen! by Chris Wilmer'
_symmetry_space_group_name_H-M	'P1'
_symmetry_Int_Tables_number	1
_symmetry_cell_setting	triclinic
loop_
_symmetry_equiv_pos_as_xyz
  x,y,z
_cell_length_a	17.640112
_cell_length_b	25.639239
_cell_length_c	17.639252
_cell_angle_alpha	101.215172
_cell_angle_beta	87.852337
_cell_angle_gamma	101.263838
loop_
_atom_site_label
_atom_site_type_symbol
_atom_site_fract_x
_atom_site_fract_y
_atom_site_fract_z
Zn1	Zn	1.247731	-0.015067	0.195088
Zn2	Zn	1.221942	-0.122915	0.068101
Zn3	Zn	1.095070	-0.049057	0.093730
Zn4	Zn	1.120654	-0.116066	0.220690
O5	O	1.171349	-0.075776	0.144402
O6	O	1.350588	-0.018015	0.156803
O7	O	1.183613	-0.130208	-0.034776
O8	O	1.115406	0.028630	0.107187
O9	O	1.331642	-0.097250	0.063506
O10	O	1.227565	0.053602	0.181654
O11	O	1.090400	-0.075945	-0.015947
O12	O	0.992185	-0.069304	0.132012
O13	O	1.159011	-0.085577	0.323571
O14	O	1.010982	-0.118536	0.225288
O15	O	1.252373	-0.011374	0.304762
O16	O	1.208421	-0.195184	0.088331
O17	O	1.134005	-0.190153	0.200437
C18	C	0.974027	-0.096866	0.184210
C19	C	0.889615	-0.105897	0.201258
C20	C	0.563033	-0.007152	0.014899
C21	C	0.483717	-0.015648	0.030928
C22	C	0.503310	-0.067031	0.127889
C23	C	0.582630	-0.058538	0.111871
C24	C	0.612484	-0.028598	0.055374
C25	C	0.632082	-0.079984	0.152346
C26	C	0.711394	-0.071493	0.136326
C27	C	0.741254	-0.041556	0.079830
C28	C	0.691796	-0.020107	0.039354
C29	C	0.602225	-0.109926	0.208839
C30	C	0.651676	-0.131373	0.249314
C31	C	0.730991	-0.122879	0.233298
C32	C	0.760851	-0.092942	0.176802
C33	C	0.780448	-0.144328	0.273774
C34	C	0.859760	-0.135837	0.257754
C35	C	0.840163	-0.084451	0.160782
C36	C	1.171214	-0.211638	0.144393
C37	C	1.171231	-0.269749	0.144401
C38	C	1.210241	-0.632676	0.086086
C39	C	1.210273	-0.687276	0.086090
O40	O	1.243300	-0.717713	0.036497
N41	N	1.171493	-0.711993	0.144426
C42	C	1.132686	-0.682106	0.202765
O43	O	1.099704	-0.708143	0.252385
C44	C	1.132659	-0.627506	0.202763
C45	C	1.171435	-0.602794	0.144420
C46	C	1.249014	-0.607963	0.027748
C47	C	1.248982	-0.553368	0.027743
C48	C	1.210175	-0.523485	0.086076
C49	C	1.171402	-0.548198	0.144415
C50	C	1.093857	-0.597619	0.261105
C51	C	1.093834	-0.543016	0.261099
C52	C	1.132610	-0.518304	0.202755
C53	C	1.132563	-0.463720	0.202744
N54	N	1.171343	-0.439003	0.144408
C55	C	1.210149	-0.468886	0.086075
C56	C	1.132745	-0.796768	0.202765
C57	C	1.132767	-0.851368	0.202765
C58	C	1.210355	-0.856534	0.086090
C59	C	1.210329	-0.801934	0.086089
C60	C	1.171525	-0.772051	0.144430
C61	C	1.210077	-0.354231	0.086069
C62	C	1.210038	-0.299631	0.086067
C63	C	1.132453	-0.294469	0.202744
C64	C	1.132488	-0.349065	0.202743
C65	C	1.171306	-0.378945	0.144402
O66	O	1.099555	-0.433248	0.252313
O67	O	1.243134	-0.442840	0.036469
C68	C	1.369443	-0.054605	0.104440
C69	C	1.453858	-0.045583	0.087411
C70	C	1.211422	-0.043920	0.342493
C71	C	1.228499	-0.030345	0.426908
C72	C	1.171509	0.060621	0.144424
C73	C	1.171576	0.118746	0.144433
C74	C	1.041647	-0.178869	0.753496
C75	C	1.057709	-0.166104	0.832813
C76	C	1.154919	-0.088843	0.813218
C77	C	1.138862	-0.101599	0.733898
C78	C	1.082226	-0.146613	0.704044
C79	C	1.179442	-0.069343	0.684446
C80	C	1.163389	-0.082100	0.605133
C81	C	1.106757	-0.127113	0.575271
C82	C	1.066173	-0.159370	0.624730
C83	C	1.236082	-0.024332	0.714301
C84	C	1.276661	0.007924	0.664849
C85	C	1.260605	-0.004831	0.585535
C86	C	1.203973	-0.049844	0.555674
C87	C	1.301188	0.027426	0.536076
C88	C	1.285136	0.014669	0.456763
C89	C	1.187920	-0.062601	0.476360
C90	C	1.131423	-0.107522	0.947084
C91	C	1.114335	-0.121101	0.862671
H92	H	0.756127	-0.168709	0.319768
C93	C	1.363489	0.076937	0.568923
C94	C	1.434124	0.069415	0.611408
C95	C	1.496425	0.118926	0.644254
C96	C	1.488093	0.175960	0.634615
C97	C	1.417456	0.183485	0.592128
C98	C	1.355154	0.133973	0.559282
H99	H	1.440294	0.027193	0.618545
H100	H	1.548716	0.113356	0.675705
H101	H	1.534213	0.212612	0.658930
H102	H	1.411285	0.225707	0.584991
H103	H	1.302864	0.139544	0.527831
C104	C	1.089092	-0.141149	0.488027
C105	C	1.060760	-0.100006	0.448358
C106	C	1.043093	-0.114041	0.361115
C107	C	1.053758	-0.169219	0.313539
C108	C	1.082091	-0.210365	0.353207
C109	C	1.099758	-0.196330	0.440451
H110	H	1.052864	-0.059157	0.483577
H111	H	1.022118	-0.083582	0.331750
H112	H	1.040680	-0.179609	0.248956
H113	H	1.089987	-0.251214	0.317988
H114	H	1.120732	-0.226789	0.469815
H115	H	0.900025	-0.153300	0.290714
H116	H	1.062237	-0.518687	0.308610
C117	C	1.329768	0.050149	0.402358
C118	C	1.325842	0.110688	0.414514
C119	C	1.370477	0.146167	0.360107
C120	C	1.419039	0.121107	0.293544
C121	C	1.422968	0.060566	0.281385
C122	C	1.378332	0.025087	0.335792
H123	H	1.289891	0.129241	0.463790
H124	H	1.367569	0.190984	0.369108
H125	H	1.452081	0.147371	0.253268
H126	H	1.458918	0.042012	0.232108
H127	H	1.381240	-0.019730	0.326790
H128	H	0.805835	-0.034645	0.066786
H129	H	1.141782	-0.099245	0.452055
H130	H	1.280619	-0.632288	-0.019756
H131	H	0.627357	-0.155751	0.295312
H132	H	1.280559	-0.533250	-0.019764
H133	H	1.241904	-0.781817	0.038581
C134	C	1.051206	-0.624790	0.325291
C135	C	0.963605	-0.627573	0.336451
C136	C	0.920952	-0.654740	0.400643
C137	C	0.965902	-0.679124	0.453676
C138	C	1.053508	-0.676342	0.442517
C139	C	1.096160	-0.649175	0.378325
H140	H	0.930326	-0.609521	0.297192
H141	H	0.856100	-0.656800	0.408903
H142	H	0.934328	-0.699235	0.501194
H143	H	1.086787	-0.694393	0.481777
H144	H	1.161013	-0.647115	0.370065
C145	C	1.253051	-0.889409	0.021924
C146	C	1.208146	-0.940093	-0.031093
C147	C	1.250839	-0.972969	-0.095255
C148	C	1.338437	-0.955161	-0.106400
C149	C	1.383346	-0.904475	-0.053381
C150	C	1.340653	-0.871599	0.010781
H151	H	1.143296	-0.953277	-0.022845
H152	H	1.217593	-1.010490	-0.134503
H153	H	1.370040	-0.979498	-0.153896
H154	H	1.448196	-0.891290	-0.061629
H155	H	1.373899	-0.834077	0.050029
H156	H	0.587344	0.017237	-0.031095
H157	H	0.443456	0.001823	-0.002031
C158	C	0.470468	-0.099963	0.190035
C159	C	0.498866	-0.080728	0.274175
C160	C	0.466027	-0.113658	0.336324
C161	C	0.404791	-0.165823	0.314334
C162	C	0.376389	-0.185061	0.230190
C163	C	0.409228	-0.152131	0.168041
H164	H	0.544200	-0.042109	0.290457
H165	H	0.487052	-0.099417	0.398613
H166	H	0.380481	-0.190200	0.360340
H167	H	0.331055	-0.223679	0.213908
H168	H	0.388203	-0.166372	0.105752
C169	C	1.252696	-0.272448	0.021887
C170	C	1.229109	-0.294527	-0.063218
C171	C	1.271768	-0.267347	-0.127396
C172	C	1.338014	-0.218087	-0.106468
C173	C	1.361604	-0.196005	-0.021358
C174	C	1.318945	-0.223186	0.042819
H175	H	1.180068	-0.330995	-0.078714
H176	H	1.254305	-0.283693	-0.190399
H177	H	1.369592	-0.197966	-0.153975
H178	H	1.410646	-0.159537	-0.005863
H179	H	1.336409	-0.206839	0.105822
C180	C	1.252769	-0.387095	0.021890
C181	C	1.229161	-0.394149	-0.063212
C182	C	1.271847	-0.427014	-0.127393
C183	C	1.338142	-0.452824	-0.106472
C184	C	1.361754	-0.445771	-0.021366
C185	C	1.319068	-0.412906	0.042815
H186	H	1.180082	-0.375042	-0.078703
H187	H	1.254368	-0.432236	-0.190395
H188	H	1.369742	-0.477153	-0.153983
H189	H	1.410833	-0.464878	-0.005876
H190	H	1.336547	-0.407684	0.105817
C191	C	0.724653	0.012835	-0.022781
C192	C	0.715081	0.072127	-0.014220
C193	C	0.747942	0.105071	-0.076348
C194	C	0.790374	0.078722	-0.147038
C195	C	0.799948	0.019427	-0.155603
C196	C	0.767087	-0.013517	-0.093475
H197	H	0.683668	0.091635	0.038112
H198	H	0.740854	0.148965	-0.070007
H199	H	0.814700	0.103108	-0.193029
H200	H	0.831361	-0.000081	-0.207935
H201	H	0.774175	-0.057411	-0.099815
C202	C	1.090105	-0.878550	0.266939
C203	C	1.047422	-0.845672	0.331102
C204	C	1.004763	-0.872850	0.395281
C205	C	1.004789	-0.932906	0.395299
C206	C	1.047475	-0.965787	0.331134
C207	C	1.090133	-0.938609	0.266954
H208	H	1.047401	-0.801212	0.331091
H209	H	0.973165	-0.848509	0.442780
H210	H	0.973211	-0.953025	0.442808
H211	H	1.047495	-1.010247	0.331145
H212	H	1.121731	-0.962950	0.219455
H213	H	1.020036	-0.196014	0.600425
H214	H	1.101140	-0.772441	0.250273
C215	C	1.089832	-0.376256	0.266915
C216	C	1.002226	-0.379058	0.278067
C217	C	0.959578	-0.406243	0.342244
C218	C	1.004535	-0.430627	0.395270
C219	C	1.092146	-0.427827	0.384120
C220	C	1.134794	-0.400641	0.319943
H221	H	0.968942	-0.361006	0.238813
H222	H	0.894722	-0.408316	0.350498
H223	H	0.972964	-0.450752	0.442778
H224	H	1.125430	-0.445878	0.423374
H225	H	1.199650	-0.398568	0.311689
H226	H	1.100855	-0.270131	0.250237
H227	H	0.995509	-0.215513	0.729191
C228	C	1.013065	-0.201588	0.887213
C229	C	1.030719	-0.187559	0.974455
C230	C	0.986078	-0.223042	1.028854
C231	C	0.923783	-0.272554	0.996011
C232	C	0.906125	-0.286585	0.908765
C233	C	0.950766	-0.251102	0.854365
H234	H	1.076837	-0.150905	0.998772
H235	H	0.999150	-0.212655	1.093440
H236	H	0.890737	-0.298820	1.036281
H237	H	0.860007	-0.323239	0.884448
H238	H	0.937694	-0.261489	0.789779
C239	C	1.338957	0.057438	0.697695
C240	C	1.409594	0.049924	0.740184
C241	C	1.471888	0.099441	0.773030
C242	C	1.463546	0.156471	0.763386
C243	C	1.392906	0.163988	0.720895
C244	C	1.330612	0.114472	0.688049
H245	H	1.415772	0.007704	0.747325
H246	H	1.524181	0.093876	0.804484
H247	H	1.509660	0.193126	0.787699
H248	H	1.386728	0.206208	0.713754
H249	H	1.278320	0.120036	0.656595
H250	H	0.864474	-0.060062	0.114788
H251	H	1.201035	-0.052194	0.837537
H252	H	0.537643	-0.116839	0.221880
H253	H	1.249152	-0.013948	0.778884
