data_functionalizedCrystal
_audit_creation_method	'MofGen! by Chris Wilmer'
_symmetry_space_group_name_H-M	'P1'
_symmetry_Int_Tables_number	1
_symmetry_cell_setting	triclinic
loop_
_symmetry_equiv_pos_as_xyz
  x,y,z
_cell_length_a	17.038272
_cell_length_b	10.908937
_cell_length_c	9.482900
_cell_angle_alpha	83.014435
_cell_angle_beta	99.998116
_cell_angle_gamma	75.598756
loop_
_atom_site_label
_atom_site_type_symbol
_atom_site_fract_x
_atom_site_fract_y
_atom_site_fract_z
O1	O	-0.104434	1.672356	0.120936
O2	O	-0.044237	1.305072	0.120931
O3	O	-0.187868	1.486533	0.120922
O4	O	0.039198	1.490895	0.120945
O5	O	-0.217105	1.523458	-0.120873
O6	O	-0.073474	1.341997	-0.120864
O7	O	-0.133671	1.709281	-0.120859
Cu8	Cu	-0.106242	1.529011	-0.142939
Cu9	Cu	-0.071666	1.485343	0.143011
O10	O	0.009961	1.527820	-0.120850
C11	C	-0.053229	1.276308	0.000033
C12	C	-0.036476	1.135588	0.000031
C13	C	-0.231100	1.501025	0.000025
C14	C	-0.316354	1.489178	0.000025
C15	C	-0.080297	0.934455	0.000052
C16	C	-0.097617	1.079901	0.000032
C17	C	-0.380592	1.597945	0.000025
C18	C	-0.460695	1.586804	0.000038
C19	C	-0.476559	1.466897	0.000042
C20	C	-0.412313	1.358121	0.000046
C21	C	-0.332211	1.369262	0.000043
C22	C	-0.717204	1.427538	0.000061
C23	C	-0.797314	1.416407	0.000060
C24	C	-0.845690	1.645090	0.000055
C25	C	-0.765585	1.656222	0.000043
C26	C	-0.701345	1.547445	0.000055
C27	C	-0.558436	1.455507	0.000051
C28	C	-0.619468	1.558834	0.000056
C29	C	0.053193	1.513328	0.000051
C30	C	0.138448	1.525173	0.000060
C31	C	-0.124677	1.738045	0.000042
C32	C	-0.141430	1.878764	0.000054
N33	N	-0.130562	1.559734	-0.344061
N34	N	-0.047352	1.454629	0.344133
C35	C	-0.099066	1.519959	0.416329
C36	C	-0.078841	1.494394	0.583747
H37	H	-0.015137	0.874455	0.000074
H38	H	-0.571362	1.357878	0.000051
H39	H	-0.019588	1.419537	0.645876
H40	H	0.028689	1.075594	0.000047
Cl41	Cl	-0.198225	1.172518	0.000024
Cl42	Cl	-0.242034	0.971385	0.000045
Cl43	Cl	0.044126	1.339058	0.440052
Cl44	Cl	-0.190539	1.635545	0.320413
H45	H	-0.189811	1.634601	0.593811
Cl46	Cl	-0.599522	1.709568	0.000060
H47	H	-0.279906	1.280692	0.000043
H48	H	-0.367685	1.695588	0.000013
H49	H	-0.512996	1.675375	0.000035
H50	H	-0.752677	1.753863	0.000040
H51	H	-0.898001	1.733649	0.000048
Cl52	Cl	-0.636455	1.290788	0.000080
Cl53	Cl	-0.817255	1.265656	0.000056
H54	H	-0.425234	1.260488	0.000058
