data_functionalizedCrystal
_audit_creation_method	'MofGen! by Chris Wilmer'
_symmetry_space_group_name_H-M	'P1'
_symmetry_Int_Tables_number	1
_symmetry_cell_setting	triclinic
loop_
_symmetry_equiv_pos_as_xyz
  x,y,z
_cell_length_a	19.288857
_cell_length_b	15.537862
_cell_length_c	18.366186
_cell_angle_alpha	89.991974
_cell_angle_beta	89.991598
_cell_angle_gamma	65.198771
loop_
_atom_site_label
_atom_site_type_symbol
_atom_site_fract_x
_atom_site_fract_y
_atom_site_fract_z
O1	O	-0.225912	1.250950	-0.060500
O2	O	-0.145607	0.976333	-0.060514
O3	O	-0.288874	1.121580	-0.060498
O4	O	-0.082645	1.105703	-0.060516
O5	O	-0.288873	1.121556	0.060602
O6	O	-0.145607	0.976308	0.060586
O7	O	-0.225911	1.250925	0.060599
Zn8	Zn	-0.185758	1.113613	0.079820
Zn9	Zn	-0.185760	1.113645	-0.079734
O10	O	-0.082644	1.105678	0.060583
C11	C	-0.137205	0.941187	0.000034
C12	C	-0.112177	0.836501	0.000030
C13	C	-0.010729	0.677438	0.000018
C14	C	-0.034254	0.775808	0.000022
C15	C	-0.166606	0.798841	0.000037
C16	C	-0.143092	0.700471	0.000036
C17	C	-0.065152	0.639777	0.000026
C18	C	-0.197515	0.662809	0.000045
C19	C	-0.174003	0.564448	0.000040
C20	C	-0.096067	0.503748	0.000027
C21	C	-0.041640	0.541415	0.000021
C22	C	-0.275455	0.723505	0.000050
C23	C	-0.329878	0.685843	0.000058
C24	C	-0.306366	0.587480	0.000059
C25	C	-0.228430	0.526780	0.000046
C26	C	-0.360793	0.549813	0.000065
C27	C	-0.337281	0.451451	0.000060
C28	C	-0.204918	0.428419	0.000042
C29	C	-0.314623	1.121058	0.000053
C30	C	-0.391344	1.119528	0.000055
C31	C	-0.427377	1.118828	-0.065957
C32	C	-0.499460	1.117377	-0.065962
C33	C	-0.535515	1.116645	0.000047
C34	C	-0.499472	1.117341	0.066068
C35	C	-0.427386	1.118782	0.066071
C36	C	-0.668977	1.169589	0.050618
C37	C	-0.741063	1.168153	0.050611
C38	C	-0.757849	1.112195	0.000039
C39	C	-0.702544	1.057685	-0.050539
C40	C	-0.630458	1.059126	-0.050535
C41	C	-0.613679	1.115082	0.000051
C42	C	-0.872042	1.109920	-0.065983
C43	C	-0.944125	1.108463	-0.065986
C44	C	-0.944138	1.108436	0.066046
C45	C	-0.872053	1.109884	0.066047
C46	C	-0.836011	1.110630	0.000030
C47	C	-0.056896	1.106200	0.000031
C48	C	0.019826	1.107730	0.000025
C49	C	-0.234313	1.286071	0.000050
C50	C	-0.259341	1.390757	0.000050
N51	N	-0.185760	1.113598	0.188711
N52	N	-0.185766	1.113668	-0.188625
C53	C	-0.249180	1.177934	0.226818
C54	C	-0.249185	1.177940	0.303046
C55	C	-0.185759	1.113619	0.341164
C56	C	-0.122332	1.049270	0.303047
C57	C	-0.122333	1.049260	0.226821
C58	C	-0.119316	1.100992	0.461918
C59	C	-0.119317	1.101009	0.538143
C60	C	-0.185757	1.113645	0.576271
C61	C	-0.252205	1.126285	0.538165
C62	C	-0.252205	1.126275	0.461939
C63	C	-0.185752	1.113622	0.423818
C64	C	-0.249187	1.177992	0.697033
C65	C	-0.249191	1.177991	0.773263
C66	C	-0.122334	1.049326	0.773262
C67	C	-0.122335	1.049322	0.697034
C68	C	-0.185762	1.113660	0.658925
H69	H	0.021826	0.491994	0.000023
H70	H	-0.842693	1.110522	-0.119737
Br71	Br	-0.725312	0.981733	-0.119176
Br72	Br	-0.823147	1.110830	0.155639
Br73	Br	-0.036256	0.961938	0.175099
Br74	Br	-0.342377	1.143418	0.410225
H75	H	-0.141452	0.378998	0.000043
Br76	Br	0.095048	0.595058	0.000022
Br77	Br	-0.435650	0.768221	0.000071
H78	H	-0.655318	1.215156	0.091805
H79	H	-0.398035	1.119432	-0.119713
Br80	Br	0.039616	0.826917	0.000008
Br81	Br	-0.272377	0.881218	0.000050
H82	H	-0.424251	0.599244	0.000066
Br83	Br	-0.036260	0.962021	0.824987
H84	H	-0.300827	1.230320	0.195792
H85	H	-0.585431	1.014740	-0.091716
Br86	Br	-0.816114	1.242137	0.119247
H87	H	-0.294596	0.803596	0.000040
H88	H	-0.070690	0.996937	0.666005
H89	H	-0.065205	1.090685	0.430880
H90	H	-0.065213	1.090723	0.569163
Br91	Br	-0.548397	1.116336	0.155653
H92	H	-0.306307	1.136575	0.569207
H93	H	-0.300835	1.230377	0.666003
Br94	Br	-0.993025	1.107501	-0.155581
H95	H	-0.300839	1.230379	0.804290
Br96	Br	-0.036257	0.961969	0.354775
H97	H	-0.381598	0.420787	0.000066
H98	H	-0.528802	1.116800	-0.119718
H99	H	-0.398047	1.119349	0.119827
H100	H	-0.973491	1.107834	0.119792
Br101	Br	-0.064154	0.370255	0.000016
H102	H	-0.300831	1.230332	0.334079
