data_functionalizedCrystal
_audit_creation_method	'MofGen! by Chris Wilmer'
_symmetry_space_group_name_H-M	'P1'
_symmetry_Int_Tables_number	1
_symmetry_cell_setting	triclinic
loop_
_symmetry_equiv_pos_as_xyz
  x,y,z
_cell_length_a	15.711784
_cell_length_b	22.610064
_cell_length_c	15.625325
_cell_angle_alpha	71.913689
_cell_angle_beta	101.033193
_cell_angle_gamma	90.011361
loop_
_atom_site_label
_atom_site_type_symbol
_atom_site_fract_x
_atom_site_fract_y
_atom_site_fract_z
O1	O	1.147526	-0.056891	0.494655
O2	O	0.895782	-0.042165	0.425979
O3	O	1.028381	-0.021856	0.331295
O4	O	1.014927	-0.077199	0.589340
O5	O	1.028358	-0.120228	0.331307
O6	O	0.895758	-0.140536	0.425992
O7	O	1.147503	-0.155262	0.494668
Zn8	Zn	1.021627	-0.163518	0.460332
Zn9	Zn	1.021658	-0.033909	0.460315
O10	O	1.014903	-0.175571	0.589353
C11	C	0.863552	-0.088945	0.414767
C12	C	0.767555	-0.081774	0.381328
N13	N	1.021612	-0.251973	0.460344
C14	C	0.642458	-0.054776	0.255441
C15	C	0.732661	-0.061516	0.286871
C16	C	0.712251	-0.095297	0.444391
C17	C	0.622044	-0.088557	0.412974
C18	C	0.587155	-0.068297	0.318498
C19	C	0.566741	-0.102077	0.476031
C20	C	0.476542	-0.095341	0.444616
C21	C	0.441646	-0.075083	0.350144
C22	C	0.496956	-0.061560	0.287083
C23	C	0.601631	-0.122341	0.570507
C24	C	0.546328	-0.135862	0.633564
C25	C	0.456127	-0.129121	0.602149
C26	C	0.421232	-0.108864	0.507677
C27	C	0.400817	-0.142644	0.665210
C28	C	0.310618	-0.135908	0.633795
C29	C	0.331033	-0.102127	0.476262
C30	C	1.080375	-0.651618	0.418399
C31	C	1.080380	-0.713537	0.418394
O32	O	1.130306	-0.737907	0.382732
N33	N	1.021657	-0.753500	0.460296
C34	C	0.962920	-0.731540	0.502198
O35	O	0.912971	-0.771217	0.537838
C36	C	0.962912	-0.669621	0.502197
C37	C	1.021645	-0.629662	0.460300
C38	C	1.139102	-0.611660	0.376505
C39	C	1.139099	-0.549746	0.376512
C40	C	1.080368	-0.527790	0.418413
C41	C	1.021641	-0.567748	0.460307
C42	C	0.904172	-0.647661	0.544093
C43	C	0.904168	-0.585737	0.544088
C44	C	0.962901	-0.545778	0.502191
C45	C	0.962907	-0.483878	0.502215
N46	N	1.021630	-0.443915	0.460313
C47	C	1.080360	-0.465871	0.418412
C48	C	0.962940	-0.861573	0.502196
C49	C	0.962951	-0.923492	0.502203
C50	C	1.080410	-0.905485	0.418397
C51	C	1.080402	-0.843566	0.418396
C52	C	1.021663	-0.821610	0.460294
C53	C	1.080349	-0.335847	0.418430
C54	C	1.080343	-0.273929	0.418443
C55	C	0.962881	-0.291941	0.502245
C56	C	0.962890	-0.353855	0.502235
C57	C	1.021627	-0.375805	0.460321
O58	O	0.913004	-0.459464	0.537856
O59	O	1.130293	-0.426185	0.382767
C60	C	1.179732	-0.108481	0.505880
C61	C	1.275730	-0.115648	0.539319
C62	C	1.027761	-0.063794	0.297511
C63	C	1.025936	-0.042197	0.196826
N64	N	1.021679	0.054547	0.460298
C65	C	1.019898	-0.239288	-0.134271
C66	C	1.018188	-0.218984	-0.228879
C67	C	1.018213	-0.111745	-0.228883
C68	C	1.019919	-0.132040	-0.134273
C69	C	1.020762	-0.195812	-0.086975
C70	C	1.020784	-0.088564	-0.086977
C71	C	1.022494	-0.108857	0.007625
C72	C	1.023340	-0.172627	0.054930
C73	C	1.022473	-0.216105	0.007627
C74	C	1.019947	-0.024792	-0.134276
C75	C	1.020812	0.018684	-0.086980
C76	C	1.022516	-0.001609	0.007622
C77	C	1.023362	-0.065379	0.054928
C78	C	1.023383	0.041869	0.054926
C79	C	1.025093	0.021575	0.149528
C80	C	1.025072	-0.085673	0.149530
C81	C	1.015524	-0.133632	0.623136
C82	C	1.017348	-0.155225	0.723821
H83	H	0.302625	-0.085623	0.399331
H84	H	0.856346	-0.680188	0.578209
H85	H	0.265589	-0.146920	0.685143
C86	C	1.025996	-0.155825	0.201563
N87	N	1.026694	-0.208662	0.240755
H88	H	0.915066	-0.274056	0.536364
C89	C	0.439208	-0.164935	0.769131
N90	N	0.468124	-0.181725	0.847406
H91	H	0.740670	-0.111795	0.521314
C92	C	0.898347	-0.967443	0.548302
N93	N	0.849680	-1.000543	0.583019
C94	C	1.023396	-0.286258	0.059660
N95	N	1.024095	-0.339095	0.098852
C96	C	1.144953	-0.229976	0.372347
N97	N	1.193614	-0.196872	0.337626
H98	H	1.024736	-0.189149	0.131962
C99	C	1.020822	-0.309441	-0.082238
N100	N	1.021520	-0.362277	-0.043046
C101	C	0.700854	-0.129749	0.605062
N102	N	0.775589	-0.135327	0.631087
C103	C	1.145006	-0.799614	0.372299
N104	N	1.193667	-0.766512	0.337573
H105	H	1.022705	0.093792	0.016403
H106	H	1.017481	-0.254392	-0.267385
C107	C	0.604076	-0.032483	0.151512
N108	N	0.575166	-0.015693	0.073237
C109	C	1.017283	-0.041597	-0.280922
N110	N	1.016578	0.011240	-0.320119
C111	C	1.019881	0.088832	-0.139020
N112	N	1.019176	0.141668	-0.178216
H113	H	1.128177	-0.353711	0.384298
C114	C	1.026040	0.069401	0.201556
N115	N	1.026754	0.105425	0.240743
C116	C	0.793493	-0.046637	0.217495
N117	N	0.839312	-0.035430	0.165242
H118	H	1.186928	-0.629529	0.342380
C119	C	0.342424	-0.067672	0.315587
N120	N	0.267689	-0.062088	0.289559
H121	H	1.018557	-0.008271	-0.211307
H122	H	0.574747	-0.152360	0.710487
C123	C	1.145010	-0.929646	0.372297
N124	N	1.193662	-0.947846	0.337575
H125	H	0.468548	-0.045056	0.210152
H126	H	1.186921	-0.517213	0.342392
H127	H	0.915109	-0.843703	0.536322
H128	H	0.856333	-0.567864	0.578204
C129	C	0.898287	-0.397813	0.548331
N130	N	0.849621	-0.430916	0.583043
