data_functionalizedCrystal
_audit_creation_method	'MofGen! by Chris Wilmer'
_symmetry_space_group_name_H-M	'P1'
_symmetry_Int_Tables_number	1
_symmetry_cell_setting	triclinic
loop_
_symmetry_equiv_pos_as_xyz
  x,y,z
_cell_length_a	18.050591
_cell_length_b	18.050589
_cell_length_c	12.759393
_cell_angle_alpha	90.029546
_cell_angle_beta	90.018377
_cell_angle_gamma	90.027061
loop_
_atom_site_label
_atom_site_type_symbol
_atom_site_fract_x
_atom_site_fract_y
_atom_site_fract_z
Zn1	Zn	1.135350	-0.295647	0.593955
Zn2	Zn	1.135244	-0.419854	0.418278
Zn3	Zn	1.011152	-0.295680	0.418298
Zn4	Zn	1.011117	-0.419797	0.593923
O5	O	1.073216	-0.357744	0.506114
O6	O	1.239260	-0.312133	0.570656
O7	O	1.118753	-0.403421	0.271260
O8	O	1.027686	-0.191751	0.441621
O9	O	1.239182	-0.403388	0.441587
O10	O	1.118934	-0.191726	0.570676
O11	O	1.027583	-0.312190	0.271274
O12	O	0.907223	-0.312134	0.441590
O13	O	1.027627	-0.403290	0.740949
O14	O	0.907197	-0.403322	0.570621
O15	O	1.118900	-0.312077	0.740972
O16	O	1.118719	-0.523771	0.441556
O17	O	1.027524	-0.523729	0.570602
C18	C	0.880264	-0.357726	0.506105
C19	C	0.797718	-0.357736	0.506126
C20	C	1.073126	-0.550697	0.506096
C21	C	1.073156	-0.633242	0.506124
C22	C	0.548900	-0.407427	0.576198
C23	C	0.598260	-0.425511	0.480304
C24	C	0.500597	-0.357760	0.506124
C25	C	0.598318	-0.339699	0.602014
C26	C	0.646582	-0.357750	0.506130
C27	C	0.548871	-0.375879	0.410179
C28	C	0.548924	-0.290035	0.531954
C29	C	0.598263	-0.308094	0.435994
C30	C	0.416499	-0.357767	0.506122
C31	C	0.730679	-0.357743	0.506122
C32	C	1.023612	-0.832697	0.576274
C33	C	1.005505	-0.882144	0.480407
C34	C	1.073229	-0.784373	0.506138
C35	C	1.091372	-0.882007	0.602016
C36	C	1.073298	-0.930358	0.506159
C37	C	1.055086	-0.832733	0.410219
C38	C	1.140984	-0.832592	0.531894
C39	C	1.122903	-0.882016	0.435960
C40	C	1.073187	-0.700274	0.506127
C41	C	1.073339	-1.014454	0.506160
C42	C	1.266921	-0.357763	0.506123
C43	C	1.349467	-0.357771	0.506127
C44	C	1.073271	-0.357673	0.780147
C45	C	1.073295	-0.357643	0.896924
C46	C	1.073326	-0.164039	0.506154
C47	C	1.073373	-0.081493	0.506171
C48	C	1.073203	-0.357762	0.233146
C49	C	1.073323	-0.357583	0.116370
C50	C	1.120824	-0.310141	0.951800
C51	C	1.120837	-0.310109	1.061524
C52	C	1.025789	-0.405087	1.061487
C53	C	1.025773	-0.405115	0.951765
C54	C	1.147445	-0.222489	1.211498
C55	C	1.194986	-0.174994	1.266378
C56	C	1.267451	-0.163609	1.230782
C57	C	1.292391	-0.199731	1.140308
C58	C	1.244854	-0.247231	1.085434
C59	C	1.172378	-0.258602	1.121028
C60	C	0.999173	-0.492736	0.801788
C61	C	0.951639	-0.540241	0.746912
C62	C	0.879172	-0.551633	0.782506
C63	C	0.854235	-0.515525	0.872984
C64	C	0.901769	-0.468019	0.927860
C65	C	0.974235	-0.456626	0.892258
H66	H	0.619932	-0.482781	0.458451
H67	H	0.948239	-0.903926	0.458642
H68	H	0.620038	-0.324427	0.683104
H69	H	1.058180	-0.483458	0.772793
H70	H	1.039701	-0.811177	0.329122
H71	H	0.840473	-0.590323	0.737821
C72	C	1.179623	-0.911095	0.355760
H73	H	1.166637	-0.894133	0.287721
H74	H	1.227585	-0.893379	0.373467
H75	H	1.179624	-0.963721	0.356601
H76	H	1.198238	-0.810812	0.553704
C77	C	1.112070	-0.911246	0.711538
H78	H	1.076744	-0.894350	0.761272
H79	H	1.112392	-0.963868	0.710610
H80	H	1.159840	-0.893544	0.730306
H81	H	0.527225	-0.449465	0.635380
H82	H	1.159518	-0.271484	0.907152
H83	H	0.619800	-0.266088	0.376669
C84	C	0.519659	-0.396616	0.300608
H85	H	0.467030	-0.396522	0.301286
H86	H	0.536952	-0.361559	0.250785
H87	H	0.536964	-0.444577	0.282168
C88	C	0.966855	-0.803436	0.656290
H89	H	0.991608	-0.774432	0.707660
H90	H	0.931113	-0.773802	0.621274
H91	H	0.942836	-0.844027	0.689313
H92	H	1.265160	-0.276644	1.011774
C93	C	1.372106	-0.187209	1.101159
H94	H	1.396844	-0.153741	1.146792
H95	H	1.397822	-0.233106	1.100101
H96	H	1.370831	-0.167037	1.032428
C97	C	0.519615	-0.212696	0.561513
H98	H	0.536515	-0.199940	0.629700
H99	H	0.537250	-0.177285	0.512436
H100	H	0.466990	-0.213158	0.560667
H101	H	1.306160	-0.124936	1.275472
C102	C	1.167552	-0.135256	1.365887
H103	H	1.117578	-0.148827	1.379219
H104	H	1.197558	-0.149246	1.423754
H105	H	1.170585	-0.083177	1.356067
H106	H	1.088435	-0.231748	1.240484
H107	H	0.971952	-0.569649	0.673247
C108	C	0.973525	-0.457309	1.121815
H109	H	0.980346	-0.450495	1.195021
H110	H	0.923630	-0.446441	1.103830
H111	H	0.984369	-0.507215	1.103820
C112	C	0.874342	-0.428295	1.027382
H113	H	0.913032	-0.398376	1.054968
H114	H	0.833045	-0.397969	1.010459
H115	H	0.860042	-0.464039	1.078126
C116	C	0.774522	-0.528053	0.912142
H117	H	0.749782	-0.561510	0.866497
H118	H	0.775796	-0.548223	0.980868
H119	H	0.748804	-0.482152	0.913199
