data_functionalizedCrystal
_audit_creation_method	'MofGen! by Chris Wilmer'
_symmetry_space_group_name_H-M	'P1'
_symmetry_Int_Tables_number	1
_symmetry_cell_setting	triclinic
loop_
_symmetry_equiv_pos_as_xyz
  x,y,z
_cell_length_a	14.519731
_cell_length_b	14.519709
_cell_length_c	12.996460
_cell_angle_alpha	89.999966
_cell_angle_beta	89.992872
_cell_angle_gamma	96.315501
loop_
_atom_site_label
_atom_site_type_symbol
_atom_site_fract_x
_atom_site_fract_y
_atom_site_fract_z
O1	O	0.120892	-1.223878	-0.085435
O2	O	0.370892	-0.973878	0.164565
O3	O	0.620892	-0.723878	0.414565
O4	O	0.870892	-0.473878	0.664565
O5	O	0.135128	-0.955402	-0.085467
O6	O	0.385128	-0.705402	0.164533
O7	O	0.635128	-0.455402	0.414533
O8	O	0.885128	-0.205402	0.664533
O9	O	-0.006227	-1.096748	-0.085441
O10	O	0.243773	-0.846748	0.164559
O11	O	0.493773	-0.596748	0.414559
O12	O	0.743773	-0.346748	0.664559
O13	O	0.262247	-1.082532	-0.085461
O14	O	0.512247	-0.832532	0.164539
O15	O	0.762247	-0.582532	0.414539
O16	O	1.012247	-0.332532	0.664539
O17	O	-0.006235	-1.096733	0.085693
O18	O	0.243765	-0.846733	0.335693
O19	O	0.493765	-0.596733	0.585693
O20	O	0.743765	-0.346733	0.835693
O21	O	0.135120	-0.955387	0.085667
O22	O	0.385120	-0.705387	0.335667
O23	O	0.635120	-0.455387	0.585667
O24	O	0.885120	-0.205387	0.835667
O25	O	0.120884	-1.223863	0.085699
O26	O	0.370884	-0.973863	0.335699
O27	O	0.620884	-0.723863	0.585699
O28	O	0.870884	-0.473863	0.835699
Cu29	Cu	0.128001	-1.089624	0.101309
Cu30	Cu	0.378001	-0.839624	0.351309
Cu31	Cu	0.628001	-0.589624	0.601309
Cu32	Cu	0.878001	-0.339624	0.851309
Cu33	Cu	0.128011	-1.089641	-0.101077
Cu34	Cu	0.378011	-0.839641	0.148923
Cu35	Cu	0.628011	-0.589641	0.398923
Cu36	Cu	0.878011	-0.339641	0.648923
O37	O	0.262239	-1.082517	0.085673
O38	O	0.512239	-0.832517	0.335673
O39	O	0.762239	-0.582517	0.585673
O40	O	1.012239	-0.332517	0.835673
C41	C	-0.040591	-1.096075	0.000126
C42	C	0.209409	-0.846075	0.250126
C43	C	0.459409	-0.596075	0.500126
C44	C	0.709409	-0.346075	0.750126
C45	C	-0.142971	-1.094079	0.000127
C46	C	0.107029	-0.844079	0.250127
C47	C	0.357029	-0.594079	0.500127
C48	C	0.607029	-0.344079	0.750127
C49	C	0.134461	-0.921035	0.000096
C50	C	0.384461	-0.671035	0.250096
C51	C	0.634461	-0.421035	0.500096
C52	C	0.884461	-0.171035	0.750096
C53	C	0.132473	-0.818654	0.000084
C54	C	0.382473	-0.568654	0.250084
C55	C	0.632473	-0.318654	0.500084
C56	C	0.882473	-0.068654	0.750084
N57	N	0.127994	-1.089618	0.243656
N58	N	0.377994	-0.839618	0.493656
N59	N	0.627994	-0.589618	0.743656
N60	N	0.877994	-0.339618	0.993656
C61	C	-0.226115	-1.092457	0.000124
C62	C	0.023885	-0.842457	0.250124
C63	C	0.273885	-0.592457	0.500124
C64	C	0.523885	-0.342457	0.750124
C65	C	-0.330424	-1.090430	0.000116
C66	C	-0.080424	-0.840430	0.250116
C67	C	0.169576	-0.590430	0.500116
C68	C	0.419576	-0.340430	0.750116
C69	C	-0.413563	-1.088822	0.000109
C70	C	-0.163563	-0.838822	0.250109
C71	C	0.086437	-0.588822	0.500109
C72	C	0.336437	-0.338822	0.750109
C73	C	-0.517878	-1.086795	0.000103
C74	C	-0.267878	-0.836795	0.250103
C75	C	-0.017878	-0.586795	0.500103
C76	C	0.232122	-0.336795	0.750103
C77	C	0.296603	-1.083191	0.000103
C78	C	0.546603	-0.833191	0.250103
C79	C	0.796603	-0.583191	0.500103
C80	C	1.046603	-0.333191	0.750103
C81	C	0.398983	-1.085187	0.000096
C82	C	0.648983	-0.835187	0.250096
C83	C	0.898983	-0.585187	0.500096
C84	C	1.148983	-0.335187	0.750096
C85	C	0.121551	-1.258230	0.000133
C86	C	0.371551	-1.008230	0.250133
C87	C	0.621551	-0.758230	0.500133
C88	C	0.871551	-0.508230	0.750133
C89	C	0.123539	-1.360612	0.000138
C90	C	0.373539	-1.110612	0.250138
C91	C	0.623539	-0.860612	0.500138
C92	C	0.873539	-0.610612	0.750138
C93	C	0.125153	-0.443757	0.000132
C94	C	0.375153	-0.193757	0.250132
C95	C	0.625153	0.056243	0.500132
C96	C	0.875153	0.306243	0.750132
C97	C	0.127186	-0.548065	0.000118
C98	C	0.377186	-0.298065	0.250118
C99	C	0.627186	-0.048065	0.500118
C100	C	0.877186	0.201935	0.750118
C101	C	0.128813	-0.631202	0.000107
C102	C	0.378813	-0.381202	0.250107
C103	C	0.628813	-0.131202	0.500107
C104	C	0.878813	0.118798	0.750107
C105	C	0.130846	-0.735517	0.000095
C106	C	0.380846	-0.485517	0.250095
C107	C	0.630846	-0.235517	0.500095
C108	C	0.880846	0.014483	0.750095
N109	N	0.128010	-1.089654	-0.243424
N110	N	0.378010	-0.839654	0.006576
N111	N	0.628010	-0.589654	0.256576
N112	N	0.878010	-0.339654	0.506576
C113	C	0.128012	-1.089640	0.663470
C114	C	0.378012	-0.839640	0.913470
C115	C	0.628012	-0.589640	1.163470
C116	C	0.878012	-0.339640	1.413470
C117	C	0.128010	-1.089631	0.546665
C118	C	0.378010	-0.839631	0.796665
C119	C	0.628010	-0.589631	1.046665
C120	C	0.878010	-0.339631	1.296665
C121	C	0.128004	-1.089630	0.453567
C122	C	0.378004	-0.839630	0.703567
C123	C	0.628004	-0.589630	0.953567
C124	C	0.878004	-0.339630	1.203567
C125	C	0.128001	-1.089620	0.336754
C126	C	0.378001	-0.839620	0.586754
C127	C	0.628001	-0.589620	0.836754
C128	C	0.878001	-0.339620	1.086754
