data_functionalizedCrystal
_audit_creation_method	'MofGen! by Chris Wilmer'
_symmetry_space_group_name_H-M	'P1'
_symmetry_Int_Tables_number	1
_symmetry_cell_setting	triclinic
loop_
_symmetry_equiv_pos_as_xyz
  x,y,z
_cell_length_a	17.038272
_cell_length_b	10.654550
_cell_length_c	9.730223
_cell_angle_alpha	90.000043
_cell_angle_beta	89.995299
_cell_angle_gamma	92.201757
loop_
_atom_site_label
_atom_site_type_symbol
_atom_site_fract_x
_atom_site_fract_y
_atom_site_fract_z
O1	O	0.109878	-1.678042	-0.114188
O2	O	0.120346	-1.313535	-0.114214
O3	O	0.001285	-1.493622	-0.114190
O4	O	0.228940	-1.497955	-0.114212
O5	O	0.001281	-1.493609	0.114390
O6	O	0.120343	-1.313523	0.114366
O7	O	0.109875	-1.678029	0.114392
Zn8	Zn	0.115108	-1.495774	0.150671
Zn9	Zn	0.115113	-1.495791	-0.150493
O10	O	0.228936	-1.497942	0.114368
C11	C	0.119576	-1.266660	0.000073
C12	C	0.117276	-1.127003	0.000064
C13	C	-0.027867	-1.489675	0.000099
C14	C	-0.114726	-1.477918	0.000098
C15	C	-0.164237	-1.585862	0.000107
C16	C	-0.245849	-1.574808	0.000093
C17	C	-0.277949	-1.455808	0.000080
C18	C	-0.228431	-1.347855	0.000067
C19	C	-0.146820	-1.358911	0.000071
C20	C	-0.523925	-1.416750	0.000059
C21	C	-0.605542	-1.405702	0.000059
C22	C	-0.622955	-1.632655	0.000082
C23	C	-0.541341	-1.643701	0.000094
C24	C	-0.491831	-1.535748	0.000074
C25	C	-0.361369	-1.444505	0.000070
C26	C	-0.408412	-1.547052	0.000074
C27	C	0.110645	-1.724905	0.000102
C28	C	0.112945	-1.864561	0.000102
C29	C	0.258088	-1.501889	0.000076
C30	C	0.344947	-1.513646	0.000068
N31	N	0.115105	-1.495771	0.356207
C32	C	0.187378	-1.054026	0.000061
C33	C	0.185213	-0.922805	0.000085
C34	C	0.042838	-0.937548	0.000109
C35	C	0.045004	-1.068767	0.000095
N36	N	0.115110	-1.495802	-0.356029
C37	C	0.062407	-1.575545	0.428144
C38	C	0.062407	-1.575558	0.572027
C39	C	0.167810	-1.416020	0.572024
C40	C	0.167806	-1.416002	0.428144
H41	H	-0.138109	-1.682764	0.000126
H42	H	-0.254573	-1.250963	0.000048
H43	H	-0.382273	-1.643941	0.000054
H44	H	0.019495	-1.640515	0.630593
H45	H	0.246227	-1.101438	0.000046
C46	C	0.224900	-1.329232	0.349955
C47	C	0.182776	-1.247838	0.267402
C48	C	0.235341	-1.167881	0.195368
H49	H	0.257744	-1.377760	0.293699
H50	H	0.256281	-1.281659	0.413357
H51	H	0.151409	-1.295406	0.204008
H52	H	0.149936	-1.199283	0.323625
H53	H	0.266722	-1.120308	0.258770
H54	H	0.268181	-1.216419	0.139120
H55	H	0.206767	-1.112638	0.139358
C56	C	-0.035681	-0.874481	-0.000090
C57	C	-0.078108	-0.910866	-0.117670
C58	C	-0.150448	-0.852810	-0.117896
H59	H	-0.027043	-0.785872	-0.000157
H60	H	-0.064620	-0.899049	0.079581
H61	H	-0.049175	-0.886290	-0.197320
H62	H	-0.086767	-0.999466	-0.117627
H63	H	-0.179386	-0.877379	-0.038225
H64	H	-0.141802	-0.764204	-0.117960
H65	H	-0.179246	-0.877498	-0.197666
H66	H	0.210719	-1.351074	0.630609
H67	H	-0.012085	-1.128187	0.000101
C68	C	0.005098	-1.662186	0.350288
C69	C	-0.041067	-1.732025	0.444090
C70	C	-0.093879	-1.811839	0.372425
H71	H	0.033448	-1.717602	0.294139
H72	H	-0.027775	-1.613529	0.294206
H73	H	-0.008199	-1.780680	0.500149
H74	H	-0.069435	-1.676643	0.500242
H75	H	-0.126752	-1.763181	0.316343
H76	H	-0.065522	-1.867246	0.316279
H77	H	-0.125213	-1.859226	0.436058
H78	H	0.242297	-0.863392	0.000086
H79	H	-0.286159	-1.662708	0.000103
C80	C	-0.676617	-1.749960	-0.000127
C81	C	-0.661995	-1.821127	-0.117705
C82	C	-0.711406	-1.929209	-0.117942
H83	H	-0.729844	-1.726513	-0.000204
H84	H	-0.666814	-1.798465	0.079545
H85	H	-0.671804	-1.772631	-0.197356
H86	H	-0.608777	-1.844606	-0.117653
H87	H	-0.701603	-1.977714	-0.038270
H88	H	-0.764630	-1.905750	-0.118015
H89	H	-0.701487	-1.977514	-0.197710
H90	H	-0.515213	-1.740603	0.000105
H91	H	-0.631674	-1.308794	0.000071
H92	H	-0.483623	-1.328847	0.000043
H93	H	-0.387514	-1.347615	0.000063
H94	H	-0.106509	-1.271011	0.000064
