data_functionalizedCrystal
_audit_creation_method	'MofGen! by Chris Wilmer'
_symmetry_space_group_name_H-M	'P1'
_symmetry_Int_Tables_number	1
_symmetry_cell_setting	triclinic
loop_
_symmetry_equiv_pos_as_xyz
  x,y,z
_cell_length_a	15.944499
_cell_length_b	14.044220
_cell_length_c	13.101018
_cell_angle_alpha	93.664297
_cell_angle_beta	86.638363
_cell_angle_gamma	88.333243
loop_
_atom_site_label
_atom_site_type_symbol
_atom_site_fract_x
_atom_site_fract_y
_atom_site_fract_z
O1	O	0.198273	1.262891	0.085092
O2	O	0.190964	0.986924	0.085118
O3	O	0.072906	1.132469	0.085106
O4	O	0.316330	1.117346	0.085104
O5	O	0.081384	1.122014	-0.085323
O6	O	0.199441	0.976469	-0.085311
O7	O	0.206750	1.252436	-0.085338
Zn8	Zn	0.204442	1.112793	-0.112384
Zn9	Zn	0.193272	1.126567	0.112165
O10	O	0.324807	1.106891	-0.085325
C11	C	0.192004	0.946383	-0.000093
C12	C	0.182462	0.841159	-0.000082
C13	C	0.045804	1.126623	-0.000106
C14	C	-0.047584	1.124767	-0.000098
C15	C	-0.332787	1.209324	-0.000112
C16	C	-0.270874	1.160214	-0.084142
C17	C	-0.383725	1.118022	-0.000109
C18	C	-0.279240	1.170497	0.083888
C19	C	-0.218568	1.121341	-0.000102
C20	C	-0.323037	1.068882	-0.084209
C21	C	-0.331413	1.079183	0.083897
C22	C	-0.269521	1.030005	-0.000154
C23	C	-0.478867	1.116113	-0.000114
C24	C	-0.123426	1.123243	-0.000104
C25	C	0.165019	0.648499	-0.000103
C26	C	0.232691	0.590856	-0.000108
C27	C	0.222985	0.483653	-0.000119
C28	C	0.174723	0.755712	-0.000091
C29	C	0.351910	1.112737	-0.000111
C30	C	0.445297	1.114594	-0.000112
C31	C	0.205710	1.292977	-0.000124
C32	C	0.215252	1.398201	-0.000128
N33	N	0.212065	1.103399	-0.265632
C34	C	0.175268	1.148744	-0.525545
C35	C	0.222437	1.090626	-0.474667
C36	C	0.216665	1.097735	-0.358349
C37	C	0.181040	1.141637	-0.641874
N38	N	0.185643	1.135969	0.265413
H39	H	-0.360439	1.285091	-0.000199
H40	H	0.297915	0.622018	-0.000103
H41	H	-0.259800	1.213488	0.154923
C42	C	0.076909	0.606403	-0.000100
N43	N	0.010544	0.574686	-0.000092
C44	C	0.282859	1.016204	-0.533837
N45	N	0.328372	0.960155	-0.578408
H46	H	-0.244357	1.194474	-0.155188
C47	C	0.114852	1.223163	-0.466376
N48	N	0.069345	1.279214	-0.421798
H49	H	-0.242015	0.954165	-0.000196
C50	C	-0.349153	1.010867	-0.180288
N51	N	-0.368826	0.967175	-0.252655
H52	H	-0.357949	1.044955	0.154947
