data_functionalizedCrystal
_audit_creation_method	'MofGen! by Chris Wilmer'
_symmetry_space_group_name_H-M	'P1'
_symmetry_Int_Tables_number	1
_symmetry_cell_setting	triclinic
loop_
_symmetry_equiv_pos_as_xyz
  x,y,z
_cell_length_a	21.295417
_cell_length_b	13.897449
_cell_length_c	13.897441
_cell_angle_alpha	89.979267
_cell_angle_beta	90.036423
_cell_angle_gamma	89.968214
loop_
_atom_site_label
_atom_site_type_symbol
_atom_site_fract_x
_atom_site_fract_y
_atom_site_fract_z
Zn1	Zn	-0.250568	-1.474617	0.545342
Zn2	Zn	0.082766	-1.141283	0.878675
Zn3	Zn	0.416099	-0.807950	1.212009
Zn4	Zn	-0.355847	-1.474475	0.384027
Zn5	Zn	-0.022513	-1.141141	0.717360
Zn6	Zn	0.310820	-0.807808	1.050694
Zn7	Zn	-0.250598	-1.313306	0.384060
Zn8	Zn	0.082736	-0.979973	0.717394
Zn9	Zn	0.416069	-0.646639	1.050727
Zn10	Zn	-0.355805	-1.313252	0.545280
Zn11	Zn	-0.022472	-0.979918	0.878613
Zn12	Zn	0.310861	-0.646585	1.211946
O13	O	-0.303204	-1.393912	0.464677
O14	O	0.030129	-1.060579	0.798011
O15	O	0.363462	-0.727246	1.131344
O16	O	-0.264538	-1.609579	0.523955
O17	O	0.068795	-1.276246	0.857289
O18	O	0.402129	-0.942913	1.190622
O19	O	-0.341915	-1.453059	0.249050
O20	O	-0.008582	-1.119725	0.582383
O21	O	0.324752	-0.786392	0.915716
O22	O	-0.162504	-1.334786	0.405495
O23	O	0.170829	-1.001453	0.738828
O24	O	0.504162	-0.668120	1.072162
O25	O	-0.341886	-1.609475	0.405438
O26	O	-0.008553	-1.276142	0.738771
O27	O	0.324781	-0.942808	1.072105
O28	O	-0.162482	-1.453301	0.523988
O29	O	0.170851	-1.119967	0.857321
O30	O	0.504184	-0.786634	1.190655
O31	O	-0.264589	-1.334649	0.249074
O32	O	0.068744	-1.001315	0.582408
O33	O	0.402078	-0.667982	0.915741
O34	O	-0.264549	-1.178317	0.405434
O35	O	0.068784	-0.844984	0.738768
O36	O	0.402118	-0.511650	1.072101
O37	O	-0.341815	-1.334694	0.680270
O38	O	-0.008482	-1.001360	1.013603
O39	O	0.324851	-0.668027	1.346936
O40	O	-0.341844	-1.178277	0.523881
O41	O	-0.008511	-0.844944	0.857215
O42	O	0.324822	-0.511610	1.190548
O43	O	-0.264498	-1.453248	0.680316
O44	O	0.068836	-1.119915	1.013649
O45	O	0.402169	-0.786581	1.346982
O46	O	-0.443931	-1.453006	0.405378
O47	O	-0.110597	-1.119672	0.738711
O48	O	0.222736	-0.786339	1.072044
O49	O	-0.443900	-1.334556	0.523849
O50	O	-0.110567	-1.001223	0.857182
O51	O	0.222766	-0.667889	1.190516
C52	C	-0.303196	-1.143298	0.464655
C53	C	0.030137	-0.809965	0.797989
C54	C	0.363471	-0.476631	1.131322
C55	C	-0.303207	-1.036084	0.464669
C56	C	0.030126	-0.702751	0.798002
C57	C	0.363459	-0.369417	1.131336
C58	C	-0.466756	-1.393786	0.464624
C59	C	-0.133423	-1.060452	0.797957
C60	C	0.199911	-0.727119	1.131291
C61	C	-0.536724	-1.393820	0.464633
C62	C	-0.203391	-1.060487	0.797967
C63	C	0.129943	-0.727153	1.131300
C64	C	-0.303149	-1.393981	0.716270
C65	C	0.030185	-1.060647	1.049604
C66	C	0.363518	-0.727314	1.382937
C67	C	-0.303125	-1.394010	0.823484
C68	C	0.030208	-1.060676	1.156818
C69	C	0.363542	-0.727343	1.490151
C70	C	-0.569586	-1.455552	0.403008
C71	C	-0.236252	-1.122218	0.736342
C72	C	0.097081	-0.788885	1.069675
C73	C	-0.635328	-1.455597	0.403030
C74	C	-0.301995	-1.122263	0.736363
C75	C	0.031339	-0.788930	1.069697
C76	C	-0.668207	-1.393893	0.464667
C77	C	-0.334873	-1.060560	0.798000
C78	C	-0.001540	-0.727226	1.131333
C79	C	-0.635337	-1.332157	0.526304
C80	C	-0.302004	-0.998824	0.859637
C81	C	0.031330	-0.665490	1.192970
C82	C	-0.569596	-1.332120	0.526287
C83	C	-0.236262	-0.998787	0.859620
C84	C	0.097071	-0.665454	1.192954
N85	N	-0.771473	-1.309512	0.472013
N86	N	-0.438140	-0.976179	0.805346
N87	N	-0.104806	-0.642845	1.138679
N88	N	-0.833925	-1.309550	0.472023
N89	N	-0.500591	-0.976216	0.805356
N90	N	-0.167258	-0.642883	1.138690
C91	C	-0.866281	-1.394001	0.464722
C92	C	-0.532948	-1.060668	0.798055
C93	C	-0.199615	-0.727334	1.131389
N94	N	-0.833827	-1.478416	0.457392
N95	N	-0.500494	-1.145082	0.790725
N96	N	-0.167160	-0.811749	1.124058
N97	N	-0.771370	-1.478377	0.457376
N98	N	-0.438037	-1.145044	0.790710
N99	N	-0.104703	-0.811710	1.124043
C100	C	-0.739492	-1.393926	0.464692
C101	C	-0.406159	-1.060593	0.798025
C102	C	-0.072825	-0.727260	1.131359
C103	C	-0.970428	-1.455787	0.403117
C104	C	-0.637095	-1.122454	0.736451
C105	C	-0.303762	-0.789120	1.069784
C106	C	-1.036172	-1.455834	0.403146
C107	C	-0.702839	-1.122501	0.736479
C108	C	-0.369505	-0.789167	1.069812
C109	C	-1.036180	-1.332386	0.526414
C110	C	-0.702846	-0.999052	0.859747
C111	C	-0.369513	-0.665719	1.193081
C112	C	-0.970437	-1.332347	0.526391
C113	C	-0.637104	-0.999014	0.859724
C114	C	-0.303771	-0.665681	1.193057
C115	C	-0.937565	-1.394047	0.464737
C116	C	-0.604232	-1.060713	0.798070
C117	C	-0.270899	-0.727380	1.131404
C118	C	-0.139014	-1.394065	0.464752
C119	C	0.194319	-1.060732	0.798085
C120	C	0.527653	-0.727399	1.131419
C121	C	-0.069046	-1.394131	0.464784
C122	C	0.264287	-1.060797	0.798117
C123	C	0.597621	-0.727464	1.131451
C124	C	-0.303213	-1.645505	0.464700
C125	C	0.030120	-1.312172	0.798033
C126	C	0.363453	-0.978838	1.131367
C127	C	-0.303217	-1.752719	0.464710
C128	C	0.030116	-1.419386	0.798043
C129	C	0.363450	-1.086052	1.131376
C130	C	-0.303210	-0.839789	0.464694
C131	C	0.030124	-0.506455	0.798027
C132	C	0.363457	-0.173122	1.131361
C133	C	-0.303207	-0.949021	0.464677
C134	C	0.030127	-0.615688	0.798011
C135	C	0.363460	-0.282355	1.131344
C136	C	-0.303214	-1.393900	0.214063
C137	C	0.030119	-1.060566	0.547396
C138	C	0.363452	-0.727233	0.880730
C139	C	-0.303061	-1.394057	0.106850
C140	C	0.030273	-1.060724	0.440183
C141	C	0.363606	-0.727391	0.773516
C142	C	-0.303082	-1.394036	1.019780
C143	C	0.030251	-1.060703	1.353113
C144	C	0.363584	-0.727369	1.686446
C145	C	-0.303108	-1.394018	0.910547
C146	C	0.030226	-1.060685	1.243881
C147	C	0.363559	-0.727352	1.577214
H148	H	-0.542823	-1.505793	0.352809
H149	H	-0.209490	-1.172460	0.686142
H150	H	0.123843	-0.839126	1.019476
H151	H	-0.943663	-1.506030	0.352918
H152	H	-0.610330	-1.172696	0.686251
H153	H	-0.276996	-0.839363	1.019585
H154	H	-0.662089	-1.505870	0.352848
H155	H	-0.328756	-1.172536	0.686181
H156	H	0.004577	-0.839203	1.019515
H157	H	-1.062927	-1.506109	0.352965
H158	H	-0.729593	-1.172776	0.686298
H159	H	-0.396260	-0.839443	1.019632
H160	H	-1.062949	-1.282149	0.576604
H161	H	-0.729615	-0.948816	0.909937
H162	H	-0.396282	-0.615483	1.243271
H163	H	-0.662111	-1.281919	0.576490
H164	H	-0.328778	-0.948586	0.909823
H165	H	0.004556	-0.615253	1.243157
H166	H	-0.542839	-1.281850	0.576471
H167	H	-0.209506	-0.948517	0.909804
H168	H	0.123827	-0.615184	1.243137
H169	H	-0.943680	-1.282075	0.576567
H170	H	-0.610346	-0.948742	0.909901
H171	H	-0.277013	-0.615409	1.243234
