data_functionalizedCrystal
_audit_creation_method	'MofGen! by Chris Wilmer'
_symmetry_space_group_name_H-M	'P1'
_symmetry_Int_Tables_number	1
_symmetry_cell_setting	triclinic
loop_
_symmetry_equiv_pos_as_xyz
  x,y,z
_cell_length_a	16.625546
_cell_length_b	19.805407
_cell_length_c	19.805399
_cell_angle_alpha	90.019197
_cell_angle_beta	89.972133
_cell_angle_gamma	89.981382
loop_
_atom_site_label
_atom_site_type_symbol
_atom_site_fract_x
_atom_site_fract_y
_atom_site_fract_z
Zn1	Zn	-0.321103	-1.034754	-0.382711
Zn2	Zn	0.012230	-0.701421	-0.049378
Zn3	Zn	0.345564	-0.368088	0.283955
Zn4	Zn	-0.455940	-1.034677	-0.269523
Zn5	Zn	-0.122607	-0.701343	0.063811
Zn6	Zn	0.210726	-0.368010	0.397144
Zn7	Zn	-0.321116	-0.921569	-0.269537
Zn8	Zn	0.012217	-0.588236	0.063797
Zn9	Zn	0.345550	-0.254902	0.397130
Zn10	Zn	-0.455888	-0.921540	-0.382670
Zn11	Zn	-0.122555	-0.588207	-0.049337
Zn12	Zn	0.210778	-0.254873	0.283997
O13	O	-0.388512	-0.978135	-0.326110
O14	O	-0.055179	-0.644802	0.007223
O15	O	0.278155	-0.311468	0.340556
O16	O	-0.339006	-1.129460	-0.367708
O17	O	-0.005672	-0.796127	-0.034375
O18	O	0.327661	-0.462794	0.298959
O19	O	-0.438083	-1.019652	-0.174808
O20	O	-0.104750	-0.686319	0.158525
O21	O	0.228584	-0.352986	0.491859
O22	O	-0.208282	-0.936628	-0.284573
O23	O	0.125051	-0.603294	0.048760
O24	O	0.458384	-0.269961	0.382094
O25	O	-0.438070	-1.129404	-0.284549
O26	O	-0.104737	-0.796070	0.048785
O27	O	0.228597	-0.462737	0.382118
O28	O	-0.208272	-1.019784	-0.367722
O29	O	0.125061	-0.686451	-0.034388
O30	O	0.458394	-0.353118	0.298945
O31	O	-0.339028	-0.936552	-0.174818
O32	O	-0.005695	-0.603219	0.158515
O33	O	0.327638	-0.269886	0.491848
O34	O	-0.338978	-0.826848	-0.284533
O35	O	-0.005645	-0.493515	0.048801
O36	O	0.327689	-0.160182	0.382134
O37	O	-0.437982	-0.936579	-0.477392
O38	O	-0.104648	-0.603245	-0.144059
O39	O	0.228685	-0.269912	0.189274
O40	O	-0.437994	-0.826827	-0.367651
O41	O	-0.104661	-0.493494	-0.034318
O42	O	0.228672	-0.160161	0.299015
O43	O	-0.338955	-1.019756	-0.477423
O44	O	-0.005622	-0.686423	-0.144089
O45	O	0.327711	-0.353090	0.189244
O46	O	-0.568766	-1.019625	-0.284509
O47	O	-0.235432	-0.686291	0.048825
O48	O	0.097901	-0.352958	0.382158
O49	O	-0.568728	-0.936504	-0.367638
O50	O	-0.235394	-0.603170	-0.034304
O51	O	0.097939	-0.269837	0.299029
C52	C	-0.388483	-0.802279	-0.326090
C53	C	-0.055149	-0.468946	0.007244
C54	C	0.278184	-0.135612	0.340577
C55	C	-0.388489	-0.727047	-0.326097
C56	C	-0.055156	-0.393714	0.007237
C57	C	0.278177	-0.060380	0.340570
C58	C	-0.336997	-0.691733	-0.369463
C59	C	-0.003664	-0.358400	-0.036129
C60	C	0.329670	-0.025066	0.297204
C61	C	-0.336999	-0.621045	-0.369464
C62	C	-0.003666	-0.287711	-0.036130
C63	C	0.329667	0.045622	0.297203
C64	C	-0.388499	-0.585671	-0.326101
C65	C	-0.055166	-0.252338	0.007232
C66	C	0.278168	0.080995	0.340565
C67	C	-0.439994	-0.620990	-0.282731
C68	C	-0.106660	-0.287657	0.050603
C69	C	0.226673	0.045676	0.383936
C70	C	-0.439987	-0.691677	-0.282727
C71	C	-0.106653	-0.358344	0.050606
C72	C	0.226680	-0.025011	0.383940
C73	C	-0.440023	-0.335917	-0.282744
C74	C	-0.106690	-0.002584	0.050589
C75	C	0.226644	0.330750	0.383922
C76	C	-0.440028	-0.265225	-0.282753
C77	C	-0.106695	0.068108	0.050580
C78	C	0.226639	0.401442	0.383914
C79	C	-0.337036	-0.265284	-0.369481
C80	C	-0.003703	0.068049	-0.036148
C81	C	0.329631	0.401382	0.297185
C82	C	-0.337029	-0.335971	-0.369478
C83	C	-0.003695	-0.002638	-0.036144
C84	C	0.329638	0.330695	0.297189
C85	C	-0.388520	-0.371284	-0.326104
C86	C	-0.055187	-0.037951	0.007229
C87	C	0.278147	0.295383	0.340562
C88	C	-0.388516	-0.447932	-0.326103
C89	C	-0.055182	-0.114599	0.007230
C90	C	0.278151	0.218734	0.340564
C91	C	-0.388508	-0.509024	-0.326106
C92	C	-0.055175	-0.175691	0.007228
C93	C	0.278159	0.157642	0.340561
C94	C	-0.598003	-0.978071	-0.326082
C95	C	-0.264670	-0.644738	0.007251
C96	C	0.068664	-0.311404	0.340585
C97	C	-0.687624	-0.978105	-0.326092
C98	C	-0.354291	-0.644772	0.007241
C99	C	-0.020957	-0.311439	0.340574
C100	C	-1.015800	-0.978224	-0.326163
C101	C	-0.682466	-0.644890	0.007170
C102	C	-0.349133	-0.311557	0.340504
C103	C	-0.924491	-0.978189	-0.326145
C104	C	-0.591158	-0.644855	0.007188
C105	C	-0.257824	-0.311522	0.340521
C106	C	-0.851715	-0.978164	-0.326127
C107	C	-0.518381	-0.644831	0.007206
C108	C	-0.185048	-0.311497	0.340539
C109	C	-0.760400	-0.978130	-0.326110
C110	C	-0.427067	-0.644797	0.007223
C111	C	-0.093734	-0.311463	0.340556
C112	C	-0.178203	-0.978218	-0.326154
C113	C	0.155130	-0.644884	0.007180
C114	C	0.488464	-0.311551	0.340513
C115	C	-0.088582	-0.978253	-0.326172
C116	C	0.244751	-0.644920	0.007161
C117	C	0.578085	-0.311586	0.340495
C118	C	-0.388461	-0.978173	-0.502653
C119	C	-0.055128	-0.644840	-0.169320
C120	C	0.278205	-0.311506	0.164014
C121	C	-0.388440	-0.978189	-0.577885
C122	C	-0.055106	-0.644856	-0.244552
C123	C	0.278227	-0.311522	0.088782
C124	C	-0.388536	-0.154678	-0.326125
C125	C	-0.055203	0.178656	0.007208
C126	C	0.278131	0.511989	0.340541
C127	C	-0.388531	-0.229910	-0.326116
C128	C	-0.055198	0.103424	0.007217
C129	C	0.278136	0.436757	0.340550
C130	C	-0.336874	-1.021501	-0.613246
C131	C	-0.003541	-0.688167	-0.279913
C132	C	0.329793	-0.354834	0.053421
C133	C	-0.336851	-1.021508	-0.683935
C134	C	-0.003517	-0.688174	-0.350601
C135	C	0.329816	-0.354841	-0.017268
C136	C	-0.388398	-0.978206	-0.719261
C137	C	-0.055064	-0.644873	-0.385927
C138	C	0.278269	-0.311539	-0.052594
C139	C	-0.439965	-0.934889	-0.683895
C140	C	-0.106632	-0.601556	-0.350561
C141	C	0.226701	-0.268223	-0.017228
C142	C	-0.439984	-0.934880	-0.613208
C143	C	-0.106651	-0.601546	-0.279874
C144	C	0.226683	-0.268213	0.053459
C145	C	-0.439890	-0.934928	-0.968968
C146	C	-0.106557	-0.601594	-0.635635
C147	C	0.226777	-0.268261	-0.302302
C148	C	-0.439869	-0.934942	-1.039660
C149	C	-0.106536	-0.601609	-0.706327
C150	C	0.226798	-0.268276	-0.372994
C151	C	-0.336757	-1.021556	-1.039695
C152	C	-0.003424	-0.688222	-0.706362
C153	C	0.329910	-0.354889	-0.373029
C154	C	-0.336776	-1.021546	-0.969008
C155	C	-0.003442	-0.688213	-0.635675
C156	C	0.329891	-0.354879	-0.302341
C157	C	-0.388340	-0.978227	-0.933648
C158	C	-0.055007	-0.644894	-0.600315
C159	C	0.278327	-0.311561	-0.266982
C160	C	-0.388364	-0.978219	-0.857000
C161	C	-0.055030	-0.644886	-0.523666
C162	C	0.278303	-0.311553	-0.190333
C163	C	-0.388379	-0.978217	-0.795908
C164	C	-0.055045	-0.644883	-0.462575
C165	C	0.278288	-0.311550	-0.129241
C166	C	-0.388504	-0.978136	-0.150254
C167	C	-0.055171	-0.644803	0.183079
C168	C	0.278162	-0.311469	0.516412
C169	C	-0.388299	-0.978251	-0.075023
C170	C	-0.054966	-0.644918	0.258311
C171	C	0.278368	-0.311584	0.591644
H172	H	-0.295095	-0.364769	-0.404790
H173	H	0.038238	-0.031435	-0.071456
H174	H	0.371571	0.301898	0.261877
H175	H	-0.481889	-0.899665	-0.940187
H176	H	-0.148555	-0.566332	-0.606853
H177	H	0.184778	-0.232998	-0.273520
H178	H	-0.481846	-0.899678	-1.068421
H179	H	-0.148513	-0.566344	-0.735088
H180	H	0.184820	-0.233011	-0.401754
H181	H	-0.294804	-1.056809	-0.940249
H182	H	0.038530	-0.723476	-0.606916
H183	H	0.371863	-0.390142	-0.273582
H184	H	-0.295106	-0.236524	-0.404795
H185	H	0.038227	0.096809	-0.071462
H186	H	0.371560	0.430143	0.261871
H187	H	-0.481967	-0.236426	-0.247440
H188	H	-0.148634	0.096907	0.085894
H189	H	0.184700	0.430241	0.419227
H190	H	-0.481933	-0.899630	-0.712663
H191	H	-0.148599	-0.566297	-0.379330
H192	H	0.184734	-0.232963	-0.045996
C193	C	-0.280031	-1.069202	-1.078593
C194	C	0.053303	-0.735868	-0.745259
C195	C	0.386636	-0.402535	-0.411926
H196	H	-0.287393	-1.063003	-1.125751
H197	H	0.045940	-0.729670	-0.792418
H198	H	0.379273	-0.396337	-0.459084
H199	H	-0.291845	-1.114672	-1.067014
H200	H	0.041488	-0.781338	-0.733681
H201	H	0.374822	-0.448005	-0.400347
H202	H	-0.225854	-1.059314	-1.067016
H203	H	0.107480	-0.725981	-0.733683
H204	H	0.440813	-0.392647	-0.400349
H205	H	-0.295062	-0.720529	-0.404775
H206	H	0.038271	-0.387196	-0.071442
H207	H	0.371605	-0.053862	0.261891
C208	C	-0.280168	-1.069130	-0.574394
C209	C	0.053165	-0.735797	-0.241060
C210	C	0.386499	-0.402464	0.092273
H211	H	-0.249448	-1.094920	-0.605580
H212	H	0.083885	-0.761587	-0.272247
H213	H	0.417218	-0.428254	0.061087
H214	H	-0.311018	-1.098607	-0.546815
H215	H	0.022315	-0.765274	-0.213482
H216	H	0.355648	-0.431941	0.119852
H217	H	-0.245037	-1.043241	-0.546824
H218	H	0.088296	-0.709908	-0.213491
H219	H	0.421630	-0.376575	0.119842
C220	C	-0.280133	-1.069154	-0.722829
C221	C	0.053201	-0.735821	-0.389496
C222	C	0.386534	-0.402487	-0.056162
H223	H	-0.249444	-1.094948	-0.691666
H224	H	0.083889	-0.761614	-0.358333
H225	H	0.417223	-0.428281	-0.024999
H226	H	-0.244985	-1.043284	-0.750407
H227	H	0.088348	-0.709951	-0.417073
H228	H	0.421681	-0.376617	-0.083740
H229	H	-0.310982	-1.098637	-0.750403
H230	H	0.022351	-0.765304	-0.417069
H231	H	0.355685	-0.431970	-0.083736
C232	C	-0.496726	-0.887254	-0.574310
C233	C	-0.163392	-0.553920	-0.240977
C234	C	0.169941	-0.220587	0.092356
H235	H	-0.527433	-0.861474	-0.605472
H236	H	-0.194100	-0.528141	-0.272139
H237	H	0.139233	-0.194808	0.061195
H238	H	-0.465901	-0.857766	-0.546728
H239	H	-0.132568	-0.524433	-0.213395
H240	H	0.200766	-0.191100	0.119938
H241	H	-0.531867	-0.913145	-0.546741
H242	H	-0.198533	-0.579812	-0.213408
H243	H	0.134800	-0.246479	0.119926
H244	H	-0.481951	-0.364660	-0.247428
H245	H	-0.148618	-0.031327	0.085905
H246	H	0.184715	0.302007	0.419239
H247	H	-0.295071	-0.592295	-0.404778
H248	H	0.038263	-0.258962	-0.071445
H249	H	0.371596	0.074371	0.261889
C250	C	-0.496643	-0.582082	-0.235034
C251	C	-0.163310	-0.248748	0.098299
C252	C	0.170024	0.084585	0.431633
H253	H	-0.489280	-0.534925	-0.241252
H254	H	-0.155946	-0.201592	0.092082
H255	H	0.177387	0.131742	0.425415
H256	H	-0.484773	-0.593649	-0.189574
H257	H	-0.151439	-0.260316	0.143760
H258	H	0.181894	0.073018	0.477093
H259	H	-0.550835	-0.593661	-0.244863
H260	H	-0.217501	-0.260328	0.088471
H261	H	0.115832	0.073006	0.421804
C262	C	-0.496635	-0.730523	-0.235030
C263	C	-0.163301	-0.397189	0.098304
C264	C	0.170032	-0.063856	0.431637
H265	H	-0.527314	-0.699333	-0.209210
H266	H	-0.193980	-0.366000	0.124123
H267	H	0.139353	-0.032666	0.457456
H268	H	-0.465746	-0.758095	-0.205583
H269	H	-0.132413	-0.424761	0.127750
H270	H	0.200921	-0.091428	0.461084
H271	H	-0.531806	-0.758098	-0.260874
H272	H	-0.198472	-0.424765	0.072459
H273	H	0.134861	-0.091432	0.405793
