data_functionalizedCrystal
_audit_creation_method	'MofGen! by Chris Wilmer'
_symmetry_space_group_name_H-M	'P1'
_symmetry_Int_Tables_number	1
_symmetry_cell_setting	triclinic
loop_
_symmetry_equiv_pos_as_xyz
  x,y,z
_cell_length_a	16.959455
_cell_length_b	18.101395
_cell_length_c	16.959447
_cell_angle_alpha	89.970532
_cell_angle_beta	89.985678
_cell_angle_gamma	90.028051
loop_
_atom_site_label
_atom_site_type_symbol
_atom_site_fract_x
_atom_site_fract_y
_atom_site_fract_z
Zn1	Zn	1.208323	-0.294875	-0.446913
Zn2	Zn	1.541657	0.038458	-0.113580
Zn3	Zn	1.874990	0.371791	0.219753
Zn4	Zn	1.208220	-0.418728	-0.314737
Zn5	Zn	1.541554	-0.085395	0.018597
Zn6	Zn	1.874887	0.247938	0.351930
Zn7	Zn	1.076152	-0.294899	-0.314751
Zn8	Zn	1.409485	0.038435	0.018582
Zn9	Zn	1.742818	0.371768	0.351916
Zn10	Zn	1.076091	-0.418673	-0.446875
Zn11	Zn	1.409424	-0.085340	-0.113542
Zn12	Zn	1.742758	0.247994	0.219791
O13	O	1.142196	-0.356794	-0.380819
O14	O	1.475530	-0.023460	-0.047486
O15	O	1.808863	0.309873	0.285848
O16	O	1.318920	-0.311318	-0.429390
O17	O	1.652254	0.022015	-0.096057
O18	O	1.985587	0.355349	0.237277
O19	O	1.190683	-0.402335	-0.204128
O20	O	1.524017	-0.069002	0.129206
O21	O	1.857350	0.264332	0.462539
O22	O	1.093753	-0.191263	-0.332304
O23	O	1.427086	0.142071	0.001029
O24	O	1.760420	0.475404	0.334362
O25	O	1.318845	-0.402312	-0.332280
O26	O	1.652178	-0.068979	0.001053
O27	O	1.985511	0.264354	0.334386
O28	O	1.190859	-0.191246	-0.429404
O29	O	1.524192	0.142088	-0.096070
O30	O	1.857526	0.475421	0.237263
O31	O	1.093653	-0.311358	-0.204138
O32	O	1.426986	0.021976	0.129195
O33	O	1.760320	0.355309	0.462529
O34	O	0.965533	-0.311304	-0.332267
O35	O	1.298866	0.022029	0.001066
O36	O	1.632199	0.355363	0.334399
O37	O	1.093649	-0.402218	-0.557491
O38	O	1.426983	-0.068885	-0.224158
O39	O	1.760316	0.264449	0.109175
O40	O	0.965488	-0.402241	-0.429339
O41	O	1.298821	-0.068907	-0.096005
O42	O	1.632155	0.264426	0.237328
O43	O	1.190800	-0.311264	-0.557519
O44	O	1.524133	0.022069	-0.224186
O45	O	1.857467	0.355402	0.109147
O46	O	1.190624	-0.522354	-0.332243
O47	O	1.523958	-0.189021	0.001090
O48	O	1.857291	0.144313	0.334423
O49	O	1.093550	-0.522313	-0.429325
O50	O	1.426883	-0.188980	-0.095992
O51	O	1.760216	0.144353	0.237342
C52	C	0.936830	-0.356769	-0.380801
C53	C	1.270164	-0.023436	-0.047468
C54	C	1.603497	0.309897	0.285866
C55	C	0.848974	-0.356777	-0.380812
C56	C	1.182307	-0.023443	-0.047479
C57	C	1.515640	0.309890	0.285855
C58	C	1.142091	-0.549204	-0.380796
C59	C	1.475424	-0.215871	-0.047463
C60	C	1.808757	0.117462	0.285871
C61	C	1.142118	-0.631518	-0.380812
C62	C	1.475451	-0.298185	-0.047479
C63	C	1.808784	0.035148	0.285854
C64	C	0.477497	-0.309404	-0.330380
C65	C	0.810830	0.023929	0.002954
C66	C	1.144164	0.357262	0.336287
C67	C	0.477499	-0.404244	-0.431304
C68	C	0.810833	-0.070911	-0.097970
C69	C	1.144166	0.262422	0.235363
C70	C	0.560045	-0.404234	-0.431299
C71	C	0.893378	-0.070900	-0.097966
C72	C	1.226712	0.262433	0.235368
C73	C	0.601321	-0.356808	-0.380833
C74	C	0.934654	-0.023475	-0.047500
C75	C	1.267987	0.309858	0.285834
C76	C	0.560050	-0.309394	-0.330372
C77	C	0.893384	0.023939	0.002962
C78	C	1.226717	0.357273	0.336295
C79	C	0.601321	-0.451653	-0.481754
C80	C	0.934655	-0.118319	-0.148420
C81	C	1.267988	0.215014	0.184913
C82	C	0.683872	-0.451644	-0.481750
C83	C	1.017206	-0.118311	-0.148417
C84	C	1.350539	0.215022	0.184916
C85	C	0.725150	-0.404215	-0.431287
C86	C	1.058483	-0.070882	-0.097954
C87	C	1.391816	0.262452	0.235379
C88	C	0.683874	-0.356798	-0.380825
C89	C	1.017208	-0.023465	-0.047491
C90	C	1.350541	0.309869	0.285842
C91	C	0.725150	-0.309373	-0.330359
C92	C	1.058483	0.023961	0.002975
C93	C	1.391816	0.357294	0.336308
C94	C	0.683876	-0.261951	-0.279899
C95	C	1.017209	0.071382	0.053434
C96	C	1.350543	0.404715	0.386767
C97	C	0.601327	-0.261964	-0.279909
C98	C	0.934661	0.071369	0.053425
C99	C	1.267994	0.404702	0.386758
C100	C	0.807698	-0.404202	-0.431278
C101	C	1.141031	-0.070869	-0.097945
C102	C	1.474365	0.262465	0.235389
C103	C	0.807703	-0.309362	-0.330351
C104	C	1.141037	0.023971	0.002983
C105	C	1.474370	0.357304	0.336316
C106	C	1.142291	-0.930609	-0.380855
C107	C	1.475625	-0.597276	-0.047522
C108	C	1.808958	-0.263943	0.285812
C109	C	1.081356	-0.899289	-0.442088
C110	C	1.414689	-0.565956	-0.108754
C111	C	1.748023	-0.232623	0.224579
C112	C	1.081066	-0.813671	-0.441896
C113	C	1.414400	-0.480338	-0.108563
C114	C	1.747733	-0.147005	0.224771
C115	C	1.142205	-0.782227	-0.380834
C116	C	1.475538	-0.448894	-0.047501
C117	C	1.808872	-0.115560	0.285832
C118	C	1.119658	-0.813380	-0.297530
C119	C	1.452992	-0.480047	0.035803
C120	C	1.786325	-0.146713	0.369137
C121	C	1.119266	-0.899025	-0.297896
C122	C	1.452599	-0.565692	0.035437
C123	C	1.785932	-0.232359	0.368770
C124	C	1.225907	-0.898956	-0.402193
C125	C	1.559240	-0.565623	-0.068860
C126	C	1.892573	-0.232290	0.264473
C127	C	1.225415	-0.813305	-0.404020
C128	C	1.558748	-0.479972	-0.070687
C129	C	1.892082	-0.146639	0.262646
C130	C	1.142158	-0.698367	-0.380818
C131	C	1.475491	-0.365034	-0.047484
C132	C	1.808825	-0.031701	0.285849
C133	C	1.142337	-1.014469	-0.380866
C134	C	1.475670	-0.681135	-0.047533
C135	C	1.809003	-0.347802	0.285801
C136	C	1.348365	-0.356819	-0.380838
C137	C	1.681698	-0.023486	-0.047504
C138	C	2.015031	0.309848	0.285829
C139	C	1.436221	-0.356830	-0.380846
C140	C	1.769555	-0.023496	-0.047512
C141	C	2.102888	0.309837	0.285821
C142	C	1.142229	-0.356732	-0.586987
C143	C	1.475563	-0.023399	-0.253654
C144	C	1.808896	0.309934	0.079679
C145	C	1.142243	-0.356706	-0.674844
C146	C	1.475577	-0.023373	-0.341511
C147	C	1.808910	0.309960	-0.008177
C148	C	1.142324	-0.163632	-0.380860
C149	C	1.475658	0.169701	-0.047526
C150	C	1.808991	0.503035	0.285807
C151	C	1.142379	-0.081318	-0.380877
C152	C	1.475712	0.252016	-0.047544
C153	C	1.809045	0.585349	0.285790
C154	C	1.091756	-0.403984	-1.046308
C155	C	1.425089	-0.070650	-0.712974
C156	C	1.758423	0.262683	-0.379641
C157	C	1.192920	-0.309273	-1.046332
C158	C	1.526253	0.024060	-0.712999
C159	C	1.859586	0.357394	-0.379665
C160	C	1.192899	-0.309289	-0.963786
C161	C	1.526232	0.024045	-0.630453
C162	C	1.859565	0.357378	-0.297119
C163	C	1.142306	-0.356653	-0.922497
C164	C	1.475640	-0.023320	-0.589164
C165	C	1.808973	0.310013	-0.255830
C166	C	1.091735	-0.404002	-0.963754
C167	C	1.425068	-0.070669	-0.630421
C168	C	1.758402	0.262664	-0.297088
C169	C	1.243475	-0.261946	-0.922523
C170	C	1.576808	0.071387	-0.589189
C171	C	1.910141	0.404721	-0.255856
C172	C	1.243456	-0.261960	-0.839972
C173	C	1.576790	0.071373	-0.506638
C174	C	1.910123	0.404706	-0.173305
C175	C	1.192859	-0.309322	-0.798681
C176	C	1.526193	0.024012	-0.465348
C177	C	1.859526	0.357345	-0.132015
C178	C	1.142285	-0.356672	-0.839944
C179	C	1.475619	-0.023339	-0.506610
C180	C	1.808952	0.309995	-0.173277
C181	C	1.091693	-0.404037	-0.798655
C182	C	1.425026	-0.070703	-0.465321
C183	C	1.758360	0.262630	-0.131988
C184	C	1.041115	-0.451384	-0.839915
C185	C	1.374448	-0.118050	-0.506582
C186	C	1.707781	0.215283	-0.173249
C187	C	1.041138	-0.451364	-0.922464
C188	C	1.374471	-0.118030	-0.589131
C189	C	1.707805	0.215303	-0.255797
C190	C	1.192836	-0.309342	-0.716133
C191	C	1.526169	0.023992	-0.382800
C192	C	1.859502	0.357325	-0.049466
C193	C	1.091672	-0.404055	-0.716101
C194	C	1.425005	-0.070722	-0.382768
C195	C	1.758339	0.262611	-0.049434
C196	C	1.142209	-0.356801	-0.175453
C197	C	1.475543	-0.023468	0.157880
C198	C	1.808876	0.309865	0.491214
C199	C	1.142348	-0.356619	-0.087597
C200	C	1.475682	-0.023286	0.245737
C201	C	1.809015	0.310048	0.579070
H202	H	0.841304	-0.270738	-0.289259
H203	H	1.174637	0.062596	0.044074
H204	H	1.507971	0.395929	0.377407
Br205	Br	1.261479	-0.245098	-0.660139
Br206	Br	1.594813	0.088236	-0.326806
Br207	Br	1.928146	0.421569	0.006527
H208	H	0.999962	-0.489914	-0.956066
H209	H	1.333296	-0.156580	-0.622732
H210	H	1.666629	0.176753	-0.289399
Br211	Br	0.863710	-0.468560	-0.499745
Br212	Br	1.197043	-0.135227	-0.166412
Br213	Br	1.530376	0.198107	0.166921
Br214	Br	1.104575	-0.778556	-0.544850
Br215	Br	1.437908	-0.445223	-0.211516
Br216	Br	1.771241	-0.111890	0.121817
Br217	Br	1.104627	-0.933535	-0.545379
Br218	Br	1.437960	-0.600202	-0.212046
Br219	Br	1.771294	-0.266869	0.121288
Br220	Br	1.023001	-0.468333	-0.660072
Br221	Br	1.356334	-0.135000	-0.326739
Br222	Br	1.689667	0.198333	0.006594
H223	H	0.999926	-0.489951	-0.806287
H224	H	1.333259	-0.156618	-0.472954
H225	H	1.666592	0.176715	-0.139621
H226	H	1.019755	-0.920873	-0.428131
H227	H	1.353088	-0.587540	-0.094798
H228	H	1.686422	-0.254207	0.238535
Br229	Br	0.977764	-0.779620	-0.418344
Br230	Br	1.311097	-0.446287	-0.085011
Br231	Br	1.644431	-0.112953	0.248322
H232	H	1.234114	-0.270715	-1.079954
H233	H	1.567447	0.062618	-0.746621
H234	H	1.900781	0.395952	-0.413288
H235	H	0.717493	-0.223341	-0.238806
H236	H	1.050827	0.109992	0.094527
H237	H	1.384160	0.443326	0.427860
H238	H	0.443888	-0.270793	-0.289299
H239	H	0.777221	0.062540	0.044034
H240	H	1.110555	0.395874	0.377368
Br241	Br	0.545309	-0.197612	-0.211436
Br242	Br	0.878642	0.135721	0.121898
Br243	Br	1.211976	0.469055	0.455231
H244	H	0.567709	-0.490269	-0.522835
H245	H	0.901042	-0.156935	-0.189501
H246	H	1.234376	0.176398	0.143832
H247	H	1.284669	-0.223389	-0.956146
H248	H	1.618002	0.109945	-0.622813
H249	H	1.951336	0.443278	-0.289480
Br250	Br	1.191304	-0.779440	-0.219411
Br251	Br	1.524637	-0.446106	0.113923
Br252	Br	1.857970	-0.112773	0.447256
H253	H	1.271306	-0.919210	-0.357595
H254	H	1.604639	-0.585877	-0.024262
H255	H	1.937972	-0.252544	0.309072
Br256	Br	0.421482	-0.468623	-0.499770
Br257	Br	0.754816	-0.135289	-0.166436
Br258	Br	1.088149	0.198044	0.166897
Br259	Br	1.312095	-0.197704	-0.783982
Br260	Br	1.645429	0.135629	-0.450649
Br261	Br	1.978762	0.468963	-0.117316
H262	H	0.717471	-0.490257	-0.522838
H263	H	1.050804	-0.156924	-0.189504
H264	H	1.384137	0.176409	0.143829
H265	H	1.058143	-0.919066	-0.279821
H266	H	1.391477	-0.585732	0.053513
H267	H	1.724810	-0.252399	0.386846
Br268	Br	1.253758	-0.779367	-0.506205
Br269	Br	1.587091	-0.446033	-0.172872
Br270	Br	1.920424	-0.112700	0.160462
Br271	Br	1.190021	-0.933567	-0.219258
Br272	Br	1.523354	-0.600233	0.114076
Br273	Br	1.856688	-0.266900	0.447409
H274	H	1.059184	-0.791993	-0.279130
H275	H	1.392517	-0.458660	0.054203
H276	H	1.725850	-0.125326	0.387537
Br277	Br	1.260172	-0.934869	-0.501714
Br278	Br	1.593505	-0.601535	-0.168381
Br279	Br	1.926838	-0.268202	0.164952
H280	H	1.273216	-0.791897	-0.362672
H281	H	1.606549	-0.458563	-0.029339
H282	H	1.939883	-0.125230	0.303995
H283	H	1.050574	-0.442530	-1.079906
H284	H	1.383907	-0.109197	-0.746573
H285	H	1.717241	0.224136	-0.413239
