data_functionalizedCrystal
_audit_creation_method	'MofGen! by Chris Wilmer'
_symmetry_space_group_name_H-M	'P1'
_symmetry_Int_Tables_number	1
_symmetry_cell_setting	triclinic
loop_
_symmetry_equiv_pos_as_xyz
  x,y,z
_cell_length_a	14.044191
_cell_length_b	19.188930
_cell_length_c	13.101039
_cell_angle_alpha	93.345801
_cell_angle_beta	86.337551
_cell_angle_gamma	88.168279
loop_
_atom_site_label
_atom_site_type_symbol
_atom_site_fract_x
_atom_site_fract_y
_atom_site_fract_z
O1	O	1.262238	0.164780	-0.085186
O2	O	0.986294	0.158702	-0.085198
O3	O	1.132228	0.060600	-0.085172
O4	O	1.116304	0.262881	-0.085213
O5	O	1.121757	0.067651	0.085256
O6	O	0.975824	0.165753	0.085229
O7	O	1.251767	0.171831	0.085242
Zn8	Zn	1.112133	0.169912	0.112295
Zn9	Zn	1.125929	0.160621	-0.112251
O10	O	1.105834	0.269933	0.085215
C11	C	0.945756	0.159568	0.000014
C12	C	0.840563	0.151637	0.000010
C13	C	0.590103	0.193385	0.000012
C14	C	0.647965	0.137150	0.000022
C15	C	0.755136	0.145213	0.000016
C16	C	0.482922	0.185324	0.000019
C17	C	1.126477	0.038081	0.000045
C18	C	1.124928	-0.039523	0.000054
C19	C	1.210558	-0.078919	0.000062
C20	C	1.209104	-0.151837	0.000046
C21	C	1.122015	-0.185356	0.000041
C22	C	1.036374	-0.145951	0.000027
C23	C	1.037831	-0.073034	0.000033
N24	N	1.051882	-0.295258	0.058038
N25	N	1.050504	-0.364526	0.058034
C26	C	1.117621	-0.405049	0.000020
N27	N	1.186182	-0.373687	-0.057977
N28	N	1.187562	-0.304413	-0.057969
C29	C	1.120426	-0.264421	0.000034
C30	C	1.201681	-0.523512	0.000010
C31	C	1.200224	-0.596432	-0.000013
C32	C	1.027491	-0.590543	-0.000022
C33	C	1.028951	-0.517625	-0.000009
C34	C	1.116048	-0.484114	0.000011
C35	C	1.292306	0.170964	0.000027
C36	C	1.397499	0.178895	0.000024
C37	C	1.111585	0.292451	-0.000004
C38	C	1.113134	0.370055	-0.000019
N39	N	1.102725	0.176252	0.265541
N40	N	1.135344	0.154275	-0.265498
C41	C	1.089925	0.184885	0.474582
C42	C	1.148141	0.145645	0.525468
C43	C	1.141019	0.150448	0.641785
C44	C	1.097046	0.180082	0.358254
H45	H	0.617018	0.082947	-0.000039
H46	H	0.621053	0.247581	-0.000002
H47	H	1.034739	0.222085	0.518369
H48	H	1.281479	-0.051639	0.000076
H49	H	1.278836	-0.183920	0.000049
H50	H	0.965466	-0.173246	0.000021
H51	H	0.968099	-0.040958	0.000026
H52	H	1.272601	-0.496226	0.000022
C53	C	0.934755	-0.474283	-0.000000
C54	C	0.838955	-0.511147	-0.000002
C55	C	0.744754	-0.467806	0.000005
C56	C	0.746352	-0.387600	0.000015
C57	C	0.842155	-0.350732	0.000017
C58	C	0.936356	-0.394073	0.000009
H59	H	0.837769	-0.570524	-0.000010
H60	H	0.673835	-0.495098	0.000004
H61	H	0.676619	-0.355516	0.000020
H62	H	0.843341	-0.291355	0.000024
H63	H	1.007276	-0.366781	0.000011
C64	C	1.222707	0.095391	0.466314
C65	C	1.229773	0.090559	0.348315
C66	C	1.304338	0.040311	0.289155
C67	C	1.371838	-0.005107	0.347996
C68	C	1.364775	-0.000277	0.466002
C69	C	1.290209	0.049972	0.525161
H70	H	1.179804	0.124181	0.304752
H71	H	1.309567	0.036735	0.201799
H72	H	1.427036	-0.042304	0.304202
H73	H	1.414744	-0.033899	0.509565
H74	H	1.284981	0.053547	0.612518
H75	H	1.269957	-0.628508	-0.000012
H76	H	0.956582	-0.617833	-0.000031
