data_functionalizedCrystal
_audit_creation_method	'MofGen! by Chris Wilmer'
_symmetry_space_group_name_H-M	'P1'
_symmetry_Int_Tables_number	1
_symmetry_cell_setting	triclinic
loop_
_symmetry_equiv_pos_as_xyz
  x,y,z
_cell_length_a	14.044220
_cell_length_b	10.967926
_cell_length_c	9.482900
_cell_angle_alpha	92.549900
_cell_angle_beta	100.188801
_cell_angle_gamma	88.855190
loop_
_atom_site_label
_atom_site_type_symbol
_atom_site_fract_x
_atom_site_fract_y
_atom_site_fract_z
O1	O	0.167990	1.628183	0.287012
O2	O	0.170077	1.279192	0.199575
O3	O	0.030855	1.448447	0.241995
O4	O	0.307212	1.458928	0.244592
O5	O	0.059254	1.414080	0.475174
O6	O	0.198475	1.244826	0.432755
O7	O	0.196388	1.593816	0.520191
Cu8	Cu	0.200025	1.416183	0.497764
Cu9	Cu	0.166441	1.456825	0.222002
O10	O	0.335610	1.424561	0.477771
C11	C	0.181978	1.217076	0.304908
C12	C	0.175121	1.083189	0.271364
C13	C	0.186775	1.005695	0.377203
C14	C	0.179687	0.867315	0.342536
C15	C	0.009569	1.426678	0.357436
C16	C	-0.096166	1.412998	0.354011
C17	C	-0.289761	1.387993	0.347725
C18	C	-0.343781	1.485012	0.372028
C19	C	-0.451504	1.471099	0.368530
C20	C	-0.182028	1.401904	0.351222
C21	C	0.356895	1.446331	0.362327
C22	C	0.462630	1.460012	0.365743
C23	C	0.184486	1.655933	0.414856
C24	C	0.191343	1.789821	0.448390
N25	N	0.223646	1.387606	0.691722
N26	N	0.142812	1.485411	0.028047
C27	C	0.173402	1.448388	0.779155
C28	C	0.193063	1.424621	0.940615
H29	H	0.164460	0.831220	0.226252
H30	H	0.201993	1.041796	0.493480
H31	H	-0.309138	1.578537	0.395362
H32	H	0.085234	1.555044	0.983374
H33	H	0.281213	1.317968	0.736399
C34	C	0.211902	0.838577	0.605489
N35	N	0.227385	0.875301	0.723813
H36	H	0.159894	1.047088	0.155087
C37	C	-0.336574	1.261668	0.316095
N38	N	-0.371843	1.166520	0.292282
H39	H	0.115828	1.518016	0.734477
H40	H	0.250634	1.354978	0.985286
