data_functionalizedCrystal
_audit_creation_method	'MofGen! by Chris Wilmer'
_symmetry_space_group_name_H-M	'P1'
_symmetry_Int_Tables_number	1
_symmetry_cell_setting	triclinic
loop_
_symmetry_equiv_pos_as_xyz
  x,y,z
_cell_length_a	12.827885
_cell_length_b	19.077142
_cell_length_c	19.077068
_cell_angle_alpha	89.885450
_cell_angle_beta	92.262284
_cell_angle_gamma	92.320506
loop_
_atom_site_label
_atom_site_type_symbol
_atom_site_fract_x
_atom_site_fract_y
_atom_site_fract_z
Zn1	Zn	-0.673494	-1.063006	-0.322953
Zn2	Zn	-0.505454	-1.058189	-0.440473
Zn3	Zn	-0.491475	-0.945494	-0.318258
Zn4	Zn	-0.672860	-0.940742	-0.435693
O5	O	-0.585821	-1.001858	-0.379344
O6	O	-0.657319	-1.160699	-0.342508
O7	O	-0.357364	-1.043213	-0.424296
O8	O	-0.510035	-0.965087	-0.220551
O9	O	-0.533861	-1.157160	-0.428849
O10	O	-0.643764	-1.051423	-0.224001
O11	O	-0.347094	-0.960416	-0.334505
O12	O	-0.509421	-0.846532	-0.329870
O13	O	-0.819180	-0.956987	-0.420703
O14	O	-0.642684	-0.843040	-0.416150
O15	O	-0.819646	-1.046815	-0.337873
O16	O	-0.533246	-1.038604	-0.538168
O17	O	-0.656239	-0.952316	-0.534657
C18	C	-0.574467	-0.819290	-0.371982
C19	C	-0.569636	-0.741186	-0.368850
C20	C	-0.858391	-1.001908	-0.379279
C21	C	-0.974543	-1.001930	-0.379251
C22	C	-0.636647	-0.702690	-0.412367
C23	C	-0.632112	-0.629304	-0.409414
C24	C	-0.560559	-0.594414	-0.362947
C25	C	-0.493545	-0.632915	-0.319425
C26	C	-0.498086	-0.706300	-0.322375
C27	C	-0.539554	-0.375129	-0.349298
C28	C	-0.535016	-0.301738	-0.346353
C29	C	-0.673585	-0.298132	-0.436341
C30	C	-0.678115	-0.371519	-0.439290
C31	C	-0.611105	-0.410013	-0.395765
N32	N	-0.555920	-0.519401	-0.359930
N33	N	-0.615750	-0.485025	-0.398780
C34	C	-1.026558	-1.046384	-0.338256
C35	C	-1.146608	-1.046408	-0.338226
C36	C	-0.314312	-1.001850	-0.379360
C37	C	-0.198157	-1.001972	-0.379196
C38	C	-0.596215	-0.994441	-0.561909
C39	C	-0.600700	-0.991332	-0.640013
C40	C	-0.597207	-0.185139	-0.386732
C41	C	-0.602027	-0.263242	-0.389870
C42	C	-0.538829	-1.034832	-0.678513
C43	C	-0.543054	-1.031912	-0.751901
C44	C	-0.609145	-0.985488	-0.786787
C45	C	-0.671023	-0.941987	-0.748282
C46	C	-0.666803	-0.944910	-0.674896
C47	C	-0.628633	-0.971926	-1.006074
C48	C	-0.632846	-0.969004	-1.079466
C49	C	-0.504878	-1.058931	-1.083080
C50	C	-0.500659	-1.061848	-1.009692
C51	C	-0.562541	-1.018349	-0.971193
N52	N	-0.613463	-0.982501	-0.861801
N53	N	-0.558228	-1.021340	-0.896181
C54	C	-0.575411	-1.009323	-0.196067
C55	C	-0.570975	-1.012504	-0.117966
H56	H	-0.686679	-0.597964	-0.444851
H57	H	-1.153433	-0.963914	-0.414298
H58	H	-0.717186	-0.909489	-0.643550
C59	C	-0.467041	-1.085306	-0.640770
C60	C	-0.413782	-1.122789	-0.690199
C61	C	-0.347653	-1.169301	-0.655459
H62	H	-0.418073	-1.059660	-0.611109
H63	H	-0.507285	-1.117089	-0.613343
H64	H	-0.373540	-1.091011	-0.717614
H65	H	-0.462724	-1.148450	-0.719862
H66	H	-0.387897	-1.201083	-0.628032
H67	H	-0.298691	-1.143649	-0.625799
H68	H	-0.311516	-1.194743	-0.688991
H69	H	-1.191340	-1.084469	-0.303131
H70	H	-0.492671	-1.067334	-0.783245
C71	C	-0.746230	-0.256372	-0.483705
C72	C	-0.728359	-0.271380	-0.553929
C73	C	-0.795260	-0.232919	-0.597578
H74	H	-0.816669	-0.268807	-0.474047
H75	H	-0.733280	-0.207660	-0.475343
H76	H	-0.741317	-0.320081	-0.562287
H77	H	-0.657933	-0.258942	-0.563608
H78	H	-0.782309	-0.184207	-0.589216
H79	H	-0.865694	-0.245357	-0.587915
H80	H	-0.783137	-0.243091	-0.645230
H81	H	-0.446842	-1.099650	-0.981289
C82	C	-0.457505	-0.263780	-0.295835
C83	C	-0.511644	-0.223488	-0.249172
C84	C	-0.440286	-0.188509	-0.202627
H85	H	-0.418229	-0.297146	-0.270265
H86	H	-0.411658	-0.234004	-0.321488
H87	H	-0.557473	-0.253262	-0.223522
H88	H	-0.550916	-0.190110	-0.274722
H89	H	-0.394438	-0.158734	-0.228280
H90	H	-0.401014	-0.221881	-0.177062
H91	H	-0.477008	-0.161163	-0.170965
H92	H	-0.484981	-0.406462	-0.313863
C93	C	-0.967296	-1.097002	-0.291442
C94	C	-0.899580	-1.059000	-0.244863
C95	C	-0.844964	-1.105607	-0.201734
H96	H	-1.015372	-1.124916	-0.265652
H97	H	-0.928086	-1.126475	-0.319575
H98	H	-0.938788	-1.029538	-0.216733
H99	H	-0.851484	-1.031088	-0.270634
H100	H	-0.805754	-1.135081	-0.229868
H101	H	-0.893047	-1.133519	-0.175949
H102	H	-0.799005	-1.079830	-0.170130
C103	C	-0.755707	-0.409525	-0.489710
C104	C	-0.745325	-0.482032	-0.482989
C105	C	-0.816777	-0.517065	-0.529431
H106	H	-0.824669	-0.398017	-0.479043
H107	H	-0.742242	-0.395620	-0.536446
H108	H	-0.758798	-0.495931	-0.436264
H109	H	-0.676380	-0.493561	-0.493662
H110	H	-0.803312	-0.503161	-0.576167
H111	H	-0.885733	-0.505551	-0.518760
H112	H	-0.809736	-0.566264	-0.524882
H113	H	-0.435289	-0.604502	-0.281588
H114	H	-0.443523	-0.737643	-0.286935
C115	C	-1.033726	-0.951317	-0.426117
C116	C	-1.101400	-0.989324	-0.472718
C117	C	-1.155921	-0.942723	-0.515911
H118	H	-1.072964	-0.921811	-0.398052
H119	H	-0.985559	-0.923436	-0.451883
H120	H	-1.149560	-1.017193	-0.446955
H121	H	-1.062188	-1.018828	-0.500799
H122	H	-1.107754	-0.914842	-0.541677
H123	H	-1.195153	-0.913219	-0.487840
H124	H	-1.201837	-0.968503	-0.547539
H125	H	-0.454499	-1.094347	-1.114433
C126	C	-0.704720	-0.918582	-1.117216
C127	C	-0.758035	-0.881127	-1.067795
C128	C	-0.824260	-0.834682	-1.102545
H129	H	-0.664570	-0.886773	-1.144659
H130	H	-0.753646	-0.944297	-1.146864
H131	H	-0.709116	-0.855413	-1.038159
H132	H	-0.798205	-0.912918	-1.040350
H133	H	-0.873185	-0.860398	-1.132193
H134	H	-0.784102	-0.802878	-1.129986
H135	H	-0.860449	-0.809268	-1.069018
C136	C	-0.695944	-0.924810	-0.964253
C137	C	-0.763048	-0.966246	-0.923669
C138	C	-0.825083	-0.922863	-0.885140
H139	H	-0.652506	-0.895333	-0.934382
H140	H	-0.735962	-0.896757	-0.995524
H141	H	-0.723034	-0.994287	-0.892401
H142	H	-0.806509	-0.995722	-0.953523
H143	H	-0.865100	-0.894810	-0.916411
H144	H	-0.781636	-0.893388	-0.855273
H145	H	-0.870626	-0.950971	-0.857604
H146	H	-0.694910	-0.731092	-0.450207
H147	H	-0.724840	-0.904190	-0.776692
