data_functionalizedCrystal
_audit_creation_method	'MofGen! by Chris Wilmer'
_symmetry_space_group_name_H-M	'P1'
_symmetry_Int_Tables_number	1
_symmetry_cell_setting	triclinic
loop_
_symmetry_equiv_pos_as_xyz
  x,y,z
_cell_length_a	21.295420
_cell_length_b	21.295417
_cell_length_c	10.686551
_cell_angle_alpha	94.411227
_cell_angle_beta	94.397452
_cell_angle_gamma	90.025484
loop_
_atom_site_label
_atom_site_type_symbol
_atom_site_fract_x
_atom_site_fract_y
_atom_site_fract_z
Zn1	Zn	0.989670	-0.223330	0.713467
Zn2	Zn	0.981496	-0.336692	0.502439
Zn3	Zn	0.876317	-0.231432	0.502474
Zn4	Zn	0.884361	-0.328560	0.713385
O5	O	0.932961	-0.280003	0.607941
O6	O	1.076676	-0.238380	0.685494
O7	O	0.960756	-0.329523	0.325860
O8	O	0.891408	-0.142266	0.530512
O9	O	1.070671	-0.321667	0.530452
O10	O	0.974688	-0.136313	0.685528
O11	O	0.883481	-0.252189	0.325886
O12	O	0.789294	-0.244304	0.530432
O13	O	0.905119	-0.307807	0.889979
O14	O	0.795204	-0.315663	0.685388
O15	O	0.982489	-0.230494	0.890040
O16	O	0.968557	-0.423705	0.530372
O17	O	0.897192	-0.417730	0.685353
C18	C	0.769408	-0.279981	0.607906
C19	C	0.699441	-0.279985	0.607920
C20	C	0.203116	-0.236725	0.688822
C21	C	0.268858	-0.236720	0.688822
C22	C	0.298603	-0.280021	0.607971
C23	C	0.262601	-0.323341	0.527137
C24	C	0.196860	-0.323349	0.527148
N25	N	0.397563	-0.289004	0.497478
N26	N	0.460015	-0.288993	0.497471
C27	C	0.496676	-0.280002	0.607933
N28	N	0.468528	-0.271010	0.718406
N29	N	0.406071	-0.271018	0.718412
C30	C	0.369888	-0.280018	0.607950
C31	C	0.603957	-0.236683	0.688769
C32	C	0.669700	-0.236683	0.688771
C33	C	0.663441	-0.323301	0.527074
C34	C	0.597699	-0.323304	0.527084
C35	C	0.567961	-0.279992	0.607929
C36	C	0.932879	-0.443558	0.607877
C37	C	0.932902	-0.513525	0.607892
C38	C	0.976246	-0.543233	0.688667
C39	C	0.976269	-0.608974	0.688698
C40	C	0.932955	-0.645006	0.607932
C41	C	0.889604	-0.615291	0.527152
C42	C	0.889577	-0.549550	0.527132
N43	N	0.923968	-0.752503	0.497497
N44	N	0.923997	-0.814953	0.497519
C45	C	0.933031	-0.843079	0.607989
N46	N	0.942047	-0.806394	0.718438
N47	N	0.942021	-0.743938	0.718414
C48	C	0.932978	-0.716291	0.607945
C49	C	0.976402	-0.944070	0.688804
C50	C	0.976421	-1.009813	0.688837
C51	C	0.889758	-1.016128	0.527280
C52	C	0.889736	-0.950387	0.527258
C53	C	0.933061	-0.914362	0.608018
C54	C	1.097153	-0.280027	0.607978
C55	C	1.167122	-0.280037	0.607993
C56	C	0.945613	-0.267340	0.937076
C57	C	0.951004	-0.261943	1.077333
C58	C	0.933062	-0.115810	0.608033
C59	C	0.933106	-0.045840	0.608072
C60	C	0.920395	-0.292572	0.280087
C61	C	0.915126	-0.297792	0.139830
H62	H	0.699006	-0.201415	0.754600
O63	O	0.174331	-0.194632	0.767478
C64	C	0.220203	-0.156392	0.838798
H65	H	0.267222	-0.182009	0.843065
H66	H	0.205045	-0.145926	0.938248
H67	H	0.225435	-0.110320	0.792754
O68	O	0.303867	-0.194729	0.767470
C69	C	0.345032	-0.227490	0.848817
H70	H	0.325497	-0.276782	0.856455
H71	H	0.349537	-0.201050	0.946003
H72	H	0.393349	-0.231130	0.809774
O73	O	0.291568	-0.365427	0.448772
C74	C	0.332336	-0.403384	0.520466
H75	H	0.345879	-0.377569	0.616171
H76	H	0.376580	-0.413754	0.469028
H77	H	0.307514	-0.449520	0.534170
O78	O	0.574962	-0.194642	0.767188
C79	C	0.509219	-0.203942	0.749882
H80	H	0.496479	-0.228234	0.652425
H81	H	0.484588	-0.156463	0.758615
H82	H	0.493429	-0.234648	0.824610
O83	O	0.847595	-1.051087	0.448958
C84	C	0.785896	-1.033996	0.476398
H85	H	0.786547	-1.012027	0.577196
H86	H	0.754394	-1.077676	0.465485
H87	H	0.766854	-0.998467	0.408704
H88	H	0.854445	-0.926197	0.461478
O89	O	0.992521	-0.220411	1.141701
C90	C	0.988852	-0.224093	1.272110
H91	H	0.940940	-0.244026	1.289966
H92	H	0.995055	-0.175032	1.322313
H93	H	1.027594	-0.256196	1.309503
H94	H	0.167553	-0.358619	0.461326
H95	H	0.687659	-0.358562	0.461254
H96	H	1.011716	-1.033999	0.754619
H97	H	0.880286	-0.332613	1.086035
H98	H	0.568392	-0.358570	0.461259
H99	H	0.854336	-0.644632	0.461395
O100	O	1.018353	-0.508332	0.767238
C101	C	1.056625	-0.548656	0.838515
H102	H	1.031023	-0.595372	0.842853
H103	H	1.067118	-0.525811	0.937944
H104	H	1.102680	-0.557393	0.792389
O105	O	1.018288	-0.637869	0.767295
C106	C	0.985560	-0.672789	0.848715
H107	H	0.936270	-0.652715	0.856426
H108	H	1.012026	-0.669768	0.945864
H109	H	0.981919	-0.724122	0.809695
H110	H	0.854281	-0.525362	0.461355
H111	H	1.011678	-0.914737	0.754568
