data_functionalizedCrystal
_audit_creation_method	'MofGen! by Chris Wilmer'
_symmetry_space_group_name_H-M	'P1'
_symmetry_Int_Tables_number	1
_symmetry_cell_setting	triclinic
loop_
_symmetry_equiv_pos_as_xyz
  x,y,z
_cell_length_a	21.295420
_cell_length_b	21.295417
_cell_length_c	17.077396
_cell_angle_alpha	89.967856
_cell_angle_beta	89.980351
_cell_angle_gamma	90.025484
loop_
_atom_site_label
_atom_site_type_symbol
_atom_site_fract_x
_atom_site_fract_y
_atom_site_fract_z
Zn1	Zn	0.962328	-0.250680	-0.443826
Zn2	Zn	1.295661	0.082653	-0.110492
Zn3	Zn	1.628995	0.415987	0.222841
Zn4	Zn	0.962241	-0.355953	-0.312551
Zn5	Zn	1.295574	-0.022620	0.020782
Zn6	Zn	1.628908	0.310714	0.354115
Zn7	Zn	0.857060	-0.250694	-0.312573
Zn8	Zn	1.190394	0.082639	0.020760
Zn9	Zn	1.523727	0.415973	0.354093
Zn10	Zn	0.857022	-0.355908	-0.443775
Zn11	Zn	1.190356	-0.022574	-0.110441
Zn12	Zn	1.523689	0.310759	0.222892
O13	O	0.909663	-0.303309	-0.378181
O14	O	1.242996	0.030025	-0.044848
O15	O	1.576330	0.363358	0.288485
O16	O	1.050406	-0.264658	-0.426424
O17	O	1.383739	0.068675	-0.093091
O18	O	1.717073	0.402009	0.240243
O19	O	0.948268	-0.342015	-0.202707
O20	O	1.281602	-0.008682	0.130626
O21	O	1.614935	0.324652	0.463959
O22	O	0.871077	-0.162603	-0.330015
O23	O	1.204410	0.170731	0.003318
O24	O	1.537744	0.504064	0.336652
O25	O	1.050342	-0.342002	-0.329977
O26	O	1.383675	-0.008668	0.003356
O27	O	1.717009	0.324665	0.336689
O28	O	0.948417	-0.162593	-0.426445
O29	O	1.281750	0.170741	-0.093112
O30	O	1.615083	0.504074	0.240221
O31	O	0.870992	-0.264682	-0.202723
O32	O	1.204326	0.068652	0.130610
O33	O	1.537659	0.401985	0.463943
O34	O	0.768966	-0.264638	-0.329965
O35	O	1.102299	0.068696	0.003368
O36	O	1.435633	0.402029	0.336701
O37	O	0.871012	-0.341924	-0.553628
O38	O	1.204345	-0.008591	-0.220295
O39	O	1.537678	0.324743	0.113038
O40	O	0.768938	-0.341938	-0.426358
O41	O	1.102271	-0.008604	-0.093025
O42	O	1.435605	0.324729	0.240308
O43	O	0.948380	-0.264614	-0.553666
O44	O	1.281713	0.068720	-0.220333
O45	O	1.615046	0.402053	0.113001
O46	O	0.948231	-0.444036	-0.329928
O47	O	1.281565	-0.110703	0.003406
O48	O	1.614898	0.222630	0.336739
O49	O	0.870927	-0.444003	-0.426337
O50	O	1.204261	-0.110670	-0.093004
O51	O	1.537594	0.222664	0.240330
C52	C	0.746111	-0.303285	-0.378159
C53	C	1.079445	0.030049	-0.044826
C54	C	1.412778	0.363382	0.288508
C55	C	0.676143	-0.303289	-0.378168
C56	C	1.009477	0.030044	-0.044835
C57	C	1.342810	0.363377	0.288498
C58	C	0.176718	-0.263131	-0.428494
C59	C	0.510051	0.070203	-0.095161
C60	C	0.843385	0.403536	0.238172
C61	C	0.242460	-0.263126	-0.428494
C62	C	0.575794	0.070207	-0.095161
C63	C	0.909127	0.403541	0.238172
C64	C	0.275304	-0.303328	-0.378200
C65	C	0.608637	0.030006	-0.044866
C66	C	0.941971	0.363339	0.288467
C67	C	0.242399	-0.343549	-0.327915
C68	C	0.575733	-0.010215	0.005418
C69	C	0.909066	0.323118	0.338751
C70	C	0.176658	-0.343557	-0.327922
C71	C	0.509991	-0.010223	0.005411
C72	C	0.843325	0.323110	0.338744
N73	N	0.378499	-0.308075	-0.309466
N74	N	0.711832	0.025259	0.023868
N75	N	1.045165	0.358592	0.357201
N76	N	0.440950	-0.308063	-0.309461
N77	N	0.774283	0.025270	0.023872
N78	N	1.107617	0.358603	0.357205
C79	C	0.473379	-0.303307	-0.378176
C80	C	0.806712	0.030026	-0.044843
C81	C	1.140045	0.363360	0.288490
N82	N	0.440996	-0.298550	-0.446898
N83	N	0.774330	0.034783	-0.113564
N84	N	1.107663	0.368116	0.219769
N85	N	0.378539	-0.298558	-0.446901
N86	N	0.711873	0.034775	-0.113568
N87	N	1.045206	0.368108	0.219765
C88	C	0.346589	-0.303324	-0.378187
C89	C	0.679923	0.030009	-0.044853
C90	C	1.013256	0.363343	0.288480
C91	C	0.577561	-0.263087	-0.428461
C92	C	0.910894	0.070247	-0.095128
C93	C	1.244227	0.403580	0.238205
C94	C	0.643304	-0.263087	-0.428463
C95	C	0.976638	0.070247	-0.095129
C96	C	1.309971	0.403580	0.238204
C97	C	0.643242	-0.343506	-0.327877
C98	C	0.976575	-0.010173	0.005457
C99	C	1.309909	0.323161	0.338790
C100	C	0.577500	-0.343509	-0.327882
C101	C	0.910833	-0.010176	0.005451
C102	C	1.244166	0.323157	0.338784
C103	C	0.544663	-0.303297	-0.378174
C104	C	0.877996	0.030037	-0.044840
C105	C	1.211330	0.363370	0.288493
C106	C	0.909583	-0.466860	-0.378142
C107	C	1.242916	-0.133527	-0.044808
C108	C	1.576249	0.199806	0.288525
C109	C	0.909606	-0.536828	-0.378151
C110	C	1.242939	-0.203495	-0.044817
C111	C	1.576273	0.129838	0.288516
C112	C	0.949854	-0.569633	-0.428398
C113	C	1.283187	-0.236299	-0.095065
C114	C	1.616520	0.097034	0.238269
C115	C	0.949876	-0.635375	-0.428417
C116	C	1.283209	-0.302042	-0.095084
C117	C	1.616543	0.031292	0.238249
C118	C	0.909657	-0.668311	-0.378176
C119	C	1.242990	-0.334978	-0.044842
C120	C	1.576324	-0.001644	0.288491
C121	C	0.869402	-0.635499	-0.327925
C122	C	1.202735	-0.302165	0.005409
C123	C	1.536068	0.031168	0.338742
C124	C	0.869376	-0.569758	-0.327912
C125	C	1.202709	-0.236424	0.005421
C126	C	1.536043	0.096909	0.338754
N127	N	0.904902	-0.771574	-0.309477
N128	N	1.238236	-0.438241	0.023856
N129	N	1.571569	-0.104907	0.357189
N130	N	0.904930	-0.834025	-0.309491
N131	N	1.238264	-0.500692	0.023842
N132	N	1.571597	-0.167359	0.357175
C133	C	0.909731	-0.866386	-0.378211
C134	C	1.243064	-0.533052	-0.044878
C135	C	1.576397	-0.199719	0.288456
N136	N	0.914514	-0.833935	-0.446918
N137	N	1.247848	-0.500602	-0.113584
N138	N	1.581181	-0.167268	0.219749
N139	N	0.914490	-0.771478	-0.446903
N140	N	1.247823	-0.438145	-0.113569
N141	N	1.581156	-0.104811	0.219764
C142	C	0.909680	-0.739596	-0.378184
C143	C	1.243013	-0.406263	-0.044850
C144	C	1.576347	-0.072930	0.288483
C145	C	0.950005	-0.970475	-0.428483
C146	C	1.283338	-0.637142	-0.095150
C147	C	1.616671	-0.303809	0.238183
C148	C	0.950022	-1.036219	-0.428504
C149	C	1.283356	-0.702886	-0.095171
C150	C	1.616689	-0.369552	0.238162
C151	C	0.869551	-1.036341	-0.328004
C152	C	1.202885	-0.703008	0.005329
C153	C	1.536218	-0.369675	0.338662
C154	C	0.869530	-0.970599	-0.327991
C155	C	1.202863	-0.637266	0.005343
C156	C	1.536197	-0.303932	0.338676
C157	C	0.909760	-0.937670	-0.378229
C158	C	1.243093	-0.604337	-0.044896
C159	C	1.576427	-0.271003	0.288437
C160	C	1.073853	-0.303333	-0.378204
C161	C	1.407187	0.030000	-0.044871
C162	C	1.740520	0.363333	0.288463
C163	C	1.143821	-0.303344	-0.378214
C164	C	1.477155	0.029990	-0.044880
C165	C	1.810488	0.363323	0.288453
C166	C	0.909701	-0.303262	-0.582926
C167	C	1.243034	0.030071	-0.249592
C168	C	1.576368	0.363404	0.083741
C169	C	0.909717	-0.303243	-0.670176
C170	C	1.243051	0.030091	-0.336842
C171	C	1.576384	0.363424	-0.003509
C172	C	0.909761	-0.139118	-0.378238
C173	C	1.243094	0.194215	-0.044905
C174	C	1.576427	0.527548	0.288428
C175	C	0.909802	-0.069150	-0.378263
C176	C	1.243136	0.264183	-0.044929
C177	C	1.576469	0.597516	0.288404
C178	C	0.950004	-0.262984	-0.711187
C179	C	1.283338	0.070350	-0.377853
C180	C	1.616671	0.403683	-0.044520
C181	C	0.950012	-0.262963	-0.793167
C182	C	1.283345	0.070371	-0.459834
C183	C	1.616678	0.403704	-0.126500
C184	C	0.909735	-0.303204	-0.834135
C185	C	1.243069	0.030129	-0.500802
C186	C	1.576402	0.363462	-0.167468
C187	C	0.869444	-0.343465	-0.793118
C188	C	1.202777	-0.010131	-0.459785
C189	C	1.536111	0.323202	-0.126452
C190	C	0.869434	-0.343482	-0.711139
C191	C	1.202767	-0.010149	-0.377806
C192	C	1.536100	0.323185	-0.044473
C193	C	0.869469	-0.343427	-0.963988
C194	C	1.202803	-0.010094	-0.630655
C195	C	1.536136	0.323240	-0.297322
C196	C	0.869480	-0.343411	-1.045973
C197	C	1.202814	-0.010077	-0.712640
C198	C	1.536147	0.323256	-0.379306
C199	C	0.950047	-0.262908	-1.046016
C200	C	1.283381	0.070426	-0.712683
C201	C	1.616714	0.403759	-0.379350
C202	C	0.950037	-0.262925	-0.964037
C203	C	1.283370	0.070408	-0.630704
C204	C	1.616704	0.403742	-0.297370
C205	C	0.909746	-0.303187	-0.923026
C206	C	1.243080	0.030147	-0.589693
C207	C	1.576413	0.363480	-0.256359
C208	C	0.909661	-0.303309	-0.174233
C209	C	1.242995	0.030024	0.159100
C210	C	1.576328	0.363357	0.492433
C211	C	0.909767	-0.303152	-0.086984
C212	C	1.243100	0.030181	0.246349
C213	C	1.576434	0.363515	0.579683
H214	H	0.550824	-0.230343	-0.469412
H215	H	0.884157	0.102990	-0.136078
H216	H	1.217490	0.436324	0.197255
O217	O	0.825974	-0.386902	-0.666909
O218	O	1.159307	-0.053568	-0.333576
O219	O	1.492640	0.279765	-0.000243
H220	H	0.854116	-0.418942	-0.629545
H221	H	1.187449	-0.085608	-0.296212
H222	H	1.520782	0.247725	0.037122
H223	H	0.836682	-0.376177	-1.079327
H224	H	1.170015	-0.042844	-0.745994
H225	H	1.503349	0.290489	-0.412660
O226	O	0.825966	-0.534370	-0.273712
O227	O	1.159300	-0.201037	0.059621
O228	O	1.492633	0.132296	0.392954
H229	H	0.854151	-0.504417	-0.233807
H230	H	1.187485	-0.171084	0.099527
H231	H	1.520818	0.162250	0.432860
O232	O	0.277823	-0.386907	-0.273667
O233	O	0.611156	-0.053574	0.059666
O234	O	0.944489	0.279760	0.393000
H235	H	0.243900	-0.414875	-0.238706
H236	H	0.577233	-0.081542	0.094627
H237	H	0.910566	0.251792	0.427960
O238	O	0.542012	-0.386878	-0.273644
O239	O	0.875346	-0.053545	0.059689
O240	O	1.208679	0.279789	0.393022
H241	H	0.512053	-0.358665	-0.233780
H242	H	0.845386	-0.025332	0.099554
H243	H	1.178720	0.308001	0.432887
O244	O	0.141176	-0.386927	-0.273678
O245	O	0.474509	-0.053594	0.059655
O246	O	0.807843	0.279740	0.392988
H247	H	0.111227	-0.418995	-0.308740
H248	H	0.444560	-0.085662	0.024593
H249	H	0.777893	0.247672	0.357927
O250	O	0.826122	-0.935216	-0.273787
O251	O	1.159456	-0.601882	0.059546
O252	O	1.492789	-0.268549	0.392880
H253	H	0.832858	-0.883969	-0.282223
H254	H	1.166191	-0.550636	0.051111
H255	H	1.499524	-0.217302	0.384444
O256	O	0.993467	-0.219545	-0.837404
O257	O	1.326801	0.113788	-0.504070
O258	O	1.660134	0.447122	-0.170737
H259	H	1.021479	-0.191573	-0.795143
H260	H	1.354812	0.141761	-0.461810
H261	H	1.688146	0.475094	-0.128477
H262	H	0.982645	-0.662089	-0.469344
H263	H	1.315979	-0.328756	-0.136011
H264	H	1.649312	0.004577	0.197323
H265	H	0.836650	-0.376202	-0.930600
H266	H	1.169984	-0.042869	-0.597266
H267	H	1.503317	0.290464	-0.263933
H268	H	0.982760	-0.943663	-0.469393
H269	H	1.316094	-0.610330	-0.136060
H270	H	1.649427	-0.276997	0.197273
H271	H	0.670088	-0.230342	-0.469413
H272	H	1.003421	0.102991	-0.136080
H273	H	1.336754	0.436325	0.197254
O274	O	0.993449	-0.219579	-0.667007
O275	O	1.326782	0.113755	-0.333674
O276	O	1.660116	0.447088	-0.000341
H277	H	1.025459	-0.247767	-0.629662
H278	H	1.358792	0.085566	-0.296329
H279	H	1.692126	0.418900	0.037005
O280	O	0.141300	-0.219764	-0.482739
O281	O	0.474633	0.113569	-0.149405
O282	O	0.807966	0.446903	0.183928
H283	H	0.175224	-0.191803	-0.517706
H284	H	0.508557	0.141530	-0.184373
H285	H	0.841891	0.474863	0.148960
H286	H	0.836648	-0.376228	-0.826481
H287	H	1.169981	-0.042894	-0.493148
H288	H	1.503314	0.290439	-0.159814
H289	H	0.669982	-0.376244	-0.286932
H290	H	1.003316	-0.042911	0.046402
H291	H	1.336649	0.290423	0.379735
O292	O	0.993433	-1.071606	-0.482703
O293	O	1.326767	-0.738273	-0.149370
O294	O	1.660100	-0.404939	0.183964
H295	H	1.021405	-1.037661	-0.517627
H296	H	1.354738	-0.704327	-0.184294
H297	H	1.688072	-0.370994	0.149039
O298	O	0.993480	-0.219523	-0.919850
O299	O	1.326813	0.113810	-0.586517
O300	O	1.660146	0.447144	-0.253183
H301	H	1.025486	-0.247715	-0.882504
H302	H	1.358819	0.085618	-0.549170
H303	H	1.692152	0.418952	-0.215837
O304	O	0.826173	-1.071854	-0.273808
O305	O	1.159506	-0.738521	0.059525
O306	O	1.492840	-0.405188	0.392858
H307	H	0.832955	-1.123080	-0.282253
H308	H	1.166288	-0.789747	0.051080
H309	H	1.499622	-0.456414	0.384413
O310	O	0.993253	-0.534114	-0.482567
O311	O	1.326587	-0.200781	-0.149234
O312	O	1.659920	0.132552	0.184099
H313	H	1.021246	-0.567975	-0.517509
H314	H	1.354580	-0.234641	-0.184175
H315	H	1.687913	0.098692	0.149158
O316	O	0.993500	-0.219475	-1.090242
O317	O	1.326833	0.113859	-0.756909
O318	O	1.660167	0.447192	-0.423575
H319	H	0.986736	-0.226215	-1.154130
H320	H	1.320069	0.107119	-0.820796
H321	H	1.653402	0.440452	-0.487463
O322	O	0.826031	-0.671022	-0.273727
O323	O	1.159364	-0.337689	0.059607
O324	O	1.492698	-0.004356	0.392940
H325	H	0.794004	-0.700990	-0.308824
H326	H	1.127337	-0.367656	0.024510
H327	H	1.460671	-0.034323	0.357843
O328	O	0.277955	-0.219746	-0.482719
O329	O	0.611288	0.113587	-0.149386
O330	O	0.944621	0.446921	0.183947
H331	H	0.244076	-0.191782	-0.517686
H332	H	0.577410	0.141552	-0.184353
H333	H	0.910743	0.474885	0.148981
