data_functionalizedCrystal
_audit_creation_method	'MofGen! by Chris Wilmer'
_symmetry_space_group_name_H-M	'P1'
_symmetry_Int_Tables_number	1
_symmetry_cell_setting	triclinic
loop_
_symmetry_equiv_pos_as_xyz
  x,y,z
_cell_length_a	13.897448
_cell_length_b	12.759401
_cell_length_c	12.759393
_cell_angle_alpha	90.020120
_cell_angle_beta	89.966654
_cell_angle_gamma	89.986338
loop_
_atom_site_label
_atom_site_type_symbol
_atom_site_fract_x
_atom_site_fract_y
_atom_site_fract_z
Zn1	Zn	-0.384062	-1.606234	-0.594014
Zn2	Zn	0.115938	-1.106234	-0.094014
Zn3	Zn	-0.545391	-1.606119	-0.418328
Zn4	Zn	-0.045391	-1.106119	0.081672
Zn5	Zn	-0.384100	-1.430535	-0.418348
Zn6	Zn	0.115900	-0.930535	0.081652
Zn7	Zn	-0.545305	-1.430515	-0.593965
Zn8	Zn	-0.045305	-0.930515	-0.093965
O9	O	-0.464715	-1.518351	-0.506164
O10	O	0.035285	-1.018351	-0.006164
O11	O	-0.405482	-1.753239	-0.570721
O12	O	0.094518	-1.253239	-0.070721
O13	O	-0.524048	-1.582788	-0.271310
O14	O	-0.024048	-1.082788	0.228690
O15	O	-0.249114	-1.453899	-0.441679
O16	O	0.250886	-0.953899	0.058321
O17	O	-0.524010	-1.753155	-0.441646
O18	O	-0.024010	-1.253155	0.058354
O19	O	-0.249085	-1.582983	-0.570740
O20	O	0.250915	-1.082983	-0.070740
O21	O	-0.405548	-1.453788	-0.271324
O22	O	0.094452	-0.953788	0.228676
O23	O	-0.405465	-1.283512	-0.441632
O24	O	0.094535	-0.783512	0.058368
O25	O	-0.523864	-1.453864	-0.740993
O26	O	-0.023864	-0.953864	-0.240993
O27	O	-0.523901	-1.283497	-0.570657
O28	O	-0.023901	-0.783497	-0.070657
O29	O	-0.405399	-1.582964	-0.741028
O30	O	0.094601	-1.082964	-0.241028
O31	O	-0.680361	-1.582768	-0.441598
O32	O	-0.180361	-1.082768	0.058402
O33	O	-0.680298	-1.453753	-0.570638
O34	O	-0.180298	-0.953753	-0.070638
C35	C	-0.464679	-1.245383	-0.506142
C36	C	0.035321	-0.745383	-0.006142
C37	C	-0.464686	-1.128607	-0.506157
C38	C	0.035314	-0.628607	-0.006157
C39	C	-0.403083	-1.073782	-0.573470
C40	C	0.096917	-0.573782	-0.073470
C41	C	-0.403096	-0.964058	-0.573473
C42	C	0.096904	-0.464058	-0.073473
C43	C	-0.526325	-0.963993	-0.438850
C44	C	-0.026325	-0.463993	0.061150
C45	C	-0.526306	-1.073715	-0.438841
C46	C	-0.026306	-0.573715	0.061159
C47	C	-0.331940	-1.073818	-0.651197
C48	C	0.168060	-0.573818	-0.151197
C49	C	-0.331953	-0.964094	-0.651200
C50	C	0.168047	-0.464094	-0.151200
C51	C	-0.715329	-1.518274	-0.506133
C52	C	-0.215329	-1.018274	-0.006133
C53	C	-0.822543	-1.518337	-0.506156
C54	C	-0.322543	-1.018337	-0.006156
C55	C	-1.018838	-1.518448	-0.506221
C56	C	-0.518838	-1.018448	-0.006221
C57	C	-0.909605	-1.518383	-0.506188
C58	C	-0.409605	-1.018383	-0.006188
C59	C	-0.213122	-1.518456	-0.506217
C60	C	0.286878	-1.018456	-0.006217
C61	C	-0.105908	-1.518501	-0.506240
C62	C	0.394092	-1.018501	-0.006240
C63	C	-0.464617	-1.518424	-0.780197
C64	C	0.035383	-1.018424	-0.280197
C65	C	-0.464576	-1.518456	-0.896974
C66	C	0.035424	-1.018456	-0.396974
C67	C	-0.464739	-0.792384	-0.506180
C68	C	0.035261	-0.292384	-0.006180
C69	C	-0.464718	-0.909161	-0.506169
C70	C	0.035282	-0.409161	-0.006169
C71	C	-0.402885	-1.585687	-0.951856
C72	C	0.097115	-1.085687	-0.451856
C73	C	-0.402850	-1.585712	-1.061581
C74	C	0.097150	-1.085712	-0.561581
C75	C	-0.526205	-1.451271	-1.061530
C76	C	-0.026205	-0.951271	-0.561530
C77	C	-0.526234	-1.451242	-0.951808
C78	C	-0.026234	-0.951242	-0.451808
C79	C	-0.331670	-1.663309	-0.951886
C80	C	0.168330	-1.163309	-0.451886
C81	C	-0.331636	-1.663334	-1.061611
C82	C	0.168364	-1.163334	-0.561611
C83	C	-0.464742	-1.518338	-0.233196
C84	C	0.035258	-1.018338	0.266804
C85	C	-0.464512	-1.518510	-0.116420
C86	C	0.035488	-1.018510	0.383580
H87	H	-0.352054	-0.934348	-0.732535
H88	H	0.147946	-0.434348	-0.232535
O89	O	-0.363769	-1.755406	-0.911225
O90	O	0.136231	-1.255406	-0.411225
C91	C	-0.445869	-1.736626	-0.849019
C92	C	0.054131	-1.236626	-0.349019
H93	H	-0.481324	-1.660249	-0.874641
H94	H	0.018676	-1.160249	-0.374641
H95	H	-0.498948	-1.804011	-0.858893
H96	H	0.001052	-1.304011	-0.358893
H97	H	-0.423723	-1.730434	-0.763222
H98	H	0.076277	-1.230434	-0.263222
H99	H	-0.260956	-0.930056	-0.622202
H100	H	0.239044	-0.430056	-0.122202
H101	H	-0.260655	-1.634224	-1.095660
H102	H	0.239345	-1.134224	-0.595660
O103	O	-0.355683	-1.760368	-1.097103
O104	O	0.144317	-1.260368	-0.597103
C105	C	-0.448093	-1.787136	-1.060151
C106	C	0.051907	-1.287136	-0.560151
H107	H	-0.489752	-1.712663	-1.040629
H108	H	0.010248	-1.212663	-0.540629
H109	H	-0.488150	-1.832951	-1.123223
H110	H	0.011850	-1.332951	-0.623223
H111	H	-0.441104	-1.837441	-0.986722
H112	H	0.058896	-1.337441	-0.486722
H113	H	-0.576465	-1.396492	-0.907127
H114	H	-0.076465	-0.896492	-0.407127
H115	H	-0.576403	-1.396546	-1.106189
H116	H	-0.076403	-0.896546	-0.606189
O117	O	-0.242831	-1.109521	-0.625425
O118	O	0.257169	-0.609521	-0.125425
C119	C	-0.242988	-1.220023	-0.625443
C120	C	0.257012	-0.720023	-0.125443
H121	H	-0.303975	-1.249691	-0.677270
H122	H	0.196025	-0.749691	-0.177270
H123	H	-0.171326	-1.249953	-0.657053
H124	H	0.328674	-0.749953	-0.157053
H125	H	-0.253789	-1.249779	-0.542025
H126	H	0.246211	-0.749779	-0.042025
H127	H	-0.256968	-1.641544	-0.922132
H128	H	0.243032	-1.141544	-0.422132
H129	H	-0.576460	-1.118350	-0.384020
H130	H	-0.076460	-0.618350	0.115980
H131	H	-0.576493	-0.919287	-0.384044
H132	H	-0.076493	-0.419287	0.115956
H133	H	-0.358780	-1.107882	-0.728435
H134	H	0.141220	-0.607882	-0.228435
