data_functionalizedCrystal
_audit_creation_method	'MofGen! by Chris Wilmer'
_symmetry_space_group_name_H-M	'P1'
_symmetry_Int_Tables_number	1
_symmetry_cell_setting	triclinic
loop_
_symmetry_equiv_pos_as_xyz
  x,y,z
_cell_length_a	11.169417
_cell_length_b	12.759399
_cell_length_c	11.169409
_cell_angle_alpha	89.965848
_cell_angle_beta	89.979436
_cell_angle_gamma	90.015995
loop_
_atom_site_label
_atom_site_type_symbol
_atom_site_fract_x
_atom_site_fract_y
_atom_site_fract_z
Zn1	Zn	1.834931	-0.418157	-0.678527
Zn2	Zn	1.834801	-0.593883	-0.477837
Zn3	Zn	1.634215	-0.418221	-0.477861
Zn4	Zn	1.634208	-0.593797	-0.678482
O5	O	1.734539	-0.506015	-0.578177
O6	O	2.002864	-0.441477	-0.651914
O7	O	1.808141	-0.570643	-0.309891
O8	O	1.660897	-0.271192	-0.504509
O9	O	2.002768	-0.570581	-0.504468
O10	O	1.808363	-0.271145	-0.651937
O11	O	1.660771	-0.441585	-0.309908
O12	O	1.466264	-0.441503	-0.504466
O13	O	1.660886	-0.570436	-0.846438
O14	O	1.466259	-0.570498	-0.651861
O15	O	1.808356	-0.441394	-0.846471
O16	O	1.808135	-0.740892	-0.504425
O17	O	1.660760	-0.740830	-0.651838
C18	C	1.422714	-0.505999	-0.578162
C19	C	1.289314	-0.506017	-0.578184
C20	C	1.734465	-0.778982	-0.578150
C21	C	1.734544	-0.895759	-0.578178
C22	C	1.811369	-0.950618	-0.501508
C23	C	1.811446	-1.060342	-0.501548
C24	C	1.657862	-1.060337	-0.654933
C25	C	1.657791	-0.950615	-0.654898
C26	C	1.953107	-1.210221	-0.458834
C27	C	2.029922	-1.265085	-0.382145
C28	C	2.048383	-1.229550	-0.265042
C29	C	1.990012	-1.139154	-0.224604
C30	C	1.913187	-1.084296	-0.301287
C31	C	1.894749	-1.119829	-0.418407
C32	C	1.516129	-0.800734	-0.697599
C33	C	1.439298	-0.745875	-0.774277
C34	C	1.420825	-0.781407	-0.891382
C35	C	1.479175	-0.871807	-0.931815
C36	C	1.556006	-0.926667	-0.855137
C37	C	1.574482	-0.891126	-0.738033
C38	C	2.047581	-0.506031	-0.578193
C39	C	2.180981	-0.506038	-0.578200
C40	C	1.734635	-0.505898	-0.891220
C41	C	1.734676	-0.505849	-1.024620
C42	C	1.734645	-0.231981	-0.578231
C43	C	1.734691	-0.115205	-0.578254
C44	C	1.734512	-0.506055	-0.266352
C45	C	1.734703	-0.505808	-0.132953
H46	H	1.873867	-0.905957	-0.439040
O47	O	2.092876	-1.362580	-0.425761
H48	H	2.149378	-1.394766	-0.352755
H49	H	1.938095	-1.239155	-0.554193
O50	O	1.575058	-1.119502	-0.737656
H51	H	1.587997	-1.205016	-0.724787
H52	H	2.110930	-1.274227	-0.202601
O53	O	1.618957	-1.024166	-0.898743
H54	H	1.593215	-1.039657	-0.993060
O55	O	1.459265	-0.910140	-1.058125
H56	H	1.396049	-0.856800	-1.104655
O57	O	1.337957	-0.722240	-0.974092
H58	H	1.300481	-0.653408	-0.926309
H59	H	1.391793	-0.672262	-0.741348
O60	O	1.850243	-0.986789	-0.257713
H61	H	1.793039	-1.006716	-0.179670
O62	O	2.009918	-1.100826	-0.098294
H63	H	2.073154	-1.154152	-0.051769
O64	O	1.536054	-0.762414	-0.571283
H65	H	1.482554	-0.690349	-0.556043
