data_functionalizedCrystal
_audit_creation_method	'MofGen! by Chris Wilmer'
_symmetry_space_group_name_H-M	'P1'
_symmetry_Int_Tables_number	1
_symmetry_cell_setting	triclinic
loop_
_symmetry_equiv_pos_as_xyz
  x,y,z
_cell_length_a	12.837943
_cell_length_b	12.837942
_cell_length_c	11.295483
_cell_angle_alpha	85.469583
_cell_angle_beta	85.461227
_cell_angle_gamma	85.171060
loop_
_atom_site_label
_atom_site_type_symbol
_atom_site_fract_x
_atom_site_fract_y
_atom_site_fract_z
O1	O	1.408689	-0.265788	-0.099003
O2	O	1.105556	-0.252345	-0.099010
O3	O	1.250401	-0.107500	-0.098999
O4	O	1.263845	-0.410633	-0.099013
O5	O	1.237676	-0.120201	0.099051
O6	O	1.092832	-0.265045	0.099040
O7	O	1.395965	-0.278489	0.099047
Cu8	Cu	1.243237	-0.272927	0.117127
Cu9	Cu	1.258285	-0.257907	-0.117090
O10	O	1.251121	-0.423333	0.099037
C11	C	1.060125	-0.254153	0.000014
C12	C	0.943710	-0.240609	0.000012
C13	C	1.239497	-0.074781	0.000025
C14	C	1.225953	0.041634	0.000023
C15	C	0.718835	-0.403439	0.000021
C16	C	0.609453	-0.390717	0.000020
C17	C	0.615561	-0.202446	0.000016
C18	C	0.724943	-0.215167	0.000017
C19	C	0.776576	-0.315667	0.000018
C20	C	0.885961	-0.328387	0.000011
C21	C	0.892066	-0.140117	0.000016
C22	C	0.782684	-0.127396	0.000015
C23	C	1.441396	-0.276680	0.000021
C24	C	1.557812	-0.290224	0.000015
C25	C	1.262024	-0.456052	0.000010
C26	C	1.275569	-0.572467	0.000004
N27	N	1.232661	-0.283491	0.281863
C28	C	1.388784	0.266509	0.000002
C29	C	1.376062	0.375892	-0.000000
C30	C	1.187791	0.369784	0.000008
C31	C	1.200512	0.260402	0.000010
C32	C	1.301011	0.208768	0.000009
C33	C	1.313731	0.099383	0.000020
C34	C	1.125461	0.093278	0.000019
C35	C	1.112740	0.202660	0.000017
N36	N	1.268868	-0.247335	-0.281825
C37	C	1.344996	-0.171231	0.531161
C38	C	1.337012	-0.179223	0.655824
C39	C	1.208702	-0.307459	0.655854
C40	C	1.216687	-0.299467	0.531191
C41	C	1.284837	-0.231353	0.468849
C42	C	1.292826	-0.223367	0.344183
C43	C	1.164512	-0.351597	0.344216
C44	C	1.156528	-0.359589	0.468879
H45	H	0.928000	-0.410219	0.000014
H46	H	1.053990	0.046252	0.000034
H47	H	1.101038	-0.415044	0.519653
H48	H	0.939091	-0.068646	0.000006
O49	O	1.106182	-0.410164	0.283743
C50	C	1.065226	-0.583662	0.245686
C51	C	1.131360	-0.517458	0.314221
H52	H	1.085543	-0.670421	0.270321
H53	H	1.082645	-0.566349	0.145861
H54	H	0.978466	-0.563214	0.270201
H55	H	1.218141	-0.537868	0.289806
H56	H	1.113853	-0.534779	0.414030
H57	H	1.385998	-0.130265	0.706555
O58	O	0.732559	-0.029767	0.000219
C59	C	0.697777	0.128500	0.102764
C60	C	0.754575	0.017945	0.102702
H61	H	0.715575	0.167116	0.185600
H62	H	0.609664	0.122578	0.102841
H63	H	0.726104	0.177683	0.019837
H64	H	0.726335	-0.031299	0.185615
H65	H	0.842680	0.023946	0.102563
O66	O	0.768831	-0.501134	0.000067
C67	C	0.751240	-0.686526	-0.000024
C68	C	0.694488	-0.575947	-0.000045
H69	H	0.691160	-0.747040	-0.000140
H70	H	0.796941	-0.702575	0.082879
H71	H	0.807651	-0.691816	-0.082888
H72	H	0.638026	-0.570577	0.082763
H73	H	0.648855	-0.559946	-0.083003
H74	H	0.562444	-0.462191	0.000025
O75	O	1.359040	-0.157117	0.283805
C76	C	1.485501	-0.030807	0.296939
C77	C	1.410540	-0.105781	0.365460
H78	H	1.527175	0.010702	0.362926
H79	H	1.438919	0.029782	0.238619
H80	H	1.545961	-0.077465	0.238529
H81	H	1.350064	-0.059211	0.423934
H82	H	1.457191	-0.166371	0.423704
H83	H	1.395563	0.057344	0.000023
O84	O	0.565517	-0.104768	-0.000140
C85	C	0.543782	0.066592	-0.102781
C86	C	0.600552	-0.043980	-0.102737
H87	H	0.572069	0.115764	-0.185734
H88	H	0.561494	0.105277	-0.019956
H89	H	0.455687	0.060565	-0.102718
H90	H	0.688660	-0.038046	-0.102842
H91	H	0.582753	-0.082624	-0.185555
O92	O	1.090168	0.419922	-0.000214
C93	C	0.931939	0.454710	-0.102799
C94	C	1.042483	0.397889	-0.102705
H95	H	0.893344	0.436899	-0.185640
H96	H	0.937879	0.542821	-0.102887
H97	H	0.882725	0.426414	-0.019877
H98	H	1.091757	0.426098	-0.185612
H99	H	1.036464	0.309786	-0.102554
O100	O	1.411215	-0.104988	0.470779
C101	C	1.537697	0.021302	0.483900
C102	C	1.462727	-0.053658	0.552428
H103	H	1.579382	0.062806	0.549883
H104	H	1.491122	0.081896	0.425580
H105	H	1.598149	-0.025366	0.425490
H106	H	1.402260	-0.007078	0.610902
H107	H	1.509373	-0.114253	0.610673
H108	H	1.470613	0.224468	0.000013
H109	H	1.447536	0.422901	-0.000010
H110	H	1.030916	0.244716	0.000013
H111	H	1.153209	-0.362909	0.706630
