data_functionalizedCrystal
_audit_creation_method	'MofGen! by Chris Wilmer'
_symmetry_space_group_name_H-M	'P1'
_symmetry_Int_Tables_number	1
_symmetry_cell_setting	triclinic
loop_
_symmetry_equiv_pos_as_xyz
  x,y,z
_cell_length_a	12.594517
_cell_length_b	19.121111
_cell_length_c	12.594509
_cell_angle_alpha	87.592149
_cell_angle_beta	89.978673
_cell_angle_gamma	87.529857
loop_
_atom_site_label
_atom_site_type_symbol
_atom_site_fract_x
_atom_site_fract_y
_atom_site_fract_z
Zn1	Zn	1.609096	0.279596	-0.619896
Zn2	Zn	1.601353	0.397059	-0.449494
Zn3	Zn	1.431098	0.279626	-0.441927
Zn4	Zn	1.423452	0.397010	-0.627421
O5	O	1.516250	0.338323	-0.534684
O6	O	1.757014	0.295185	-0.597309
O7	O	1.578728	0.381514	-0.299547
O8	O	1.461150	0.181338	-0.459218
O9	O	1.751325	0.381485	-0.472116
O10	O	1.591925	0.181315	-0.589971
O11	O	1.453642	0.295237	-0.293987
O12	O	1.281138	0.295189	-0.466515
O13	O	1.448118	0.381402	-0.775367
O14	O	1.275521	0.381431	-0.602797
O15	O	1.584510	0.295138	-0.769838
O16	O	1.571313	0.495337	-0.479413
O17	O	1.440610	0.495301	-0.610135
C18	C	1.239710	0.338309	-0.534652
C19	C	1.121403	0.338319	-0.534665
C20	C	1.055179	0.291349	-0.460672
C21	C	0.980205	0.355414	-0.438625
C22	C	0.985577	0.274285	-0.556732
C23	C	1.047985	0.402419	-0.512569
C24	C	1.053366	0.321246	-0.630718
C25	C	0.978421	0.385356	-0.608711
C26	C	1.504321	0.520803	-0.546435
C27	C	1.499315	0.598868	-0.551498
C28	C	1.565066	0.635539	-0.485873
C29	C	1.560364	0.708890	-0.490641
C30	C	1.489905	0.745569	-0.561029
C31	C	1.424151	0.708893	-0.626661
C32	C	1.428859	0.635544	-0.621898
C33	C	1.472288	0.967038	-0.578817
C34	C	1.467583	1.040393	-0.583573
C35	C	1.603798	1.040385	-0.447553
C36	C	1.608496	0.967034	-0.442792
C37	C	1.542745	0.930365	-0.508428
C38	C	1.485095	0.820546	-0.565901
C39	C	1.547562	0.855389	-0.503560
C40	C	1.793870	0.338337	-0.534718
C41	C	1.912175	0.338343	-0.534732
C42	C	1.516325	0.338261	-0.812302
C43	C	1.516357	0.338235	-0.930605
C44	C	1.528245	1.155130	-0.522925
C45	C	1.533334	1.077064	-0.517948
C46	C	1.442197	0.385127	-1.002864
C47	C	1.538203	0.402288	-1.074761
C48	C	1.420430	0.321032	-1.069504
C49	C	1.612411	0.355429	-1.000947
C50	C	1.494575	0.274143	-0.995682
C51	C	1.590649	0.291280	-1.067545
C52	C	1.516239	0.338333	-0.258144
C53	C	1.516426	0.338162	-0.139828
H54	H	1.622437	0.605680	-0.428551
H55	H	1.410219	1.070255	-0.640910
H56	H	1.556664	0.456457	-1.109361
O57	O	0.941959	0.372545	-0.341684
C58	C	0.981195	0.322891	-0.263865
H59	H	1.004418	0.271782	-0.303022
H60	H	1.053865	0.343738	-0.223814
C61	C	0.865993	0.372306	-0.131972
C62	C	0.894508	0.309531	-0.180065
H63	H	0.812523	0.364067	-0.080277
H64	H	0.839562	0.405761	-0.184399
H65	H	0.926560	0.389672	-0.098605
H66	H	0.833945	0.292171	-0.213442
H67	H	0.920927	0.276073	-0.127641
O68	O	1.365038	0.599995	-0.685799
C69	C	1.387120	0.617840	-0.793062
H70	H	1.424612	0.671076	-0.798758
H71	H	1.444483	0.576513	-0.826274
C72	C	1.237059	0.555861	-0.850672
C73	C	1.283099	0.621249	-0.857670
H74	H	1.172896	0.557961	-0.890528
H75	H	1.222183	0.543836	-0.778408
H76	H	1.284872	0.521429	-0.878348
H77	H	1.235292	0.655678	-0.829982
H78	H	1.297964	0.633281	-0.929931
H79	H	0.945010	0.425134	-0.671315
H80	H	1.693584	0.370011	-0.970928
O81	O	1.472394	0.209594	-0.954241
C82	C	1.379914	0.214714	-0.891432
H83	H	1.367938	0.270570	-0.864031
H84	H	1.308271	0.200735	-0.940316
C85	C	1.406562	0.095134	-0.827457
C86	C	1.391857	0.163736	-0.793795
H87	H	1.413925	0.063687	-0.767232
H88	H	1.468865	0.091684	-0.869775
H89	H	1.346856	0.083495	-0.868194
H90	H	1.451568	0.175377	-0.753070
H91	H	1.329564	0.167187	-0.751468
O92	O	1.080561	0.467059	-0.490068
C93	C	1.042389	0.485063	-0.389127
H94	H	0.969674	0.453733	-0.368422
H95	H	1.107064	0.472581	-0.327053
C96	C	1.100861	0.602392	-0.416116
C97	C	1.011546	0.563917	-0.390689
H98	H	1.081841	0.651033	-0.417076
H99	H	1.126583	0.590262	-0.484120
H100	H	1.154749	0.591982	-0.364383
H101	H	0.957666	0.574320	-0.442428
H102	H	0.985815	0.576051	-0.322693
O103	O	1.091658	0.303858	-0.727520
C104	C	1.060052	0.236269	-0.750453
H105	H	1.042096	0.205910	-0.673155
H106	H	0.985755	0.240752	-0.802392
C107	C	1.172203	0.234681	-0.904700
C108	C	1.150158	0.197391	-0.809760
H109	H	1.227781	0.210700	-0.941287
H110	H	1.193494	0.280218	-0.889252
H111	H	1.110281	0.238414	-0.947969
H112	H	1.212075	0.193666	-0.766487
H113	H	1.128879	0.151852	-0.825201
O114	O	1.665492	0.243935	-1.101492
C115	C	1.664149	0.244015	-1.213438
H116	H	1.583160	0.264897	-1.243923
H117	H	1.728515	0.278903	-1.246611
C118	C	1.784606	0.143119	-1.212286
C119	C	1.685132	0.168761	-1.249728
H120	H	1.797554	0.096700	-1.234673
H121	H	1.785515	0.143067	-1.136867
H122	H	1.838233	0.172199	-1.239934
H123	H	1.631506	0.139687	-1.222070
H124	H	1.684214	0.168808	-1.325144
H125	H	1.339278	0.306512	-1.099658
O126	O	1.408452	0.931504	-0.642716
C127	C	1.430515	0.949352	-0.749981
H128	H	1.468026	1.002582	-0.755681
H129	H	1.487855	0.908019	-0.783212
C130	C	1.280416	0.887400	-0.807564
C131	C	1.326479	0.952781	-0.814565
H132	H	1.216243	0.889512	-0.847405
H133	H	1.265553	0.875373	-0.735298
H134	H	1.328210	0.852963	-0.835255
H135	H	1.278690	0.987215	-0.786863
H136	H	1.341331	0.964813	-0.886829
O137	O	1.095153	0.243919	-0.386007
C138	C	1.061962	0.176610	-0.408425
H139	H	0.986630	0.181662	-0.458809
H140	H	1.127276	0.147485	-0.453760
C141	C	1.131762	0.129397	-0.241730
C142	C	1.039232	0.135602	-0.303605
H143	H	1.117746	0.104099	-0.177073
H144	H	1.154127	0.174744	-0.226628
H145	H	1.186182	0.105128	-0.279521
H146	H	0.984819	0.159878	-0.265819
H147	H	1.016857	0.090258	-0.318698
O148	O	0.952525	0.209706	-0.578916
C149	C	0.840520	0.210783	-0.579621
H150	H	0.808097	0.255477	-0.530163
H151	H	0.810497	0.218852	-0.664825
C152	C	0.842350	0.085789	-0.592846
C153	C	0.802527	0.140680	-0.532094
H154	H	0.818912	0.042546	-0.563535
H155	H	0.917809	0.085063	-0.592376
H156	H	0.817327	0.092523	-0.663846
H157	H	0.827560	0.133950	-0.461101
H158	H	0.727070	0.141403	-0.532552
O159	O	1.624273	0.744404	-0.426781
C160	C	1.687484	0.696301	-0.363648
H161	H	1.647240	0.644041	-0.356531
H162	H	1.768807	0.688435	-0.402183
C163	C	1.750469	0.789164	-0.260982
C164	C	1.701036	0.724979	-0.252234
H165	H	1.758834	0.806855	-0.192259
H166	H	1.707886	0.821572	-0.303519
H167	H	1.818233	0.782600	-0.293099
H168	H	1.633269	0.731546	-0.220130
H169	H	1.743608	0.692573	-0.209689
O170	O	1.677043	0.931515	-0.374399
C171	C	1.734055	0.979611	-0.317481
H172	H	1.734356	1.031875	-0.364470
H173	H	1.694625	0.987471	-0.237114
C174	C	1.848817	0.886741	-0.242683
C175	C	1.849195	0.950931	-0.300400
H176	H	1.919840	0.869049	-0.232142
H177	H	1.810405	0.854337	-0.281026
H178	H	1.815954	0.893300	-0.175716
H179	H	1.882046	0.944370	-0.367370
H180	H	1.887616	0.983333	-0.262068
H181	H	1.604934	0.825523	-0.446254
O182	O	1.367318	0.432408	-0.968801
C183	C	1.292495	0.397535	-0.904949
H184	H	1.292989	0.339999	-0.925353
H185	H	1.314071	0.401701	-0.817607
C186	C	1.180343	0.502202	-0.900563
C187	C	1.180944	0.431537	-0.925629
H188	H	1.111533	0.523177	-0.913315
H189	H	1.230754	0.525698	-0.943578
H190	H	1.198328	0.505664	-0.827779
H191	H	1.162972	0.428076	-0.998415
H192	H	1.130527	0.408041	-0.882627
H193	H	1.657330	1.070249	-0.394118
H194	H	1.366786	0.738763	-0.683977
H195	H	1.427725	0.850418	-0.623210
