data_functionalizedCrystal
_audit_creation_method	'MofGen! by Chris Wilmer'
_symmetry_space_group_name_H-M	'P1'
_symmetry_Int_Tables_number	1
_symmetry_cell_setting	triclinic
loop_
_symmetry_equiv_pos_as_xyz
  x,y,z
_cell_length_a	14.853567
_cell_length_b	14.044220
_cell_length_c	13.930277
_cell_angle_alpha	89.994760
_cell_angle_beta	89.995755
_cell_angle_gamma	88.411904
loop_
_atom_site_label
_atom_site_type_symbol
_atom_site_fract_x
_atom_site_fract_y
_atom_site_fract_z
O1	O	1.206174	0.123767	-0.079767
O2	O	0.944883	0.138510	-0.079784
O3	O	1.071607	-0.006851	-0.079766
O4	O	1.079450	0.269128	-0.079785
O5	O	1.071587	-0.006854	0.079896
O6	O	0.944863	0.138507	0.079878
O7	O	1.206155	0.123764	0.079895
Zn8	Zn	1.075506	0.131135	0.105236
Zn9	Zn	1.075532	0.131139	-0.105125
O10	O	1.079431	0.269125	0.079877
C11	C	0.911231	0.137841	0.000045
C12	C	0.810989	0.135839	0.000039
C13	C	0.390944	0.041029	0.000067
C14	C	0.383345	0.213721	0.000054
C15	C	0.477528	0.215604	0.000051
C16	C	0.528423	0.130197	0.000054
C17	C	0.485135	0.042908	0.000061
C18	C	0.520822	0.302891	0.000035
C19	C	0.615011	0.304777	0.000031
C20	C	0.665908	0.219369	0.000041
C21	C	0.622615	0.132077	0.000048
C22	C	0.673510	0.046670	0.000052
C23	C	0.630218	-0.040623	0.000066
C24	C	0.536032	-0.042499	0.000071
C25	C	0.760094	0.221246	0.000036
C26	C	0.767702	0.048550	0.000046
C27	C	1.068163	-0.042172	0.000065
C28	C	1.057921	-0.147411	0.000066
C29	C	1.039197	-0.340097	0.000051
C30	C	1.111836	-0.397635	0.000052
C31	C	1.101418	-0.504852	0.000044
C32	C	1.049614	-0.232870	0.000059
C33	C	1.239806	0.124433	0.000064
C34	C	1.340048	0.126435	0.000064
C35	C	1.082874	0.304446	0.000044
C36	C	1.093116	0.409685	0.000037
N37	N	1.075495	0.131132	0.248802
N38	N	1.075549	0.131135	-0.248691
C39	C	1.019414	0.195480	0.701064
C40	C	1.131673	0.066791	0.701049
C41	C	1.131663	0.066788	0.600553
C42	C	1.075527	0.131133	0.550308
C43	C	1.019403	0.195481	0.600559
C44	C	1.187792	0.002448	0.550295
C45	C	1.187784	0.002443	0.449793
C46	C	1.131644	0.066784	0.399546
C47	C	1.075517	0.131134	0.449803
C48	C	1.019382	0.195479	0.399558
C49	C	0.963249	0.259825	0.449813
C50	C	0.963263	0.259822	0.550312
C51	C	1.131630	0.066787	0.299047
C52	C	1.019371	0.195480	0.299053
H53	H	0.671670	-0.110161	0.000062
C54	C	1.205139	-0.355828	-0.000078
C55	C	1.215339	-0.299661	-0.082200
C56	C	1.301269	-0.261120	-0.082343
H57	H	1.249429	-0.405933	-0.000124
H58	H	1.212213	-0.317663	0.055576
H59	H	1.208274	-0.337824	-0.137840
H60	H	1.171069	-0.249541	-0.082172
H61	H	1.308343	-0.222954	-0.026689
H62	H	1.345552	-0.311230	-0.082386
H63	H	1.308198	-0.222999	-0.138057
C64	C	1.248453	-0.067675	0.395231
C65	C	1.195599	-0.125766	0.337680
C66	C	1.251401	-0.190457	0.287447
H67	H	1.281801	-0.106075	0.439536
H68	H	1.288804	-0.033748	0.355872
H69	H	1.155264	-0.159690	0.377036
H70	H	1.162253	-0.087392	0.293357
H71	H	1.291752	-0.156529	0.248088
H72	H	1.284746	-0.228850	0.331760
H73	H	1.215548	-0.229873	0.248387
C74	C	0.958571	0.265391	0.244383
C75	C	1.011257	0.323505	0.186658
C76	C	0.955280	0.387910	0.136273
H77	H	0.925127	0.303801	0.288598
H78	H	0.918310	0.231244	0.205129
H79	H	1.051502	0.357649	0.225908
H80	H	1.044699	0.285121	0.142425
H81	H	0.915019	0.353762	0.097020
H82	H	0.921839	0.426313	0.180496
H83	H	0.991018	0.427341	0.097095
H84	H	0.969191	-0.371358	0.000044
C85	C	0.662135	0.399476	0.000159
C86	C	0.716004	0.405594	0.082283
C87	C	0.759442	0.492809	0.082424
H88	H	0.618439	0.450158	0.000202
H89	H	0.698771	0.403797	-0.055494
H90	H	0.679371	0.401283	0.137922
H91	H	0.759716	0.354932	0.082257
H92	H	0.796078	0.497130	0.026771
H93	H	0.715740	0.543484	0.082464
H94	H	0.796004	0.496968	0.138139
C95	C	1.192433	-0.003088	0.244349
C96	C	1.139757	-0.061205	0.186635
C97	C	1.195746	-0.125570	0.136219
H98	H	1.225900	-0.041500	0.288545
H99	H	1.232672	0.031090	0.205084
H100	H	1.099534	-0.095380	0.225896
H101	H	1.106291	-0.022820	0.142422
H102	H	1.235985	-0.091392	0.096955
H103	H	1.229210	-0.163975	0.180422
H104	H	1.160014	-0.165004	0.097048
H105	H	0.917547	0.312219	0.408892
H106	H	0.917562	0.312211	0.591236
H107	H	0.973709	0.247867	0.741984
H108	H	1.177382	0.014408	0.741962
C109	C	1.248576	-0.067516	0.604906
C110	C	1.195874	-0.125650	0.662593
C111	C	1.251833	-0.190123	0.712913
H112	H	1.288861	-0.033451	0.644185
H113	H	1.281991	-0.105896	0.560623
H114	H	1.162474	-0.087274	0.706870
H115	H	1.155591	-0.159736	0.623338
H116	H	1.285249	-0.228504	0.668631
H117	H	1.292116	-0.156050	0.752187
H118	H	1.216083	-0.229581	0.752053
C119	C	0.822910	-0.044211	-0.000150
C120	C	0.802305	-0.096750	-0.082298
C121	C	0.853154	-0.182199	-0.082518
H122	H	0.809083	-0.080110	0.055467
H123	H	0.885215	-0.030632	-0.000211
H124	H	0.740015	-0.110331	-0.082228
H125	H	0.816137	-0.060879	-0.137928
H126	H	0.915459	-0.168620	-0.082579
H127	H	0.839323	-0.218090	-0.026897
H128	H	0.839187	-0.217853	-0.138258
C129	C	0.489146	-0.137335	-0.000075
C130	C	0.514371	-0.188976	-0.082204
C131	C	0.471202	-0.276346	-0.082370
H132	H	0.425756	-0.126353	-0.000127
H133	H	0.506157	-0.172563	0.055574
H134	H	0.497354	-0.153756	-0.137840
H135	H	0.577754	-0.199983	-0.082170
H136	H	0.488213	-0.311574	-0.026721
H137	H	0.407814	-0.265354	-0.082420
H138	H	0.488318	-0.311399	-0.138089
H139	H	0.341900	0.283255	0.000044
C140	C	0.343781	-0.053648	0.000033
C141	C	0.250402	-0.037022	0.000018
C142	C	0.206927	-0.124215	-0.000027
H143	H	0.360677	-0.088891	0.055696
H144	H	0.360727	-0.088825	-0.055667
H145	H	0.233464	-0.001860	0.055711
H146	H	0.233481	-0.001794	-0.055642
H147	H	0.223873	-0.159393	-0.055726
H148	H	0.223830	-0.159451	0.055637
H149	H	0.143566	-0.112947	-0.000046
C150	C	0.465450	0.395538	-0.000117
C151	C	0.411133	0.399486	-0.082239
C152	C	0.360098	0.484814	-0.082403
H153	H	0.504609	0.447875	-0.000177
H154	H	0.428501	0.398395	0.055537
H155	H	0.448079	0.396638	-0.137879
H156	H	0.371956	0.347169	-0.082197
H157	H	0.323148	0.487671	-0.026749
H158	H	0.399264	0.537144	-0.082460
H159	H	0.323232	0.487500	-0.138117
C160	C	0.807146	0.315981	-0.000177
C161	C	0.860984	0.322112	-0.082333
C162	C	0.904332	0.409378	-0.082566
H163	H	0.843797	0.320400	0.055435
H164	H	0.763373	0.366606	-0.000234
H165	H	0.904751	0.271502	-0.082267
H166	H	0.824355	0.317710	-0.137957
H167	H	0.860559	0.460003	-0.082623
H168	H	0.940977	0.413789	-0.026951
H169	H	0.940859	0.413553	-0.138311
