data_functionalizedCrystal
_audit_creation_method	'MofGen! by Chris Wilmer'
_symmetry_space_group_name_H-M	'P1'
_symmetry_Int_Tables_number	1
_symmetry_cell_setting	triclinic
loop_
_symmetry_equiv_pos_as_xyz
  x,y,z
_cell_length_a	12.759401
_cell_length_b	18.101397
_cell_length_c	12.759393
_cell_angle_alpha	89.962298
_cell_angle_beta	89.981425
_cell_angle_gamma	90.020892
loop_
_atom_site_label
_atom_site_type_symbol
_atom_site_fract_x
_atom_site_fract_y
_atom_site_fract_z
Zn1	Zn	1.606213	-0.294777	-0.593940
Zn2	Zn	1.606090	-0.418639	-0.418242
Zn3	Zn	1.430515	-0.294817	-0.418279
Zn4	Zn	1.430486	-0.418582	-0.593883
O5	O	1.518326	-0.356704	-0.506086
O6	O	1.753218	-0.311215	-0.570642
O7	O	1.582760	-0.402254	-0.271226
O8	O	1.453885	-0.191178	-0.441621
O9	O	1.753127	-0.402215	-0.441557
O10	O	1.582970	-0.191149	-0.570678
O11	O	1.453766	-0.311282	-0.271253
O12	O	1.283490	-0.311227	-0.441565
O13	O	1.453836	-0.402119	-0.740912
O14	O	1.283469	-0.402157	-0.570580
O15	O	1.582942	-0.311160	-0.740954
O16	O	1.582732	-0.522264	-0.441501
O17	O	1.453716	-0.522223	-0.570544
C18	C	1.245358	-0.356691	-0.506071
C19	C	1.128582	-0.356703	-0.506090
C20	C	1.073768	-0.309405	-0.573408
C21	C	0.964044	-0.309412	-0.573415
C22	C	0.963958	-0.404023	-0.438783
C23	C	1.073680	-0.404011	-0.438771
C24	C	1.518236	-0.549114	-0.506035
C25	C	1.518294	-0.631428	-0.506049
C26	C	1.518428	-0.930519	-0.506144
C27	C	1.599374	-0.899189	-0.424737
C28	C	1.599655	-0.813571	-0.424948
C29	C	1.518361	-0.782137	-0.506096
C30	C	1.548380	-0.813134	-0.616837
C31	C	1.549006	-0.898779	-0.616393
C32	C	1.407247	-0.899031	-0.477770
C33	C	1.407796	-0.813382	-0.475298
C34	C	1.518322	-0.698277	-0.506075
C35	C	1.518470	-1.014379	-0.506172
C36	C	1.792359	-0.356717	-0.506102
C37	C	1.909136	-0.356723	-0.506108
C38	C	1.518399	-0.356629	-0.780120
C39	C	1.518430	-0.356597	-0.896896
C40	C	1.518445	-0.163542	-0.506160
C41	C	1.518495	-0.081228	-0.506192
C42	C	1.451287	-0.309219	-0.951772
C43	C	1.451312	-0.309197	-1.061496
C44	C	1.585631	-0.403931	-1.061459
C45	C	1.585601	-0.403957	-0.951737
C46	C	1.518313	-0.356725	-0.233119
C47	C	1.518485	-0.356548	-0.116343
H48	H	1.118311	-0.442528	-0.383947
H49	H	1.640279	-0.442540	-0.907056
H50	H	1.344240	-0.791992	-0.530249
Br51	Br	0.889441	-0.468225	-0.347428
Br52	Br	1.676787	-0.468202	-1.135892
H53	H	1.396593	-0.270656	-0.907124
H54	H	1.379939	-0.920699	-0.398418
Br55	Br	1.148275	-0.245200	-0.664766
Br56	Br	1.568274	-0.778641	-0.288105
H57	H	0.919419	-0.270896	-0.628230
Br58	Br	1.568459	-0.933610	-0.287460
Br59	Br	1.736921	-0.779320	-0.456243
Br60	Br	1.735894	-0.934963	-0.455662
H61	H	1.396636	-0.270618	-1.106171
H62	H	1.630274	-0.918696	-0.640430
H63	H	1.492631	-0.919501	-0.679138
Br64	Br	1.453110	-0.779207	-0.720654
Br65	Br	1.682316	-0.777286	-0.657582
H66	H	1.385161	-0.793131	-0.393801
H67	H	1.346935	-0.919292	-0.537062
