data_functionalizedCrystal
_audit_creation_method	'MofGen! by Chris Wilmer'
_symmetry_space_group_name_H-M	'P1'
_symmetry_Int_Tables_number	1
_symmetry_cell_setting	triclinic
loop_
_symmetry_equiv_pos_as_xyz
  x,y,z
_cell_length_a	23.532407
_cell_length_b	23.532355
_cell_length_c	16.776229
_cell_angle_alpha	89.998671
_cell_angle_beta	89.999121
_cell_angle_gamma	97.161913
loop_
_atom_site_label
_atom_site_type_symbol
_atom_site_fract_x
_atom_site_fract_y
_atom_site_fract_z
O1	O	-0.068995	0.755281	-0.066167
O2	O	-0.079030	0.589413	-0.066191
O3	O	0.008920	0.677349	-0.066188
O4	O	-0.156945	0.667345	-0.066170
O5	O	0.008925	0.677337	0.066388
O6	O	-0.079024	0.589402	0.066386
O7	O	-0.068990	0.755269	0.066409
Zn8	Zn	-0.074006	0.672333	0.087447
Zn9	Zn	-0.074013	0.672349	-0.087228
O10	O	-0.156940	0.667334	0.066407
C11	C	-0.078776	0.568191	0.000094
C12	C	-0.078022	0.504972	0.000085
C13	C	-0.073281	0.112952	0.072385
C14	C	-0.072564	0.053553	0.072388
O15	O	-0.072171	0.022829	0.133848
N16	N	-0.072211	0.023850	0.000121
C17	C	-0.072570	0.053552	-0.072154
O18	O	-0.072203	0.022833	-0.133623
C19	C	-0.073283	0.112950	-0.072156
C20	C	-0.073641	0.142649	0.000115
C21	C	-0.073639	0.142650	0.144651
C22	C	-0.074357	0.202046	0.144648
C23	C	-0.074718	0.231742	0.072378
C24	C	-0.074360	0.202044	0.000112
C25	C	-0.073638	0.142651	-0.144431
C26	C	-0.074351	0.202054	-0.144427
C27	C	-0.074709	0.231752	-0.072155
C28	C	-0.075439	0.291136	-0.072161
N29	N	-0.075792	0.320838	0.000107
C30	C	-0.075431	0.291141	0.072376
C31	C	-0.071070	-0.071190	-0.072144
C32	C	-0.070361	-0.130588	-0.072143
C33	C	-0.070354	-0.130583	0.072400
C34	C	-0.071068	-0.071184	0.072397
C35	C	-0.071423	-0.041488	0.000123
C36	C	-0.076941	0.415875	0.072364
C37	C	-0.077662	0.475275	0.072354
C38	C	-0.077665	0.475265	-0.072188
C39	C	-0.076948	0.415870	-0.072179
C40	C	-0.076583	0.386177	0.000104
O41	O	-0.075830	0.321898	-0.133589
O42	O	-0.075790	0.321868	0.133834
C43	C	-0.178158	0.667594	0.000121
C44	C	-0.241375	0.668360	0.000129
C45	C	-0.640487	0.621125	0.000081
C46	C	-0.699887	0.621837	0.000076
O47	O	-0.736640	0.578050	0.000040
N48	N	-0.722504	0.674114	0.000084
C49	C	-0.685717	0.725684	0.000090
O50	O	-0.710408	0.770216	0.000096
C51	C	-0.626318	0.724972	0.000090
C52	C	-0.603705	0.672691	0.000090
C53	C	-0.617874	0.568849	0.000080
C54	C	-0.558478	0.568137	0.000087
C55	C	-0.521695	0.619703	0.000095
C56	C	-0.544309	0.671980	0.000097
C57	C	-0.589532	0.776541	0.000090
C58	C	-0.530129	0.775824	0.000089
C59	C	-0.507516	0.723543	0.000089
C60	C	-0.448130	0.722834	0.000112
N61	N	-0.425514	0.670556	0.000103
C62	C	-0.462296	0.618991	0.000095
C63	C	-0.810459	0.727175	0.000089
C64	C	-0.869857	0.727888	0.000095
C65	C	-0.884023	0.624041	0.000079
C66	C	-0.824624	0.623329	0.000079
C67	C	-0.787842	0.674898	0.000081
C68	C	-0.337560	0.617501	0.000110
C69	C	-0.278158	0.616794	0.000121
C70	C	-0.263996	0.720642	0.000132
C71	C	-0.323393	0.721349	0.000126
C72	C	-0.360174	0.669774	0.000112
O73	O	-0.411343	0.766598	0.000144
O74	O	-0.437597	0.574467	0.000079
C75	C	0.030139	0.677088	0.000096
C76	C	0.093356	0.676322	0.000083
C77	C	-0.069244	0.776491	0.000123
C78	C	-0.069998	0.839710	0.000127
N79	N	-0.074001	0.672327	0.206658
N80	N	-0.074014	0.672360	-0.206440
C81	C	-0.035073	0.711277	0.248376
C82	C	-0.035072	0.711280	0.331828
C83	C	-0.074003	0.672336	0.373561
C84	C	-0.112933	0.633382	0.331837
C85	C	-0.112931	0.633377	0.248386
C86	C	-0.112945	0.633403	0.668384
C87	C	-0.112945	0.633412	0.751841
C88	C	-0.035086	0.711306	0.751826
C89	C	-0.035083	0.711301	0.668376
C90	C	-0.074011	0.672345	0.626659
C91	C	-0.074011	0.672341	0.536171
C92	C	-0.074007	0.672342	0.464048
H93	H	-0.071365	-0.047016	-0.131002
H94	H	-0.144642	0.601685	0.634425
H95	H	-0.076649	0.391705	0.131223
N96	N	-0.154920	0.591373	0.376844
H97	H	-0.149017	0.597287	0.436040
H98	H	-0.195289	0.597718	0.362253
H99	H	-0.647817	0.526855	0.000071
N100	N	-0.377225	0.561876	0.000095
H101	H	-0.353879	0.528655	0.000096
H102	H	-0.402182	0.559902	0.049240
N103	N	0.006914	0.753285	0.203368
H104	H	0.031575	0.777958	0.242462
H105	H	0.031979	0.731624	0.168747
H106	H	-0.341805	0.763920	0.000138
N107	N	-0.534092	0.511748	0.000092
H108	H	-0.566414	0.479195	0.000087
H109	H	-0.509753	0.509189	-0.049053
N110	N	-0.069983	-0.162618	-0.150093
H111	H	-0.070321	-0.134787	-0.195871
H112	H	-0.034375	-0.182440	-0.153247
N113	N	-0.800237	0.566941	0.000082
H114	H	-0.832557	0.534385	0.000080
H115	H	-0.775900	0.564382	-0.049066
N116	N	-0.078051	0.507299	-0.150135
H117	H	-0.113656	0.527126	-0.153356
H118	H	-0.043014	0.536733	-0.153303
H119	H	-0.073345	0.118481	-0.203282
H120	H	-0.144649	0.601697	0.785818
N121	N	-0.224313	0.776253	0.000145
H122	H	-0.199351	0.778270	-0.049000
H123	H	-0.247685	0.809453	0.000176
H124	H	-0.070060	-0.154773	0.131245
H125	H	-0.003374	0.742995	0.365795
N126	N	-0.078043	0.507310	0.150305
H127	H	-0.113651	0.527132	0.153532
H128	H	-0.077681	0.479450	0.196042
H129	H	-0.003384	0.743014	0.634400
N130	N	-0.074739	0.234085	-0.222380
H131	H	-0.039727	0.263550	-0.225606
H132	H	-0.074425	0.206217	-0.268114
H133	H	-0.076665	0.391687	-0.131028
N134	N	-0.154921	0.591366	0.203393
H135	H	-0.180023	0.612980	0.168762
H136	H	-0.133246	0.566282	0.168824
N137	N	-0.074744	0.234073	0.222598
H138	H	-0.074406	0.206240	0.268375
H139	H	-0.039730	0.263538	0.225748
H140	H	-0.003387	0.743024	0.785801
H141	H	-0.259750	0.574219	0.000124
H142	H	-0.071360	-0.047008	0.131248
N143	N	-0.073248	0.110627	0.222605
H144	H	-0.073195	0.138514	0.268376
H145	H	-0.108460	0.081427	0.225997
N146	N	-0.923706	0.568424	0.000070
H147	H	-0.948663	0.566414	-0.049079
H148	H	-0.900333	0.535225	0.000097
N149	N	-0.894243	0.784276	0.000113
H150	H	-0.861923	0.816832	0.000120
H151	H	-0.918576	0.786842	-0.049037
N152	N	-0.770788	0.782800	0.000100
H153	H	-0.794133	0.816022	0.000108
H154	H	-0.745837	0.784763	0.049250
H155	H	-0.500183	0.817819	0.000086
N156	N	-0.613911	0.832930	0.000092
H157	H	-0.581589	0.865483	0.000092
H158	H	-0.638244	0.835493	-0.049058
