data_functionalizedCrystal
_audit_creation_method	'MofGen! by Chris Wilmer'
_symmetry_space_group_name_H-M	'P1'
_symmetry_Int_Tables_number	1
_symmetry_cell_setting	triclinic
loop_
_symmetry_equiv_pos_as_xyz
  x,y,z
_cell_length_a	16.625547
_cell_length_b	18.050589
_cell_length_c	16.625539
_cell_angle_alpha	90.024824
_cell_angle_beta	90.024822
_cell_angle_gamma	90.028158
loop_
_atom_site_label
_atom_site_type_symbol
_atom_site_fract_x
_atom_site_fract_y
_atom_site_fract_z
Zn1	Zn	1.232648	-0.295659	0.456020
Zn2	Zn	1.482648	-0.045659	0.706020
Zn3	Zn	1.732648	0.204341	0.956020
Zn4	Zn	1.982648	0.454341	1.206020
Zn5	Zn	1.232538	-0.419857	0.321196
Zn6	Zn	1.482538	-0.169857	0.571196
Zn7	Zn	1.732538	0.080143	0.821196
Zn8	Zn	1.982538	0.330143	1.071196
Zn9	Zn	1.097810	-0.295685	0.321191
Zn10	Zn	1.347810	-0.045685	0.571191
Zn11	Zn	1.597810	0.204315	0.821191
Zn12	Zn	1.847810	0.454315	1.071191
Zn13	Zn	1.097767	-0.419812	0.455976
Zn14	Zn	1.347767	-0.169812	0.705976
Zn15	Zn	1.597767	0.080188	0.955976
Zn16	Zn	1.847767	0.330188	1.205976
O17	O	1.165191	-0.357753	0.388596
O18	O	1.415191	-0.107753	0.638596
O19	O	1.665191	0.142247	0.888596
O20	O	1.915191	0.392247	1.138596
O21	O	1.345466	-0.312142	0.438156
O22	O	1.595466	-0.062142	0.688156
O23	O	1.845466	0.187858	0.938156
O24	O	2.095466	0.437858	1.188156
O25	O	1.214638	-0.403415	0.208363
O26	O	1.464638	-0.153415	0.458363
O27	O	1.714638	0.096585	0.708363
O28	O	1.964638	0.346585	0.958363
O29	O	1.115761	-0.191757	0.339093
O30	O	1.365761	0.058243	0.589093
O31	O	1.615761	0.308243	0.839093
O32	O	1.865761	0.558243	1.089093
O33	O	1.345385	-0.403390	0.339101
O34	O	1.595385	-0.153390	0.589101
O35	O	1.845385	0.096610	0.839101
O36	O	2.095385	0.346610	1.089101
O37	O	1.214826	-0.191738	0.438152
O38	O	1.464826	0.058262	0.688152
O39	O	1.714826	0.308262	0.938152
O40	O	1.964826	0.558262	1.188152
O41	O	1.115654	-0.312187	0.208359
O42	O	1.365654	-0.062187	0.458359
O43	O	1.615654	0.187813	0.708359
O44	O	1.865654	0.437813	0.958359
O45	O	0.984972	-0.312143	0.339050
O46	O	1.234972	-0.062143	0.589050
O47	O	1.484972	0.187857	0.839050
O48	O	1.734972	0.437857	1.089050
O49	O	1.115687	-0.403313	0.568814
O50	O	1.365687	-0.153313	0.818814
O51	O	1.615687	0.096687	1.068814
O52	O	1.865687	0.346687	1.318814
O53	O	0.984940	-0.403338	0.438075
O54	O	1.234940	-0.153338	0.688075
O55	O	1.484940	0.096662	0.938075
O56	O	1.734940	0.346662	1.188075
O57	O	1.214784	-0.312099	0.568847
O58	O	1.464784	-0.062099	0.818847
O59	O	1.714784	0.187901	1.068847
O60	O	1.964784	0.437901	1.318847
O61	O	1.214596	-0.523776	0.339058
O62	O	1.464596	-0.273776	0.589058
O63	O	1.714596	-0.023776	0.839058
O64	O	1.964596	0.226224	1.089058
O65	O	1.115580	-0.523742	0.438080
O66	O	1.365580	-0.273742	0.688080
O67	O	1.615580	-0.023742	0.938080
O68	O	1.865580	0.226258	1.188080
C69	C	0.955700	-0.357739	0.388558
C70	C	1.205700	-0.107739	0.638558
C71	C	1.455700	0.142261	0.888558
C72	C	1.705700	0.392261	1.138558
C73	C	0.866079	-0.357751	0.388560
C74	C	1.116079	-0.107751	0.638560
C75	C	1.366079	0.142249	0.888560
C76	C	1.616079	0.392249	1.138560
C77	C	0.793296	-0.357752	0.388570
C78	C	1.043296	-0.107752	0.638570
C79	C	1.293296	0.142248	0.888570
C80	C	1.543296	0.392248	1.138570
C81	C	0.701988	-0.357756	0.388591
C82	C	0.951988	-0.107756	0.638591
C83	C	1.201988	0.142244	0.888591
C84	C	1.451988	0.392244	1.138591
C85	C	0.629212	-0.357763	0.388611
C86	C	0.879212	-0.107763	0.638611
C87	C	1.129212	0.142237	0.888611
C88	C	1.379212	0.392237	1.138611
C89	C	0.537897	-0.357768	0.388630
C90	C	0.787897	-0.107768	0.638630
C91	C	1.037897	0.142232	0.888630
C92	C	1.287897	0.392232	1.138630
C93	C	1.165093	-0.550706	0.388582
C94	C	1.415093	-0.300706	0.638582
C95	C	1.665093	-0.050706	0.888582
C96	C	1.915093	0.199294	1.138582
C97	C	1.165126	-0.633251	0.388603
C98	C	1.415126	-0.383251	0.638603
C99	C	1.665126	-0.133251	0.888603
C100	C	1.915126	0.116749	1.138603
C101	C	1.111334	-0.832711	0.442433
C102	C	1.361334	-0.582711	0.692433
C103	C	1.611334	-0.332711	0.942433
C104	C	1.861334	-0.082711	1.192433
C105	C	1.091677	-0.882153	0.368856
C106	C	1.341677	-0.632153	0.618856
C107	C	1.591677	-0.382153	0.868856
C108	C	1.841677	-0.132153	1.118856
C109	C	1.165205	-0.784382	0.388614
C110	C	1.415205	-0.534382	0.638614
C111	C	1.665205	-0.284382	0.888614
C112	C	1.915205	-0.034382	1.138614
C113	C	1.184901	-0.882021	0.462200
C114	C	1.434901	-0.632021	0.712200
C115	C	1.684901	-0.382021	0.962200
C116	C	1.934901	-0.132021	1.212200
C117	C	1.165280	-0.930367	0.388631
C118	C	1.415280	-0.680367	0.638631
C119	C	1.665280	-0.430367	0.888631
C120	C	1.915280	-0.180367	1.138631
C121	C	1.145510	-0.832736	0.314998
C122	C	1.395510	-0.582736	0.564998
C123	C	1.645510	-0.332736	0.814998
C124	C	1.895510	-0.082736	1.064998
C125	C	1.238767	-0.832601	0.408392
C126	C	1.488767	-0.582601	0.658392
C127	C	1.738767	-0.332601	0.908392
C128	C	1.988767	-0.082601	1.158392
C129	C	1.219139	-0.882020	0.334763
C130	C	1.469139	-0.632020	0.584763
C131	C	1.719139	-0.382020	0.834763
C132	C	1.969139	-0.132020	1.084763
C133	C	1.165160	-0.700283	0.388605
C134	C	1.415160	-0.450283	0.638605
C135	C	1.665160	-0.200283	0.888605
C136	C	1.915160	0.049717	1.138605
C137	C	1.165325	-1.014463	0.388631
C138	C	1.415325	-0.764463	0.638631
C139	C	1.665325	-0.514463	0.888631
C140	C	1.915325	-0.264463	1.138631
C141	C	1.375500	-0.357768	0.388634
C142	C	1.625500	-0.107768	0.638634
C143	C	1.875500	0.142232	0.888634
C144	C	2.125500	0.392232	1.138634
C145	C	1.465121	-0.357775	0.388651
C146	C	1.715121	-0.107775	0.638651
C147	C	1.965121	0.142225	0.888651
C148	C	2.215121	0.392225	1.138651
C149	C	1.165243	-0.357698	0.598905
C150	C	1.415243	-0.107698	0.848905
C151	C	1.665243	0.142302	1.098905
C152	C	1.915243	0.392302	1.348905
C153	C	1.165266	-0.357674	0.688526
C154	C	1.415266	-0.107674	0.938526
C155	C	1.665266	0.142326	1.188526
C156	C	1.915266	0.392326	1.438526
C157	C	1.165311	-0.164048	0.388627
C158	C	1.415311	0.085952	0.638627
C159	C	1.665311	0.335952	0.888627
C160	C	1.915311	0.585952	1.138627
C161	C	1.165362	-0.081502	0.388640
C162	C	1.415362	0.168498	0.638640
C163	C	1.665362	0.418498	0.888640
C164	C	1.915362	0.668498	1.138640
C165	C	1.165185	-0.357755	0.179105
C166	C	1.415185	-0.107755	0.429105
C167	C	1.665185	0.142245	0.679105
C168	C	1.915185	0.392245	0.929105
C169	C	1.165319	-0.357569	0.089484
C170	C	1.415319	-0.107569	0.339484
C171	C	1.665319	0.142431	0.589484
C172	C	1.915319	0.392431	0.839484
C173	C	1.165303	-0.357591	1.016702
C174	C	1.415303	-0.107591	1.266702
C175	C	1.665303	0.142409	1.516702
C176	C	1.915303	0.392409	1.766702
C177	C	1.165290	-0.357617	0.925393
C178	C	1.415290	-0.107617	1.175393
C179	C	1.665290	0.142383	1.425393
C180	C	1.915290	0.392383	1.675393
C181	C	1.165285	-0.357633	0.852617
C182	C	1.415285	-0.107633	1.102617
C183	C	1.665285	0.142367	1.352617
C184	C	1.915285	0.392367	1.602617
C185	C	1.165271	-0.357658	0.761302
C186	C	1.415271	-0.107658	1.011302
C187	C	1.665271	0.142342	1.261302
C188	C	1.915271	0.392342	1.511302
H189	H	1.065710	-0.811059	0.487881
H190	H	1.315710	-0.561059	0.737881
H191	H	1.565710	-0.311059	0.987881
H192	H	1.815710	-0.061059	1.237881
H193	H	1.029503	-0.903934	0.352143
H194	H	1.279503	-0.653934	0.602143
H195	H	1.529503	-0.403934	0.852143
H196	H	1.779503	-0.153934	1.102143
H197	H	1.300928	-0.810821	0.425140
H198	H	1.550928	-0.560821	0.675140
H199	H	1.800928	-0.310821	0.925140
H200	H	2.050928	-0.060821	1.175140
H201	H	1.128809	-0.811176	0.252757
H202	H	1.378809	-0.561176	0.502757
H203	H	1.628809	-0.311176	0.752757
H204	H	1.878809	-0.061176	1.002757
N205	N	1.279527	-0.910521	0.274419
N206	N	1.529527	-0.660521	0.524419
N207	N	1.779527	-0.410521	0.774419
N208	N	2.029527	-0.160521	1.024419
H209	H	1.251122	-0.942078	0.233031
H210	H	1.501122	-0.692078	0.483031
H211	H	1.751122	-0.442078	0.733031
H212	H	2.001122	-0.192078	0.983031
H213	H	1.321436	-0.941244	0.303056
H214	H	1.571436	-0.691244	0.553056
H215	H	1.821436	-0.441244	0.803056
H216	H	2.071436	-0.191244	1.053056
H217	H	1.201530	-0.903671	0.524424
H218	H	1.451530	-0.653671	0.774424
H219	H	1.701530	-0.403671	1.024424
H220	H	1.951530	-0.153671	1.274424
