data_functionalizedCrystal
_audit_creation_method	'MofGen! by Chris Wilmer'
_symmetry_space_group_name_H-M	'P1'
_symmetry_Int_Tables_number	1
_symmetry_cell_setting	triclinic
loop_
_symmetry_equiv_pos_as_xyz
  x,y,z
_cell_length_a	19.902436
_cell_length_b	16.704494
_cell_length_c	16.704494
_cell_angle_alpha	60.174809
_cell_angle_beta	90.002171
_cell_angle_gamma	63.423786
loop_
_atom_site_label
_atom_site_type_symbol
_atom_site_fract_x
_atom_site_fract_y
_atom_site_fract_z
Zr1	Zr	0.690682	0.863810	-0.142390
O2	O	0.595609	1.017949	-0.271832
O3	O	0.714604	0.701023	-0.097055
O4	O	0.728259	0.851321	-0.263665
O5	O	0.577124	0.880519	0.019770
O6	O	0.838837	0.851306	-0.263654
O7	O	0.581954	0.867652	-0.105223
O8	O	0.814411	0.582451	0.034380
O9	O	0.601550	1.149374	-0.278264
O10	O	0.813640	0.771172	-0.084543
O11	O	0.727512	0.780786	0.008729
O12	O	0.743589	0.957742	-0.187432
O13	O	0.657461	0.967355	-0.094160
Zr14	Zr	0.859337	0.884309	0.056976
Zr15	Zr	0.867041	0.863787	-0.142373
Zr16	Zr	0.682978	0.884332	0.056959
Zr17	Zr	0.700157	1.073418	-0.152648
Zr18	Zr	0.849862	0.674702	0.067234
O19	O	0.835415	1.047096	0.011641
O20	O	0.846368	1.017916	-0.271808
O21	O	0.584655	1.047129	0.011617
O22	O	0.954410	0.730170	0.186418
O23	O	0.965363	0.700990	-0.097031
O24	O	0.703650	0.730203	0.186394
O25	O	0.972895	0.867600	-0.105184
O26	O	0.821760	0.896799	0.178251
O27	O	0.711182	0.896813	0.178240
O28	O	0.968065	0.880468	0.019809
O29	O	0.741732	1.149356	-0.278250
O30	O	0.808287	0.598764	0.192836
O31	O	0.948469	0.598745	0.192850
O32	O	0.954592	0.582433	0.034394
O33	O	0.595427	1.165686	-0.119808
O34	O	0.735608	1.165668	-0.119794
O35	O	0.806430	0.790378	0.102018
O36	O	0.892558	0.780764	0.008746
O37	O	0.822507	0.967334	-0.094143
O38	O	0.736379	0.976947	-0.000871
C39	C	0.763157	0.611873	-0.029876
C40	C	0.759135	0.522889	-0.025521
C41	C	0.841513	0.345626	-0.114709
C42	C	0.837735	0.262018	-0.110620
C43	C	0.747808	0.272056	-0.013249
C44	C	0.751585	0.355665	-0.017338
C45	C	0.798438	0.392448	-0.068071
C46	C	0.802211	0.476063	-0.072165
C47	C	0.712288	0.486095	0.025211
C48	C	0.708511	0.402486	0.029300
C49	C	0.554412	0.874089	-0.042729
C50	C	0.479543	0.874098	-0.042736
C51	C	0.207537	0.874047	-0.042697
C52	C	0.191827	0.991767	-0.107320
C53	C	0.269681	0.991811	-0.107649
C54	C	0.342482	0.874073	-0.042717
C55	C	0.338951	0.808199	-0.082620
C56	C	0.260776	0.808945	-0.083092
C57	C	0.256050	0.821317	0.061898
C58	C	0.333082	0.823627	0.061628
C59	C	0.418749	0.874081	-0.042727
C60	C	0.131271	0.874034	-0.042691
C61	C	0.995607	0.874031	-0.042685
C62	C	1.070476	0.874021	-0.042678
C63	C	0.784646	0.848390	-0.292063
C64	C	0.787916	0.839678	-0.376692
C65	C	0.786861	1.136247	-0.055538
C66	C	0.790884	1.225231	-0.059893
C67	C	0.720934	1.018103	-0.643145
C68	C	0.724006	1.009922	-0.722665
C69	C	0.797134	0.815136	-0.615251
C70	C	0.794063	0.823317	-0.535732
C71	C	0.755961	0.924804	-0.549684
C72	C	0.752885	0.932983	-0.470163
C73	C	0.826018	0.738199	-0.362751
C74	C	0.829089	0.730018	-0.442271
C75	C	0.765373	0.899730	0.206649
C76	C	0.762103	0.908442	0.291278
C77	C	0.983755	0.611844	-0.029854
C78	C	1.054602	0.522850	-0.025492
C79	C	0.753521	0.637543	0.219480
C80	C	0.746228	0.557271	0.308463
C81	C	0.974119	0.637514	0.219501
C82	C	1.041695	0.557232	0.308492
C83	C	0.575900	1.110606	-0.304915
C84	C	0.508324	1.190887	-0.393906
C85	C	0.566264	1.136276	-0.055560
C86	C	0.495417	1.225269	-0.059922
C87	C	0.796498	1.110577	-0.304893
C88	C	0.803791	1.190848	-0.393877
C89	C	1.046678	0.476050	-0.072148
C90	C	1.113240	0.392441	-0.068068
C91	C	1.187725	0.355628	-0.017327
C92	C	1.195647	0.402437	0.029330
C93	C	1.129086	0.486049	0.025244
C94	C	0.783998	0.524582	0.398955
C95	C	0.777142	0.449171	0.482572
C96	C	0.732522	0.406444	0.475695
C97	C	0.694748	0.439140	0.385193
C98	C	0.701599	0.514556	0.301578
C99	C	1.118395	0.514513	0.301596
C100	C	1.181897	0.439091	0.385205
C101	C	1.168698	0.406384	0.475708
C102	C	1.091990	0.449111	0.482602
C103	C	1.028490	0.524538	0.398995
C104	C	0.431625	1.233616	-0.387011
C105	C	0.368124	1.309065	-0.470620
C106	C	0.381323	1.341776	-0.561124
C107	C	0.458030	1.299043	-0.568018
C108	C	0.521530	1.223602	-0.484410
C109	C	0.503342	1.272077	-0.013275
C110	C	0.436782	1.355708	-0.017377
C111	C	0.362297	1.392523	-0.068122
C112	C	0.354374	1.345711	-0.114775
C113	C	0.420934	1.262087	-0.110677
C114	C	0.848417	1.233552	-0.386969
C115	C	0.855285	1.308966	-0.470570
C116	C	0.817521	1.341680	-0.561079
C117	C	0.772893	1.298968	-0.567985
C118	C	0.766030	1.223550	-0.484385
H119	H	0.872812	0.223896	-0.148596
Br120	Br	0.447552	1.419218	0.045945
H121	H	0.726950	0.345037	0.543787
H122	H	0.308106	1.460615	-0.071450
H123	H	0.658418	0.404340	0.379608
Br124	Br	0.253281	1.395684	-0.183635
H125	H	0.670844	0.541160	0.227899
Br126	Br	1.074091	0.404712	0.605437
Br127	Br	0.279573	0.676892	0.142403
Br128	Br	1.139854	0.549549	0.088576
Br129	Br	0.924399	0.582501	0.408372
H130	H	0.305671	1.343845	-0.464988
H131	H	0.333492	0.871737	0.091492
Br132	Br	0.410164	1.198567	-0.173986
Br133	Br	0.915851	1.366920	-0.461176
Br134	Br	1.136330	0.558890	0.178780
Br135	Br	0.705453	1.165613	-0.493778
H136	H	0.823115	1.403091	-0.629145
H137	H	1.106774	0.354339	-0.106063
H138	H	0.420862	1.206987	-0.313325
Br139	Br	0.899676	1.189173	-0.264146
H140	H	0.840358	0.506014	-0.113478
H141	H	0.742147	1.325616	-0.641689
Br142	Br	0.684262	0.222081	0.055643
H143	H	0.721857	1.015619	-0.481526
H144	H	0.670368	0.372523	0.070609
Br145	Br	0.604420	1.222136	0.055596
Br146	Br	0.844563	0.582548	0.408315
H147	H	0.583980	1.188812	-0.490036
H148	H	1.220411	0.344966	0.543780
H149	H	0.468768	1.325687	-0.641717
H150	H	1.244350	0.404309	0.379574
Br151	Br	1.278051	0.242151	-0.011792
Br152	Br	0.295135	1.444163	-0.674585
H153	H	0.828164	0.732511	-0.603909
H154	H	0.677211	0.524230	0.063183
Br155	Br	0.905085	0.395564	-0.183573
Br156	Br	0.269508	1.077112	-0.063609
H157	H	0.156976	1.032438	-0.184109
Br158	Br	0.275199	1.059838	-0.236403
Br159	Br	0.128359	1.077647	-0.063559
H160	H	0.229093	0.844929	-0.159921
H161	H	0.274477	0.722259	-0.038749
H162	H	0.986035	0.506020	-0.113479
H163	H	0.390080	0.721353	-0.037560
H164	H	0.345290	0.843264	-0.158690
H165	H	0.220142	0.864607	0.095805
H166	H	0.384631	0.738178	0.113357
Br167	Br	1.296740	0.352461	0.098193
H168	H	0.689902	1.100737	-0.654506
Br169	Br	0.676473	1.136547	-0.849506
H170	H	0.860113	0.647391	-0.430924
H171	H	0.854534	0.662227	-0.286642
H172	H	0.807906	0.422560	0.556254
