data_functionalizedCrystal
_audit_creation_method	'MofGen! by Chris Wilmer'
_symmetry_space_group_name_H-M	'P1'
_symmetry_Int_Tables_number	1
_symmetry_cell_setting	triclinic
loop_
_symmetry_equiv_pos_as_xyz
  x,y,z
_cell_length_a	17.699083
_cell_length_b	8.597304
_cell_length_c	16.776229
_cell_angle_alpha	82.293521
_cell_angle_beta	89.998886
_cell_angle_gamma	84.315083
loop_
_atom_site_label
_atom_site_type_symbol
_atom_site_fract_x
_atom_site_fract_y
_atom_site_fract_z
O1	O	1.005724	0.198467	-0.079804
O2	O	0.785560	0.224288	-0.081603
O3	O	0.899974	-0.017107	-0.065009
O4	O	0.891310	0.439863	-0.096397
O5	O	0.899958	-0.017122	0.067569
O6	O	0.785544	0.224274	0.050975
O7	O	1.005709	0.198453	0.052774
Zn8	Zn	0.895624	0.211361	0.072924
Zn9	Zn	0.895644	0.211380	-0.101753
O10	O	0.891295	0.439848	0.036180
C11	C	0.757347	0.223356	-0.015254
C12	C	0.673306	0.220580	-0.015073
C13	C	0.625860	0.362274	-0.024806
C14	C	0.546895	0.359657	-0.024615
C15	C	0.515378	0.215344	-0.014698
C16	C	0.562830	0.073639	-0.004963
C17	C	0.641794	0.076258	-0.005147
C18	C	0.244379	0.063073	-0.004217
C19	C	0.165410	0.060465	-0.004036
C20	C	0.149481	0.346472	-0.023685
C21	C	0.228445	0.349091	-0.023870
C22	C	0.275890	0.207387	-0.014130
C23	C	0.361513	0.210227	-0.014335
C24	C	0.429757	0.212502	-0.014499
C25	C	0.899035	-0.075583	0.005294
C26	C	0.896252	-0.249800	0.017255
C27	C	1.033921	0.199385	-0.013577
C28	C	1.117962	0.202161	-0.013763
C29	C	0.892234	0.498324	-0.034125
C30	C	0.895017	0.672541	-0.046091
N31	N	0.895616	0.211346	0.192136
N32	N	0.895659	0.211382	-0.220964
C33	C	0.946294	0.104500	0.241198
C34	C	0.946298	0.104499	0.324650
C35	C	0.895627	0.211352	0.359039
C36	C	0.844943	0.318204	0.309971
C37	C	0.844936	0.318196	0.226520
C38	C	0.844971	0.318234	0.646516
C39	C	0.844983	0.318237	0.729972
C40	C	0.946333	0.104537	0.744645
C41	C	0.946326	0.104530	0.661195
C42	C	0.895640	0.211375	0.612135
C43	C	0.895635	0.211373	0.521647
C44	C	0.895635	0.211363	0.449525
H45	H	0.110841	0.461854	-0.031612
H46	H	0.680424	-0.039124	0.002777
H47	H	0.896086	-0.260665	-0.109479
O48	O	0.295542	-0.089764	0.006286
H49	H	0.331905	-0.095415	-0.047358
H50	H	0.895171	-0.316599	0.080647
H51	H	0.987602	0.017533	0.784600
O52	O	0.528842	-0.082020	0.005737
H53	H	0.465963	-0.060040	0.004223
O54	O	1.000944	-0.010755	0.204109
H55	H	1.036178	-0.085064	0.252249
O56	O	1.000972	-0.010713	0.377568
H57	H	1.036216	-0.084992	0.339634
H58	H	0.803682	0.405201	0.337975
O59	O	1.000973	-0.010726	0.624103
H60	H	1.036209	-0.085038	0.672241
H61	H	0.508267	0.475038	-0.032542
H62	H	0.803718	0.405253	0.757969
H63	H	0.803702	0.405234	0.606577
O64	O	0.790280	0.433443	0.173597
H65	H	0.755051	0.507759	0.211526
H66	H	0.651515	0.479790	-0.032882
H67	H	0.254101	0.466605	-0.031949
H68	H	0.139752	-0.057059	0.004041
