data_functionalizedCrystal
_audit_creation_method	'MofGen! by Chris Wilmer'
_symmetry_space_group_name_H-M	'P1'
_symmetry_Int_Tables_number	1
_symmetry_cell_setting	triclinic
loop_
_symmetry_equiv_pos_as_xyz
  x,y,z
_cell_length_a	10.654545
_cell_length_b	14.853567
_cell_length_c	13.330367
_cell_angle_alpha	89.997850
_cell_angle_beta	90.004598
_cell_angle_gamma	84.059005
loop_
_atom_site_label
_atom_site_type_symbol
_atom_site_fract_x
_atom_site_fract_y
_atom_site_fract_z
O1	O	1.666531	0.126603	0.083404
O2	O	1.300926	0.138671	0.083408
O3	O	1.493494	0.001459	0.083409
O4	O	1.473963	0.263814	0.083403
O5	O	1.493474	0.001463	-0.083438
O6	O	1.300906	0.138675	-0.083440
O7	O	1.666511	0.126607	-0.083443
Cu8	Cu	1.483707	0.132641	-0.098676
Cu9	Cu	1.483730	0.132636	0.098640
O10	O	1.473943	0.263818	-0.083444
C11	C	1.254127	0.137788	-0.000015
C12	C	1.114711	0.135139	-0.000014
C13	C	1.049209	0.133894	-0.090963
C14	C	0.918216	0.131391	-0.090963
C15	C	0.918238	0.131381	0.090943
C16	C	1.049230	0.133878	0.090942
C17	C	1.492599	-0.032132	-0.000012
C18	C	1.489947	-0.132230	-0.000003
C19	C	1.364347	-0.545435	-0.000021
C20	C	1.593123	-0.565494	-0.000023
C21	C	1.595616	-0.471447	-0.000017
C22	C	1.482473	-0.414389	-0.000015
C23	C	1.366837	-0.451379	-0.000018
C24	C	1.711250	-0.434450	-0.000024
C25	C	1.713749	-0.340397	-0.000019
C26	C	1.600605	-0.283338	-0.000010
C27	C	1.484964	-0.320333	-0.000012
C28	C	1.371821	-0.263276	-0.000009
C29	C	1.256179	-0.300269	-0.000005
C30	C	1.253693	-0.394320	-0.000009
C31	C	1.603090	-0.189288	-0.000006
C32	C	1.374311	-0.169220	-0.000007
C33	C	1.713310	0.127490	-0.000018
C34	C	1.852726	0.130138	-0.000013
C35	C	1.474838	0.297410	-0.000021
C36	C	1.477490	0.397508	-0.000023
N37	N	1.483699	0.132644	-0.237457
C38	C	1.398418	0.193383	-0.289983
C39	C	1.568988	0.071902	-0.289959
C40	C	1.569001	0.071898	-0.394978
C41	C	1.483720	0.132637	-0.447504
C42	C	1.398426	0.193379	-0.395011
C43	C	1.654284	0.011151	-0.447478
C44	C	1.654300	0.011145	-0.552503
C45	C	1.569024	0.071888	-0.605031
C46	C	1.483727	0.132634	-0.552532
C47	C	1.398446	0.193372	-0.605058
C48	C	1.313155	0.254122	-0.552561
C49	C	1.313150	0.254123	-0.447539
C50	C	1.569029	0.071888	-0.710052
C51	C	1.398454	0.193369	-0.710086
N52	N	1.483748	0.132627	0.237422
H53	H	1.164059	-0.253800	-0.000010
H54	H	1.328979	0.242847	-0.247237
H55	H	1.638466	0.022422	-0.752791
C56	C	1.727794	-0.144444	-0.584812
C57	C	1.748062	-0.055623	-0.610199
H58	H	1.785688	-0.185659	-0.620429
H59	H	1.643982	-0.154788	-0.602046
H60	H	1.739987	-0.153123	-0.514745
H61	H	1.735859	-0.046942	-0.680266
H62	H	1.831893	-0.045275	-0.592973
H63	H	1.638415	0.022446	-0.247190
C64	C	1.723043	-0.682906	0.085740
C65	C	1.717484	-0.628209	-0.000026
H66	H	1.799827	-0.721622	0.085739
H67	H	1.653827	-0.718392	0.085728
H68	H	1.719267	-0.645795	0.143919
H69	H	1.721251	-0.665320	-0.058206
H70	H	1.786719	-0.592719	-0.000023
C71	C	0.891907	0.053246	0.245995
C72	C	0.846256	0.130007	0.190920
H73	H	0.847464	0.052401	0.307715
H74	H	0.979285	0.054915	0.259006
H75	H	0.879911	0.000363	0.208618
H76	H	0.858260	0.182891	0.228293
H77	H	0.758857	0.128346	0.177911
C78	C	1.036027	0.133639	-0.270767
C79	C	1.121190	0.135266	-0.190940
H80	H	1.080467	0.134477	-0.332489
H81	H	0.975451	0.185143	-0.266988
H82	H	0.994423	0.080181	-0.266970
H83	H	1.162788	0.188727	-0.194733
H84	H	1.181789	0.083757	-0.194721
C85	C	1.244396	-0.051821	0.085770
C86	C	1.249937	-0.106506	-0.000000
H87	H	1.167609	-0.013109	0.085776
H88	H	1.313607	-0.016330	0.085758
H89	H	1.248193	-0.088941	0.143947
H90	H	1.246150	-0.069386	-0.058177
H91	H	1.180707	-0.142000	0.000003
H92	H	1.159543	-0.424448	-0.000006
C93	C	1.075605	0.212008	0.245993
C94	C	1.121242	0.135250	0.190920
H95	H	1.120071	0.212854	0.307708
H96	H	0.988233	0.210336	0.259013
H97	H	1.087584	0.264893	0.208610
H98	H	1.109255	0.082364	0.228299
H99	H	1.208636	0.136914	0.177903
H100	H	1.243713	0.303572	-0.595339
H101	H	1.723712	-0.038305	-0.404708
H102	H	0.864889	0.130378	-0.165022
H103	H	1.270194	-0.575559	-0.000013
C104	C	1.841172	-0.551859	0.085742
C105	C	1.835609	-0.497169	-0.000030
H106	H	1.917953	-0.590578	0.085739
H107	H	1.771953	-0.587342	0.085739
H108	H	1.837406	-0.514744	0.143918
H109	H	1.839366	-0.534284	-0.058206
H110	H	1.904847	-0.461682	-0.000036
H111	H	1.697244	-0.159172	-0.000016
C112	C	1.939638	-0.369683	-0.000014
C113	C	1.840858	-0.299739	-0.000013
H114	H	2.018109	-0.344579	-0.000001
H115	H	1.933905	-0.405938	-0.058198
H116	H	1.933902	-0.405958	0.058169
H117	H	1.846589	-0.263468	-0.058200
H118	H	1.846594	-0.263468	0.058178
H119	H	1.329012	0.242833	-0.752846
H120	H	1.243708	0.303583	-0.404789
