data_functionalizedCrystal
_audit_creation_method	'MofGen! by Chris Wilmer'
_symmetry_space_group_name_H-M	'P1'
_symmetry_Int_Tables_number	1
_symmetry_cell_setting	triclinic
loop_
_symmetry_equiv_pos_as_xyz
  x,y,z
_cell_length_a	16.625548
_cell_length_b	19.120786
_cell_length_c	16.625539
_cell_angle_alpha	92.471374
_cell_angle_beta	90.020568
_cell_angle_gamma	92.466188
loop_
_atom_site_label
_atom_site_type_symbol
_atom_site_fract_x
_atom_site_fract_y
_atom_site_fract_z
Zn1	Zn	1.218970	-0.279609	0.442197
Zn2	Zn	1.552303	0.053724	0.775530
Zn3	Zn	1.885637	0.387057	1.108863
Zn4	Zn	1.213114	-0.397074	0.301603
Zn5	Zn	1.546447	-0.063741	0.634936
Zn6	Zn	1.879780	0.269593	0.968270
Zn7	Zn	1.084131	-0.279636	0.307376
Zn8	Zn	1.417464	0.053697	0.640709
Zn9	Zn	1.750797	0.387030	0.974043
Zn10	Zn	1.078345	-0.397034	0.436395
Zn11	Zn	1.411678	-0.063700	0.769728
Zn12	Zn	1.745011	0.269633	1.103062
O13	O	1.148640	-0.338338	0.371893
O14	O	1.481973	-0.005005	0.705226
O15	O	1.815306	0.328328	1.038559
O16	O	1.331025	-0.295197	0.423559
O17	O	1.664359	0.038136	0.756892
O18	O	1.997692	0.371470	1.090225
O19	O	1.195974	-0.381524	0.189535
O20	O	1.529308	-0.048190	0.522868
O21	O	1.862641	0.285143	0.856202
O22	O	1.106890	-0.181342	0.330104
O23	O	1.440223	0.151991	0.663437
O24	O	1.773556	0.485325	0.996771
O25	O	1.326723	-0.381498	0.320265
O26	O	1.660056	-0.048164	0.653599
O27	O	1.993389	0.285169	0.986932
O28	O	1.205956	-0.181323	0.429156
O29	O	1.539289	0.152011	0.762490
O30	O	1.872622	0.485344	1.095823
O31	O	1.101211	-0.295243	0.193776
O32	O	1.434544	0.038091	0.527110
O33	O	1.767878	0.371424	0.860443
O34	O	0.970531	-0.295204	0.324478
O35	O	1.303864	0.038130	0.657812
O36	O	1.637198	0.371463	0.991145
O37	O	1.097028	-0.381429	0.549998
O38	O	1.430362	-0.048096	0.883332
O39	O	1.763695	0.285238	1.216665
O40	O	0.966280	-0.381455	0.419268
O41	O	1.299613	-0.048122	0.752601
O42	O	1.632947	0.285212	1.085935
O43	O	1.200345	-0.295158	0.554261
O44	O	1.533679	0.038175	0.887594
O45	O	1.867012	0.371509	1.220928
O46	O	1.190364	-0.495359	0.314640
O47	O	1.523697	-0.162026	0.647973
O48	O	1.857030	0.171308	0.981306
O49	O	1.091350	-0.495329	0.413671
O50	O	1.424683	-0.161996	0.747004
O51	O	1.758016	0.171337	1.080337
C52	C	0.939149	-0.338328	0.371871
C53	C	1.272483	-0.004995	0.705204
C54	C	1.605816	0.328338	1.038537
C55	C	0.849528	-0.338341	0.371879
C56	C	1.182861	-0.005008	0.705213
C57	C	1.516194	0.328326	1.038546
C58	C	0.521352	-0.338345	0.371914
C59	C	0.854685	-0.005012	0.705247
C60	C	1.188018	0.328321	1.038580
C61	C	0.612660	-0.338342	0.371902
C62	C	0.945994	-0.005009	0.705235
C63	C	1.279327	0.328324	1.038568
C64	C	0.685437	-0.338344	0.371896
C65	C	1.018770	-0.005010	0.705229
C66	C	1.352103	0.328323	1.038563
C67	C	0.776751	-0.338340	0.371885
C68	C	1.110085	-0.005006	0.705219
C69	C	1.443418	0.328327	1.038552
C70	C	1.139615	-0.520830	0.362917
C71	C	1.472948	-0.187497	0.696250
C72	C	1.806282	0.145837	1.029583
C73	C	1.135828	-0.598901	0.359104
C74	C	1.469161	-0.265567	0.692437
C75	C	1.802495	0.067766	1.025770
C76	C	1.185589	-0.635508	0.408925
C77	C	1.518922	-0.302174	0.742259
C78	C	1.852256	0.031159	1.075592
C79	C	1.182027	-0.708863	0.405344
C80	C	1.515361	-0.375530	0.738677
C81	C	1.848694	-0.042197	1.072011
C82	C	1.128709	-0.745611	0.351936
C83	C	1.462042	-0.412277	0.685270
C84	C	1.795375	-0.078944	1.018603
C85	C	1.078942	-0.708998	0.302113
C86	C	1.412276	-0.375665	0.635446
C87	C	1.745609	-0.042332	0.968779
C88	C	1.082500	-0.635644	0.305699
C89	C	1.415834	-0.302311	0.639032
C90	C	1.749167	0.031023	0.972365
C91	C	1.115383	-0.967097	0.338531
C92	C	1.448717	-0.633763	0.671864
C93	C	1.782050	-0.300430	1.005198
C94	C	1.111831	-1.040456	0.334947
C95	C	1.445164	-0.707123	0.668280
C96	C	1.778498	-0.373790	1.001614
C97	C	1.214915	-1.040316	0.438180
C98	C	1.548249	-0.706983	0.771513
C99	C	1.881582	-0.373650	1.104847
C100	C	1.218472	-0.966960	0.441758
C101	C	1.551805	-0.633627	0.775091
C102	C	1.885139	-0.300294	1.108424
C103	C	1.168703	-0.930355	0.391937
C104	C	1.502036	-0.597021	0.725270
C105	C	1.835370	-0.263688	1.058604
C106	C	1.125069	-0.820592	0.348273
C107	C	1.458402	-0.487259	0.681606
C108	C	1.791735	-0.153925	1.014939
C109	C	1.172339	-0.855375	0.395605
C110	C	1.505673	-0.522041	0.728939
C111	C	1.839006	-0.188708	1.062272
C112	C	1.358948	-0.338349	0.371915
C113	C	1.692281	-0.005016	0.705249
C114	C	2.025615	0.328318	1.038582
C115	C	1.448569	-0.338353	0.371925
C116	C	1.781902	-0.005020	0.705258
C117	C	2.115236	0.328313	1.038591
C118	C	1.148695	-0.338286	0.582204
C119	C	1.482028	-0.004953	0.915538
C120	C	1.815361	0.328381	1.248871
C121	C	1.148718	-0.338264	0.671826
C122	C	1.482051	-0.004930	1.005160
C123	C	1.815385	0.328403	1.338493
C124	C	1.157722	-0.155134	0.380921
C125	C	1.491055	0.178199	0.714255
C126	C	1.824388	0.511533	1.047588
C127	C	1.161592	-0.077063	0.384769
C128	C	1.494925	0.256270	0.718102
C129	C	1.828258	0.589603	1.051435
C130	C	1.148634	-0.338340	0.162402
C131	C	1.481967	-0.005006	0.495735
C132	C	1.815300	0.328327	0.829068
C133	C	1.148776	-0.338164	0.072790
C134	C	1.482110	-0.004831	0.406123
C135	C	1.815443	0.328503	0.739456
C136	C	1.148759	-0.338185	1.000006
C137	C	1.482092	-0.004852	1.333339
C138	C	1.815426	0.328482	1.666673
C139	C	1.148745	-0.338209	0.908696
C140	C	1.482079	-0.004876	1.242030
C141	C	1.815412	0.328458	1.575363
C142	C	1.148739	-0.338225	0.835919
C143	C	1.482072	-0.004892	1.169253
C144	C	1.815406	0.328442	1.502586
C145	C	1.148724	-0.338248	0.744604
C146	C	1.482058	-0.004915	1.077937
C147	C	1.815391	0.328419	1.411270
H148	H	1.229010	-0.605593	0.452412
H149	H	1.562344	-0.272260	0.785745
H150	H	1.895677	0.061074	1.119079
Br151	Br	1.039470	-1.090328	0.262455
Br152	Br	1.372803	-0.756994	0.595788
Br153	Br	1.706137	-0.423661	0.929122
H154	H	1.074861	-0.937298	0.297963
H155	H	1.408194	-0.603965	0.631297
H156	H	1.741528	-0.270631	0.964630
Br157	Br	1.006569	-0.758869	0.229640
Br158	Br	1.339903	-0.425535	0.562974
Br159	Br	1.673236	-0.092202	0.896307
H160	H	1.041979	-0.605839	0.265130
H161	H	1.375312	-0.272506	0.598463
H162	H	1.708646	0.060828	0.931796
Br163	Br	1.244692	-0.805503	0.468091
Br164	Br	1.578025	-0.472169	0.801425
Br165	Br	1.911359	-0.138836	1.134758
Br166	Br	1.282453	-1.089999	0.505792
Br167	Br	1.615787	-0.756666	0.839125
Br168	Br	1.949120	-0.423332	1.172459
Br169	Br	1.290837	-0.917094	0.514241
Br170	Br	1.624170	-0.583761	0.847575
Br171	Br	1.957504	-0.250427	1.180908
Br172	Br	1.052702	-0.870469	0.275800
Br173	Br	1.386035	-0.537136	0.609133
Br174	Br	1.719369	-0.203802	0.942467
H175	H	1.222554	-0.738666	0.445908
H176	H	1.555887	-0.405332	0.779241
H177	H	1.889221	-0.071999	1.112575
