data_functionalizedCrystal
_audit_creation_method	'MofGen! by Chris Wilmer'
_symmetry_space_group_name_H-M	'P1'
_symmetry_Int_Tables_number	1
_symmetry_cell_setting	triclinic
loop_
_symmetry_equiv_pos_as_xyz
  x,y,z
_cell_length_a	13.897449
_cell_length_b	13.897448
_cell_length_c	21.395356
_cell_angle_alpha	89.975201
_cell_angle_beta	89.974910
_cell_angle_gamma	90.018519
loop_
_atom_site_label
_atom_site_type_symbol
_atom_site_fract_x
_atom_site_fract_y
_atom_site_fract_z
Zn1	Zn	1.474719	-0.384018	-0.354299
Zn2	Zn	1.974719	0.115982	0.145701
Zn3	Zn	1.474608	-0.545323	-0.249527
Zn4	Zn	1.974608	-0.045323	0.250473
Zn5	Zn	1.313403	-0.384046	-0.249533
Zn6	Zn	1.813403	0.115954	0.250467
Zn7	Zn	1.313390	-0.545275	-0.354264
Zn8	Zn	1.813390	-0.045275	0.145736
O9	O	1.394030	-0.464666	-0.301906
O10	O	1.894030	0.035334	0.198094
O11	O	1.609686	-0.405424	-0.340413
O12	O	2.109686	0.094576	0.159587
O13	O	1.453183	-0.523962	-0.161850
O14	O	1.953183	-0.023962	0.338150
O15	O	1.334854	-0.249061	-0.263448
O16	O	1.834854	0.250939	0.236552
O17	O	1.609604	-0.523934	-0.263437
O18	O	2.109604	-0.023934	0.236563
O19	O	1.453372	-0.249040	-0.340419
O20	O	1.953372	0.250960	0.159581
O21	O	1.334747	-0.405472	-0.161854
O22	O	1.834747	0.094528	0.338146
O23	O	1.178420	-0.405425	-0.263414
O24	O	1.678420	0.094575	0.236586
O25	O	1.334831	-0.523852	-0.441947
O26	O	1.834831	-0.023852	0.058053
O27	O	1.178410	-0.523879	-0.340360
O28	O	1.678410	-0.023879	0.159640
O29	O	1.453359	-0.405377	-0.441972
O30	O	1.953359	0.094623	0.058028
O31	O	1.453170	-0.680299	-0.263403
O32	O	1.953170	-0.180299	0.236597
O33	O	1.334724	-0.680263	-0.340354
O34	O	1.834724	-0.180263	0.159646
C35	C	1.143416	-0.464651	-0.301884
C36	C	1.643416	0.035349	0.198116
C37	C	1.036202	-0.464668	-0.301889
C38	C	1.536202	0.035332	0.198111
C39	C	0.949132	-0.464671	-0.301900
C40	C	1.449132	0.035329	0.198100
C41	C	0.839899	-0.464678	-0.301919
C42	C	1.339899	0.035322	0.198081
C43	C	1.393959	-0.715280	-0.301888
C44	C	1.893959	-0.215280	0.198112
C45	C	1.394018	-0.822494	-0.301901
C46	C	1.894018	-0.322494	0.198099
C47	C	1.394119	-1.018789	-0.301940
C48	C	1.894119	-0.518789	0.198060
C49	C	1.394060	-0.909557	-0.301920
C50	C	1.894060	-0.409557	0.198080
C51	C	1.645623	-0.464681	-0.301928
C52	C	2.145623	0.035319	0.198072
C53	C	1.752837	-0.464688	-0.301938
C54	C	2.252837	0.035312	0.198062
C55	C	1.394106	-0.464606	-0.465329
C56	C	1.894106	0.035394	0.034671
C57	C	1.394138	-0.464580	-0.534970
C58	C	1.894138	0.035420	-0.034970
C59	C	1.394127	-0.213073	-0.301938
C60	C	1.894127	0.286927	0.198062
C61	C	1.394168	-0.105859	-0.301951
C62	C	1.894168	0.394141	0.198049
C63	C	1.332485	-0.402876	-0.567676
C64	C	1.832485	0.097124	-0.067676
C65	C	1.332481	-0.402858	-0.633112
C66	C	1.832481	0.097142	-0.133112
C67	C	1.394149	-0.464535	-0.665839
C68	C	1.894149	0.035465	-0.165839
C69	C	1.455806	-0.526251	-0.633125
C70	C	1.955806	-0.026251	-0.133125
C71	C	1.455801	-0.526274	-0.567691
C72	C	1.955801	-0.026274	-0.067691
C73	C	1.481059	-0.472117	-0.769527
C74	C	1.981059	0.027883	-0.269527
C75	C	1.481066	-0.472087	-0.834960
C76	C	1.981066	0.027913	-0.334960
C77	C	1.394165	-0.464469	-0.867660
C78	C	1.894165	0.035531	-0.367660
C79	C	1.307253	-0.456861	-0.834918
C80	C	1.807253	0.043139	-0.334918
C81	C	1.307248	-0.456884	-0.769484
C82	C	1.807248	0.043116	-0.269484
C83	C	1.394161	-0.464517	-0.736791
C84	C	1.894161	0.035483	-0.236791
C85	C	1.332502	-0.402742	-0.971318
C86	C	1.832502	0.097258	-0.471318
C87	C	1.332498	-0.402731	-1.036755
C88	C	1.832498	0.097269	-0.536755
C89	C	1.455831	-0.526119	-1.036767
C90	C	1.955831	-0.026119	-0.536767
C91	C	1.455828	-0.526135	-0.971332
C92	C	1.955828	-0.026135	-0.471332
C93	C	1.394164	-0.464442	-0.938611
C94	C	1.894164	0.035558	-0.438611
C95	C	1.394010	-0.464656	-0.139118
C96	C	1.894010	0.035344	0.360882
C97	C	1.394164	-0.464409	-0.069477
C98	C	1.894164	0.035591	0.430523
H99	H	1.282270	-0.352644	-0.541039
H100	H	1.782270	0.147356	-0.041039
H101	H	1.506011	-0.576520	-0.541063
H102	H	2.006011	-0.076520	-0.041063
H103	H	1.551835	-0.478278	-0.861613
H104	H	2.051835	0.021722	-0.361613
H105	H	1.282292	-0.352509	-0.944675
H106	H	1.782292	0.147491	-0.444675
F107	F	1.266875	-0.337165	-0.667926
F108	F	1.766875	0.162835	-0.167926
H109	H	1.506035	-0.576379	-0.944702
H110	H	2.006035	-0.076379	-0.444702
F111	F	1.266851	-0.337076	-1.071562
F112	F	1.766851	0.162924	-0.571562
H113	H	1.506016	-0.576469	-0.659776
H114	H	2.006016	-0.076469	-0.159776
H115	H	1.506044	-0.576335	-1.063413
H116	H	2.006044	-0.076335	-0.563413
H117	H	1.236482	-0.450691	-0.742829
H118	H	1.736482	0.049309	-0.242829
H119	H	1.236490	-0.450651	-0.861541
H120	H	1.736490	0.049349	-0.361541
H121	H	1.551831	-0.478312	-0.742908
H122	H	2.051831	0.021688	-0.242908
