data_functionalizedCrystal
_audit_creation_method	'MofGen! by Chris Wilmer'
_symmetry_space_group_name_H-M	'P1'
_symmetry_Int_Tables_number	1
_symmetry_cell_setting	triclinic
loop_
_symmetry_equiv_pos_as_xyz
  x,y,z
_cell_length_a	19.077105
_cell_length_b	16.959454
_cell_length_c	19.076919
_cell_angle_alpha	87.724511
_cell_angle_beta	89.923776
_cell_angle_gamma	87.716588
loop_
_atom_site_label
_atom_site_type_symbol
_atom_site_fract_x
_atom_site_fract_y
_atom_site_fract_z
Zn1	Zn	1.058295	-0.382399	0.440440
Zn2	Zn	1.558295	0.117601	0.940440
Zn3	Zn	1.062944	-0.509490	0.322940
Zn4	Zn	1.562944	-0.009490	0.822940
Zn5	Zn	0.945513	-0.371810	0.318233
Zn6	Zn	1.445513	0.128190	0.818233
Zn7	Zn	0.940765	-0.509013	0.435693
Zn8	Zn	1.440765	-0.009013	0.935693
O9	O	1.001879	-0.443178	0.379326
O10	O	1.501879	0.056822	0.879326
O11	O	1.157244	-0.403889	0.428810
O12	O	1.657244	0.096111	0.928810
O13	O	1.051298	-0.486995	0.223984
O14	O	1.551298	0.013005	0.723984
O15	O	0.960515	-0.262606	0.334460
O16	O	1.460515	0.237394	0.834460
O17	O	1.160659	-0.497262	0.342484
O18	O	1.660659	0.002738	0.842484
O19	O	1.043376	-0.270386	0.424245
O20	O	1.543376	0.229614	0.924245
O21	O	0.965022	-0.385842	0.220526
O22	O	1.465022	0.114158	0.720526
O23	O	0.846551	-0.385379	0.329857
O24	O	1.346551	0.114621	0.829857
O25	O	0.952424	-0.496450	0.534654
O26	O	1.452424	0.003550	1.034654
O27	O	0.843063	-0.486182	0.416155
O28	O	1.343063	0.013818	0.916155
O29	O	1.038773	-0.403426	0.538142
O30	O	1.538773	0.096574	1.038142
O31	O	1.046695	-0.620035	0.337881
O32	O	1.546695	-0.120035	0.837881
O33	O	0.956931	-0.619685	0.420720
O34	O	1.456931	-0.119685	0.920720
C35	C	0.819311	-0.434581	0.371980
C36	C	1.319311	0.065419	0.871980
C37	C	0.741206	-0.430922	0.368854
C38	C	1.241206	0.069078	0.868854
C39	C	0.702718	-0.481759	0.412246
C40	C	1.202718	0.018241	0.912246
C41	C	0.629330	-0.478312	0.409312
C42	C	1.129330	0.021688	0.909312
C43	C	0.594433	-0.424030	0.362983
C44	C	1.094433	0.075970	0.862983
C45	C	0.632926	-0.373188	0.319590
C46	C	1.132926	0.126812	0.819590
C47	C	0.706312	-0.376632	0.322528
C48	C	1.206312	0.123368	0.822528
C49	C	0.375144	-0.408090	0.349389
C50	C	0.875144	0.091910	0.849389
C51	C	0.301753	-0.404651	0.346453
C52	C	0.801753	0.095349	0.846453
C53	C	0.298162	-0.509774	0.436177
C54	C	0.798162	-0.009774	0.936177
C55	C	0.371550	-0.513217	0.439107
C56	C	0.871550	-0.013217	0.939107
C57	C	0.410037	-0.462372	0.395717
C58	C	0.910037	0.037628	0.895717
N59	N	0.519419	-0.420507	0.359981
N60	N	1.019419	0.079493	0.859981
N61	N	0.485049	-0.465892	0.398723
N62	N	0.985049	0.034108	0.898723
C63	C	1.001821	-0.648541	0.379312
C64	C	1.501821	-0.148541	0.879312
C65	C	1.001859	-0.736400	0.379332
C66	C	1.501859	-0.236400	0.879332
C67	C	0.955205	-1.107727	0.422458
C68	C	1.455205	-0.607727	0.922458
C69	C	1.048747	-1.108038	0.336274
C70	C	1.548747	-0.608038	0.836274
C71	C	1.048723	-1.025491	0.336266
C72	C	1.548723	-0.525491	0.836266
C73	C	1.001938	-0.984058	0.379355
C74	C	1.501938	-0.484058	0.879355
C75	C	0.955178	-1.025172	0.422451
C76	C	1.455178	-0.525172	0.922451
C77	C	1.095477	-0.984370	0.293166
C78	C	1.595477	-0.484370	0.793166
C79	C	1.095454	-0.901818	0.293156
C80	C	1.595454	-0.401818	0.793156
C81	C	1.048672	-0.860383	0.336249
C82	C	1.548672	-0.360383	0.836249
C83	C	1.001911	-0.901503	0.379347
C84	C	1.501911	-0.401503	0.879347
C85	C	0.955126	-0.860069	0.422436
C86	C	1.455126	-0.360069	0.922436
C87	C	0.908367	-0.901187	0.465538
C88	C	1.408367	-0.401187	0.965538
C89	C	0.908396	-0.983737	0.465543
C90	C	1.408396	-0.483737	0.965543
C91	C	1.048644	-0.777834	0.336244
C92	C	1.548644	-0.277834	0.836244
C93	C	0.955099	-0.777514	0.422428
C94	C	1.455099	-0.277514	0.922428
C95	C	1.185161	-0.451810	0.386702
C96	C	1.685161	0.048190	0.886702
C97	C	1.263265	-0.455488	0.389844
C98	C	1.763265	0.044512	0.889844
C99	C	0.994550	-0.451066	0.562607
C100	C	1.494550	0.048934	1.062607
C101	C	0.991427	-0.454427	0.640710
C102	C	1.491427	0.045573	1.140710
C103	C	1.001956	-0.237015	0.379357
C104	C	1.501956	0.262985	0.879357
C105	C	1.001989	-0.149160	0.379370
C106	C	1.501989	0.350840	0.879370
C107	C	1.009220	-0.435266	0.196760
C108	C	1.509220	0.064734	0.696760
C109	C	1.012479	-0.431688	0.118663
C110	C	1.512479	0.068312	0.618663
C111	C	1.034915	-0.407577	0.679220
C112	C	1.534915	0.092423	1.179220
C113	C	1.031972	-0.410731	0.752606
C114	C	1.531972	0.089269	1.252606
C115	C	0.985544	-0.460742	0.787481
C116	C	1.485544	0.039258	1.287481
C117	C	0.942052	-0.507595	0.748966
C118	C	1.442052	-0.007595	1.248966
C119	C	0.944992	-0.504435	0.675581
C120	C	1.444992	-0.004435	1.175581
C121	C	0.971927	-0.475381	1.006763
C122	C	1.471927	0.024619	1.506763
C123	C	0.968992	-0.478539	1.080153
C124	C	1.468992	0.021461	1.580153
C125	C	1.058911	-0.381674	1.083788
C126	C	1.558911	0.118326	1.583788
C127	C	1.061850	-0.378523	1.010402
C128	C	1.561850	0.121477	1.510402
C129	C	1.018355	-0.425372	0.971893
C130	C	1.518355	0.074628	1.471893
N131	N	0.982536	-0.463970	0.862493
N132	N	1.482536	0.036030	1.362493
N133	N	1.021360	-0.422140	0.896882
N134	N	1.521360	0.077860	1.396882
H135	H	0.399959	-0.557420	0.476832
H136	H	0.899959	-0.057420	0.976832
H137	H	1.072724	-0.366855	0.650831
H138	H	1.572724	0.133145	1.150831
H139	H	0.909572	-0.542578	0.644227
H140	H	1.409572	-0.042578	1.144227
O141	O	0.904776	-1.152073	0.468945
O142	O	1.404776	-0.652073	0.968945
H143	H	0.872244	-1.109391	0.498908
H144	H	1.372244	-0.609391	0.998908
H145	H	1.099658	-0.337801	0.982012
H146	H	1.599658	0.162199	1.482012
O147	O	0.256676	-0.564631	0.482980
O148	O	0.756676	-0.064631	0.982980
H149	H	0.221826	-0.529313	0.517466
H150	H	0.721826	-0.029313	1.017466
O151	O	0.740347	-0.540302	0.462227
O152	O	1.240347	-0.040302	0.962227
H153	H	0.772365	-0.508088	0.499365
H154	H	1.272365	-0.008088	0.999365
O155	O	0.264128	-0.346108	0.296462
O156	O	0.764128	0.153892	0.796462
H157	H	0.232128	-0.378328	0.259313
H158	H	0.732128	0.121672	0.759313
H159	H	0.406472	-0.366694	0.314052
H160	H	0.906472	0.133306	0.814052
H161	H	1.086833	-1.141778	0.301189
H162	H	1.586833	-0.641778	0.801189
O163	O	1.078880	-0.360205	0.794145
O164	O	1.578880	0.139795	1.294145
H165	H	1.111665	-0.324908	0.757566
H166	H	1.611665	0.175092	1.257566
O167	O	1.099071	-0.733482	0.289764
O168	O	1.599071	-0.233482	0.789764
H169	H	1.131609	-0.776162	0.259805
H170	H	1.631609	-0.276162	0.759805
H171	H	0.931183	-0.519265	1.108546
H172	H	1.431183	-0.019265	1.608546
O173	O	1.145960	-1.029057	0.246720
O174	O	1.645960	-0.529057	0.746720
H175	H	1.138137	-1.093368	0.253984
H176	H	1.638137	-0.593368	0.753984
O177	O	0.904639	-0.732824	0.468903
O178	O	1.404639	-0.232824	0.968903
H179	H	0.870164	-0.692216	0.435980
H180	H	1.370164	-0.192216	0.935980
H181	H	0.870326	-1.017223	0.500634
H182	H	1.370326	-0.517223	1.000634
O183	O	0.924982	-0.525867	0.965230
O184	O	1.424982	-0.025867	1.465230
H185	H	0.892196	-0.561161	1.001812
H186	H	1.392196	-0.061161	1.501812
H187	H	0.597996	-0.519710	0.444645
H188	H	1.097996	-0.019710	0.944645
O189	O	0.857899	-0.856497	0.512004
O190	O	1.357899	-0.356497	1.012004
H191	H	0.867698	-0.875249	0.567651
H192	H	1.367698	-0.375249	1.067651
O193	O	0.747830	-0.321811	0.275720
O194	O	1.247830	0.178189	0.775720
H195	H	0.711237	-0.283494	0.243003
H196	H	1.211237	0.216506	0.743003
H197	H	1.133528	-0.868345	0.258061
H198	H	1.633528	-0.368345	0.758061
O199	O	1.105802	-0.331121	1.125320
O200	O	1.605802	0.168879	1.625320
H201	H	1.095950	-0.341706	1.182208
H202	H	1.595950	0.158294	1.682208
O203	O	0.891969	-0.561529	0.786577
O204	O	1.391969	-0.061529	1.286577
H205	H	0.922061	-0.604670	0.821269
H206	H	1.422061	-0.104670	1.321269
O207	O	0.595292	-0.314658	0.269601
O208	O	1.095292	0.185342	0.769601
H209	H	0.537796	-0.320815	0.274835
H210	H	1.037796	0.179185	0.774835
