data_functionalizedCrystal
_audit_creation_method	'MofGen! by Chris Wilmer'
_symmetry_space_group_name_H-M	'P1'
_symmetry_Int_Tables_number	1
_symmetry_cell_setting	triclinic
loop_
_symmetry_equiv_pos_as_xyz
  x,y,z
_cell_length_a	16.109301
_cell_length_b	15.944551
_cell_length_c	14.586319
_cell_angle_alpha	89.995256
_cell_angle_beta	89.999213
_cell_angle_gamma	83.480109
loop_
_atom_site_label
_atom_site_type_symbol
_atom_site_fract_x
_atom_site_fract_y
_atom_site_fract_z
O1	O	1.103166	0.107966	-0.076184
O2	O	0.861108	0.121403	-0.076199
O3	O	0.988747	-0.007593	-0.076183
O4	O	0.975527	0.236961	-0.076200
O5	O	0.988738	-0.007595	0.076298
O6	O	0.861099	0.121401	0.076282
O7	O	1.103157	0.107964	0.076296
Cu8	Cu	0.982127	0.114682	0.090212
Cu9	Cu	0.982138	0.114685	-0.090114
O10	O	0.975518	0.236960	0.076280
C11	C	0.830129	0.120857	0.000039
C12	C	0.737833	0.119226	0.000034
C13	C	0.515584	0.191975	0.000040
C14	C	0.428863	0.190435	0.000046
C15	C	0.448688	0.037387	0.000053
C16	C	0.535407	0.038927	0.000053
C17	C	0.568853	0.116224	0.000042
C18	C	0.395412	0.113143	0.000047
C19	C	0.301386	0.111473	0.000054
C20	C	0.662885	0.117894	0.000037
C21	C	0.988194	-0.038887	0.000057
C22	C	0.986548	-0.132133	0.000058
C23	C	0.903499	-0.346962	0.000040
C24	C	0.942060	-0.407993	0.075225
C25	C	0.983572	-0.302858	0.000051
C26	C	0.942088	-0.407975	-0.075109
C27	C	0.980691	-0.467769	0.000040
C28	C	1.022155	-0.362660	0.075297
C29	C	1.022171	-0.362636	-0.075104
C30	C	1.060790	-0.423649	0.000099
C31	C	0.985229	-0.207856	0.000058
C32	C	0.979039	-0.562770	0.000039
C33	C	1.134136	0.108510	0.000056
C34	C	1.226432	0.110141	0.000055
C35	C	0.976071	0.268254	0.000038
C36	C	0.977717	0.361500	0.000031
N37	N	0.982126	0.114680	0.217044
N38	N	0.982146	0.114680	-0.216946
C39	C	1.038663	0.057580	0.452057
C40	C	1.038666	0.057578	0.548038
C41	C	0.925602	0.171783	0.548034
C42	C	0.925597	0.171780	0.452054
C43	C	0.982132	0.114680	0.404068
C44	C	0.982140	0.114680	0.596029
C45	C	0.982142	0.114679	0.700096
C46	C	0.982129	0.114680	0.299995
H47	H	0.542812	0.254914	0.000037
H48	H	0.879558	0.218278	0.412979
H49	H	1.055990	-0.342682	0.138930
H50	H	0.385495	0.252119	0.000045
H51	H	0.908189	-0.428091	0.138783
C52	C	0.864190	0.233645	0.600255
C53	C	0.813316	0.188888	0.655388
C54	C	0.756741	0.245849	0.703515
H55	H	0.830438	0.267676	0.558033
H56	H	0.894080	0.268608	0.637741
H57	H	0.783428	0.153940	0.617905
H58	H	0.847045	0.154860	0.697626
H59	H	0.786632	0.280812	0.741001
H60	H	0.722995	0.279877	0.661287
H61	H	0.722222	0.215490	0.740934
C62	C	0.412212	-0.046447	0.000009
C63	C	0.324865	-0.031585	-0.000019
C64	C	0.291238	-0.108793	-0.000074
H65	H	0.430403	-0.077704	0.053169
H66	H	0.430452	-0.077640	-0.053185
H67	H	0.306633	-0.000404	0.053170
H68	H	0.306652	-0.000340	-0.053175
H69	H	0.309478	-0.139987	-0.053268
H70	H	0.309434	-0.140045	0.053087
H71	H	0.231970	-0.098720	-0.000101
C72	C	0.814942	-0.302360	0.000076
C73	C	0.817620	-0.214900	-0.000755
C74	C	0.736060	-0.173786	-0.000732
H75	H	0.786538	-0.317673	0.053533
H76	H	0.786206	-0.318477	-0.052816
H77	H	0.846344	-0.198789	0.052132
H78	H	0.846008	-0.199562	-0.054208
H79	H	0.707325	-0.189903	-0.053625
H80	H	0.707663	-0.189105	0.052725
H81	H	0.737866	-0.114440	-0.001305
H82	H	0.578781	-0.022762	0.000058
C83	C	1.149504	-0.467857	0.000346
C84	C	1.191024	-0.444886	0.079204
C85	C	1.272743	-0.485604	0.079474
H86	H	1.178263	-0.451674	-0.052491
H87	H	1.148010	-0.527250	-0.000111
H88	H	1.192522	-0.385505	0.079652
H89	H	1.162290	-0.461070	0.132053
H90	H	1.271249	-0.544997	0.079017
H91	H	1.301494	-0.469417	0.026634
H92	H	1.300922	-0.470030	0.132982
C93	C	1.067155	-0.335826	-0.159964
C94	C	1.024951	-0.358501	-0.238477
C95	C	1.066352	-0.333804	-0.316673
H96	H	1.122721	-0.363121	-0.160630
H97	H	1.068287	-0.276387	-0.159092
H98	H	1.023828	-0.417929	-0.239349
H99	H	0.969388	-0.331208	-0.237842
H100	H	1.067484	-0.274365	-0.315801
H101	H	1.121916	-0.361101	-0.317329
H102	H	1.037719	-0.349179	-0.369953
C103	C	0.896790	-0.434609	-0.159832
C104	C	0.814495	-0.395389	-0.159482
C105	C	0.772739	-0.419891	-0.237515
H106	H	0.896422	-0.494140	-0.159598
H107	H	0.924653	-0.418287	-0.213242
H108	H	0.786638	-0.411717	-0.106087
H109	H	0.814838	-0.335859	-0.159730
H110	H	0.800603	-0.403569	-0.290925
H111	H	0.772378	-0.479422	-0.237275
H112	H	0.716900	-0.393279	-0.237293
H113	H	1.084697	0.011082	0.587108
C114	C	1.100073	-0.004512	0.400123
C115	C	1.149565	-0.054533	0.462698
C116	C	1.206137	-0.111753	0.414893
H117	H	1.134761	0.025612	0.362671
H118	H	1.070182	-0.039534	0.362709
H119	H	1.179453	-0.019517	0.500096
H120	H	1.114900	-0.084676	0.500152
H121	H	1.176246	-0.146774	0.377479
H122	H	1.240819	-0.081622	0.377442
H123	H	1.239718	-0.145704	0.457343
