data_functionalizedCrystal
_audit_creation_method	'MofGen! by Chris Wilmer'
_symmetry_space_group_name_H-M	'P1'
_symmetry_Int_Tables_number	1
_symmetry_cell_setting	triclinic
loop_
_symmetry_equiv_pos_as_xyz
  x,y,z
_cell_length_a	16.109295
_cell_length_b	16.776229
_cell_length_c	17.699083
_cell_angle_alpha	90.000201
_cell_angle_beta	96.628900
_cell_angle_gamma	89.995788
loop_
_atom_site_label
_atom_site_type_symbol
_atom_site_fract_x
_atom_site_fract_y
_atom_site_fract_z
O1	O	-1.102970	0.066222	0.097267
O2	O	-0.860887	0.066234	0.109378
O3	O	-0.988768	0.066236	-0.006857
O4	O	-0.975089	0.066221	0.213502
O5	O	-0.988751	-0.066341	-0.006864
O6	O	-0.860870	-0.066342	0.109371
O7	O	-1.102953	-0.066354	0.097260
Zn8	Zn	-0.981909	-0.087397	0.103314
Zn9	Zn	-0.981931	0.087278	0.103324
O10	O	-0.975072	-0.066356	0.213495
C11	C	-0.829904	-0.000052	0.108885
C12	C	-0.737611	-0.000047	0.107416
N13	N	-0.981900	-0.206609	0.103308
C14	C	-0.515225	-0.000060	0.172972
C15	C	-0.428507	-0.000064	0.171586
C16	C	-0.448619	-0.000052	0.033679
C17	C	-0.535335	-0.000053	0.035066
C18	C	-0.568636	-0.000053	0.104715
C19	C	-0.395201	-0.000056	0.101942
C20	C	-0.301178	-0.000062	0.100439
C21	C	-0.662666	-0.000049	0.106218
C22	C	-1.038543	-0.248325	0.051860
C23	C	-1.038547	-0.331777	0.051859
C24	C	-0.981912	-0.373512	0.103310
C25	C	-0.925263	-0.331789	0.154761
C26	C	-0.925255	-0.248339	0.154757
C27	C	-0.925293	-0.668337	0.154776
C28	C	-0.925307	-0.751793	0.154777
C29	C	-1.038585	-0.751775	0.051878
C30	C	-1.038577	-0.668325	0.051874
C31	C	-0.981926	-0.626610	0.103321
C32	C	-0.981920	-0.536121	0.103320
C33	C	-0.981921	-0.463998	0.103316
C34	C	-0.133935	-0.000065	0.097758
C35	C	-0.226226	-0.000062	0.099240
C36	C	-0.988269	-0.000049	-0.035058
C37	C	-0.986799	-0.000038	-0.119078
N38	N	-0.981947	0.206489	0.103325
C39	C	-0.975571	-0.000069	0.241696
C40	C	-0.977041	-0.000075	0.325717
C41	C	-0.901978	-0.000071	0.374232
C42	C	-0.903364	-0.000062	0.453177
C43	C	-0.979815	-0.000062	0.483606
C44	C	-1.054885	-0.000064	0.435084
C45	C	-1.053497	-0.000067	0.356140
C46	C	-1.060482	-0.000048	0.753455
C47	C	-1.061863	-0.000047	0.832405
C48	C	-0.910349	-0.000043	0.850492
C49	C	-0.908961	-0.000047	0.771548
C50	C	-0.984030	-0.000044	0.723033
C51	C	-0.982526	-0.000052	0.637432
C52	C	-0.981320	-0.000059	0.569205
H53	H	-0.542335	-0.000066	0.229684
H54	H	-0.385023	-0.000072	0.227168
H55	H	-0.839722	-0.000081	0.349464
H56	H	-0.421495	-0.000057	-0.023026
H57	H	-0.578825	-0.000049	-0.020521
C58	C	-1.138983	-0.000068	0.468553
C59	C	-1.221552	-0.000072	0.415185
C60	C	-1.305653	-0.000081	0.448651
C61	C	-1.307184	-0.000085	0.535485
C62	C	-1.224611	-0.000080	0.588859
C63	C	-1.140511	-0.000071	0.555392
H64	H	-1.220422	-0.000069	0.350900
H65	H	-1.366778	-0.000084	0.409140
H66	H	-1.369440	-0.000091	0.560259
H67	H	-1.225742	-0.000083	0.653143
H68	H	-1.079385	-0.000068	0.594903
H69	H	-1.084712	-0.785748	0.009984
C70	C	-1.100844	-0.202422	-0.004739
C71	C	-1.163146	-0.248314	-0.061334
C72	C	-1.225446	-0.202413	-0.117936
C73	C	-1.225445	-0.110621	-0.117944
C74	C	-1.163140	-0.064724	-0.061348
C75	C	-1.100840	-0.110624	-0.004745
H76	H	-1.163149	-0.316269	-0.061330
H77	H	-1.271568	-0.236390	-0.159833
H78	H	-1.271564	-0.076643	-0.159845
H79	H	-1.163137	0.003231	-0.061352
H80	H	-1.054718	-0.076648	0.037152
H81	H	-0.846707	-0.000051	0.746778
C82	C	-0.820790	-0.000062	0.506541
C83	C	-0.800903	0.068786	0.563293
C84	C	-0.718324	0.068787	0.616655
C85	C	-0.655632	-0.000060	0.613265
C86	C	-0.675517	-0.068914	0.556510
C87	C	-0.758096	-0.068915	0.503148
H88	H	-0.847313	0.119755	0.565805
H89	H	-0.703604	0.119757	0.658668
H90	H	-0.594502	-0.000059	0.652766
H91	H	-0.629108	-0.119883	0.553998
H92	H	-0.772816	-0.119885	0.461134
H93	H	-0.849224	-0.000042	0.890002
H94	H	-1.124123	-0.000046	0.857176
C95	C	-1.100875	-0.622417	-0.004724
C96	C	-1.163180	-0.668302	-0.061322
C97	C	-1.225476	-0.622394	-0.117923
C98	C	-1.225467	-0.530602	-0.117927
C99	C	-1.163159	-0.484711	-0.061327
C100	C	-1.100863	-0.530619	-0.004725
H101	H	-1.163189	-0.736256	-0.061321
H102	H	-1.271600	-0.656366	-0.159822
H103	H	-1.271582	-0.496618	-0.159826
H104	H	-1.163150	-0.416757	-0.061327
H105	H	-1.054739	-0.496647	0.037173
C106	C	-0.863000	-0.797703	0.211373
C107	C	-0.800682	-0.751821	0.267961
C108	C	-0.738379	-0.797732	0.324553
C109	C	-0.738395	-0.889524	0.324558
C110	C	-0.800715	-0.935411	0.267967
C111	C	-0.863018	-0.889501	0.211375
H112	H	-0.800668	-0.683866	0.267960
H113	H	-0.692246	-0.763762	0.366445
H114	H	-0.692275	-0.923510	0.366451
H115	H	-0.800729	-1.003366	0.267968
H116	H	-0.909151	-0.923470	0.169483
C117	C	-0.862962	-0.377693	0.211360
C118	C	-0.863006	-0.469485	0.211406
C119	C	-0.800705	-0.515386	0.268009
C120	C	-0.738361	-0.469494	0.324565
C121	C	-0.738315	-0.377696	0.324520
C122	C	-0.800616	-0.331795	0.267918
H123	H	-0.909159	-0.503462	0.169538
H124	H	-0.800740	-0.583340	0.268041
H125	H	-0.692242	-0.503472	0.366465
H126	H	-0.692162	-0.343719	0.366389
H127	H	-0.800581	-0.263841	0.267885
H128	H	-1.084670	-0.365743	0.009966
C129	C	-1.136068	-0.000074	0.302770
C130	C	-1.198752	-0.068919	0.306160
C131	C	-1.281325	-0.068922	0.252790
C132	C	-1.301214	-0.000079	0.196029
C133	C	-1.238529	0.068771	0.192636
C134	C	-1.155955	0.068774	0.246007
H135	H	-1.184030	-0.119886	0.348180
H136	H	-1.327729	-0.119890	0.255302
H137	H	-1.362340	-0.000081	0.156521
H138	H	-1.253250	0.119737	0.150617
H139	H	-1.109552	0.119742	0.243495
H140	H	-0.879167	-0.634379	0.196667
H141	H	-0.879130	-0.214374	0.196650
H142	H	-1.121608	-0.000051	0.713964
