data_functionalizedCrystal
_audit_creation_method	'MofGen! by Chris Wilmer'
_symmetry_space_group_name_H-M	'P1'
_symmetry_Int_Tables_number	1
_symmetry_cell_setting	triclinic
loop_
_symmetry_equiv_pos_as_xyz
  x,y,z
_cell_length_a	17.699083
_cell_length_b	22.010155
_cell_length_c	17.699083
_cell_angle_alpha	89.996646
_cell_angle_beta	83.283015
_cell_angle_gamma	90.002416
loop_
_atom_site_label
_atom_site_type_symbol
_atom_site_fract_x
_atom_site_fract_y
_atom_site_fract_z
O1	O	1.004081	0.050441	0.095701
O2	O	1.337415	0.383774	0.429034
O3	O	1.670748	0.717108	0.762367
O4	O	0.783703	0.050461	0.108153
O5	O	1.117036	0.383795	0.441486
O6	O	1.450370	0.717128	0.774820
O7	O	0.900118	0.050445	-0.008262
O8	O	1.233452	0.383779	0.325071
O9	O	1.566785	0.717112	0.658404
O10	O	0.887666	0.050457	0.212116
O11	O	1.220999	0.383790	0.545449
O12	O	1.554333	0.717124	0.878783
O13	O	0.900097	-0.050605	-0.008245
O14	O	1.233431	0.282728	0.325089
O15	O	1.566764	0.616062	0.658422
O16	O	0.783682	-0.050589	0.108171
O17	O	1.117015	0.282744	0.441504
O18	O	1.450348	0.616078	0.774837
O19	O	1.004060	-0.050609	0.095718
O20	O	1.337394	0.282724	0.429051
O21	O	1.670727	0.616057	0.762385
Cu22	Cu	0.893869	-0.059826	0.101946
Cu23	Cu	1.227202	0.273507	0.435279
Cu24	Cu	1.560536	0.606841	0.768613
Cu25	Cu	0.893894	0.059678	0.101925
Cu26	Cu	1.227227	0.393011	0.435259
Cu27	Cu	1.560561	0.726345	0.768592
O28	O	0.887645	-0.050593	0.212134
O29	O	1.220978	0.282740	0.545467
O30	O	1.554311	0.616073	0.878800
C31	C	0.755495	-0.000061	0.107716
C32	C	1.088829	0.333272	0.441049
C33	C	1.422162	0.666605	0.774382
C34	C	0.671477	-0.000054	0.106377
C35	C	1.004811	0.333279	0.439710
C36	C	1.338144	0.666613	0.773044
N37	N	0.893857	-0.143878	0.101960
N38	N	1.227190	0.189455	0.435293
N39	N	1.560524	0.522788	0.768627
C40	C	0.622856	-0.000050	0.174711
C41	C	0.956190	0.333283	0.508044
C42	C	1.289523	0.666616	0.841377
C43	C	0.543913	-0.000058	0.173448
C44	C	0.877246	0.333275	0.506782
C45	C	1.210580	0.666608	0.840115
C46	C	0.513592	-0.000065	0.103852
C47	C	0.846926	0.333268	0.437185
C48	C	1.180259	0.666601	0.770518
C49	C	0.562219	-0.000071	0.035513
C50	C	0.895553	0.333263	0.368846
C51	C	1.228886	0.666596	0.702180
C52	C	0.641161	-0.000067	0.036776
C53	C	0.974495	0.333266	0.370110
C54	C	1.307828	0.666599	0.703443
C55	C	0.243856	-0.000086	0.030418
C56	C	0.577190	0.333247	0.363751
C57	C	0.910523	0.666581	0.697085
C58	C	0.164908	-0.000088	0.029160
C59	C	0.498242	0.333246	0.362493
C60	C	0.831575	0.666579	0.695827
C61	C	0.146608	-0.000077	0.167090
C62	C	0.479942	0.333256	0.500423
C63	C	0.813275	0.666589	0.833757
C64	C	0.225550	-0.000074	0.168353
C65	C	0.558883	0.333260	0.501686
C66	C	0.892217	0.666593	0.835020
C67	C	0.274170	-0.000082	0.100015
C68	C	0.607504	0.333251	0.433348
C69	C	0.940837	0.666584	0.766681
C70	C	0.359769	-0.000075	0.101384
C71	C	0.693103	0.333259	0.434718
C72	C	1.026436	0.666592	0.768051
C73	C	0.427995	-0.000069	0.102481
C74	C	0.761328	0.333265	0.435815
C75	C	1.094661	0.666598	0.769148
C76	C	0.945446	-0.563665	0.050384
C77	C	1.278779	-0.230331	0.383717
C78	C	1.612113	0.103002	0.717051
C79	C	0.945449	-0.627272	0.050379
C80	C	1.278783	-0.293939	0.383712
C81	C	1.612116	0.039394	0.717045
O82	O	0.989282	-0.660170	0.006537
O83	O	1.322615	-0.326837	0.339870
O84	O	1.655948	0.006497	0.673203
N85	N	0.893894	-0.659085	0.101910
N86	N	1.227227	-0.325752	0.435243
N87	N	1.560560	0.007581	0.768576
C88	C	0.842326	-0.627288	0.153444
C89	C	1.175659	-0.293954	0.486777
C90	C	1.508993	0.039379	0.820110
O91	O	0.798474	-0.660188	0.197274
O92	O	1.131807	-0.326854	0.530607
O93	O	1.465140	0.006479	0.863940
C94	C	0.842319	-0.563681	0.153445
C95	C	1.175653	-0.230348	0.486778
C96	C	1.508986	0.102986	0.820111
C97	C	0.893884	-0.531871	0.101916
C98	C	1.227217	-0.198538	0.435249
C99	C	1.560550	0.134795	0.768582
C100	C	0.997005	-0.531855	-0.001142
C101	C	1.330339	-0.198522	0.332192
C102	C	1.663672	0.134812	0.665525
C103	C	0.997002	-0.468252	-0.001135
C104	C	1.330336	-0.134918	0.332198
C105	C	1.663669	0.198415	0.665532
C106	C	0.945440	-0.436458	0.050397
C107	C	1.278774	-0.103125	0.383730
C108	C	1.612107	0.230208	0.717063
C109	C	0.893881	-0.468268	0.101922
C110	C	1.227214	-0.134935	0.435255
C111	C	1.560548	0.198398	0.768589
C112	C	0.790749	-0.531884	0.204975
C113	C	1.124082	-0.198551	0.538308
C114	C	1.457415	0.134782	0.871641
C115	C	0.790746	-0.468274	0.204971
C116	C	1.124080	-0.134940	0.538304
C117	C	1.457413	0.198393	0.871638
C118	C	0.842310	-0.436464	0.153442
C119	C	1.175644	-0.103131	0.486775
C120	C	1.508977	0.230203	0.820108
C121	C	0.842316	-0.372872	0.153460
C122	C	1.175649	-0.039538	0.486793
C123	C	1.508983	0.293795	0.820127
N124	N	0.893872	-0.341059	0.101929
N125	N	1.227205	-0.007725	0.435263
N126	N	1.560538	0.325608	0.768596
C127	C	0.945434	-0.372852	0.050398
C128	C	1.278767	-0.039519	0.383731
C129	C	1.612100	0.293815	0.717064
C130	C	0.842343	-0.760865	0.153437
C131	C	1.175676	-0.427532	0.486770
C132	C	1.509009	-0.094199	0.820104
C133	C	0.842352	-0.824471	0.153440
C134	C	1.175686	-0.491137	0.486773
C135	C	1.509019	-0.157804	0.820107
C136	C	0.945475	-0.824451	0.050374
C137	C	1.278808	-0.491118	0.383707
C138	C	1.612142	-0.157784	0.717041
C139	C	0.945468	-0.760845	0.050375
C140	C	1.278802	-0.427511	0.383708
C141	C	1.612135	-0.094178	0.717042
C142	C	0.893898	-0.729052	0.101906
C143	C	1.227232	-0.395719	0.435239
C144	C	1.560565	-0.062386	0.768573
C145	C	0.945424	-0.239281	0.050415
C146	C	1.278758	0.094053	0.383749
C147	C	1.612091	0.427386	0.717082
C148	C	0.945419	-0.175672	0.050428
C149	C	1.278753	0.157662	0.383762
C150	C	1.612086	0.490995	0.717095
C151	C	0.842294	-0.175697	0.153491
C152	C	1.175628	0.157636	0.486825
C153	C	1.508961	0.490970	0.820158
C154	C	0.842302	-0.239300	0.153481
C155	C	1.175635	0.094033	0.486815
C156	C	1.508969	0.427367	0.820148
C157	C	0.893870	-0.271090	0.101937
C158	C	1.227203	0.062243	0.435270
C159	C	1.560537	0.395576	0.768604
O160	O	0.798504	-0.339934	0.197278
O161	O	1.131837	-0.006600	0.530611
O162	O	1.465171	0.326733	0.863944
O163	O	0.989272	-0.339944	0.006568
O164	O	1.322605	-0.006611	0.339902
O165	O	1.655939	0.326723	0.673235
C166	C	1.032268	-0.000085	0.096156
C167	C	1.365601	0.333248	0.429489
C168	C	1.698934	0.666581	0.762822
C169	C	1.116286	-0.000089	0.097494
C170	C	1.449619	0.333245	0.430828
C171	C	1.782953	0.666578	0.764161
C172	C	0.899662	-0.000080	-0.036451
C173	C	1.232995	0.333253	0.296883
C174	C	1.566328	0.666587	0.630216
C175	C	0.898323	-0.000080	-0.120469
C176	C	1.231656	0.333253	0.212865
C177	C	1.564990	0.666587	0.546198
N178	N	0.893912	0.143730	0.101905
N179	N	1.227245	0.477064	0.435239
N180	N	1.560579	0.810397	0.768572
C181	C	0.966656	-0.000087	-0.169090
C182	C	1.299990	0.333246	0.164244
C183	C	1.633323	0.666580	0.497577
C184	C	0.965394	-0.000082	-0.248033
C185	C	1.298727	0.333252	0.085300
C186	C	1.632061	0.666585	0.418634
C187	C	0.895798	-0.000073	-0.278354
C188	C	1.229131	0.333260	0.054980
C189	C	1.562464	0.666593	0.388313
C190	C	0.827459	-0.000065	-0.229727
C191	C	1.160792	0.333269	0.103607
C192	C	1.494126	0.666602	0.436940
C193	C	0.828722	-0.000066	-0.150785
C194	C	1.162055	0.333268	0.182549
C195	C	1.495389	0.666601	0.515882
C196	C	0.822364	-0.000059	-0.548090
C197	C	1.155697	0.333274	-0.214756
C198	C	1.489030	0.666608	0.118577
C199	C	0.821106	-0.000060	-0.627038
C200	C	1.154439	0.333274	-0.293704
C201	C	1.487773	0.666607	0.039629
C202	C	0.959036	-0.000075	-0.645338
C203	C	1.292369	0.333258	-0.312004
C204	C	1.625702	0.666592	0.021329
C205	C	0.960299	-0.000076	-0.566396
C206	C	1.293632	0.333257	-0.233063
C207	C	1.626966	0.666590	0.100271
C208	C	0.891961	-0.000064	-0.517776
C209	C	1.225294	0.333269	-0.184442
C210	C	1.558627	0.666603	0.148891
C211	C	0.893330	-0.000069	-0.432177
C212	C	1.226664	0.333264	-0.098843
C213	C	1.559997	0.666598	0.234490
C214	C	0.894427	-0.000073	-0.363951
C215	C	1.227761	0.333260	-0.030618
C216	C	1.561094	0.666594	0.302715
C217	C	0.888102	-0.000067	0.240322
C218	C	1.221435	0.333267	0.573655
C219	C	1.554768	0.666600	0.906989
C220	C	0.889440	-0.000063	0.324340
C221	C	1.222773	0.333271	0.657673
C222	C	1.556107	0.666604	0.991007
H223	H	0.647537	-0.000044	0.231384
H224	H	0.980870	0.333289	0.564717
H225	H	1.314204	0.666622	0.898051
H226	H	0.504328	-0.000055	0.229092
H227	H	0.837662	0.333278	0.562426
H228	H	1.170995	0.666612	0.895759
H229	H	1.038988	-0.442356	-0.043097
H230	H	1.372322	-0.109023	0.290237
H231	H	1.705655	0.224311	0.623570
H232	H	0.800321	-0.265200	0.195448
H233	H	1.133654	0.068133	0.528782
H234	H	1.466988	0.401466	0.862115
H235	H	0.770792	-0.000054	-0.254420
H236	H	1.104126	0.333279	0.078913
H237	H	1.437459	0.666613	0.412247
N238	N	0.786681	-0.141395	0.209064
N239	N	1.120015	0.191939	0.542397
N240	N	1.453348	0.525272	0.875730
H241	H	0.732986	-0.152466	0.200408
H242	H	1.066319	0.180867	0.533741
H243	H	1.399652	0.514200	0.867074
H244	H	0.795353	-0.152475	0.262750
H245	H	1.128687	0.180858	0.596083
H246	H	1.462020	0.514191	0.929417
H247	H	1.021038	-0.000089	-0.287617
H248	H	1.354372	0.333245	0.045716
H249	H	1.687705	0.666578	0.379049
N250	N	0.296282	-0.000096	-0.043292
N251	N	0.629615	0.333238	0.290042
N252	N	0.962949	0.666571	0.623375
H253	H	0.286544	0.037361	-0.073668
H254	H	0.619877	0.370695	0.259665
H255	H	0.953210	0.704028	0.592998
H256	H	0.350873	-0.000119	-0.031881
H257	H	0.684207	0.333214	0.301453
H258	H	1.017540	0.666548	0.634786
H259	H	0.250232	-0.000065	0.225025
H260	H	0.583566	0.333268	0.558359
H261	H	0.916899	0.666602	0.891692
N262	N	1.001039	-0.141363	-0.005149
N263	N	1.334372	0.191971	0.328184
N264	N	1.667706	0.525304	0.661517
H265	H	1.033701	-0.171159	-0.037795
H266	H	1.367034	0.162174	0.295538
H267	H	1.700367	0.495507	0.628871
H268	H	0.972129	-0.114970	-0.038573
H269	H	1.305463	0.218364	0.294761
H270	H	1.638796	0.551697	0.628094
H271	H	1.014680	-0.000082	-0.684934
H272	H	1.348013	0.333251	-0.351601
H273	H	1.681347	0.666585	-0.018268
H274	H	0.680748	-0.000070	-0.018868
H275	H	1.014082	0.333264	0.314465
H276	H	1.347415	0.666597	0.647799
N277	N	0.748658	-0.000049	-0.495658
N278	N	1.081991	0.333285	-0.162325
N279	N	1.415325	0.666618	0.171009
H280	H	0.760013	-0.000046	-0.441047
H281	H	1.093346	0.333287	-0.107713
H282	H	1.426680	0.666621	0.225620
H283	H	0.718335	0.037417	-0.505471
H284	H	1.051669	0.370750	-0.172138
H285	H	1.385002	0.704083	0.161196
H286	H	1.038993	-0.557736	-0.043108
H287	H	1.372327	-0.224402	0.290225
H288	H	1.705660	0.108931	0.623558
H289	H	0.987456	-0.734949	0.008415
H290	H	1.320789	-0.401615	0.341749
H291	H	1.654123	-0.068282	0.675082
N292	N	0.746038	-0.000054	-0.659743
N293	N	1.079371	0.333279	-0.326410
N294	N	1.412705	0.666612	0.006923
H295	H	0.702937	-0.000047	-0.616964
H296	H	1.036270	0.333287	-0.283631
H297	H	1.369604	0.666620	0.049702
H298	H	0.742522	0.037405	-0.692106
H299	H	1.075855	0.370738	-0.358773
H300	H	1.409188	0.704071	-0.025439
H301	H	0.748749	-0.442391	0.246933
H302	H	1.082083	-0.109058	0.580266
H303	H	1.415416	0.224275	0.913600
N304	N	0.755020	-0.000054	-0.098340
N305	N	1.088354	0.333279	0.234994
N306	N	1.421687	0.666612	0.568327
H307	H	0.710739	-0.000050	-0.129525
H308	H	1.044072	0.333284	0.203809
H309	H	1.377406	0.666617	0.537142
H310	H	0.752530	-0.037514	-0.065182
H311	H	1.085863	0.295819	0.268151
H312	H	1.419196	0.629153	0.601485
H313	H	0.537526	-0.000085	-0.021154
H314	H	0.870859	0.333248	0.312180
H315	H	1.204193	0.666581	0.645513
H316	H	0.987415	-0.265157	0.008442
H317	H	1.320748	0.068176	0.341776
H318	H	1.654082	0.401510	0.675109
H319	H	1.023330	-0.000098	-0.144409
H320	H	1.356663	0.333236	0.188924
H321	H	1.689997	0.666569	0.522258
N322	N	0.132211	-0.000104	-0.045912
N323	N	0.465544	0.333229	0.287421
N324	N	0.798878	0.666563	0.620754
H325	H	0.099863	-0.037565	-0.049495
H326	H	0.433197	0.295768	0.283839
H327	H	0.766530	0.629102	0.617172
H328	H	0.099906	0.037379	-0.049479
H329	H	0.433239	0.370712	0.283855
H330	H	0.766572	0.704045	0.617188
H331	H	0.107012	-0.000074	0.222734
H332	H	0.440345	0.333260	0.556067
H333	H	0.773678	0.666593	0.889401
N334	N	1.001091	-0.858749	-0.005209
N335	N	1.334424	-0.525415	0.328124
N336	N	1.667757	-0.192082	0.661457
H337	H	0.993264	-0.903869	0.002612
H338	H	1.326598	-0.570536	0.335945
H339	H	1.659931	-0.237202	0.669278
H340	H	0.992448	-0.847630	-0.058892
H341	H	1.325781	-0.514296	0.274442
H342	H	1.659115	-0.180963	0.607775
N343	N	0.786741	-0.858776	0.209022
N344	N	1.120075	-0.525443	0.542355
N345	N	1.453408	-0.192110	0.875688
H346	H	0.754078	-0.828978	0.241663
H347	H	1.087411	-0.495644	0.574997
H348	H	1.420745	-0.162311	0.908330
H349	H	0.753338	-0.885163	0.180082
H350	H	1.086672	-0.551830	0.513416
H351	H	1.420005	-0.218497	0.846749
H352	H	0.800350	-0.734983	0.195406
H353	H	1.133683	-0.401650	0.528739
H354	H	1.467017	-0.068317	0.862073
H355	H	1.016971	-0.000086	-0.541714
H356	H	1.350305	0.333247	-0.208380
H357	H	1.683638	0.666581	0.124953
H358	H	0.748760	-0.557775	0.246934
H359	H	1.082094	-0.224442	0.580267
H360	H	1.415427	0.108892	0.913600
