data_functionalizedCrystal
_audit_creation_method	'MofGen! by Chris Wilmer'
_symmetry_space_group_name_H-M	'P1'
_symmetry_Int_Tables_number	1
_symmetry_cell_setting	triclinic
loop_
_symmetry_equiv_pos_as_xyz
  x,y,z
_cell_length_a	15.944551
_cell_length_b	15.072220
_cell_length_c	15.995350
_cell_angle_alpha	90.001101
_cell_angle_beta	83.495556
_cell_angle_gamma	89.991993
loop_
_atom_site_label
_atom_site_type_symbol
_atom_site_fract_x
_atom_site_fract_y
_atom_site_fract_z
O1	O	1.114528	-0.073686	0.107983
O2	O	0.869978	-0.073707	0.121297
O3	O	0.998938	-0.073695	-0.007247
O4	O	0.985568	-0.073698	0.236527
O5	O	0.998906	0.073870	-0.007240
O6	O	0.869946	0.073858	0.121304
O7	O	1.114497	0.073880	0.107990
Zn8	Zn	0.992216	0.097298	0.114648
Zn9	Zn	0.992258	-0.097125	0.114639
O10	O	0.985536	0.073867	0.236534
C11	C	0.838668	0.000073	0.120748
C12	C	0.745422	0.000064	0.119091
N13	N	0.992194	0.229987	0.114654
N14	N	0.992288	-0.229814	0.114626
C15	C	0.530570	0.000083	0.035452
C16	C	0.469564	-0.072675	0.074288
C17	C	0.574697	0.000075	0.116093
C18	C	0.469554	0.072812	0.074314
C19	C	0.409784	0.000089	0.113192
C20	C	0.514918	-0.072743	0.154951
C21	C	0.514915	0.072810	0.154965
C22	C	0.453926	0.000034	0.193859
C23	C	0.669699	0.000066	0.117762
C24	C	0.314783	0.000091	0.111529
C25	C	1.145806	0.000098	0.108539
C26	C	1.239052	0.000100	0.110196
C27	C	0.998370	0.000086	-0.038438
C28	C	0.996712	0.000081	-0.131389
C29	C	0.992257	0.589188	0.114636
C30	C	0.923021	0.551575	0.183186
C31	C	0.923180	0.448749	0.183437
C32	C	0.992225	0.410984	0.114645
C33	C	1.079867	0.448283	0.133732
C34	C	1.079479	0.551141	0.134219
C35	C	0.974631	0.551288	0.026795
C36	C	0.972620	0.448424	0.027381
C37	C	0.992212	0.310271	0.114648
C38	C	0.992275	0.689902	0.114634
C39	C	0.990761	0.000083	-0.469137
C40	C	0.898918	-0.000256	-0.421708
C41	C	0.900576	0.000077	-0.325017
C42	C	0.993713	0.000082	-0.301576
C43	C	1.038995	0.084351	-0.342647
C44	C	1.036688	0.084421	-0.439283
C45	C	1.038622	-0.083388	-0.439649
C46	C	1.038600	-0.084501	-0.342704
C47	C	0.995386	0.000084	-0.206878
C48	C	0.989091	0.000087	-0.563835
C49	C	0.986105	0.000085	0.267726
C50	C	0.987762	0.000084	0.360676
H51	H	0.563907	-0.000007	-0.031473
N52	N	0.444367	-0.149842	0.031493
N53	N	0.472143	-0.162810	-0.043760
H54	H	0.454355	-0.217308	-0.073989
H55	H	0.862223	-0.060687	-0.440245
H56	H	0.862360	0.059833	-0.441301
N57	N	0.999503	0.163012	-0.307038
N58	N	0.938018	0.157228	-0.251425
H59	H	0.910121	0.212780	-0.226276
N60	N	0.936933	0.583997	0.264500
N61	N	0.935938	0.665587	0.278586
H62	H	0.945765	0.688488	0.336013
H63	H	0.534917	-0.134321	0.189030
H64	H	0.864714	0.060582	-0.297152
N65	N	1.123813	-0.090870	-0.323444
N66	N	1.183322	-0.091083	-0.381477
H67	H	1.243507	-0.095571	-0.367876
N68	N	1.031771	0.416168	-0.039609
N69	N	1.089600	0.364836	-0.024056
H70	H	1.131381	0.342053	-0.071366
H71	H	0.449457	0.134321	0.040194
N72	N	0.412330	-0.000022	0.277904
N73	N	0.424051	-0.062549	0.326588
H74	H	0.394673	-0.062594	0.385945
H75	H	0.535031	0.134324	0.189048
H76	H	0.858033	0.423532	0.172064
H77	H	1.008607	-0.147259	-0.460193
H78	H	1.107420	0.087488	-0.328517
N79	N	0.841033	0.582633	0.169148
N80	N	0.832668	0.632856	0.108460
H81	H	0.774762	0.654796	0.098542
H82	H	0.934435	0.424136	0.248622
N83	N	0.891739	0.417843	0.009218
N84	N	0.848651	0.368654	0.060309
H85	H	0.791528	0.347050	0.047484
H86	H	1.095011	0.575123	0.198280
H87	H	1.095770	0.422515	0.197063
N88	N	1.146051	0.582345	0.073963
N89	N	1.192653	0.528155	0.031689
H90	H	1.239672	0.550189	-0.010864
H91	H	1.132619	0.423819	0.085131
N92	N	0.997115	-0.162704	-0.308462
N93	N	0.934722	-0.156238	-0.253968
H94	H	0.905420	-0.211467	-0.229780
H95	H	0.912110	0.577273	0.008443
H96	H	1.025122	0.575611	-0.024218
N97	N	0.855917	-0.075704	-0.289375
N98	N	0.823302	-0.129209	-0.335904
H99	H	0.791756	-0.182730	-0.310735
H100	H	1.003641	0.147410	-0.457583
N101	N	1.121278	0.089234	-0.479726
N102	N	1.181827	0.092536	-0.436554
H103	H	1.241568	0.095941	-0.465113
N104	N	1.123577	-0.084094	-0.479466
N105	N	1.171983	-0.021024	-0.468327
H106	H	1.231982	-0.021515	-0.496446
