data_functionalizedCrystal
_audit_creation_method	'MofGen! by Chris Wilmer'
_symmetry_space_group_name_H-M	'P1'
_symmetry_Int_Tables_number	1
_symmetry_cell_setting	triclinic
loop_
_symmetry_equiv_pos_as_xyz
  x,y,z
_cell_length_a	14.908520
_cell_length_b	14.908571
_cell_length_c	14.908308
_cell_angle_alpha	90.175053
_cell_angle_beta	83.639235
_cell_angle_gamma	89.794039
loop_
_atom_site_label
_atom_site_type_symbol
_atom_site_fract_x
_atom_site_fract_y
_atom_site_fract_z
Zn1	Zn	-0.470613	-1.316651	0.613065
Zn2	Zn	0.029387	-0.816651	1.113065
Zn3	Zn	-0.613252	-1.316549	0.470429
Zn4	Zn	-0.113252	-0.816549	0.970429
Zn5	Zn	-0.453291	-1.176020	0.453125
Zn6	Zn	0.046709	-0.676020	0.953125
Zn7	Zn	-0.612180	-1.157642	0.612023
Zn8	Zn	-0.112180	-0.657642	1.112023
O9	O	-0.537334	-1.241715	0.537161
O10	O	-0.037334	-0.741715	1.037161
O11	O	-0.497231	-1.441995	0.601822
O12	O	0.002769	-0.941995	1.101822
O13	O	-0.585232	-1.305556	0.341941
O14	O	-0.085232	-0.805556	0.841941
O15	O	-0.329399	-1.202409	0.467536
O16	O	0.170601	-0.702409	0.967536
O17	O	-0.602028	-1.441920	0.497029
O18	O	-0.102028	-0.941920	0.997029
O19	O	-0.342124	-1.305730	0.585043
O20	O	0.157876	-0.805730	1.085043
O21	O	-0.467710	-1.202310	0.329228
O22	O	0.032290	-0.702310	0.829228
O23	O	-0.466671	-1.048225	0.466525
O24	O	0.033329	-0.548225	0.966525
O25	O	-0.600202	-1.171086	0.738354
O26	O	-0.100202	-0.671086	1.238354
O27	O	-0.583406	-1.034722	0.583267
O28	O	-0.083406	-0.534722	1.083267
O29	O	-0.496192	-1.287909	0.739120
O30	O	0.003808	-0.787909	1.239120
O31	O	-0.739300	-1.287736	0.496018
O32	O	-0.239300	-0.787736	0.996018
O33	O	-0.738513	-1.170987	0.600046
O34	O	-0.238513	-0.670987	1.100046
C35	C	-0.523043	-1.008970	0.522906
C36	C	-0.023043	-0.508970	1.022906
C37	C	-0.516953	-0.909397	0.516830
C38	C	-0.016953	-0.409397	1.016830
C39	C	-0.771629	-1.227379	0.549818
C40	C	-0.271629	-0.727379	1.049818
C41	C	-0.871868	-1.221326	0.555268
C42	C	-0.371868	-0.721326	1.055268
C43	C	-0.550010	-1.227459	0.772372
C44	C	-0.050010	-0.727459	1.272372
C45	C	-0.555411	-1.221383	0.872606
C46	C	-0.055411	-0.721383	1.372606
C47	C	-1.060998	-1.331634	0.457284
C48	C	-0.560998	-0.831634	0.957284
C49	C	-1.155181	-1.325950	0.462402
C50	C	-0.655181	-0.825950	0.962402
C51	C	-1.154420	-1.204279	0.570626
C52	C	-0.654420	-0.704279	1.070626
C53	C	-1.060237	-1.209963	0.565508
C54	C	-0.560237	-0.709963	1.065508
C55	C	-1.013529	-1.273642	0.508834
C56	C	-0.513529	-0.773642	1.008834
C57	C	-0.919343	-1.279321	0.503712
C58	C	-0.419343	-0.779321	1.003712
C59	C	-0.918584	-1.157655	0.611940
C60	C	-0.418584	-0.657655	1.111940
C61	C	-1.012768	-1.151970	0.617058
C62	C	-0.512768	-0.651970	1.117058
C63	C	-0.302127	-1.256131	0.524476
C64	C	0.197873	-0.756131	1.024476
C65	C	-0.201896	-1.262274	0.519070
C66	C	0.298104	-0.762274	1.019070
C67	C	-0.551681	-1.475370	0.551472
C68	C	-0.051681	-0.975370	1.051472
C69	C	-0.557795	-1.574939	0.557571
C70	C	-0.057795	-1.074939	1.057571
C71	C	-0.627234	-0.708277	0.626831
C72	C	-0.127234	-0.208277	1.126831
C73	C	-0.621514	-0.614720	0.621125
C74	C	-0.121514	-0.114720	1.121125
C75	C	-0.499789	-0.628723	0.499719
C76	C	0.000211	-0.128723	0.999719
C77	C	-0.505509	-0.722281	0.505424
C78	C	-0.005509	-0.222281	1.005424
C79	C	-0.569235	-0.762054	0.568981
C80	C	-0.069235	-0.262054	1.068981
C81	C	-0.574958	-0.855613	0.574682
C82	C	-0.074958	-0.355613	1.074682
C83	C	-0.453230	-0.869615	0.453280
C84	C	0.046770	-0.369615	0.953280
C85	C	-0.447510	-0.776058	0.447575
C86	C	0.052490	-0.276058	0.947575
C87	C	-0.524646	-1.255972	0.302864
C88	C	-0.024646	-0.755972	0.802864
C89	C	-0.519001	-1.262236	0.202628
C90	C	-0.019001	-0.762236	0.702628
C91	C	-0.457236	-1.331614	1.061752
C92	C	0.042764	-0.831614	1.561752
C93	C	-0.462308	-1.325908	1.155930
C94	C	0.037692	-0.825908	1.655930
C95	C	-0.570623	-1.204264	1.155141
C96	C	-0.070623	-0.704264	1.655141
C97	C	-0.565551	-1.209969	1.060963
C98	C	-0.065551	-0.709969	1.560963
C99	C	-0.508856	-1.273647	1.014272
C100	C	-0.008856	-0.773647	1.514272
C101	C	-0.503789	-1.279356	0.920093
C102	C	-0.003789	-0.779356	1.420093
C103	C	-0.612099	-1.157708	0.919305
C104	C	-0.112099	-0.657708	1.419305
C105	C	-0.617171	-1.152002	1.013483
C106	C	-0.117171	-0.652002	1.513483
H107	H	-0.881314	-1.331169	0.457563
H108	H	-0.381314	-0.831169	0.957563
F109	F	-1.011285	-1.399394	0.396957
F110	F	-0.511285	-0.899394	0.896957
H111	H	-0.626848	-0.887995	0.626432
H112	H	-0.126848	-0.387995	1.126432
F113	F	-1.205699	-1.387675	0.407538
F114	F	-0.705699	-0.887675	0.907538
H115	H	-0.406004	-0.913411	0.406173
H116	H	0.093996	-0.413411	0.906173
F117	F	-0.683244	-0.557489	0.682698
F118	F	-0.183244	-0.057489	1.182698
F119	F	-0.630950	-1.136493	1.204847
F120	F	-0.130950	-0.636493	1.704847
H121	H	-0.879924	-1.110431	0.653913
H122	H	-0.379924	-0.610431	1.153913
F123	F	-0.407365	-1.387603	1.206459
F124	F	0.092635	-0.887603	1.706459
F125	F	-0.443453	-1.347129	0.870402
F126	F	0.056547	-0.847129	1.370402
F127	F	-0.677504	-1.084234	1.063184
F128	F	-0.177504	-0.584234	1.563184
H129	H	-0.395624	-0.743661	0.395831
H130	H	0.104376	-0.243661	0.895831
F131	F	-0.667049	-1.096019	0.868767
F132	F	-0.167049	-0.596019	1.368767
H133	H	-0.679126	-0.740661	0.678577
H134	H	-0.179126	-0.240661	1.178577
F135	F	-1.204146	-1.136522	0.630947
F136	F	-0.704146	-0.636522	1.130947
H137	H	-1.050810	-1.100127	0.663202
H138	H	-0.550810	-0.600127	1.163202
F139	F	-0.396907	-1.399391	1.012059
F140	F	0.103093	-0.899391	1.512059
F141	F	-0.431963	-0.586378	0.432093
F142	F	0.068037	-0.086378	0.932093
