data_functionalizedCrystal
_audit_creation_method	'MofGen! by Chris Wilmer'
_symmetry_space_group_name_H-M	'P1'
_symmetry_Int_Tables_number	1
_symmetry_cell_setting	triclinic
loop_
_symmetry_equiv_pos_as_xyz
  x,y,z
_cell_length_a	12.784905
_cell_length_b	19.288865
_cell_length_c	18.366186
_cell_angle_alpha	90.011479
_cell_angle_beta	89.990263
_cell_angle_gamma	101.878217
loop_
_atom_site_label
_atom_site_type_symbol
_atom_site_fract_x
_atom_site_fract_y
_atom_site_fract_z
O1	O	1.410301	-0.004354	-0.060554
O2	O	1.100704	-0.034108	-0.060558
O3	O	1.264448	0.082421	-0.060541
O4	O	1.246556	-0.120883	-0.060571
O5	O	1.264420	0.082425	0.060558
O6	O	1.100676	-0.034105	0.060542
O7	O	1.410273	-0.004350	0.060545
Zn8	Zn	1.255470	-0.019227	0.079771
Zn9	Zn	1.255507	-0.019231	-0.079783
O10	O	1.246529	-0.120880	0.060529
C11	C	1.061081	-0.036042	-0.000008
C12	C	0.943060	-0.041799	-0.000009
C13	C	0.747237	0.075510	-0.000005
C14	C	0.636346	0.070104	-0.000006
C15	C	0.610385	-0.058019	-0.000016
C16	C	0.721276	-0.052612	-0.000015
C17	C	0.789699	0.014155	-0.000009
C18	C	0.900591	0.019561	-0.000003
C19	C	0.874628	-0.108561	-0.000018
C20	C	0.763738	-0.113968	-0.000019
C21	C	1.263859	0.108266	0.000010
C22	C	1.262130	0.185269	0.000017
C23	C	1.449896	-0.002417	-0.000006
C24	C	1.567917	0.003341	-0.000010
C25	C	1.247118	-0.146724	-0.000025
C26	C	1.248846	-0.223727	-0.000036
N27	N	1.255453	-0.019223	0.188662
C28	C	1.358208	0.235572	0.000021
C29	C	1.356585	0.307924	0.000010
C30	C	1.258878	0.329970	0.000008
C31	C	1.162787	0.279657	-0.000000
C32	C	1.164414	0.207306	0.000004
C33	C	1.182059	0.433777	0.042426
C34	C	1.180437	0.506126	0.042426
C35	C	1.253858	0.553123	-0.000008
C36	C	1.328919	0.527763	-0.042433
C37	C	1.330545	0.455412	-0.042429
C38	C	1.257103	0.408420	0.000003
C39	C	1.348182	0.681879	-0.000017
C40	C	1.346554	0.754232	-0.000033
C41	C	1.152754	0.725963	-0.000036
C42	C	1.154384	0.653612	-0.000027
C43	C	1.252101	0.631574	-0.000014
N44	N	1.255532	-0.019230	-0.188674
C45	C	1.327983	0.032355	0.226769
C46	C	1.327989	0.032358	0.302997
C47	C	1.255476	-0.019227	0.341114
C48	C	1.182933	-0.070809	0.302998
C49	C	1.182921	-0.070807	0.226771
C50	C	1.241244	-0.083345	0.461866
C51	C	1.241263	-0.083348	0.538091
C52	C	1.255507	-0.019234	0.576222
C53	C	1.269754	0.044887	0.538119
C54	C	1.269742	0.044889	0.461893
C55	C	1.255481	-0.019235	0.423769
C56	C	1.328048	0.032352	0.696984
C57	C	1.328047	0.032356	0.773214
C58	C	1.182996	-0.070817	0.773213
C59	C	1.182991	-0.070816	0.696985
C60	C	1.255523	-0.019232	0.658875
H61	H	0.802948	0.129875	0.000005
C62	C	1.462271	0.363269	0.000020
H63	H	1.447305	0.409514	0.000012
H64	H	1.502335	0.357227	0.042254
H65	H	1.502367	0.357214	-0.042212
C66	C	1.048697	0.598277	-0.000020
H67	H	0.990272	0.621766	-0.000016
H68	H	1.045309	0.569453	-0.042246
H69	H	1.045299	0.569478	0.042219
H70	H	1.073199	0.743912	-0.000041
C71	C	0.589642	0.137595	0.000002
H72	H	0.646277	0.178130	0.000011
H73	H	0.546930	0.138146	-0.042227
H74	H	0.546917	0.138151	0.042239
C75	C	1.058723	0.151971	0.000006
H76	H	1.000297	0.175460	0.000006
H77	H	1.055339	0.123146	-0.042220
H78	H	1.055323	0.123173	0.042245
C79	C	1.413098	0.427513	-0.089094
H80	H	1.403553	0.377695	-0.083008
H81	H	1.403503	0.437995	-0.138881
H82	H	1.483175	0.449632	-0.074172
H83	H	0.554657	-0.112377	-0.000031
C84	C	0.975859	0.092998	0.000003
H85	H	1.047984	0.087433	0.000009
H86	H	0.963028	0.118429	-0.042226
H87	H	0.963008	0.118437	0.042240
C88	C	0.688469	-0.187405	-0.000022
H89	H	0.616344	-0.181839	-0.000017
H90	H	0.701317	-0.212849	-0.042250
H91	H	0.701300	-0.212831	0.042215
C92	C	0.921337	-0.176055	-0.000027
H93	H	0.997180	-0.163275	-0.000031
H94	H	0.897819	-0.203261	0.042199
H95	H	0.897841	-0.203263	-0.042267
C96	C	1.465692	0.211334	0.000023
H97	H	1.522680	0.251659	0.000016
H98	H	1.470351	0.183703	0.042251
H99	H	1.470361	0.183692	-0.042214
C100	C	1.407788	0.089078	0.184849
H101	H	1.397411	0.081685	0.133993
H102	H	1.396509	0.134767	0.197345
H103	H	1.478695	0.085760	0.197340
C104	C	1.407777	0.089095	0.344924
H105	H	1.450974	0.119814	0.311310
H106	H	1.369682	0.115722	0.374677
H107	H	1.451914	0.066746	0.374643
C108	C	1.103219	-0.127559	0.655065
H109	H	1.060039	-0.158285	0.688681
H110	H	1.059081	-0.105222	0.625341
H111	H	1.141328	-0.154187	0.625317
H112	H	1.388705	0.566026	-0.076988
H113	H	1.123950	-0.112817	0.804247
H114	H	1.427749	0.663935	-0.000010
H115	H	1.119313	0.526768	0.076967
C116	C	1.055310	0.303901	-0.000005
H117	H	0.998320	0.263577	-0.000013
H118	H	1.050631	0.331546	0.042223
H119	H	1.050664	0.331528	-0.042243
C120	C	1.285414	0.115416	0.580053
H121	H	1.283366	0.106233	0.630907
H122	H	1.352583	0.144220	0.567559
H123	H	1.229934	0.139300	0.567572
H124	H	1.424796	0.795189	-0.000033
H125	H	1.229626	-0.135559	0.430825
C126	C	1.101295	0.382084	0.089107
H127	H	1.113007	0.335362	0.083030
H128	H	1.110363	0.395316	0.138891
H129	H	1.030685	0.383677	0.074186
C130	C	1.407816	0.089097	0.655061
H131	H	1.451004	0.119823	0.688677
H132	H	1.451949	0.066762	0.625311
H133	H	1.369700	0.115725	0.625339
H134	H	1.281339	0.097098	0.430872
C135	C	1.407836	0.089093	0.815132
H136	H	1.451035	0.119808	0.781515
H137	H	1.369745	0.115724	0.844882
H138	H	1.451971	0.066745	0.844853
C139	C	1.103174	-0.127553	0.344923
H140	H	1.113576	-0.120172	0.395779
H141	H	1.032254	-0.124266	0.332448
H142	H	1.114499	-0.173232	0.332414
H143	H	1.229669	-0.135558	0.569108
C144	C	1.103143	-0.127549	0.184851
H145	H	1.059959	-0.158274	0.218467
H146	H	1.059007	-0.105212	0.155125
H147	H	1.141253	-0.154178	0.155106
