data_functionalizedCrystal
_audit_creation_method	'MofGen! by Chris Wilmer'
_symmetry_space_group_name_H-M	'P1'
_symmetry_Int_Tables_number	1
_symmetry_cell_setting	triclinic
loop_
_symmetry_equiv_pos_as_xyz
  x,y,z
_cell_length_a	15.297475
_cell_length_b	18.050590
_cell_length_c	15.296720
_cell_angle_alpha	99.643572
_cell_angle_beta	91.617114
_cell_angle_gamma	80.320920
loop_
_atom_site_label
_atom_site_type_symbol
_atom_site_fract_x
_atom_site_fract_y
_atom_site_fract_z
Zn1	Zn	1.253450	-0.577990	-0.726578
Zn2	Zn	1.278722	-0.684928	-0.580090
Zn3	Zn	1.132324	-0.536269	-0.554820
Zn4	Zn	1.106947	-0.677628	-0.701219
O5	O	1.192861	-0.619204	-0.640677
O6	O	1.379382	-0.612691	-0.728334
O7	O	1.280498	-0.650803	-0.454164
O8	O	1.148436	-0.437891	-0.577642
O9	O	1.397949	-0.691258	-0.620710
O10	O	1.237426	-0.468543	-0.703832
O11	O	1.172941	-0.541584	-0.435598
O12	O	1.006378	-0.534505	-0.553052
O13	O	1.105185	-0.678816	-0.827157
O14	O	0.987734	-0.638361	-0.660610
O15	O	1.212819	-0.605613	-0.845788
O16	O	1.255891	-0.787873	-0.596120
O17	O	1.129689	-0.782509	-0.685113
C18	C	0.965272	-0.581114	-0.601338
C19	C	0.867905	-0.564840	-0.584529
C20	C	0.554774	-0.735526	-0.760813
C21	C	0.646255	-0.750822	-0.776603
C22	C	0.701672	-0.704328	-0.728586
C23	C	0.665599	-0.642535	-0.664776
C24	C	0.574109	-0.627241	-0.648979
C25	C	0.721008	-0.596043	-0.616753
C26	C	0.684934	-0.534250	-0.552942
C27	C	0.593453	-0.518959	-0.537149
C28	C	0.538037	-0.565453	-0.585166
C29	C	0.812497	-0.611337	-0.632549
C30	C	0.831833	-0.503052	-0.520715
C31	C	0.740351	-0.487756	-0.504925
C32	C	1.192799	-0.812141	-0.640630
C33	C	1.192848	-0.894697	-0.640653
C34	C	1.261584	-1.097067	-0.592362
C35	C	1.269139	-1.159389	-0.675998
C36	C	1.192892	-1.045840	-0.640697
C37	C	1.185420	-1.130619	-0.557112
C38	C	1.192937	-1.191836	-0.640732
C39	C	1.200481	-1.107086	-0.724382
C40	C	1.116734	-1.078299	-0.605436
C41	C	1.124248	-1.140600	-0.689122
C42	C	1.192868	-0.961735	-0.640676
C43	C	1.192959	-1.275940	-0.640762
C44	C	1.421338	-0.657443	-0.680170
C45	C	1.518701	-0.673738	-0.697000
C46	C	1.153352	-0.646054	-0.869143
C47	C	1.136516	-0.657496	-0.966502
C48	C	1.192943	-0.425520	-0.640747
C49	C	1.192978	-0.342983	-0.640776
C50	C	1.313224	-0.537303	-1.279743
C51	C	1.329048	-0.526555	-1.188271
C52	C	1.280916	-0.559289	-1.132824
C53	C	1.216958	-0.602773	-1.168859
C54	C	1.201138	-0.613527	-1.260341
C55	C	1.168830	-0.635513	-1.113422
C56	C	1.104872	-0.678998	-1.149457
C57	C	1.089053	-0.689749	-1.240930
C58	C	1.137185	-0.657015	-1.296377
C59	C	1.184650	-0.624759	-1.021940
C60	C	1.072564	-0.700984	-1.002538
C61	C	1.056740	-0.711732	-1.094010
C62	C	1.232266	-0.592413	-0.413108
C63	C	1.249272	-0.580791	-0.315779
H64	H	0.675620	-0.801135	-0.828555
H65	H	1.052334	-1.043186	-0.575572
H66	H	1.293804	-0.550535	-1.058344
H67	H	1.319683	-1.077874	-0.551540
H68	H	1.333563	-1.194486	-0.705841
C69	C	0.841759	-0.394480	-0.408576
C70	C	0.892738	-0.451940	-0.467928
H71	H	0.879365	-0.362934	-0.375986
H72	H	0.799483	-0.364653	-0.440640
H73	H	0.811866	-0.416888	-0.368841
H74	H	0.922626	-0.429532	-0.507667
H75	H	0.935029	-0.481771	-0.435862
C76	C	0.903522	-0.726385	-1.096534
C77	C	0.986443	-0.759533	-1.133628
H78	H	0.860125	-0.755894	-1.120998
H79	H	0.906056	-0.724675	-1.034128
H80	H	0.888144	-0.676109	-1.109333
H81	H	1.001824	-0.809808	-1.120823
H82	H	0.983910	-0.761252	-1.196048
H83	H	1.179080	-1.141389	-0.486410
H84	H	0.509647	-0.773379	-0.799896
C85	C	1.209088	-1.014995	-0.818985
C86	C	1.209151	-1.092700	-0.819874
H87	H	1.214449	-1.006116	-0.877936
H88	H	1.155170	-0.986442	-0.793869
H89	H	1.257615	-0.999734	-0.784557
H90	H	1.160619	-1.107960	-0.854296
H91	H	1.263076	-1.121262	-0.845001
H92	H	1.236725	-0.589353	-0.992609
C93	C	1.136816	-0.746789	-1.431255
C94	C	1.119793	-0.668831	-1.396929
H95	H	1.126075	-0.754080	-1.493331
H96	H	1.196912	-0.766650	-1.420330
H97	H	1.098995	-0.772505	-1.403391
H98	H	1.157619	-0.643116	-1.424788
H99	H	1.059687	-0.648960	-1.407861
H100	H	1.381125	-0.491152	-1.158938
C101	C	0.403103	-0.475588	-0.585033
C102	C	0.437474	-0.548654	-0.567815
H103	H	0.341018	-0.465225	-0.574329
H104	H	0.430925	-0.439057	-0.547294
H105	H	0.414044	-0.472934	-0.645160
H106	H	0.426538	-0.551306	-0.507685
H107	H	0.409643	-0.585194	-0.605554
C108	C	1.307648	-0.451559	-1.384769
C109	C	1.366128	-0.501328	-1.340690
H110	H	1.340314	-0.429347	-1.422392
H111	H	1.267304	-0.479000	-1.419315
H112	H	1.275674	-0.412569	-1.342492
H113	H	1.398096	-0.540322	-1.382968
H114	H	1.406487	-0.473886	-1.306142
C115	C	1.041459	-0.811657	-1.261651
C116	C	1.018756	-0.737556	-1.280533
H117	H	0.998056	-0.841169	-1.286094
H118	H	1.097707	-0.834132	-1.286818
H119	H	1.043994	-0.809923	-1.199234
H120	H	1.016227	-0.739290	-1.342951
H121	H	0.962492	-0.715076	-1.255370
C122	C	1.047036	-0.718340	-0.853696
C123	C	1.019649	-0.736966	-0.941598
H124	H	1.014368	-0.740550	-0.816073
H125	H	1.108471	-0.737298	-0.848878
H126	H	1.036828	-0.664538	-0.836520
H127	H	1.029863	-0.790768	-0.958777
H128	H	0.958199	-0.718012	-0.946421
H129	H	0.841859	-0.661649	-0.684505
C130	C	0.621756	-0.413455	-0.428197
C131	C	0.553801	-0.451038	-0.467006
H132	H	0.597274	-0.371522	-0.384898
H133	H	0.663227	-0.447782	-0.400780
H134	H	0.650843	-0.395562	-0.472595
H135	H	0.524718	-0.468936	-0.422609
H136	H	0.512313	-0.416705	-0.494422
H137	H	0.776160	-0.716785	-0.741447
H138	H	1.066167	-1.159675	-0.730070
H139	H	0.710967	-0.437444	-0.452970
