data_functionalizedCrystal
_audit_creation_method	'MofGen! by Chris Wilmer'
_symmetry_space_group_name_H-M	'P1'
_symmetry_Int_Tables_number	1
_symmetry_cell_setting	triclinic
loop_
_symmetry_equiv_pos_as_xyz
  x,y,z
_cell_length_a	14.809374
_cell_length_b	20.875641
_cell_length_c	20.875641
_cell_angle_alpha	89.846015
_cell_angle_beta	65.192554
_cell_angle_gamma	50.258532
loop_
_atom_site_label
_atom_site_type_symbol
_atom_site_fract_x
_atom_site_fract_y
_atom_site_fract_z
Zr1	Zr	0.940331	-0.136553	0.712572
O2	O	1.154157	-0.263799	0.618749
O3	O	0.742538	-0.087208	0.730997
O4	O	0.948348	-0.242414	0.741782
O5	O	0.936432	0.002079	0.611215
O6	O	0.936433	-0.237305	0.850590
O7	O	0.948347	-0.108592	0.607964
O8	O	0.568277	0.040331	0.831298
O9	O	1.304589	-0.275557	0.630507
O10	O	0.809063	-0.074839	0.832546
O11	O	0.809063	0.003941	0.753769
O12	O	1.051377	-0.178795	0.766467
O13	O	1.051377	-0.100016	0.687691
Zr14	Zr	0.902326	0.048104	0.891293
Zr15	Zr	0.921329	-0.128403	0.886109
Zr16	Zr	0.921328	0.039955	0.717756
Zr17	Zr	1.180252	-0.155306	0.731325
Zr18	Zr	0.662405	0.066858	0.872541
O19	O	1.100119	-0.001240	0.872868
O20	O	1.127138	-0.252211	0.865496
O21	O	1.127138	-0.012828	0.626121
O22	O	0.688500	0.175350	0.985116
O23	O	0.715519	-0.075621	0.977744
O24	O	0.715518	0.163763	0.738369
O25	O	0.906224	-0.090527	0.992650
O26	O	0.894309	0.153966	0.862083
O27	O	0.906224	0.148856	0.753275
O28	O	0.894310	0.020144	0.995901
O29	O	1.289484	-0.269079	0.768446
O30	O	0.553172	0.180631	0.835419
O31	O	0.538068	0.187109	0.973358
O32	O	0.553173	0.046809	0.969237
O33	O	1.289484	-0.135257	0.634628
O34	O	1.274380	-0.128780	0.772567
O35	O	0.791279	0.090346	0.837398
O36	O	0.791280	0.011567	0.916174
O37	O	1.033594	-0.092389	0.850096
O38	O	1.033594	-0.013610	0.771319
C39	C	0.621224	-0.020767	0.778476
C40	C	0.519371	-0.012805	0.770515
C41	C	0.945097	-0.054418	0.584864
C42	C	0.953164	-0.057877	0.511193
C43	C	0.897559	0.176560	0.808418
C44	C	0.889492	0.251492	0.810619
C45	C	0.473962	-0.048336	0.806044
C46	C	0.368692	-0.040108	0.797816
C47	C	1.221433	-0.067682	0.825389
C48	C	1.323286	-0.075643	0.833350
C49	C	0.945098	-0.265008	0.795447
C50	C	0.953165	-0.339940	0.793246
C51	C	1.012184	0.232433	0.777162
C52	C	1.004596	0.302843	0.779226
C53	C	0.874315	0.392311	0.814752
C54	C	0.751613	0.411369	0.848210
C55	C	0.759203	0.340959	0.846140
C56	C	0.838053	0.608708	0.824635
C57	C	0.830473	0.679118	0.826703
C58	C	1.083457	0.570588	0.757718
C59	C	1.091034	0.500182	0.755656
C60	C	0.968334	0.519245	0.789110
N61	N	0.866555	0.464283	0.816865
N62	N	0.976095	0.447274	0.786992
C63	C	0.830472	-0.005243	0.511073
C64	C	0.838060	-0.008496	0.441849
C65	C	0.968342	-0.064389	0.372746
C66	C	1.091043	-0.117025	0.372869
C67	C	1.083453	-0.113767	0.442092
C68	C	1.004604	-0.079949	0.162017
C69	C	1.012185	-0.083205	0.092792
C70	C	0.759201	0.025325	0.161777
C71	C	0.751623	0.028575	0.230998
C72	C	0.874323	-0.024058	0.231115
N73	N	0.976101	-0.067718	0.301988
N74	N	0.866562	-0.020724	0.301873
C75	C	0.897560	-0.034031	1.019001
C76	C	0.889493	-0.030571	1.092672
C77	C	0.597455	-0.010573	0.995544
C78	C	0.487536	0.000848	1.061254
C79	C	0.597454	0.200017	0.784961
C80	C	0.487534	0.282911	0.779201
C81	C	0.573686	0.210211	1.002029
C82	C	0.455699	0.296564	1.069940
C83	C	1.268971	-0.298659	0.601836
C84	C	1.386958	-0.385012	0.533925
C85	C	1.245202	-0.077875	0.608321
C86	C	1.355121	-0.089296	0.542611
C87	C	1.245203	-0.288466	0.818904
C88	C	1.355122	-0.371359	0.824664
C89	C	0.445200	-0.038899	1.048458
C90	C	0.341934	-0.028186	1.110194
C91	C	0.280999	0.022280	1.184723
C92	C	0.323345	0.062028	1.197518
C93	C	0.426615	0.051309	1.135784
C94	C	0.426631	0.366949	0.820149
C95	C	0.323363	0.444841	0.814735
C96	C	0.280993	0.438695	0.768377
C97	C	0.341907	0.354648	0.727424
C98	C	0.445180	0.276756	0.732834
C99	C	0.400290	0.295994	1.142959
C100	C	0.289442	0.377125	1.206776
C101	C	0.233999	0.458824	1.197572
C102	C	0.289418	0.459391	1.124545
C103	C	0.400270	0.378261	1.060730
C104	C	1.442378	-0.384444	0.460907
C105	C	1.553256	-0.465576	0.397092
C106	C	1.608705	-0.547276	0.406297
C107	C	1.553280	-0.547842	0.479323
C108	C	1.442411	-0.466711	0.543137
C109	C	1.397468	-0.049558	0.555407
C110	C	1.500762	-0.060292	0.493674
C111	C	1.561700	-0.110761	0.419144
C112	C	1.519350	-0.150505	0.406349
C113	C	1.416065	-0.139775	0.468083
C114	C	1.397459	-0.365184	0.871029
C115	C	1.500725	-0.443062	0.876457
C116	C	1.561660	-0.527116	0.835514
C117	C	1.519314	-0.533290	0.789146
C118	C	1.416043	-0.455411	0.783724
H119	H	0.329634	-0.003593	0.761307
N120	N	0.460010	0.378878	0.981971
H121	H	0.562368	0.342646	0.958053
H122	H	0.407956	0.442971	0.985888
N123	N	1.585065	-0.204920	0.325960
H124	H	1.631989	-0.268648	0.320783
H125	H	1.656844	-0.205601	0.288852
N126	N	1.382636	-0.467330	0.621891
H127	H	1.434591	-0.531400	0.618032
H128	H	1.280283	-0.431063	0.645748
N129	N	0.296283	-0.071061	1.096377
H130	H	0.257487	-0.046768	1.063363
H131	H	0.221668	-0.056615	1.146819
N132	N	0.472270	0.094182	1.149593
H133	H	0.546943	0.079736	1.099181
H134	H	0.510984	0.069874	1.182637
H135	H	0.196910	0.031002	1.234985
N136	N	0.510830	0.186134	0.688651
H137	H	0.493272	0.158112	0.725292
H138	H	0.614896	0.145545	0.652577
H139	H	0.513013	-0.084842	0.842556
N140	N	1.231556	-0.177308	0.298335
H141	H	1.290000	-0.241929	0.294088
H142	H	1.280957	-0.158926	0.296561
H143	H	0.196899	0.502126	0.763978
N144	N	0.460066	0.207884	1.152897
H145	H	0.408132	0.219848	1.208843
H146	H	0.562426	0.168017	1.132616
N147	N	0.374995	-0.124003	0.881721
H148	H	0.442864	-0.123025	0.880745
H149	H	0.423605	-0.188453	0.860807
H150	H	0.480310	0.023707	0.734008
H151	H	1.535191	-0.438019	0.914212
N152	N	1.382581	-0.296332	0.450967
H153	H	1.434531	-0.308297	0.395023
H154	H	1.392936	-0.265278	0.480060
N155	N	1.152701	0.135938	0.738858
H156	H	1.229274	0.134552	0.717979
H157	H	1.165840	0.102435	0.695730
H158	H	0.307393	0.349657	0.689679
H159	H	0.244332	0.376648	1.266232
H160	H	1.535225	-0.027923	0.504106
H161	H	1.104505	0.287317	0.751983
N162	N	1.215792	0.550029	0.721638
H163	H	1.191221	0.608206	0.728338
H164	H	1.276819	0.512110	0.665446
H165	H	1.347858	-0.008456	0.616088
N166	N	0.689949	0.775621	0.865025
H167	H	0.613369	0.777014	0.885903
H168	H	0.685763	0.805282	0.826618
H169	H	1.645750	-0.590523	0.839935
H170	H	1.598440	-0.614372	0.486809
N171	N	0.114436	0.546325	1.266404
H172	H	0.087754	0.533559	1.314056
H173	H	0.031444	0.586383	1.261163
H174	H	1.197124	0.427336	0.726728
N175	N	0.705715	0.629272	0.860745
H176	H	0.622034	0.696634	0.883576
H177	H	0.698925	0.604333	0.902154
H178	H	1.347860	-0.296750	0.904371
H179	H	1.645800	-0.119491	0.368883
N180	N	1.370396	-0.182639	0.454276
H181	H	1.424678	-0.216235	0.397693
H182	H	1.267127	-0.134283	0.474794
H183	H	1.381586	-0.460452	0.745965
H184	H	0.244259	0.525921	1.117062
N185	N	0.257618	0.116456	1.277905
H186	H	0.185771	0.117213	1.315065
H187	H	0.210774	0.180151	1.282996
N188	N	0.626875	0.361507	0.882228
H189	H	0.574717	0.395569	0.856904
H190	H	0.565898	0.399365	0.938432
H191	H	0.645536	0.484220	0.877132
N192	N	1.585044	-0.623951	0.744989
H193	H	1.656892	-0.672342	0.755462
H194	H	1.631886	-0.636361	0.688617
H195	H	0.724382	0.040275	0.567336
N196	N	1.613020	-0.464961	0.318331
H197	H	1.650062	-0.437252	0.315869
H198	H	1.537298	-0.428479	0.307105
N199	N	0.705731	0.048270	0.441717
H200	H	0.644640	0.114024	0.470063
H201	H	0.653696	0.031016	0.467606
N202	N	0.611106	0.088848	0.305529
H203	H	0.534530	0.121696	0.294949
H204	H	0.597969	0.134031	0.336977
N205	N	0.626866	0.082086	0.161650
H206	H	0.651437	0.071542	0.107313
H207	H	0.565834	0.147819	0.190027
H208	H	1.118282	-0.128724	0.036525
H209	H	1.698981	-0.613332	0.354329
H210	H	1.104517	-0.122821	0.162102
H211	H	1.183361	-0.156617	0.442186
H212	H	0.494813	-0.080003	0.987778
H213	H	0.273777	0.513268	0.848088
N214	N	0.472314	0.373592	0.870155
H215	H	0.418054	0.438654	0.895267
H216	H	0.575588	0.336917	0.837940
