data_functionalizedCrystal
_audit_creation_method	'MofGen! by Chris Wilmer'
_symmetry_space_group_name_H-M	'P1'
_symmetry_Int_Tables_number	1
_symmetry_cell_setting	triclinic
loop_
_symmetry_equiv_pos_as_xyz
  x,y,z
_cell_length_a	19.805407
_cell_length_b	16.959454
_cell_length_c	19.805399
_cell_angle_alpha	90.022387
_cell_angle_beta	90.019573
_cell_angle_gamma	90.020075
loop_
_atom_site_label
_atom_site_type_symbol
_atom_site_fract_x
_atom_site_fract_y
_atom_site_fract_z
Zn1	Zn	1.034765	-0.314700	0.382744
Zn2	Zn	1.534765	0.185300	0.882744
Zn3	Zn	1.034693	-0.446882	0.269566
Zn4	Zn	1.534693	0.053118	0.769566
Zn5	Zn	0.921580	-0.314722	0.269569
Zn6	Zn	1.421580	0.185278	0.769569
Zn7	Zn	0.921556	-0.446840	0.382713
Zn8	Zn	1.421556	0.053160	0.882713
O9	O	0.978149	-0.380786	0.326148
O10	O	1.478149	0.119214	0.826148
O11	O	1.129472	-0.332243	0.367743
O12	O	1.629472	0.167757	0.867743
O13	O	1.019668	-0.429378	0.174850
O14	O	1.519668	0.070622	0.674850
O15	O	0.936635	-0.204108	0.284596
O16	O	1.436635	0.295892	0.784596
O17	O	1.129419	-0.429356	0.284591
O18	O	1.629419	0.070644	0.784591
O19	O	1.019792	-0.204092	0.367745
O20	O	1.519792	0.295908	0.867745
O21	O	0.936564	-0.332280	0.174852
O22	O	1.436564	0.167720	0.674852
O23	O	0.826860	-0.332239	0.284565
O24	O	1.326860	0.167761	0.784565
O25	O	0.936594	-0.429285	0.477434
O26	O	1.436594	0.070715	0.977434
O27	O	0.826843	-0.429306	0.367692
O28	O	1.326843	0.070694	0.867692
O29	O	1.019768	-0.332202	0.477457
O30	O	1.519768	0.167798	0.977457
O31	O	1.019645	-0.557488	0.284561
O32	O	1.519645	-0.057488	0.784561
O33	O	0.936524	-0.557457	0.367690
O34	O	1.436524	-0.057457	0.867690
C35	C	0.802293	-0.380771	0.326126
C36	C	1.302293	0.119229	0.826126
C37	C	0.727061	-0.380783	0.326133
C38	C	1.227061	0.119217	0.826133
C39	C	0.691725	-0.431402	0.369347
C40	C	1.191725	0.068598	0.869347
C41	C	0.621037	-0.431404	0.369356
C42	C	1.121037	0.068596	0.869356
C43	C	0.585685	-0.380790	0.326148
C44	C	1.085685	0.119210	0.826148
C45	C	0.621026	-0.330165	0.282932
C46	C	1.121026	0.169835	0.782932
C47	C	0.691713	-0.330160	0.282926
C48	C	1.191713	0.169840	0.782926
C49	C	0.335952	-0.330183	0.282954
C50	C	0.835952	0.169817	0.782954
C51	C	0.265260	-0.330193	0.282962
C52	C	0.765260	0.169807	0.782962
C53	C	0.265276	-0.431426	0.369384
C54	C	0.765276	0.068574	0.869384
C55	C	0.335963	-0.431421	0.369379
C56	C	0.835963	0.068579	0.869379
C57	C	0.371298	-0.380794	0.326166
C58	C	0.871298	0.119206	0.826166
C59	C	0.447946	-0.380792	0.326157
C60	C	0.947946	0.119208	0.826157
C61	C	0.509038	-0.380795	0.326153
C62	C	1.009038	0.119205	0.826153
C63	C	0.978092	-0.586152	0.326136
C64	C	1.478092	-0.086152	0.826136
C65	C	0.978130	-0.674009	0.326154
C66	C	1.478130	-0.174009	0.826154
C67	C	0.934930	-1.045498	0.369428
C68	C	1.434930	-0.545498	0.869428
C69	C	1.021555	-1.045470	0.282937
C70	C	1.521555	-0.545470	0.782937
C71	C	1.021532	-0.962925	0.282930
C72	C	1.521532	-0.462925	0.782930
C73	C	0.978206	-0.921662	0.326173
C74	C	1.478206	-0.421662	0.826173
C75	C	0.934904	-0.962945	0.369422
C76	C	1.434904	-0.462945	0.869422
C77	C	1.064828	-0.921635	0.239677
C78	C	1.564828	-0.421635	0.739677
C79	C	1.064806	-0.839085	0.239669
C80	C	1.564806	-0.339085	0.739669
C81	C	1.021483	-0.797820	0.282915
C82	C	1.521483	-0.297820	0.782915
C83	C	0.978180	-0.839108	0.326167
C84	C	1.478180	-0.339108	0.826167
C85	C	0.934854	-0.797845	0.369409
C86	C	1.434854	-0.297845	0.869409
C87	C	0.891553	-0.839132	0.412665
C88	C	1.391553	-0.339132	0.912665
C89	C	0.891581	-0.921680	0.412669
C90	C	1.391581	-0.421680	0.912669
C91	C	1.021455	-0.715272	0.282911
C92	C	1.521455	-0.215272	0.782911
C93	C	0.934827	-0.715292	0.369403
C94	C	1.434827	-0.215292	0.869403
C95	C	1.154691	-0.380802	0.326170
C96	C	1.654691	0.119198	0.826170
C97	C	1.229923	-0.380808	0.326180
C98	C	1.729923	0.119192	0.826180
C99	C	0.978187	-0.380736	0.502691
C100	C	1.478187	0.119264	1.002691
C101	C	0.978203	-0.380715	0.577923
C102	C	1.478203	0.119285	1.077923
C103	C	0.978224	-0.174618	0.326174
C104	C	1.478224	0.325382	0.826174
C105	C	0.978256	-0.086761	0.326186
C106	C	1.478256	0.413239	0.826186
C107	C	0.978150	-0.380779	0.150292
C108	C	1.478150	0.119221	0.650292
C109	C	0.978265	-0.380577	0.075060
C110	C	1.478265	0.119423	0.575060
C111	C	1.021513	-0.330161	0.613280
C112	C	1.521513	0.169839	1.113280
C113	C	1.021520	-0.330138	0.683968
C114	C	1.521520	0.169862	1.183968
C115	C	0.978220	-0.380674	0.719298
C116	C	1.478220	0.119326	1.219298
C117	C	0.934905	-0.431230	0.683936
C118	C	1.434905	0.068770	1.183936
C119	C	0.934895	-0.431248	0.613249
C120	C	1.434895	0.068752	1.113249
C121	C	0.934943	-0.431156	0.969010
C122	C	1.434943	0.068844	1.469010
C123	C	0.934958	-0.431135	1.039702
C124	C	1.434958	0.068865	1.539702
C125	C	1.021568	-0.330046	1.039729
C126	C	1.521568	0.169954	1.539729
C127	C	1.021558	-0.330065	0.969042
C128	C	1.521558	0.169935	1.469042
C129	C	0.978241	-0.380617	0.933686
C130	C	1.478241	0.119383	1.433686
C131	C	0.978233	-0.380641	0.857037
C132	C	1.478233	0.119359	1.357037
C133	C	0.978230	-0.380655	0.795946
C134	C	1.478230	0.119345	1.295946
H135	H	0.364713	-0.288965	0.247763
H136	H	0.864713	0.211035	0.747763
H137	H	0.856327	-0.955303	0.447884
H138	H	1.356327	-0.455303	0.947884
N139	N	1.068278	-0.275513	1.077870
N140	N	1.568278	0.224487	1.577870
H141	H	1.057786	-0.219040	1.065571
H142	H	1.557786	0.280960	1.565571
H143	H	1.116615	-0.287864	1.065565
H144	H	1.616615	0.212136	1.565565
H145	H	0.899695	-0.472289	1.068466
H146	H	1.399695	0.027711	1.568466
H147	H	0.720503	-0.472621	0.404530
H148	H	1.220503	0.027379	0.904530
H149	H	0.899647	-0.472373	0.712708
H150	H	1.399647	0.027627	1.212708
N151	N	1.068258	-0.275555	0.930938
N152	N	1.568258	0.224445	1.430938
H153	H	1.061680	-0.283239	0.880793
H154	H	1.561680	0.216761	1.380793
H155	H	1.116595	-0.287859	0.943302
H156	H	1.616595	0.212141	1.443302
N157	N	0.888100	-0.670789	0.416047
N158	N	1.388100	-0.170789	0.916047
H159	H	0.860676	-0.709471	0.443447
H160	H	1.360676	-0.209471	0.943447
H161	H	0.856780	-0.636583	0.388463
H162	H	1.356780	-0.136583	0.888463
N163	N	0.582900	-0.275588	0.236315
N164	N	1.082900	0.224412	0.736315
H165	H	0.532758	-0.283279	0.242868
H166	H	1.032758	0.216721	0.742868
H167	H	0.595244	-0.287834	0.187963
H168	H	1.095244	0.212166	0.687963
N169	N	1.111559	-0.966140	0.193045
N170	N	1.611559	-0.466140	0.693045
H171	H	1.138984	-0.927462	0.165643
H172	H	1.638984	-0.427462	0.665643
H173	H	1.084038	-1.000436	0.161702
H174	H	1.584038	-0.500436	0.661702
H175	H	1.100064	-0.805474	0.204449
H176	H	1.600064	-0.305474	0.704449
N177	N	1.068147	-0.670740	0.236260
N178	N	1.568147	-0.170740	0.736260
H179	H	1.095594	-0.709406	0.208864
H180	H	1.595594	-0.209406	0.708864
H181	H	1.099446	-0.636450	0.263836
H182	H	1.599446	-0.136450	0.763836
N183	N	1.068272	-1.089971	0.236287
N184	N	1.568272	-0.589971	0.736287
H185	H	1.061715	-1.148530	0.242850
H186	H	1.561715	-0.648530	0.742850
H187	H	1.116604	-1.075503	0.246861
H188	H	1.616604	-0.575503	0.746861
N189	N	0.888203	-0.485652	0.930881
N190	N	1.388203	0.014348	1.430881
H191	H	0.860770	-0.517655	0.963990
H192	H	1.360770	-0.017655	1.463990
H193	H	0.915711	-0.522252	0.901538
H194	H	1.415711	-0.022252	1.401538
N195	N	1.068223	-0.275664	0.575176
N196	N	1.568223	0.224336	1.075176
H197	H	1.040733	-0.239039	0.545842
H198	H	1.540733	0.260961	1.045842
H199	H	1.099561	-0.307865	0.545894
H200	H	1.599561	0.192135	1.045894
H201	H	1.056788	-0.288974	0.712753
H202	H	1.556788	0.211026	1.212753
H203	H	0.899621	-0.472406	0.584462
H204	H	1.399621	0.027594	1.084462
N205	N	0.888227	-1.090017	0.416081
N206	N	1.388227	-0.590017	0.916081
H207	H	0.915725	-1.124225	0.447478
H208	H	1.415725	-0.624225	0.947478
H209	H	0.856896	-1.124265	0.388501
H210	H	1.356896	-0.624265	0.888501
N211	N	0.582924	-0.486011	0.415956
N212	N	1.082924	0.013989	0.915956
H213	H	0.616045	-0.518081	0.443320
H214	H	1.116045	-0.018081	0.943320
H215	H	0.553579	-0.522542	0.388341
H216	H	1.053579	-0.022542	0.888341
N217	N	0.729821	-0.275563	0.236313
N218	N	1.229821	0.224437	0.736313
H219	H	0.759130	-0.307633	0.204897
H220	H	1.259130	0.192367	0.704897
H221	H	0.759129	-0.238983	0.263919
H222	H	1.259129	0.261017	0.763919
N223	N	0.374087	-0.486017	0.415981
N224	N	0.874087	0.013983	0.915981
H225	H	0.361810	-0.473815	0.464360
H226	H	0.861810	0.026185	0.964360
H227	H	0.424217	-0.478311	0.409362
H228	H	0.924217	0.021689	0.909362
N229	N	0.227166	-0.486032	0.415995
N230	N	0.727166	0.013968	0.915995
H231	H	0.177021	-0.478357	0.409447
H232	H	0.677021	0.021643	0.909447
H233	H	0.239547	-0.473807	0.464353
H234	H	0.739547	0.026193	0.964353
N235	N	0.227128	-0.275600	0.236356
N236	N	0.727128	0.224400	0.736356
H237	H	0.260238	-0.243526	0.208981
H238	H	0.760238	0.256474	0.708981
H239	H	0.197818	-0.239071	0.263967
H240	H	0.697818	0.260929	0.763967
H241	H	0.856274	-0.805526	0.447870
H242	H	1.356274	-0.305526	0.947870
