data_functionalizedCrystal
_audit_creation_method	'MofGen! by Chris Wilmer'
_symmetry_space_group_name_H-M	'P1'
_symmetry_Int_Tables_number	1
_symmetry_cell_setting	triclinic
loop_
_symmetry_equiv_pos_as_xyz
  x,y,z
_cell_length_a	12.811438
_cell_length_b	15.944493
_cell_length_c	14.421503
_cell_angle_alpha	89.997092
_cell_angle_beta	95.427519
_cell_angle_gamma	83.761275
loop_
_atom_site_label
_atom_site_type_symbol
_atom_site_fract_x
_atom_site_fract_y
_atom_site_fract_z
O1	O	1.392637	0.113152	0.040030
O2	O	1.087054	0.125452	0.014328
O3	O	1.248222	-0.002947	0.027876
O4	O	1.231469	0.241551	0.026482
O5	O	1.248207	-0.002961	0.182098
O6	O	1.087039	0.125439	0.168551
O7	O	1.392622	0.113138	0.194252
Cu8	Cu	1.239830	0.119287	0.195483
Cu9	Cu	1.239847	0.119303	0.013098
O10	O	1.231454	0.241538	0.180705
C11	C	1.047943	0.124756	0.088150
C12	C	0.931427	0.122691	0.078350
C13	C	0.767208	0.119788	-0.019520
C14	C	0.876685	0.121728	-0.010319
C15	C	0.876684	0.121712	0.157824
C16	C	0.767207	0.119773	0.148623
C17	C	0.712472	0.118812	0.059949
C18	C	0.602992	0.116878	0.050749
C19	C	0.602994	0.116857	0.218891
C20	C	0.712471	0.118797	0.228091
C21	C	1.247530	-0.034251	0.104926
C22	C	1.245477	-0.127507	0.104741
C23	C	1.340344	-0.362939	0.112738
C24	C	1.289193	-0.413677	0.032396
C25	C	1.241673	-0.298241	0.104433
C26	C	1.289156	-0.413667	0.184445
C27	C	1.238007	-0.463163	0.104139
C28	C	1.190549	-0.347751	0.024030
C29	C	1.190526	-0.347737	0.176149
C30	C	1.139302	-0.398442	0.095782
C31	C	1.243789	-0.203234	0.104601
C32	C	1.235884	-0.558168	0.103964
C33	C	1.431733	0.113834	0.120428
C34	C	1.548249	0.115899	0.130223
C35	C	1.232146	0.272842	0.103653
C36	C	1.234199	0.366097	0.103831
N37	N	1.239825	0.119275	0.323764
C38	C	1.313791	0.059427	0.641410
C39	C	1.334997	0.135172	0.581362
C40	C	1.239849	0.119299	0.695655
C41	C	1.218680	0.043544	0.571612
C42	C	1.239840	0.119283	0.512933
C43	C	1.261103	0.195084	0.636972
C44	C	1.144744	0.103405	0.627224
C45	C	1.165911	0.179206	0.567200
C46	C	1.239857	0.119307	0.800917
C47	C	1.239832	0.119284	0.407673
N48	N	1.239861	0.119309	0.884818
H49	H	0.558428	0.116100	-0.021455
H50	H	1.376366	0.008858	0.673795
H51	H	1.054244	-0.414202	0.088587
Br52	Br	0.692917	0.118501	-0.139859
H53	H	1.330869	-0.442473	-0.028386
Br54	Br	0.950968	0.123046	-0.118173
Br55	Br	1.291101	0.301876	0.684538
Br56	Br	1.188835	-0.063224	0.523866
Br57	Br	1.121144	-0.299692	0.277468
Br58	Br	0.528703	0.115542	0.326747
Br59	Br	0.786763	0.120100	0.348429
H60	H	1.064345	0.089938	0.647655
Br61	Br	1.469035	0.157566	0.547318
H62	H	1.148909	-0.319069	-0.043826
Br63	Br	1.358629	-0.461657	0.297429
Br64	Br	1.061678	0.263672	0.513505
H65	H	0.921270	0.122485	0.230019
H66	H	1.425337	-0.347017	0.119810
