data_functionalizedCrystal
_audit_creation_method	'MofGen! by Chris Wilmer'
_symmetry_space_group_name_H-M	'P1'
_symmetry_Int_Tables_number	1
_symmetry_cell_setting	triclinic
loop_
_symmetry_equiv_pos_as_xyz
  x,y,z
_cell_length_a	7.088929
_cell_length_b	17.699083
_cell_length_c	17.699083
_cell_angle_alpha	96.716985
_cell_angle_beta	96.211898
_cell_angle_gamma	96.196973
loop_
_atom_site_label
_atom_site_type_symbol
_atom_site_fract_x
_atom_site_fract_y
_atom_site_fract_z
O1	O	0.158727	-0.996305	0.103493
O2	O	0.158790	-0.775923	0.115949
O3	O	0.158740	-0.892341	-0.000469
O4	O	0.158777	-0.879887	0.219911
O5	O	-0.159242	-0.907899	-0.016062
O6	O	-0.159192	-0.791481	0.100355
O7	O	-0.159255	-1.011863	0.087900
Cu8	Cu	-0.188258	-0.903093	0.092704
Cu9	Cu	0.187792	-0.884693	0.111145
O10	O	-0.159205	-0.895445	0.204318
C11	C	-0.000193	-0.755505	0.107706
C12	C	-0.000170	-0.671486	0.106369
N13	N	-0.452752	-0.916039	0.079733
C14	C	-0.000252	-0.899674	-0.036463
C15	C	-0.000252	-0.898335	-0.120481
N16	N	0.452286	-0.871753	0.124109
C17	C	-0.000268	-1.032281	0.096142
C18	C	-0.000279	-1.116300	0.097481
C19	C	-0.000159	-0.622864	0.174703
C20	C	-0.000184	-0.543922	0.173439
C21	C	-0.000206	-0.513602	0.103842
C22	C	-0.000223	-0.562230	0.035502
C23	C	-0.000211	-0.641172	0.036766
C24	C	-0.000271	-0.243870	0.030405
C25	C	-0.000276	-0.164922	0.029146
C26	C	-0.000243	-0.146620	0.167078
C27	C	-0.000232	-0.225561	0.168342
C28	C	-0.000259	-0.274183	0.100002
C29	C	-0.000235	-0.359781	0.101373
C30	C	-0.000216	-0.428005	0.102471
C31	C	-0.000274	-0.966670	-0.169103
C32	C	-0.000257	-0.965407	-0.248045
C33	C	-0.000231	-0.895809	-0.278365
C34	C	-0.000203	-0.827469	-0.229736
C35	C	-0.000207	-0.828732	-0.150795
C36	C	-0.000186	-0.822373	-0.548099
C37	C	-0.000188	-0.821115	-0.627047
C38	C	-0.000236	-0.959047	-0.645349
C39	C	-0.000240	-0.960311	-0.566408
C40	C	-0.000202	-0.891971	-0.517786
C41	C	-0.000217	-0.893341	-0.432187
C42	C	-0.000230	-0.894439	-0.363963
C43	C	-0.000210	-0.888112	0.240312
C44	C	-0.000197	-0.889450	0.324330
H45	H	-0.466048	-0.825855	0.170096
C46	C	0.163201	-1.036019	-0.339407
C47	C	-0.000275	-1.040525	-0.301487
H48	H	0.163197	-1.082399	-0.372394
H49	H	0.163207	-0.994398	-0.368763
H50	H	0.274067	-1.028216	-0.302778
H51	H	-0.111142	-1.048322	-0.338115
H52	H	-0.000299	-1.082158	-0.272128
H53	H	-0.000232	-0.107023	0.222723
C54	C	0.163299	-0.295695	0.257802
C55	C	-0.000183	-0.258880	0.244850
H56	H	0.163332	-0.316258	0.305039
H57	H	0.163275	-0.335952	0.217292
H58	H	0.274161	-0.259838	0.259870
H59	H	-0.111046	-0.294739	0.242775
H60	H	-0.000177	-0.218619	0.285369
C61	C	-0.163682	-0.748572	-0.049852
C62	C	-0.000220	-0.694618	-0.038350
H63	H	-0.163695	-0.781563	-0.096230
H64	H	-0.163654	-0.777923	-0.008227
H65	H	-0.274557	-0.722817	-0.052912
H66	H	0.110656	-0.720372	-0.035284
H67	H	-0.000230	-0.665263	-0.079986
C68	C	-0.514758	-0.963569	-0.054412
C69	C	-0.562993	-0.978007	0.017649
H70	H	-0.582811	-1.001827	-0.092738
H71	H	-0.547491	-0.914652	-0.064082
H72	H	-0.381259	-0.964449	-0.055290
H73	H	-0.696491	-0.977122	0.018528
H74	H	-0.530273	-1.026937	0.027321
H75	H	-0.000139	-0.647544	0.231377
H76	H	-0.000294	-0.283448	-0.025242
H77	H	-0.000173	-0.504337	0.229084
C78	C	-0.000354	-0.190941	-0.107081
C79	C	-0.000321	-0.131594	-0.047362
H80	H	-0.000392	-0.170364	-0.154310
H81	H	0.110530	-0.215919	-0.098290
H82	H	-0.111246	-0.226783	-0.109148
H83	H	0.110579	-0.095755	-0.045291
H84	H	-0.111216	-0.106604	-0.056155
H85	H	-0.000268	-0.537539	-0.021167
C86	C	0.163317	-0.735761	-0.440700
C87	C	-0.000154	-0.747252	-0.494665
H88	H	0.163339	-0.689379	-0.407714
H89	H	0.163291	-0.777381	-0.411342
H90	H	0.274187	-0.732717	-0.466447
H91	H	-0.111024	-0.750302	-0.468917
H92	H	-0.000145	-0.705621	-0.524026
H93	H	-0.000171	-0.764437	-0.651729
C94	C	0.163167	-1.076625	-0.152377
C95	C	-0.000292	-1.043173	-0.135777
H96	H	0.163164	-1.123853	-0.131799
H97	H	0.163150	-1.085652	-0.206345
H98	H	0.274044	-1.043059	-0.130234
H99	H	-0.111171	-1.076737	-0.157925
H100	H	-0.000293	-1.034149	-0.081798
C101	C	-0.000264	-1.096528	-0.592430
C102	C	-0.000259	-1.036814	-0.533081
H103	H	-0.000258	-1.143757	-0.571854
H104	H	-0.111145	-1.098596	-0.628277
H105	H	0.110631	-1.087734	-0.617400
H106	H	-0.111161	-1.045606	-0.508115
H107	H	0.110633	-1.034748	-0.497220
H108	H	-0.000170	-0.770801	-0.254428
H109	H	-0.000258	-1.014693	-0.684947
C110	C	0.163290	-0.703555	-0.102869
C111	C	-0.000184	-0.753617	-0.097347
H112	H	0.163301	-0.657179	-0.069875
H113	H	0.274145	-0.726677	-0.088251
H114	H	0.163270	-0.692849	-0.154225
H115	H	-0.000158	-0.764327	-0.045991
H116	H	-0.111068	-0.730490	-0.111961
