data_functionalizedCrystal
_audit_creation_method	'MofGen! by Chris Wilmer'
_symmetry_space_group_name_H-M	'P1'
_symmetry_Int_Tables_number	1
_symmetry_cell_setting	triclinic
loop_
_symmetry_equiv_pos_as_xyz
  x,y,z
_cell_length_a	16.120484
_cell_length_b	12.827893
_cell_length_c	12.827885
_cell_angle_alpha	89.980728
_cell_angle_beta	92.863928
_cell_angle_gamma	92.925431
loop_
_atom_site_label
_atom_site_type_symbol
_atom_site_fract_x
_atom_site_fract_y
_atom_site_fract_z
Zn1	Zn	-0.331866	1.576504	-0.611895
Zn2	Zn	0.001467	1.909837	-0.278562
Zn3	Zn	0.334800	2.243170	0.054771
Zn4	Zn	-0.471301	1.567505	-0.445998
Zn5	Zn	-0.137968	1.900838	-0.112665
Zn6	Zn	0.195365	2.234171	0.220668
Zn7	Zn	-0.331907	1.401742	-0.437171
Zn8	Zn	0.001426	1.735076	-0.103838
Zn9	Zn	0.334760	2.068409	0.229495
Zn10	Zn	-0.471239	1.392841	-0.620694
Zn11	Zn	-0.137906	1.726175	-0.287361
Zn12	Zn	0.195427	2.059508	0.045972
O13	O	-0.401579	1.484648	-0.528940
O14	O	-0.068245	1.817981	-0.195607
O15	O	0.265088	2.151315	0.137727
O16	O	-0.350372	1.721545	-0.589900
O17	O	-0.017038	2.054879	-0.256567
O18	O	0.316295	2.388212	0.076766
O19	O	-0.452853	1.545475	-0.298594
O20	O	-0.119520	1.878809	0.034739
O21	O	0.213813	2.212142	0.368073
O22	O	-0.215236	1.432416	-0.452972
O23	O	0.118097	1.765749	-0.119639
O24	O	0.451430	2.099083	0.213694
O25	O	-0.452814	1.714934	-0.468017
O26	O	-0.119481	2.048267	-0.134683
O27	O	0.213853	2.381601	0.198650
O28	O	-0.215206	1.560812	-0.581341
O29	O	0.118127	1.894146	-0.248008
O30	O	0.451460	2.227479	0.085325
O31	O	-0.350441	1.423690	-0.292109
O32	O	-0.017107	1.757024	0.041224
O33	O	0.316226	2.090357	0.374558
O34	O	-0.350381	1.254326	-0.461505
O35	O	-0.017047	1.587660	-0.128171
O36	O	0.316286	1.920993	0.205162
O37	O	-0.452708	1.417245	-0.765761
O38	O	-0.119375	1.750579	-0.432427
O39	O	0.213958	2.083912	-0.099094
O40	O	-0.452748	1.247787	-0.596338
O41	O	-0.119414	1.581120	-0.263005
O42	O	0.213919	1.914453	0.070329
O43	O	-0.350311	1.552181	-0.759296
O44	O	-0.016978	1.885515	-0.425963
O45	O	0.316355	2.218848	-0.092629
O46	O	-0.587959	1.536844	-0.476549
O47	O	-0.254625	1.870177	-0.143215
O48	O	0.078708	2.203511	0.190118
O49	O	-0.587913	1.408520	-0.604897
O50	O	-0.254580	1.741853	-0.271564
O51	O	0.078754	2.075186	0.061769
C52	C	-0.401562	1.213139	-0.528919
C53	C	-0.068229	1.546473	-0.195586
C54	C	0.265104	1.879806	0.137748
C55	C	-0.401576	1.096985	-0.528936
C56	C	-0.068242	1.430319	-0.195603
C57	C	0.265091	1.763652	0.137731
C58	C	-0.452309	1.041987	-0.595563
C59	C	-0.118976	1.375320	-0.262230
C60	C	0.214357	1.708654	0.071104
C61	C	-0.452324	0.921936	-0.595582
C62	C	-0.118991	1.255269	-0.262249
C63	C	0.214343	1.588602	0.071084
C64	C	-0.618186	1.470768	-0.542658
C65	C	-0.284852	1.804101	-0.209325
C66	C	0.048481	2.137434	0.124008
C67	C	-0.710851	1.464925	-0.548562
C68	C	-0.377518	1.798259	-0.215229
C69	C	-0.044185	2.131592	0.118104
C70	C	-0.880512	1.454265	-0.559362
C71	C	-0.547179	1.787598	-0.226029
C72	C	-0.213846	2.120931	0.107304
C73	C	-0.921804	1.515219	-0.498534
C74	C	-0.588471	1.848552	-0.165201
C75	C	-0.255138	2.181885	0.168132
C76	C	-1.016209	1.509287	-0.504544
C77	C	-0.682876	1.842620	-0.171210
C78	C	-0.349543	2.175954	0.162123
C79	C	-0.786099	1.460195	-0.553355
C80	C	-0.452765	1.793528	-0.220021
C81	C	-0.119432	2.126862	0.113312
C82	C	-0.184125	1.498611	-0.515191
C83	C	0.149208	1.831944	-0.181857
C84	C	0.482541	2.165278	0.151476
C85	C	-0.091460	1.504561	-0.509332
C86	C	0.241873	1.837894	-0.175998
C87	C	0.575207	2.171228	0.157335
C88	C	-0.401498	1.484724	-0.801505
C89	C	-0.068165	1.818058	-0.468172
C90	C	0.265168	2.151391	-0.134838
C91	C	-0.401464	1.484757	-0.917656
C92	C	-0.068131	1.818090	-0.584323
C93	C	0.265202	2.151423	-0.250990
C94	C	-0.401595	1.757217	-0.528962
C95	C	-0.068262	2.090550	-0.195628
C96	C	0.265071	2.423884	0.137705
C97	C	-0.401602	1.873370	-0.528971
C98	C	-0.068269	2.206703	-0.195637
C99	C	0.265064	2.540036	0.137696
C100	C	-0.350785	1.551535	-0.966241
C101	C	-0.017452	1.884868	-0.632908
C102	C	0.315881	2.218202	-0.299575
C103	C	-0.350749	1.551570	-1.086289
C104	C	-0.017415	1.884903	-0.752956
C105	C	0.315918	2.218237	-0.419623
C106	C	-0.401598	1.484636	-0.257431
C107	C	-0.068265	1.817969	0.075902
C108	C	0.265069	2.151303	0.409235
C109	C	-0.401397	1.484821	-0.141266
C110	C	-0.068064	1.818154	0.192067
C111	C	0.265269	2.151488	0.525401
H112	H	-0.495761	0.874651	-0.652621
H113	H	-0.162428	1.207984	-0.319288
H114	H	0.170905	1.541317	0.014045
Br115	Br	-0.862558	1.609620	-0.404211
Br116	Br	-0.529225	1.942953	-0.070877
Br117	Br	-0.195891	2.276286	0.262456
Br118	Br	-0.329208	0.952167	-0.433880
Br119	Br	0.004125	1.285500	-0.100546
Br120	Br	0.337459	1.618833	0.232787
H121	H	-0.916059	1.397630	-0.615947
H122	H	-0.582726	1.730963	-0.282614
H123	H	-0.249393	2.064296	0.050720
Br124	Br	-0.278484	1.646757	-0.887448
Br125	Br	0.054850	1.980090	-0.554115
Br126	Br	0.388183	2.313424	-0.220782
H127	H	-0.444791	1.427651	-1.099479
H128	H	-0.111458	1.760984	-0.766145
H129	H	0.221876	2.094317	-0.432812
H130	H	-0.444820	1.427605	-0.964935
H131	H	-0.111487	1.760939	-0.631602
H132	H	0.221846	2.094272	-0.298269
Br133	Br	-0.278434	1.646874	-1.155942
Br134	Br	0.054899	1.980207	-0.822609
Br135	Br	0.388232	2.313540	-0.489275
H136	H	-0.495730	1.083779	-0.652594
H137	H	-0.162397	1.417112	-0.319261
H138	H	0.170936	1.750445	0.014073
H139	H	-0.358148	1.055194	-0.471913
H140	H	-0.024815	1.388527	-0.138579
H141	H	0.308518	1.721861	0.194754
