data_functionalizedCrystal
_audit_creation_method	'MofGen! by Chris Wilmer'
_symmetry_space_group_name_H-M	'P1'
_symmetry_Int_Tables_number	1
_symmetry_cell_setting	triclinic
loop_
_symmetry_equiv_pos_as_xyz
  x,y,z
_cell_length_a	29.839134
_cell_length_b	29.839131
_cell_length_c	11.169409
_cell_angle_alpha	89.959939
_cell_angle_beta	89.964026
_cell_angle_gamma	90.034165
loop_
_atom_site_label
_atom_site_type_symbol
_atom_site_fract_x
_atom_site_fract_y
_atom_site_fract_z
Zn1	Zn	0.686771	-0.178904	-0.678971
Zn2	Zn	0.686688	-0.254045	-0.478261
Zn3	Zn	0.611639	-0.178921	-0.478251
Zn4	Zn	0.611602	-0.253998	-0.678852
O5	O	0.649175	-0.216467	-0.578584
O6	O	0.749627	-0.188884	-0.652400
O7	O	0.676713	-0.244107	-0.310310
O8	O	0.621656	-0.116051	-0.504924
O9	O	0.749566	-0.244091	-0.504939
O10	O	0.676855	-0.116039	-0.652391
O11	O	0.621575	-0.188913	-0.310303
O12	O	0.548767	-0.188867	-0.504808
O13	O	0.621593	-0.244010	-0.846817
O14	O	0.548740	-0.244026	-0.652188
O15	O	0.676819	-0.188839	-0.846905
O16	O	0.676678	-0.316906	-0.504823
O17	O	0.621512	-0.316872	-0.652197
C18	C	0.532453	-0.216444	-0.578484
C19	C	0.482518	-0.216445	-0.578470
C20	C	0.125933	-0.187703	-0.502000
C21	C	0.313606	-0.187691	-0.501927
O22	O	0.337872	-0.163216	-0.436797
N23	N	0.337073	-0.216452	-0.578531
C24	C	0.313619	-0.245216	-0.655164
O25	O	0.337886	-0.269676	-0.720328
C26	C	0.125947	-0.245226	-0.655242
C27	C	0.102482	-0.216466	-0.578624
C28	C	0.102468	-0.158945	-0.425389
C29	C	0.055552	-0.158951	-0.425404
C30	C	0.032102	-0.187714	-0.502028
C31	C	0.055567	-0.216472	-0.578639
C32	C	0.102494	-0.273988	-0.731881
C33	C	0.055573	-0.273987	-0.731895
C34	C	0.032108	-0.245227	-0.655278
C35	C	-0.014799	-0.245240	-0.655278
N36	N	-0.038267	-0.216479	-0.578674
C37	C	-0.014816	-0.187716	-0.502049
C38	C	0.412150	-0.245210	-0.655116
C39	C	0.459068	-0.245208	-0.655095
C40	C	0.459051	-0.187681	-0.501859
C41	C	0.412132	-0.187686	-0.501875
C42	C	0.388682	-0.216448	-0.578512
C43	C	-0.113342	-0.187729	-0.502084
C44	C	-0.160262	-0.187738	-0.502102
C45	C	-0.160241	-0.245262	-0.655342
C46	C	-0.113325	-0.245255	-0.655320
C47	C	-0.089877	-0.216485	-0.578688
O48	O	-0.039094	-0.269699	-0.720383
O49	O	-0.039091	-0.163252	-0.436914
C50	C	0.172848	-0.187698	-0.501985
C51	C	0.196313	-0.216456	-0.578596
C52	C	0.172862	-0.245219	-0.655221
C53	C	0.243231	-0.216454	-0.578575
C54	C	0.266681	-0.187691	-0.501950
C55	C	0.243214	-0.158930	-0.425346
C56	C	0.196299	-0.158935	-0.425360
C57	C	0.196330	-0.273980	-0.731825
C58	C	0.243245	-0.273973	-0.731803
C59	C	0.266696	-0.245210	-0.655178
C60	C	0.649094	-0.333190	-0.578524
C61	C	0.649100	-0.383124	-0.578539
C62	C	0.677952	-0.692773	-0.501959
C63	C	0.678008	-0.880446	-0.502005
O64	O	0.702474	-0.904715	-0.436848
N65	N	0.649268	-0.903909	-0.578674
C66	C	0.620515	-0.880451	-0.655343
O67	O	0.596075	-0.904714	-0.720564
C68	C	0.620462	-0.692779	-0.655301
C69	C	0.649200	-0.669318	-0.578619
C70	C	0.706688	-0.669312	-0.425283
C71	C	0.706672	-0.622397	-0.425268
C72	C	0.677920	-0.598942	-0.501928
C73	C	0.649184	-0.622403	-0.578603
C74	C	0.591712	-0.669322	-0.731975
C75	C	0.591702	-0.622401	-0.731960
C76	C	0.620440	-0.598940	-0.655277
C77	C	0.620417	-0.552033	-0.655248
N78	N	0.649156	-0.528570	-0.578578
C79	C	0.677908	-0.552024	-0.501919
C80	C	0.620544	-0.978982	-0.655357
C81	C	0.620557	-1.025900	-0.655366
C82	C	0.678050	-1.025891	-0.502030
C83	C	0.678035	-0.978972	-0.502016
C84	C	0.649284	-0.955519	-0.578688
C85	C	0.677872	-0.453498	-0.501891
C86	C	0.677852	-0.406579	-0.501879
C87	C	0.620361	-0.406591	-0.655219
C88	C	0.620379	-0.453507	-0.655227
C89	C	0.649138	-0.476959	-0.578559
O90	O	0.595967	-0.527734	-0.720380
O91	O	0.702351	-0.527753	-0.436726
C92	C	0.677968	-0.739688	-0.501974
C93	C	0.649232	-0.763149	-0.578650
C94	C	0.620480	-0.739695	-0.655310
C95	C	0.649245	-0.810067	-0.578659
C96	C	0.677996	-0.833522	-0.501999
C97	C	0.706736	-0.810058	-0.425330
C98	C	0.706720	-0.763143	-0.425314
C99	C	0.591741	-0.763158	-0.731979
C100	C	0.591759	-0.810073	-0.731987
C101	C	0.620511	-0.833528	-0.655327
C102	C	0.766353	-0.216491	-0.578684
C103	C	0.816288	-0.216501	-0.578727
C104	C	0.649211	-0.216417	-0.891626
C105	C	0.649226	-0.216396	-1.025026
C106	C	0.649269	-0.099289	-0.578670
C107	C	0.649309	-0.049354	-0.578706
C108	C	0.649165	-0.216484	-0.266759
C109	C	0.649237	-0.216379	-0.133360
H110	H	0.036483	-0.297408	-0.794308
Br111	Br	0.745682	-0.590564	-0.321210
H112	H	0.597151	-1.044998	-0.717798
H113	H	0.701254	-0.387478	-0.439430
Br114	Br	0.717037	-0.947138	-0.397942
H115	H	0.701291	-0.472588	-0.439463
H116	H	0.568290	-0.603307	-0.794400
H117	H	0.393030	-0.164265	-0.439490
H118	H	-0.094256	-0.164299	-0.439688
H119	H	0.730121	-0.744044	-0.362872
Br120	Br	0.275085	-0.313012	-0.835786
H121	H	0.596950	-0.387487	-0.717631
Br122	Br	0.380332	-0.284249	-0.759131
H123	H	0.730104	-0.688404	-0.362857
H124	H	0.036451	-0.135531	-0.363014
H125	H	0.262316	-0.135511	-0.362951
H126	H	0.730145	-0.829163	-0.362907
Br127	Br	0.581366	-0.485348	-0.759268
H128	H	-0.179365	-0.164317	-0.439707
Br129	Br	0.134327	-0.313022	-0.835868
H130	H	0.478152	-0.164262	-0.439467
H131	H	0.701461	-1.044996	-0.439611
Br132	Br	0.552752	-0.841907	-0.836063
Br133	Br	0.581521	-0.947158	-0.759423
Br134	Br	0.490907	-0.284248	-0.759059
H135	H	0.568328	-0.744065	-0.794406
H136	H	0.568308	-0.688416	-0.794412
H137	H	-0.094219	-0.268677	-0.717699
H138	H	0.121556	-0.135520	-0.362992
Br139	Br	0.164461	-0.119901	-0.321375
H140	H	-0.179343	-0.268682	-0.717724
H141	H	0.177241	-0.297403	-0.794224
