data_functionalizedCrystal
_audit_creation_method	'MofGen! by Chris Wilmer'
_symmetry_space_group_name_H-M	'P1'
_symmetry_Int_Tables_number	1
_symmetry_cell_setting	triclinic
loop_
_symmetry_equiv_pos_as_xyz
  x,y,z
_cell_length_a	14.971482
_cell_length_b	10.723024
_cell_length_c	13.448316
_cell_angle_alpha	89.994589
_cell_angle_beta	89.993798
_cell_angle_gamma	84.040239
loop_
_atom_site_label
_atom_site_type_symbol
_atom_site_fract_x
_atom_site_fract_y
_atom_site_fract_z
O1	O	1.187822	0.162595	-0.082676
O2	O	0.927526	0.182073	-0.082681
O3	O	1.063679	-0.009305	-0.082675
O4	O	1.051670	0.353973	-0.082682
O5	O	1.063661	-0.009317	0.082709
O6	O	0.927509	0.182061	0.082703
O7	O	1.187805	0.162583	0.082707
Cu8	Cu	1.057656	0.172321	0.097806
Cu9	Cu	1.057676	0.172335	-0.097780
O10	O	1.051653	0.353961	0.082701
C11	C	0.894188	0.181197	0.000010
C12	C	0.794877	0.178589	0.000009
C13	C	0.748216	0.177354	0.090160
C14	C	0.654905	0.174884	0.090162
C15	C	0.608255	0.173657	0.000010
C16	C	0.654922	0.174888	-0.090149
C17	C	0.748233	0.177350	-0.090149
C18	C	0.460433	0.169761	-0.090142
C19	C	0.367115	0.167302	-0.090143
C20	C	0.367104	0.167295	0.090168
C21	C	0.460415	0.169756	0.090168
C22	C	0.507076	0.170990	0.000009
C23	C	1.062796	-0.055802	0.000016
C24	C	1.060182	-0.194329	0.000012
C25	C	1.136365	-0.270109	0.000012
C26	C	1.133665	-0.413284	0.000009
C27	C	1.221143	0.163459	0.000014
C28	C	1.320455	0.166067	0.000009
C29	C	1.052536	0.400457	0.000008
C30	C	1.055150	0.538984	0.000005
N31	N	1.057648	0.172310	0.235370
N32	N	1.057691	0.172336	-0.235344
C33	C	1.117955	0.087603	0.287413
C34	C	1.117960	0.087602	0.391517
C35	C	1.057662	0.172315	0.443575
C36	C	0.997349	0.257027	0.391525
C37	C	0.997340	0.257021	0.287423
C38	C	0.997374	0.257035	0.608505
C39	C	0.997384	0.257043	0.712613
C40	C	1.117995	0.087616	0.712598
C41	C	1.117985	0.087610	0.608497
C42	C	1.057673	0.172324	0.556454
H43	H	1.203588	-0.228990	0.000020
H44	H	0.992959	-0.235447	0.000005
H45	H	0.989927	-0.395908	0.000012
H46	H	1.167060	0.018625	0.245034
H47	H	1.167103	0.018640	0.754978
H48	H	0.616933	0.173880	-0.163552
C49	C	0.931049	0.350222	0.769874
C50	C	0.864701	0.443387	0.712626
C51	C	0.798364	0.536567	0.769885
C52	C	0.798374	0.536582	0.884392
C53	C	0.864723	0.443413	0.941647
C54	C	0.931061	0.350233	0.884388
H55	H	0.864692	0.443379	0.627855
H56	H	0.749248	0.605537	0.727501
H57	H	0.749267	0.605560	0.926779
H58	H	0.864732	0.443421	1.026418
H59	H	0.980177	0.281264	0.926773
C60	C	1.184312	-0.005571	0.551227
C61	C	1.181949	-0.147675	0.565547
C62	C	1.248274	-0.240859	0.508276
C63	C	1.316963	-0.191939	0.436685
C64	C	1.319329	-0.049828	0.422362
C65	C	1.253004	0.043356	0.479633
H66	H	1.131099	-0.183894	0.618546
H67	H	1.246522	-0.346059	0.518880
H68	H	1.366061	-0.260919	0.394289
H69	H	1.370179	-0.013608	0.369363
H70	H	1.254756	0.148556	0.469029
C71	C	0.799564	0.178712	-0.189317
C72	C	0.796238	0.070106	-0.263690
C73	C	0.847570	0.071462	-0.362860
C74	C	0.902227	0.181424	-0.387658
C75	C	0.905555	0.290038	-0.313283
C76	C	0.854224	0.288682	-0.214112
H77	H	0.755776	-0.011301	-0.245335
H78	H	0.845106	-0.008942	-0.417917
H79	H	0.940226	0.182427	-0.461070
H80	H	0.946018	0.371445	-0.331638
H81	H	0.856688	0.369086	-0.159055
H82	H	1.167067	0.018626	0.433890
H83	H	0.948257	0.326014	0.566135
H84	H	0.948248	0.325998	0.433916
C85	C	0.315804	0.165940	-0.189312
C86	C	0.242162	0.272521	-0.214123
C87	C	0.190852	0.271158	-0.313294
C88	C	0.213185	0.163215	-0.387655
C89	C	0.286830	0.056626	-0.362846
C90	C	0.338140	0.057989	-0.263675
H91	H	0.225627	0.352434	-0.159075
H92	H	0.136335	0.350063	-0.331659
H93	H	0.175203	0.162206	-0.461068
H94	H	0.303365	-0.023287	-0.417894
H95	H	0.392657	-0.020916	-0.245310
H96	H	0.948230	0.325996	0.245051
H97	H	1.198884	-0.478399	0.000013
H98	H	0.329109	0.166291	0.163579
H99	H	0.786191	0.178363	0.163573
C100	C	0.603583	0.173522	0.189334
C101	C	0.606907	0.282129	0.263706
C102	C	0.555589	0.280760	0.362885
C103	C	0.500948	0.170785	0.387691
C104	C	0.497622	0.062169	0.313317
C105	C	0.548940	0.063538	0.214138
H106	H	0.647357	0.363547	0.245345
H107	H	0.558051	0.361165	0.417941
H108	H	0.462959	0.169772	0.461108
H109	H	0.457172	-0.019249	0.331678
H110	H	0.546478	-0.016867	0.159082
H111	H	0.498421	0.170765	-0.163560
H112	H	0.498395	0.170763	0.163578
