data_functionalizedCrystal
_audit_creation_method	'MofGen! by Chris Wilmer'
_symmetry_space_group_name_H-M	'P1'
_symmetry_Int_Tables_number	1
_symmetry_cell_setting	triclinic
loop_
_symmetry_equiv_pos_as_xyz
  x,y,z
_cell_length_a	27.732048
_cell_length_b	16.109298
_cell_length_c	15.186229
_cell_angle_alpha	90.001652
_cell_angle_beta	90.002148
_cell_angle_gamma	83.051421
loop_
_atom_site_label
_atom_site_type_symbol
_atom_site_fract_x
_atom_site_fract_y
_atom_site_fract_z
O1	O	0.641340	0.098925	-0.073106
O2	O	0.974673	0.432259	0.260228
O3	O	1.308006	0.765592	0.593561
O4	O	0.500609	0.113967	-0.073131
O5	O	0.833943	0.447301	0.260203
O6	O	1.167276	0.780634	0.593536
O7	O	0.574841	-0.014633	-0.073124
O8	O	0.908175	0.318701	0.260210
O9	O	1.241508	0.652034	0.593543
O10	O	0.567108	0.227525	-0.073113
O11	O	0.900441	0.560859	0.260221
O12	O	1.233774	0.894192	0.593554
O13	O	0.574836	-0.014634	0.073334
O14	O	0.908170	0.318699	0.406667
O15	O	1.241503	0.652032	0.740000
O16	O	0.500604	0.113965	0.073327
O17	O	0.833938	0.447299	0.406660
O18	O	1.167271	0.780632	0.739993
O19	O	0.641335	0.098924	0.073352
O20	O	0.974668	0.432257	0.406685
O21	O	1.308001	0.765590	0.740018
Zn22	Zn	0.570969	0.106444	0.096592
Zn23	Zn	0.904302	0.439778	0.429926
Zn24	Zn	1.237635	0.773111	0.763259
Zn25	Zn	0.570975	0.106447	-0.096371
Zn26	Zn	0.904309	0.439780	0.236962
Zn27	Zn	1.237642	0.773113	0.570295
O28	O	0.567103	0.227524	0.073345
O29	O	0.900436	0.560857	0.406678
O30	O	1.233769	0.894190	0.740011
C31	C	0.482598	0.113651	0.000095
C32	C	0.815932	0.446984	0.333428
C33	C	1.149265	0.780317	0.666761
C34	C	0.428940	0.112700	0.000084
C35	C	0.762273	0.446033	0.333418
C36	C	1.095606	0.779367	0.666751
C37	C	0.574526	-0.045605	0.000101
C38	C	0.907859	0.287729	0.333435
C39	C	1.241192	0.621062	0.666768
C40	C	0.573587	-0.137888	0.000091
C41	C	0.906921	0.195445	0.333424
C42	C	1.240254	0.528778	0.666758
C43	C	0.570528	-0.436918	-0.079725
C44	C	0.903861	-0.103585	0.253608
C45	C	1.237194	0.229748	0.586942
C46	C	0.571416	-0.350210	-0.079731
C47	C	0.904749	-0.016876	0.253602
C48	C	1.238083	0.316457	0.586936
C49	C	0.571418	-0.350197	0.079945
C50	C	0.904751	-0.016864	0.413278
C51	C	1.238084	0.316470	0.746611
C52	C	0.570533	-0.436905	0.079950
C53	C	0.903866	-0.103572	0.413283
C54	C	1.237199	0.229761	0.746616
C55	C	0.570085	-0.480263	0.000112
C56	C	0.903419	-0.146930	0.333446
C57	C	1.236752	0.186404	0.666779
C58	C	0.571859	-0.306846	0.000101
C59	C	0.905192	0.026487	0.333434
C60	C	1.238525	0.359821	0.666768
C61	C	0.572822	-0.212832	0.000095
C62	C	0.906155	0.120501	0.333428
C63	C	1.239488	0.453834	0.666762
C64	C	0.569123	-0.574283	0.000118
C65	C	0.902457	-0.240950	0.333451
C66	C	1.235790	0.092384	0.666785
C67	C	0.090417	0.182708	0.000126
C68	C	0.423750	0.516042	0.333459
C69	C	0.757084	0.849375	0.666793
C70	C	-0.111257	0.179181	0.000134
C71	C	0.222076	0.512514	0.333467
C72	C	0.555409	0.845847	0.666800
O73	O	-0.142245	0.243199	0.000175
O74	O	0.191088	0.576532	0.333508
O75	O	0.524421	0.909865	0.666841
N76	N	-0.130700	0.102926	0.000128
N77	N	0.202634	0.436260	0.333462
N78	N	0.535967	0.769593	0.666795
C79	C	-0.099720	0.027548	0.000127
C80	C	0.233613	0.360882	0.333461
C81	C	0.566947	0.694215	0.666794
O82	O	-0.120884	-0.037392	0.000132
O83	O	0.212449	0.295942	0.333466
O84	O	0.545782	0.629275	0.666799
C85	C	0.101953	0.031077	0.000126
C86	C	0.435287	0.364410	0.333459
C87	C	0.768620	0.697744	0.666793
C88	C	0.121393	0.107336	0.000122
C89	C	0.454726	0.440670	0.333455
C90	C	0.788059	0.774003	0.666789
C91	C	0.109857	0.258962	0.000123
C92	C	0.443190	0.592295	0.333456
C93	C	0.776524	0.925628	0.666790
C94	C	0.160273	0.259843	0.000116
C95	C	0.493606	0.593176	0.333450
C96	C	0.826939	0.926509	0.666783
C97	C	0.191248	0.184471	0.000112
C98	C	0.524582	0.517804	0.333446
C99	C	0.857915	0.851137	0.666779
C100	C	0.171808	0.108217	0.000115
C101	C	0.505142	0.441551	0.333449
C102	C	0.838475	0.774884	0.666782
C103	C	0.132932	-0.044300	0.000131
C104	C	0.466265	0.289033	0.333464
C105	C	0.799599	0.622367	0.666798
C106	C	0.183353	-0.043411	0.000133
C107	C	0.516686	0.289922	0.333466
C108	C	0.850020	0.623255	0.666799
C109	C	0.202793	0.032848	0.000129
C110	C	0.536126	0.366182	0.333462
C111	C	0.869459	0.699515	0.666796
C112	C	0.253200	0.033726	0.000105
C113	C	0.586533	0.367060	0.333438
C114	C	0.919866	0.700393	0.666771
N115	N	0.272642	0.109981	0.000110
N116	N	0.605975	0.443314	0.333443
N117	N	0.939309	0.776647	0.666776
C118	C	0.241666	0.185353	0.000114
C119	C	0.575000	0.518686	0.333447
C120	C	0.908333	0.852020	0.666780
C121	C	-0.205602	0.025701	0.000126
C122	C	0.127732	0.359035	0.333460
C123	C	0.461065	0.692368	0.666793
C124	C	-0.256020	0.024819	0.000125
C125	C	0.077313	0.358152	0.333458
C126	C	0.410647	0.691486	0.666792
C127	C	-0.267554	0.176452	0.000133
C128	C	0.065780	0.509785	0.333466
C129	C	0.399113	0.843118	0.666800
C130	C	-0.217135	0.177333	0.000128
C131	C	0.116199	0.510666	0.333461
C132	C	0.449532	0.844000	0.666795
C133	C	-0.186159	0.101956	0.000131
C134	C	0.147174	0.435289	0.333465
C135	C	0.480507	0.768622	0.666798
C136	C	0.347543	0.187198	0.000099
C137	C	0.680877	0.520531	0.333432
C138	C	1.014210	0.853864	0.666765
C139	C	0.397964	0.188072	0.000088
C140	C	0.731297	0.521405	0.333422
C141	C	1.064631	0.854739	0.666755
C142	C	0.409493	0.036440	0.000085
C143	C	0.742827	0.369773	0.333418
C144	C	1.076160	0.703106	0.666752
C145	C	0.359077	0.035565	0.000091
C146	C	0.692410	0.368898	0.333424
C147	C	1.025744	0.702231	0.666757
C148	C	0.328103	0.110951	0.000101
C149	C	0.661436	0.444284	0.333434
C150	C	0.994770	0.777617	0.666767
O151	O	0.284216	-0.030257	0.000074
O152	O	0.617550	0.303076	0.333407
O153	O	0.950883	0.636410	0.666740
O154	O	0.262840	0.250284	0.000128
O155	O	0.596174	0.583617	0.333462
O156	O	0.929507	0.916950	0.666795
C157	C	0.040001	0.181827	0.000133
C158	C	0.373335	0.515161	0.333466
C159	C	0.706668	0.848494	0.666799
C160	C	0.020562	0.105574	0.000135
C161	C	0.353895	0.438907	0.333469
C162	C	0.687228	0.772241	0.666802
C163	C	0.051537	0.030202	0.000132
C164	C	0.384871	0.363535	0.333465
C165	C	0.718204	0.696869	0.666798
C166	C	-0.029857	0.104692	0.000134
C167	C	0.303477	0.438025	0.333468
C168	C	0.636810	0.771358	0.666801
C169	C	-0.060832	0.180064	0.000138
C170	C	0.272501	0.513397	0.333471
C171	C	0.605834	0.846731	0.666805
C172	C	-0.041390	0.256318	0.000143
C173	C	0.291943	0.589652	0.333476
C174	C	0.625277	0.922985	0.666810
C175	C	0.009026	0.257199	0.000136
C176	C	0.342359	0.590533	0.333470
C177	C	0.675692	0.923866	0.666803
C178	C	0.032095	-0.046052	0.000127
C179	C	0.365428	0.287281	0.333460
C180	C	0.698762	0.620614	0.666793
C181	C	-0.018321	-0.046927	0.000132
C182	C	0.315012	0.286406	0.333466
C183	C	0.648345	0.619739	0.666799
C184	C	-0.049297	0.028445	0.000136
C185	C	0.284036	0.361778	0.333469
C186	C	0.617370	0.695111	0.666803
C187	C	0.659346	0.099240	0.000125
C188	C	0.992679	0.432574	0.333458
C189	C	1.326012	0.765907	0.666791
C190	C	0.713004	0.100191	0.000129
C191	C	1.046338	0.433524	0.333462
C192	C	1.379671	0.766858	0.666796
C193	C	0.567418	0.258496	0.000118
C194	C	0.900752	0.591829	0.333451
C195	C	1.234085	0.925162	0.666784
C196	C	0.568357	0.350779	0.000122
C197	C	0.901690	0.684113	0.333456
C198	C	1.235023	1.017446	0.666789
N199	N	0.570968	0.106442	0.228285
N200	N	0.904301	0.439776	0.561618
N201	N	1.237634	0.773109	0.894952
N202	N	0.570980	0.106442	-0.228064
N203	N	0.904313	0.439775	0.105269
N204	N	1.237647	0.773109	0.438603
C205	C	0.603849	0.049517	0.454011
C206	C	0.937182	0.382850	0.787344
C207	C	1.270516	0.716184	1.120678
C208	C	0.603850	0.049515	0.546201
C209	C	0.937184	0.382848	0.879534
C210	C	1.270517	0.716182	1.212867
C211	C	0.538095	0.163370	0.546204
C212	C	0.871429	0.496703	0.879537
C213	C	1.204762	0.830037	1.212870
C214	C	0.538092	0.163367	0.454016
C215	C	0.871425	0.496701	0.787349
C216	C	1.204759	0.830034	1.120682
C217	C	0.570971	0.106442	0.407922
C218	C	0.904305	0.439775	0.741255
C219	C	1.237638	0.773108	1.074588
C220	C	0.570976	0.106442	0.592299
C221	C	0.904310	0.439776	0.925633
C222	C	1.237643	0.773109	1.258966
C223	C	0.570978	0.106441	0.692255
C224	C	0.904311	0.439774	1.025589
C225	C	1.237644	0.773107	1.358922
C226	C	0.570970	0.106442	0.307959
C227	C	0.904303	0.439776	0.641293
C228	C	1.237636	0.773109	0.974626
H229	H	0.570163	-0.472218	-0.144734
H230	H	0.903496	-0.138884	0.188599
H231	H	1.236830	0.194449	0.521933
N232	N	0.502637	0.224765	0.595926
N233	N	0.835970	0.558098	0.929260
N234	N	1.169303	0.891431	1.262593
H235	H	0.521103	0.261359	0.634172
H236	H	0.854436	0.594692	0.967505
H237	H	1.187769	0.928025	1.300839
H238	H	0.481815	0.260769	0.552685
H239	H	0.815148	0.594103	0.886019
H240	H	1.148482	0.927436	1.219352
H241	H	0.571781	-0.314884	0.144945
H242	H	0.905114	0.018449	0.478279
H243	H	1.238448	0.351782	0.811612
H244	H	0.511317	0.209723	0.416487
H245	H	0.844650	0.543056	0.749820
H246	H	1.177983	0.876389	1.083154
N247	N	0.570060	-0.483664	0.166064
N248	N	0.903393	-0.150331	0.499397
N249	N	1.236727	0.183002	0.832731
H250	H	0.570475	-0.443041	0.216640
H251	H	0.903808	-0.109708	0.549973
H252	H	1.237141	0.223626	0.883307
H253	H	0.539747	-0.512515	0.169543
H254	H	0.873080	-0.179182	0.502877
H255	H	1.206414	0.154151	0.836210
N256	N	0.571889	-0.303445	-0.165833
N257	N	0.905223	0.029889	0.167500
N258	N	1.238556	0.363222	0.500833
H259	H	0.601679	-0.325660	-0.200743
H260	H	0.935012	0.007673	0.132591
H261	H	1.268346	0.341006	0.465924
H262	H	0.541767	-0.311417	-0.200664
H263	H	0.875100	0.021916	0.132670
H264	H	1.208434	0.355250	0.466003
N265	N	0.418930	0.270326	0.000075
N266	N	0.752264	0.603659	0.333409
N267	N	1.085597	0.936993	0.666742
H268	H	0.391654	0.317938	0.000080
H269	H	0.724987	0.651271	0.333413
H270	H	1.058321	0.984605	0.666746
H271	H	0.439602	0.274000	0.054364
H272	H	0.772936	0.607333	0.387697
H273	H	1.106269	0.940667	0.721031
H274	H	-0.034144	-0.109031	0.000128
H275	H	0.299190	0.224302	0.333462
H276	H	0.632523	0.557635	0.666795
H277	H	0.024848	0.319298	0.000135
H278	H	0.358182	0.652631	0.333468
H279	H	0.691515	0.985964	0.666801
H280	H	0.630622	0.003161	0.583724
H281	H	0.963955	0.336494	0.917057
H282	H	1.297288	0.669827	1.250391
H283	H	0.343249	-0.026532	0.000081
H284	H	0.676582	0.306802	0.333414
H285	H	1.009916	0.640135	0.666748
H286	H	-0.066619	0.317689	0.000143
H287	H	0.266714	0.651022	0.333476
H288	H	0.600047	0.984356	0.666809
N289	N	0.639298	-0.011900	0.404297
N290	N	0.972632	0.321433	0.737630
N291	N	1.305965	0.654766	1.070963
H292	H	0.634307	-0.003269	0.338902
H293	H	0.967640	0.330064	0.672235
H294	H	1.300974	0.663398	1.005568
H295	H	0.673589	-0.002719	0.420402
H296	H	1.006922	0.330615	0.753736
H297	H	1.340256	0.663948	1.087069
H298	H	0.322329	0.248584	0.000110
H299	H	0.655663	0.581917	0.333443
H300	H	0.988996	0.915251	0.666776
H301	H	0.176095	0.321941	0.000113
H302	H	0.509428	0.655274	0.333446
H303	H	0.842762	0.988608	0.666779
H304	H	0.084641	0.320342	0.000129
H305	H	0.417974	0.653676	0.333463
H306	H	0.751308	0.987009	0.666796
H307	H	-0.292783	0.237823	0.000136
H308	H	0.040550	0.571156	0.333470
H309	H	0.373884	0.904489	0.666803
N310	N	-0.196170	0.259583	0.000121
N311	N	0.137164	0.592916	0.333454
N312	N	0.470497	0.926249	0.666788
H313	H	-0.223447	0.307192	0.000120
H314	H	0.109886	0.640526	0.333453
H315	H	0.443219	0.973859	0.666786
H316	H	-0.175502	0.263258	0.054415
H317	H	0.157831	0.596592	0.387748
H318	H	0.491165	0.929925	0.721082
N319	N	-0.276984	-0.057432	0.000113
N320	N	0.056349	0.275902	0.333446
N321	N	0.389683	0.609235	0.666780
H322	H	-0.249706	-0.105041	0.000113
H323	H	0.083627	0.228292	0.333446
H324	H	0.416960	0.561625	0.666780
H325	H	-0.297650	-0.061104	0.054407
H326	H	0.035684	0.272229	0.387740
H327	H	0.369017	0.605563	0.721074
H328	H	0.057311	-0.107431	0.000126
H329	H	0.390644	0.225902	0.333459
H330	H	0.723978	0.559236	0.666792
H331	H	0.117114	-0.106399	0.000135
H332	H	0.450447	0.226935	0.333468
H333	H	0.783780	0.560268	0.666801
H334	H	-0.180385	-0.035684	0.000129
H335	H	0.152948	0.297650	0.333462
H336	H	0.486281	0.630983	0.666796
H337	H	0.208571	-0.104794	0.000136
H338	H	0.541905	0.228539	0.333470
H339	H	0.875238	0.561872	0.666803
H340	H	0.434723	-0.024926	0.000079
H341	H	0.768056	0.308407	0.333412
H342	H	1.101389	0.641741	0.666745
