data_functionalizedCrystal
_audit_creation_method	'MofGen! by Chris Wilmer'
_symmetry_space_group_name_H-M	'P1'
_symmetry_Int_Tables_number	1
_symmetry_cell_setting	triclinic
loop_
_symmetry_equiv_pos_as_xyz
  x,y,z
_cell_length_a	9.065215
_cell_length_b	14.044220
_cell_length_c	8.140239
_cell_angle_alpha	89.995422
_cell_angle_beta	89.997810
_cell_angle_gamma	89.101787
loop_
_atom_site_label
_atom_site_type_symbol
_atom_site_fract_x
_atom_site_fract_y
_atom_site_fract_z
O1	O	1.975819	0.139128	-0.136600
O2	O	2.475819	0.639128	0.363400
O3	O	1.547799	0.150544	-0.136608
O4	O	2.047799	0.650544	0.363392
O5	O	1.755384	0.006796	-0.136588
O6	O	2.255384	0.506796	0.363412
O7	O	1.768233	0.282875	-0.136620
O8	O	2.268233	0.782875	0.363380
O9	O	1.755371	0.006794	0.136640
O10	O	2.255371	0.506794	0.636640
O11	O	1.547786	0.150542	0.136619
O12	O	2.047786	0.650542	0.636619
O13	O	1.975806	0.139126	0.136627
O14	O	2.475806	0.639126	0.636627
Zn15	Zn	1.761794	0.144834	0.180004
Zn16	Zn	2.261794	0.644834	0.680004
Zn17	Zn	1.761811	0.144836	-0.179984
Zn18	Zn	2.261811	0.644836	0.320016
O19	O	1.768221	0.282874	0.136607
O20	O	2.268221	0.782874	0.636607
C21	C	1.492684	0.149446	0.000005
C22	C	1.992684	0.649446	0.500005
C23	C	1.328478	0.146168	0.000003
C24	C	1.828478	0.646168	0.500003
C25	C	1.749753	-0.028568	0.000027
C26	C	2.249753	0.471432	0.500027
C27	C	1.732976	-0.133937	0.000028
C28	C	2.232976	0.366063	0.500028
C29	C	1.702304	-0.326862	0.000004
C30	C	2.202304	0.173138	0.500004
C31	C	1.821294	-0.383474	0.000001
C32	C	2.321294	0.116526	0.500001
C33	C	1.804227	-0.490824	-0.000012
C34	C	2.304227	0.009176	0.499988
C35	C	1.719368	-0.219502	0.000018
C36	C	2.219368	0.280498	0.500018
C37	C	2.030921	0.140223	0.000011
C38	C	2.530921	0.640223	0.500011
C39	C	2.195127	0.143502	0.000003
C40	C	2.695127	0.643502	0.500003
C41	C	1.773851	0.318237	-0.000010
C42	C	2.273851	0.818237	0.499990
C43	C	1.790628	0.423607	-0.000023
C44	C	2.290628	0.923607	0.499977
N45	N	1.761793	0.144832	0.425687
N46	N	2.261793	0.644832	0.925687
N47	N	1.761822	0.144831	-0.425667
N48	N	2.261822	0.644831	0.074333
H49	H	1.935981	-0.351319	-0.000107
H50	H	2.435981	0.148681	0.499893
H51	H	1.587627	-0.359015	-0.000002
H52	H	2.087627	0.140985	0.499998
