data_functionalizedCrystal
_audit_creation_method	'MofGen! by Chris Wilmer'
_symmetry_space_group_name_H-M	'P1'
_symmetry_Int_Tables_number	1
_symmetry_cell_setting	triclinic
loop_
_symmetry_equiv_pos_as_xyz
  x,y,z
_cell_length_a	10.654558
_cell_length_b	15.944545
_cell_length_c	9.730223
_cell_angle_alpha	89.996566
_cell_angle_beta	90.000400
_cell_angle_gamma	83.992244
loop_
_atom_site_label
_atom_site_type_symbol
_atom_site_fract_x
_atom_site_fract_y
_atom_site_fract_z
O1	O	1.666297	0.118006	-0.114278
O2	O	1.300674	0.129239	-0.114286
O3	O	1.493474	0.001406	-0.114265
O4	O	1.473497	0.245840	-0.114298
O5	O	1.493472	0.001409	0.114315
O6	O	1.300672	0.129242	0.114294
O7	O	1.666295	0.118010	0.114302
Zn8	Zn	1.483483	0.123627	0.150590
Zn9	Zn	1.483486	0.123622	-0.150574
O10	O	1.473495	0.245843	0.114282
C11	C	1.253886	0.128415	0.000004
C12	C	1.114475	0.125943	0.000001
C13	C	0.917983	0.122466	-0.124597
C14	C	1.048976	0.124781	-0.124599
C15	C	1.048977	0.124780	0.124611
C16	C	0.917988	0.122459	0.124612
C17	C	0.852489	0.121313	-0.249206
C18	C	0.917978	0.122474	-0.373816
C19	C	1.048971	0.124789	-0.373818
C20	C	1.114474	0.125944	-0.249209
C21	C	1.492645	-0.029892	0.000026
C22	C	1.490163	-0.123152	0.000030
C23	C	1.363240	-0.394522	-0.000001
C24	C	1.424433	-0.343583	-0.112702
C25	C	1.481311	-0.458848	-0.000009
C26	C	1.424462	-0.343607	0.112660
C27	C	1.485654	-0.293909	0.000012
C28	C	1.542473	-0.409137	-0.112804
C29	C	1.542485	-0.409164	0.112660
C30	C	1.603765	-0.358257	-0.000069
C31	C	1.478806	-0.553864	-0.000023
C32	C	1.488168	-0.198895	0.000016
C33	C	1.713083	0.118834	0.000010
C34	C	1.852494	0.121306	0.000003
C35	C	1.474324	0.277140	-0.000013
C36	C	1.476806	0.370401	-0.000025
N37	N	1.483490	0.123629	0.356127
N38	N	1.483489	0.123613	-0.356110
C39	C	1.568884	0.067044	0.428062
C40	C	1.568880	0.067033	0.571945
C41	C	1.398086	0.180201	0.571945
C42	C	1.398084	0.180207	0.428064
C43	C	1.654289	0.010466	0.356124
C44	C	1.739691	-0.046124	0.428059
C45	C	1.739688	-0.046134	0.571942
C46	C	1.654283	0.010445	0.643890
H47	H	0.864638	0.121528	-0.475268
H48	H	1.328554	0.226267	0.630534
H49	H	1.102290	0.125726	-0.475282
H50	H	1.221138	0.127824	-0.249220
H51	H	1.809216	-0.092216	0.630510
C52	C	1.833629	-0.108361	0.348925
C53	C	1.833650	-0.108348	0.190662
C54	C	1.927589	-0.170587	0.111532
C55	C	2.021507	-0.232840	0.190665
C56	C	2.021489	-0.232855	0.348937
C57	C	1.927550	-0.170615	0.428067
H58	H	1.764124	-0.062263	0.132075
H59	H	1.927602	-0.170576	-0.005631
H60	H	2.091046	-0.278913	0.132088
H61	H	2.091016	-0.278940	0.407523
H62	H	1.927537	-0.170627	0.545230
C63	C	1.121029	0.126061	0.261671
C64	C	1.196822	0.200471	0.295918
C65	C	1.268874	0.201757	0.432978
C66	C	1.265133	0.128632	0.535792
C67	C	1.189337	0.054216	0.501547
C68	C	1.117285	0.052931	0.364487
H69	H	1.199594	0.254607	0.219807
H70	H	1.324983	0.256844	0.458327
H71	H	1.318470	0.129584	0.637252
H72	H	1.186565	0.000080	0.577658
H73	H	1.061176	-0.002157	0.339137
C74	C	0.845934	0.121190	0.261669
C75	C	0.849680	0.194322	0.364453
C76	C	0.777624	0.193051	0.501511
C77	C	0.701823	0.118647	0.535786
C78	C	0.698075	0.045509	0.433000
C79	C	0.770130	0.046781	0.295941
H80	H	0.905795	0.249405	0.339083
H81	H	0.780399	0.247193	0.577600
H82	H	0.648483	0.117706	0.637245
H83	H	0.641959	-0.009574	0.458370
H84	H	0.767355	-0.007361	0.219852
H85	H	1.654279	0.010427	0.761049
C86	C	1.357076	-0.304877	-0.241418
C87	C	1.216862	-0.315489	-0.266180
C88	C	1.149496	-0.276786	-0.394889
C89	C	1.222345	-0.227471	-0.498837
C90	C	1.362567	-0.216857	-0.474078
C91	C	1.429933	-0.255560	-0.345369
H92	H	1.162928	-0.351997	-0.189228
H93	H	1.045694	-0.284643	-0.413216
H94	H	1.172477	-0.198820	-0.594115
H95	H	1.416502	-0.180349	-0.551030
H96	H	1.533735	-0.247703	-0.327042
C97	C	1.225878	-0.416477	-0.000147
C98	C	1.178190	-0.469050	-0.118282
C99	C	1.040832	-0.491006	-0.118436
C100	C	0.951162	-0.460390	-0.000455
C101	C	0.998848	-0.407814	0.117688
C102	C	1.136206	-0.385857	0.117842
H103	H	1.244570	-0.491717	-0.205626
H104	H	1.005532	-0.529927	-0.205894
H105	H	0.849482	-0.476643	-0.000570
H106	H	0.932468	-0.385146	0.205032
H107	H	1.171506	-0.346936	0.205301
H108	H	0.745827	0.119431	-0.249219
H109	H	1.654302	0.010471	0.238967
C110	C	1.609785	-0.447654	-0.241669
C111	C	1.619838	-0.543599	-0.265523
C112	C	1.687146	-0.582118	-0.394387
C113	C	1.744401	-0.524691	-0.499398
C114	C	1.734350	-0.428740	-0.475548
C115	C	1.667042	-0.390222	-0.346684
H116	H	1.577453	-0.586115	-0.187785
H117	H	1.694586	-0.653148	-0.412042
H118	H	1.794226	-0.553205	-0.594791
H119	H	1.776735	-0.386224	-0.553286
H120	H	1.659602	-0.319192	-0.329029
C121	C	1.741236	-0.336523	-0.000147
C122	C	1.830751	-0.367235	0.117921
C123	C	1.968220	-0.345500	0.117835
C124	C	2.016173	-0.293054	-0.000319
C125	C	1.926656	-0.262339	-0.118396
C126	C	1.789187	-0.284073	-0.118310
H127	H	1.795255	-0.406062	0.205394
H128	H	2.034486	-0.368238	0.205244
H129	H	2.117935	-0.276964	-0.000382
H130	H	1.962152	-0.223512	-0.205868
H131	H	1.722921	-0.261336	-0.205719
C132	C	1.304154	0.242453	0.348928
C133	C	1.210272	0.304725	0.428056
C134	C	1.116334	0.366971	0.348921
C135	C	1.116279	0.366944	0.190658
C136	C	1.210164	0.304670	0.111522
C137	C	1.304102	0.242424	0.190657
H138	H	1.210309	0.304747	0.545220
H139	H	1.046834	0.413070	0.407504
H140	H	1.046740	0.413022	0.132078
H141	H	1.210126	0.304648	-0.005642
H142	H	1.373602	0.196325	0.132074
H143	H	1.592305	-0.437823	0.207946
H144	H	1.374577	-0.314981	0.207937
