data_functionalizedCrystal
_audit_creation_method	'MofGen! by Chris Wilmer'
_symmetry_space_group_name_H-M	'P1'
_symmetry_Int_Tables_number	1
_symmetry_cell_setting	triclinic
loop_
_symmetry_equiv_pos_as_xyz
  x,y,z
_cell_length_a	10.540491
_cell_length_b	9.016244
_cell_length_c	16.109301
_cell_angle_alpha	89.996338
_cell_angle_beta	83.983574
_cell_angle_gamma	89.993079
loop_
_atom_site_label
_atom_site_type_symbol
_atom_site_fract_x
_atom_site_fract_y
_atom_site_fract_z
O1	O	-1.684261	0.123331	-0.116971
O2	O	-1.314682	0.123338	-0.128053
O3	O	-1.509625	0.123319	-0.001542
O4	O	-1.489319	0.123350	-0.243482
O5	O	-1.509596	-0.123361	-0.001545
O6	O	-1.314654	-0.123343	-0.128055
O7	O	-1.684233	-0.123349	-0.116974
Cu8	Cu	-1.499441	-0.145870	-0.122515
Cu9	Cu	-1.499474	0.145859	-0.122512
O10	O	-1.489291	-0.123331	-0.243485
C11	C	-1.267376	-0.000002	-0.127232
C12	C	-1.126460	0.000000	-0.124771
N13	N	-1.499426	-0.351056	-0.122517
C14	C	-0.907750	0.000581	-0.212661
C15	C	-1.054309	0.000014	-0.215286
C16	C	-1.082344	-0.140868	-0.078441
C17	C	-0.935610	-0.140975	-0.076457
C18	C	-0.935863	0.139546	-0.074569
C19	C	-1.082145	0.141398	-0.078855
C20	C	-1.394831	-0.586079	-0.189965
C21	C	-1.395057	-0.414188	-0.190217
C22	C	-1.631871	-0.413394	-0.142237
C23	C	-1.631298	-0.585339	-0.142715
C24	C	-1.472898	-0.585610	-0.035128
C25	C	-1.469844	-0.413656	-0.035694
C26	C	-0.731537	-0.000003	-0.117806
C27	C	-0.872446	0.000015	-0.120300
C28	C	-1.508788	-0.000022	0.029437
C29	C	-1.506322	-0.000024	0.121747
N30	N	-1.499499	0.351045	-0.122503
C31	C	-1.490127	0.000014	-0.274463
C32	C	-1.492593	0.000025	-0.366773
C33	C	-1.616263	-0.000002	0.343359
C34	C	-1.613936	0.000010	0.430094
C35	C	-1.382644	0.000008	0.411607
C36	C	-1.384972	0.000007	0.324875
C37	C	-1.501785	-0.000006	0.290753
C38	C	-1.497130	0.000008	0.464220
C39	C	-1.494606	0.000021	0.558261
C40	C	-1.504310	-0.000017	0.196706
H41	H	-1.083150	0.100999	-0.251531
N42	N	-1.737567	-0.640401	-0.080155
H43	H	-1.798804	-0.702442	-0.109672
H44	H	-1.700441	-0.702603	-0.036492
N45	N	-1.564268	-0.356765	0.034000
H46	H	-1.559978	-0.244929	0.035937
H47	H	-1.653174	-0.388543	0.023754
N48	N	-1.737405	-0.000004	0.486836
H49	H	-1.741611	0.091443	0.523229
H50	H	-1.811684	-0.000071	0.452000
H51	H	-0.865305	0.101608	-0.247924
H52	H	-1.287538	0.000016	0.439400
N53	N	-1.261491	-0.000020	0.268130
H54	H	-1.280694	-0.000021	0.208008
H55	H	-1.210585	0.091423	0.279247
H56	H	-0.863731	-0.099862	-0.247723
H57	H	-1.082182	-0.101128	-0.251754
H58	H	-0.894930	-0.246268	-0.108124
N59	N	-0.906413	-0.149461	0.013210
H60	H	-0.988830	-0.153123	0.051273
H61	H	-0.854903	-0.241790	0.021392
N62	N	-1.662329	-0.638457	-0.227154
H63	H	-1.742328	-0.700825	-0.220202
H64	H	-1.676190	-0.550104	-0.263676
N65	N	-1.146379	-0.147849	0.009823
H66	H	-1.123485	-0.056606	0.041427
H67	H	-1.241918	-0.152401	0.008686
N68	N	-1.737502	-0.359240	-0.078929
H69	H	-1.700428	-0.293616	-0.036757
H70	H	-1.801388	-0.300912	-0.108269
N71	N	-1.417203	-0.359656	-0.276143
H72	H	-1.426901	-0.447315	-0.313995
H73	H	-1.497328	-0.297512	-0.272349
N74	N	-1.742251	-0.000009	0.306559
H75	H	-1.748383	0.091430	0.270979
H76	H	-1.748286	-0.091520	0.271034
H77	H	-1.112728	-0.245696	-0.110618
H78	H	-1.549227	-0.626270	0.015084
N79	N	-1.119453	0.279450	-0.123489
H80	H	-1.164870	0.250537	-0.173246
H81	H	-1.178051	0.341915	-0.084051
H82	H	-1.655871	-0.370309	-0.205263
H83	H	-1.378426	-0.629059	-0.016356
H84	H	-1.132156	0.149895	-0.012773
N85	N	-1.340748	-0.359796	-0.015917
H86	H	-1.301585	-0.295102	-0.062992
H87	H	-1.350885	-0.300576	0.037582
H88	H	-0.914678	0.140490	-0.006613
N89	N	-1.264653	-0.358348	-0.174507
H90	H	-1.206504	-0.445430	-0.167356
H91	H	-1.228150	-0.296286	-0.223485
H92	H	-1.411580	-0.629264	-0.254423
N93	N	-1.264005	-0.640909	-0.174503
H94	H	-1.243943	-0.607383	-0.117500
H95	H	-1.262249	-0.752810	-0.177212
H96	H	-0.892920	0.246318	-0.103113
