data_functionalizedCrystal
_audit_creation_method	'MofGen! by Chris Wilmer'
_symmetry_space_group_name_H-M	'P1'
_symmetry_Int_Tables_number	1
_symmetry_cell_setting	triclinic
loop_
_symmetry_equiv_pos_as_xyz
  x,y,z
_cell_length_a	17.038272
_cell_length_b	14.971486
_cell_length_c	13.448316
_cell_angle_alpha	90.006811
_cell_angle_beta	89.995356
_cell_angle_gamma	92.637158
loop_
_atom_site_label
_atom_site_type_symbol
_atom_site_fract_x
_atom_site_fract_y
_atom_site_fract_z
O1	O	1.037595	-0.194251	-0.082653
O2	O	1.537595	0.305749	0.417347
O3	O	0.809961	-0.191166	-0.082664
O4	O	1.309961	0.308834	0.417336
O5	O	0.929879	-0.062965	-0.082651
O6	O	1.429879	0.437035	0.417349
O7	O	0.917677	-0.322452	-0.082666
O8	O	1.417677	0.177548	0.417334
O9	O	0.929864	-0.062955	0.082733
O10	O	1.429864	0.437045	0.582733
O11	O	0.809946	-0.191157	0.082720
O12	O	1.309946	0.308843	0.582720
O13	O	1.037580	-0.194241	0.082731
O14	O	1.537580	0.305759	0.582731
Cu15	Cu	0.923762	-0.192698	0.097826
Cu16	Cu	1.423762	0.307302	0.597826
Cu17	Cu	0.923779	-0.192709	-0.097759
Cu18	Cu	1.423779	0.307291	0.402241
O19	O	0.917662	-0.322442	0.082718
O20	O	1.417662	0.177558	0.582718
C21	C	0.780822	-0.188356	0.000027
C22	C	1.280822	0.311644	0.500027
C23	C	0.694019	-0.179986	0.000023
C24	C	1.194019	0.320014	0.500023
C25	C	1.066719	-0.197051	0.000038
C26	C	1.566719	0.302949	0.500038
C27	C	1.153522	-0.205421	0.000035
C28	C	1.653522	0.294579	0.500035
C29	C	0.929326	-0.029595	0.000040
C30	C	1.429326	0.470405	0.500040
C31	C	0.927691	0.069825	0.000039
C32	C	1.427691	0.569825	0.500039
C33	C	1.203547	-0.128577	0.000036
C34	C	1.703547	0.371423	0.500036
C35	C	1.285106	-0.136447	0.000039
C36	C	1.785106	0.363553	0.500039
C37	C	1.316640	-0.221161	0.000034
C38	C	1.816640	0.278839	0.500034
C39	C	1.266609	-0.298010	0.000036
C40	C	1.766609	0.201990	0.500036
C41	C	1.185050	-0.290140	0.000040
C42	C	1.685050	0.209860	0.500040
C43	C	1.562430	-0.248965	0.000029
C44	C	2.062430	0.251035	0.500029
C45	C	1.643995	-0.256830	0.000022
C46	C	2.143995	0.243170	0.500022
C47	C	1.662487	-0.095266	0.000027
C48	C	2.162487	0.404734	0.500027
C49	C	1.580926	-0.087403	0.000025
C50	C	2.080926	0.412597	0.500025
C51	C	1.530902	-0.164252	0.000032
C52	C	2.030902	0.335748	0.500032
C53	C	1.400007	-0.229207	0.000034
C54	C	1.900007	0.270793	0.500034
C55	C	1.447537	-0.156205	0.000039
C56	C	1.947537	0.343795	0.500039
C57	C	0.918215	-0.355812	0.000024
C58	C	1.418215	0.144188	0.500024
C59	C	0.919850	-0.455232	0.000019
C60	C	1.419850	0.044768	0.500019
N61	N	0.923755	-0.192690	0.235390
N62	N	1.423755	0.307310	0.735390
C63	C	0.998140	0.121776	0.000043
C64	C	1.498140	0.621776	0.500043
C65	C	0.996598	0.215190	0.000033
C66	C	1.496598	0.715190	0.500033
C67	C	0.924607	0.256653	0.000026
C68	C	1.424607	0.756653	0.500026
C69	C	0.854153	0.204695	0.000019
C70	C	1.354153	0.704695	0.500019
C71	C	0.855695	0.111282	0.000022
C72	C	1.355695	0.611282	0.500022
C73	C	0.850944	0.399398	0.000016
C74	C	1.350944	0.899398	0.500016
C75	C	0.849402	0.492817	0.000015
C76	C	1.349402	0.992817	0.500015
C77	C	0.991847	0.503306	0.000027
C78	C	1.491847	1.003306	0.500027
C79	C	0.993389	0.409893	0.000030
C80	C	1.493389	0.909893	0.500030
C81	C	0.922935	0.357942	0.000024
C82	C	1.422935	0.857942	0.500024
N83	N	0.923793	-0.192711	-0.235324
N84	N	1.423793	0.307289	0.264676
C85	C	0.976871	-0.135949	0.287436
C86	C	1.476871	0.364051	0.787436
C87	C	0.976876	-0.135948	0.391540
C88	C	1.476876	0.364052	0.891540
C89	C	0.923768	-0.192694	0.443595
C90	C	1.423768	0.307306	0.943595
C91	C	0.870646	-0.249438	0.391542
C92	C	1.370646	0.250562	0.891542
C93	C	0.870638	-0.249433	0.287440
C94	C	1.370638	0.250567	0.787440
C95	C	0.870667	-0.249446	0.608522
C96	C	1.370667	0.250554	1.108522
C97	C	0.870676	-0.249452	0.712630
C98	C	1.370676	0.250548	1.212630
C99	C	0.976906	-0.135961	0.712621
C100	C	1.476906	0.364039	1.212621
C101	C	0.976898	-0.135956	0.608520
C102	C	1.476898	0.364044	1.108520
C103	C	0.923777	-0.192701	0.556474
C104	C	1.423777	0.307299	1.056474
H105	H	1.177879	-0.059594	0.000034
H106	H	1.677879	0.440406	0.500034
Cl107	Cl	1.043687	-0.064627	0.778054
Cl108	Cl	1.543687	0.435373	1.278054
Cl109	Cl	1.043667	-0.064624	0.543077
Cl110	Cl	1.543667	0.435376	1.043077
Cl111	Cl	1.683635	-0.363336	0.000017
Cl112	Cl	2.183635	0.136664	0.500017
H113	H	0.790780	0.526573	0.000025
H114	H	1.290780	1.026573	0.500025
H115	H	0.795537	0.238461	0.000007
H116	H	1.295537	0.738461	0.500007
Cl117	Cl	1.499553	-0.345578	0.000024
Cl118	Cl	1.999553	0.154422	0.500024
H119	H	0.827400	-0.295638	0.433931
H120	H	1.327400	0.204362	0.933931
H121	H	1.292289	-0.366987	0.000038
H122	H	1.792289	0.133013	0.500038
Cl123	Cl	1.043644	-0.064610	0.222006
Cl124	Cl	1.543644	0.435390	0.722006
H125	H	1.049214	0.545610	0.000028
H126	H	1.549214	1.045610	0.500028
H127	H	1.325834	-0.073872	0.000044
H128	H	1.825834	0.426128	0.500044
Cl129	Cl	1.043651	-0.064614	0.456971
Cl130	Cl	1.543651	0.435386	0.956971
Cl131	Cl	0.803857	-0.320765	0.222012
Cl132	Cl	1.303857	0.179235	0.722012
Cl133	Cl	1.083893	0.357770	0.000033
Cl134	Cl	1.583893	0.857770	0.500033
Cl135	Cl	1.088648	0.069661	0.000062
Cl136	Cl	1.588648	0.569661	0.500062
H137	H	1.053965	0.257485	0.000039
H138	H	1.553965	0.757485	0.500039
H139	H	1.555258	-0.018419	0.000029
H140	H	2.055258	0.481581	0.500029
Cl141	Cl	0.803882	-0.320782	0.543096
Cl142	Cl	1.303882	0.179218	1.043096
Cl143	Cl	0.762371	0.334089	0.000009
Cl144	Cl	1.262371	0.834089	0.500009
Cl145	Cl	0.803906	-0.320791	0.778063
Cl146	Cl	1.303906	0.179209	1.278063
Cl147	Cl	1.725378	0.001339	0.000026
Cl148	Cl	2.225378	0.501339	0.500026
Cl149	Cl	1.122161	-0.386748	0.000046
Cl150	Cl	1.622161	0.113252	0.500046
Cl151	Cl	1.407893	-0.049711	0.000050
Cl152	Cl	1.907893	0.450289	0.500050
H153	H	1.425690	-0.298182	0.000027
H154	H	1.925690	0.201818	0.500027
H155	H	0.798329	0.068984	0.000019
H156	H	1.298329	0.568984	0.500019
