data_functionalizedCrystal
_audit_creation_method	'MofGen! by Chris Wilmer'
_symmetry_space_group_name_H-M	'P1'
_symmetry_Int_Tables_number	1
_symmetry_cell_setting	triclinic
loop_
_symmetry_equiv_pos_as_xyz
  x,y,z
_cell_length_a	10.540539
_cell_length_b	16.109301
_cell_length_c	14.586319
_cell_angle_alpha	90.005214
_cell_angle_beta	90.001451
_cell_angle_gamma	83.993486
loop_
_atom_site_label
_atom_site_type_symbol
_atom_site_fract_x
_atom_site_fract_y
_atom_site_fract_z
O1	O	-1.684215	-0.117165	-0.076200
O2	O	-1.314645	-0.128205	-0.076212
O3	O	-1.509583	-0.001716	-0.076197
O4	O	-1.489278	-0.243654	-0.076216
O5	O	-1.509569	-0.001714	0.076284
O6	O	-1.314631	-0.128203	0.076269
O7	O	-1.684202	-0.117163	0.076280
Cu8	Cu	-1.499415	-0.122683	0.090197
Cu9	Cu	-1.499431	-0.122685	-0.090129
O10	O	-1.489264	-0.243652	0.076265
C11	C	-1.267347	-0.127376	0.000027
C12	C	-1.126434	-0.124899	0.000023
C13	C	-1.508753	0.029265	0.000044
C14	C	-1.506287	0.121575	0.000046
C15	C	-1.731500	-0.117992	0.000039
C16	C	-1.872413	-0.120469	0.000037
C17	C	-0.944360	-0.029989	0.000386
C18	C	-1.090943	-0.032500	0.000033
C19	C	-1.064135	-0.169366	-0.087051
C20	C	-0.917636	-0.166213	-0.087115
C21	C	-0.917105	-0.168090	0.086285
C22	C	-1.064075	-0.168941	0.087426
C23	C	-1.490093	-0.274633	0.000022
C24	C	-1.492559	-0.366943	0.000015
N25	N	-1.499413	-0.122681	0.217029
C26	C	-1.616226	0.343175	0.000034
C27	C	-1.613899	0.429910	0.000027
C28	C	-1.382612	0.411450	0.000023
C29	C	-1.384940	0.324717	0.000024
C30	C	-1.501751	0.290582	0.000034
C31	C	-1.497096	0.464050	0.000026
C32	C	-1.494572	0.558091	0.000018
C33	C	-1.504275	0.196535	0.000041
N34	N	-1.499443	-0.122681	-0.216961
C35	C	-1.585760	-0.066691	0.452042
C36	C	-1.585764	-0.066689	0.548024
C37	C	-1.413087	-0.178673	0.548019
C38	C	-1.413079	-0.178671	0.452040
C39	C	-1.499422	-0.122680	0.404054
C40	C	-1.499435	-0.122681	0.596015
C41	C	-1.499438	-0.122679	0.700082
C42	C	-1.499418	-0.122681	0.299980
H43	H	-1.134050	0.002489	0.062452
C44	C	-1.254127	0.449007	0.000030
N45	N	-1.157349	0.477294	0.000042
C46	C	-1.680730	-0.005093	0.399261
N47	N	-1.752261	0.041307	0.359509
C48	C	-0.852014	-0.258250	0.087075
N49	N	-0.802980	-0.326156	0.087664
C50	C	-0.875069	-0.127686	0.175450
N51	N	-0.843410	-0.097244	0.242605
H52	H	-1.711340	0.315386	0.000041
H53	H	-0.916290	0.006515	0.062833
C54	C	-1.259002	0.266861	0.000020
N55	N	-1.164150	0.223283	0.000013
H56	H	-1.342790	-0.224261	0.587099
C57	C	-1.680733	-0.005089	0.600807
N58	N	-1.752263	0.041314	0.640562
C59	C	-0.851549	-0.255984	-0.092480
N60	N	-0.801779	-0.323598	-0.096531
H61	H	-1.085521	-0.237222	-0.090296
C62	C	-1.739831	0.487759	0.000035
N63	N	-1.834689	0.531331	0.000043
C64	C	-1.148030	0.015096	-0.084434
N65	N	-1.191027	0.050945	-0.148059
C66	C	-0.904242	0.019123	-0.083487
N67	N	-0.874018	0.056113	-0.146660
H68	H	-1.342766	-0.224265	0.412965
H69	H	-0.889900	-0.133349	-0.152198
H70	H	-1.105495	-0.136456	0.151843
C71	C	-1.122262	-0.127634	-0.174592
N72	N	-1.166040	-0.096195	-0.240525
C73	C	-1.095526	-0.259945	0.094533
N74	N	-1.119222	-0.328490	0.099883
