data_functionalizedCrystal
_audit_creation_method	'MofGen! by Chris Wilmer'
_symmetry_space_group_name_H-M	'P1'
_symmetry_Int_Tables_number	1
_symmetry_cell_setting	triclinic
loop_
_symmetry_equiv_pos_as_xyz
  x,y,z
_cell_length_a	12.759401
_cell_length_b	12.759400
_cell_length_c	18.215384
_cell_angle_alpha	89.913814
_cell_angle_beta	89.942889
_cell_angle_gamma	90.007718
loop_
_atom_site_label
_atom_site_type_symbol
_atom_site_fract_x
_atom_site_fract_y
_atom_site_fract_z
Zn1	Zn	1.606758	-0.417450	-0.416064
Zn2	Zn	1.940091	-0.084116	-0.082731
Zn3	Zn	2.273425	0.249217	0.250602
Zn4	Zn	1.606563	-0.593356	-0.293019
Zn5	Zn	1.939896	-0.260023	0.040314
Zn6	Zn	2.273229	0.073310	0.373647
Zn7	Zn	1.430936	-0.417705	-0.293023
Zn8	Zn	1.764269	-0.084372	0.040311
Zn9	Zn	2.097602	0.248962	0.373644
Zn10	Zn	1.431083	-0.593100	-0.416056
Zn11	Zn	1.764417	-0.259767	-0.082723
Zn12	Zn	2.097750	0.073566	0.250611
O13	O	1.518835	-0.505403	-0.354541
O14	O	1.852168	-0.172069	-0.021207
O15	O	2.185502	0.161264	0.312126
O16	O	1.753753	-0.440784	-0.399744
O17	O	2.087087	-0.107451	-0.066411
O18	O	2.420420	0.225882	0.266922
O19	O	1.583122	-0.570270	-0.190035
O20	O	1.916455	-0.236936	0.143298
O21	O	2.249788	0.096397	0.476631
O22	O	1.454279	-0.270650	-0.309350
O23	O	1.787612	0.062683	0.023984
O24	O	2.120946	0.396017	0.357317
O25	O	1.753610	-0.570022	-0.309344
O26	O	2.086943	-0.236689	0.023990
O27	O	2.420276	0.096644	0.357323
O28	O	1.583455	-0.270463	-0.399748
O29	O	1.916788	0.062871	-0.066414
O30	O	2.250122	0.396204	0.266919
O31	O	1.454089	-0.441220	-0.190038
O32	O	1.787423	-0.107886	0.143296
O33	O	2.120756	0.225447	0.476629
O34	O	1.283934	-0.440971	-0.309341
O35	O	1.617268	-0.107638	0.023992
O36	O	1.950601	0.225695	0.357325
O37	O	1.454530	-0.569586	-0.519042
O38	O	1.787864	-0.236253	-0.185708
O39	O	2.121197	0.097081	0.147625
O40	O	1.284043	-0.569833	-0.399733
O41	O	1.617376	-0.236500	-0.066400
O42	O	1.950709	0.096833	0.266934
O43	O	1.583598	-0.440536	-0.519048
O44	O	1.916931	-0.107203	-0.185714
O45	O	2.250265	0.226131	0.147619
O46	O	1.583265	-0.740343	-0.309335
O47	O	1.916598	-0.407010	0.023998
O48	O	2.249931	-0.073677	0.357331
O49	O	1.454341	-0.740155	-0.399730
O50	O	1.787674	-0.406822	-0.066396
O51	O	2.121008	-0.073489	0.266937
C52	C	1.245868	-0.505403	-0.354537
C53	C	1.579201	-0.172070	-0.021204
C54	C	1.912534	0.161264	0.312130
C55	C	1.129091	-0.505428	-0.354553
C56	C	1.462424	-0.172095	-0.021220
C57	C	1.795758	0.161238	0.312114
C58	C	1.518826	-0.778370	-0.354547
C59	C	1.852159	-0.445037	-0.021214
C60	C	2.185493	-0.111704	0.312119
C61	C	1.518919	-0.895147	-0.354575
C62	C	1.852252	-0.561813	-0.021241
C63	C	2.185585	-0.228480	0.312092
C64	C	1.519103	-0.505004	-0.546494
C65	C	1.852436	-0.171671	-0.213161
C66	C	2.185769	0.161663	0.120173
C67	C	1.519217	-0.504834	-0.628293
C68	C	1.852550	-0.171501	-0.294960
C69	C	2.185883	0.161833	0.038374
C70	C	1.792868	-0.505403	-0.354545
C71	C	2.126202	-0.172070	-0.021211
C72	C	2.459535	0.161263	0.312122
C73	C	1.909645	-0.505404	-0.354546
C74	C	2.242978	-0.172070	-0.021213
C75	C	2.576311	0.161263	0.312120
C76	C	1.964583	-0.438121	-0.401612
C77	C	2.297917	-0.104787	-0.068279
C78	C	2.631250	0.228546	0.265054
C79	C	2.074307	-0.438135	-0.401618
C80	C	2.407641	-0.104802	-0.068284
C81	C	2.740974	0.228531	0.265049
C82	C	2.074145	-0.572719	-0.307485
C83	C	2.407478	-0.239385	0.025848
C84	C	2.740812	0.093948	0.359182
C85	C	1.964423	-0.572709	-0.307484
C86	C	2.297756	-0.239375	0.025850
C87	C	2.631089	0.093958	0.359183
C88	C	1.518872	-0.231370	-0.354550
C89	C	1.852206	0.101964	-0.021217
C90	C	2.185539	0.435297	0.312117
C91	C	1.518888	-0.114593	-0.354554
C92	C	1.852222	0.218740	-0.021221
C93	C	2.185555	0.552074	0.312113
C94	C	1.451644	-0.059827	-0.307492
C95	C	1.784978	0.273506	0.025841
C96	C	2.118311	0.606840	0.359174
C97	C	1.451656	0.049897	-0.307504
C98	C	1.784990	0.383230	0.025829
C99	C	2.118323	0.716564	0.359162
C100	C	1.586165	0.050080	-0.401642
C101	C	1.919499	0.383413	-0.068308
C102	C	2.252832	0.716746	0.265025
C103	C	1.586147	-0.059642	-0.401633
C104	C	1.919481	0.273691	-0.068299
C105	C	2.252814	0.607024	0.265034
C106	C	1.518629	-0.505724	-0.163334
C107	C	1.851962	-0.172391	0.169999
C108	C	2.185295	0.160942	0.503333
C109	C	1.518718	-0.505598	-0.081535
C110	C	1.852052	-0.172265	0.251798
C111	C	2.185385	0.161068	0.585131
C112	C	1.452215	-0.572954	0.106864
C113	C	1.785548	-0.239620	0.440197
C114	C	2.118882	0.093713	0.773531
C115	C	1.452297	-0.572823	0.183722
C116	C	1.785630	-0.239489	0.517056
C117	C	2.118964	0.093844	0.850389
C118	C	1.585723	-0.437471	0.183302
C119	C	1.919056	-0.104138	0.516636
C120	C	2.252389	0.229195	0.849969
C121	C	1.585635	-0.437598	0.106445
C122	C	1.918968	-0.104264	0.439779
C123	C	2.252301	0.229069	0.773112
C124	C	1.518882	-0.505345	0.068228
C125	C	1.852216	-0.172012	0.401561
C126	C	2.185549	0.161322	0.734895
C127	C	1.519052	-0.505087	0.221944
C128	C	1.852386	-0.171754	0.555277
C129	C	2.185719	0.161579	0.888610
C130	C	1.519142	-0.504945	0.305277
C131	C	1.852475	-0.171612	0.638611
C132	C	2.185808	0.161722	0.971944
C133	C	1.518791	-0.505486	-0.015111
C134	C	1.852125	-0.172153	0.318223
C135	C	2.185458	0.161180	0.651556
H136	H	2.119033	-0.383348	-0.439944
H137	H	2.452367	-0.050015	-0.106611
H138	H	2.785700	0.283319	0.226722
O139	O	1.380204	-0.646007	0.065645
O140	O	1.713537	-0.312673	0.398978
O141	O	2.046870	0.020660	0.732312
H142	H	1.427556	-0.699188	0.030671
H143	H	1.760889	-0.365854	0.364004
H144	H	2.094222	-0.032521	0.697337
H145	H	1.639924	-0.382536	0.074987
H146	H	1.973257	-0.049203	0.408320
H147	H	2.306590	0.284130	0.741654
H148	H	1.919986	-0.383316	-0.439933
H149	H	2.253320	-0.049983	-0.106600
H150	H	2.586653	0.283350	0.226733
H151	H	1.640928	0.094831	-0.439971
H152	H	1.974261	0.428165	-0.106638
H153	H	2.307595	0.761498	0.226696
O154	O	2.133225	-0.645296	-0.256715
O155	O	2.466558	-0.311963	0.076618
O156	O	2.799892	0.021370	0.409951
H157	H	2.218752	-0.633991	-0.264615
H158	H	2.552085	-0.300658	0.068718
H159	H	2.885419	0.032676	0.402052
O160	O	1.905161	-0.645274	-0.256709
O161	O	2.238494	-0.311941	0.076624
O162	O	2.571828	0.021392	0.409957
H163	H	1.926223	-0.727708	-0.269323
H164	H	2.259556	-0.394375	0.064011
H165	H	2.592890	-0.061041	0.397344
H166	H	1.396875	-0.104564	-0.269160
H167	H	1.730209	0.228769	0.064174
H168	H	2.063542	0.562102	0.397507
H169	H	1.396899	0.094485	-0.269184
H170	H	1.730232	0.427818	0.064150
H171	H	2.063566	0.761151	0.397483
H172	H	1.398007	-0.627874	0.215176
H173	H	1.731340	-0.294540	0.548510
H174	H	2.064674	0.038793	0.881843
H175	H	1.640905	-0.104234	-0.439961
H176	H	1.974238	0.229099	-0.106627
H177	H	2.307572	0.562433	0.226706
O178	O	1.657734	-0.364418	0.224521
O179	O	1.991067	-0.031085	0.557854
O180	O	2.324400	0.302249	0.891188
H181	H	1.646607	-0.375697	0.284456
H182	H	1.979940	-0.042364	0.617790
H183	H	2.313274	0.290969	0.951123
