data_functionalizedCrystal
_audit_creation_method	'MofGen! by Chris Wilmer'
_symmetry_space_group_name_H-M	'P1'
_symmetry_Int_Tables_number	1
_symmetry_cell_setting	triclinic
loop_
_symmetry_equiv_pos_as_xyz
  x,y,z
_cell_length_a	12.811439
_cell_length_b	12.503572
_cell_length_c	12.811434
_cell_angle_alpha	81.038732
_cell_angle_beta	96.474414
_cell_angle_gamma	91.883098
loop_
_atom_site_label
_atom_site_type_symbol
_atom_site_fract_x
_atom_site_fract_y
_atom_site_fract_z
O1	O	-1.389217	-0.060156	0.145413
O2	O	-1.085609	-0.031895	0.158880
O3	O	-1.246056	-0.031896	-0.001567
O4	O	-1.228771	-0.060155	0.305861
O5	O	-1.233989	-0.210540	0.010519
O6	O	-1.073543	-0.210539	0.170967
O7	O	-1.377150	-0.238799	0.157500
Cu8	Cu	-1.224245	-0.240981	0.165337
Cu9	Cu	-1.238515	-0.029714	0.151043
O10	O	-1.216704	-0.238799	0.317948
C11	C	-1.040731	-0.117324	0.163800
C12	C	-0.924986	-0.105722	0.160438
N13	N	-1.214216	-0.389575	0.175390
C14	C	-0.694333	-0.278699	0.167278
C15	C	-0.585580	-0.267804	0.164119
C16	C	-0.598725	-0.073036	0.150953
C17	C	-0.707478	-0.083932	0.154112
C18	C	-0.755278	-0.186767	0.162276
C19	C	-0.864032	-0.197662	0.165443
C20	C	-0.877177	-0.002895	0.152269
C21	C	-0.768423	0.008001	0.149110
C22	C	-1.199462	-0.608695	0.190188
C23	C	-1.263302	-0.662007	0.126188
C24	C	-1.255093	-0.783932	0.134421
C25	C	-1.207670	-0.486758	0.181956
C26	C	-0.422028	-0.153372	0.152585
C27	C	-0.537771	-0.164976	0.155959
C28	C	-1.239424	-0.117323	-0.034895
C29	C	-1.237630	-0.105715	-0.152209
N30	N	-1.248552	0.118881	0.140982
C31	C	-1.241673	0.008008	-0.324145
C32	C	-1.243364	-0.002887	-0.213919
C33	C	-1.230209	-0.197655	-0.200733
C34	C	-1.228518	-0.186760	-0.310958
C35	C	-1.234249	-0.083925	-0.372661
C36	C	-1.232551	-0.073030	-0.482887
C37	C	-1.219404	-0.267798	-0.469700
C38	C	-1.221094	-0.278693	-0.359474
C39	C	-1.223335	-0.153369	0.351275
C40	C	-1.225130	-0.164970	0.468589
H41	H	-0.902948	-0.281395	0.172097
C42	C	-0.944226	0.098238	0.146767
N43	N	-0.994727	0.174408	0.142626
H44	H	-1.138646	-0.654617	0.251160
H45	H	-1.237210	0.010704	-0.533123
H46	H	-0.729491	0.091726	0.142458
H47	H	-1.324124	-0.616079	0.065213
C48	C	-1.247964	0.121127	-0.392018
N49	N	-1.252701	0.206331	-0.443138
C50	C	-1.251527	0.098247	-0.160555
N51	N	-1.257676	0.174426	-0.120362
C52	C	-1.223903	-0.310765	-0.132842
N53	N	-1.219149	-0.395959	-0.081704
H54	H	-1.216433	-0.362419	-0.309222
H55	H	-0.733250	-0.362432	0.173940
C56	C	-0.518542	-0.368938	0.169631
N57	N	-0.468049	-0.445117	0.173785
H58	H	-0.559790	0.010688	0.144288
C59	C	-1.211241	-0.368931	-0.523076
N60	N	-1.205091	-0.445103	-0.563281
