data_functionalizedCrystal
_audit_creation_method	'MofGen! by Chris Wilmer'
_symmetry_space_group_name_H-M	'P1'
_symmetry_Int_Tables_number	1
_symmetry_cell_setting	triclinic
loop_
_symmetry_equiv_pos_as_xyz
  x,y,z
_cell_length_a	10.968094
_cell_length_b	10.908878
_cell_length_c	11.804867
_cell_angle_alpha	81.131237
_cell_angle_beta	113.725472
_cell_angle_gamma	72.683748
loop_
_atom_site_label
_atom_site_type_symbol
_atom_site_fract_x
_atom_site_fract_y
_atom_site_fract_z
O1	O	1.695016	0.115301	0.248755
O2	O	1.303390	0.153332	0.168402
O3	O	1.551119	-0.054949	0.219235
O4	O	1.447287	0.323581	0.197922
O5	O	1.616280	-0.109714	0.430643
O6	O	1.368551	0.098567	0.379810
O7	O	1.760176	0.060536	0.460163
Cu8	Cu	1.570313	0.074551	0.439290
Cu9	Cu	1.493253	0.139317	0.189275
O10	O	1.512447	0.268816	0.409330
C11	C	1.286621	0.127321	0.263981
C12	C	1.139579	0.131392	0.233811
C13	C	0.955797	0.109035	0.298687
C14	C	1.107773	0.104832	0.329881
C15	C	1.593403	-0.130609	0.326929
C16	C	1.622298	-0.274458	0.332853
C17	C	1.776945	0.086547	0.364582
C18	C	1.923984	0.082478	0.394743
C19	C	1.516858	-0.318730	0.311217
C20	C	1.546720	-0.467405	0.317340
C21	C	1.470163	0.344477	0.301634
C22	C	1.441265	0.488328	0.295701
N23	N	1.624523	0.028996	0.615139
C24	C	1.308818	0.294310	0.924394
C25	C	1.267774	0.328789	0.791322
C26	C	1.356958	0.253844	0.747269
C27	C	1.487192	0.144413	0.836303
C28	C	1.528235	0.109924	0.969387
C29	C	1.576375	0.069458	0.792262
C30	C	1.706609	-0.039972	0.881296
C31	C	1.747645	-0.074455	1.014366
C32	C	1.658461	0.000490	1.058419
C33	C	1.535332	0.103948	0.659178
C34	C	1.754749	-0.080438	0.704171
C35	C	1.795793	-0.114917	0.837243
N36	N	1.439044	0.184876	1.013426
H37	H	1.193048	0.078977	0.435220
C38	C	1.698553	-0.564890	0.348492
N39	N	1.812910	-0.638316	0.371953
C40	C	1.124630	0.449287	0.693418
N41	N	1.016847	0.540099	0.619682
C42	C	1.852860	-0.162883	0.655720
N43	N	1.926748	-0.224977	0.619218
H44	H	1.734680	-0.346625	0.355915
C45	C	1.890881	-0.194862	1.112295
N46	N	1.998760	-0.285560	1.186052
C47	C	1.289431	-0.414190	0.264550
N48	N	1.175072	-0.340766	0.241085
H49	H	1.054307	0.157243	0.128472
H50	H	1.323534	0.281922	0.638915
H51	H	1.236210	0.355314	0.960271
H52	H	1.429295	0.193046	0.586698
H53	H	1.691881	-0.027579	1.166777
C54	C	1.939043	-0.235296	0.935194
N55	N	2.046938	-0.325968	1.008972
H56	H	1.404480	-0.246566	0.288167
H57	H	0.870525	0.134873	0.193356
H58	H	1.009261	0.056625	0.500075
