data_functionalizedCrystal
_audit_creation_method	'MofGen! by Chris Wilmer'
_symmetry_space_group_name_H-M	'P1'
_symmetry_Int_Tables_number	1
_symmetry_cell_setting	triclinic
loop_
_symmetry_equiv_pos_as_xyz
  x,y,z
_cell_length_a	18.050591
_cell_length_b	18.050589
_cell_length_c	18.050583
_cell_angle_alpha	89.971909
_cell_angle_beta	89.975765
_cell_angle_gamma	90.024227
loop_
_atom_site_label
_atom_site_type_symbol
_atom_site_fract_x
_atom_site_fract_y
_atom_site_fract_z
Zn1	Zn	1.135317	-0.295713	-0.420054
Zn2	Zn	1.468650	0.037620	-0.086721
Zn3	Zn	1.801984	0.370953	0.246613
Zn4	Zn	1.135220	-0.419918	-0.295873
Zn5	Zn	1.468554	-0.086585	0.037460
Zn6	Zn	1.801887	0.246749	0.370793
Zn7	Zn	1.011129	-0.295738	-0.295865
Zn8	Zn	1.344462	0.037596	0.037468
Zn9	Zn	1.677796	0.370929	0.370802
Zn10	Zn	1.011084	-0.419857	-0.420009
Zn11	Zn	1.344417	-0.086524	-0.086676
Zn12	Zn	1.677751	0.246809	0.246658
O13	O	1.073188	-0.357807	-0.357950
O14	O	1.406521	-0.024473	-0.024617
O15	O	1.739854	0.308860	0.308716
O16	O	1.239229	-0.312204	-0.403604
O17	O	1.572562	0.021129	-0.070270
O18	O	1.905895	0.354462	0.263063
O19	O	1.118738	-0.403481	-0.191948
O20	O	1.452071	-0.070147	0.141386
O21	O	1.785404	0.263186	0.474719
O22	O	1.027662	-0.191810	-0.312354
O23	O	1.360995	0.141524	0.020979
O24	O	1.694328	0.474857	0.354312
O25	O	1.239158	-0.403457	-0.312369
O26	O	1.572491	-0.070124	0.020965
O27	O	1.905824	0.263210	0.354298
O28	O	1.118902	-0.191792	-0.403595
O29	O	1.452236	0.141541	-0.070262
O30	O	1.785569	0.474875	0.263071
O31	O	1.027568	-0.312246	-0.191942
O32	O	1.360902	0.021087	0.141392
O33	O	1.694235	0.354421	0.474725
O34	O	0.907198	-0.312187	-0.312311
O35	O	1.240532	0.021146	0.021023
O36	O	1.573865	0.354479	0.354356
O37	O	1.027585	-0.403354	-0.523940
O38	O	1.360919	-0.070020	-0.190606
O39	O	1.694252	0.263313	0.142727
O40	O	0.907165	-0.403377	-0.403519
O41	O	1.240499	-0.070044	-0.070185
O42	O	1.573832	0.263289	0.263148
O43	O	1.118859	-0.312146	-0.523973
O44	O	1.452192	0.021188	-0.190639
O45	O	1.785525	0.354521	0.142694
O46	O	1.118694	-0.523835	-0.312325
O47	O	1.452028	-0.190501	0.021008
O48	O	1.785361	0.142832	0.354342
O49	O	1.027492	-0.523790	-0.403527
O50	O	1.360825	-0.190457	-0.070193
O51	O	1.694159	0.142877	0.263140
C52	C	0.880235	-0.357779	-0.357909
C53	C	1.213569	-0.024446	-0.024576
C54	C	1.546902	0.308888	0.308757
C55	C	0.797690	-0.357785	-0.357909
C56	C	1.131023	-0.024452	-0.024576
C57	C	1.464356	0.308882	0.308757
C58	C	0.598235	-0.308138	-0.308425
C59	C	0.931569	0.025195	0.024909
C60	C	1.264902	0.358528	0.358242
C61	C	0.548815	-0.375877	-0.290154
C62	C	0.882148	-0.042544	0.043180
C63	C	1.215481	0.290789	0.376513
C64	C	0.646559	-0.357807	-0.357943
C65	C	0.979893	-0.024474	-0.024610
C66	C	1.313226	0.308859	0.308724
C67	C	0.548898	-0.290092	-0.376212
C68	C	0.882232	0.043241	-0.042879
C69	C	1.215565	0.376575	0.290455
C70	C	0.500574	-0.357823	-0.357974
C71	C	0.833907	-0.024490	-0.024641
C72	C	1.167241	0.308843	0.308693
C73	C	0.598226	-0.425582	-0.339637
C74	C	0.931559	-0.092249	-0.006303
C75	C	1.264892	0.241085	0.327030
C76	C	0.598314	-0.339751	-0.425726
C77	C	0.931647	-0.006418	-0.092393
C78	C	1.264980	0.326916	0.240940
C79	C	0.548915	-0.407537	-0.407481
C80	C	0.882249	-0.074204	-0.074148
C81	C	1.215582	0.259130	0.259186
C82	C	0.730658	-0.357797	-0.357923
C83	C	1.063991	-0.024464	-0.024590
C84	C	1.397324	0.308869	0.308744
C85	C	0.416478	-0.357841	-0.357994
C86	C	0.749811	-0.024508	-0.024660
C87	C	1.083144	0.308826	0.308673
C88	C	1.073098	-0.550759	-0.357938
C89	C	1.406431	-0.217425	-0.024605
C90	C	1.739765	0.115908	0.308729
C91	C	1.073127	-0.633304	-0.357958
C92	C	1.406461	-0.299971	-0.024624
C93	C	1.739794	0.033362	0.308709
C94	C	1.023580	-0.832758	-0.407536
C95	C	1.356914	-0.499424	-0.074202
C96	C	1.690247	-0.166091	0.259131
C97	C	1.005479	-0.882202	-0.339767
C98	C	1.338812	-0.548869	-0.006433
C99	C	1.672145	-0.215536	0.326900
C100	C	1.073200	-0.784435	-0.357967
C101	C	1.406534	-0.451101	-0.024634
C102	C	1.739867	-0.117768	0.308699
C103	C	1.091339	-0.882072	-0.425744
C104	C	1.424672	-0.548739	-0.092411
C105	C	1.758005	-0.215405	0.240922
C106	C	1.073269	-0.930420	-0.357983
C107	C	1.406603	-0.597087	-0.024649
C108	C	1.739936	-0.263753	0.308684
C109	C	1.055063	-0.832792	-0.290162
C110	C	1.388396	-0.499459	0.043171
C111	C	1.721730	-0.166125	0.376505
C112	C	1.140955	-0.832657	-0.376186
C113	C	1.474288	-0.499324	-0.042852
C114	C	1.807621	-0.165991	0.290481
C115	C	1.122879	-0.882080	-0.308370
C116	C	1.456212	-0.548746	0.024964
C117	C	1.789545	-0.215413	0.358297
C118	C	1.073159	-0.700337	-0.357959
C119	C	1.406492	-0.367003	-0.024626
C120	C	1.739825	-0.033670	0.308707
C121	C	1.073311	-1.014516	-0.357983
C122	C	1.406645	-0.681183	-0.024649
C123	C	1.739978	-0.347850	0.308684
C124	C	1.266893	-0.357835	-0.357992
C125	C	1.600226	-0.024502	-0.024659
C126	C	1.933560	0.308832	0.308675
C127	C	1.349439	-0.357847	-0.358010
C128	C	1.682772	-0.024514	-0.024676
C129	C	2.016106	0.308820	0.308657
C130	C	1.073228	-0.357740	-0.551656
C131	C	1.406561	-0.024407	-0.218323
C132	C	1.739894	0.308926	0.115011
C133	C	1.073245	-0.357712	-0.634202
C134	C	1.406578	-0.024379	-0.300869
C135	C	1.739912	0.308955	0.032465
C136	C	1.073298	-0.164101	-0.357979
C137	C	1.406631	0.169232	-0.024646
C138	C	1.739964	0.502566	0.308688
C139	C	1.073345	-0.081555	-0.357991
C140	C	1.406678	0.251778	-0.024658
C141	C	1.740011	0.585112	0.308675
C142	C	1.122926	-0.308063	-0.883046
C143	C	1.456259	0.025271	-0.549712
C144	C	1.789592	0.358604	-0.216379
C145	C	1.141048	-0.375827	-0.833639
C146	C	1.474381	-0.042494	-0.500305
C147	C	1.807714	0.290839	-0.166972
C148	C	1.073293	-0.357665	-0.931322
C149	C	1.406626	-0.024331	-0.597989
C150	C	1.739960	0.309002	-0.264656
C151	C	1.055182	-0.289927	-0.833648
C152	C	1.388516	0.043406	-0.500314
C153	C	1.721849	0.376739	-0.166981
C154	C	1.073271	-0.357684	-0.785337
C155	C	1.406605	-0.024351	-0.452004
C156	C	1.739938	0.308982	-0.118671
C157	C	1.091450	-0.425465	-0.883003
C158	C	1.424783	-0.092132	-0.549669
C159	C	1.758117	0.241202	-0.216336
C160	C	1.005553	-0.339519	-0.883016
C161	C	1.338887	-0.006186	-0.549683
C162	C	1.672220	0.327147	-0.216349
C163	C	1.023649	-0.407331	-0.833631
C164	C	1.356983	-0.073997	-0.500298
C165	C	1.690316	0.259336	-0.166965
C166	C	1.073307	-0.357652	-1.015421
C167	C	1.406641	-0.024319	-0.682087
C168	C	1.739974	0.309014	-0.348754
C169	C	1.073257	-0.357704	-0.701241
C170	C	1.406590	-0.024371	-0.367907
C171	C	1.739923	0.308962	-0.034574
C172	C	1.073190	-0.357819	-0.164998
C173	C	1.406523	-0.024486	0.168335
C174	C	1.739857	0.308848	0.501668
C175	C	1.073317	-0.357638	-0.082453
C176	C	1.406650	-0.024305	0.250880
C177	C	1.739984	0.309029	0.584214
H178	H	0.527396	-0.449596	-0.449370
H179	H	0.860730	-0.116262	-0.116037
H180	H	1.194063	0.217071	0.217296
N181	N	0.521520	-0.395058	-0.218270
N182	N	0.854853	-0.061725	0.115064
N183	N	1.188186	0.271608	0.448397
N184	N	0.481889	-0.451276	-0.210091
N185	N	0.815222	-0.117943	0.123243
N186	N	1.148556	0.215391	0.456576
H187	H	0.462612	-0.464819	-0.159322
H188	H	0.795945	-0.131486	0.174012
H189	H	1.129279	0.201848	0.507345
H190	H	0.527191	-0.232827	-0.391625
H191	H	0.860525	0.100507	-0.058292
H192	H	1.193858	0.433840	0.275041
N193	N	0.625300	-0.497448	-0.320187
N194	N	0.958633	-0.164115	0.013146
N195	N	1.291966	0.169218	0.346479
N196	N	0.693492	-0.509033	-0.317011
N197	N	1.026826	-0.175699	0.016323
N198	N	1.360159	0.157634	0.349656
H199	H	0.712616	-0.559787	-0.303273
H200	H	1.045949	-0.226453	0.030061
H201	H	1.379283	0.106880	0.363394
N202	N	0.625603	-0.320547	-0.497601
N203	N	0.958937	0.012787	-0.164268
N204	N	1.292270	0.346120	0.169066
N205	N	0.609844	-0.259091	-0.525363
N206	N	0.943177	0.074242	-0.192029
N207	N	1.276510	0.407575	0.141304
H208	H	0.629117	-0.245520	-0.576125
H209	H	0.962451	0.087813	-0.242792
H210	H	1.295784	0.421146	0.090542
H211	H	1.198324	-0.391187	-0.811947
H212	H	1.531657	-0.057854	-0.478614
H213	H	1.864991	0.275480	-0.145280
N214	N	1.175618	-0.255493	-0.910282
N215	N	1.508951	0.077840	-0.576948
N216	N	1.842285	0.411173	-0.243615
N217	N	1.154615	-0.202724	-0.949905
N218	N	1.487948	0.130609	-0.616572
N219	N	1.821281	0.463942	-0.283239
H220	H	1.191829	-0.165599	-0.969143
H221	H	1.525162	0.167734	-0.635809
H222	H	1.858495	0.501067	-0.302476
N223	N	1.110734	-0.497357	-0.910091
N224	N	1.444067	-0.164024	-0.576758
N225	N	1.777400	0.169310	-0.243425
N226	N	1.113879	-0.508944	-0.978286
N227	N	1.447212	-0.175611	-0.644953
N228	N	1.780546	0.157723	-0.311620
H229	H	1.127499	-0.559716	-0.997420
H230	H	1.460833	-0.226383	-0.664087
H231	H	1.794166	0.106950	-0.330754
N232	N	1.035964	-0.218063	-0.806439
N233	N	1.369297	0.115270	-0.473106
N234	N	1.702631	0.448604	-0.139773
N235	N	1.032344	-0.206711	-0.738228
N236	N	1.365678	0.126623	-0.404894
N237	N	1.699011	0.459956	-0.071561
H238	H	1.018775	-0.155955	-0.719013
H239	H	1.352109	0.177378	-0.385679
H240	H	1.685442	0.510711	-0.052346
H241	H	1.198207	-0.810881	-0.391613
H242	H	1.531540	-0.477547	-0.058280
H243	H	1.864874	-0.144214	0.275053
N244	N	1.035768	-0.805762	-0.218241
N245	N	1.369101	-0.472429	0.115092
N246	N	1.702434	-0.139095	0.448426
N247	N	1.074866	-0.822073	-0.163477
N248	N	1.408200	-0.488740	0.169857
N249	N	1.741533	-0.155407	0.503190
H250	H	1.061237	-0.802981	-0.112684
H251	H	1.394570	-0.469648	0.220649
H252	H	1.727903	-0.136314	0.553983
N253	N	0.970864	-0.805568	-0.460037
N254	N	1.304197	-0.472235	-0.126704
N255	N	1.637531	-0.138902	0.206629
N256	N	0.962762	-0.737359	-0.468824
N257	N	1.296095	-0.404025	-0.135490
N258	N	1.629428	-0.070692	0.197843
H259	H	0.925529	-0.718153	-0.505899
H260	H	1.258862	-0.384820	-0.172565
H261	H	1.592196	-0.051486	0.160768
H262	H	0.948213	-0.903981	-0.324371
H263	H	1.281547	-0.570648	0.008962
H264	H	1.614880	-0.237314	0.342295
H265	H	1.164870	-0.903599	-0.266409
H266	H	1.498204	-0.570266	0.066924
H267	H	1.831537	-0.236933	0.400257
N268	N	1.110540	-0.909231	-0.497642
N269	N	1.443873	-0.575897	-0.164309
N270	N	1.777206	-0.242564	0.169024
N271	N	1.071087	-0.893414	-0.552297
N272	N	1.404420	-0.560081	-0.218964
N273	N	1.737753	-0.226748	0.114369
H274	H	1.084641	-0.912594	-0.603077
H275	H	1.417974	-0.579260	-0.269744
H276	H	1.751308	-0.245927	0.063589
N277	N	0.970985	-0.460027	-0.806591
N278	N	1.304318	-0.126694	-0.473258
N279	N	1.637652	0.206640	-0.139924
N280	N	0.977749	-0.527060	-0.822554
N281	N	1.311083	-0.193727	-0.489221
N282	N	1.644416	0.139607	-0.155887
H283	H	0.940558	-0.564279	-0.803456
H284	H	1.273891	-0.230946	-0.470123
H285	H	1.607224	0.102387	-0.136790
N286	N	0.933727	-0.320211	-0.910255
N287	N	1.267061	0.013122	-0.576921
N288	N	1.600394	0.346455	-0.243588
N289	N	0.925892	-0.264601	-0.950789
N290	N	1.259225	0.068732	-0.617456
N291	N	1.592558	0.402065	-0.284123
H292	H	0.875164	-0.250957	-0.970029
H293	H	1.208498	0.082377	-0.636696
H294	H	1.541831	0.415710	-0.303362
N295	N	0.625397	-0.255504	-0.255831
N296	N	0.958730	0.077829	0.077502
N297	N	1.292064	0.411162	0.410835
N298	N	0.609503	-0.262250	-0.188759
N299	N	0.942837	0.071083	0.144574
N300	N	1.276170	0.404416	0.477907
H301	H	0.628686	-0.225081	-0.151613
H302	H	0.962019	0.108253	0.181720
H303	H	1.295353	0.441586	0.515053
