data_functionalizedCrystal
_audit_creation_method	'MofGen! by Chris Wilmer'
_symmetry_space_group_name_H-M	'P1'
_symmetry_Int_Tables_number	1
_symmetry_cell_setting	triclinic
loop_
_symmetry_equiv_pos_as_xyz
  x,y,z
_cell_length_a	19.077236
_cell_length_b	19.076808
_cell_length_c	19.076919
_cell_angle_alpha	89.878360
_cell_angle_beta	89.887323
_cell_angle_gamma	94.519737
loop_
_atom_site_label
_atom_site_type_symbol
_atom_site_fract_x
_atom_site_fract_y
_atom_site_fract_z
Zn1	Zn	1.048453	-0.255469	-0.429870
Zn2	Zn	1.548453	0.244531	0.070130
Zn3	Zn	1.048749	-0.368252	-0.307652
Zn4	Zn	1.548749	0.131748	0.192348
Zn5	Zn	0.935682	-0.255100	-0.307665
Zn6	Zn	1.435682	0.244900	0.192335
Zn7	Zn	0.926207	-0.377641	-0.419997
Zn8	Zn	1.426207	0.122359	0.080003
O9	O	0.989773	-0.314115	-0.366296
O10	O	1.489773	0.185885	0.133704
O11	O	1.146971	-0.266655	-0.417783
O12	O	1.646971	0.233345	0.082217
O13	O	1.037840	-0.349158	-0.209493
O14	O	1.537840	0.150842	0.290507
O15	O	0.954483	-0.156664	-0.328013
O16	O	1.454483	0.343336	0.171987
O17	O	1.147189	-0.349516	-0.327990
O18	O	1.647189	0.150484	0.172010
O19	O	1.037335	-0.156935	-0.417796
O20	O	1.537335	0.343065	0.082204
O21	O	0.954771	-0.266026	-0.209503
O22	O	1.454771	0.233974	0.290497
O23	O	0.835946	-0.275130	-0.318440
O24	O	1.335946	0.224870	0.181560
O25	O	0.938333	-0.365518	-0.519467
O26	O	1.438333	0.134482	-0.019467
O27	O	0.828985	-0.365160	-0.400970
O28	O	1.328985	0.134840	0.099030
O29	O	1.028147	-0.275759	-0.526720
O30	O	1.528147	0.224241	-0.026720
O31	O	1.028652	-0.467982	-0.318417
O32	O	1.528652	0.032018	0.181583
O33	O	0.938621	-0.474880	-0.400957
O34	O	1.438621	0.025120	0.099043
C35	C	0.806931	-0.321124	-0.358636
C36	C	1.306931	0.178876	0.141364
C37	C	0.728709	-0.324141	-0.355375
C38	C	1.228709	0.175859	0.144625
C39	C	0.691842	-0.282491	-0.400659
C40	C	1.191842	0.217509	0.099341
C41	C	0.618344	-0.285321	-0.397589
C42	C	1.118344	0.214679	0.102411
C43	C	0.581715	-0.329806	-0.349238
C44	C	1.081715	0.170194	0.150762
C45	C	0.618588	-0.371457	-0.303949
C46	C	1.118588	0.128543	0.196051
C47	C	0.692084	-0.368623	-0.307016
C48	C	1.192084	0.131377	0.192984
C49	C	0.361918	-0.342898	-0.335042
C50	C	0.861918	0.157102	0.164958
C51	C	0.288416	-0.345731	-0.331979
C52	C	0.788416	0.154269	0.168021
C53	C	0.288178	-0.259593	-0.425619
C54	C	0.788178	0.240407	0.074381
C55	C	0.361676	-0.256766	-0.428684
C56	C	0.861676	0.243234	0.071316
C57	C	0.398542	-0.298415	-0.383393
C58	C	0.898542	0.201585	0.116607
N59	N	0.506589	-0.332702	-0.346100
N60	N	1.006589	0.167298	0.153900
N61	N	0.473667	-0.295515	-0.386528
N62	N	0.973667	0.204485	0.113472
C63	C	0.982659	-0.496966	-0.358631
C64	C	1.482659	0.003034	0.141369
C65	C	0.979679	-0.575189	-0.355377
C66	C	1.479679	-0.075189	0.144623
C67	C	1.021380	-0.612022	-0.400629
C68	C	1.521380	-0.112022	0.099371
C69	C	1.018577	-0.685521	-0.397574
C70	C	1.518577	-0.185521	0.102426
C71	C	0.974076	-0.722186	-0.349263
C72	C	1.474076	-0.222186	0.150737
C73	C	0.932370	-0.685348	-0.304009
C74	C	1.432370	-0.185348	0.195991
C75	C	0.935170	-0.611851	-0.307068
C76	C	1.435170	-0.111851	0.192932
C77	C	0.961078	-0.941990	-0.335099
C78	C	1.461078	-0.441990	0.164901
C79	C	0.958283	-1.015493	-0.332042
C80	C	1.458283	-0.515493	0.167958
C81	C	1.044489	-1.015661	-0.425608
C82	C	1.544489	-0.515661	0.074392
C83	C	1.047288	-0.942162	-0.428660
C84	C	1.547288	-0.442162	0.071340
C85	C	1.005579	-0.905331	-0.383409
C86	C	1.505579	-0.405331	0.116591
N87	N	0.971212	-0.797313	-0.346137
N88	N	1.471212	-0.297313	0.153863
N89	N	1.008441	-0.830205	-0.386539
N90	N	1.508441	-0.330205	0.113461
C91	C	1.173328	-0.307079	-0.373986
C92	C	1.673328	0.192921	0.126014
C93	C	1.251549	-0.304081	-0.377263
C94	C	1.751549	0.195919	0.122737
C95	C	0.982150	-0.321727	-0.549257
C96	C	1.482150	0.178273	-0.049257
C97	C	0.978902	-0.324971	-0.627224
C98	C	1.478902	0.175029	-0.127224
C99	C	0.996933	-0.130550	-0.374007
C100	C	1.496933	0.369450	0.125993
C101	C	0.999984	-0.052326	-0.377294
C102	C	1.499984	0.447674	0.122706
C103	C	1.024134	-0.279764	-0.667631
C104	C	1.524134	0.220236	-0.167631
C105	C	1.021074	-0.282809	-0.740889
C106	C	1.521074	0.217191	-0.240889
C107	C	0.972783	-0.331065	-0.773740
C108	C	1.472783	0.168935	-0.273740
C109	C	0.927546	-0.376274	-0.733328
C110	C	1.427546	0.123726	-0.233328
C111	C	0.930604	-0.373225	-0.660071
C112	C	1.430604	0.126775	-0.160071
C113	C	0.958621	-0.345193	-0.992429
C114	C	1.458621	0.154807	-0.492429
C115	C	0.955568	-0.348241	-1.065691
C116	C	1.455568	0.151759	-0.565691
C117	C	1.049095	-0.254774	-1.073247
C118	C	1.549095	0.245226	-0.573247
C119	C	1.052152	-0.251732	-0.999989
C120	C	1.552152	0.248268	-0.499989
C121	C	1.006912	-0.296938	-0.959583
C122	C	1.506912	0.203062	-0.459583
N123	N	0.969655	-0.334181	-0.848621
N124	N	1.469655	0.165819	-0.348621
N125	N	1.010037	-0.293819	-0.884703
N126	N	1.510037	0.206181	-0.384703
C127	C	0.997408	-0.306481	-0.184050
C128	C	1.497408	0.193519	0.315950
C129	C	1.000801	-0.303034	-0.106097
C130	C	1.500801	0.196966	0.393903
H131	H	0.721660	-0.246268	-0.440033
H132	H	1.221660	0.253732	0.059967
F133	F	0.579603	-0.418798	-0.252486
F134	F	1.079603	0.081202	0.247514
H135	H	0.722100	-0.402538	-0.270141
H136	H	1.222100	0.097462	0.229859
H137	H	0.258595	-0.381959	-0.292605
H138	H	0.758595	0.118041	0.207395
H139	H	0.922042	-1.045343	-0.292700
H140	H	1.422042	-0.545343	0.207300
H141	H	0.921793	-0.382013	-0.959539
H142	H	1.421793	0.117987	-0.459539
F143	F	1.088873	-1.054865	-0.473766
F144	F	1.588873	-0.554865	0.026234
F145	F	1.068748	-0.573007	-0.452046
F146	F	1.568748	-0.073007	0.047954
H147	H	0.588330	-0.251406	-0.434465
H148	H	1.088330	0.248594	0.065535
H149	H	0.258154	-0.225684	-0.462491
H150	H	0.758154	0.274316	0.037509
H151	H	0.893763	-0.410031	-0.627173
H152	H	1.393763	0.089969	-0.127173
H153	H	1.052540	-0.715507	-0.434417
H154	H	1.552540	-0.215507	0.065583
H155	H	1.083524	-0.912311	-0.467999
H156	H	1.583524	-0.412311	0.032001
F157	F	0.876149	-0.427630	-0.768292
F158	F	1.376149	0.072370	-0.268292
H159	H	0.927118	-0.912008	-0.298252
H160	H	1.427118	-0.412008	0.201748
H161	H	0.896134	-0.715206	-0.264675
H162	H	1.396134	-0.215206	0.235325
H163	H	1.063460	-0.240470	-0.640890
H164	H	1.563460	0.259530	-0.140890
F165	F	0.400653	-0.209423	-0.480150
F166	F	0.900653	0.290577	0.019850
H167	H	0.901211	-0.581862	-0.270220
H168	H	1.401211	-0.081862	0.229780
F169	F	0.401145	-0.387212	-0.286827
F170	F	0.901145	0.112788	0.213173
F171	F	1.069240	-0.234717	-0.783890
F172	F	1.569240	0.265283	-0.283890
H173	H	0.916242	-0.387538	-1.092435
H174	H	1.416242	0.112462	-0.592435
H175	H	1.091477	-0.212438	-0.973247
H176	H	1.591477	0.287562	-0.473247
F177	F	1.097238	-0.206664	-1.116255
F178	F	1.597238	0.293336	-0.616255
