data_functionalizedCrystal
_audit_creation_method	'MofGen! by Chris Wilmer'
_symmetry_space_group_name_H-M	'P1'
_symmetry_Int_Tables_number	1
_symmetry_cell_setting	triclinic
loop_
_symmetry_equiv_pos_as_xyz
  x,y,z
_cell_length_a	21.295418
_cell_length_b	15.297327
_cell_length_c	15.296720
_cell_angle_alpha	107.319222
_cell_angle_beta	99.639667
_cell_angle_gamma	99.725786
loop_
_atom_site_label
_atom_site_type_symbol
_atom_site_fract_x
_atom_site_fract_y
_atom_site_fract_z
Zn1	Zn	0.835360	-0.460955	-0.590189
Zn2	Zn	1.335360	0.039045	-0.090189
Zn3	Zn	0.835288	-0.589577	-0.461583
Zn4	Zn	1.335288	-0.089577	0.038417
Zn5	Zn	0.752127	-0.434110	-0.434671
Zn6	Zn	1.252127	0.065890	0.065329
Zn7	Zn	0.708045	-0.616460	-0.616973
Zn8	Zn	1.208045	-0.116460	-0.116973
O9	O	0.782705	-0.525276	-0.525854
O10	O	1.282705	-0.025276	-0.025854
O11	O	0.923435	-0.478001	-0.573183
O12	O	1.423435	0.021999	-0.073183
O13	O	0.842675	-0.546468	-0.327897
O14	O	1.342675	-0.046468	0.172103
O15	O	0.781646	-0.307528	-0.432829
O16	O	1.281646	0.192472	0.067171
O17	O	0.923383	-0.572499	-0.478696
O18	O	1.423383	-0.072499	0.021304
O19	O	0.842797	-0.327252	-0.547087
O20	O	1.342797	0.172748	-0.047087
O21	O	0.781577	-0.432248	-0.308125
O22	O	1.281577	0.067752	0.191875
O23	O	0.658195	-0.458315	-0.458800
O24	O	1.158195	0.041685	0.041200
O25	O	0.706515	-0.618318	-0.743536
O26	O	1.206515	-0.118318	-0.243536
O27	O	0.625808	-0.592287	-0.592737
O28	O	1.125808	-0.092287	-0.092737
O29	O	0.800053	-0.504069	-0.723858
O30	O	1.300053	-0.004069	-0.223858
O31	O	0.799931	-0.723286	-0.504668
O32	O	1.299931	-0.223286	-0.004668
O33	O	0.706446	-0.743037	-0.618833
O34	O	1.206446	-0.243037	-0.118833
C35	C	0.748411	-0.766910	-0.567597
C36	C	1.248411	-0.266910	-0.067597
C37	C	0.733793	-0.870287	-0.585486
C38	C	1.233793	-0.370287	-0.085486
C39	C	0.619162	-0.525306	-0.525756
C40	C	1.119162	-0.025306	-0.025756
C41	C	0.549191	-0.525345	-0.525739
C42	C	1.049191	-0.025345	-0.025739
C43	C	0.887395	-1.120460	-0.398316
C44	C	1.387395	-0.620460	0.101684
C45	C	0.901130	-1.023331	-0.381504
C46	C	1.401130	-0.523331	0.118496
C47	C	0.859297	-0.985065	-0.432498
C48	C	1.359297	-0.485065	0.067502
C49	C	0.803727	-1.043938	-0.500307
C50	C	1.303727	-0.543938	-0.000307
C51	C	0.789988	-1.141075	-0.517116
C52	C	1.289988	-0.641075	-0.017116
C53	C	0.761890	-1.005681	-0.551298
C54	C	1.261890	-0.505681	-0.051298
C55	C	0.706320	-1.064553	-0.619108
C56	C	1.206320	-0.564553	-0.119108
C57	C	0.692584	-1.161681	-0.635914
C58	C	1.192584	-0.661681	-0.135914
C59	C	0.734417	-1.199947	-0.584919
C60	C	1.234417	-0.699947	-0.084919
C61	C	0.775629	-0.908543	-0.534489
C62	C	1.275629	-0.408543	-0.034489
C63	C	0.678222	-0.929159	-0.653290
C64	C	1.178222	-0.429159	-0.153290
C65	C	0.664487	-1.026288	-0.670102
C66	C	1.164487	-0.526288	-0.170102
C67	C	0.499478	-0.595168	-0.595405
C68	C	0.999478	-0.095168	-0.095405
C69	C	0.433733	-0.595152	-0.595443
C70	C	0.933733	-0.095152	-0.095443
C71	C	0.417704	-0.525321	-0.525800
C72	C	0.917704	-0.025321	-0.025800
C73	C	0.467426	-0.455486	-0.456128
C74	C	0.967426	0.044514	0.043872
C75	C	0.533170	-0.455498	-0.456098
C76	C	1.033170	0.044502	0.043902
N77	N	0.326989	-0.503981	-0.443215
N78	N	0.826989	-0.003981	0.056785
N79	N	0.264534	-0.503975	-0.443247
N80	N	0.764534	-0.003975	0.056753
C81	C	0.219624	-0.525279	-0.525888
C82	C	0.719624	-0.025279	-0.025888
N83	N	0.239524	-0.546607	-0.608501
N84	N	0.739524	-0.046607	-0.108501
N85	N	0.301984	-0.546617	-0.608468
N86	N	0.801984	-0.046617	-0.108468
C87	C	0.346418	-0.525300	-0.525825
C88	C	0.846418	-0.025300	-0.025825
C89	C	0.098621	-0.595088	-0.595600
C90	C	0.598621	-0.095088	-0.095600
C91	C	0.032876	-0.595066	-0.595639
C92	C	0.532876	-0.095066	-0.095639
C93	C	0.066571	-0.455404	-0.456317
C94	C	0.566571	0.044596	0.043683
C95	C	0.132315	-0.455422	-0.456286
C96	C	0.632315	0.044578	0.043714
C97	C	0.148336	-0.525269	-0.525927
C98	C	0.648336	-0.025269	-0.025927
C99	C	0.946887	-0.525246	-0.525954
C100	C	1.446887	-0.025246	-0.025954
C101	C	1.016851	-0.525233	-0.525996
C102	C	1.516851	-0.025233	-0.025996
C103	C	0.748375	-0.567187	-0.768378
C104	C	1.248375	-0.067187	-0.268378
C105	C	0.733745	-0.585047	-0.871728
C106	C	1.233745	-0.085047	-0.371728
C107	C	0.817147	-0.282702	-0.483968
C108	C	1.317147	0.217298	0.016032
C109	C	0.831824	-0.179331	-0.466119
C110	C	1.331824	0.320669	0.033881
C111	C	0.887311	-0.397465	-1.122072
C112	C	1.387311	0.102535	-0.622072
C113	C	0.901060	-0.380686	-1.024970
C114	C	1.401060	0.119314	-0.524970
C115	C	0.859232	-0.431774	-0.986655
C116	C	1.359232	0.068226	-0.486655
C117	C	0.803654	-0.499645	-1.045450
C118	C	1.303654	0.000355	-0.545450
C119	C	0.789906	-0.516431	-1.142562
C120	C	1.289906	-0.016431	-0.642562
C121	C	0.761827	-0.550740	-1.007145
C122	C	1.261827	-0.050740	-0.507145
C123	C	0.706249	-0.618611	-1.065941
C124	C	1.206249	-0.118611	-0.565941
C125	C	0.692503	-0.635393	-1.163043
C126	C	1.192503	-0.135393	-0.663043
C127	C	0.734331	-0.584305	-1.201359
C128	C	1.234331	-0.084305	-0.701359
C129	C	0.775575	-0.533955	-0.910033
C130	C	1.275575	-0.033955	-0.410033
C131	C	0.678170	-0.652921	-0.930524
C132	C	1.178170	-0.152921	-0.430524
C133	C	0.664421	-0.669699	-1.027625
C134	C	1.164421	-0.169699	-0.527625
C135	C	0.816947	-0.483461	-0.284262
C136	C	1.316947	0.016539	0.215738
C137	C	0.831736	-0.465339	-0.180868
C138	C	1.331736	0.034661	0.319132
H139	H	0.820874	-0.860617	-0.479278
H140	H	1.320874	-0.360617	0.020722
O141	O	0.829543	-0.468083	-0.852796
O142	O	1.329543	0.031917	-0.352796
C143	C	0.893864	-0.389441	-0.694113
C144	C	1.393864	0.110559	-0.194113
C145	C	0.832731	-0.464093	-0.758830
C146	C	1.332731	0.035907	-0.258830
H147	H	0.896454	-0.386176	-0.618126
H148	H	1.396454	0.113824	-0.118126
H149	H	0.939624	-0.409047	-0.715984
H150	H	1.439624	0.090953	-0.215984
H151	H	0.890746	-0.317777	-0.700319
H152	H	1.390746	0.182223	-0.200319
H153	H	0.835785	-0.535783	-0.752657
H154	H	1.335785	-0.035783	-0.252657
H155	H	0.786996	-0.444406	-0.736941
H156	H	1.286996	0.055594	-0.236941
O157	O	0.610393	-0.735637	-1.084606
O158	O	1.110393	-0.235637	-0.584606
C159	C	0.515253	-0.851908	-1.094697
C160	C	1.015253	-0.351908	-0.594697
C161	C	0.576407	-0.777247	-1.030058
C162	C	1.076407	-0.277247	-0.530058
H163	H	0.487765	-0.885585	-1.050624
H164	H	0.987765	-0.385585	-0.550624
H165	H	0.481923	-0.817111	-1.132750
H166	H	0.981923	-0.317111	-0.632750
H167	H	0.530826	-0.908351	-1.148592
H168	H	1.030826	-0.408351	-0.648592
H169	H	0.560894	-0.720782	-0.976110
H170	H	1.060894	-0.220782	-0.476110
H171	H	0.609722	-0.812112	-0.992074
H172	H	1.109722	-0.312112	-0.492074
H173	H	-0.007602	-0.651923	-0.652374
H174	H	0.492398	-0.151923	-0.152374
O175	O	0.955055	-0.314697	-0.967988
O176	O	1.455055	0.185303	-0.467988
C177	C	1.050237	-0.198511	-0.957925
C178	C	1.550237	0.301489	-0.457925
C179	C	0.989099	-0.273206	-1.022563
C180	C	1.489099	0.226794	-0.522563
H181	H	1.077787	-0.164959	-1.002025
H182	H	1.577787	0.335041	-0.502025
H183	H	1.034716	-0.141971	-0.904062
H184	H	1.534716	0.358029	-0.404062
H185	H	1.083497	-0.233359	-0.919833
H186	H	1.583497	0.266641	-0.419833
H187	H	0.955813	-0.238442	-1.060719
H188	H	1.455813	0.261558	-0.560719
H189	H	1.004668	-0.329739	-1.076368
H190	H	1.504668	0.170261	-0.576368
H191	H	0.393249	-0.652010	-0.652176
H192	H	0.893249	-0.152010	-0.152176
O193	O	0.051100	-0.387589	-0.388534
O194	O	0.551100	0.112411	0.111466
C195	C	0.059727	-0.314922	-0.222607
C196	C	0.559727	0.185078	0.277393
C197	C	0.077303	-0.391752	-0.299280
C198	C	0.577303	0.108248	0.200720
H199	H	0.080893	-0.318275	-0.150430
H200	H	0.580893	0.181725	0.349570
H201	H	0.081029	-0.242773	-0.226018
H202	H	0.581029	0.257227	0.273982
H203	H	0.004198	-0.326883	-0.234624
H204	H	0.504198	0.173117	0.265376
H205	H	0.132823	-0.379881	-0.287315
H206	H	0.632823	0.120119	0.212685
H207	H	0.055955	-0.463874	-0.295849
H208	H	0.555955	0.036126	0.204151
O209	O	0.180666	-0.387723	-0.388581
O210	O	0.680666	0.112277	0.111419
C211	C	0.274374	-0.353340	-0.260796
C212	C	0.774374	0.146660	0.239204
C213	C	0.219658	-0.430111	-0.337448
C214	C	0.719658	0.069889	0.162552
H215	H	0.305905	-0.387580	-0.219422
H216	H	0.805905	0.112420	0.280578
H217	H	0.306079	-0.312178	-0.295110
H218	H	0.806079	0.187822	0.204890
H219	H	0.251611	-0.303413	-0.211065
H220	H	0.751611	0.196587	0.288935
H221	H	0.242365	-0.480100	-0.387203
H222	H	0.742365	0.019900	0.112797
H223	H	0.187959	-0.471202	-0.303071
H224	H	0.687959	0.028798	0.196929
H225	H	0.946374	-0.975400	-0.326293
H226	H	1.446374	-0.475400	0.173707
H227	H	0.870430	-0.418109	-0.907589
H228	H	1.370430	0.081891	-0.407589
H229	H	0.921364	-0.355881	-1.153279
H230	H	1.421364	0.144119	-0.653279
H231	H	0.723140	-0.597962	-1.280426
H232	H	1.223140	-0.097962	-0.780426
H233	H	0.647252	-0.690665	-1.210914
H234	H	1.147252	-0.190665	-0.710914
H235	H	0.921447	-1.151624	-0.356798
H236	H	1.421447	-0.651624	0.143202
O237	O	0.451973	-0.387561	-0.388431
O238	O	0.951973	0.112439	0.111569
C239	C	0.492330	-0.249069	-0.250211
C240	C	0.992330	0.250931	0.249789
C241	C	0.509921	-0.325932	-0.326835
C242	C	1.009921	0.174068	0.173165
H243	H	0.539170	-0.199234	-0.200379
H244	H	1.039170	0.300766	0.299621
H245	H	0.462458	-0.207823	-0.284548
H246	H	0.962458	0.292177	0.215452
H247	H	0.462330	-0.283296	-0.208941
H248	H	0.962330	0.216704	0.291059
H249	H	0.539943	-0.291783	-0.368131
H250	H	1.039943	0.208217	0.131869
H251	H	0.539761	-0.367171	-0.292440
H252	H	1.039761	0.132829	0.207560
H253	H	0.644111	-0.694523	-0.899329
H254	H	1.144111	-0.194523	-0.399329
O255	O	0.872614	-0.890745	-0.416343
O256	O	1.372614	-0.390745	0.083657
C257	C	0.895876	-0.766702	-0.481368
C258	C	1.395876	-0.266702	0.018632
C259	C	0.880782	-0.873546	-0.499798
C260	C	1.380782	-0.373546	0.000202
H261	H	0.902498	-0.752762	-0.548824
H262	H	1.402498	-0.252762	-0.048824
H263	H	0.853593	-0.737031	-0.457495
H264	H	1.353593	-0.237031	0.042505
H265	H	0.942762	-0.731209	-0.424111
H266	H	1.442762	-0.231209	0.075889
H267	H	0.833916	-0.909119	-0.557070
H268	H	1.333916	-0.409119	-0.057070
H269	H	0.923102	-0.903147	-0.523620
H270	H	1.423102	-0.403147	-0.023620
O271	O	0.720959	-1.294302	-0.601255
O272	O	1.220959	-0.794302	-0.101255
C273	C	0.644313	-1.429657	-0.601364
C274	C	1.144313	-0.929657	-0.101364
C275	C	0.659462	-1.322798	-0.582847
C276	C	1.159462	-0.822798	-0.082847
H277	H	0.594599	-1.452725	-0.586470
H278	H	1.094599	-0.952725	-0.086470
H279	H	0.643370	-1.468466	-0.677963
H280	H	1.143370	-0.968466	-0.177963
H281	H	0.683784	-1.446878	-0.553301
H282	H	1.183784	-0.946878	-0.053301
H283	H	0.620008	-1.305490	-0.630852
H284	H	1.120008	-0.805490	-0.130852
H285	H	0.660429	-1.284046	-0.506226
H286	H	1.160429	-0.784046	-0.006226
O287	O	0.638589	-1.218742	-0.701839
O288	O	1.138589	-0.718742	-0.201839
C289	C	0.543402	-1.228929	-0.817856
C290	C	1.043402	-0.728929	-0.317856
C291	C	0.604537	-1.164206	-0.743240
C292	C	1.104537	-0.664206	-0.243240
H293	H	0.515847	-1.184861	-0.851336
H294	H	1.015847	-0.684861	-0.351336
H295	H	0.558929	-1.282737	-0.874443
H296	H	1.058929	-0.782737	-0.374443
H297	H	0.510147	-1.267106	-0.782975
H298	H	1.010147	-0.767106	-0.282975
H299	H	0.637819	-1.125966	-0.778038
H300	H	1.137819	-0.625966	-0.278038
H301	H	0.588964	-1.110457	-0.686661
H302	H	1.088964	-0.610457	-0.186661
O303	O	0.610561	-1.083462	-0.736092
O304	O	1.110561	-0.583462	-0.236092
C305	C	0.553320	-1.140463	-0.899332
C306	C	1.053320	-0.640463	-0.399332
C307	C	0.614430	-1.075689	-0.824699
C308	C	1.114430	-0.575689	-0.324699
H309	H	0.556421	-1.134185	-0.970984
H310	H	1.056421	-0.634185	-0.470984
H311	H	0.550680	-1.216481	-0.902665
H312	H	1.050680	-0.716481	-0.402665
H313	H	0.507590	-1.118623	-0.879578
H314	H	1.007590	-0.618623	-0.379578
H315	H	0.660193	-1.097444	-0.844398
H316	H	1.160193	-0.597444	-0.344398
H317	H	0.617011	-0.999687	-0.821380
H318	H	1.117011	-0.499687	-0.321380
H319	H	0.644157	-0.898004	-0.694812
H320	H	1.144157	-0.398004	-0.194812
H321	H	0.512517	-0.652042	-0.652113
H322	H	1.012517	-0.152042	-0.152113
O323	O	0.114221	-0.663004	-0.663137
O324	O	0.614221	-0.163004	-0.163137
C325	C	0.168875	-0.790697	-0.697102
C326	C	0.668875	-0.290697	-0.197102
C327	C	0.151244	-0.713837	-0.620523
C328	C	0.651244	-0.213837	-0.120523
H329	H	0.198822	-0.831804	-0.662676
H330	H	0.698822	-0.331804	-0.162676
H331	H	0.122067	-0.840659	-0.746902
H332	H	0.622067	-0.340659	-0.246902
H333	H	0.198826	-0.756477	-0.738425
H334	H	0.698826	-0.256477	-0.238425
H335	H	0.121310	-0.747975	-0.579131
H336	H	0.621310	-0.247975	-0.079131
H337	H	0.198077	-0.663883	-0.570787
H338	H	0.698077	-0.163883	-0.070787
H339	H	0.573648	-0.398638	-0.399367
H340	H	1.073648	0.101362	0.100633
