data_functionalizedCrystal
_audit_creation_method	'MofGen! by Chris Wilmer'
_symmetry_space_group_name_H-M	'P1'
_symmetry_Int_Tables_number	1
_symmetry_cell_setting	triclinic
loop_
_symmetry_equiv_pos_as_xyz
  x,y,z
_cell_length_a	11.169417
_cell_length_b	16.120444
_cell_length_c	11.169409
_cell_angle_alpha	92.861568
_cell_angle_beta	89.979436
_cell_angle_gamma	92.927304
loop_
_atom_site_label
_atom_site_type_symbol
_atom_site_fract_x
_atom_site_fract_y
_atom_site_fract_z
Zn1	Zn	1.810616	-0.331820	-0.702712
Zn2	Zn	2.143949	0.001513	-0.369378
Zn3	Zn	2.477283	0.334847	-0.036045
Zn4	Zn	1.800268	-0.471263	-0.512185
Zn5	Zn	2.133601	-0.137930	-0.178852
Zn6	Zn	2.466935	0.195403	0.154482
Zn7	Zn	1.609896	-0.331871	-0.502050
Zn8	Zn	1.943229	0.001463	-0.168716
Zn9	Zn	2.276562	0.334796	0.164617
Zn10	Zn	1.599680	-0.471196	-0.712825
Zn11	Zn	1.933013	-0.137862	-0.379492
Zn12	Zn	2.266346	0.195471	-0.046158
O13	O	1.705115	-0.401538	-0.607443
O14	O	2.038448	-0.068204	-0.274109
O15	O	2.371782	0.265129	0.059224
O16	O	1.977193	-0.350325	-0.677447
O17	O	2.310526	-0.016991	-0.344114
O18	O	2.643859	0.316342	-0.010780
O19	O	1.774960	-0.452822	-0.342894
O20	O	2.108293	-0.119489	-0.009561
O21	O	2.441626	0.213844	0.323772
O22	O	1.645128	-0.215199	-0.520194
O23	O	1.978461	0.118135	-0.186860
O24	O	2.311795	0.451468	0.146473
O25	O	1.969590	-0.452773	-0.537468
O26	O	2.302923	-0.119440	-0.204135
O27	O	2.636257	0.213894	0.129199
O28	O	1.792596	-0.215161	-0.667619
O29	O	2.125930	0.118172	-0.334286
O30	O	2.459263	0.451505	-0.000952
O31	O	1.635094	-0.350411	-0.335448
O32	O	1.968427	-0.017078	-0.002115
O33	O	2.301760	0.316256	0.331219
O34	O	1.440591	-0.350345	-0.530000
O35	O	1.773925	-0.017012	-0.196667
O36	O	2.107258	0.316321	0.136666
O37	O	1.627716	-0.452658	-0.879430
O38	O	1.961049	-0.119324	-0.546096
O39	O	2.294383	0.214009	-0.212763
O40	O	1.433086	-0.452707	-0.684856
O41	O	1.766419	-0.119374	-0.351523
O42	O	2.099752	0.213960	-0.018189
O43	O	1.782690	-0.350259	-0.871999
O44	O	2.116024	-0.016926	-0.538666
O45	O	2.449357	0.316408	-0.205333
O46	O	1.765053	-0.587920	-0.547275
O47	O	2.098387	-0.254587	-0.213941
O48	O	2.431720	0.078747	0.119392
O49	O	1.617682	-0.587870	-0.694684
O50	O	1.951015	-0.254537	-0.361351
O51	O	2.284349	0.078796	-0.028017
C52	C	1.393291	-0.401525	-0.607426
C53	C	1.726624	-0.068192	-0.274093
C54	C	2.059958	0.265142	0.059240
C55	C	1.259890	-0.401540	-0.607449
C56	C	1.593223	-0.068206	-0.274116
C57	C	1.926557	0.265127	0.059217
C58	C	1.689169	-0.618145	-0.623203
C59	C	2.022502	-0.284812	-0.289869
C60	C	2.355835	0.048521	0.043464
C61	C	1.682457	-0.710811	-0.629985
C62	C	2.015790	-0.377478	-0.296652
C63	C	2.349123	-0.044144	0.036682
C64	C	1.740228	-0.921757	-0.572517
C65	C	2.073561	-0.588424	-0.239184
C66	C	2.406894	-0.255090	0.094149
C67	C	1.670224	-0.880467	-0.642381
C68	C	2.003558	-0.547133	-0.309047
C69	C	2.336891	-0.213800	0.024286
C70	C	1.677033	-0.786061	-0.635482
C71	C	2.010366	-0.452728	-0.302148
C72	C	2.343699	-0.119395	0.031185
C73	C	1.733421	-1.016171	-0.579415
C74	C	2.066754	-0.682838	-0.246082
C75	C	2.400088	-0.349504	0.087252
C76	C	2.018156	-0.401551	-0.607460
C77	C	2.351490	-0.068217	-0.274127
C78	C	2.684823	0.265116	0.059207
C79	C	2.151556	-0.401556	-0.607467
C80	C	2.484889	-0.068223	-0.274134
C81	C	2.818222	0.265110	0.059199
C82	C	1.705218	-0.401445	-0.920479
C83	C	2.038551	-0.068112	-0.587145
C84	C	2.371885	0.265221	-0.253812
C85	C	1.705262	-0.401406	-1.053876
C86	C	2.038595	-0.068072	-0.720543
C87	C	2.371928	0.265261	-0.387209
C88	C	1.721156	-0.184084	-0.591648
C89	C	2.054489	0.149249	-0.258314
C90	C	2.387823	0.482583	0.075019
C91	C	1.727992	-0.091418	-0.584917
C92	C	2.061325	0.241915	-0.251583
C93	C	2.394658	0.575248	0.081750
C94	C	1.705086	-0.401569	-0.295620
C95	C	2.038419	-0.068236	0.037713
C96	C	2.371752	0.265097	0.371046
C97	C	1.705292	-0.401374	-0.162207
C98	C	2.038625	-0.068041	0.171127
C99	C	2.371958	0.265293	0.504460
H100	H	1.605179	-0.916018	-0.707373
H101	H	1.938513	-0.582685	-0.374040
H102	H	2.271846	-0.249351	-0.040706
O103	O	1.826383	-0.874678	-0.486425
O104	O	2.159717	-0.541345	-0.153091
O105	O	2.493050	-0.208011	0.180242
H106	H	1.919396	-0.891254	-0.508284
H107	H	2.252729	-0.557920	-0.174951
H108	H	2.586063	-0.224587	0.158383
