data_functionalizedCrystal
_audit_creation_method	'MofGen! by Chris Wilmer'
_symmetry_space_group_name_H-M	'P1'
_symmetry_Int_Tables_number	1
_symmetry_cell_setting	triclinic
loop_
_symmetry_equiv_pos_as_xyz
  x,y,z
_cell_length_a	18.215407
_cell_length_b	19.077068
_cell_length_c	18.215399
_cell_angle_alpha	92.268164
_cell_angle_beta	89.980167
_cell_angle_gamma	92.327501
loop_
_atom_site_label
_atom_site_type_symbol
_atom_site_fract_x
_atom_site_fract_y
_atom_site_fract_z
Zn1	Zn	1.113288	-0.280200	-0.427869
Zn2	Zn	1.613288	0.219800	0.072131
Zn3	Zn	1.108246	-0.397902	-0.309739
Zn4	Zn	1.608246	0.102098	0.190261
Zn5	Zn	0.990220	-0.280223	-0.304817
Zn6	Zn	1.490220	0.219777	0.195183
Zn7	Zn	0.985238	-0.397863	-0.432763
Zn8	Zn	1.485238	0.102137	0.067237
O9	O	1.049248	-0.339047	-0.368797
O10	O	1.549248	0.160953	0.131203
O11	O	1.215603	-0.295821	-0.412210
O12	O	1.715603	0.204179	0.087790
O13	O	1.092565	-0.382318	-0.206103
O14	O	1.592565	0.117682	0.293897
O15	O	1.010740	-0.181729	-0.317032
O16	O	1.510740	0.318271	0.182968
O17	O	1.211899	-0.382295	-0.325421
O18	O	1.711899	0.117705	0.174579
O19	O	1.101157	-0.181712	-0.407437
O20	O	1.601157	0.318288	0.092563
O21	O	1.005851	-0.295860	-0.202487
O22	O	1.505851	0.204140	0.297513
O23	O	0.886575	-0.295822	-0.321777
O24	O	1.386575	0.204178	0.178223
O25	O	1.002249	-0.382229	-0.535097
O26	O	1.502249	0.117771	-0.035097
O27	O	0.882915	-0.382251	-0.415778
O28	O	1.382915	0.117749	0.084222
O29	O	1.096327	-0.295783	-0.531501
O30	O	1.596327	0.204217	-0.031501
O31	O	1.087734	-0.496388	-0.330167
O32	O	1.587734	0.003612	0.169833
O33	O	0.997361	-0.496359	-0.420551
O34	O	1.497361	0.003641	0.079449
C35	C	0.858042	-0.339035	-0.368775
C36	C	1.358042	0.160965	0.131225
C37	C	0.776243	-0.339047	-0.368784
C38	C	1.276243	0.160953	0.131216
C39	C	0.586159	-0.384121	-0.417674
C40	C	1.086159	0.115879	0.082326
C41	C	0.509301	-0.384124	-0.417684
C42	C	1.009301	0.115876	0.082316
C43	C	0.513088	-0.293986	-0.319936
C44	C	1.013088	0.206014	0.180064
C45	C	0.589945	-0.293980	-0.319931
C46	C	1.089945	0.206020	0.180069
C47	C	0.626479	-0.339052	-0.368799
C48	C	1.126479	0.160948	0.131201
C49	C	0.472763	-0.339060	-0.368814
C50	C	0.972763	0.160940	0.131186
C51	C	0.389429	-0.339062	-0.368823
C52	C	0.889429	0.160938	0.131177
C53	C	0.709818	-0.339050	-0.368791
C54	C	1.209818	0.160950	0.131209
C55	C	1.041480	-0.521911	-0.376440
C56	C	1.541480	-0.021911	0.123560
C57	C	1.038224	-0.600141	-0.379735
C58	C	1.538224	-0.100141	0.120265
C59	C	1.083783	-0.636886	-0.334263
C60	C	1.583783	-0.136886	0.165737
C61	C	1.080725	-0.710391	-0.337366
C62	C	1.580725	-0.210391	0.162634
C63	C	1.032104	-0.747151	-0.385937
C64	C	1.532104	-0.247151	0.114063
C65	C	0.986542	-0.710401	-0.431414
C66	C	1.486542	-0.210401	0.068586
C67	C	0.989604	-0.636897	-0.428314
C68	C	1.489604	-0.136897	0.071686
C69	C	1.017899	-0.966985	-0.400254
C70	C	1.517899	-0.466985	0.099746
C71	C	1.014839	-1.040495	-0.403348
C72	C	1.514839	-0.540495	0.096652
C73	C	1.109023	-1.040479	-0.309301
C74	C	1.609023	-0.540479	0.190699
C75	C	1.112078	-0.966974	-0.306202
C76	C	1.612078	-0.466974	0.193798
C77	C	1.066520	-0.930231	-0.351682
C78	C	1.566520	-0.430231	0.148318
N79	N	1.028975	-0.822285	-0.389109
N80	N	1.528975	-0.322285	0.110891
N81	N	1.069652	-0.855098	-0.348514
N82	N	1.569652	-0.355098	0.151486
C83	C	1.241200	-0.339060	-0.368819
C84	C	1.741200	0.160940	0.131181
C85	C	1.322999	-0.339065	-0.368828
C86	C	1.822999	0.160935	0.131172
C87	C	1.049295	-0.338999	-0.560748
C88	C	1.549295	0.161001	-0.060748
C89	C	1.049315	-0.338978	-0.642546
C90	C	1.549315	0.161022	-0.142546
C91	C	1.057067	-0.155469	-0.361140
C92	C	1.557067	0.344531	0.138860
C93	C	1.060398	-0.077239	-0.357877
C94	C	1.560398	0.422761	0.142123
C95	C	1.098320	-0.293923	-0.828867
C96	C	1.598320	0.206077	-0.328867
C97	C	1.098329	-0.293903	-0.905725
C98	C	1.598329	0.206097	-0.405725
C99	C	1.000366	-0.383924	-0.909458
C100	C	1.500366	0.116076	-0.409458
C101	C	1.000354	-0.383940	-0.832601
C102	C	1.500354	0.116060	-0.332601
C103	C	1.049335	-0.338941	-0.792308
C104	C	1.549335	0.161059	-0.292308
C105	C	1.049357	-0.338904	-0.946023
C106	C	1.549357	0.161096	-0.446023
C107	C	1.049367	-0.338882	-1.029355
C108	C	1.549367	0.161118	-0.529355
C109	C	1.049324	-0.338962	-0.708970
C110	C	1.549324	0.161038	-0.208970
C111	C	1.049246	-0.339045	-0.177591
C112	C	1.549246	0.160955	0.322409
C113	C	1.049377	-0.338867	-0.095785
C114	C	1.549377	0.161133	0.404215
H115	H	0.622775	-0.257275	-0.280130
H116	H	1.122775	0.242725	0.219870
H117	H	0.952506	-0.606981	-0.465343
H118	H	1.452506	-0.106981	0.034657
H119	H	1.138201	-0.257280	-0.796062
H120	H	1.638201	0.242720	-0.296062
H121	H	1.138217	-0.257244	-0.935488
H122	H	1.638217	0.242756	-0.435488
H123	H	0.960459	-0.420598	-0.802834
H124	H	1.460459	0.079402	-0.302834
Br125	Br	0.635739	-0.445288	-0.483997
Br126	Br	1.135739	0.054712	0.016003
Br127	Br	0.454584	-0.445288	-0.484021
Br128	Br	0.954584	0.054712	0.015979
Br129	Br	0.933898	-0.444994	-0.964146
Br130	Br	1.433898	0.055006	-0.464146
H131	H	0.483333	-0.257291	-0.280148
H132	H	0.983333	0.242709	0.219852
H133	H	1.123373	-0.606961	-0.294708
H134	H	1.623373	-0.106961	0.205292
Br135	Br	1.142564	-0.760256	-0.275656
Br136	Br	1.642564	-0.260256	0.224344
H137	H	1.151670	-0.937045	-0.266652
H138	H	1.651670	-0.437045	0.233348
H139	H	0.975254	-1.070422	-0.442914
H140	H	1.475254	-0.570422	0.057086
Br141	Br	1.170853	-1.090348	-0.247586
Br142	Br	1.670853	-0.590348	0.252414
Br143	Br	0.956069	-0.917129	-0.461976
Br144	Br	1.456069	-0.417129	0.038024
Br145	Br	0.920561	-0.760289	-0.497340
Br146	Br	1.420561	-0.260289	0.002660
