data_functionalizedCrystal
_audit_creation_method	'MofGen! by Chris Wilmer'
_symmetry_space_group_name_H-M	'P1'
_symmetry_Int_Tables_number	1
_symmetry_cell_setting	triclinic
loop_
_symmetry_equiv_pos_as_xyz
  x,y,z
_cell_length_a	11.792241
_cell_length_b	11.792241
_cell_length_c	10.868271
_cell_angle_alpha	89.999850
_cell_angle_beta	89.996558
_cell_angle_gamma	84.193415
loop_
_atom_site_label
_atom_site_type_symbol
_atom_site_fract_x
_atom_site_fract_y
_atom_site_fract_z
O1	O	1.506908	0.155568	-0.102283
O2	O	1.840242	0.488902	0.231050
O3	O	2.173575	0.822235	0.564383
O4	O	1.176567	0.171601	-0.102290
O5	O	1.509901	0.504935	0.231044
O6	O	1.843234	0.838268	0.564377
O7	O	1.349754	-0.001586	-0.102294
O8	O	1.683088	0.331748	0.231040
O9	O	2.016421	0.665081	0.564373
O10	O	1.333721	0.328755	-0.102279
O11	O	1.667055	0.662089	0.231054
O12	O	2.000388	0.995422	0.564387
O13	O	1.349740	-0.001592	0.102351
O14	O	1.683073	0.331741	0.435684
O15	O	2.016407	0.665074	0.769018
O16	O	1.176553	0.171595	0.102355
O17	O	1.509886	0.504928	0.435688
O18	O	1.843220	0.838261	0.769022
O19	O	1.506894	0.155562	0.102361
O20	O	1.840227	0.488895	0.435695
O21	O	2.173561	0.822228	0.769028
Zn22	Zn	1.341721	0.163577	0.134850
Zn23	Zn	1.675055	0.496910	0.468183
Zn24	Zn	2.008388	0.830244	0.801517
Zn25	Zn	1.341740	0.163586	-0.134778
Zn26	Zn	1.675073	0.496919	0.198555
Zn27	Zn	2.008407	0.830253	0.531888
O28	O	1.333707	0.328749	0.102365
O29	O	1.667040	0.662082	0.435699
O30	O	2.000374	0.995415	0.769032
C31	C	1.134269	0.170591	0.000032
C32	C	1.467603	0.503924	0.333365
C33	C	1.800936	0.837258	0.666698
C34	C	1.008255	0.167576	0.000029
C35	C	1.341589	0.500910	0.333362
C36	C	1.674922	0.834243	0.666695
N37	N	1.341717	0.163570	0.318864
N38	N	1.675050	0.496904	0.652197
N39	N	2.008383	0.830237	0.985531
C40	C	1.348740	-0.043880	0.000024
C41	C	1.682073	0.289453	0.333357
C42	C	2.015407	0.622787	0.666691
C43	C	1.345726	-0.169894	0.000011
C44	C	1.679059	0.163440	0.333344
C45	C	2.012392	0.496773	0.666677
C46	C	1.549192	0.156572	0.000037
C47	C	1.882525	0.489905	0.333371
C48	C	2.215859	0.823239	0.666704
C49	C	1.675206	0.159587	0.000032
C50	C	2.008539	0.492920	0.333366
C51	C	2.341873	0.826253	0.666699
C52	C	1.905918	0.165130	0.000033
C53	C	2.239251	0.498463	0.333366
C54	C	2.572585	0.831796	0.666700
C55	C	1.777533	0.162050	0.000033
C56	C	2.110866	0.495383	0.333366
C57	C	2.444200	0.828716	0.666700
C58	C	1.334721	0.371043	0.000045
C59	C	1.668055	0.704376	0.333378
C60	C	2.001388	1.037710	0.666712
C61	C	1.337736	0.497057	0.000050
C62	C	1.671069	0.830390	0.333384
C63	C	2.004402	1.163723	0.666717
C64	C	1.343279	0.727769	0.000019
C65	C	1.676612	1.061102	0.333353
C66	C	2.009945	1.394436	0.666686
C67	C	1.340199	0.599384	0.000036
C68	C	1.673532	0.932717	0.333370
C69	C	2.006866	1.266050	0.666703
N70	N	1.341754	0.163584	-0.318792
N71	N	1.675087	0.496917	0.014541
N72	N	2.008420	0.830251	0.347874
C73	C	1.341734	0.163584	0.569870
C74	C	1.675068	0.496917	0.903203
C75	C	2.008401	0.830250	1.236537
C76	C	1.341721	0.163580	0.430193
C77	C	1.675054	0.496913	0.763526
C78	C	2.008387	0.830246	1.096859
