data_functionalizedCrystal
_audit_creation_method	'MofGen! by Chris Wilmer'
_symmetry_space_group_name_H-M	'P1'
_symmetry_Int_Tables_number	1
_symmetry_cell_setting	triclinic
loop_
_symmetry_equiv_pos_as_xyz
  x,y,z
_cell_length_a	8.140239
_cell_length_b	9.065215
_cell_length_c	9.065218
_cell_angle_alpha	85.015325
_cell_angle_beta	90.001305
_cell_angle_gamma	90.002779
loop_
_atom_site_label
_atom_site_type_symbol
_atom_site_fract_x
_atom_site_fract_y
_atom_site_fract_z
O1	O	-0.136579	-1.960402	-0.216334
O2	O	0.196754	-1.627069	0.116999
O3	O	0.530088	-1.293735	0.450332
O4	O	-0.136588	-1.531117	-0.234085
O5	O	0.196746	-1.197783	0.099248
O6	O	0.530079	-0.864450	0.432582
O7	O	-0.136580	-1.754633	-0.010567
O8	O	0.196754	-1.421299	0.322766
O9	O	0.530087	-1.087966	0.656099
O10	O	-0.136587	-1.736886	-0.439852
O11	O	0.196746	-1.403553	-0.106519
O12	O	0.530080	-1.070219	0.226814
O13	O	0.136647	-1.754617	-0.010566
O14	O	0.469981	-1.421283	0.322767
O15	O	0.803314	-1.087950	0.656100
O16	O	0.136639	-1.531101	-0.234084
O17	O	0.469973	-1.197767	0.099249
O18	O	0.803306	-0.864434	0.432582
O19	O	0.136648	-1.960386	-0.216334
O20	O	0.469981	-1.627053	0.117000
O21	O	0.803315	-1.293719	0.450333
Zn22	Zn	0.180024	-1.745741	-0.225209
Zn23	Zn	0.513358	-1.412407	0.108125
Zn24	Zn	0.846691	-1.079074	0.441458
Zn25	Zn	-0.179964	-1.745762	-0.225210
Zn26	Zn	0.153369	-1.412429	0.108124
Zn27	Zn	0.486703	-1.079095	0.441457
O28	O	0.136640	-1.736870	-0.439851
O29	O	0.469974	-1.403537	-0.106518
O30	O	0.803307	-1.070203	0.226815
C31	C	0.000025	-1.476122	-0.232380
C32	C	0.333358	-1.142789	0.100954
C33	C	0.666691	-0.809455	0.434287
C34	C	0.000021	-1.312279	-0.227282
C35	C	0.333355	-0.978946	0.106052
C36	C	0.666688	-0.645612	0.439385
N37	N	0.425707	-1.745737	-0.225207
N38	N	0.759040	-1.412404	0.108126
N39	N	1.092374	-1.079070	0.441459
N40	N	0.574353	-1.745764	-0.225207
N41	N	0.907687	-1.412431	0.108126
N42	N	1.241020	-1.079097	0.441460
C43	C	0.000031	-1.752919	0.044420
C44	C	0.333364	-1.419586	0.377753
C45	C	0.666698	-1.086252	0.711086
C46	C	0.000023	-1.747819	0.208263
C47	C	0.333356	-1.414486	0.541596
C48	C	0.666690	-1.081153	0.874929
C49	C	0.000031	-1.015381	-0.218039
C50	C	0.333364	-0.682047	0.115295
C51	C	0.666698	-0.348714	0.448628
C52	C	0.000021	-1.179224	-0.223136
C53	C	0.333354	-0.845890	0.110197
C54	C	0.666687	-0.512557	0.443530
C55	C	0.000026	-1.738584	-0.494838
C56	C	0.333359	-1.405250	-0.161505
C57	C	0.666692	-1.071917	0.171828
C58	C	0.000023	-1.743683	-0.658681
C59	C	0.333356	-1.410350	-0.325348
C60	C	0.666690	-1.077017	0.007985
