data_functionalizedCrystal
_audit_creation_method	'MofGen! by Chris Wilmer'
_symmetry_space_group_name_H-M	'P1'
_symmetry_Int_Tables_number	1
_symmetry_cell_setting	triclinic
loop_
_symmetry_equiv_pos_as_xyz
  x,y,z
_cell_length_a	14.519731
_cell_length_b	14.519731
_cell_length_c	12.376457
_cell_angle_alpha	78.684744
_cell_angle_beta	78.696257
_cell_angle_gamma	96.311147
loop_
_atom_site_label
_atom_site_type_symbol
_atom_site_fract_x
_atom_site_fract_y
_atom_site_fract_z
O1	O	-0.103339	1.241518	-0.093995
O2	O	-0.117555	0.973045	-0.093995
O3	O	0.023791	1.114391	-0.094004
O4	O	-0.244685	1.100172	-0.093987
O5	O	-0.011498	1.079067	0.094011
O6	O	-0.152844	0.937721	0.094019
O7	O	-0.138628	1.206194	0.094019
Zn8	Zn	-0.151338	1.066349	0.123870
Zn9	Zn	-0.104845	1.112890	-0.123847
O10	O	-0.279974	1.064848	0.094027
C11	C	-0.134533	0.921024	0.000011
C12	C	-0.132537	0.818643	0.000011
C13	C	-0.130914	0.735500	0.000006
C14	C	-0.128888	0.631191	0.000005
C15	C	-0.127279	0.548052	0.000005
C16	C	-0.125252	0.443737	0.000003
C17	C	-0.296689	1.083176	0.000022
C18	C	-0.399071	1.085171	0.000028
C19	C	-0.482214	1.086794	0.000023
C20	C	-0.586521	1.088822	0.000013
C21	C	-0.669659	1.090432	0.000003
C22	C	-0.773973	1.092460	-0.000005
C23	C	0.040507	1.096064	-0.000001
C24	C	0.142890	1.094070	-0.000014
C25	C	-0.121649	1.258216	0.000009
C26	C	-0.123644	1.360598	0.000003
N27	N	-0.183069	1.034593	0.292930
N28	N	-0.073107	1.144654	-0.292907
C29	C	0.000567	1.218370	0.647905
C30	C	0.022776	1.240591	0.529564
C31	C	-0.028683	1.189093	0.470399
C32	C	-0.102355	1.115371	0.529588
C33	C	-0.124570	1.093153	0.647941
C34	C	-0.153821	1.063876	0.470435
C35	C	-0.227492	0.990154	0.529624
C36	C	-0.249703	0.967939	0.647965
C37	C	-0.198244	1.019436	0.707129
C38	C	-0.131606	1.086094	0.352083
C39	C	-0.256743	0.960877	0.352119
C40	C	-0.278951	0.938656	0.470460
H41	H	-0.071622	1.146119	0.303902
H42	H	-0.216323	1.001342	0.803492
Br43	Br	-0.349699	0.867901	0.728296
H44	H	-0.298647	0.918944	0.303948
Br45	Br	-0.378930	0.838605	0.550798
Br46	Br	0.122750	1.340639	0.449237
H47	H	0.042454	1.260298	0.696084
Br48	Br	0.001457	1.219250	0.309791
