data_functionalizedCrystal
_audit_creation_method	'MofGen! by Chris Wilmer'
_symmetry_space_group_name_H-M	'P1'
_symmetry_Int_Tables_number	1
_symmetry_cell_setting	triclinic
loop_
_symmetry_equiv_pos_as_xyz
  x,y,z
_cell_length_a	15.944493
_cell_length_b	15.944551
_cell_length_c	7.681481
_cell_angle_alpha	84.256492
_cell_angle_beta	95.723158
_cell_angle_gamma	83.486891
loop_
_atom_site_label
_atom_site_type_symbol
_atom_site_fract_x
_atom_site_fract_y
_atom_site_fract_z
O1	O	1.106614	0.116053	-0.146410
O2	O	0.862057	0.129460	-0.146420
O3	O	0.991014	0.000479	-0.146399
O4	O	0.977656	0.245034	-0.146431
O5	O	1.006887	-0.015432	0.146461
O6	O	0.877929	0.113549	0.146441
O7	O	1.122486	0.100141	0.146450
Zn8	Zn	1.002728	0.104319	0.192943
Zn9	Zn	0.981815	0.125283	-0.192913
O10	O	0.993529	0.229122	0.146429
C11	C	0.838698	0.120957	0.000010
C12	C	0.745450	0.119314	0.000007
C13	C	0.509689	0.195235	-0.000005
C14	C	0.466957	0.146448	0.144404
C15	C	0.574729	0.116270	0.000010
C16	C	0.451313	0.162117	-0.144334
C17	C	0.409819	0.113335	0.000006
C18	C	0.533232	0.067498	0.144538
C19	C	0.517584	0.083185	-0.144329
C20	C	0.474887	0.034338	0.000115
C21	C	0.669729	0.117962	0.000014
C22	C	0.314822	0.111636	0.000015
C23	C	0.998396	-0.038770	0.000032
C24	C	0.996734	-0.132016	0.000032
C25	C	0.912826	-0.346854	0.000005
C26	C	0.959616	-0.415724	0.144404
C27	C	0.993726	-0.302740	0.000019
C28	C	0.943986	-0.400020	-0.144333
C29	C	0.990814	-0.467651	-0.000002
C30	C	1.040544	-0.370389	0.144537
C31	C	1.024896	-0.354672	-0.144330
C32	C	1.071746	-0.423527	0.000105
C33	C	0.995401	-0.207739	0.000032
C34	C	0.989146	-0.562652	-0.000003
C35	C	1.145845	0.108645	0.000017
C36	C	1.239093	0.110289	0.000008
C37	C	0.986147	0.268372	-0.000005
C38	C	0.987808	0.361618	-0.000018
N39	N	1.017007	0.090011	0.456280
N40	N	0.967543	0.139584	-0.456249
H41	H	0.525320	0.263248	0.000121
H42	H	0.917051	0.190183	0.468546
H43	H	1.052467	-0.327916	-0.266412
H44	H	0.444636	0.173164	0.266479
Br45	Br	0.592313	0.000882	0.348228
H46	H	0.845683	-0.313540	0.000147
Br47	Br	0.392051	0.228777	-0.347788
Br48	Br	0.875904	-0.422444	-0.347786
Br49	Br	0.554817	0.038708	-0.347808
Br50	Br	0.449108	-0.079122	0.000263
H51	H	0.932015	-0.442458	0.266480
Br52	Br	1.101182	0.005681	0.581629
Br53	Br	1.108572	-0.348157	0.348230
H54	H	1.138960	-0.456704	0.000189
