data_functionalizedCrystal
_audit_creation_method	'MofGen! by Chris Wilmer'
_symmetry_space_group_name_H-M	'P1'
_symmetry_Int_Tables_number	1
_symmetry_cell_setting	triclinic
loop_
_symmetry_equiv_pos_as_xyz
  x,y,z
_cell_length_a	17.038272
_cell_length_b	17.019294
_cell_length_c	9.616153
_cell_angle_alpha	86.118767
_cell_angle_beta	89.998651
_cell_angle_gamma	87.244363
loop_
_atom_site_label
_atom_site_type_symbol
_atom_site_fract_x
_atom_site_fract_y
_atom_site_fract_z
O1	O	1.037224	0.171283	-0.135980
O2	O	0.809596	0.168563	-0.135695
O3	O	0.929759	0.055517	-0.122129
O4	O	0.917060	0.284330	-0.149546
O5	O	0.929743	0.055519	0.109162
O6	O	0.809579	0.168565	0.095596
O7	O	1.037208	0.171285	0.095311
Zn8	Zn	0.923391	0.169925	0.132176
Zn9	Zn	0.923412	0.169923	-0.172560
O10	O	0.917044	0.284331	0.081746
C11	C	0.780461	0.166090	-0.019758
C12	C	0.693675	0.158710	-0.018890
C13	C	0.643503	0.226470	-0.027008
C14	C	0.561958	0.219531	-0.026157
C15	C	0.530587	0.144831	-0.017199
C16	C	0.580765	0.077066	-0.009076
C17	C	0.662308	0.084006	-0.009917
C18	C	0.284850	0.120313	-0.014224
C19	C	0.203300	0.113378	-0.013388
C20	C	0.184499	0.255844	-0.030467
C21	C	0.266044	0.262777	-0.031315
C22	C	0.316215	0.195012	-0.023185
C23	C	0.447235	0.137736	-0.016333
C24	C	0.399565	0.202108	-0.024041
C25	C	0.929269	0.026096	-0.002962
C26	C	0.927824	-0.061571	0.007532
C27	C	0.927156	-0.102753	-0.113613
C28	C	0.925794	-0.185126	-0.103748
C29	C	0.925105	-0.226314	0.027263
C30	C	0.925770	-0.185126	0.148418
C31	C	0.927128	-0.102755	0.138552
C32	C	0.921002	-0.475022	0.063360
C33	C	0.919647	-0.557399	0.073217
C34	C	0.919669	-0.557393	-0.178950
C35	C	0.921030	-0.475020	-0.188805
C36	C	0.921692	-0.433839	-0.067650
C37	C	0.923714	-0.310512	0.037350
C38	C	0.923077	-0.349642	-0.077738
C39	C	1.066342	0.173758	-0.020628
C40	C	1.153129	0.181138	-0.021506
C41	C	0.917534	0.313752	-0.037425
C42	C	0.918979	0.401419	-0.047928
N43	N	0.923382	0.169926	0.340151
N44	N	0.923428	0.169916	-0.380534
C45	C	0.858910	0.230172	0.553291
C46	C	0.859048	0.230420	0.392094
C47	C	1.004937	0.193378	0.395805
C48	C	1.004585	0.193811	0.556971
C49	C	0.907114	0.086066	0.570106
C50	C	0.905232	0.086495	0.408828
H51	H	0.703158	0.028828	-0.003307
Br52	Br	0.921883	-0.419142	0.227786
Br53	Br	0.985534	0.011221	0.642613
H54	H	0.925205	-0.218668	0.255091
Br55	Br	1.086918	0.123827	0.630363
Br56	Br	0.686069	0.327854	-0.039181
H57	H	0.425111	0.262928	-0.031327
Br58	Br	0.538191	-0.024315	0.003096
H59	H	0.927661	-0.069224	0.237202
Br60	Br	0.876350	0.333950	0.315378
H61	H	1.019668	0.254033	0.348150
Br62	Br	1.028569	0.296011	0.607388
Br63	Br	0.928100	-0.046863	-0.291424
H64	H	0.923156	-0.344057	0.144020
Br65	Br	1.086858	0.122558	0.340396
H66	H	0.923632	-0.316102	-0.184408
H67	H	0.421684	0.076915	-0.009000
H68	H	0.521111	0.274709	-0.032770
H69	H	0.925253	-0.218653	-0.202398
H70	H	0.291580	0.323606	-0.038626
Br71	Br	0.116406	0.347806	-0.041498
H72	H	0.869174	0.291926	0.586393
Br73	Br	0.921971	-0.419127	-0.366613
H74	H	0.798423	0.215639	0.354339
Br75	Br	0.757537	0.205795	0.620839
H76	H	0.919128	-0.590931	-0.277588
H77	H	0.177762	0.052545	-0.006094
H78	H	0.848945	0.064874	0.613372
H79	H	0.845240	0.068825	0.372734
Br80	Br	0.352929	0.028345	-0.003187
Br81	Br	0.978478	0.007550	0.351161
H82	H	0.919082	-0.590932	0.179908
