data_functionalizedCrystal
_audit_creation_method	'MofGen! by Chris Wilmer'
_symmetry_space_group_name_H-M	'P1'
_symmetry_Int_Tables_number	1
_symmetry_cell_setting	triclinic
loop_
_symmetry_equiv_pos_as_xyz
  x,y,z
_cell_length_a	19.805407
_cell_length_b	29.839131
_cell_length_c	19.805399
_cell_angle_alpha	89.969027
_cell_angle_beta	89.983114
_cell_angle_gamma	90.041420
loop_
_atom_site_label
_atom_site_type_symbol
_atom_site_fract_x
_atom_site_fract_y
_atom_site_fract_z
Zn1	Zn	1.034647	-0.178858	-0.382710
Zn2	Zn	1.034538	-0.253987	-0.269518
Zn3	Zn	0.921467	-0.178872	-0.269535
Zn4	Zn	0.921396	-0.253961	-0.382665
O5	O	0.978012	-0.216419	-0.326107
O6	O	1.129349	-0.188828	-0.367707
O7	O	1.019523	-0.244039	-0.174804
O8	O	0.936556	-0.116003	-0.284574
O9	O	1.129269	-0.244026	-0.284545
O10	O	1.019709	-0.115992	-0.367723
O11	O	0.936450	-0.188853	-0.174816
O12	O	0.826741	-0.188828	-0.284530
O13	O	0.936435	-0.243982	-0.477388
O14	O	0.826689	-0.243996	-0.367646
O15	O	1.019640	-0.188803	-0.477421
O16	O	1.019453	-0.316851	-0.284501
O17	O	0.936328	-0.316832	-0.367630
C18	C	0.802156	-0.216411	-0.326085
C19	C	0.726924	-0.216418	-0.326092
C20	C	0.691570	-0.245187	-0.369300
C21	C	0.620882	-0.245188	-0.369310
C22	C	0.585548	-0.216421	-0.326107
C23	C	0.620907	-0.187649	-0.282897
C24	C	0.691594	-0.187646	-0.282891
C25	C	0.335834	-0.187659	-0.282919
C26	C	0.265142	-0.187665	-0.282927
C27	C	0.265121	-0.245201	-0.369338
C28	C	0.335808	-0.245198	-0.369332
C29	C	0.371161	-0.216424	-0.326125
C30	C	0.447809	-0.216423	-0.326116
C31	C	0.508901	-0.216424	-0.326112
C32	C	0.977890	-0.333142	-0.326073
C33	C	0.977899	-0.383076	-0.326082
C34	C	1.021374	-0.692717	-0.282885
C35	C	1.021457	-0.880390	-0.282912
O36	O	1.058324	-0.904652	-0.246159
N37	N	0.978152	-0.903861	-0.326158
C38	C	0.934826	-0.880412	-0.369404
O39	O	0.898000	-0.904682	-0.406194
C40	C	0.934747	-0.692740	-0.369381
C41	C	0.978050	-0.669271	-0.326127
C42	C	1.064674	-0.669248	-0.239635
C43	C	1.064650	-0.622332	-0.239626
C44	C	1.021326	-0.598886	-0.282868
C45	C	0.978026	-0.622355	-0.326118
C46	C	0.891425	-0.669291	-0.412630
C47	C	0.891410	-0.622370	-0.412621
C48	C	0.934713	-0.598901	-0.369367
C49	C	0.934678	-0.551993	-0.369351
N50	N	0.977983	-0.528522	-0.326104
C51	C	1.021307	-0.551968	-0.282863
C52	C	0.934870	-0.978942	-0.369412
C53	C	0.934889	-1.025860	-0.369418
C54	C	1.021521	-1.025835	-0.282926
C55	C	1.021498	-0.978916	-0.282918
C56	C	0.978175	-0.955471	-0.326166
C57	C	1.021253	-0.453442	-0.282847
C58	C	1.021223	-0.406523	-0.282840
C59	C	0.934594	-0.406552	-0.369334
C60	C	0.934621	-0.453467	-0.369339
C61	C	0.977956	-0.476911	-0.326093
O62	O	0.897836	-0.527702	-0.406090
O63	O	1.058139	-0.527690	-0.246090
C64	C	1.021398	-0.739632	-0.282894
C65	C	0.978098	-0.763101	-0.326144
C66	C	0.934774	-0.739655	-0.369386
C67	C	0.978117	-0.810019	-0.326149
C68	C	1.021440	-0.833466	-0.282908
C69	C	1.064746	-0.809994	-0.239661
C70	C	1.064722	-0.763079	-0.239653
C71	C	0.891469	-0.763126	-0.412632
C72	C	0.891496	-0.810042	-0.412637
C73	C	0.934819	-0.833488	-0.369395
C74	C	1.154555	-0.216428	-0.326129
C75	C	1.229787	-0.216432	-0.326139
C76	C	0.978042	-0.216388	-0.502650
C77	C	0.978054	-0.216375	-0.577882
C78	C	0.978153	-0.099241	-0.326156
C79	C	0.978213	-0.049307	-0.326176
C80	C	0.934811	-0.187636	-0.613232
C81	C	0.934820	-0.187628	-0.683920
C82	C	0.978077	-0.216355	-0.719258
C83	C	1.021322	-0.245097	-0.683903
C84	C	1.021309	-0.245108	-0.613215
C85	C	1.021376	-0.245055	-0.968976
C86	C	1.021387	-0.245041	-1.039668
C87	C	0.934887	-0.187575	-1.039681
C88	C	0.934874	-0.187586	-0.968994
C89	C	0.978116	-0.216329	-0.933645
C90	C	0.978105	-0.216339	-0.856997
C91	C	0.978092	-0.216344	-0.795905
C92	C	0.978021	-0.216418	-0.150251
C93	C	0.978140	-0.216305	-0.075019
H94	H	0.720333	-0.268614	-0.404479
C95	C	1.068951	-0.276664	-0.930101
H96	H	1.094721	-0.293766	-0.961272
H97	H	1.043038	-0.296244	-0.902511
H98	H	1.098459	-0.259479	-0.902541
H99	H	0.592133	-0.164225	-0.247723
C100	C	0.374716	-0.156012	-0.235391
H101	H	0.421875	-0.160124	-0.241578
H102	H	0.363108	-0.162548	-0.189897
H103	H	0.363161	-0.125835	-0.245387
C104	C	1.068905	-0.276696	-0.722771
H105	H	1.062725	-0.272571	-0.769933
H106	H	1.058962	-0.306883	-0.711173
H107	H	1.114389	-0.270122	-0.711193
C108	C	0.374672	-0.276839	-0.416857
H109	H	0.343491	-0.293971	-0.442598
H110	H	0.402220	-0.296391	-0.390913
H111	H	0.402272	-0.259673	-0.446395
C112	C	0.887289	-0.155987	-0.930127
H113	H	0.861530	-0.138873	-0.961304
H114	H	0.913196	-0.136418	-0.902561
H115	H	0.857771	-0.173180	-0.902543
H116	H	1.099913	-0.603227	-0.204407
H117	H	0.236375	-0.164237	-0.247745
H118	H	0.899621	-1.044965	-0.404633
H119	H	0.720378	-0.164217	-0.247710
C120	C	1.112330	-0.695032	-0.192061
H121	H	1.138107	-0.674329	-0.166303
H122	H	1.141818	-0.713307	-0.217972
H123	H	1.086460	-0.713360	-0.162543
C124	C	1.068876	-0.276720	-0.574330
H125	H	1.094645	-0.293826	-0.605498
H126	H	1.042954	-0.296297	-0.546744
H127	H	1.098387	-0.259539	-0.546766
C128	C	0.226232	-0.276847	-0.416873
H129	H	0.179072	-0.272727	-0.410697
H130	H	0.237782	-0.307023	-0.406883
H131	H	0.237843	-0.270308	-0.462369
H132	H	0.899362	-0.472577	-0.404562
C133	C	0.581995	-0.276861	-0.416798
H134	H	0.613162	-0.294005	-0.442508
H135	H	0.554429	-0.259729	-0.446354
H136	H	0.554411	-0.296406	-0.390812
H137	H	1.056486	-0.387416	-0.247615
H138	H	0.899590	-0.959856	-0.404631
C139	C	0.887256	-0.156013	-0.722803
H140	H	0.861499	-0.138901	-0.691633
H141	H	0.857746	-0.173189	-0.750367
H142	H	0.913184	-0.136435	-0.750389
H143	H	0.856132	-0.603282	-0.447842
C144	C	1.069136	-0.953105	-0.235344
H145	H	1.094942	-0.973792	-0.209597
H146	H	1.043261	-0.934829	-0.205825
H147	H	1.098609	-0.934775	-0.261266
C148	C	1.068915	-0.479224	-0.235273
H149	H	1.094691	-0.458522	-0.209512
H150	H	1.098404	-0.497497	-0.261187
H151	H	1.043046	-0.497555	-0.205756
C152	C	0.887314	-0.155960	-1.078563
H153	H	0.861557	-0.138849	-1.047393
H154	H	0.857804	-0.173137	-1.106127
H155	H	0.913239	-0.136382	-1.106150
H156	H	0.899318	-0.387454	-0.404539
H157	H	0.856159	-0.688391	-0.447849
C158	C	1.069175	-1.051632	-0.235359
H159	H	1.062982	-1.082935	-0.241563
H160	H	1.059299	-1.043970	-0.189871
H161	H	1.114646	-1.043912	-0.245312
C162	C	1.112400	-0.835791	-0.192096
H163	H	1.106210	-0.867094	-0.198304
H164	H	1.102523	-0.828131	-0.146607
H165	H	1.157871	-0.828069	-0.202048
H166	H	1.099983	-0.743974	-0.204431
C167	C	0.843860	-0.835853	-0.460221
H168	H	0.818062	-0.815165	-0.485975
H169	H	0.814391	-0.854190	-0.434314
H170	H	0.869750	-0.854121	-0.489743
C171	C	0.843804	-0.737342	-0.460195
H172	H	0.818016	-0.758043	-0.485944
H173	H	0.869658	-0.719006	-0.489712
H174	H	0.814317	-0.719074	-0.434265
H175	H	0.899590	-0.164240	-0.584465
H176	H	1.056614	-0.268437	-1.068438
