data_functionalizedCrystal
_audit_creation_method	'MofGen! by Chris Wilmer'
_symmetry_space_group_name_H-M	'P1'
_symmetry_Int_Tables_number	1
_symmetry_cell_setting	triclinic
loop_
_symmetry_equiv_pos_as_xyz
  x,y,z
_cell_length_a	19.805407
_cell_length_b	16.120484
_cell_length_c	19.805398
_cell_angle_alpha	92.869693
_cell_angle_beta	89.986879
_cell_angle_gamma	92.925608
loop_
_atom_site_label
_atom_site_type_symbol
_atom_site_fract_x
_atom_site_fract_y
_atom_site_fract_z
Zn1	Zn	1.021031	-0.331919	-0.396377
Zn2	Zn	1.015220	-0.471340	-0.288925
Zn3	Zn	0.907857	-0.331944	-0.283202
Zn4	Zn	0.902073	-0.471293	-0.402070
O5	O	0.961545	-0.401624	-0.342643
O6	O	1.114976	-0.350422	-0.382135
O7	O	1.000967	-0.452879	-0.193451
O8	O	0.927723	-0.215275	-0.293438
O9	O	1.110707	-0.452854	-0.303191
O10	O	1.010871	-0.215256	-0.376586
O11	O	0.922088	-0.350466	-0.189246
O12	O	0.812374	-0.350420	-0.298958
O13	O	0.917864	-0.452774	-0.496030
O14	O	0.808124	-0.452799	-0.386289
O15	O	1.005262	-0.350377	-0.491847
O16	O	0.995358	-0.587999	-0.308711
O17	O	0.912229	-0.587965	-0.391838
C18	C	0.785690	-0.401608	-0.342621
C19	C	0.710457	-0.401621	-0.342628
C20	C	0.952554	-0.618232	-0.351529
C21	C	0.948769	-0.710898	-0.355352
C22	C	0.672915	-0.455010	-0.388035
C23	C	0.602226	-0.455011	-0.388044
C24	C	0.569081	-0.401628	-0.342644
C25	C	0.606629	-0.348233	-0.297235
C26	C	0.677317	-0.348228	-0.297229
C27	C	0.321555	-0.348251	-0.297258
C28	C	0.250863	-0.348262	-0.297266
C29	C	0.246465	-0.455035	-0.388073
C30	C	0.317152	-0.455030	-0.388068
C31	C	0.354694	-0.401632	-0.342661
C32	C	0.431342	-0.401630	-0.342652
C33	C	0.492434	-0.401633	-0.342649
C34	C	0.941863	-0.880560	-0.362347
C35	C	0.981349	-0.921847	-0.322951
C36	C	0.977506	-1.016253	-0.326843
C37	C	0.945704	-0.786146	-0.358456
C38	C	1.138087	-0.401640	-0.342666
C39	C	1.213319	-0.401648	-0.342676
C40	C	0.961566	-0.401567	-0.519184
C41	C	0.961574	-0.401543	-0.594415
C42	C	0.970590	-0.184170	-0.333739
C43	C	0.974445	-0.091503	-0.329944
C44	C	1.002759	-0.454737	-1.058388
C45	C	1.002739	-0.454760	-0.987700
C46	C	0.961662	-0.401449	-0.950173
C47	C	0.920597	-0.348119	-0.983337
C48	C	0.920614	-0.348101	-1.054024
C49	C	0.920529	-0.348190	-0.698267
C50	C	0.920517	-0.348210	-0.627576
C51	C	1.002654	-0.454849	-0.631943
C52	C	1.002671	-0.454831	-0.702630
C53	C	0.961604	-0.401504	-0.735788
C54	C	0.961624	-0.401481	-0.812435
C55	C	0.961645	-0.401467	-0.873527
C56	C	0.961566	-0.401620	-0.166787
C57	C	0.961698	-0.401409	-0.091547
H58	H	0.699896	-0.498484	-0.425004
H59	H	0.707884	-0.304749	-0.260257
Br60	Br	0.561649	-0.275774	-0.235624
Br61	Br	0.864889	-0.275721	-1.099027
H62	H	1.018039	-0.886293	-0.286299
H63	H	0.344135	-0.498503	-0.425036
H64	H	0.905174	-0.916112	-0.398995
Br65	Br	1.058515	-0.527084	-1.109310
Br66	Br	0.195511	-0.527506	-0.449696
Br67	Br	1.058466	-0.527138	-0.942700
H68	H	1.036122	-0.498239	-0.733181
H69	H	1.036091	-0.498273	-0.604937
H70	H	0.887065	-0.304796	-0.597023
Br71	Br	0.864858	-0.275756	-0.932408
Br72	Br	0.551278	-0.527469	-0.449672
Br73	Br	0.205881	-0.275808	-0.235646
H74	H	0.887088	-0.304769	-0.725256
H75	H	0.352113	-0.304778	-0.260280
