data_functionalizedCrystal
_audit_creation_method	'MofGen! by Chris Wilmer'
_symmetry_space_group_name_H-M	'P1'
_symmetry_Int_Tables_number	1
_symmetry_cell_setting	triclinic
loop_
_symmetry_equiv_pos_as_xyz
  x,y,z
_cell_length_a	6.817900
_cell_length_b	11.102289
_cell_length_c	9.514088
_cell_angle_alpha	88.634869
_cell_angle_beta	118.843545
_cell_angle_gamma	108.605707
loop_
_atom_site_label
_atom_site_type_symbol
_atom_site_fract_x
_atom_site_fract_y
_atom_site_fract_z
V1	V	-4.243923	-0.178092	-0.500743
O2	O	-4.200435	0.006240	-0.491211
O3	O	-4.219794	-0.350897	-0.497318
O4	O	-4.278445	-0.176370	-0.719134
O5	O	-4.141379	-0.169496	-0.267859
V6	V	-4.713661	-0.155924	-0.472888
O7	O	-4.535420	-0.226720	-0.561844
O8	O	-4.872362	-0.107296	-0.411786
O9	O	-4.514583	0.016881	-0.476313
O10	O	-4.874545	-0.340255	-0.482420
O11	O	-4.933602	-0.164520	-0.705772
O12	O	-4.455932	-0.157646	-0.254497
C13	C	-4.068017	-0.392991	-0.489418
C14	C	-4.130128	-0.534268	-0.488074
C15	C	-4.142830	-0.170363	-0.772365
C16	C	-4.252499	-0.170099	-0.950901
C17	C	-4.345434	-0.607149	-0.495454
C18	C	-4.403792	-0.739895	-0.494204
C19	C	-4.031512	-0.726865	-0.478188
C20	C	-3.973165	-0.594123	-0.479449
C21	C	-4.560363	-0.614672	-0.504693
C22	C	-4.618720	-0.747418	-0.503444
C23	C	-4.329702	0.058969	-0.484208
C24	C	-4.246833	0.200244	-0.485563
C25	C	-4.254888	-0.163657	-0.201257
C26	C	-4.124455	-0.163915	-0.022720
H27	H	-3.797860	-0.534790	-0.473458
H28	H	-4.641022	-0.771894	-0.393738
O29	O	-4.483528	-0.176403	-1.040468
C30	C	-4.634666	-0.291013	-1.026328
H31	H	-4.541388	-0.364705	-0.990553
H32	H	-4.676950	-0.270121	-0.929252
C33	C	-4.983213	-0.254373	-1.234281
C34	C	-4.868655	-0.344887	-1.190356
H35	H	-5.127554	-0.287604	-1.335458
H36	H	-4.881391	-0.177156	-1.243804
H37	H	-5.018427	-0.236971	-1.153372
H38	H	-4.833416	-0.362276	-1.271254
H39	H	-4.970478	-0.422109	-1.180850
O40	O	-3.878928	-0.785033	-0.469514
C41	C	-3.807473	-0.843589	-0.328593
H42	H	-3.829734	-0.794796	-0.235846
H43	H	-3.922985	-0.949982	-0.361388
C44	C	-3.515971	-0.889673	-0.369553
C45	C	-3.543293	-0.829737	-0.255635
H46	H	-3.353016	-0.881135	-0.324551
H47	H	-3.564116	-0.850228	-0.464498
H48	H	-3.612246	-0.978329	-0.396873
H49	H	-3.447042	-0.741081	-0.228332
H50	H	-3.495125	-0.869168	-0.160683
O51	O	-4.730947	-0.592513	-0.644000
C52	C	-4.954419	-0.644262	-0.652078
H53	H	-4.951414	-0.723400	-0.573290
H54	H	-4.991996	-0.565054	-0.606177
C55	C	-5.155516	-0.603686	-0.926106
C56	C	-5.151832	-0.700893	-0.829348
H57	H	-5.277294	-0.638614	-1.035455
H58	H	-5.004959	-0.568817	-0.920663
H59	H	-5.186823	-0.537687	-0.887836
H60	H	-5.120497	-0.766881	-0.867606
H61	H	-5.302390	-0.735774	-0.834802
O62	O	-4.524549	-0.550349	-0.369680
C63	C	-4.466763	-0.417740	-0.378985
H64	H	-4.391291	-0.393956	-0.464308
H65	H	-4.634637	-0.391866	-0.427301
C66	C	-4.371513	-0.369178	-0.103829
C67	C	-4.278799	-0.339964	-0.208613
H68	H	-4.255577	-0.321200	0.001264
H69	H	-4.410453	-0.458519	-0.097561
H70	H	-4.511408	-0.347616	-0.144112
H71	H	-4.138925	-0.361541	-0.168340
H72	H	-4.239830	-0.250624	-0.214871
O73	O	-4.813671	-0.817235	-0.645223
C74	C	-4.993734	-0.893608	-0.614124
H75	H	-4.909098	-0.909349	-0.481898
H76	H	-5.125643	-0.842710	-0.638266
C77	C	-5.230518	-1.005194	-0.888555
C78	C	-5.126564	-1.024536	-0.726157
H79	H	-5.312462	-1.085954	-0.957667
H80	H	-5.109211	-0.953737	-0.909511
H81	H	-5.340426	-0.962775	-0.908651
H82	H	-5.016637	-1.066939	-0.706059
H83	H	-5.247855	-1.076003	-0.705201
O84	O	-3.893470	-0.157680	-0.933264
C85	C	-3.742268	-0.043044	-0.947304
H86	H	-3.848836	-0.007755	-1.064203
H87	H	-3.666197	0.033419	-0.838791
C88	C	-3.405022	-0.112123	-0.807738
C89	C	-3.535906	-0.068787	-0.951322
H90	H	-3.277720	-0.127999	-0.810209
H91	H	-3.506885	-0.189354	-0.798273
H92	H	-3.341651	-0.048397	-0.717326
H93	H	-3.599298	-0.132519	-1.041730
H94	H	-3.434047	0.008433	-0.960803
