data_functionalizedCrystal
_audit_creation_method	'MofGen! by Chris Wilmer'
_symmetry_space_group_name_H-M	'P1'
_symmetry_Int_Tables_number	1
_symmetry_cell_setting	triclinic
loop_
_symmetry_equiv_pos_as_xyz
  x,y,z
_cell_length_a	19.077105
_cell_length_b	13.032318
_cell_length_c	19.076919
_cell_angle_alpha	84.789057
_cell_angle_beta	89.923776
_cell_angle_gamma	85.373553
loop_
_atom_site_label
_atom_site_type_symbol
_atom_site_fract_x
_atom_site_fract_y
_atom_site_fract_z
Zn1	Zn	1.017230	0.500545	0.395940
Zn2	Zn	1.008229	0.666902	0.263651
Zn3	Zn	0.905584	0.486685	0.274965
Zn4	Zn	0.886102	0.666278	0.376459
O5	O	0.954286	0.580103	0.327754
O6	O	1.113870	0.528674	0.381810
O7	O	0.999000	0.637457	0.167313
O8	O	0.932313	0.343741	0.303901
O9	O	1.107258	0.650896	0.284618
O10	O	1.014339	0.353924	0.392781
O11	O	0.923586	0.505051	0.175626
O12	O	0.805165	0.504446	0.285011
O13	O	0.899110	0.649833	0.476883
O14	O	0.790852	0.636393	0.359578
O15	O	0.995449	0.528069	0.491195
O16	O	0.980109	0.811601	0.265728
O17	O	0.890383	0.811143	0.348607
C18	C	0.772641	0.568849	0.321409
C19	C	0.694929	0.564060	0.318708
C20	C	0.650981	0.630604	0.356184
C21	C	0.577964	0.626091	0.353651
C22	C	0.548896	0.555039	0.313639
C23	C	0.592849	0.488488	0.276162
C24	C	0.665865	0.492997	0.278699
C25	C	0.331319	0.534173	0.301900
C26	C	0.258297	0.529672	0.299364
C27	C	0.243417	0.667274	0.376855
C28	C	0.316435	0.671781	0.379385
C29	C	0.360383	0.605226	0.341911
N30	N	0.474260	0.550427	0.311047
N31	N	0.435017	0.609834	0.344507
C32	C	0.932174	0.848915	0.303842
C33	C	0.922777	0.963919	0.293638
C34	C	0.959143	1.020147	0.333105
C35	C	0.949431	1.139010	0.322560
C36	C	1.136641	0.591401	0.334125
C37	C	1.214350	0.596216	0.336840
C38	C	0.946110	0.590428	0.510117
C39	C	0.942626	0.594827	0.587829
C40	C	0.976461	1.310241	0.351781
C41	C	0.985802	1.195236	0.362033
C42	C	0.962477	0.569746	0.146109
C43	C	0.966120	0.565063	0.068428
C44	C	0.991145	0.533502	0.631791
C45	C	0.987863	0.537631	0.704810
C46	C	0.936065	0.603093	0.733865
C47	C	0.887541	0.664421	0.689898
C48	C	0.890820	0.660285	0.616880
C49	C	0.920876	0.622255	0.951443
C50	C	0.917601	0.626388	1.024466
C51	C	1.017923	0.499597	1.039373
C52	C	1.021200	0.495471	0.966354
C53	C	0.972674	0.556795	0.922393
N54	N	0.932710	0.607318	0.808502
N55	N	0.976026	0.552564	0.847758
H56	H	0.701648	0.438804	0.248187
H57	H	0.845363	0.717718	0.713560
C58	C	1.010902	0.966317	0.389314
H59	H	1.032451	1.017007	0.412715
H60	H	1.046010	0.924493	0.367389
H61	H	0.986168	0.924253	0.422529
C62	C	0.682953	0.708767	0.400192
H63	H	0.732733	0.701932	0.396330
H64	H	0.670128	0.695662	0.448107
H65	H	0.665729	0.776937	0.383276
H66	H	0.542184	0.680279	0.384167
C67	C	0.837451	0.727742	0.568519
H68	H	0.846818	0.715896	0.520873
H69	H	0.841419	0.798570	0.574653
H70	H	0.791186	0.710357	0.580192
C71	C	0.348406	0.749932	0.423404
H72	H	0.311774	0.788911	0.445366
H73	H	0.374385	0.795191	0.393595
H74	H	0.378776	0.713900	0.458417
H75	H	1.024126	1.155383	0.403635
H76	H	0.875418	0.679698	1.048119
C77	C	0.195076	0.740468	0.418079
H78	H	0.147427	0.727603	0.410844
H79	H	0.201786	0.810116	0.402008
H80	H	0.206184	0.728822	0.466828
C81	C	0.897653	1.192836	0.266363
H82	H	0.876093	1.142145	0.242972
H83	H	0.922366	1.234916	0.233145
H84	H	0.862547	1.234643	0.288309
C85	C	0.871002	1.017749	0.237444
H86	H	0.849441	0.967058	0.214053
H87	H	0.895714	1.059829	0.204226
H88	H	0.835895	1.059556	0.259390
H89	H	1.063382	0.442168	0.942703
C90	C	0.867487	0.689687	0.903097
H91	H	0.836169	0.729263	0.930861
H92	H	0.841568	0.646586	0.877083
H93	H	0.891782	0.734824	0.871525
H94	H	0.234634	0.471801	0.266787
H95	H	1.033327	0.480199	0.608140
H96	H	1.027374	0.487696	0.740601
C97	C	1.071292	0.432138	1.087731
H98	H	1.061919	0.443968	1.135379
H99	H	1.117558	0.449509	1.076061
H100	H	1.067314	0.361308	1.081594
C101	C	0.379655	0.460973	0.260679
H102	H	0.427305	0.473820	0.267924
H103	H	0.368550	0.472604	0.211932
H104	H	0.372939	0.391324	0.276760
C105	C	0.560876	0.410336	0.232147
H106	H	0.511095	0.417188	0.235996
H107	H	0.578094	0.342164	0.249050
H108	H	0.573705	0.423457	0.184230
