data_functionalizedCrystal
_audit_creation_method	'MofGen! by Chris Wilmer'
_symmetry_space_group_name_H-M	'P1'
_symmetry_Int_Tables_number	1
_symmetry_cell_setting	triclinic
loop_
_symmetry_equiv_pos_as_xyz
  x,y,z
_cell_length_a	17.077404
_cell_length_b	11.169416
_cell_length_c	17.077396
_cell_angle_alpha	90.023157
_cell_angle_beta	90.019501
_cell_angle_gamma	90.010374
loop_
_atom_site_label
_atom_site_type_symbol
_atom_site_fract_x
_atom_site_fract_y
_atom_site_fract_z
Zn1	Zn	1.200124	-0.477800	0.443872
Zn2	Zn	1.200060	-0.678512	0.312618
Zn3	Zn	1.068856	-0.477842	0.312620
Zn4	Zn	1.068853	-0.678440	0.443842
O5	O	1.134473	-0.578149	0.378238
O6	O	1.309963	-0.504437	0.426473
O7	O	1.182630	-0.651940	0.202771
O8	O	1.086297	-0.309887	0.330044
O9	O	1.309916	-0.651899	0.330041
O10	O	1.182739	-0.309856	0.426474
O11	O	1.086235	-0.504509	0.202773
O12	O	0.959009	-0.504440	0.330015
O13	O	1.086292	-0.651778	0.553693
O14	O	0.959007	-0.651818	0.426423
O15	O	1.182736	-0.504368	0.553715
O16	O	1.182628	-0.846452	0.330012
O17	O	1.086230	-0.846400	0.426421
C18	C	0.930526	-0.578127	0.378216
C19	C	0.843276	-0.578146	0.378225
C20	C	0.802305	-0.655002	0.428345
C21	C	0.720325	-0.655005	0.428357
C22	C	0.679316	-0.578157	0.378246
C23	C	0.720293	-0.501292	0.328125
C24	C	0.802272	-0.501285	0.328117
C25	C	0.549423	-0.501316	0.328143
C26	C	0.467438	-0.501325	0.328150
C27	C	0.467476	-0.655036	0.428384
C28	C	0.549455	-0.655029	0.428376
C29	C	0.590425	-0.578165	0.378253
C30	C	1.134443	-0.889973	0.378230
C31	C	1.134502	-1.023373	0.378253
C32	C	1.339218	-0.578171	0.378260
C33	C	1.426467	-0.578181	0.378269
C34	C	1.134521	-0.578060	0.582982
C35	C	1.134541	-0.578022	0.670232
C36	C	1.134525	-0.265106	0.378263
C37	C	1.134547	-0.131706	0.378273
C38	C	1.134471	-0.578150	0.174290
C39	C	1.134603	-0.577850	0.087041
C40	C	1.184761	-0.501260	0.711235
C41	C	1.184771	-0.501220	0.793215
C42	C	1.134563	-0.577949	0.834191
C43	C	1.084337	-0.654715	0.793183
C44	C	1.084325	-0.654748	0.711204
C45	C	1.084369	-0.654643	0.964053
C46	C	1.084383	-0.654612	1.046038
C47	C	1.184815	-0.501115	1.046065
C48	C	1.184802	-0.501148	0.964086
C49	C	1.134577	-0.577916	0.923083
H50	H	0.582779	-0.438715	0.287335
H51	H	1.043498	-0.717090	1.079398
H52	H	0.686897	-0.438716	0.287327
C53	C	0.847344	-0.416742	0.272986
C54	C	0.836084	-0.280318	0.279546
C55	C	0.881156	-0.195767	0.224419
C56	C	0.937490	-0.247639	0.162730
C57	C	0.948753	-0.384070	0.156167
C58	C	0.903680	-0.468621	0.211295
H59	H	0.794380	-0.241913	0.325214
H60	H	0.872818	-0.094772	0.229277
H61	H	0.970855	-0.185049	0.121921
H62	H	0.990456	-0.422475	0.110499
H63	H	0.912018	-0.569616	0.206436
C64	C	0.847411	-0.739537	0.483469
C65	C	0.903745	-0.833696	0.449349
C66	C	0.948849	-0.918230	0.504477
C67	C	0.937617	-0.908605	0.593726
C68	C	0.881280	-0.814442	0.627850
C69	C	0.836177	-0.729908	0.572722
H70	H	0.912062	-0.840825	0.383278
H71	H	0.990553	-0.987936	0.479216
H72	H	0.971006	-0.971183	0.634535
H73	H	0.872964	-0.807314	0.693921
H74	H	0.794472	-0.660203	0.597984
C75	C	1.240058	-0.416661	1.091166
C76	C	1.233677	-0.280228	1.079901
C77	C	1.288919	-0.195782	1.125008
C78	C	1.350542	-0.247770	1.181380
C79	C	1.356926	-0.384210	1.192648
C80	C	1.301683	-0.468656	1.147541
H81	H	1.188058	-0.241737	1.038169
H82	H	1.284194	-0.094779	1.116667
H83	H	1.391436	-0.185258	1.214771
H84	H	1.402545	-0.422701	1.234380
H85	H	1.306409	-0.569659	1.155882
H86	H	1.225649	-0.438781	0.677878
C87	C	0.594564	-0.739562	0.483498
C88	C	0.583282	-0.875990	0.476947
C89	C	0.628390	-0.960522	0.532072
C90	C	0.684782	-0.908627	0.593748
C91	C	0.696067	-0.772192	0.600303
C92	C	0.650958	-0.687660	0.545178
H93	H	0.541535	-0.914412	0.431288
H94	H	0.620036	-1.061520	0.527220
H95	H	0.718174	-0.971202	0.634555
H96	H	0.737813	-0.733770	0.645962
H97	H	0.659312	-0.586662	0.550030
H98	H	1.225667	-0.438715	0.826596
H99	H	1.043458	-0.717137	0.930671
C100	C	1.240032	-0.416746	0.919012
C101	C	1.233651	-0.280302	0.930290
C102	C	1.288880	-0.195897	0.885217
C103	C	1.350490	-0.247935	0.828865
C104	C	1.356873	-0.384386	0.817584
C105	C	1.301644	-0.468792	0.862657
H106	H	1.188042	-0.241773	0.972008
H107	H	1.284154	-0.094886	0.893569
H108	H	1.391373	-0.185453	0.795499
H109	H	1.402482	-0.422915	0.775867
H110	H	1.306370	-0.569802	0.854306
C111	C	0.422412	-0.739587	0.483521
C112	C	0.332238	-0.739600	0.483537
C113	C	0.287171	-0.824154	0.538667
C114	C	0.332277	-0.908696	0.593781
C115	C	0.422456	-0.908687	0.593767
C116	C	0.467523	-0.824133	0.538637
H117	H	0.298843	-0.677013	0.442736
H118	H	0.220414	-0.824160	0.538676
H119	H	0.298915	-0.971289	0.634591
H120	H	0.455850	-0.971273	0.634567
H121	H	0.534280	-0.824127	0.538627
H122	H	1.043455	-0.717186	0.826552
H123	H	0.434051	-0.438734	0.287355
H124	H	1.043422	-0.717244	0.677820
H125	H	0.686970	-0.717590	0.469169
