data_functionalizedCrystal
_audit_creation_method	'MofGen! by Chris Wilmer'
_symmetry_space_group_name_H-M	'P1'
_symmetry_Int_Tables_number	1
_symmetry_cell_setting	triclinic
loop_
_symmetry_equiv_pos_as_xyz
  x,y,z
_cell_length_a	10.540539
_cell_length_b	14.853567
_cell_length_c	9.616153
_cell_angle_alpha	89.994896
_cell_angle_beta	89.997695
_cell_angle_gamma	95.919789
loop_
_atom_site_label
_atom_site_type_symbol
_atom_site_fract_x
_atom_site_fract_y
_atom_site_fract_z
O1	O	1.684490	-0.127044	-0.115567
O2	O	1.314946	-0.139014	-0.115583
O3	O	1.509589	-0.001854	-0.115579
O4	O	1.489847	-0.264204	-0.115571
O5	O	1.509570	-0.001866	0.115712
O6	O	1.314927	-0.139026	0.115708
O7	O	1.684472	-0.127055	0.115724
Zn8	Zn	1.499696	-0.133042	0.152439
Zn9	Zn	1.499721	-0.133027	-0.152298
O10	O	1.489828	-0.264216	0.115720
C11	C	1.267643	-0.138122	0.000060
C12	C	1.126725	-0.135437	0.000054
C13	C	1.508685	0.031734	0.000063
C14	C	1.506005	0.131832	0.000050
N15	N	1.499689	-0.133052	0.360413
C16	C	0.944430	-0.032519	0.000591
C17	C	1.091018	-0.035242	0.000055
C18	C	1.064532	-0.183648	-0.132018
C19	C	0.918025	-0.180228	-0.132115
C20	C	0.917493	-0.182280	0.130907
C21	C	1.064465	-0.183203	0.132638
C22	C	1.731774	-0.127947	0.000078
C23	C	1.872693	-0.130633	0.000075
C24	C	1.490732	-0.297803	0.000075
C25	C	1.493413	-0.397902	0.000078
C26	C	1.379051	0.545071	0.000072
C27	C	1.610292	0.565068	0.000081
C28	C	1.612812	0.471021	0.000073
C29	C	1.498450	0.413994	0.000066
C30	C	1.381568	0.451014	0.000068
C31	C	1.729693	0.433993	0.000086
C32	C	1.732218	0.339940	0.000080
C33	C	1.617854	0.282911	0.000063
C34	C	1.500967	0.319937	0.000062
C35	C	1.386605	0.262910	0.000056
C36	C	1.269717	0.299934	0.000045
C37	C	1.267204	0.393985	0.000051
C38	C	1.620367	0.188860	0.000057
C39	C	1.389122	0.168853	0.000052
C40	C	1.395521	-0.206413	0.419453
C41	C	1.395169	-0.206205	0.580620
C42	C	1.471168	-0.038662	0.581194
C43	C	1.470402	-0.039106	0.419976
C44	C	1.632729	-0.153207	0.419805
C45	C	1.631858	-0.155323	0.581034
N46	N	1.499720	-0.133027	0.639728
H47	H	1.134042	0.002693	0.094730
H48	H	1.295993	0.122427	0.000040
H49	H	1.710245	-0.099724	0.381613
H50	H	1.296446	-0.193193	0.619210
C51	C	1.250480	0.585787	0.000053
H52	H	1.182735	0.538351	0.000037
H53	H	1.244675	0.622060	0.080703
H54	H	1.244703	0.622061	-0.080620
H55	H	1.105807	-0.147983	0.230345
C56	C	1.669906	-0.244275	0.364910
H57	H	1.750466	-0.255142	0.401994
H58	H	1.607392	-0.291543	0.392564
H59	H	1.674807	-0.242318	0.266293
H60	H	1.827395	0.309804	0.000086
C61	C	1.569010	0.036946	0.367201
H62	H	1.609352	0.067981	0.444295
H63	H	1.631256	0.011564	0.312301
H64	H	1.527237	0.078227	0.312470
C65	C	1.122562	-0.138399	-0.264812
H66	H	1.084314	-0.168056	-0.344182
H67	H	1.107340	-0.076474	-0.266001
H68	H	1.211839	-0.142766	-0.266183
H69	H	0.869470	-0.254650	0.131801
C70	C	0.880443	-0.132077	-0.265477
H71	H	0.790751	-0.129571	-0.266716
H72	H	0.922481	-0.072363	-0.267538
H73	H	0.904898	-0.164605	-0.344462
C74	C	1.748926	0.148136	0.000072
H75	H	1.816675	0.195569	0.000075
H76	H	1.754703	0.111852	0.080725
H77	H	1.754727	0.111872	-0.080598
C78	C	1.418052	-0.300909	0.634103
H79	H	1.417868	-0.300908	0.732898
H80	H	1.352254	-0.344128	0.601046
H81	H	1.498166	-0.316114	0.601370
C82	C	0.906386	0.020950	0.128539
H83	H	0.846404	-0.016078	0.182789
H84	H	0.980003	0.038598	0.182918
H85	H	0.869249	0.073313	0.098842
H86	H	1.545049	0.017302	0.619475
C87	C	0.852147	-0.277566	-0.140247
H88	H	0.914958	-0.319022	-0.143487
H89	H	0.799835	-0.289680	-0.060608
H90	H	0.801022	-0.284049	-0.221699
C91	C	1.661154	-0.249102	0.632731
H92	H	1.593151	-0.274566	0.689853
H93	H	1.670343	-0.287578	0.555268
H94	H	1.738037	-0.243010	0.685003
C95	C	0.904218	0.020740	-0.126642
H96	H	0.843904	-0.016558	-0.180078
H97	H	0.866917	0.072873	-0.096267
H98	H	0.977031	0.038748	-0.182093
H99	H	1.086076	-0.257228	-0.136930
H100	H	1.133192	0.002970	-0.094786
H101	H	1.172040	0.424139	0.000044
C102	C	0.875352	-0.138486	0.266148
H103	H	0.830039	-0.088287	0.244082
H104	H	0.821649	-0.181646	0.317715
H105	H	0.948379	-0.118485	0.320068
H106	H	1.412180	-0.276757	0.380703
C107	C	1.262886	-0.189097	0.364765
H108	H	1.200513	-0.233722	0.400926
H109	H	1.243859	-0.130803	0.393536
H110	H	1.262458	-0.192099	0.266081
H111	H	1.373389	-0.021532	0.382393
H112	H	1.375282	-0.020678	0.621600
H113	H	1.176604	0.253490	0.000049
C114	C	1.096099	-0.281886	0.143420
H115	H	1.147912	-0.295310	0.066855
H116	H	1.140603	-0.289808	0.227715
H117	H	1.019286	-0.321428	0.142308
H118	H	1.712992	-0.105442	0.621268
H119	H	1.703400	0.611505	0.000098
C120	C	1.855478	0.496721	0.000103
H121	H	1.837235	0.558037	0.000090
H122	H	1.903387	0.485413	0.080765
H123	H	1.903408	0.485424	-0.080558
