data_functionalizedCrystal
_audit_creation_method	'MofGen! by Chris Wilmer'
_symmetry_space_group_name_H-M	'P1'
_symmetry_Int_Tables_number	1
_symmetry_cell_setting	triclinic
loop_
_symmetry_equiv_pos_as_xyz
  x,y,z
_cell_length_a	14.044220
_cell_length_b	16.109302
_cell_length_c	12.503572
_cell_angle_alpha	86.480786
_cell_angle_beta	86.154684
_cell_angle_gamma	91.674671
loop_
_atom_site_label
_atom_site_type_symbol
_atom_site_fract_x
_atom_site_fract_y
_atom_site_fract_z
O1	O	-0.116351	1.116586	-0.089367
O2	O	0.383649	1.616586	0.410633
O3	O	-0.131513	0.875652	-0.089359
O4	O	0.368487	1.375652	0.410641
O5	O	0.014051	0.992502	-0.089358
O6	O	0.514051	1.492502	0.410642
O7	O	-0.261915	0.999736	-0.089368
O8	O	0.238085	1.499736	0.410632
O9	O	0.003086	0.983716	0.089284
O10	O	0.503086	1.483716	0.589284
O11	O	-0.142479	0.866865	0.089283
O12	O	0.357521	1.366865	0.589283
O13	O	-0.127317	1.107800	0.089275
O14	O	0.372683	1.607800	0.589275
Cu15	Cu	-0.135899	0.986530	0.105590
Cu16	Cu	0.364101	1.486530	0.605590
Cu17	Cu	-0.122931	0.996921	-0.105674
Cu18	Cu	0.377069	1.496921	0.394326
O19	O	-0.272881	0.990949	0.089274
O20	O	0.227119	1.490949	0.589274
C21	C	-0.136382	0.840238	-0.000037
C22	C	0.363618	1.340238	0.499963
C23	C	-0.134540	0.747806	-0.000033
C24	C	0.365460	1.247806	0.499967
C25	C	-0.136259	0.530359	0.097334
C26	C	0.363741	1.030359	0.597334
C27	C	-0.134518	0.443510	0.097330
C28	C	0.365482	0.943510	0.597330
C29	C	-0.122568	0.453100	-0.097435
C30	C	0.377432	0.953100	0.402565
C31	C	-0.124302	0.539948	-0.097430
C32	C	0.375698	1.039948	0.402570
C33	C	-0.131152	0.578575	-0.000043
C34	C	0.368848	1.078575	0.499957
C35	C	-0.127677	0.404877	-0.000051
C36	C	0.372323	0.904877	0.499949
C37	C	-0.125790	0.310711	-0.000056
C38	C	0.374210	0.810711	0.499944
C39	C	-0.133038	0.672747	-0.000037
C40	C	0.366962	1.172747	0.499963
C41	C	-0.302712	0.998509	-0.000048
C42	C	0.197288	1.498509	0.499952
C43	C	-0.407934	1.007953	-0.000053
C44	C	0.092066	1.507953	0.499947
C45	C	-0.600590	1.025218	-0.000048
C46	C	-0.100590	1.525218	0.499952
C47	C	-0.658244	0.958238	-0.000045
C48	C	-0.158244	1.458238	0.499955
C49	C	-0.765445	0.967845	-0.000043
C50	C	-0.265445	1.467845	0.499957
C51	C	-0.493380	1.015612	-0.000051
C52	C	0.006620	1.515612	0.499949
C53	C	0.043882	0.984943	-0.000038
C54	C	0.543882	1.484943	0.499962
C55	C	0.149105	0.975500	-0.000041
C56	C	0.649105	1.475500	0.499959
C57	C	-0.122448	1.143214	-0.000050
C58	C	0.377552	1.643214	0.499950
C59	C	-0.124289	1.235647	-0.000060
C60	C	0.375711	1.735647	0.499940
N61	N	-0.145019	0.979228	0.254182
N62	N	0.354981	1.479228	0.754182
N63	N	-0.113803	1.004230	-0.254267
N64	N	0.386197	1.504230	0.245733
C65	C	-0.158444	0.968486	0.473298
C66	C	0.341556	1.468486	0.973298
C67	C	-0.100382	1.014969	0.526625
C68	C	0.399618	1.514969	1.026625
C69	C	-0.107851	1.008992	0.648548
C70	C	0.392149	1.508992	1.148548
C71	C	-0.150975	0.974462	0.351363
C72	C	0.349025	1.474462	0.851363
H73	H	-0.138676	0.404255	0.176624
H74	H	0.361324	0.904255	0.676624
H75	H	-0.631740	1.089770	-0.000047
H76	H	-0.131740	1.589770	0.499953
C77	C	-0.025660	1.074806	0.464602
C78	C	0.474340	1.574806	0.964602
N79	N	0.030613	1.119878	0.417881
N80	N	0.530613	1.619878	0.917881
C81	C	-0.233169	0.908663	0.535320
C82	C	0.266831	1.408663	1.035320
N83	N	-0.289453	0.863605	0.582048
N84	N	0.210547	1.363605	1.082048
C85	C	-0.143783	0.572846	0.204463
C86	C	0.356217	1.072846	0.704463
N87	N	-0.149446	0.604844	0.285156
N88	N	0.350554	1.104844	0.785156
C89	C	-0.115040	0.410602	-0.204556
C90	C	0.384960	0.910602	0.295444
N91	N	-0.109374	0.378593	-0.285241
N92	N	0.390626	0.878593	0.214759
H93	H	-0.120140	0.579207	-0.176731
H94	H	0.379860	1.079207	0.323269
C95	C	-0.616163	0.871022	-0.000034
C96	C	-0.116163	1.371022	0.499966
N97	N	-0.584463	0.805334	-0.000020
N98	N	-0.084463	1.305334	0.499980
