data_functionalizedCrystal
_audit_creation_method	'MofGen! by Chris Wilmer'
_symmetry_space_group_name_H-M	'P1'
_symmetry_Int_Tables_number	1
_symmetry_cell_setting	triclinic
loop_
_symmetry_equiv_pos_as_xyz
  x,y,z
_cell_length_a	19.288864
_cell_length_b	11.295483
_cell_length_c	19.288865
_cell_angle_alpha	94.075585
_cell_angle_beta	96.863755
_cell_angle_gamma	94.104860
loop_
_atom_site_label
_atom_site_type_symbol
_atom_site_fract_x
_atom_site_fract_y
_atom_site_fract_z
O1	O	0.926060	0.099422	-0.081937
O2	O	0.723796	0.099342	-0.093629
O3	O	0.830772	0.099360	0.013346
O4	O	0.819085	0.099403	-0.188912
O5	O	0.821376	-0.098692	0.003965
O6	O	0.714400	-0.098710	-0.103011
O7	O	0.916665	-0.098631	-0.091318
Cu8	Cu	0.814674	-0.116754	-0.098021
Cu9	Cu	0.825786	0.117466	-0.086926
O10	O	0.809689	-0.098649	-0.198294
C11	C	0.693221	0.000305	-0.097944
C12	C	0.616116	0.000274	-0.096817
C13	C	0.571421	0.000306	-0.159583
C14	C	0.498975	0.000319	-0.158522
C15	C	0.471227	0.000324	-0.094689
C16	C	0.515932	0.000285	-0.031915
C17	C	0.588376	0.000260	-0.032979
C18	C	0.366259	0.069740	-0.041222
C19	C	0.293816	0.069772	-0.040161
C20	C	0.247785	0.000395	-0.091406
C21	C	0.274206	-0.068999	-0.143724
C22	C	0.346650	-0.069024	-0.144788
C23	C	0.392675	0.000350	-0.093529
C24	C	0.124535	0.000439	-0.153026
C25	C	0.052087	0.000445	-0.151963
C26	C	0.069046	0.000423	-0.025354
C27	C	0.141492	0.000405	-0.026420
C28	C	0.169232	0.000419	-0.090258
N29	N	0.806864	-0.281492	-0.105824
C30	C	0.889825	-0.530767	-0.022909
C31	C	0.883927	-0.655432	-0.028811
C32	C	0.789169	-0.655488	-0.123525
C33	C	0.795066	-0.530824	-0.117623
C34	C	0.845397	-0.468467	-0.067314
C35	C	0.851297	-0.343801	-0.061417
C36	C	0.756536	-0.343859	-0.156127
C37	C	0.750638	-0.468524	-0.162029
C38	C	0.947240	0.000409	-0.087003
C39	C	1.024345	0.000448	-0.088130
C40	C	0.825697	0.000331	0.034532
C41	C	0.824568	0.000320	0.111635
N42	N	0.833602	0.282203	-0.079118
C43	C	0.814763	0.000383	-0.219479
C44	C	0.815893	0.000402	-0.296582
C45	C	0.887337	0.000339	0.156332
C46	C	0.886277	0.000357	0.228780
C47	C	0.822443	0.000333	0.256527
C48	C	0.759667	0.000320	0.211820
C49	C	0.760729	0.000314	0.139374
C50	C	0.768972	-0.069061	0.361527
C51	C	0.767912	-0.069062	0.433971
C52	C	0.819165	0.000358	0.479973
C53	C	0.871489	0.069763	0.453523
C54	C	0.872551	0.069756	0.381077
C55	C	0.821285	0.000340	0.335081
C56	C	0.880789	0.000398	0.603228
C57	C	0.879727	0.000424	0.675677
C58	C	0.753115	0.000376	0.658714
C59	C	0.754179	0.000362	0.586267
C60	C	0.818018	0.000368	0.558528
H61	H	0.236729	-0.125493	-0.185453
O62	O	0.713689	-0.143949	0.311916
H63	H	0.723213	-0.132289	0.257097
O64	O	0.928972	0.144627	0.352544
H65	H	0.964431	0.192913	0.396697
O66	O	0.947434	0.000449	0.723887
H67	H	0.935973	0.000468	0.778925
H68	H	0.403732	0.126242	0.000510
H69	H	0.920104	-0.706153	0.007350
O70	O	0.189703	0.000385	0.041282
H71	H	0.219258	-0.080356	0.040003
H72	H	0.272310	0.126281	0.002437
H73	H	0.707693	0.000303	0.234416
H74	H	0.748187	-0.706275	-0.164481
H75	H	0.720361	-0.293121	-0.192287
H76	H	0.701140	0.000362	0.681305
H77	H	0.046459	0.000501	0.026623
H78	H	0.939319	0.000347	0.133752
O79	O	0.154457	0.000437	-0.221879
H80	H	0.212342	0.000432	-0.212074
H81	H	0.015696	0.000464	-0.203077
H82	H	0.493336	0.000305	0.020059
O83	O	0.636590	0.000231	0.034722
H84	H	0.605129	0.000240	0.079289
H85	H	0.709658	-0.519309	-0.202988
H86	H	0.930810	-0.479996	0.018050
H87	H	0.892280	-0.293031	-0.020454
O88	O	0.953978	0.000361	0.277003
H89	H	0.998546	0.000355	0.245542
O90	O	0.693025	0.000273	0.091157
H91	H	0.648457	0.000250	0.122618
O92	O	0.926773	0.144654	0.503127
H93	H	0.917240	0.133016	0.557947
O94	O	0.949640	0.000429	0.573301
H95	H	0.993112	0.000468	0.616558
H96	H	0.703065	0.000340	0.549873
O97	O	0.711484	-0.143922	0.462499
H98	H	0.659366	-0.115367	0.442762
O99	O	0.601341	0.000286	-0.228435
H100	H	0.558085	0.000293	-0.271903
H101	H	0.368159	-0.125530	-0.187385
O102	O	0.450755	0.000366	-0.226221
H103	H	0.482216	0.000380	-0.270789
