data_functionalizedCrystal
_audit_creation_method	'MofGen! by Chris Wilmer'
_symmetry_space_group_name_H-M	'P1'
_symmetry_Int_Tables_number	1
_symmetry_cell_setting	triclinic
loop_
_symmetry_equiv_pos_as_xyz
  x,y,z
_cell_length_a	6.817900
_cell_length_b	11.168129
_cell_length_c	11.168144
_cell_angle_alpha	92.020086
_cell_angle_beta	108.508840
_cell_angle_gamma	108.508637
loop_
_atom_site_label
_atom_site_type_symbol
_atom_site_fract_x
_atom_site_fract_y
_atom_site_fract_z
V1	V	-4.109884	-0.174723	-0.393710
O2	O	-4.069468	0.008378	-0.386204
O3	O	-4.086173	-0.346428	-0.391028
O4	O	-4.086175	-0.172043	-0.565416
O5	O	-4.069465	-0.167214	-0.210610
V6	V	-4.587114	-0.152821	-0.371808
O7	O	-4.384948	-0.222766	-0.441753
O8	O	-4.762247	-0.104777	-0.323765
O9	O	-4.387618	0.018885	-0.374490
O10	O	-4.744927	-0.335921	-0.379314
O11	O	-4.744929	-0.160329	-0.554909
O12	O	-4.387616	-0.155500	-0.200103
C13	C	-3.936381	-0.388286	-0.384820
C14	C	-3.998445	-0.528657	-0.383772
C15	C	-3.936382	-0.165839	-0.607267
C16	C	-3.998444	-0.164784	-0.747637
C17	C	-3.969302	-0.574098	-0.273411
C18	C	-4.033447	-0.719179	-0.272326
C19	C	-4.082929	-0.274207	-0.827365
C20	C	-4.147075	-0.273120	-0.972445
C21	C	-4.200753	0.060736	-0.380695
C22	C	-4.117928	0.201106	-0.381751
C23	C	-4.200751	-0.161709	-0.158245
C24	C	-4.117926	-0.162757	-0.017873
H25	H	-3.896874	-0.505594	-0.179732
H26	H	-4.045474	-0.069072	-0.949382
N27	N	-4.000606	-0.771032	-0.147171
H28	H	-3.897082	-0.820611	-0.137374
H29	H	-4.147417	-0.829273	-0.146086
H30	H	-4.142768	-0.759759	-0.476241
N31	N	-4.094427	-0.619397	-0.507863
H32	H	-3.996149	-0.670551	-0.508255
H33	H	-4.105080	-0.569061	-0.581598
H34	H	-3.973615	-0.070299	-0.786787
N35	N	-4.115867	-0.399374	-0.775526
H36	H	-4.065380	-0.382409	-0.679233
H37	H	-4.027037	-0.445447	-0.802022
H38	H	-4.219499	-0.366799	-1.040943
