data_functionalizedCrystal
_audit_creation_method	'MofGen! by Chris Wilmer'
_symmetry_space_group_name_H-M	'P1'
_symmetry_Int_Tables_number	1
_symmetry_cell_setting	triclinic
loop_
_symmetry_equiv_pos_as_xyz
  x,y,z
_cell_length_a	10.540539
_cell_length_b	10.540514
_cell_length_c	13.930277
_cell_angle_alpha	89.998632
_cell_angle_beta	89.994842
_cell_angle_gamma	84.520326
loop_
_atom_site_label
_atom_site_type_symbol
_atom_site_fract_x
_atom_site_fract_y
_atom_site_fract_z
O1	O	1.685876	0.178902	-0.079778
O2	O	1.316462	0.195758	-0.079789
O3	O	1.509614	0.002621	-0.079785
O4	O	1.492724	0.372038	-0.079783
O5	O	1.509586	0.002617	0.079877
O6	O	1.316435	0.195753	0.079872
O7	O	1.685849	0.178897	0.079884
Zn8	Zn	1.501138	0.187324	0.105228
Zn9	Zn	1.501173	0.187330	-0.105134
O10	O	1.492697	0.372034	0.079879
C11	C	1.508340	-0.044685	0.000044
C12	C	1.504571	-0.185634	0.000036
C13	C	1.269145	0.194491	0.000040
C14	C	1.128197	0.190709	0.000035
C15	C	1.642711	-0.256340	0.000043
C16	C	1.638837	-0.402953	0.000412
C17	C	1.429429	-0.377972	0.091039
C18	C	1.434282	-0.231433	0.091109
C19	C	1.432269	-0.231030	-0.090463
C20	C	1.430936	-0.378008	-0.091652
C21	C	0.944784	0.045791	0.000407
C22	C	1.091402	0.049624	0.000038
C23	C	1.066534	0.258608	-0.091135
C24	C	0.919990	0.253793	-0.091202
C25	C	0.919471	0.256658	0.090364
C26	C	1.066452	0.257957	0.091559
C27	C	1.733166	0.180163	0.000052
C28	C	1.874113	0.183945	0.000050
C29	C	1.493970	0.419339	0.000048
C30	C	1.497740	0.560289	0.000049
N31	N	1.501122	0.187320	0.248794
N32	N	1.501198	0.187325	-0.248700
C33	C	1.415642	0.272817	0.701061
C34	C	1.586739	0.101834	0.701035
C35	C	1.586724	0.101830	0.600539
C36	C	1.501168	0.187322	0.550300
C37	C	1.415627	0.272818	0.600556
C38	C	1.672273	0.016343	0.550275
C39	C	1.672262	0.016337	0.449773
C40	C	1.586698	0.101824	0.399532
C41	C	1.501153	0.187323	0.449795
C42	C	1.415596	0.272815	0.399555
C43	C	1.330044	0.358309	0.449816
C44	C	1.330063	0.358306	0.550315
C45	C	1.586679	0.101828	0.299033
C46	C	1.415581	0.272816	0.299050
H47	H	1.692566	-0.445617	-0.064798
C48	C	0.855171	0.390865	-0.096812
N49	N	0.806356	0.494106	-0.101048
H50	H	1.345906	0.342430	0.258152
C51	C	0.855652	0.394324	0.091200
N52	N	0.807577	0.498009	0.091823
H53	H	1.656403	0.032234	0.741942
H54	H	1.656340	0.032225	0.258115
H55	H	1.325796	-0.400287	0.094163
C56	C	1.501659	-0.193301	0.183350
N57	N	1.552413	-0.164587	0.252826
H58	H	1.741936	-0.053256	0.591183
H59	H	1.345982	0.342422	0.741986
H60	H	1.088878	0.362217	-0.094527
C61	C	0.876856	0.194963	0.183725
N62	N	0.844762	0.148480	0.254040
C63	C	1.121732	0.190908	0.182679
N64	N	1.163367	0.140396	0.251310
C65	C	1.147824	-0.023049	-0.088411
N66	N	1.190321	-0.077788	-0.155036
C67	C	1.718481	-0.217683	-0.088042
N68	N	1.775568	-0.188522	-0.154371
C69	C	1.297204	-0.166577	0.096440
N70	N	1.193960	-0.117733	0.100495
C71	C	1.494413	-0.188492	-0.183665
N72	N	1.541234	-0.156454	-0.253861
C73	C	1.124079	0.194887	-0.182802
N74	N	1.167420	0.146884	-0.251844
C75	C	1.492696	-0.435484	0.182875
N76	N	1.540355	-0.478803	0.252044
H77	H	1.090668	0.360817	0.097064
H78	H	1.260388	0.427923	0.408900
H79	H	1.260410	0.427913	0.591244
C80	C	1.766361	-0.077717	0.394495
N81	N	1.837232	-0.148564	0.352859
C82	C	0.906145	-0.029512	0.088736
N83	N	0.877031	-0.086232	0.155267
H84	H	1.692313	-0.444685	0.066025
C85	C	1.717293	-0.215516	0.088072
N86	N	1.773463	-0.184769	0.154379
C87	C	0.881899	0.185989	-0.183266
N88	N	0.853217	0.134913	-0.252609
C89	C	1.291992	-0.410673	-0.099443
N90	N	1.187332	-0.435270	-0.105302
C91	C	1.498369	-0.433399	-0.182595
N92	N	1.549159	-0.475130	-0.251092
H93	H	1.330370	-0.183789	-0.091336
H94	H	0.914593	-0.009708	-0.064613
H95	H	1.134009	-0.003801	0.065393
