data_functionalizedCrystal
_audit_creation_method	'MofGen! by Chris Wilmer'
_symmetry_space_group_name_H-M	'P1'
_symmetry_Int_Tables_number	1
_symmetry_cell_setting	triclinic
loop_
_symmetry_equiv_pos_as_xyz
  x,y,z
_cell_length_a	19.188930
_cell_length_b	17.699083
_cell_length_c	16.176319
_cell_angle_alpha	89.992304
_cell_angle_beta	89.978701
_cell_angle_gamma	83.213897
loop_
_atom_site_label
_atom_site_type_symbol
_atom_site_fract_x
_atom_site_fract_y
_atom_site_fract_z
O1	O	0.926253	0.094493	-0.069014
O2	O	1.259587	0.427827	0.264319
O3	O	1.592920	0.761160	0.597653
O4	O	0.722956	0.107214	-0.068957
O5	O	1.056290	0.440547	0.264376
O6	O	1.389623	0.773880	0.597709
O7	O	0.830349	-0.009343	-0.068980
O8	O	1.163682	0.323990	0.264353
O9	O	1.497015	0.657323	0.597687
O10	O	0.818861	0.211050	-0.068991
O11	O	1.152195	0.544384	0.264342
O12	O	1.485528	0.877717	0.597675
O13	O	0.830334	-0.009351	0.068513
O14	O	1.163667	0.323983	0.401847
O15	O	1.497001	0.657316	0.735180
O16	O	0.722942	0.107206	0.068536
O17	O	1.056275	0.440539	0.401869
O18	O	1.389608	0.773873	0.735202
O19	O	0.926239	0.094486	0.068479
O20	O	1.259572	0.427819	0.401813
O21	O	1.592905	0.761153	0.735146
Cu22	Cu	0.824589	0.100845	0.081062
Cu23	Cu	1.157922	0.434179	0.414395
Cu24	Cu	1.491256	0.767512	0.747728
Cu25	Cu	0.824606	0.100854	-0.081540
Cu26	Cu	1.157940	0.434187	0.251793
Cu27	Cu	1.491273	0.767521	0.585127
O28	O	0.818847	0.211043	0.068502
O29	O	1.152180	0.544376	0.401835
O30	O	1.485513	0.877709	0.735168
C31	C	0.829930	-0.037543	-0.000233
C32	C	1.163263	0.295790	0.333100
C33	C	1.496596	0.629123	0.666433
C34	C	0.828695	-0.121560	-0.000233
C35	C	1.162028	0.211773	0.333101
C36	C	1.495361	0.545107	0.666434
C37	C	0.696938	0.106798	-0.000204
C38	C	1.030271	0.440131	0.333130
C39	C	1.363604	0.773465	0.666463
C40	C	0.619432	0.105561	-0.000182
C41	C	0.952765	0.438895	0.333151
C42	C	1.286098	0.772228	0.666485
C43	C	0.891732	-0.170264	-0.000249
C44	C	1.225065	0.163069	0.333084
C45	C	1.558398	0.496403	0.666418
C46	C	0.890567	-0.249206	-0.000256
C47	C	1.223901	0.084128	0.333078
C48	C	1.557234	0.417461	0.666411
C49	C	0.826365	-0.279442	-0.000241
C50	C	1.159699	0.053891	0.333093
C51	C	1.493032	0.387225	0.666426
C52	C	0.763323	-0.230732	-0.000227
C53	C	1.096657	0.102602	0.333107
C54	C	1.429990	0.435935	0.666440
C55	C	0.764489	-0.151791	-0.000226
C56	C	1.097822	0.181542	0.333108
C57	C	1.431155	0.514875	0.666441
C58	C	0.758623	-0.549089	-0.000232
C59	C	1.091956	-0.215755	0.333101
C60	C	1.425290	0.117578	0.666435
C61	C	0.757463	-0.628035	-0.000231
C62	C	1.090796	-0.294702	0.333103
C63	C	1.424129	0.038632	0.666436
C64	C	0.884702	-0.646503	-0.000262
C65	C	1.218035	-0.313169	0.333071
C66	C	1.551368	0.020164	0.666404
C67	C	0.885867	-0.567563	-0.000261
C68	C	1.219200	-0.234229	0.333072
C69	C	1.552534	0.099104	0.666405
C70	C	0.822826	-0.518859	-0.000252
C71	C	1.156159	-0.185526	0.333082
C72	C	1.489492	0.147807	0.666415
C73	C	0.824089	-0.433262	-0.000246
C74	C	1.157422	-0.099928	0.333088
C75	C	1.490756	0.233405	0.666421
C76	C	0.825101	-0.365038	-0.000241
C77	C	1.158434	-0.031705	0.333093
C78	C	1.491768	0.301629	0.666426
C79	C	0.574584	0.173953	-0.000198
C80	C	0.907918	0.507286	0.333135
C81	C	1.241251	0.840620	0.666468
C82	C	0.501759	0.172791	-0.000207
C83	C	0.835093	0.506125	0.333126
C84	C	1.168426	0.839458	0.666459
C85	C	0.473785	0.103234	-0.000216
C86	C	0.807118	0.436567	0.333117
C87	C	1.140451	0.769901	0.666450
C88	C	0.518642	0.034833	-0.000195
C89	C	0.851975	0.368167	0.333138
C90	C	1.185309	0.701500	0.666471
C91	C	0.591465	0.035997	-0.000178
C92	C	0.924799	0.369330	0.333155
C93	C	1.258132	0.702664	0.666489
N94	N	0.365750	0.050069	-0.047042
N95	N	0.699083	0.383402	0.286291
N96	N	1.032417	0.716735	0.619625
N97	N	0.296570	0.048968	-0.047060
N98	N	0.629904	0.382301	0.286273
N99	N	0.963237	0.715635	0.619607
C100	C	0.254372	0.099724	-0.000267
C101	C	0.587706	0.433057	0.333066
C102	C	0.921039	0.766391	0.666400
N103	N	0.283966	0.151634	0.046535
N104	N	0.617299	0.484967	0.379868
N105	N	0.950633	0.818300	0.713202
N106	N	0.353152	0.152737	0.046550
N107	N	0.686485	0.486070	0.379883
N108	N	1.019819	0.819403	0.713216
C109	C	0.394821	0.101965	-0.000235
C110	C	0.728154	0.435298	0.333099
C111	C	1.061487	0.768631	0.666432
C112	C	0.130559	0.166861	-0.000292
C113	C	0.463892	0.500194	0.333041
C114	C	0.797226	0.833527	0.666375
C115	C	0.057733	0.165696	-0.000296
C116	C	0.391066	0.499029	0.333037
C117	C	0.724400	0.832363	0.666371
C118	C	0.074617	0.027736	-0.000292
C119	C	0.407951	0.361069	0.333041
C120	C	0.741284	0.694403	0.666375
C121	C	0.147442	0.028903	-0.000280
C122	C	0.480775	0.362236	0.333053
C123	C	0.814108	0.695569	0.666387
C124	C	0.175408	0.098467	-0.000284
C125	C	0.508741	0.431800	0.333050
C126	C	0.842075	0.765134	0.666383
C127	C	0.952258	0.094902	-0.000276
C128	C	1.285591	0.428235	0.333057
C129	C	1.618924	0.761568	0.666390
C130	C	1.029763	0.096138	-0.000304
C131	C	1.363097	0.429471	0.333030
C132	C	1.696430	0.762805	0.666363
C133	C	0.819266	0.239243	-0.000247
C134	C	1.152599	0.572576	0.333086
C135	C	1.485932	0.905910	0.666420
C136	C	0.820500	0.323259	-0.000253
C137	C	1.153834	0.656593	0.333080
C138	C	1.487167	0.989926	0.666414
N139	N	0.824582	0.100839	0.195427
N140	N	1.157915	0.434172	0.528760
N141	N	1.491248	0.767505	0.862094
N142	N	0.824619	0.100855	-0.195905
N143	N	1.157952	0.434188	0.137428
N144	N	1.491286	0.767521	0.470762
C145	C	0.872149	0.049248	0.238681
C146	C	1.205483	0.382582	0.572014
C147	C	1.538816	0.715915	0.905348
C148	C	0.872153	0.049248	0.325228
C149	C	1.205486	0.382581	0.658562
C150	C	1.538819	0.715914	0.991895
C151	C	0.824592	0.100841	0.368520
C152	C	1.157925	0.434175	0.701853
C153	C	1.491258	0.767508	1.035186
C154	C	0.777019	0.152434	0.325259
C155	C	1.110352	0.485768	0.658593
C156	C	1.443686	0.819101	0.991926
C157	C	0.777013	0.152431	0.238714
C158	C	1.110346	0.485764	0.572047
C159	C	1.443679	0.819097	0.905380
C160	C	0.777043	0.152448	0.674288
C161	C	1.110376	0.485782	1.007621
C162	C	1.443710	0.819115	1.340954
C163	C	0.777054	0.152449	0.760839
C164	C	1.110388	0.485783	1.094172
C165	C	1.443721	0.819116	1.427506
C166	C	0.872183	0.049265	0.760802
C167	C	1.205516	0.382598	1.094135
C168	C	1.538850	0.715932	1.427469
C169	C	0.872177	0.049262	0.674256
C170	C	1.205510	0.382595	1.007590
C171	C	1.538843	0.715928	1.340923
C172	C	0.824602	0.100852	0.631004
C173	C	1.157935	0.434185	0.964337
C174	C	1.491269	0.767518	1.297670
C175	C	0.824598	0.100851	0.537160
C176	C	1.157931	0.434184	0.870493
C177	C	1.491264	0.767518	1.203826
C178	C	0.824599	0.100846	0.462362
C179	C	1.157932	0.434180	0.795695
C180	C	1.491265	0.767513	1.129029
H181	H	0.944012	-0.145652	-0.000256
H182	H	1.277346	0.187681	0.333077
H183	H	1.610679	0.521014	0.666410
Cl184	Cl	0.679371	-0.487872	-0.000222
Cl185	Cl	1.012704	-0.154539	0.333111
Cl186	Cl	1.346037	0.178795	0.666444
H187	H	0.936033	-0.686167	-0.000274
H188	H	1.269366	-0.352834	0.333059
H189	H	1.602700	-0.019500	0.666392
H190	H	0.153330	0.223504	-0.000283
H191	H	0.486664	0.556837	0.333050
H192	H	0.819997	0.890171	0.666384
Cl193	Cl	0.039456	-0.059709	-0.000294
Cl194	Cl	0.372789	0.273625	0.333039
Cl195	Cl	0.706123	0.606958	0.666373
H196	H	0.705179	-0.652650	-0.000217
H197	H	1.038512	-0.319316	0.333117
H198	H	1.371845	0.014017	0.666450
H199	H	0.738307	0.194456	0.639078
H200	H	1.071641	0.527789	0.972411
H201	H	1.404974	0.861123	1.305745
Cl202	Cl	0.969818	-0.310431	-0.000274
Cl203	Cl	1.303151	0.022903	0.333059
Cl204	Cl	1.636484	0.356236	0.666393
H205	H	0.738278	0.194440	0.203497
H206	H	1.071611	0.527773	0.536830
H207	H	1.404944	0.861107	0.870164
Cl208	Cl	0.717257	0.217314	0.815262
Cl209	Cl	1.050591	0.550647	1.148595
Cl210	Cl	1.383924	0.883981	1.481928
H211	H	0.910885	0.007238	0.360445
H212	H	1.244219	0.340572	0.693779
H213	H	1.577552	0.673905	1.027112
H214	H	0.938147	-0.542949	-0.000270
H215	H	1.271480	-0.209616	0.333064
H216	H	1.604813	0.123718	0.666397
H217	H	0.738290	0.194440	0.360512
H218	H	1.071624	0.527774	0.693845
H219	H	1.404957	0.861107	1.027179
H220	H	0.711049	-0.255356	-0.000219
H221	H	1.044382	0.077977	0.333114
H222	H	1.377716	0.411310	0.666447
H223	H	0.465238	0.228486	-0.000218
H224	H	0.798571	0.561819	0.333115
H225	H	1.131904	0.895153	0.666448
Cl226	Cl	0.931972	-0.015599	0.619836
Cl227	Cl	1.265305	0.317735	0.953170
Cl228	Cl	1.598638	0.651068	1.286503
Cl229	Cl	0.685239	-0.090563	-0.000208
Cl230	Cl	1.018572	0.242770	0.333125
Cl231	Cl	1.351905	0.576104	0.666458
Cl232	Cl	0.609738	0.261405	-0.000199
Cl233	Cl	0.943072	0.594739	0.333134
Cl234	Cl	1.276405	0.928072	0.666467
Cl235	Cl	0.001352	0.251683	-0.000312
Cl236	Cl	0.334685	0.585016	0.333021
Cl237	Cl	0.668018	0.918349	0.666354
H238	H	0.910882	0.007238	0.203439
H239	H	1.244215	0.340571	0.536772
H240	H	1.577549	0.673905	0.870106
Cl241	Cl	0.483475	-0.052610	-0.000202
Cl242	Cl	0.816808	0.280723	0.333131
Cl243	Cl	1.150142	0.614056	0.666465
Cl244	Cl	0.203824	-0.057081	-0.000264
Cl245	Cl	0.537158	0.276253	0.333069
Cl246	Cl	0.870491	0.609586	0.666403
Cl247	Cl	0.931990	-0.015595	0.815181
Cl248	Cl	1.265323	0.317738	1.148515
Cl249	Cl	1.598657	0.651072	1.481848
H250	H	0.627981	-0.019698	-0.000165
H251	H	0.961314	0.313636	0.333168
H252	H	1.294648	0.646969	0.666502
