data_functionalizedCrystal
_audit_creation_method	'MofGen! by Chris Wilmer'
_symmetry_space_group_name_H-M	'P1'
_symmetry_Int_Tables_number	1
_symmetry_cell_setting	triclinic
loop_
_symmetry_equiv_pos_as_xyz
  x,y,z
_cell_length_a	18.215407
_cell_length_b	16.625546
_cell_length_c	18.215399
_cell_angle_alpha	90.029176
_cell_angle_beta	90.017813
_cell_angle_gamma	90.016981
loop_
_atom_site_label
_atom_site_type_symbol
_atom_site_fract_x
_atom_site_fract_y
_atom_site_fract_z
Zn1	Zn	1.125084	-0.321128	0.416070
Zn2	Zn	1.124998	-0.455968	0.293001
Zn3	Zn	1.002017	-0.321140	0.293022
Zn4	Zn	1.001988	-0.455909	0.416030
O5	O	1.063522	-0.388536	0.354531
O6	O	1.228057	-0.339034	0.399753
O7	O	1.108660	-0.438113	0.190019
O8	O	1.018390	-0.208306	0.309369
O9	O	1.227994	-0.438101	0.309334
O10	O	1.108807	-0.208297	0.399773
O11	O	1.018306	-0.339055	0.190035
O12	O	0.899029	-0.338998	0.309331
O13	O	1.018341	-0.438000	0.519020
O14	O	0.899007	-0.438013	0.399705
O15	O	1.108779	-0.338977	0.519049
O16	O	1.108632	-0.568793	0.309296
O17	O	1.018257	-0.568750	0.399685
C18	C	0.872315	-0.388501	0.354516
C19	C	0.790517	-0.388505	0.354528
C20	C	0.525486	-0.337052	0.401686
C21	C	0.602345	-0.337039	0.401684
C22	C	0.602298	-0.440047	0.307391
C23	C	0.525441	-0.440064	0.307398
C24	C	0.487037	-0.388561	0.354544
C25	C	0.640753	-0.388532	0.354535
C26	C	0.724087	-0.388518	0.354532
C27	C	0.403698	-0.388576	0.354548
C28	C	1.063452	-0.598027	0.354500
C29	C	1.063490	-0.687648	0.354511
C30	C	1.063618	-1.015824	0.354588
C31	C	1.063580	-0.924516	0.354569
C32	C	1.063553	-0.851739	0.354549
C33	C	1.063516	-0.760425	0.354531
C34	C	1.255475	-0.388573	0.354546
C35	C	1.337273	-0.388588	0.354552
C36	C	1.063567	-0.388481	0.546484
C37	C	1.063586	-0.388457	0.628283
C38	C	1.063612	-0.178228	0.354578
C39	C	1.063650	-0.088606	0.354598
C40	C	1.063519	-0.388534	0.163324
C41	C	1.063643	-0.388330	0.081526
C42	C	1.110694	-0.336848	0.816493
C43	C	1.110703	-0.336824	0.893352
C44	C	1.016530	-0.439942	0.893310
C45	C	1.016518	-0.439961	0.816453
C46	C	1.063604	-0.388415	0.778046
C47	C	1.063625	-0.388373	0.931762
C48	C	1.063634	-0.388347	1.015096
C49	C	1.063594	-0.388439	0.694707
H50	H	0.494220	-0.295115	0.440076
H51	H	0.978166	-0.481953	0.785149
C52	C	0.644636	-0.280370	0.453541
N53	N	0.676489	-0.237684	0.492601
H54	H	0.633576	-0.481977	0.269004
H55	H	0.494135	-0.482014	0.269008
C56	C	1.162507	-0.280098	0.935640
N57	N	1.201529	-0.237369	0.967491
C58	C	0.964736	-0.496638	0.935565
N59	N	0.925724	-0.539343	0.967390
C60	C	1.162484	-0.280138	0.774248
N61	N	1.201491	-0.237420	0.742432
