data_functionalizedCrystal
_audit_creation_method	'MofGen! by Chris Wilmer'
_symmetry_space_group_name_H-M	'P1'
_symmetry_Int_Tables_number	1
_symmetry_cell_setting	triclinic
loop_
_symmetry_equiv_pos_as_xyz
  x,y,z
_cell_length_a	12.759401
_cell_length_b	16.120484
_cell_length_c	12.759393
_cell_angle_alpha	87.137118
_cell_angle_beta	90.018496
_cell_angle_gamma	92.925560
loop_
_atom_site_label
_atom_site_type_symbol
_atom_site_fract_x
_atom_site_fract_y
_atom_site_fract_z
Zn1	Zn	1.584972	-0.331853	0.615146
Zn2	Zn	1.575923	-0.471291	0.448359
Zn3	Zn	1.409271	-0.331897	0.439488
Zn4	Zn	1.400324	-0.471227	0.623996
O5	O	1.492622	-0.401567	0.531747
O6	O	1.730792	-0.350358	0.593030
O7	O	1.553774	-0.452845	0.300164
O8	O	1.440109	-0.215226	0.455373
O9	O	1.724144	-0.452803	0.470492
O10	O	1.569196	-0.215194	0.584428
O11	O	1.431335	-0.350433	0.293646
O12	O	1.261064	-0.350370	0.463955
O13	O	1.424860	-0.452693	0.769840
O14	O	1.254490	-0.452736	0.599512
O15	O	1.560520	-0.350296	0.763338
O16	O	1.545098	-0.587947	0.479074
O17	O	1.416086	-0.587900	0.608114
C18	C	1.219656	-0.401551	0.531732
C19	C	1.102879	-0.401565	0.531752
C20	C	1.044616	-0.454952	0.602231
C21	C	0.934891	-0.454962	0.602243
C22	C	0.941702	-0.348197	0.461287
C23	C	1.051425	-0.348183	0.461281
C24	C	1.096069	-0.508334	0.672701
C25	C	1.037806	-0.561726	0.743185
C26	C	0.928081	-0.561736	0.743197
C27	C	0.876620	-0.508355	0.672725
C28	C	1.478668	-0.618174	0.545540
C29	C	1.472794	-0.710839	0.551475
C30	C	1.462076	-0.880500	0.562334
C31	C	1.523357	-0.921793	0.501178
C32	C	1.517393	-1.016198	0.507219
C33	C	1.468038	-0.786086	0.556293
C34	C	1.766655	-0.401583	0.531763
C35	C	1.883431	-0.401590	0.531770
C36	C	1.492701	-0.401483	0.805775
C37	C	1.492735	-0.401447	0.922550
C38	C	1.506660	-0.184114	0.517924
C39	C	1.512642	-0.091448	0.512033
C40	C	1.492608	-0.401590	0.258781
C41	C	1.492793	-0.401391	0.141992
C42	C	1.563383	-0.348123	0.974027
C43	C	1.563410	-0.348093	1.083750
C44	C	1.422138	-0.454717	1.090507
C45	C	1.422106	-0.454742	0.980787
C46	C	1.634011	-0.294828	0.915790
C47	C	1.704666	-0.241501	0.967268
C48	C	1.704693	-0.241471	1.076990
C49	C	1.634065	-0.294768	1.135235
H50	H	1.580299	-0.886244	0.444283
C51	C	1.385147	-0.928517	0.639179
H52	H	1.391176	-0.986587	0.633196
H53	H	1.401355	-0.914244	0.708892
H54	H	1.315440	-0.914358	0.622837
H55	H	1.634000	-0.294848	0.826449
C56	C	0.755926	-0.508360	0.672740
H57	H	0.733625	-0.468922	0.620679
H58	H	0.727634	-0.562144	0.657890
H59	H	0.732060	-0.494002	0.739661
C60	C	1.634097	-0.294735	1.255927
H61	H	1.686292	-0.255347	1.278246
H62	H	1.567238	-0.280310	1.279832
H63	H	1.648806	-0.348534	1.284160
H64	H	1.364563	-0.498150	0.938872
C65	C	1.782347	-0.182878	0.903204
H66	H	1.772221	-0.190537	0.830486
H67	H	1.770597	-0.126856	0.917626
H68	H	1.852157	-0.195087	0.921969
H69	H	1.364636	-0.498108	1.137939
C70	C	1.216762	-0.508320	0.672696
H71	H	1.239064	-0.547753	0.724763
H72	H	1.240637	-0.522664	0.605778
H73	H	1.245045	-0.454532	0.687562
C74	C	1.094409	-0.620443	0.820694
H75	H	1.168100	-0.612798	0.810586
H76	H	1.077240	-0.608316	0.890541
H77	H	1.072815	-0.676446	0.808755
C78	C	0.863990	-0.620458	0.820726
H79	H	0.791273	-0.612817	0.810648
H80	H	0.878365	-0.676456	0.808797
H81	H	0.882783	-0.608317	0.890571
C82	C	1.782406	-0.182814	1.133613
H83	H	1.824467	-0.151084	1.083212
H84	H	1.744580	-0.146473	1.174107
H85	H	1.826136	-0.214707	1.178441
C86	C	0.885101	-0.289486	0.383769
H87	H	0.935517	-0.257683	0.341798
H88	H	0.840234	-0.321340	0.339957
H89	H	0.844646	-0.253202	0.421734
C90	C	1.115518	-0.289455	0.383761
H91	H	1.069161	-0.257671	0.341784
H92	H	1.160664	-0.253166	0.421722
H93	H	1.156260	-0.321298	0.339938
