data_functionalizedCrystal
_audit_creation_method	'MofGen! by Chris Wilmer'
_symmetry_space_group_name_H-M	'P1'
_symmetry_Int_Tables_number	1
_symmetry_cell_setting	triclinic
loop_
_symmetry_equiv_pos_as_xyz
  x,y,z
_cell_length_a	35.277438
_cell_length_b	35.288318
_cell_length_c	35.277682
_cell_angle_alpha	59.999288
_cell_angle_beta	90.000739
_cell_angle_gamma	60.000136
loop_
_atom_site_label
_atom_site_type_symbol
_atom_site_fract_x
_atom_site_fract_y
_atom_site_fract_z
O1	O	-0.323070	-0.271250	0.011265
O2	O	-0.267951	-0.193647	-0.011233
O3	O	-0.267945	-0.271247	0.066389
O4	O	-0.323076	-0.193650	-0.066357
O5	O	-0.204897	-0.334272	0.066388
O6	O	-0.204903	-0.256673	-0.011233
O7	O	-0.260021	-0.334275	0.011264
Cu8	Cu	-0.226705	-0.301229	0.000016
Cu9	Cu	-0.301267	-0.226694	0.000016
O10	O	-0.260027	-0.256676	-0.066357
C11	C	-0.163461	-0.139937	-0.023532
C12	C	-0.186856	-0.166535	-0.020316
C13	C	-0.186377	-0.094011	-0.023852
C14	C	-0.094814	-0.139945	-0.023528
C15	C	-0.044812	-0.166551	-0.020308
C16	C	-0.117834	-0.094018	-0.023848
C17	C	-0.163455	-0.071320	-0.023529
C18	C	-0.186844	-0.024552	-0.020309
C19	C	-0.117840	-0.162531	-0.023851
C20	C	-0.205739	0.013231	-0.017706
C21	C	-0.205757	-0.188025	-0.017716
C22	C	-0.004414	-0.188047	-0.017705
C23	C	-0.229444	0.060632	-0.014442
C24	C	-0.229469	-0.214984	-0.014455
C25	C	0.046266	-0.215013	-0.014440
C26	C	-0.500335	-0.466088	0.034170
C27	C	-0.477311	-0.512015	0.034491
C28	C	-0.431694	-0.466083	0.034168
C29	C	-0.408774	-0.512010	0.034489
C30	C	-0.431691	-0.534708	0.034170
C31	C	-0.477315	-0.443494	0.034490
C32	C	-0.665869	-0.342516	0.021745
C33	C	-0.712746	-0.317254	0.018232
C34	C	-0.736260	-0.338941	0.016469
C35	C	-0.787090	-0.311548	0.012652
C36	C	-0.712893	-0.385895	0.018224
C37	C	-0.666018	-0.411156	0.021743
C38	C	-0.642506	-0.389465	0.023503
C39	C	-0.389768	-0.687769	0.021745
C40	C	-0.368161	-0.731119	0.018232
C41	C	-0.322956	-0.752862	0.016465
C42	C	-0.299527	-0.799859	0.012649
C43	C	-0.299356	-0.731255	0.018218
C44	C	-0.320959	-0.687912	0.021739
C45	C	-0.366170	-0.666169	0.023500
C46	C	-0.389786	-0.342497	0.021736
C47	C	-0.368185	-0.317226	0.018215
C48	C	-0.322978	-0.338909	0.016450
C49	C	-0.299554	-0.311510	0.012630
C50	C	-0.299376	-0.385858	0.018202
C51	C	-0.320979	-0.411125	0.021721
C52	C	-0.366185	-0.389442	0.023492
C53	C	-0.591678	-0.416858	0.027315
C54	C	-0.551163	-0.438694	0.030355
C55	C	-0.408273	-0.438684	0.030350
C56	C	-0.389604	-0.416845	0.027308
C57	C	-0.408266	-0.581705	0.030354
C58	C	-0.389593	-0.619168	0.027314
C59	C	-0.432015	-0.061863	-0.438517
C60	C	-0.477637	-0.015937	-0.461436
C61	C	-0.432015	-0.061863	-0.369874
C62	C	-0.477637	-0.015936	-0.392898
C63	C	-0.500660	0.006758	-0.438518
C64	C	-0.409096	-0.084453	-0.392896
C65	C	-0.320821	-0.185440	-0.480430
C66	C	-0.299062	-0.210704	-0.502035
C67	C	-0.322518	-0.189020	-0.547242
C68	C	-0.298931	-0.216416	-0.570667
C69	C	-0.367733	-0.142068	-0.570845
C70	C	-0.389486	-0.116804	-0.549242
C71	C	-0.366028	-0.138492	-0.504033
C72	C	-0.666197	0.159812	-0.549709
C73	C	-0.713075	0.203161	-0.571467
C74	C	-0.736594	0.224906	-0.548014
C75	C	-0.787423	0.271901	-0.571599
C76	C	-0.713228	0.203301	-0.502801
C77	C	-0.666350	0.159960	-0.481046
C78	C	-0.642837	0.138216	-0.504505
C79	C	-0.320823	-0.185438	-0.204340
C80	C	-0.299066	-0.210706	-0.157461
C81	C	-0.322523	-0.189021	-0.133946
C82	C	-0.298936	-0.216416	-0.083116
C83	C	-0.367736	-0.142073	-0.157310
C84	C	-0.389490	-0.116809	-0.204187
C85	C	-0.366028	-0.138494	-0.227701
C86	C	-0.389621	-0.111096	-0.480610
C87	C	-0.408426	-0.089259	-0.461939
C88	C	-0.408427	-0.089258	-0.319046
C89	C	-0.389623	-0.111095	-0.278531
C90	C	-0.551490	0.053754	-0.462107
C91	C	-0.592006	0.091216	-0.480911
O92	O	0.196146	-0.334309	0.011280
O93	O	0.063401	-0.256703	-0.011218
O94	O	0.141020	-0.334307	0.066403
O95	O	0.118527	-0.256706	-0.066342
O96	O	0.141026	-0.271284	0.066407
O97	O	0.063407	-0.193681	-0.011215
O98	O	0.196152	-0.271286	0.011283
Cu99	Cu	0.129780	-0.226729	0.000034
Cu100	Cu	0.129773	-0.301261	0.000031
O101	O	0.118533	-0.193683	-0.066339
O102	O	-0.259993	0.184752	0.011280
O103	O	-0.204875	0.074538	-0.011216
O104	O	-0.204872	0.074533	0.066404
O105	O	-0.259996	0.184757	-0.066341
O106	O	-0.267922	0.074540	0.066401
O107	O	-0.267925	0.074545	-0.011220
O108	O	-0.323043	0.184759	0.011277
Cu109	Cu	-0.301241	0.129652	0.000028
Cu110	Cu	-0.226677	0.129645	0.000032
O111	O	-0.323046	0.184763	-0.066344
O112	O	-0.936932	0.397500	-0.602587
O113	O	-0.804185	0.287287	-0.547458
O114	O	-0.881802	0.287281	-0.547458
O115	O	-0.859316	0.397505	-0.602587
O116	O	-0.881800	0.287280	-0.610503
O117	O	-0.804184	0.287285	-0.610504
O118	O	-0.936931	0.397498	-0.665632
Cu119	Cu	-0.870557	0.342392	-0.643825
Cu120	Cu	-0.870559	0.342393	-0.569266
O121	O	-0.859315	0.397504	-0.665633
O122	O	-0.267945	-0.271247	-0.665322
O123	O	-0.323073	-0.193653	-0.610198
O124	O	-0.323068	-0.271252	-0.610195
O125	O	-0.267949	-0.193649	-0.665325
O126	O	-0.260019	-0.334278	-0.547148
O127	O	-0.260024	-0.256680	-0.547151
O128	O	-0.204896	-0.334274	-0.602275
Cu129	Cu	-0.226703	-0.301232	-0.568956
Cu130	Cu	-0.301266	-0.226695	-0.643517
O131	O	-0.204900	-0.256675	-0.602278
C132	C	-0.094818	-0.456615	0.293249
C133	C	-0.044814	-0.503383	0.316641
C134	C	-0.117841	-0.433921	0.316167
C135	C	-0.163463	-0.387995	0.224605
C136	C	-0.186856	-0.361393	0.174603
C137	C	-0.186382	-0.365405	0.247628
C138	C	-0.163463	-0.387995	0.293248
C139	C	-0.186855	-0.361393	0.316639
C140	C	-0.117841	-0.433921	0.247628
C141	C	-0.205754	-0.339901	0.335536
C142	C	-0.004416	-0.541166	0.335538
C143	C	-0.205754	-0.339900	0.134206
C144	C	-0.229463	-0.312938	0.359244
C145	C	0.046265	-0.588566	0.359247
C146	C	-0.229463	-0.312937	0.083526
C147	C	0.153333	-0.388037	0.293266
C148	C	0.150117	-0.361437	0.316659
C149	C	0.153650	-0.433962	0.316184
C150	C	0.153330	-0.388034	0.224622
C151	C	0.150111	-0.361431	0.174620
C152	C	0.153647	-0.433959	0.247643
C153	C	0.153326	-0.456655	0.293264
C154	C	0.150104	-0.503421	0.316654
C155	C	0.153654	-0.365446	0.247646
C156	C	0.147499	-0.541203	0.335551
C157	C	0.147518	-0.339946	0.335557
C158	C	0.147509	-0.339937	0.134223
C159	C	0.144232	-0.588603	0.359258
C160	C	0.144258	-0.312986	0.359267
C161	C	0.144246	-0.312973	0.083543
C162	C	-0.163439	-0.139975	0.293254
C163	C	-0.186832	-0.166576	0.316642
C164	C	-0.117816	-0.162572	0.316174
C165	C	-0.163438	-0.071348	0.224615
C166	C	-0.186831	-0.024573	0.174615
C167	C	-0.117816	-0.094050	0.247639
C168	C	-0.094792	-0.139982	0.293258
C169	C	-0.044788	-0.166591	0.316650
C170	C	-0.186358	-0.094042	0.247635
C171	C	-0.004389	-0.188089	0.335549
C172	C	-0.205731	-0.188068	0.335537
C173	C	-0.205730	0.013216	0.134219
C174	C	0.046292	-0.215059	0.359258
C175	C	-0.229442	-0.215030	0.359242
C176	C	-0.229439	0.060624	0.083540
C177	C	0.095639	0.006437	-0.438500
C178	C	0.095315	-0.016256	-0.461419
C179	C	0.095636	-0.062184	-0.369857
C180	C	0.095312	-0.084773	-0.392881
C181	C	0.095633	-0.062181	-0.438501
C182	C	0.095318	-0.016259	-0.392879
C183	C	0.108080	0.159486	-0.480412
C184	C	0.111597	0.202834	-0.502017
C185	C	0.113361	0.224579	-0.547225
C186	C	0.117183	0.271574	-0.570649
C187	C	0.111604	0.202977	-0.570828
C188	C	0.108081	0.159637	-0.549225
C189	C	0.106319	0.137891	-0.504015
C190	C	0.108051	-0.116503	-0.549692
C191	C	0.111562	-0.141612	-0.571451
C192	C	0.113324	-0.188568	-0.547998
C193	C	0.117137	-0.215801	-0.571583
C194	C	0.111570	-0.210409	-0.502784
C195	C	0.108052	-0.185296	-0.481030
C196	C	0.106295	-0.138340	-0.504489
C197	C	0.108066	-0.116515	-0.204324
C198	C	0.111586	-0.141631	-0.157444
C199	C	0.113346	-0.188587	-0.133929
C200	C	0.117165	-0.215823	-0.083099
C201	C	0.111591	-0.210426	-0.157293
C202	C	0.108074	-0.185309	-0.204171
C203	C	0.106307	-0.138350	-0.227684
C204	C	0.102503	0.090893	-0.480593
C205	C	0.099459	0.053431	-0.461922
C206	C	0.099452	-0.089416	-0.319029
C207	C	0.102493	-0.111122	-0.278514
C208	C	0.099446	-0.089411	-0.462090
C209	C	0.102484	-0.111115	-0.480894
O210	O	0.118535	-0.256724	0.452869
O211	O	0.141035	-0.334322	0.397747
O212	O	0.063413	-0.256723	0.397740
O213	O	0.196157	-0.334323	0.452877
O214	O	0.063416	-0.193697	0.334694
O215	O	0.141038	-0.271296	0.334702
O216	O	0.118539	-0.193697	0.389824
Cu217	Cu	0.129789	-0.226742	0.356506
Cu218	Cu	0.129785	-0.301278	0.431065
O219	O	0.196161	-0.271297	0.389831
C220	C	-0.500338	0.533968	-0.438495
C221	C	-0.477314	0.556559	-0.461410
C222	C	-0.431692	0.465335	-0.369852
C223	C	-0.408773	0.488030	-0.392871
C224	C	-0.431692	0.533963	-0.438490
C225	C	-0.477314	0.488035	-0.392876
C226	C	-0.665876	0.588309	-0.480417
C227	C	-0.712755	0.613426	-0.502023
C228	C	-0.736271	0.660388	-0.547229
C229	C	-0.787103	0.687629	-0.570656
C230	C	-0.712905	0.682230	-0.570828
C231	C	-0.666028	0.657110	-0.549224
C232	C	-0.642514	0.610147	-0.504016
C233	C	-0.389773	0.657546	-0.549667
C234	C	-0.368167	0.682809	-0.571421
C235	C	-0.322959	0.661123	-0.547966
C236	C	-0.299530	0.688514	-0.571546
C237	C	-0.299356	0.614164	-0.502754
C238	C	-0.320959	0.588897	-0.481004
C239	C	-0.366172	0.610595	-0.504465
C240	C	-0.389773	0.312258	-0.204325
C241	C	-0.368168	0.268906	-0.157447
C242	C	-0.322958	0.247155	-0.133930
C243	C	-0.299531	0.200151	-0.083101
C244	C	-0.299358	0.268760	-0.157291
C245	C	-0.320965	0.312113	-0.204167
C246	C	-0.366172	0.333855	-0.227682
C247	C	-0.591684	0.582914	-0.480591
C248	C	-0.551168	0.561205	-0.461919
C249	C	-0.408267	0.418331	-0.319025
C250	C	-0.389595	0.380863	-0.278511
C251	C	-0.408267	0.561358	-0.462074
C252	C	-0.389595	0.583196	-0.480875
H253	H	-0.371292	-0.530999	0.035002
H254	H	0.094798	0.002741	-0.498903
O255	O	-0.095717	-0.206631	-0.024450
C256	C	-0.050435	-0.221781	-0.024679
H257	H	-0.039090	-0.205551	-0.009696
H258	H	-0.050050	-0.204685	-0.061836
C259	C	-0.030752	-0.303282	-0.013381
C260	C	-0.016816	-0.283351	0.005026
H261	H	-0.010014	-0.341261	0.004941
H262	H	-0.061259	-0.293074	-0.013228
H263	H	-0.030431	-0.289030	-0.044344
H264	H	-0.017143	-0.297597	0.035986
H265	H	0.013692	-0.293563	0.004879
H266	H	-0.495795	-0.531009	0.035008
H267	H	-0.223843	-0.075047	0.229152
H268	H	-0.262249	-0.248932	-0.482814
H269	H	-0.223862	-0.075013	-0.024373
H270	H	-0.262253	-0.248933	-0.138440
O271	O	-0.735443	-0.271695	0.016602
C272	C	-0.751999	-0.280236	0.054446
H273	H	-0.730527	-0.324949	0.083386
H274	H	-0.789934	-0.264611	0.042760
C275	C	-0.774215	-0.195357	0.036929
C276	C	-0.747841	-0.250274	0.072476
H277	H	-0.771652	-0.176873	0.048050
H278	H	-0.763063	-0.189601	0.011432
H279	H	-0.805825	-0.182344	0.027194
H280	H	-0.716230	-0.263287	0.082206
H281	H	-0.758988	-0.256031	0.097975
O282	O	0.154179	-0.456550	0.360873
C283	C	0.114406	-0.419088	0.363413
H284	H	0.086096	-0.387793	0.327909
H285	H	0.123558	-0.398547	0.374490
C286	C	0.131612	-0.486628	0.442788
C287	C	0.096839	-0.448193	0.399183
H288	H	0.120777	-0.504581	0.464854
H289	H	0.158409	-0.511867	0.441078
H290	H	0.139235	-0.469504	0.452013
H291	H	0.089221	-0.465318	0.389956
H292	H	0.070040	-0.422957	0.400892
O293	O	-0.499428	-0.399416	0.035120
C294	C	-0.544722	-0.384238	0.035311
H295	H	-0.546144	-0.420312	0.049567
H296	H	-0.570258	-0.351047	-0.001621
C297	C	-0.556039	-0.319457	0.048645
C298	C	-0.557784	-0.363765	0.066157
H299	H	-0.564097	-0.306826	0.067670
H300	H	-0.525524	-0.329681	0.048514
H301	H	-0.577319	-0.291803	0.017868
H302	H	-0.536500	-0.391420	0.096931
H303	H	-0.588296	-0.353545	0.066294
O304	O	-0.298045	0.543339	-0.437059
C305	C	-0.286482	0.553844	-0.406825
H306	H	-0.310915	0.598494	-0.422645
H307	H	-0.249174	0.541405	-0.401357
C308	C	-0.261233	0.466966	-0.340387
C309	C	-0.291245	0.521806	-0.359816
H310	H	-0.264169	0.447203	-0.311389
H311	H	-0.269021	0.459888	-0.360756
H312	H	-0.230146	0.456608	-0.335834
H313	H	-0.322332	0.532165	-0.364374
H314	H	-0.283462	0.528886	-0.339447
H315	H	-0.371288	0.469031	-0.374384
O316	O	-0.391170	-0.271636	0.016536
C317	C	-0.435706	-0.257911	0.018839
H318	H	-0.435659	-0.295200	0.035928
H319	H	-0.462164	-0.226685	-0.017732
C320	C	-0.448731	-0.188925	0.026686
C321	C	-0.448674	-0.234726	0.047678
H322	H	-0.456732	-0.174622	0.044473
H323	H	-0.418728	-0.198171	0.025132
H324	H	-0.470780	-0.162910	-0.003789
H325	H	-0.426622	-0.260743	0.078150
H326	H	-0.478674	-0.225485	0.049237
O327	O	-0.390528	-0.121078	-0.614725
C328	C	-0.394647	-0.158864	-0.614621
H329	H	-0.391964	-0.188351	-0.578340
H330	H	-0.365622	-0.181528	-0.625067
C331	C	-0.445274	-0.093473	-0.693968
C332	C	-0.441983	-0.129687	-0.649408
H333	H	-0.474472	-0.075476	-0.715427
H334	H	-0.442497	-0.068016	-0.694039
H335	H	-0.421084	-0.112366	-0.702666
H336	H	-0.466169	-0.110793	-0.640708
H337	H	-0.444764	-0.155140	-0.649336
O338	O	-0.095853	-0.456497	0.225501
C339	C	-0.125983	-0.426608	0.180221
H340	H	-0.153567	-0.384059	0.168879
H341	H	-0.143465	-0.446276	0.179836
C342	C	-0.064141	-0.477125	0.160531
C343	C	-0.098017	-0.424865	0.146599
H344	H	-0.046890	-0.476052	0.139791
H345	H	-0.043842	-0.497264	0.191038
H346	H	-0.078714	-0.493510	0.160210
H347	H	-0.083443	-0.408484	0.146926
H348	H	-0.118313	-0.404723	0.116091
O349	O	-0.364407	-0.128604	-0.370797
C350	C	-0.361874	-0.170897	-0.330781
H351	H	-0.397380	-0.163698	-0.334982
H352	H	-0.350795	-0.172820	-0.299158
C353	C	-0.282500	-0.233064	-0.318955
C354	C	-0.326109	-0.224225	-0.324116
H355	H	-0.260437	-0.265959	-0.314842
H356	H	-0.284206	-0.204570	-0.345914
H357	H	-0.273274	-0.234663	-0.292603
H358	H	-0.335337	-0.222619	-0.350471
H359	H	-0.324403	-0.252719	-0.297162
H360	H	0.106621	-0.203080	-0.444219
H361	H	0.094793	-0.121727	-0.374396
O362	O	0.106413	-0.070940	-0.227195
C363	C	0.144270	-0.079580	-0.243739
H364	H	0.157040	-0.114088	-0.247175
H365	H	0.173557	-0.089949	-0.218311
C366	C	0.113126	0.013990	-0.287300
C367	C	0.128808	-0.028392	-0.291524
H368	H	0.103590	0.045565	-0.316775
H369	H	0.087622	0.019811	-0.276153
H370	H	0.137534	0.005341	-0.266108
H371	H	0.104399	-0.019746	-0.312711
H372	H	0.154308	-0.034210	-0.302676
H373	H	-0.386835	-0.124417	-0.138161
H374	H	-0.223865	-0.328444	0.229139
H375	H	0.154168	-0.452954	0.229159
O376	O	-0.433411	-0.071213	-0.572227
C377	C	-0.449446	-0.057481	-0.616765
H378	H	-0.429234	-0.094768	-0.616723
H379	H	-0.444107	-0.026256	-0.643219
C380	C	-0.526298	0.011506	-0.629791
C381	C	-0.501477	-0.034292	-0.629738
H382	H	-0.558394	0.025812	-0.637794
H383	H	-0.515496	0.002256	-0.599786
H384	H	-0.521844	0.037521	-0.651836
H385	H	-0.505926	-0.060308	-0.607689
H386	H	-0.512281	-0.025046	-0.659740
H387	H	-0.301713	-0.203094	-0.223485
H388	H	0.113029	0.220418	-0.482796
H389	H	-0.426596	-0.324835	0.023173
H390	H	-0.646730	-0.324850	0.023180
O391	O	-0.643420	0.138773	-0.572571
C392	C	-0.674095	0.167127	-0.617135
H393	H	-0.703672	0.208761	-0.627937
H394	H	-0.688844	0.144563	-0.616426
C395	C	-0.611401	0.121205	-0.638915
C396	C	-0.647725	0.172342	-0.652183
H397	H	-0.595134	0.124419	-0.660535
H398	H	-0.590734	0.102100	-0.608891
H399	H	-0.623697	0.102407	-0.638324
H400	H	-0.635428	0.191136	-0.652768
H401	H	-0.668389	0.191449	-0.682209
O402	O	0.113264	-0.120332	-0.134825
C403	C	0.110962	-0.073508	-0.165628
H404	H	0.093877	-0.056471	-0.202884
H405	H	0.147533	-0.083620	-0.160847
C406	C	0.103108	-0.052641	-0.109649
C407	C	0.082121	-0.031713	-0.155408
H408	H	0.085319	-0.026860	-0.103344
H409	H	0.104660	-0.084188	-0.088895
H410	H	0.133583	-0.061067	-0.105670
H411	H	0.051648	-0.023294	-0.159384
H412	H	0.080562	-0.000163	-0.176162
H413	H	0.112992	-0.123827	-0.608262
H414	H	0.112999	-0.248638	-0.483691
O415	O	-0.297965	0.333017	-0.226795
C416	C	-0.253434	0.304533	-0.195985
H417	H	-0.242760	0.262939	-0.166458
H418	H	-0.254133	0.327046	-0.181184
C419	C	-0.231374	0.350279	-0.258478
C420	C	-0.218263	0.299191	-0.222214
H421	H	-0.209679	0.346985	-0.274657
H422	H	-0.261376	0.369471	-0.279235
H423	H	-0.231957	0.369034	-0.246138
H424	H	-0.217686	0.280438	-0.234555
H425	H	-0.188260	0.279995	-0.201459
O426	O	0.113403	0.224055	-0.614707
C427	C	0.155322	0.219826	-0.614602
H428	H	0.182135	0.186235	-0.578320
H429	H	0.148973	0.259283	-0.625048
C430	C	0.140537	0.248537	-0.693948
C431	C	0.173470	0.207277	-0.649386
H432	H	0.151731	0.240799	-0.715406
H433	H	0.112294	0.251388	-0.694020
H434	H	0.135249	0.281414	-0.702647
H435	H	0.178753	0.174403	-0.640686
H436	H	0.201715	0.204420	-0.649314
O437	O	-0.297958	-0.206564	-0.436522
C438	C	-0.253392	-0.253425	-0.420321
H439	H	-0.242592	-0.252154	-0.451166
H440	H	-0.254097	-0.290027	-0.398459
C441	C	-0.231612	-0.258447	-0.352602
C442	C	-0.218345	-0.256884	-0.390487
H443	H	-0.209994	-0.260583	-0.334198
H444	H	-0.261638	-0.226878	-0.363516
H445	H	-0.232200	-0.288949	-0.334389
H446	H	-0.217763	-0.226379	-0.408703
H447	H	-0.188319	-0.288448	-0.379576
O448	O	0.154290	-0.321371	0.225668
C449	C	0.154484	-0.306194	0.255779
H450	H	0.168736	-0.342267	0.293286
H451	H	0.117553	-0.272998	0.248111
C452	C	0.167830	-0.241423	0.202298
C453	C	0.185337	-0.285729	0.248365
H454	H	0.186859	-0.228797	0.197724
H455	H	0.167697	-0.251646	0.182011
H456	H	0.137054	-0.213765	0.195913
H457	H	0.216110	-0.313388	0.254748
H458	H	0.185476	-0.275510	0.268654
H459	H	-0.099331	-0.075057	0.229154
O460	O	-0.735839	0.224141	-0.615357
C461	C	-0.773506	0.219881	-0.615324
H462	H	-0.784112	0.216663	-0.583885
H463	H	-0.762799	0.182613	-0.613612
C464	C	-0.801760	0.273866	-0.698682
C465	C	-0.814789	0.269919	-0.660070
H466	H	-0.827225	0.304730	-0.726284
H467	H	-0.776382	0.276735	-0.698705
H468	H	-0.792837	0.242806	-0.697250
H469	H	-0.823706	0.300974	-0.661500
H470	H	-0.840169	0.267056	-0.660048
H471	H	-0.732041	-0.403550	0.016791
H472	H	-0.099347	-0.075027	-0.024366
H473	H	0.094842	0.002711	-0.374384
H474	H	-0.099335	-0.199530	0.353658
H475	H	-0.646995	-0.449386	0.023173
O476	O	0.106349	0.138447	-0.436505
C477	C	0.108664	0.166799	-0.420303
H478	H	0.096594	0.208433	-0.451148
H479	H	0.145985	0.144234	-0.398441
C480	C	0.091909	0.120875	-0.352583
C481	C	0.077080	0.172012	-0.390469
H482	H	0.072428	0.124089	-0.334179
H483	H	0.090351	0.101772	-0.363498
H484	H	0.123009	0.102076	-0.334371
H485	H	0.045982	0.190807	-0.408683
H486	H	0.078632	0.191119	-0.379556
O487	O	0.106400	0.138703	-0.572208
C488	C	0.108700	0.167196	-0.616746
H489	H	0.125788	0.187359	-0.616703
H490	H	0.072128	0.198979	-0.643202
C491	C	0.116547	0.103385	-0.629766
C492	C	0.137538	0.128146	-0.629713
H493	H	0.134333	0.079298	-0.637767
H494	H	0.114996	0.084189	-0.599761
H495	H	0.086071	0.129876	-0.651813
H496	H	0.168010	0.101655	-0.607663
H497	H	0.139095	0.147336	-0.659715
O498	O	-0.433675	-0.666733	0.023477
C499	C	-0.449874	-0.695090	0.021168
H500	H	-0.419027	-0.736723	0.033239
H501	H	-0.471736	-0.672528	-0.016151
C502	C	-0.517593	-0.649169	0.037924
C503	C	-0.479706	-0.700305	0.052755
H504	H	-0.535996	-0.652385	0.057407
H505	H	-0.506680	-0.630063	0.039479
H506	H	-0.535806	-0.630373	0.006825
H507	H	-0.461490	-0.719098	0.083851
H508	H	-0.490615	-0.719415	0.051206
H509	H	0.113025	-0.248661	-0.138145
H510	H	-0.387380	-0.748706	0.016803
O511	O	-0.255421	-0.752468	0.016564
C512	C	-0.226202	-0.806853	0.054422
H513	H	-0.247949	-0.823057	0.067198
H514	H	-0.207285	-0.810708	0.083706
C515	C	-0.163755	-0.819261	0.023271
C516	C	-0.190464	-0.839165	0.038959
H517	H	-0.141709	-0.839193	0.013734
H518	H	-0.183440	-0.782621	-0.002234
H519	H	-0.147995	-0.822475	0.047676
H520	H	-0.206228	-0.835945	0.014553
H521	H	-0.170781	-0.875806	0.064460
H522	H	0.106617	-0.078269	-0.568797
H523	H	-0.387387	0.721042	-0.608231
H524	H	-0.301741	-0.670324	0.023167
O525	O	0.106356	-0.206583	-0.226801
C526	C	0.108678	-0.253420	-0.195992
H527	H	0.096599	-0.252018	-0.166464
H528	H	0.146003	-0.290029	-0.181191
C529	C	0.091948	-0.258744	-0.258487
C530	C	0.077109	-0.257020	-0.222222
H531	H	0.072477	-0.260967	-0.274666
H532	H	0.090385	-0.227190	-0.279243
H533	H	0.123052	-0.289252	-0.246147
H534	H	0.046008	-0.226509	-0.234563
H535	H	0.078666	-0.288569	-0.201468
O536	O	-0.095717	-0.456633	0.360878
C537	C	-0.050430	-0.502123	0.376263
H538	H	-0.039085	-0.498483	0.345044
H539	H	-0.050033	-0.539660	0.396324
C540	C	-0.030756	-0.510492	0.446485
C541	C	-0.016820	-0.506020	0.408142
H542	H	-0.010023	-0.512898	0.466152
H543	H	-0.061267	-0.479846	0.436121
H544	H	-0.030425	-0.541773	0.463197
H545	H	-0.017157	-0.474736	0.391428
H546	H	0.013692	-0.536661	0.418504
H547	H	-0.495800	0.593518	-0.498894
O548	O	-0.499427	0.465431	-0.370899
C549	C	-0.544723	0.495347	-0.401011
H550	H	-0.546149	0.518599	-0.438517
H551	H	-0.570256	0.524599	-0.393339
C552	C	-0.556038	0.428543	-0.347533
C553	C	-0.557787	0.457098	-0.393600
H554	H	-0.564097	0.404951	-0.342961
H555	H	-0.525521	0.408389	-0.327245
H556	H	-0.577315	0.452926	-0.341146
H557	H	-0.536506	0.432716	-0.399985
H558	H	-0.588300	0.477247	-0.413888
H559	H	-0.387390	0.251322	-0.138428
O560	O	-0.736101	0.224515	-0.480086
C561	C	-0.752647	0.278900	-0.505272
H562	H	-0.756083	0.295104	-0.543227
H563	H	-0.727220	0.282757	-0.490213
C564	C	-0.796209	0.291308	-0.455235
C565	C	-0.800432	0.311211	-0.501854
H566	H	-0.825683	0.311239	-0.453126
H567	H	-0.785060	0.254667	-0.438266
H568	H	-0.775018	0.294523	-0.442692
H569	H	-0.821618	0.307990	-0.514395
H570	H	-0.811585	0.347853	-0.518825
O571	O	-0.433698	0.333335	-0.227092
C572	C	-0.449894	0.304966	-0.196426
H573	H	-0.429764	0.284755	-0.159124
H574	H	-0.444601	0.273232	-0.201256
C575	C	-0.526653	0.368973	-0.252605
C576	C	-0.501931	0.344152	-0.206791
H577	H	-0.558752	0.393143	-0.259000
H578	H	-0.515741	0.388084	-0.273267
H579	H	-0.522237	0.342522	-0.256625
H580	H	-0.506343	0.370602	-0.202773
H581	H	-0.512845	0.325046	-0.186128
O582	O	-0.297978	-0.456742	0.023444
C583	C	-0.253449	-0.470457	0.021122
H584	H	-0.242777	-0.451603	0.033194
H585	H	-0.254152	-0.454964	-0.016200
C586	C	-0.231384	-0.554991	0.037870
C587	C	-0.218274	-0.531838	0.052701
H588	H	-0.209686	-0.592854	0.057347
H589	H	-0.261384	-0.545751	0.039433
H590	H	-0.231969	-0.542075	0.006768
H591	H	-0.217695	-0.544749	0.083800
H592	H	-0.188273	-0.541082	0.051144
H593	H	-0.262544	0.596501	-0.483659
H594	H	-0.647328	0.142376	-0.444235
O595	O	-0.735387	0.592156	-0.479026
C596	C	-0.704578	0.545315	-0.434497
H597	H	-0.675043	0.546708	-0.423822
H598	H	-0.689787	0.508708	-0.435202
C599	C	-0.767077	0.540005	-0.412437
C600	C	-0.730804	0.541719	-0.399324
H601	H	-0.783254	0.537785	-0.390740
H602	H	-0.787834	0.571562	-0.442437
H603	H	-0.754745	0.509500	-0.413024
H604	H	-0.743136	0.572227	-0.398742
H605	H	-0.710050	0.510167	-0.369322
H606	H	-0.262565	-0.403512	0.016764
O607	O	-0.735789	0.727901	-0.614706
C608	C	-0.773477	0.769698	-0.614596
H609	H	-0.766688	0.760224	-0.578311
H610	H	-0.806598	0.773799	-0.625047
C611	C	-0.787412	0.834252	-0.693938
C612	C	-0.779072	0.822617	-0.649373
H613	H	-0.790865	0.866896	-0.715391
H614	H	-0.762022	0.806092	-0.694013
H615	H	-0.815012	0.837666	-0.702640
H616	H	-0.751469	0.819197	-0.640669
H617	H	-0.804458	0.850778	-0.649297
H618	H	-0.646734	0.550070	-0.443608
H619	H	-0.647007	0.674894	-0.568442
H620	H	-0.496120	0.003055	-0.374412
H621	H	-0.496116	0.003061	-0.498923
H622	H	-0.426303	-0.078582	-0.223208
O623	O	-0.433682	0.678675	-0.572532
C624	C	-0.449883	0.725540	-0.617094
H625	H	-0.419037	0.724270	-0.627893
H626	H	-0.471743	0.762138	-0.616382
C627	C	-0.517605	0.730571	-0.638881
C628	C	-0.479719	0.729009	-0.652147
H629	H	-0.536011	0.732713	-0.660504
H630	H	-0.506691	0.698998	-0.608858
H631	H	-0.535816	0.761069	-0.638289
H632	H	-0.461506	0.698508	-0.652734
H633	H	-0.490631	0.760577	-0.682171
H634	H	-0.262545	0.251049	-0.138140
