data_functionalizedCrystal
_audit_creation_method	'MofGen! by Chris Wilmer'
_symmetry_space_group_name_H-M	'P1'
_symmetry_Int_Tables_number	1
_symmetry_cell_setting	triclinic
loop_
_symmetry_equiv_pos_as_xyz
  x,y,z
_cell_length_a	12.837943
_cell_length_b	12.837942
_cell_length_c	11.295672
_cell_angle_alpha	85.831524
_cell_angle_beta	94.156554
_cell_angle_gamma	85.171060
loop_
_atom_site_label
_atom_site_type_symbol
_atom_site_fract_x
_atom_site_fract_y
_atom_site_fract_z
O1	O	1.395435	-0.265221	-0.099000
O2	O	1.092301	-0.251778	-0.099007
O3	O	1.237147	-0.106933	-0.098996
O4	O	1.250589	-0.410066	-0.099010
O5	O	1.250937	-0.120768	0.099048
O6	O	1.106092	-0.265612	0.099037
O7	O	1.409226	-0.279056	0.099044
Cu8	Cu	1.258918	-0.273597	0.117124
Cu9	Cu	1.242608	-0.257236	-0.117086
O10	O	1.264380	-0.423900	0.099034
C11	C	1.060127	-0.254154	0.000014
C12	C	0.943712	-0.240609	0.000012
C13	C	1.239501	-0.074781	0.000025
C14	C	1.225956	0.041634	0.000023
C15	C	0.718838	-0.403439	0.000021
C16	C	0.609456	-0.390717	0.000020
C17	C	0.615563	-0.202446	0.000016
C18	C	0.724945	-0.215168	0.000017
C19	C	0.776579	-0.315667	0.000018
C20	C	0.885963	-0.328387	0.000011
C21	C	0.892068	-0.140117	0.000016
C22	C	0.782686	-0.127396	0.000015
C23	C	1.441399	-0.276680	0.000021
C24	C	1.557814	-0.290224	0.000015
N25	N	1.231137	-0.245721	-0.281817
C26	C	1.262026	-0.456052	0.000010
C27	C	1.275570	-0.572467	0.000004
C28	C	1.388784	0.266509	0.000002
C29	C	1.376062	0.375892	-0.000000
C30	C	1.187792	0.369784	0.000008
C31	C	1.200513	0.260402	0.000010
C32	C	1.301013	0.208768	0.000009
C33	C	1.313734	0.099383	0.000020
C34	C	1.125464	0.093278	0.000019
C35	C	1.112742	0.202660	0.000017
C36	C	1.148476	-0.162715	-0.468796
C37	C	1.157158	-0.171440	-0.344137
C38	C	1.296437	-0.311285	-0.344165
C39	C	1.287755	-0.302559	-0.468824
C40	C	1.213773	-0.228271	-0.531136
C41	C	1.205097	-0.219542	-0.655797
C42	C	1.344370	-0.359391	-0.655823
C43	C	1.353052	-0.368116	-0.531164
N44	N	1.270397	-0.285105	0.281855
H45	H	0.928001	-0.410219	0.000014
H46	H	0.760879	-0.485269	0.000020
H47	H	0.562447	-0.462191	0.000025
H48	H	1.447535	0.422901	-0.000010
H49	H	0.939092	-0.068646	0.000006
H50	H	0.573510	-0.120631	0.000114
H51	H	0.740632	-0.045572	0.000028
H52	H	1.395566	0.057344	0.000023
C53	C	1.377800	-0.393004	-0.275614
H54	H	1.415442	-0.430808	-0.330593
H55	H	1.425208	-0.358396	-0.226964
H56	H	1.342934	-0.440243	-0.227007
H57	H	1.413284	-0.428602	-0.480413
H58	H	1.088242	-0.102222	-0.519531
C59	C	1.499325	0.209709	0.000010
H60	H	1.549778	0.259765	0.000003
H61	H	1.513007	0.162344	0.069073
H62	H	1.503392	0.171988	-0.069060
H63	H	1.105969	0.411844	-0.000004
H64	H	1.030918	0.244716	0.000013
C65	C	1.028908	0.029765	0.000031
H66	H	0.967237	0.076185	0.000042
H67	H	1.025140	-0.008219	-0.069024
H68	H	1.034775	-0.017847	0.069109
H69	H	1.144858	-0.159051	-0.706530
H70	H	1.103984	-0.118059	-0.293385
C71	C	1.416201	-0.431505	-0.724398
H72	H	1.400434	-0.415674	-0.807566
H73	H	1.487363	-0.420735	-0.703959
H74	H	1.405105	-0.502598	-0.703989
