data_functionalizedCrystal
_audit_creation_method	'MofGen! by Chris Wilmer'
_symmetry_space_group_name_H-M	'P1'
_symmetry_Int_Tables_number	1
_symmetry_cell_setting	triclinic
loop_
_symmetry_equiv_pos_as_xyz
  x,y,z
_cell_length_a	6.817900
_cell_length_b	11.102285
_cell_length_c	11.102193
_cell_angle_alpha	91.950782
_cell_angle_beta	108.604059
_cell_angle_gamma	108.605686
loop_
_atom_site_label
_atom_site_type_symbol
_atom_site_fract_x
_atom_site_fract_y
_atom_site_fract_z
V1	V	-4.111518	-0.175849	-0.396264
O2	O	-4.070547	0.008441	-0.388714
O3	O	-4.088299	-0.348670	-0.393560
O4	O	-4.088292	-0.173148	-0.569085
O5	O	-4.070554	-0.168296	-0.211974
V6	V	-4.588621	-0.153806	-0.374220
O7	O	-4.386859	-0.224204	-0.444618
O8	O	-4.763478	-0.105451	-0.325867
O9	O	-4.388634	0.019016	-0.376924
O10	O	-4.746989	-0.338096	-0.381770
O11	O	-4.746983	-0.161359	-0.558511
O12	O	-4.388641	-0.156506	-0.201399
C13	C	-3.938611	-0.390800	-0.387310
C14	C	-4.001081	-0.532084	-0.386252
C15	C	-4.090595	-0.616615	-0.502136
C16	C	-4.149265	-0.749363	-0.501130
C17	C	-4.028905	-0.713037	-0.268344
C18	C	-3.970222	-0.580291	-0.269351
C19	C	-4.183487	-0.948438	-0.635508
C20	C	-4.273042	-1.032976	-0.751400
C21	C	-4.425418	-1.010091	-0.858565
C22	C	-4.488294	-0.902673	-0.849844
C23	C	-4.398760	-0.818142	-0.733950
C24	C	-4.246337	-0.841024	-0.626789
C25	C	-3.936020	-0.381216	-0.134981
C26	C	-3.846499	-0.296683	-0.019087
C27	C	-3.694128	-0.319564	0.088088
C28	C	-3.631278	-0.426985	0.079379
C29	C	-3.720800	-0.511518	-0.036516
C30	C	-3.873163	-0.488627	-0.143691
C31	C	-3.938601	-0.166903	-0.611209
C32	C	-4.001062	-0.165838	-0.752491
C33	C	-4.121395	-0.398618	-0.788827
C34	C	-4.210897	-0.514502	-0.873367
C35	C	-4.269584	-0.513495	-1.006113
C36	C	-4.238769	-0.396590	-1.054320
C37	C	-4.149267	-0.280706	-0.969779
C38	C	-4.090580	-0.281726	-0.837032
C39	C	-4.028949	-0.047930	-0.933445
C40	C	-3.970247	-0.048934	-0.800698
C41	C	-3.998134	0.068975	-0.981652
C42	C	-3.908616	0.184862	-0.897111
C43	C	-3.849926	0.183850	-0.764358
C44	C	-3.880745	0.066950	-0.716158
C45	C	-4.201664	0.061139	-0.383170
C46	C	-4.118434	0.202421	-0.384238
C47	C	-4.201674	-0.162756	-0.159269
C48	C	-4.118451	-0.163814	-0.017985
H49	H	-4.003794	-0.752304	-0.173168
C50	C	-4.303335	-0.395478	-1.200341
C51	C	-4.477821	-0.336957	-1.269517
C52	C	-4.542384	-0.335840	-1.415538
C53	C	-4.432463	-0.393244	-1.492383
C54	C	-4.257966	-0.451768	-1.423207
C55	C	-4.193403	-0.452885	-1.277186
H56	H	-4.559201	-0.294460	-1.212631
H57	H	-4.671559	-0.292516	-1.466747
H58	H	-4.480257	-0.392417	-1.600477
H59	H	-4.176586	-0.494265	-1.480093
H60	H	-4.064228	-0.496209	-1.225978
C61	C	-3.651640	-0.629673	-0.046108
C62	C	-3.750095	-0.722649	-0.173586
C63	C	-3.680930	-0.840799	-0.183181
C64	C	-3.513309	-0.865972	-0.065298
C65	C	-3.414844	-0.772993	0.062190
C66	C	-3.484009	-0.654843	0.071785
H67	H	-3.874187	-0.704017	-0.260858
H68	H	-3.753822	-0.909628	-0.277556
H69	H	-3.462109	-0.953433	-0.072401
H70	H	-3.290752	-0.791625	0.149462
H71	H	-3.411117	-0.586014	0.166160
H72	H	-3.621257	-0.250730	0.182457
H73	H	-4.115737	-0.577371	-0.597324
H74	H	-4.235986	-0.609684	-0.834102
H75	H	-4.449957	-0.730687	-0.726849
H76	H	-3.832950	0.066115	-0.608071
C77	C	-4.368018	-0.640960	-1.099120
C78	C	-4.600196	-0.678327	-1.201553
C79	C	-4.698621	-0.805790	-1.294562
C80	C	-4.564867	-0.895885	-1.285139
C81	C	-4.332675	-0.858521	-1.182702
C82	C	-4.234251	-0.731058	-1.089693
H83	H	-4.699221	-0.611631	-1.208532
H84	H	-4.870505	-0.833449	-1.370393
H85	H	-4.637727	-0.990241	-1.353991
H86	H	-4.233651	-0.925217	-1.175723
H87	H	-4.062367	-0.703399	-1.013862
H88	H	-4.612399	-0.884060	-0.937107
H89	H	-3.507209	-0.445617	0.166650
H90	H	-4.498332	-1.078929	-0.952927
H91	H	-4.221831	-1.120434	-0.758492
H92	H	-4.059388	-0.967073	-0.548258
H93	H	-3.897700	-0.209221	-0.011999
H94	H	-4.060088	-0.362572	-0.222250
H95	H	-4.073585	-0.399449	-0.680739
H96	H	-4.045940	0.069786	-1.089742
H97	H	-3.883549	0.280036	-0.936373
H98	H	-3.777060	0.278217	-0.695531
