data_functionalizedCrystal
_audit_creation_method	'MofGen! by Chris Wilmer'
_symmetry_space_group_name_H-M	'P1'
_symmetry_Int_Tables_number	1
_symmetry_cell_setting	triclinic
loop_
_symmetry_equiv_pos_as_xyz
  x,y,z
_cell_length_a	19.077236
_cell_length_b	29.839132
_cell_length_c	19.077174
_cell_angle_alpha	87.731998
_cell_angle_beta	85.294282
_cell_angle_gamma	87.662196
loop_
_atom_site_label
_atom_site_type_symbol
_atom_site_fract_x
_atom_site_fract_y
_atom_site_fract_z
Zn1	Zn	1.093645	0.162207	-0.441944
Zn2	Zn	1.088789	0.234437	-0.324043
Zn3	Zn	0.971027	0.162214	-0.319327
Zn4	Zn	0.975676	0.240207	-0.437146
O5	O	1.032284	0.199766	-0.380615
O6	O	1.191655	0.169371	-0.430286
O7	O	1.069189	0.222444	-0.224767
O8	O	0.987379	0.099345	-0.335627
O9	O	1.188087	0.222438	-0.343664
O10	O	1.077466	0.099340	-0.425713
O11	O	0.982670	0.169383	-0.221303
O12	O	0.872989	0.174978	-0.330975
O13	O	0.995303	0.232272	-0.536432
O14	O	0.876405	0.232279	-0.417536
O15	O	1.081975	0.174966	-0.539957
O16	O	1.073697	0.298071	-0.339012
O17	O	0.990594	0.302310	-0.422108
C18	C	0.849117	0.204255	-0.373223
C19	C	0.770758	0.206187	-0.370078
C20	C	0.735806	0.179513	-0.413768
C21	C	0.662179	0.181325	-0.410806
C22	C	0.623505	0.209815	-0.364157
C23	C	0.658463	0.236490	-0.320462
C24	C	0.732088	0.234675	-0.323421
C25	C	0.403109	0.218200	-0.350462
C26	C	0.329479	0.220014	-0.347508
C27	C	0.333200	0.164848	-0.437852
C28	C	0.406827	0.163038	-0.440809
C29	C	0.441777	0.189711	-0.397111
N30	N	0.548247	0.211670	-0.361131
N31	N	0.517034	0.187854	-0.400135
C32	C	1.032143	0.316491	-0.380567
C33	C	1.032148	0.366426	-0.380573
C34	C	1.075589	0.673847	-0.337385
C35	C	1.075657	0.861519	-0.337404
O36	O	1.112517	0.883896	-0.300668
N37	N	1.032358	0.887207	-0.380629
C38	C	0.989043	0.865974	-0.423857
O39	O	0.952221	0.892130	-0.460629
C40	C	0.988979	0.678303	-0.423842
C41	C	1.032276	0.652617	-0.380608
C42	C	1.118883	0.648161	-0.294155
C43	C	1.118863	0.601246	-0.294148
C44	C	1.075549	0.580017	-0.337371
C45	C	1.032255	0.605702	-0.380601
C46	C	0.945668	0.657072	-0.467072
C47	C	0.945657	0.610151	-0.467066
C48	C	0.988953	0.584465	-0.423832
C49	C	0.988921	0.537558	-0.423816
N50	N	1.032220	0.511870	-0.380590
C51	C	1.075534	0.533099	-0.337368
C52	C	0.989078	0.964504	-0.423861
C53	C	0.989093	1.011422	-0.423864
C54	C	1.075709	1.006963	-0.337411
C55	C	1.075690	0.960044	-0.337405
C56	C	1.032377	0.938816	-0.380635
C57	C	1.075488	0.434574	-0.337356
C58	C	1.075462	0.387655	-0.337350
C59	C	0.988849	0.392118	-0.423805
C60	C	0.988872	0.439033	-0.423808
C61	C	1.032197	0.460260	-0.380581
O62	O	0.952087	0.515151	-0.460539
O63	O	1.112362	0.506936	-0.300613
C64	C	1.075610	0.720762	-0.337392
C65	C	1.032316	0.746448	-0.380622
C66	C	0.989002	0.725218	-0.423845
C67	C	1.032331	0.793365	-0.380625
C68	C	1.075645	0.814595	-0.337402
C69	C	1.118944	0.788906	-0.294176
C70	C	1.118923	0.741991	-0.294169
C71	C	0.945703	0.750907	-0.467070
C72	C	0.945727	0.797822	-0.467073
C73	C	0.989040	0.819051	-0.423851
C74	C	1.216167	0.195260	-0.388036
C75	C	1.294526	0.193340	-0.391199
C76	C	1.039699	0.204262	-0.564489
C77	C	1.042859	0.206178	-0.642845
C78	C	1.032419	1.082586	-0.380663
C79	C	1.032407	1.032651	-0.380641
C80	C	0.999300	0.179452	-0.677852
C81	C	1.002266	0.181255	-0.751476
C82	C	1.048796	0.209783	-0.790091
C83	C	1.092357	0.236512	-0.755079
C84	C	1.089387	0.234710	-0.681456
C85	C	1.062506	0.218136	-1.010473
C86	C	1.065475	0.219935	-1.084100
C87	C	0.975382	0.164679	-1.080493
C88	C	0.972419	0.162878	-1.006869
C89	C	1.015978	0.189608	-0.971863
N90	N	1.051830	0.211627	-0.865347
N91	N	1.012939	0.187767	-0.896609
C92	C	1.024939	0.195255	-0.197458
C93	C	1.021915	0.193209	-0.119108
H94	H	0.760545	0.256396	-0.287843
Br95	Br	0.936154	0.140730	-0.625454
H96	H	1.124863	0.256470	-0.652954
H97	H	1.110946	0.939133	-0.302201
H98	H	0.431557	0.239920	-0.314881
H99	H	1.110719	0.366743	-0.302142
H100	H	1.110769	0.451851	-0.302158
H101	H	0.767288	0.156315	-0.451756
H102	H	0.626969	0.259685	-0.282476
H103	H	0.966792	0.159494	-0.779976
Br104	Br	1.177636	0.566394	-0.235481
H105	H	1.154158	0.665441	-0.258958
Br106	Br	0.909273	0.124158	-0.954468
H107	H	0.304735	0.143132	-0.473427
H108	H	1.097967	0.239907	-0.981979
H109	H	1.110977	1.024255	-0.302218
H110	H	1.103368	0.243166	-1.115539
Br111	Br	0.614746	0.145123	-0.470103
Br112	Br	0.459307	0.124376	-0.504127
Br113	Br	0.930320	1.046275	-0.482530
H114	H	0.953806	0.947223	-0.459065
H115	H	0.297993	0.243216	-0.309521
H116	H	0.910408	0.677977	-0.502275
Br117	Br	0.886875	0.581344	-0.525742
H118	H	1.130239	0.259742	-0.786525
H119	H	0.953619	0.459948	-0.459015
Br120	Br	0.916269	0.128405	-1.128005
H121	H	0.953581	0.374826	-0.458995
H122	H	1.154180	0.721081	-0.258964
H123	H	1.154209	0.806199	-0.258981
H124	H	0.910463	0.818731	-0.502279
H125	H	0.910433	0.733626	-0.502269
