data_functionalizedCrystal
_audit_creation_method	'MofGen! by Chris Wilmer'
_symmetry_space_group_name_H-M	'P1'
_symmetry_Int_Tables_number	1
_symmetry_cell_setting	triclinic
loop_
_symmetry_equiv_pos_as_xyz
  x,y,z
_cell_length_a	12.645331
_cell_length_b	25.639239
_cell_length_c	12.645323
_cell_angle_alpha	89.968126
_cell_angle_beta	89.977324
_cell_angle_gamma	90.037665
loop_
_atom_site_label
_atom_site_type_symbol
_atom_site_fract_x
_atom_site_fract_y
_atom_site_fract_z
Zn1	Zn	1.620577	-0.208161	-0.599395
Zn2	Zn	1.620393	-0.295600	-0.422113
Zn3	Zn	1.443291	-0.208179	-0.422139
Zn4	Zn	1.443208	-0.295566	-0.599328
O5	O	1.531867	-0.251876	-0.510744
O6	O	1.768900	-0.219767	-0.575895
O7	O	1.596858	-0.284025	-0.273769
O8	O	1.466920	-0.135011	-0.445691
O9	O	1.768765	-0.284008	-0.445647
O10	O	1.597171	-0.134998	-0.575920
O11	O	1.466742	-0.219797	-0.273788
O12	O	1.294933	-0.219764	-0.445627
O13	O	1.466778	-0.283949	-0.747685
O14	O	1.294872	-0.283967	-0.575807
O15	O	1.597090	-0.219734	-0.747733
O16	O	1.596778	-0.368760	-0.445582
O17	O	1.466600	-0.368735	-0.575782
C18	C	1.256438	-0.251864	-0.510713
C19	C	1.138607	-0.251871	-0.510725
C20	C	1.531689	-0.387719	-0.510695
C21	C	1.531710	-0.445833	-0.510710
C22	C	0.971047	-0.211295	-0.429281
C23	C	1.093606	-0.211400	-0.428922
C24	C	1.094046	-0.306949	-0.480197
C25	C	0.971448	-0.306727	-0.479641
C26	C	0.971468	-0.237893	-0.623013
C27	C	1.094075	-0.236663	-0.622389
C28	C	1.599827	-0.806196	-0.443064
C29	C	1.599869	-0.860801	-0.443079
O30	O	1.657600	-0.889038	-0.385511
N31	N	1.532054	-0.888115	-0.510814
C32	C	1.464201	-0.860823	-0.578547
O33	O	1.406523	-0.889070	-0.636163
C34	C	1.464166	-0.806219	-0.578538
C35	C	1.531978	-0.778908	-0.510790
C36	C	1.667635	-0.778884	-0.375323
C37	C	1.667592	-0.724284	-0.375308
C38	C	1.599742	-0.696995	-0.443034
C39	C	1.531935	-0.724307	-0.510775
C40	C	1.396319	-0.778928	-0.646275
C41	C	1.396290	-0.724321	-0.646260
C42	C	1.464102	-0.697009	-0.578513
C43	C	1.464042	-0.642418	-0.578485
N44	N	1.531857	-0.615103	-0.510750
C45	C	1.599707	-0.642392	-0.443024
C46	C	1.464281	-0.975493	-0.578564
C47	C	1.464309	-1.030096	-0.578569
C48	C	1.599979	-1.030070	-0.443101
C49	C	1.599944	-0.975466	-0.443092
C50	C	1.532096	-0.948179	-0.510828
C51	C	1.599611	-0.527727	-0.442997
C52	C	1.599560	-0.473122	-0.442984
C53	C	1.463894	-0.473152	-0.578455
C54	C	1.463942	-0.527753	-0.578464
C55	C	1.531809	-0.555039	-0.510731
O56	O	1.406343	-0.614146	-0.636027
O57	O	1.657385	-0.614138	-0.385428
C58	C	1.808372	-0.251889	-0.510775
C59	C	1.926203	-0.251895	-0.510788
C60	C	1.531945	-0.251836	-0.787249
C61	C	1.531979	-0.251819	-0.905079
C62	C	1.532075	-0.115503	-0.510816
C63	C	1.532164	-0.057389	-0.510846
C64	C	1.449747	-0.292026	-1.072613
C65	C	1.449962	-0.292225	-0.950053
C66	C	1.643667	-0.266773	-0.949595
C67	C	1.643216	-0.267025	-1.072194
C68	C	1.503578	-0.196432	-1.072291
C69	C	1.501086	-0.196764	-0.949684
C70	C	1.531850	-0.251879	-0.235314
C71	C	1.532023	-0.251749	-0.117485
H72	H	0.941613	-0.170330	-0.448212
O73	O	1.673165	-1.059511	-0.370058
H74	H	1.720314	-1.031350	-0.322942
H75	H	1.423555	-0.182801	-1.103198
H76	H	1.124713	-0.264076	-0.686368
H77	H	0.940192	-0.220447	-0.346607
O78	O	0.932129	-0.348150	-0.554843
H79	H	0.961595	-0.339665	-0.635740
H80	H	1.409021	-0.953278	-0.633720
H81	H	1.556637	-0.165168	-0.919071
H82	H	1.418894	-0.185486	-0.920588
H83	H	1.122877	-0.220654	-0.345759
O84	O	1.676167	-0.319778	-0.908949
H85	H	1.612958	-0.335555	-0.857056
H86	H	1.563505	-0.166423	-1.101312
O87	O	1.133519	-0.157296	-0.454238
H88	H	1.104460	-0.145406	-0.533473
H89	H	0.940601	-0.198432	-0.650774
O90	O	1.727147	-0.229857	-1.111575
H91	H	1.805677	-0.242569	-1.082088
O92	O	1.132649	-0.348095	-0.556355
H93	H	1.184133	-0.329680	-0.616914
H94	H	1.706611	-0.238364	-0.920467
H95	H	1.722892	-0.801097	-0.320173
H96	H	1.124693	-0.319027	-0.399035
H97	H	0.942793	-0.318601	-0.397599
O98	O	1.132664	-0.182976	-0.652898
H99	H	1.183355	-0.167187	-0.588809
O100	O	0.933050	-0.277056	-0.703469
H101	H	0.881964	-0.306352	-0.663789
H102	H	1.341094	-0.801156	-0.701438
O103	O	1.675152	-0.320588	-1.110090
H104	H	1.610307	-0.337536	-1.158229
O105	O	1.474352	-0.346002	-1.113468
H106	H	1.555017	-0.357460	-1.087888
H107	H	1.654780	-0.450886	-0.387812
H108	H	1.654878	-0.549937	-0.387844
H109	H	1.722813	-0.702050	-0.320146
H110	H	1.655163	-0.953232	-0.387927
H111	H	1.409080	-1.052328	-0.633725
H112	H	1.341041	-0.702106	-0.701423
H113	H	1.408727	-0.549991	-0.633633
O114	O	1.339704	-0.279752	-1.111638
H115	H	1.342473	-0.244815	-1.163440
H116	H	1.408649	-0.450925	-0.633594
H117	H	1.367140	-0.282867	-0.919953
H118	H	1.468736	-0.333234	-0.920729
