data_functionalizedCrystal
_audit_creation_method	'MofGen! by Chris Wilmer'
_symmetry_space_group_name_H-M	'P1'
_symmetry_Int_Tables_number	1
_symmetry_cell_setting	triclinic
loop_
_symmetry_equiv_pos_as_xyz
  x,y,z
_cell_length_a	12.759401
_cell_length_b	13.897447
_cell_length_c	12.759393
_cell_angle_alpha	89.969000
_cell_angle_beta	89.980324
_cell_angle_gamma	90.019956
loop_
_atom_site_label
_atom_site_type_symbol
_atom_site_fract_x
_atom_site_fract_y
_atom_site_fract_z
Zn1	Zn	1.606231	-0.383957	-0.593981
Zn2	Zn	2.106231	0.116043	-0.093981
Zn3	Zn	1.606107	-0.545284	-0.418300
Zn4	Zn	2.106107	-0.045284	0.081700
Zn5	Zn	1.430530	-0.384005	-0.418320
Zn6	Zn	1.930530	0.115995	0.081680
Zn7	Zn	1.430507	-0.545213	-0.593941
Zn8	Zn	1.930507	-0.045213	-0.093941
O9	O	1.518344	-0.464615	-0.506135
O10	O	2.018344	0.035385	-0.006135
O11	O	1.753236	-0.405367	-0.570685
O12	O	2.253236	0.094633	-0.070685
O13	O	1.582774	-0.523939	-0.271281
O14	O	2.082774	-0.023939	0.228719
O15	O	1.453898	-0.249017	-0.441647
O16	O	1.953898	0.250983	0.058353
O17	O	1.753145	-0.523893	-0.441612
O18	O	2.253145	-0.023893	0.058388
O19	O	1.582985	-0.248982	-0.570705
O20	O	2.082985	0.251018	-0.070705
O21	O	1.453778	-0.405449	-0.271296
O22	O	1.953778	0.094551	0.228704
O23	O	1.283506	-0.405381	-0.441608
O24	O	1.783506	0.094619	0.058392
O25	O	1.453859	-0.523773	-0.740967
O26	O	1.953859	-0.023773	-0.240967
O27	O	1.283489	-0.523819	-0.570636
O28	O	1.783489	-0.023819	-0.070636
O29	O	1.582963	-0.405299	-0.740997
O30	O	2.082963	0.094701	-0.240997
O31	O	1.582752	-0.680256	-0.441573
O32	O	2.082752	-0.180256	0.058427
O33	O	1.453739	-0.680204	-0.570616
O34	O	1.953739	-0.180204	-0.070616
C35	C	1.245376	-0.464598	-0.506121
C36	C	1.745376	0.035402	-0.006121
C37	C	1.128600	-0.464614	-0.506139
C38	C	1.628600	0.035386	-0.006139
C39	C	1.073786	-0.403010	-0.573451
C40	C	1.573786	0.096990	-0.073451
C41	C	0.964062	-0.403019	-0.573458
C42	C	1.464062	0.096981	-0.073458
C43	C	0.963975	-0.526247	-0.438838
C44	C	1.463975	-0.026247	0.061162
C45	C	1.073697	-0.526232	-0.438827
C46	C	1.573697	-0.026232	0.061173
C47	C	1.518258	-0.715229	-0.506111
C48	C	2.018258	-0.215229	-0.006111
C49	C	1.518318	-0.822443	-0.506136
C50	C	2.018318	-0.322443	-0.006136
C51	C	1.518369	-0.909513	-0.506160
C52	C	2.018369	-0.409513	-0.006160
C53	C	1.518442	-1.018745	-0.506187
C54	C	2.018442	-0.518745	-0.006187
C55	C	1.792377	-0.464632	-0.506151
C56	C	2.292377	0.035368	-0.006151
C57	C	1.909154	-0.464640	-0.506157
C58	C	2.409154	0.035360	-0.006157
C59	C	1.518422	-0.464522	-0.780169
C60	C	2.018422	0.035478	-0.280169
C61	C	1.518456	-0.464483	-0.896946
C62	C	2.018456	0.035517	-0.396946
C63	C	1.518458	-0.213022	-0.506183
C64	C	2.018458	0.286978	-0.006183
C65	C	1.518507	-0.105808	-0.506203
C66	C	2.018507	0.394192	-0.006203
C67	C	1.585685	-0.402784	-0.951825
C68	C	2.085685	0.097216	-0.451825
C69	C	1.585703	-0.402742	-1.061549
C70	C	2.085703	0.097258	-0.561549
C71	C	1.451259	-0.526107	-1.061505
C72	C	1.951259	-0.026107	-0.561505
C73	C	1.451237	-0.526143	-0.951783
C74	C	1.951237	-0.026143	-0.451783
C75	C	1.518326	-0.464638	-0.233168
C76	C	2.018326	0.035362	0.266832
C77	C	1.518496	-0.464405	-0.116392
C78	C	2.018496	0.035595	0.383608
H79	H	0.919437	-0.352853	-0.628268
H80	H	1.419437	0.147147	-0.128268
C81	C	0.904175	-0.593114	-0.365882
C82	C	1.404175	-0.093114	0.134118
C83	C	0.796352	-0.579963	-0.380318
C84	C	1.296352	-0.079963	0.119682
C85	C	0.741235	-0.641557	-0.313140
C86	C	1.241235	-0.141557	0.186860
H87	H	0.922000	-0.578979	-0.295273
H88	H	1.422000	-0.078979	0.204727
H89	H	0.922091	-0.657959	-0.381144
H90	H	1.422091	-0.157959	0.118856
H91	H	0.778443	-0.515133	-0.365049
H92	H	1.278443	-0.015133	0.134951
H93	H	0.778496	-0.594106	-0.450914
H94	H	1.278496	-0.094106	0.049086
H95	H	0.759151	-0.706402	-0.328402
H96	H	1.259151	-0.206402	0.171598
H97	H	0.759068	-0.627416	-0.242535
H98	H	1.259068	-0.127416	0.257465
H99	H	0.668071	-0.632649	-0.322933
H100	H	1.168071	-0.132649	0.177067
C101	C	1.133029	-0.593228	-0.365702
C102	C	1.633029	-0.093228	0.134298
C103	C	1.061466	-0.647217	-0.306781
C104	C	1.561466	-0.147217	0.193219
C105	C	1.116084	-0.708946	-0.239419
C106	C	1.616084	-0.208946	0.260581
H107	H	1.175822	-0.556378	-0.319899
H108	H	1.675822	-0.056378	0.180101
H109	H	1.175819	-0.635345	-0.405785
H110	H	1.675819	-0.135345	0.094215
H111	H	1.018694	-0.605106	-0.266701
H112	H	1.518694	-0.105106	0.233299
H113	H	1.018670	-0.684087	-0.352556
H114	H	1.518670	-0.184087	0.147444
H115	H	1.158874	-0.751063	-0.279502
H116	H	1.658874	-0.251063	0.220498
H117	H	1.158875	-0.672088	-0.193623
H118	H	1.658875	-0.172088	0.306377
H119	H	1.067537	-0.745592	-0.199440
H120	H	1.567537	-0.245592	0.300560
H121	H	1.118484	-0.352834	-0.628257
H122	H	1.618484	0.147166	-0.128257
H123	H	1.640416	-0.352573	-0.907179
H124	H	2.140416	0.147427	-0.407179
C125	C	1.658814	-0.335719	-1.120942
C126	C	2.158814	0.164281	-0.620942
C127	C	1.717690	-0.281748	-1.049429
C128	C	2.217690	0.218252	-0.549429
C129	C	1.785062	-0.220002	-1.104103
C130	C	2.285062	0.279998	-0.604103
H131	H	1.618772	-0.293584	-1.163749
H132	H	2.118772	0.206416	-0.663749
H133	H	1.704636	-0.372587	-1.163724
H134	H	2.204636	0.127413	-0.663724
H135	H	1.671874	-0.244883	-1.006666
H136	H	2.171874	0.255117	-0.506666
H137	H	1.757753	-0.323857	-1.006620
H138	H	2.257753	0.176143	-0.506620
H139	H	1.830884	-0.256870	-1.146884
H140	H	2.330884	0.243130	-0.646884
H141	H	1.745012	-0.177874	-1.146908
H142	H	2.245012	0.322126	-0.646908
H143	H	1.825024	-0.183382	-1.055590
H144	H	2.325024	0.316618	-0.555590
C145	C	1.378402	-0.593019	-1.121235
C146	C	1.878402	-0.093019	-0.621235
C147	C	1.392830	-0.579803	-1.229072
C148	C	1.892830	-0.079803	-0.729072
C149	C	1.325743	-0.641437	-1.284125
C150	C	1.825743	-0.141437	-0.784125
H151	H	1.307772	-0.578963	-1.103374
H152	H	1.807772	-0.078963	-0.603374
H153	H	1.393754	-0.657857	-1.103302
H154	H	1.893754	-0.157857	-0.603302
H155	H	1.377471	-0.514979	-1.246998
H156	H	1.877471	-0.014979	-0.746998
H157	H	1.463447	-0.593866	-1.246964
H158	H	1.963447	-0.093866	-0.746964
H159	H	1.341094	-0.706275	-1.266191
H160	H	1.841094	-0.206275	-0.766191
H161	H	1.255117	-0.627376	-1.266255
H162	H	1.755117	-0.127376	-0.766255
H163	H	1.335530	-0.632484	-1.357297
H164	H	1.835530	-0.132484	-0.857297
H165	H	1.396483	-0.576385	-0.907099
H166	H	1.896483	-0.076385	-0.407099
