data_functionalizedCrystal
_audit_creation_method	'MofGen! by Chris Wilmer'
_symmetry_space_group_name_H-M	'P1'
_symmetry_Int_Tables_number	1
_symmetry_cell_setting	triclinic
loop_
_symmetry_equiv_pos_as_xyz
  x,y,z
_cell_length_a	14.908520
_cell_length_b	18.215407
_cell_length_c	18.215399
_cell_angle_alpha	90.017777
_cell_angle_beta	93.269364
_cell_angle_gamma	86.683764
loop_
_atom_site_label
_atom_site_type_symbol
_atom_site_fract_x
_atom_site_fract_y
_atom_site_fract_z
Zn1	Zn	-0.359273	-1.108172	-0.432983
Zn2	Zn	-0.510141	-1.100984	-0.317016
Zn3	Zn	-0.359290	-0.985104	-0.309935
Zn4	Zn	-0.510078	-0.977977	-0.440043
O5	O	-0.434695	-1.043059	-0.374994
O6	O	-0.379305	-1.210202	-0.417608
O7	O	-0.490164	-1.085587	-0.213094
O8	O	-0.233043	-1.007420	-0.320340
O9	O	-0.490147	-1.204921	-0.332408
O10	O	-0.233031	-1.097838	-0.410742
O11	O	-0.379334	-1.000450	-0.207892
O12	O	-0.379273	-0.881175	-0.327186
O13	O	-0.490040	-0.995273	-0.542089
O14	O	-0.490057	-0.875939	-0.422775
O15	O	-0.379244	-1.090927	-0.536902
O16	O	-0.636377	-1.078676	-0.339254
O17	O	-0.636331	-0.988303	-0.429641
C18	C	-0.434660	-0.851855	-0.374979
C19	C	-0.434667	-0.770055	-0.374990
C20	C	-0.377063	-0.584605	-0.419432
C21	C	-0.377068	-0.507746	-0.419434
C22	C	-0.492314	-0.502266	-0.330562
C23	C	-0.492304	-0.579124	-0.330556
C24	C	-0.434680	-0.620291	-0.374996
C25	C	-0.434695	-0.466575	-0.375003
C26	C	-0.434700	-0.383241	-0.375005
C27	C	-0.434673	-0.703631	-0.374993
C28	C	-0.669088	-1.031956	-0.385998
C29	C	-0.769362	-1.027273	-0.390730
C30	C	-0.957775	-1.112676	-0.305578
C31	C	-1.051991	-1.108279	-0.310022
C32	C	-1.052013	-1.014086	-0.404065
C33	C	-0.957797	-1.018483	-0.399621
C34	C	-0.910681	-1.067779	-0.350375
C35	C	-0.816463	-1.072172	-0.345928
C36	C	-0.816486	-0.977983	-0.439974
C37	C	-0.910703	-0.973586	-0.444418
C38	C	-0.199388	-1.054226	-0.363964
C39	C	-0.099114	-1.058984	-0.359263
C40	C	-0.434633	-1.043107	-0.566944
C41	C	-0.434607	-1.043127	-0.648742
C42	C	-0.434722	-0.235011	-0.375009
C43	C	-0.434708	-0.316810	-0.375009
C44	C	-0.376861	-1.092954	-0.834234
C45	C	-0.376835	-1.092964	-0.911092
C46	C	-0.492213	-0.993360	-0.916482
C47	C	-0.492234	-0.993347	-0.839625
C48	C	-0.434559	-1.043148	-0.798504
C49	C	-0.434512	-1.043171	-0.952217
C50	C	-0.434484	-1.043181	-1.035550
C51	C	-0.434586	-1.043137	-0.715166
C52	C	-0.434692	-1.043057	-0.183788
C53	C	-0.434465	-1.043191	-0.101979
H54	H	-0.778102	-1.112309	-0.305828
H55	H	-0.539218	-0.952783	-0.810533
C56	C	-0.313687	-0.468495	-0.468320
N57	N	-0.265945	-0.438932	-0.505143
C58	C	-0.313667	-0.629887	-0.468310
N59	N	-0.265911	-0.663992	-0.505123
C60	C	-0.313364	-1.147756	-0.950391
N61	N	-0.265556	-1.189028	-0.979992
H62	H	-0.539231	-0.468738	-0.294382
C63	C	-1.103791	-1.157666	-0.260739
N64	N	-1.142807	-1.194867	-0.223616
C65	C	-0.905945	-1.166900	-0.251407
N66	N	-0.866909	-1.207743	-0.210604
H67	H	-0.539224	-0.608180	-0.294367
H68	H	-0.329897	-1.133503	-0.800755
H69	H	-0.539171	-0.952815	-0.949972
H70	H	-1.090391	-0.973956	-0.444163
H71	H	-0.949077	-0.933453	-0.484515
H72	H	-0.778132	-0.941423	-0.476449
