data_functionalizedCrystal
_audit_creation_method	'MofGen! by Chris Wilmer'
_symmetry_space_group_name_H-M	'P1'
_symmetry_Int_Tables_number	1
_symmetry_cell_setting	triclinic
loop_
_symmetry_equiv_pos_as_xyz
  x,y,z
_cell_length_a	19.077442
_cell_length_b	19.805407
_cell_length_c	19.805399
_cell_angle_alpha	89.978936
_cell_angle_beta	92.323360
_cell_angle_gamma	92.274928
loop_
_atom_site_label
_atom_site_type_symbol
_atom_site_fract_x
_atom_site_fract_y
_atom_site_fract_z
Zn1	Zn	-0.280232	-1.045566	0.371937
Zn2	Zn	0.219768	-0.545566	0.871937
Zn3	Zn	-0.397929	-1.050030	0.254209
Zn4	Zn	0.102071	-0.550030	0.754209
Zn5	Zn	-0.280249	-0.932381	0.258758
Zn6	Zn	0.219751	-0.432381	0.758758
Zn7	Zn	-0.397889	-0.936891	0.367355
Zn8	Zn	0.102111	-0.436891	0.867355
O9	O	-0.339075	-0.991217	0.313065
O10	O	0.160925	-0.491217	0.813065
O11	O	-0.295854	-1.140875	0.356335
O12	O	0.204146	-0.640875	0.856335
O13	O	-0.382342	-1.034404	0.160095
O14	O	0.117658	-0.534404	0.660095
O15	O	-0.181758	-0.943640	0.277594
O16	O	0.318242	-0.443640	0.777594
O17	O	-0.382325	-1.144154	0.269840
O18	O	0.117675	-0.644154	0.769840
O19	O	-0.181745	-1.026796	0.360746
O20	O	0.318255	-0.526796	0.860746
O21	O	-0.295883	-0.947968	0.163437
O22	O	0.204117	-0.447968	0.663437
O23	O	-0.295845	-0.838263	0.273150
O24	O	0.204155	-0.338263	0.773150
O25	O	-0.382258	-0.951327	0.462680
O26	O	0.117742	-0.451327	0.962680
O27	O	-0.382275	-0.841576	0.352935
O28	O	0.117725	-0.341576	0.852935
O29	O	-0.295816	-1.031169	0.466047
O30	O	0.204184	-0.531169	0.966047
O31	O	-0.496413	-1.038777	0.265397
O32	O	0.003587	-0.538777	0.765397
O33	O	-0.496384	-0.955655	0.348524
O34	O	0.003616	-0.455655	0.848524
C35	C	-0.339058	-0.815360	0.313039
C36	C	0.160942	-0.315360	0.813039
C37	C	-0.339068	-0.740129	0.313044
C38	C	0.160932	-0.240129	0.813044
C39	C	-0.384139	-0.706530	0.354514
C40	C	0.115861	-0.206530	0.854514
C41	C	-0.384139	-0.635842	0.354522
C42	C	0.115861	-0.135842	0.854522
C43	C	-0.339071	-0.598753	0.313055
C44	C	0.160929	-0.098753	0.813055
C45	C	-0.293995	-0.632357	0.271583
C46	C	0.206005	-0.132357	0.771583
C47	C	-0.293992	-0.703044	0.271579
C48	C	0.206008	-0.203044	0.771579
C49	C	-0.294005	-0.347284	0.271597
C50	C	0.205995	0.152716	0.771597
C51	C	-0.294013	-0.276592	0.271603
C52	C	0.205987	0.223408	0.771603
C53	C	-0.384152	-0.280082	0.354540
C54	C	0.115848	0.219918	0.854540
C55	C	-0.384149	-0.350769	0.354536
C56	C	0.115851	0.149231	0.854536
C57	C	-0.339071	-0.384366	0.313067
C58	C	0.160929	0.115634	0.813067
C59	C	-0.339071	-0.461014	0.313060
C60	C	0.160929	0.038986	0.813060
C61	C	-0.339074	-0.522106	0.313058
C62	C	0.160926	-0.022106	0.813058
C63	C	-0.521936	-0.998208	0.305984
C64	C	-0.021936	-0.498208	0.805984
C65	C	-0.600164	-1.001261	0.302978
C66	C	-0.100164	-0.501261	0.802978
C67	C	-1.040508	-1.023108	0.281394
C68	C	-0.540508	-0.523108	0.781394
C69	C	-0.967004	-1.020234	0.284220
C70	C	-0.467004	-0.520234	0.784220
C71	C	-0.930264	-0.975489	0.328880
C72	C	-0.430264	-0.475489	0.828880
C73	C	-0.967033	-0.933610	0.370712
C74	C	-0.467033	-0.433610	0.870712
C75	C	-1.040536	-0.936482	0.367882
C76	C	-0.540536	-0.436482	0.867882
C77	C	-0.710436	-0.962254	0.341979
C78	C	-0.210436	-0.462254	0.841979
C79	C	-0.636928	-0.959387	0.344808
C80	C	-0.136928	-0.459387	0.844808
C81	C	-0.636903	-1.046010	0.258314
C82	C	-0.136903	-0.546010	0.758314
C83	C	-0.710408	-1.048880	0.255491
C84	C	-0.210408	-0.548880	0.755491
C85	C	-0.747170	-1.006999	0.297320
C86	C	-0.247170	-0.506999	0.797320
N87	N	-0.855131	-0.972551	0.331772
N88	N	-0.355131	-0.472551	0.831772
N89	N	-0.822302	-1.009934	0.294425
N90	N	-0.322302	-0.509934	0.794425
C91	C	-0.155500	-0.984217	0.320188
C92	C	0.344500	-0.484217	0.820188
C93	C	-0.077271	-0.981234	0.323224
C94	C	0.422729	-0.481234	0.823224
C95	C	-0.339031	-0.991253	0.489610
C96	C	0.160969	-0.491253	0.989610
C97	C	-0.339012	-0.991269	0.564842
C98	C	0.160988	-0.491269	1.064842
C99	C	-0.339088	-0.167760	0.313085
C100	C	0.160912	0.332240	0.813085
C101	C	-0.339081	-0.242992	0.313077
C102	C	0.160919	0.257008	0.813077
C103	C	-0.339068	-0.991218	0.137209
C104	C	0.160932	-0.491218	0.637209
C105	C	-0.338889	-0.991326	0.061985
C106	C	0.161111	-0.491326	0.561985
C107	C	-0.293999	-1.032844	0.601941
C108	C	0.206001	-0.532844	1.101941
C109	C	-0.293978	-1.032850	0.672630
C110	C	0.206022	-0.532850	1.172630
C111	C	-0.338975	-0.991284	0.706219
C112	C	0.161025	-0.491284	1.206219
C113	C	-0.383990	-0.949704	0.669116
C114	C	0.116010	-0.449704	1.169116
C115	C	-0.384006	-0.949695	0.598428
C116	C	0.115994	-0.449695	1.098428
C117	C	-0.383924	-0.949740	0.954192
C118	C	0.116076	-0.449740	1.454192
C119	C	-0.383906	-0.949754	1.024885
C120	C	0.116094	-0.449754	1.524885
C121	C	-0.293896	-1.032895	1.028394
C122	C	0.206104	-0.532895	1.528394
C123	C	-0.293913	-1.032886	0.957706
C124	C	0.206087	-0.532886	1.457706
C125	C	-0.338925	-0.991304	0.920609
C126	C	0.161075	-0.491304	1.420609
C127	C	-0.338945	-0.991296	0.843960
C128	C	0.161055	-0.491296	1.343960
C129	C	-0.338958	-0.991294	0.782867
C130	C	0.161042	-0.491294	1.282867
H131	H	-0.257297	-0.602153	0.237823
H132	H	0.242703	-0.102153	0.737823
O133	O	-0.250137	-0.735709	0.231391
O134	O	0.249863	-0.235709	0.731391
C135	C	-0.204740	-0.774889	0.271752
C136	C	0.295260	-0.274889	0.771752
H137	H	-0.200467	-0.753447	0.325235
H138	H	0.299533	-0.253447	0.825235
H139	H	-0.150543	-0.773605	0.249456
H140	H	0.349457	-0.273605	0.749456
H141	H	-0.226500	-0.829296	0.273203
H142	H	0.273500	-0.329296	0.773203
H143	H	-0.257309	-0.246396	0.237835
H144	H	0.242691	0.253604	0.737835
H145	H	-0.257360	-1.066694	0.574598
H146	H	0.242640	-0.566694	1.074598
O147	O	-0.428036	-0.247480	0.394758
O148	O	0.071964	0.252520	0.894758
C149	C	-0.498161	-0.267442	0.377150
C150	C	0.001839	0.232558	0.877150
H151	H	-0.501641	-0.286977	0.322934
H152	H	-0.001641	0.213023	0.822934
H153	H	-0.532943	-0.222289	0.381588
H154	H	-0.032943	0.277711	0.881588
H155	H	-0.516604	-0.309198	0.412688
H156	H	-0.016604	0.190802	0.912688
O157	O	-0.601202	-0.916016	0.388264
O158	O	-0.101202	-0.416016	0.888264
C159	C	-0.558616	-0.952870	0.433642
C160	C	-0.058616	-0.452870	0.933642
H161	H	-0.580726	-1.007036	0.437023
H162	H	-0.080726	-0.507036	0.937023
H163	H	-0.557764	-0.928327	0.485740
H164	H	-0.057764	-0.428327	0.985740
H165	H	-0.502922	-0.953049	0.414856
H166	H	-0.002922	-0.453049	0.914856
H167	H	-0.740359	-0.928147	0.376034
H168	H	-0.240359	-0.428147	0.876034
O169	O	-0.931238	-0.890204	0.414078
O170	O	-0.431238	-0.390204	0.914078
C171	C	-0.858479	-0.896637	0.407597
C172	C	-0.358479	-0.396637	0.907597
H173	H	-0.848405	-0.948490	0.385865
H174	H	-0.348405	-0.448490	0.885865
H175	H	-0.830520	-0.890927	0.459369
H176	H	-0.330520	-0.390927	0.959369
H177	H	-0.837676	-0.855697	0.372317
H178	H	-0.337676	-0.355697	0.872317
O179	O	-0.427821	-0.742626	0.394833
O180	O	0.072179	-0.242626	0.894833
C181	C	-0.387807	-0.781989	0.440171
C182	C	0.112193	-0.281989	0.940171
H183	H	-0.334438	-0.790527	0.418447
H184	H	0.165562	-0.290527	0.918447
H185	H	-0.416485	-0.832796	0.448085
H186	H	0.083515	-0.332796	0.948085
H187	H	-0.380141	-0.754473	0.490640
H188	H	0.119859	-0.254473	0.990640
O189	O	-0.250195	-0.379808	0.231253
O190	O	0.249805	0.120192	0.731253
C191	C	-0.210408	-0.331912	0.194669
C192	C	0.289592	0.168088	0.694669
H193	H	-0.239241	-0.282630	0.191162
H194	H	0.260759	0.217370	0.691162
H195	H	-0.202818	-0.352023	0.141646
H196	H	0.297182	0.147977	0.641646
H197	H	-0.156992	-0.322354	0.221613
H198	H	0.343008	0.177646	0.721613
H199	H	-1.070468	-0.902387	0.401948
H200	H	-0.570468	-0.402387	0.901948
O201	O	-0.250172	-1.073134	0.708696
O202	O	0.249828	-0.573134	1.208696
C203	C	-0.204707	-1.032869	0.751345
C204	C	0.295293	-0.532869	1.251345
H205	H	-0.200369	-0.979391	0.730199
H206	H	0.299631	-0.479391	1.230199
H207	H	-0.150543	-1.055279	0.754244
H208	H	0.349457	-0.555279	1.254244
H209	H	-0.226444	-1.031376	0.804077
H210	H	0.273556	-0.531376	1.304077
O211	O	-0.250136	-1.073281	0.925185
O212	O	0.249864	-0.573281	1.425185
C213	C	-0.210413	-1.109991	0.973088
C214	C	0.289587	-0.609991	1.473088
H215	H	-0.207962	-1.082182	1.023566
H216	H	0.292038	-0.582182	1.523566
H217	H	-0.154966	-1.115091	0.954818
H218	H	0.345034	-0.615091	1.454818
H219	H	-0.236188	-1.162381	0.979615
H220	H	0.263812	-0.662381	1.479615
O221	O	-0.250186	-1.073220	1.064535
O222	O	0.249814	-0.573220	1.564535
C223	C	-0.259826	-1.064328	1.134129
C224	C	0.240174	-0.564328	1.634129
H225	H	-0.282868	-1.012973	1.142879
H226	H	0.217132	-0.512973	1.642879
H227	H	-0.207100	-1.066914	1.163038
H228	H	0.292900	-0.566914	1.663038
H229	H	-0.297305	-1.105907	1.152745
H230	H	0.202695	-0.605907	1.652745
O231	O	-0.427637	-0.909308	1.057409
O232	O	0.072363	-0.409308	1.557409
C233	C	-0.467381	-0.872615	1.009509
C234	C	0.032619	-0.372615	1.509509
H235	H	-0.438566	-0.869164	0.960238
H236	H	0.061434	-0.369164	1.460238
H237	H	-0.474872	-0.819576	1.029635
H238	H	0.025128	-0.319576	1.529635
H239	H	-0.520841	-0.899433	0.999921
H240	H	-0.020841	-0.399433	1.499921
H241	H	-0.420586	-0.915892	0.923995
H242	H	0.079414	-0.415892	1.423995
O243	O	-0.427676	-0.909388	0.701848
O244	O	0.072324	-0.409388	1.201848
C245	C	-0.417999	-0.918299	0.772195
C246	C	0.082001	-0.418299	1.272195
H247	H	-0.394953	-0.969657	0.782756
H248	H	0.105047	-0.469657	1.282756
H249	H	-0.470711	-0.915720	0.797012
H250	H	0.029289	-0.415720	1.297012
H251	H	-0.380509	-0.876726	0.793701
H252	H	0.119491	-0.376726	1.293701
H253	H	-0.420841	-0.608489	0.388291
H254	H	0.079159	-0.108489	0.888291
H255	H	-1.070415	-1.059548	0.245030
H256	H	-0.570415	-0.559548	0.745030
H257	H	-0.420851	-0.380963	0.388301
H258	H	0.079149	0.119037	0.888301
H259	H	-0.740316	-1.085315	0.219123
H260	H	-0.240316	-0.585315	0.719123
O261	O	-0.931400	-1.060982	0.243566
O262	O	-0.431400	-0.560982	0.743566
C263	C	-0.979589	-1.101084	0.203534
C264	C	-0.479589	-0.601084	0.703534
H265	H	-1.031966	-1.105453	0.229244
H266	H	-0.531966	-0.605453	0.729244
H267	H	-0.958308	-1.153586	0.197189
H268	H	-0.458308	-0.653586	0.697189
H269	H	-0.987458	-1.076640	0.151799
H270	H	-0.487458	-0.576640	0.651799
O271	O	-0.601160	-1.086587	0.217609
O272	O	-0.101160	-0.586587	0.717609
C273	C	-0.558691	-1.046414	0.175505
C274	C	-0.058691	-0.546414	0.675505
H275	H	-0.580893	-0.993975	0.170424
H276	H	-0.080893	-0.493975	0.670424
H277	H	-0.557866	-1.070888	0.123469
H278	H	-0.057866	-0.570888	0.623469
H279	H	-0.502974	-1.041896	0.198575
H280	H	-0.002974	-0.541896	0.698575
H281	H	-0.420653	-0.915833	0.568223
H282	H	0.079347	-0.415833	1.068223
