data_functionalizedCrystal
_audit_creation_method	'MofGen! by Chris Wilmer'
_symmetry_space_group_name_H-M	'P1'
_symmetry_Int_Tables_number	1
_symmetry_cell_setting	triclinic
loop_
_symmetry_equiv_pos_as_xyz
  x,y,z
_cell_length_a	23.196402
_cell_length_b	20.919309
_cell_length_c	23.196401
_cell_angle_alpha	90.012197
_cell_angle_beta	60.007332
_cell_angle_gamma	57.445536
loop_
_atom_site_label
_atom_site_type_symbol
_atom_site_fract_x
_atom_site_fract_y
_atom_site_fract_z
Zr1	Zr	0.585933	0.641818	-0.053119
O2	O	0.713662	0.535435	-0.148897
O3	O	0.463383	0.674420	-0.023761
O4	O	0.583648	0.674401	-0.144028
O5	O	0.593394	0.535481	0.066241
O6	O	0.575953	0.784031	-0.140182
O7	O	0.593397	0.535454	-0.028631
O8	O	0.360822	0.784065	0.074953
O9	O	0.808525	0.535446	-0.148894
O10	O	0.506129	0.770152	-0.008366
O11	O	0.511869	0.688356	0.059566
O12	O	0.653465	0.688333	-0.082032
O13	O	0.659204	0.606538	-0.014100
Zr14	Zr	0.573656	0.816707	0.104324
Zr15	Zr	0.573662	0.816665	-0.046986
Zr16	Zr	0.585928	0.641860	0.098191
Zr17	Zr	0.737229	0.641836	-0.053113
Zr18	Zr	0.422360	0.816689	0.104318
O19	O	0.696206	0.784104	0.074966
O20	O	0.696214	0.784045	-0.140177
O21	O	0.713654	0.535495	0.066246
O22	O	0.445928	0.923089	0.200103
O23	O	0.445935	0.923030	-0.015041
O24	O	0.463376	0.674480	0.191383
O25	O	0.566195	0.923044	-0.015036
O26	O	0.575942	0.784124	0.195233
O27	O	0.583636	0.674494	0.191388
O28	O	0.566192	0.923070	0.079836
O29	O	0.798771	0.674426	-0.144019
O30	O	0.360818	0.784098	0.195224
O31	O	0.351064	0.923078	0.200099
O32	O	0.351068	0.923045	0.079827
O33	O	0.808521	0.535479	-0.028622
O34	O	0.798767	0.674459	-0.023747
O35	O	0.506125	0.770191	0.133238
O36	O	0.500385	0.851987	0.065305
O37	O	0.647720	0.770169	-0.008361
O38	O	0.653460	0.688373	0.059572
C39	C	0.390546	0.729240	0.025595
C40	C	0.326317	0.729233	0.025592
C41	C	0.239648	0.789644	0.079972
C42	C	0.179287	0.789649	0.079978
C43	C	0.205600	0.729250	0.025595
C44	C	0.292284	0.668828	-0.028790
C45	C	0.352643	0.668820	-0.028791
C46	C	0.151335	0.710427	-0.038857
C47	C	0.090975	0.710441	-0.038856
C48	C	0.019437	0.729272	0.025599
C49	C	0.008255	0.748106	0.090057
C50	C	0.068614	0.748097	0.090056
C51	C	0.140158	0.729252	0.025591
C52	C	-0.132686	0.789693	0.079990
C53	C	-0.193046	0.789693	0.079997
C54	C	-0.080046	0.668875	-0.028777
C55	C	-0.019689	0.668871	-0.028778
C56	C	-0.046015	0.729284	0.025605
C57	C	0.595144	0.510555	0.017931
C58	C	0.600354	0.436328	0.015328
C59	C	0.525895	0.444163	0.052554
C60	C	0.530795	0.374416	0.050106
C61	C	0.610154	0.296835	0.010428
C62	C	0.684618	0.289002	-0.026800
C63	C	0.679717	0.358749	-0.024347
C64	C	0.628799	0.084110	0.001103
C65	C	0.633694	0.014362	-0.001349
C66	C	0.479871	0.099780	0.075558
C67	C	0.474977	0.169524	0.078004
C68	C	0.549441	0.161685	0.040780
C69	C	0.615165	0.225541	0.007923
C70	C	0.544429	0.232978	0.043289
C71	C	0.769043	0.729284	0.025611
C72	C	0.833272	0.729292	0.025613
C73	C	0.579801	0.729210	-0.163664
C74	C	0.579804	0.729192	-0.227899
C75	C	0.564445	0.947969	0.033274
C76	C	0.559236	1.022196	0.035877
C77	C	0.656709	0.686488	-0.296524
C78	C	0.656708	0.686508	-0.356879
C79	C	0.579799	0.729223	-0.348604
C80	C	0.502884	0.771936	-0.279966
C81	C	0.502886	0.771921	-0.219613
C82	C	0.523600	0.723149	-0.416136
C83	C	0.523601	0.723159	-0.476490
C84	C	0.579790	0.729274	-0.534750
C85	C	0.635992	0.735364	-0.532657
C86	C	0.635994	0.735349	-0.472304
C87	C	0.579788	0.729244	-0.414042
C88	C	0.656699	0.686590	-0.668822
C89	C	0.656696	0.686617	-0.729176
C90	C	0.502870	0.772039	-0.652260
C91	C	0.502875	0.772018	-0.591908
C92	C	0.579793	0.729289	-0.600194
C93	C	0.579788	0.729315	0.214869
C94	C	0.579786	0.729332	0.279104
C95	C	0.375197	0.947947	0.033266
C96	C	0.305758	1.022167	0.035867
C97	C	0.390540	0.729293	0.214861
C98	C	0.326308	0.729303	0.279094
C99	C	0.375190	0.947999	0.222532
C100	C	0.305750	1.022237	0.289368
C101	C	0.784399	0.510525	-0.171327
C102	C	0.853840	0.436288	-0.238163
C103	C	0.784392	0.510578	0.017939
C104	C	0.853831	0.436358	0.015338
C105	C	0.769050	0.729232	-0.163656
C106	C	0.833281	0.729222	-0.227888
C107	C	0.276148	1.014304	-0.001374
C108	C	0.210912	1.084034	0.001055
C109	C	0.175283	1.161627	0.040730
C110	C	0.204900	1.169488	0.077972
C111	C	0.270139	1.099758	0.075538
C112	C	0.293146	0.772025	0.347720
C113	C	0.232803	0.772031	0.408079
C114	C	0.205618	0.729320	0.399810
C115	C	0.238787	0.686593	0.331176
C116	C	0.299134	0.686582	0.270819
C117	C	0.270143	1.099803	0.285296
C118	C	0.204904	1.169564	0.348090
C119	C	0.175268	1.161756	0.414956
C120	C	0.210882	1.084181	0.419027
C121	C	0.276124	1.014422	0.356234
C122	C	0.889454	0.358721	-0.234090
C123	C	0.954712	0.288961	-0.296884
C124	C	0.984350	0.296769	-0.363750
C125	C	0.948733	0.374343	-0.367822
C126	C	0.883481	0.444102	-0.305028
C127	C	0.883448	0.444221	0.052573
C128	C	0.948701	0.374490	0.050127
C129	C	0.984331	0.296898	0.010450
C130	C	0.954712	0.289037	-0.026789
C131	C	0.889464	0.358766	-0.024347
C132	C	0.860446	0.771941	-0.219596
C133	C	0.920789	0.771947	-0.279943
C134	C	0.953970	0.729229	-0.348582
C135	C	0.926800	0.686508	-0.356872
C136	C	0.866453	0.686507	-0.296526
H137	H	-0.154122	0.838881	0.124275
O138	O	-0.061204	0.766456	0.152742
C139	C	-0.058118	0.783057	0.209628
H140	H	-0.016373	0.802374	0.193433
H141	H	-0.030442	0.725890	0.222594
C142	C	-0.199793	0.828593	0.296017
C143	C	-0.148527	0.852326	0.276129
H144	H	-0.255561	0.871319	0.337039
H145	H	-0.201871	0.817406	0.257692
H146	H	-0.176720	0.780954	0.306817
H147	H	-0.171595	0.899958	0.265321
H148	H	-0.146455	0.863523	0.314454
H149	H	0.059507	0.763430	0.142540
O150	O	0.840196	0.644928	-0.304715
C151	C	0.882416	0.607242	-0.378238
H152	H	0.944169	0.598805	-0.410708
H153	H	0.840029	0.647253	-0.394620
C154	C	0.826525	0.533791	-0.352682
C155	C	0.902376	0.523421	-0.392561
H156	H	0.838834	0.482087	-0.361517
H157	H	0.798078	0.559182	-0.303147
H158	H	0.791210	0.567135	-0.366337
H159	H	0.937684	0.490085	-0.378898
H160	H	0.930829	0.498022	-0.442094
H161	H	0.294262	1.106176	0.230856
O162	O	0.977598	0.381775	-0.432836
C163	C	1.042839	0.303566	-0.487377
H164	H	1.036166	0.257353	-0.465462
H165	H	1.107208	0.285802	-0.506878
C166	C	1.044359	0.361316	-0.577135
C167	C	1.036159	0.304557	-0.550219
H168	H	1.040242	0.361927	-0.615900
H169	H	1.000407	0.414008	-0.540390
H170	H	1.098000	0.346506	-0.593380
H171	H	0.982515	0.319373	-0.533966
H172	H	1.080102	0.251868	-0.586963
H173	H	0.156479	0.729336	0.448963
H174	H	0.218206	0.838836	0.124255
H175	H	0.679779	0.162368	-0.024383
H176	H	0.410355	0.232690	0.110300
O177	O	0.170149	1.244883	0.116607
C178	C	0.082569	1.287775	0.169954
H179	H	0.069245	1.242510	0.182096
H180	H	0.045162	1.329129	0.150234
C181	C	0.071799	1.395504	0.223549
C182	C	0.055434	1.339909	0.238466
H183	H	0.055059	1.427666	0.265810
H184	H	0.130802	1.366609	0.187607
H185	H	0.040625	1.429958	0.207114
H186	H	0.086616	1.305449	0.254891
H187	H	-0.003565	1.368799	0.274412
O188	O	0.182089	1.076711	0.484026
C189	C	0.194200	1.114499	0.522465
H190	H	0.198403	1.162003	0.501065
H191	H	0.255581	1.066550	0.515783
C192	C	0.113673	1.098030	0.628669
C193	C	0.118828	1.156381	0.602390
H194	H	0.067183	1.123862	0.677971
H195	H	0.105516	1.072569	0.602772
H196	H	0.164828	1.058077	0.623094
H197	H	0.067678	1.196326	0.607957
H198	H	0.126974	1.181850	0.628290
H199	H	1.003108	0.729236	-0.397714
H200	H	0.854442	0.507394	0.084887
O201	O	0.947246	0.813428	-0.272007
C202	C	1.007638	0.804263	-0.339983
H203	H	0.998836	0.788536	-0.380548
H204	H	1.074351	0.753132	-0.357155
C205	C	1.006190	0.903878	-0.286423
C206	C	0.995374	0.884570	-0.336244
H207	H	0.998629	0.953414	-0.284116
H208	H	0.965505	0.910052	-0.240625
H209	H	1.061784	0.861263	-0.300738
H210	H	0.939777	0.927179	-0.321923
H211	H	1.036049	0.878406	-0.382039
O212	O	0.319614	0.813500	0.355636
C213	C	0.380008	0.804321	0.287653
H214	H	0.371198	0.788592	0.247095
H215	H	0.446720	0.753188	0.270481
C216	C	0.378580	0.903935	0.341189
C217	C	0.367755	0.884622	0.291376
H218	H	0.371026	0.953466	0.343485
H219	H	0.337894	0.910117	0.386991
H220	H	0.434174	0.861317	0.326873
H221	H	0.312159	0.927234	0.305697
H222	H	0.408432	0.878449	0.245576
O223	O	0.428095	0.813506	-0.525294
C224	C	0.360210	0.851230	-0.530928
H225	H	0.384227	0.817744	-0.585967
H226	H	0.332830	0.917520	-0.523636
C227	C	0.261099	0.889250	-0.404983
C228	C	0.290597	0.848118	-0.472581
H229	H	0.218156	0.887334	-0.368990
H230	H	0.306834	0.863838	-0.401186
H231	H	0.238289	0.944488	-0.398917
H232	H	0.313416	0.792879	-0.478650
H233	H	0.244864	0.873520	-0.476377
O234	O	0.860614	0.351267	-0.060492
C235	C	0.795364	0.429444	-0.049817
H236	H	0.802018	0.475692	-0.034596
H237	H	0.731000	0.447209	-0.004941
C238	C	0.793874	0.371565	-0.138032
C239	C	0.802051	0.428367	-0.119343
H240	H	0.797995	0.370901	-0.180918
H241	H	0.837831	0.318896	-0.145223
H242	H	0.740236	0.386376	-0.100630
H243	H	0.855692	0.413550	-0.156741
H244	H	0.758102	0.481034	-0.112161
H245	H	0.479816	0.296147	0.075598
H246	H	0.305107	0.951267	0.359560
H247	H	0.470164	0.380802	0.080421
O248	O	0.468939	0.717258	-0.478397
C249	C	0.419357	0.711842	-0.414041
H250	H	0.417524	0.739238	-0.370095
H251	H	0.448452	0.645082	-0.422181
C252	C	0.330622	0.725455	-0.446084
C253	C	0.328365	0.759109	-0.392108
H254	H	0.274495	0.754607	-0.432556
H255	H	0.364028	0.729101	-0.489444
H256	H	0.354872	0.669822	-0.452862
H257	H	0.304125	0.814737	-0.385337
H258	H	0.294952	0.755473	-0.348746
O259	O	0.310682	0.938997	-0.039977
C260	C	0.270535	0.947027	-0.072308
H261	H	0.241302	1.009258	-0.077443
H262	H	0.218518	0.941317	-0.037879
C263	C	0.372337	0.803013	-0.140891
C264	C	0.336440	0.879444	-0.147203
H265	H	0.412988	0.761323	-0.187089
H266	H	0.399384	0.797602	-0.119107
H267	H	0.328982	0.798266	-0.112197
H268	H	0.379792	0.884194	-0.175889
H269	H	0.309401	0.884854	-0.168994
O270	O	0.959155	0.645022	-0.423602
C271	C	1.018230	0.654203	-0.475078
H272	H	1.043497	0.669952	-0.450987
H273	H	0.985774	0.705324	-0.492169
C274	C	1.061437	0.554558	-0.570355
C275	C	1.092476	0.573895	-0.540767
H276	H	1.107234	0.505022	-0.610876
H277	H	1.021635	0.548374	-0.535675
H278	H	1.034391	0.597164	-0.584591
H279	H	1.119512	0.531293	-0.526524
H280	H	1.132284	0.580069	-0.575446
O281	O	0.469129	0.717109	-0.359535
C282	C	0.515820	0.646684	-0.347995
H283	H	0.581298	0.628628	-0.371689
H284	H	0.523134	0.594632	-0.374926
C285	C	0.388071	0.686640	-0.237901
C286	C	0.468490	0.664467	-0.266997
H287	H	0.358874	0.697607	-0.187938
H288	H	0.356613	0.734085	-0.245677
H289	H	0.394177	0.643259	-0.260351
H290	H	0.462382	0.707851	-0.244554
H291	H	0.499945	0.617029	-0.259216
H292	H	0.205803	0.806828	0.463958
O293	O	0.436822	0.610203	-0.081706
C294	C	0.453595	0.614009	-0.148483
H295	H	0.401957	0.677710	-0.140208
H296	H	0.454429	0.567175	-0.174774
C297	C	0.603964	0.517146	-0.207252
C298	C	0.540546	0.595386	-0.197089
H299	H	0.657601	0.505655	-0.237236
H300	H	0.592665	0.514579	-0.162264
H301	H	0.604649	0.478127	-0.229158
H302	H	0.539855	0.634405	-0.175176
H303	H	0.551847	0.597960	-0.242075
O304	O	0.212241	0.645193	0.323279
C305	C	0.151874	0.654364	0.391273
H306	H	0.121462	0.712043	0.433292
H307	H	0.184607	0.599186	0.404713
C308	C	0.120148	0.590163	0.339022
C309	C	0.082790	0.661009	0.390630
H310	H	0.077535	0.594258	0.338626
H311	H	0.160820	0.583981	0.293213
H312	H	0.147424	0.544188	0.350229
H313	H	0.055524	0.706981	0.379418
H314	H	0.042111	0.667199	0.436438
H315	H	0.294239	1.106172	0.105869
H316	H	0.833438	0.806727	-0.163713
O317	O	-0.277209	0.848460	0.132860
C318	C	-0.287493	0.901765	0.180865
H319	H	-0.228942	0.898877	0.152602
H320	H	-0.295818	0.882768	0.228800
C321	C	-0.438489	0.993104	0.241440
C322	C	-0.366578	0.989561	0.206726
H323	H	-0.487274	1.047260	0.257396
H324	H	-0.431562	0.957190	0.209101
H325	H	-0.445415	0.977269	0.281382
H326	H	-0.359647	1.005386	0.166780
H327	H	-0.373507	1.025480	0.239060
O328	O	0.181996	1.076489	-0.035010
C329	C	0.094784	1.114263	0.013760
H330	H	0.065845	1.161819	0.064063
H331	H	0.086635	1.066317	0.028628
C332	C	0.085159	1.097644	-0.082786
C333	C	0.049615	1.156058	-0.021005
H334	H	0.057296	1.123422	-0.104230
H335	H	0.143917	1.072192	-0.115643
H336	H	0.078366	1.057693	-0.070387
H337	H	0.056417	1.196002	-0.033405
H338	H	-0.009143	1.181518	0.011850
O339	O	0.977588	0.382093	0.086197
C340	C	1.064806	0.344304	0.037444
H341	H	1.081565	0.341070	-0.018354
H342	H	1.103840	0.279979	0.036487
C343	C	1.064129	0.398258	0.129387
C344	C	1.084710	0.394292	0.060856
H345	H	1.076409	0.429090	0.143830
H346	H	1.005369	0.423714	0.162234
H347	H	1.096659	0.344650	0.128580
H348	H	1.052172	0.447898	0.061665
H349	H	1.143465	0.368846	0.028009
H350	H	0.175914	1.232722	0.344762
H351	H	0.719330	0.651798	-0.675569
O352	O	-0.054525	0.610113	-0.081493
C353	C	-0.083192	0.565938	-0.050996
H354	H	-0.140388	0.604924	0.007432
H355	H	-0.030083	0.507785	-0.054159
C356	C	-0.038741	0.495691	-0.164102
C357	C	-0.108993	0.543577	-0.092340
H358	H	-0.054653	0.481893	-0.189606
H359	H	-0.019424	0.525450	-0.184649
H360	H	0.005511	0.447236	-0.166728
H361	H	-0.153239	0.592035	-0.089715
H362	H	-0.128318	0.513825	-0.071794
H363	H	0.440264	0.806715	-0.273232
H364	H	0.983701	0.225803	-0.293555
O365	O	0.095118	0.848415	0.132842
C366	C	0.084828	0.901720	0.180852
H367	H	0.143377	0.898835	0.152595
H368	H	0.076503	0.882718	0.228786
C369	C	-0.066167	0.993052	0.241424
C370	C	0.005741	0.989515	0.206716
H371	H	-0.114954	1.047208	0.257382
H372	H	-0.059235	0.957139	0.209081
H373	H	-0.073093	0.977213	0.281364
H374	H	0.012672	1.005343	0.166772
H375	H	-0.001192	1.025433	0.239054
O376	O	0.064470	0.610154	-0.081679
C377	C	0.074756	0.556831	-0.129669
H378	H	0.014129	0.589375	-0.126041
H379	H	0.088341	0.500680	-0.115183
C380	C	0.224001	0.490505	-0.211020
C381	C	0.149540	0.530478	-0.206567
H382	H	0.270134	0.474245	-0.258454
H383	H	0.217072	0.526427	-0.178687
H384	H	0.235310	0.443717	-0.198944
H385	H	0.138227	0.577270	-0.218634
H386	H	0.156469	0.494563	-0.238904
O387	O	0.989179	0.213703	-0.065270
C388	C	0.925412	0.204750	-0.038391
H389	H	0.860632	0.267529	-0.009140
H390	H	0.926940	0.171449	0.000350
C391	C	1.020763	0.078043	-0.136805
C392	C	0.941200	0.155150	-0.100883
H393	H	1.030503	0.047445	-0.175352
H394	H	1.063726	0.084073	-0.154913
H395	H	1.022027	0.050303	-0.104513
H396	H	0.939942	0.182893	-0.133173
H397	H	0.898238	0.149123	-0.082782
O398	O	0.331223	0.645075	0.204209
C399	C	0.294296	0.607370	0.209862
H400	H	0.230782	0.640877	0.264901
H401	H	0.338527	0.541084	0.202589
C402	C	0.358013	0.569309	0.083915
C403	C	0.280001	0.610467	0.151513
H404	H	0.349199	0.571215	0.047921
H405	H	0.382895	0.594708	0.080105
H406	H	0.394865	0.514074	0.077864
H407	H	0.243155	0.665703	0.157567
H408	H	0.255113	0.585077	0.155323
H409	H	0.122144	1.218565	0.466081
O410	O	0.701213	0.076346	-0.035129
C411	C	0.772304	-0.007085	-0.070664
H412	H	0.753244	-0.044282	-0.079288
H413	H	0.796476	-0.027627	-0.036751
C414	C	0.866465	0.025461	-0.133051
C415	C	0.843057	-0.020224	-0.143648
H416	H	0.910111	0.017356	-0.178070
H417	H	0.818570	0.081670	-0.109109
H418	H	0.886603	0.008337	-0.104788
H419	H	0.822910	-0.003093	-0.171903
H420	H	0.890950	-0.076431	-0.167597
H421	H	0.100084	0.695109	-0.091341
H422	H	0.865327	0.352348	-0.179650
H423	H	0.440259	0.806697	-0.163733
H424	H	1.037460	0.240126	0.008467
H425	H	0.209588	0.695085	-0.091349
H426	H	0.313705	0.619650	-0.073069
H427	H	1.037483	0.239960	-0.414875
H428	H	0.122161	1.218399	0.042707
H429	H	0.461273	0.507329	0.084868
H430	H	0.419247	0.106153	0.105864
H431	H	0.854484	0.507258	-0.308353
H432	H	0.698321	-0.048809	-0.033663
H433	H	0.749234	0.225830	-0.059103
H434	H	0.719341	0.651698	-0.303277
O435	O	0.752129	0.350995	-0.060576
C436	C	0.823225	0.267566	-0.096109
H437	H	0.804174	0.230364	-0.104741
H438	H	0.847389	0.247027	-0.062191
C439	C	0.917378	0.300123	-0.158482
C440	C	0.893981	0.254432	-0.169088
H441	H	0.961026	0.292021	-0.203497
H442	H	0.869480	0.356332	-0.134540
H443	H	0.937510	0.283003	-0.130214
H444	H	0.873840	0.271560	-0.197348
H445	H	0.941877	0.198226	-0.193036
H446	H	0.719335	0.651731	-0.412765
H447	H	0.681754	0.740309	-0.470603
O448	O	0.731483	0.645060	-0.795792
C449	C	0.799366	0.607362	-0.790157
H450	H	0.778290	0.598896	-0.736605
H451	H	0.819292	0.647378	-0.793679
C452	C	0.900959	0.533961	-0.917356
C453	C	0.875075	0.523557	-0.851586
H454	H	0.947661	0.482268	-0.955250
H455	H	0.855226	0.559361	-0.921154
H456	H	0.917557	0.567311	-0.920281
H457	H	0.858467	0.490217	-0.848658
H458	H	0.920808	0.498149	-0.847789
H459	H	0.440249	0.806819	-0.645521
H460	H	0.681749	0.740340	-0.580095
