data_functionalizedCrystal
_audit_creation_method	'MofGen! by Chris Wilmer'
_symmetry_space_group_name_H-M	'P1'
_symmetry_Int_Tables_number	1
_symmetry_cell_setting	triclinic
loop_
_symmetry_equiv_pos_as_xyz
  x,y,z
_cell_length_a	19.288840
_cell_length_b	19.288865
_cell_length_c	9.730223
_cell_angle_alpha	89.990377
_cell_angle_beta	89.989489
_cell_angle_gamma	83.131131
loop_
_atom_site_label
_atom_site_type_symbol
_atom_site_fract_x
_atom_site_fract_y
_atom_site_fract_z
O1	O	0.921358	0.086565	-0.114535
O2	O	0.719095	0.098272	-0.114490
O3	O	0.826071	-0.008713	-0.114486
O4	O	0.814382	0.193549	-0.114538
O5	O	0.826064	-0.008716	0.114094
O6	O	0.719088	0.098269	0.114090
O7	O	0.921351	0.086562	0.114045
Zn8	Zn	0.820219	0.092415	0.150360
Zn9	Zn	0.820228	0.092419	-0.150804
O10	O	0.814375	0.193546	0.114042
C11	C	0.693215	0.097896	-0.000193
C12	C	0.616110	0.096774	-0.000175
C13	C	0.825692	-0.034591	-0.000192
C14	C	0.824563	-0.111694	-0.000180
C15	C	0.579911	0.096237	-0.124777
C16	C	0.507464	0.095175	-0.124794
C17	C	0.471221	0.094636	-0.000201
C18	C	0.507429	0.095178	0.124418
C19	C	0.579874	0.096247	0.124431
C20	C	0.361891	0.052257	0.095246
C21	C	0.289448	0.051184	0.095228
C22	C	0.247778	0.091342	-0.000236
C23	C	0.278560	0.132565	-0.095705
C24	C	0.351005	0.133634	-0.095692
C25	C	0.392667	0.093477	-0.000201
C26	C	0.133022	0.089654	-0.124865
C27	C	0.060574	0.088596	-0.124876
C28	C	0.060542	0.088592	0.124339
C29	C	0.132988	0.089657	0.124347
C30	C	0.169225	0.090185	-0.000259
C31	C	0.887331	-0.156396	-0.000187
C32	C	0.886270	-0.228843	-0.000209
C33	C	0.822438	-0.256585	-0.000195
C34	C	0.759661	-0.211873	-0.000196
C35	C	0.760723	-0.139428	-0.000188
C36	C	0.772255	-0.364869	0.079883
C37	C	0.771195	-0.437313	0.079883
C38	C	0.819158	-0.480030	-0.000225
C39	C	0.868192	-0.450295	-0.080317
C40	C	0.869255	-0.377850	-0.080309
C41	C	0.821278	-0.335139	-0.000205
C42	C	0.880781	-0.603288	-0.000258
C43	C	0.879717	-0.675736	-0.000288
C44	C	0.753106	-0.658764	-0.000261
C45	C	0.754171	-0.586318	-0.000245
C46	C	0.818010	-0.558584	-0.000237
C47	C	0.947232	0.086937	-0.000254
C48	C	1.024336	0.088059	-0.000282
C49	C	0.814755	0.219424	-0.000255
C50	C	0.815884	0.296527	-0.000277
N51	N	0.820218	0.092412	0.355896
N52	N	0.820234	0.092416	-0.356341
C53	C	0.867603	0.045059	0.427823
C54	C	0.867609	0.045059	0.571706
C55	C	0.772844	0.139771	0.571722
C56	C	0.772835	0.139767	0.427842
H57	H	0.609410	0.096666	-0.226241
N58	N	0.468407	0.094596	-0.259190
H59	H	0.502356	0.095094	-0.338124
H60	H	0.444125	0.051102	-0.264600
N61	N	0.618923	0.096829	0.258828
H62	H	0.584973	0.096330	0.337759
H63	H	0.654753	0.054222	0.264276
H64	H	0.906184	0.006498	0.369249
H65	H	0.909179	-0.353643	-0.145525
H66	H	0.734245	0.178328	0.369274
N67	N	0.919931	-0.496358	-0.166724
H68	H	0.911818	-0.546763	-0.154585
H69	H	0.913626	-0.482809	-0.266608
N70	N	0.918727	-0.006008	0.649279
H71	H	0.892296	-0.036700	0.709006
H72	H	0.948726	-0.035954	0.581771
H73	H	0.939314	-0.133820	-0.000185
N74	N	0.949631	-0.573368	-0.000255
H75	H	0.989236	-0.612683	-0.000275
H76	H	0.952832	-0.543667	-0.084986
H77	H	0.477916	0.094741	0.225862
N78	N	0.721745	0.190844	0.649332
H79	H	0.748193	0.221532	0.708994
H80	H	0.691734	0.220794	0.581847
H81	H	0.376064	0.167200	-0.173423
N82	N	0.172106	0.090232	-0.259257
H83	H	0.196395	0.133722	-0.264815
H84	H	0.207898	0.047595	-0.264718
H85	H	0.162463	0.090090	0.225812
H86	H	0.031100	0.088163	-0.226346
N87	N	0.233627	0.175880	-0.198684
H88	H	0.183063	0.168953	-0.184206
H89	H	0.239486	0.226813	-0.185912
H90	H	0.937386	-0.265246	-0.000220
H91	H	0.930833	-0.712132	-0.000302
H92	H	0.703058	-0.549920	-0.000231
N93	N	0.021463	0.088007	0.258725
H94	H	-0.029924	0.087247	0.239812
H95	H	0.039896	0.045140	0.313137
N96	N	0.684256	-0.688675	-0.000262
H97	H	0.693106	-0.741352	-0.000273
H98	H	0.656793	-0.672317	0.084481
N99	N	0.690815	-0.241797	-0.000171
H100	H	0.663322	-0.225487	0.084570
H101	H	0.663382	-0.225467	-0.084956
H102	H	0.733196	-0.330093	0.145124
H103	H	0.264391	0.017615	0.172958
H104	H	0.395814	0.019554	0.172991
H105	H	0.731266	-0.461517	0.145091
N106	N	0.693020	-0.091208	-0.000181
H107	H	0.652419	-0.119772	-0.000180
H108	H	0.690700	-0.060791	0.084563
