data_functionalizedCrystal
_audit_creation_method	'MofGen! by Chris Wilmer'
_symmetry_space_group_name_H-M	'P1'
_symmetry_Int_Tables_number	1
_symmetry_cell_setting	triclinic
loop_
_symmetry_equiv_pos_as_xyz
  x,y,z
_cell_length_a	14.908783
_cell_length_b	25.639240
_cell_length_c	14.908308
_cell_angle_alpha	93.255449
_cell_angle_beta	89.788727
_cell_angle_gamma	93.323035
loop_
_atom_site_label
_atom_site_type_symbol
_atom_site_fract_x
_atom_site_fract_y
_atom_site_fract_z
Zn1	Zn	1.345250	-0.182870	-0.587769
Zn2	Zn	1.353802	-0.264996	-0.437382
Zn3	Zn	1.203564	-0.182305	-0.428741
Zn4	Zn	1.194824	-0.275007	-0.579001
O5	O	1.274360	-0.226295	-0.508223
O6	O	1.472214	-0.189811	-0.575106
O7	O	1.341109	-0.249600	-0.310414
O8	O	1.222437	-0.109214	-0.449890
O9	O	1.478497	-0.250148	-0.464618
O10	O	1.326534	-0.109629	-0.566727
O11	O	1.230730	-0.188847	-0.304065
O12	O	1.076575	-0.198555	-0.441387
O13	O	1.207542	-0.267212	-0.705986
O14	O	1.070154	-0.266663	-0.551782
O15	O	1.318059	-0.199519	-0.712428
O16	O	1.332634	-0.339490	-0.456115
O17	O	1.215834	-0.346845	-0.560162
C18	C	1.040738	-0.233635	-0.494696
C19	C	0.940793	-0.236788	-0.488930
C20	C	0.746430	-0.179983	-0.593323
C21	C	0.652522	-0.182944	-0.587909
C22	C	0.659068	-0.245669	-0.472683
C23	C	0.752976	-0.242707	-0.478097
C24	C	0.796653	-0.209864	-0.538420
C25	C	0.890563	-0.206906	-0.543839
C26	C	0.897107	-0.269627	-0.428609
C27	C	0.803199	-0.272589	-0.423194
C28	C	1.274237	-0.362139	-0.508146
C29	C	1.274265	-0.420252	-0.508147
C30	C	1.328585	-0.780795	-0.569166
C31	C	1.328611	-0.835399	-0.569186
O32	O	1.374649	-0.863791	-0.620985
N33	N	1.274480	-0.862533	-0.508317
C34	C	1.220312	-0.835060	-0.447431
O35	O	1.174271	-0.863153	-0.395660
C36	C	1.220283	-0.780457	-0.447416
C37	C	1.274424	-0.753326	-0.508283
C38	C	1.382722	-0.753664	-0.630028
C39	C	1.382698	-0.699063	-0.630007
C40	C	1.328537	-0.671594	-0.569124
C41	C	1.274400	-0.698725	-0.508262
C42	C	1.166111	-0.752985	-0.386535
C43	C	1.166086	-0.698379	-0.386526
C44	C	1.220228	-0.671248	-0.447393
C45	C	1.220215	-0.616656	-0.447357
N46	N	1.274346	-0.589522	-0.508226
C47	C	1.328507	-0.616991	-0.569109
C48	C	1.220378	-0.949729	-0.447468
C49	C	1.220411	-1.004331	-0.447478
C50	C	1.328709	-1.004666	-0.569234
C51	C	1.328679	-0.950064	-0.569219
C52	C	1.274509	-0.922596	-0.508337
C53	C	1.328452	-0.502326	-0.569059
C54	C	1.328426	-0.447721	-0.569030
C55	C	1.220125	-0.447390	-0.447278
C56	C	1.220155	-0.501991	-0.447303
C57	C	1.274321	-0.529458	-0.508202
O58	O	1.174197	-0.588229	-0.395587
O59	O	1.374532	-0.588892	-0.620879
C60	C	1.508893	-0.218926	-0.521804
C61	C	1.608838	-0.215786	-0.527591
C62	C	1.260872	-0.234546	-0.742743
C63	C	1.255124	-0.238062	-0.842682
C64	C	1.274507	-0.089920	-0.508322
C65	C	1.274569	-0.031805	-0.508365
C66	C	1.359402	-0.174168	-1.037186
C67	C	1.354004	-0.177470	-1.131087
C68	C	1.238926	-0.247964	-1.124387
C69	C	1.244324	-0.244662	-1.030485
C70	C	1.304565	-0.207764	-0.986889
C71	C	1.309967	-0.204465	-0.892986
C72	C	1.194885	-0.274956	-0.886287
C73	C	1.189487	-0.278258	-0.980188
C74	C	1.287847	-0.218036	-0.274619
C75	C	1.293769	-0.214367	-0.174691
H76	H	0.623489	-0.272402	-0.423561
H77	H	1.189881	-0.278005	-1.159899
H78	H	1.140439	-0.308299	-1.015697
C79	C	0.755716	-0.308318	-0.357853
C80	C	0.698883	-0.345368	-0.405551
C81	C	0.655138	-0.378297	-0.345392
H82	H	0.721266	-0.288127	-0.316605
H83	H	0.799049	-0.325724	-0.325945
H84	H	0.655555	-0.327963	-0.437444
H85	H	0.733310	-0.365572	-0.446796
H86	H	0.698471	-0.395702	-0.313484
H87	H	0.620693	-0.358100	-0.304147
H88	H	0.616578	-0.403441	-0.377746
H89	H	1.150235	-0.302313	-0.845324
C90	C	0.951796	-0.302013	-0.369041
C91	C	1.043387	-0.292385	-0.386679
C92	C	1.093794	-0.322205	-0.331820
H93	H	0.935738	-0.338114	-0.381150
H94	H	0.939927	-0.292664	-0.307748
H95	H	1.055250	-0.301737	-0.447958
H96	H	1.059472	-0.256290	-0.374565
H97	H	1.081925	-0.312856	-0.270527
H98	H	1.077728	-0.358305	-0.343933
H99	H	1.155943	-0.315673	-0.343774
H100	H	0.611634	-0.158610	-0.632614
C101	C	1.441439	-0.783577	-0.696094
C102	C	1.429879	-0.837207	-0.683110
C103	C	1.483955	-0.864775	-0.743960
H104	H	1.502644	-0.772297	-0.686533
H105	H	1.424744	-0.777186	-0.755746
H106	H	1.446580	-0.843595	-0.623472
H107	H	1.368686	-0.848502	-0.692679
H108	H	1.467260	-0.858384	-0.803613
H109	H	1.545157	-0.853490	-0.734394
H110	H	1.476113	-0.901166	-0.735165
H111	H	1.372553	-0.524684	-0.618654
C112	C	0.937823	-0.171198	-0.609356
C113	C	0.873736	-0.145652	-0.656260
C114	C	0.917236	-0.112748	-0.716613
H115	H	0.972199	-0.191397	-0.650661
H116	H	0.976421	-0.145998	-0.577166
H117	H	0.835154	-0.170849	-0.688447
H118	H	0.839358	-0.125443	-0.614978
H119	H	0.955834	-0.087548	-0.684423
H120	H	0.951610	-0.132951	-0.757912
H121	H	0.873761	-0.095408	-0.748438
C122	C	1.387236	-0.418362	-0.635221
C123	C	1.434651	-0.454111	-0.688560
C124	C	1.488822	-0.427087	-0.749552
H125	H	1.428486	-0.394610	-0.603230
H126	H	1.350563	-0.399538	-0.672418
H127	H	1.471321	-0.472926	-0.651368
H128	H	1.393424	-0.477864	-0.720571
H129	H	1.452149	-0.408264	-0.786749
H130	H	1.530066	-0.403336	-0.717553
H131	H	1.520993	-0.451339	-0.785755
C132	C	1.441504	-0.669708	-0.696198
C133	C	1.488916	-0.705462	-0.749530
C134	C	1.543089	-0.678444	-0.810527
H135	H	1.482755	-0.645955	-0.664211
H136	H	1.404832	-0.650886	-0.733399
H137	H	1.525585	-0.724275	-0.712333
H138	H	1.447687	-0.729216	-0.781536
H139	H	1.506417	-0.659622	-0.847728
H140	H	1.584334	-0.654691	-0.778533
H141	H	1.575258	-0.702699	-0.846726
C142	C	1.375225	-0.164372	-0.845528
C143	C	1.327441	-0.130576	-0.788680
C144	C	1.387526	-0.093637	-0.744942
H145	H	1.407133	-0.144782	-0.888835
H146	H	1.416483	-0.181833	-0.811098
H147	H	1.286198	-0.113116	-0.823108
H148	H	1.295536	-0.150151	-0.745356
H149	H	1.428784	-0.111098	-0.710511
H150	H	1.419430	-0.074051	-0.788255
H151	H	1.355114	-0.070705	-0.706359
C152	C	1.387665	-1.034461	-0.635241
C153	C	1.477768	-1.017670	-0.620876
C154	C	1.532101	-1.045112	-0.681651
H155	H	1.371093	-1.028063	-0.694914
H156	H	1.379982	-1.070869	-0.626525
H157	H	1.485446	-0.981271	-0.629599
H158	H	1.494367	-1.024070	-0.561215
H159	H	1.524419	-1.081519	-0.672935
H160	H	1.515522	-1.038711	-0.741321
H161	H	1.593242	-1.033726	-0.671907
H162	H	1.176334	-1.026416	-0.397905
C163	C	1.161541	-0.920001	-0.381252
C164	C	1.114165	-0.955454	-0.327940
C165	C	1.059965	-0.928090	-0.266927
H166	H	1.120268	-0.901149	-0.413227
H167	H	1.198192	-0.896245	-0.344039
H168	H	1.077517	-0.979201	-0.365148
H169	H	1.155415	-0.974307	-0.295946
H170	H	1.096616	-0.904335	-0.229714
H171	H	1.018698	-0.909239	-0.298909
H172	H	1.027821	-0.952141	-0.230742
H173	H	0.781993	-0.153242	-0.642445
C174	C	1.107225	-0.782341	-0.320414
C175	C	1.059773	-0.746588	-0.267122
C176	C	1.005504	-0.773611	-0.206207
H177	H	1.143808	-0.801180	-0.283171
H178	H	1.066004	-0.806080	-0.352493
H179	H	1.100989	-0.722858	-0.235045
H180	H	1.023173	-0.727748	-0.304340
H181	H	0.964282	-0.797350	-0.238286
H182	H	1.042093	-0.792449	-0.168970
H183	H	0.973294	-0.749357	-0.170046
H184	H	1.121971	-0.676017	-0.336949
C185	C	1.161281	-0.531358	-0.381177
C186	C	1.113831	-0.495613	-0.327867
C187	C	1.059571	-0.522644	-0.266956
H188	H	1.197870	-0.550201	-0.343946
H189	H	1.120058	-0.555095	-0.413259
H190	H	1.155049	-0.471885	-0.295788
H191	H	1.077226	-0.476769	-0.365074
H192	H	1.018348	-0.546381	-0.299038
H193	H	1.096166	-0.541485	-0.229731
H194	H	1.027364	-0.498395	-0.230783
C195	C	1.424832	-0.134059	-0.990011
C196	C	1.471691	-0.105337	-1.054158
C197	C	1.531964	-0.068379	-1.010735
H198	H	1.466172	-0.151481	-0.955635
H199	H	1.392584	-0.111042	-0.951425
H200	H	1.503937	-0.128350	-1.092728
H201	H	1.430373	-0.087904	-1.088537
H202	H	1.499716	-0.045362	-0.972149
H203	H	1.573299	-0.085805	-0.976360
H204	H	1.563759	-0.048883	-1.054251
H205	H	1.372765	-0.927977	-0.618782
H206	H	1.176031	-0.425016	-0.397705
C207	C	1.413391	-0.140936	-1.185734
C208	C	1.359411	-0.110912	-1.236700
C209	C	1.414086	-0.077243	-1.287042
H210	H	1.450460	-0.160932	-1.224695
H211	H	1.450020	-0.118460	-1.146344
H212	H	1.322797	-0.133385	-1.276086
H213	H	1.322343	-0.090905	-1.197762
H214	H	1.450715	-0.054767	-1.247651
H215	H	1.451153	-0.097243	-1.325997
H216	H	1.377469	-0.056864	-1.321621
