data_functionalizedCrystal
_audit_creation_method	'MofGen! by Chris Wilmer'
_symmetry_space_group_name_H-M	'P1'
_symmetry_Int_Tables_number	1
_symmetry_cell_setting	triclinic
loop_
_symmetry_equiv_pos_as_xyz
  x,y,z
_cell_length_a	17.640112
_cell_length_b	18.050589
_cell_length_c	17.640968
_cell_angle_alpha	101.226882
_cell_angle_beta	87.860920
_cell_angle_gamma	101.252307
loop_
_atom_site_label
_atom_site_type_symbol
_atom_site_fract_x
_atom_site_fract_y
_atom_site_fract_z
Zn1	Zn	1.247776	-0.021338	0.195082
Zn2	Zn	1.221993	-0.174558	0.068112
Zn3	Zn	1.095104	-0.069647	0.093732
Zn4	Zn	1.120735	-0.164782	0.220693
O5	O	1.171402	-0.107581	0.144405
O6	O	1.350627	-0.025537	0.156798
O7	O	1.183644	-0.184950	-0.034761
O8	O	1.115420	0.040699	0.107180
O9	O	1.331684	-0.138107	0.063514
O10	O	1.227588	0.076191	0.181641
O11	O	1.090420	-0.107872	-0.015938
O12	O	0.992234	-0.098393	0.132014
O13	O	1.159104	-0.121445	0.323567
O14	O	1.011064	-0.168289	0.225292
O15	O	1.252441	-0.016058	0.304750
O16	O	1.208498	-0.277199	0.088349
O17	O	1.134104	-0.270016	0.200449
C18	C	0.974094	-0.137523	0.184213
C19	C	0.889689	-0.150346	0.201261
C20	C	1.171308	-0.300550	0.144411
C21	C	1.171342	-0.383087	0.144424
C22	C	0.563038	-0.010153	0.014899
C23	C	0.483728	-0.022215	0.030928
C24	C	0.503357	-0.095166	0.127891
C25	C	0.582671	-0.083107	0.111873
C26	C	0.612505	-0.040601	0.055375
C27	C	0.632138	-0.113555	0.152349
C28	C	0.711444	-0.101501	0.136328
C29	C	0.741283	-0.058998	0.079832
C30	C	0.691811	-0.028547	0.039354
C31	C	0.602302	-0.156066	0.208842
C32	C	0.651768	-0.186514	0.249318
C33	C	0.731077	-0.174455	0.233302
C34	C	0.760916	-0.131952	0.176805
C35	C	0.780549	-0.204906	0.273779
C36	C	0.859855	-0.192852	0.257758
C37	C	0.840222	-0.119898	0.160785
C38	C	1.130933	-0.578655	0.205357
C39	C	1.098407	-0.646737	0.139793
C40	C	1.171419	-0.534204	0.144419
C41	C	1.203984	-0.613197	0.209983
C42	C	1.171493	-0.680174	0.144421
C43	C	1.138849	-0.601212	0.078826
C44	C	1.244468	-0.567652	0.149057
C45	C	1.211958	-0.635718	0.083440
C46	C	1.171375	-0.450114	0.144420
C47	C	1.171536	-0.764264	0.144412
C48	C	1.369481	-0.077524	0.104442
C49	C	1.453890	-0.064715	0.087412
C50	C	1.211508	-0.062272	0.342484
C51	C	1.228598	-0.042964	0.426893
C52	C	1.171521	0.086148	0.144411
C53	C	1.171572	0.168704	0.144414
C54	C	1.131497	-0.152654	-0.052913
C55	C	1.114553	-0.171730	-0.137352
C56	C	1.041859	-0.253814	0.753484
C57	C	1.057934	-0.235659	0.832796
C58	C	1.155117	-0.125928	0.813194
C59	C	1.139048	-0.144071	0.733879
C60	C	1.082418	-0.208016	0.704030
C61	C	1.179607	-0.098273	0.684425
C62	C	1.163541	-0.116418	0.605116
C63	C	1.106916	-0.180360	0.575261
C64	C	1.066352	-0.226160	0.624721
C65	C	1.236240	-0.034333	0.714274
C66	C	1.276799	0.011465	0.664820
C67	C	1.260730	-0.006676	0.585511
C68	C	1.204105	-0.070618	0.555656
C69	C	1.301293	0.039124	0.536051
C70	C	1.285228	0.020980	0.456742
C71	C	1.188039	-0.088763	0.476347
H72	H	0.805860	-0.049186	0.066787
H73	H	0.995727	-0.305868	0.729184
O74	O	1.105821	-0.594295	0.012750
C75	C	1.040722	-0.559719	0.031383
H76	H	1.018393	-0.569074	0.090936
H77	H	0.993469	-0.586746	-0.013489
H78	H	1.057662	-0.495380	0.031771
H79	H	1.096620	-0.553748	0.256842
H80	H	1.246217	-0.660517	0.031858
H81	H	1.201227	-0.073867	0.837507
H82	H	1.036667	-0.681002	0.135877
O83	O	1.318117	-0.526770	0.153906
C84	C	1.352216	-0.532215	0.223142
H85	H	1.305007	-0.546819	0.266725
H86	H	1.391091	-0.474894	0.247743
H87	H	1.388125	-0.579333	0.210946
O88	O	1.331751	0.073657	0.693744
C89	C	1.311257	0.140732	0.677735
H90	H	1.270400	0.124667	0.626045
H91	H	1.365531	0.181737	0.663961
H92	H	1.281269	0.170032	0.730254
O93	O	1.251852	-0.016840	0.791314
C94	C	1.276694	-0.078995	0.813873
H95	H	1.254430	-0.134204	0.770791
H96	H	1.253183	-0.085250	0.873847
H97	H	1.342554	-0.067794	0.815222
H98	H	0.587332	0.024473	-0.031096
O99	O	1.018435	-0.280212	0.880734
C100	C	0.965025	-0.340551	0.837375
H101	H	0.950960	-0.323462	0.781373
H102	H	0.909830	-0.352314	0.872367
H103	H	0.991095	-0.394669	0.823325
O104	O	1.356249	0.101312	0.564975
C105	C	1.335763	0.168393	0.548971
H106	H	1.294905	0.152335	0.497282
H107	H	1.390041	0.209393	0.535196
H108	H	1.305780	0.197694	0.601492
O109	O	1.324503	0.065464	0.408633
C110	C	1.272005	0.096391	0.371495
H111	H	1.212032	0.058748	0.371236
H112	H	1.291644	0.098269	0.309479
H113	H	1.269890	0.157164	0.403736
O114	O	0.869290	-0.078704	0.105851
C115	C	0.905177	-0.125188	0.047460
H116	H	0.922442	-0.173605	0.071749
H117	H	0.958907	-0.088766	0.026073
H118	H	0.863203	-0.150781	-0.002660
O119	O	0.720878	0.012647	-0.015580
C120	C	0.756765	-0.033837	-0.073971
H121	H	0.774030	-0.082254	-0.049681
H122	H	0.810496	0.002585	-0.095357
H123	H	0.714792	-0.059430	-0.124090
O124	O	1.236734	-0.620131	0.276202
C125	C	1.193810	-0.591009	0.340292
H126	H	1.160314	-0.548588	0.323599
H127	H	1.234808	-0.560405	0.389988
H128	H	1.151601	-0.640484	0.359114
O129	O	0.435732	0.007320	-0.008506
C130	C	0.439733	-0.023185	-0.088133
H131	H	0.496977	-0.043350	-0.101397
H132	H	0.435567	0.023110	-0.122638
H133	H	0.389889	-0.073982	-0.104753
O134	O	0.474251	-0.136407	0.182771
C135	C	0.393643	-0.140537	0.188218
H136	H	0.377803	-0.090502	0.165627
H137	H	0.375030	-0.137226	0.251179
H138	H	0.362915	-0.197221	0.152255
H139	H	0.537725	-0.165879	0.221884
O140	O	1.133127	-0.150970	0.447352
C141	C	1.153607	-0.218038	0.463395
H142	H	1.218685	-0.207579	0.472973
H143	H	1.136503	-0.267652	0.412548
H144	H	1.122192	-0.233117	0.517635
H145	H	1.020221	-0.278215	0.600421
H146	H	0.627466	-0.221125	0.295316
O147	O	1.091233	-0.198116	0.498236
C148	C	1.032540	-0.264362	0.482500
H149	H	1.031141	-0.298913	0.530351
H150	H	1.044687	-0.301209	0.424816
H151	H	0.974334	-0.246533	0.479609
H152	H	0.756245	-0.239521	0.319773
O153	O	0.907809	-0.222449	0.297173
C154	C	0.864470	-0.262563	0.350463
H155	H	0.808488	-0.240129	0.364564
H156	H	0.899511	-0.253402	0.405651
H157	H	0.850366	-0.326594	0.324268
