data_functionalizedCrystal
_audit_creation_method	'MofGen! by Chris Wilmer'
_symmetry_space_group_name_H-M	'P1'
_symmetry_Int_Tables_number	1
_symmetry_cell_setting	triclinic
loop_
_symmetry_equiv_pos_as_xyz
  x,y,z
_cell_length_a	27.732048
_cell_length_b	27.732048
_cell_length_c	26.809956
_cell_angle_alpha	90.000636
_cell_angle_beta	90.003258
_cell_angle_gamma	82.642655
loop_
_atom_site_label
_atom_site_type_symbol
_atom_site_fract_x
_atom_site_fract_y
_atom_site_fract_z
O1	O	-0.640931	-0.057510	-0.041421
O2	O	-0.500138	-0.066256	-0.041436
O3	O	-0.574907	0.008514	-0.041419
O4	O	-0.566162	-0.132280	-0.041439
O5	O	-0.574893	0.008502	0.041541
O6	O	-0.500123	-0.066267	0.041523
O7	O	-0.640917	-0.057522	0.041539
Zn8	Zn	-0.570518	-0.061896	0.054702
Zn9	Zn	-0.570536	-0.061881	-0.054600
O10	O	-0.566147	-0.132291	0.041521
C11	C	-0.482124	-0.066078	0.000041
C12	C	-0.428469	-0.065525	0.000036
C13	C	-0.658931	-0.057699	0.000060
C14	C	-0.712586	-0.058252	0.000062
C15	C	-0.089654	-0.106229	0.000051
C16	C	0.112006	-0.104178	0.000056
O17	O	0.143262	-0.141398	0.000073
N18	N	0.131130	-0.059843	0.000062
C19	C	0.099835	-0.016017	0.000069
O20	O	0.120728	0.021740	0.000079
C21	C	-0.101824	-0.018068	0.000068
C22	C	-0.120944	-0.062407	0.000057
C23	C	-0.108775	-0.150563	0.000042
C24	C	-0.159187	-0.151076	0.000038
C25	C	-0.190477	-0.107253	0.000044
C26	C	-0.171356	-0.062919	0.000054
C27	C	-0.133117	0.025757	0.000079
C28	C	-0.183535	0.025240	0.000080
C29	C	-0.202655	-0.019098	0.000069
C30	C	-0.253059	-0.019609	0.000056
N31	N	-0.272183	-0.063944	0.000050
C32	C	-0.240892	-0.107766	0.000044
C33	C	0.205709	-0.014943	0.000069
C34	C	0.256124	-0.014430	0.000068
C35	C	0.268291	-0.102591	0.000056
C36	C	0.217876	-0.103104	0.000053
C37	C	0.186585	-0.059278	0.000063
C38	C	-0.346761	-0.108839	0.000036
C39	C	-0.397178	-0.109347	0.000030
C40	C	-0.409341	-0.021186	0.000044
C41	C	-0.358929	-0.020678	0.000048
C42	C	-0.327639	-0.064508	0.000045
O43	O	-0.284343	0.017592	0.000045
O44	O	-0.261794	-0.145518	0.000045
C45	C	-0.039242	-0.105716	0.000055
C46	C	-0.020120	-0.061382	0.000065
C47	C	-0.051411	-0.017560	0.000071
C48	C	0.030294	-0.060869	0.000065
C49	C	0.061585	-0.104691	0.000059
C50	C	0.042461	-0.149026	0.000053
C51	C	-0.007951	-0.149539	0.000049
C52	C	-0.032287	0.026775	0.000077
C53	C	0.018125	0.027284	0.000080
C54	C	0.049416	-0.016538	0.000074
C55	C	-0.574716	0.026515	0.000062
C56	C	-0.574164	0.080170	0.000066
C57	C	-0.566338	-0.150292	0.000039
C58	C	-0.566891	-0.203947	0.000031
N59	N	-0.570509	-0.061906	0.129298
C60	C	-0.614867	0.418985	0.000045
C61	C	-0.612816	0.620645	0.000038
O62	O	-0.650037	0.651900	0.000021
N63	N	-0.568481	0.639768	0.000034
C64	C	-0.524656	0.608474	0.000028
O65	O	-0.486899	0.629367	0.000019
C66	C	-0.526707	0.406815	0.000031
C67	C	-0.571045	0.387694	0.000041
C68	C	-0.659202	0.399864	0.000054
C69	C	-0.659714	0.349452	0.000059
C70	C	-0.615892	0.318161	0.000054
C71	C	-0.571557	0.337282	0.000045
C72	C	-0.482882	0.375521	0.000022
C73	C	-0.483399	0.325104	0.000021
C74	C	-0.527737	0.305983	0.000031
C75	C	-0.528247	0.255580	0.000045
N76	N	-0.572583	0.236456	0.000050
C77	C	-0.616405	0.267747	0.000054
C78	C	-0.523582	0.714348	0.000027
C79	C	-0.523069	0.764762	0.000027
C80	C	-0.611230	0.776930	0.000036
C81	C	-0.611742	0.726514	0.000040
C82	C	-0.567917	0.695224	0.000031
C83	C	-0.617477	0.161878	0.000064
C84	C	-0.617986	0.111461	0.000071
C85	C	-0.529825	0.099298	0.000059
C86	C	-0.529316	0.149710	0.000055
C87	C	-0.573147	0.180999	0.000056
O88	O	-0.491047	0.224296	0.000057
O89	O	-0.654156	0.246844	0.000053
C90	C	-0.614355	0.469397	0.000041
C91	C	-0.570021	0.488518	0.000032
C92	C	-0.526198	0.457228	0.000027
C93	C	-0.569508	0.538933	0.000032
C94	C	-0.613330	0.570223	0.000036
C95	C	-0.657665	0.551100	0.000041
C96	C	-0.658177	0.500688	0.000045
C97	C	-0.481863	0.476351	0.000023
C98	C	-0.481355	0.526764	0.000019
C99	C	-0.525177	0.558054	0.000023
N100	N	-0.570549	-0.061867	-0.129196
C101	C	-0.603640	-0.028781	0.473932
C102	C	-0.603652	-0.028774	0.682810
O103	O	-0.631801	-0.000613	0.709820
N104	N	-0.570539	-0.061870	0.708925
C105	C	-0.537419	-0.094969	0.682818
O106	O	-0.509252	-0.123116	0.709824
C107	C	-0.537406	-0.094974	0.473941
C108	C	-0.570524	-0.061878	0.447829
C109	C	-0.636755	0.004312	0.447819
C110	C	-0.636754	0.004308	0.395603
C111	C	-0.603637	-0.028789	0.369500
C112	C	-0.570522	-0.061882	0.395612
C113	C	-0.504284	-0.128070	0.447835
C114	C	-0.504283	-0.128067	0.395613
C115	C	-0.537401	-0.094972	0.369500
C116	C	-0.537405	-0.094983	0.317293
N117	N	-0.570517	-0.061887	0.291177
C118	C	-0.603633	-0.028790	0.317281
C119	C	-0.537429	-0.094965	0.792481
C120	C	-0.537433	-0.094964	0.844700
C121	C	-0.603665	-0.028768	0.844689
C122	C	-0.603663	-0.028772	0.792469
C123	C	-0.570542	-0.061868	0.766366
C124	C	-0.603628	-0.028801	0.207623
C125	C	-0.603625	-0.028809	0.155402
C126	C	-0.537392	-0.095003	0.155418
C127	C	-0.537396	-0.094997	0.207635
C128	C	-0.570516	-0.061892	0.233735
O129	O	-0.509266	-0.123126	0.290250
O130	O	-0.631789	-0.000640	0.290266
C131	C	-0.603642	-0.028777	0.526149
C132	C	-0.570527	-0.061870	0.552261
C133	C	-0.537410	-0.094968	0.526158
C134	C	-0.570531	-0.061870	0.604480
C135	C	-0.603647	-0.028773	0.630584
C136	C	-0.636759	0.004324	0.604468
C137	C	-0.636758	0.004320	0.552252
C138	C	-0.504298	-0.128064	0.552273
C139	C	-0.504303	-0.128058	0.604489
C140	C	-0.537419	-0.094961	0.630593
H141	H	-0.412743	-0.145454	0.000021
H142	H	-0.446177	0.450879	0.000018
C143	C	-0.337895	0.028094	0.000055
C144	C	-0.304908	0.040581	-0.043016
C145	C	-0.283880	0.089354	-0.043003
C146	C	-0.295837	0.125641	0.000081
C147	C	-0.328825	0.113156	0.043155
C148	C	-0.349854	0.064382	0.043142
H149	H	-0.296055	0.013718	-0.074912
H150	H	-0.259460	0.098597	-0.074890
H151	H	-0.280271	0.161746	0.000091
H152	H	-0.337678	0.140018	0.075051
H153	H	-0.374274	0.055140	0.075029
C154	C	-0.673179	0.040718	0.366882
C155	C	-0.710006	0.022091	0.330979
C156	C	-0.746431	0.058505	0.302261
C157	C	-0.746029	0.113545	0.309446
C158	C	-0.709200	0.132174	0.345350
C159	C	-0.672775	0.095761	0.374068
H160	H	-0.710305	-0.018655	0.325658
H161	H	-0.773694	0.044714	0.275682
H162	H	-0.772993	0.140500	0.288187
H163	H	-0.708901	0.172920	0.350671
H164	H	-0.645512	0.109551	0.400648
H165	H	-0.486964	0.780325	0.000028
H166	H	-0.447710	0.299629	0.000014
C167	C	-0.467870	-0.164466	0.633211
C168	C	-0.431046	-0.145826	0.669108
C169	C	-0.394611	-0.182229	0.697828
C170	C	-0.395000	-0.237272	0.690649
C171	C	-0.431826	-0.255914	0.654750
C172	C	-0.468261	-0.219511	0.626031
H173	H	-0.430756	-0.105078	0.674424
H174	H	-0.367350	-0.168429	0.724403
H175	H	-0.368029	-0.264219	0.711909
H176	H	-0.432116	-0.296662	0.649435
H177	H	-0.495521	-0.233311	0.599456
C178	C	-0.434110	0.396549	0.000013
C179	C	-0.421639	0.429533	-0.043068
C180	C	-0.372865	0.450560	-0.043076
C181	C	-0.336562	0.438603	-0.000003
C182	C	-0.349032	0.405618	0.043080
C183	C	-0.397806	0.384590	0.043088
H184	H	-0.448514	0.438385	-0.074955
H185	H	-0.363634	0.474978	-0.074969
H186	H	-0.300457	0.454169	-0.000009
H187	H	-0.322158	0.396765	0.074968
H188	H	-0.407037	0.360172	0.074982
H189	H	-0.647846	0.710950	0.000047
C190	C	-0.673186	0.040728	0.523532
C191	C	-0.654578	0.077569	0.487636
C192	C	-0.691007	0.113981	0.458919
C193	C	-0.746043	0.113551	0.466099
C194	C	-0.764654	0.076708	0.501997
C195	C	-0.728225	0.040297	0.530713
H196	H	-0.613835	0.077889	0.482319
H197	H	-0.677230	0.141254	0.432345
H198	H	-0.773010	0.140504	0.444842
H199	H	-0.805397	0.076388	0.507313
H200	H	-0.742001	0.013023	0.557287
H201	H	0.033688	0.063392	0.000085
C202	C	-0.500969	-0.131405	0.236360
C203	C	-0.445933	-0.130972	0.229178
C204	C	-0.409502	-0.167377	0.257898
C205	C	-0.428106	-0.204215	0.293800
C206	C	-0.483144	-0.204650	0.300983
C207	C	-0.519576	-0.168244	0.272263
H208	H	-0.432159	-0.103700	0.202599
H209	H	-0.368759	-0.167055	0.252580
H210	H	-0.401137	-0.231165	0.315060
H211	H	-0.496918	-0.231921	0.327562
H212	H	-0.560319	-0.168566	0.277581
H213	H	-0.663726	0.031271	0.625730
H214	H	-0.630630	-0.001820	0.865951
C215	C	-0.066704	0.074983	0.000080
C216	C	-0.103034	0.086761	-0.043000
C217	C	-0.137449	0.134972	-0.043000
C218	C	-0.135534	0.171405	0.000081
C219	C	-0.099202	0.159627	0.043165
C220	C	-0.064787	0.111417	0.043165
H221	H	-0.104454	0.059791	-0.074895
H222	H	-0.164345	0.143690	-0.074894
H223	H	-0.161010	0.207093	0.000082
H224	H	-0.097782	0.186598	0.075059
H225	H	-0.037891	0.102699	0.075059
H226	H	-0.321291	-0.144530	0.000035
C227	C	-0.180212	-0.199850	0.000035
C228	C	-0.168247	-0.236143	0.043113
C229	C	-0.189266	-0.284922	0.043114
C230	C	-0.222251	-0.297407	0.000037
C231	C	-0.234217	-0.261114	-0.043045
C232	C	-0.213198	-0.212335	-0.043046
H233	H	-0.143829	-0.226901	0.075005
H234	H	-0.180408	-0.311788	0.075006
H235	H	-0.237810	-0.333516	0.000037
H236	H	-0.258635	-0.270355	-0.074936
H237	H	-0.222056	-0.185468	-0.074938
C238	C	-0.028978	-0.198312	0.000043
C239	C	-0.017017	-0.234609	0.043118
C240	C	-0.038040	-0.283386	0.043113
C241	C	-0.071023	-0.295866	0.000032
C242	C	-0.082986	-0.259568	-0.043046
C243	C	-0.061963	-0.210791	-0.043041
H244	H	0.007400	-0.225372	0.075011
H245	H	-0.029184	-0.310256	0.075002
H246	H	-0.086585	-0.331973	0.000028
H247	H	-0.107404	-0.268805	-0.074940
H248	H	-0.070819	-0.183921	-0.074931
H249	H	0.067947	-0.184708	0.000046
H250	H	-0.083302	-0.186251	0.000038
H251	H	-0.630595	-0.001859	0.134142
H252	H	0.271687	0.021674	0.000069
H253	H	0.180236	0.020747	0.000077
C254	C	-0.665690	0.196291	0.000070
C255	C	-0.702113	0.194374	0.043157
C256	C	-0.750325	0.228788	0.043166
C257	C	-0.762114	0.265118	0.000089
C258	C	-0.725690	0.267035	-0.043002
C259	C	-0.677478	0.232622	-0.043011
H260	H	-0.693387	0.167480	0.075049
H261	H	-0.777288	0.227368	0.075065
H262	H	-0.797803	0.290592	0.000095
H263	H	-0.734416	0.293930	-0.074894
H264	H	-0.650515	0.234042	-0.074910
C265	C	-0.475369	0.679933	0.000024
C266	C	-0.438937	0.681851	-0.043054
C267	C	-0.390723	0.647440	-0.043053
C268	C	-0.378943	0.611110	0.000026
C269	C	-0.415376	0.609191	0.043108
C270	C	-0.463589	0.643602	0.043107
H271	H	-0.447657	0.708746	-0.074947
H272	H	-0.363753	0.648861	-0.074946
H273	H	-0.343252	0.585637	0.000027
H274	H	-0.406656	0.582296	0.075001
H275	H	-0.490559	0.642181	0.074999
H276	H	-0.663722	0.031266	0.469068
H277	H	-0.434827	0.014492	0.000047
H278	H	0.202311	-0.139207	0.000047
H279	H	-0.654093	0.095896	0.000080
H280	H	-0.695819	0.333889	0.000065
C281	C	-0.640090	0.007637	0.763747
C282	C	-0.639693	0.062677	0.770933
C283	C	-0.676121	0.099088	0.742215
C284	C	-0.712946	0.080458	0.706311
C285	C	-0.713344	0.025415	0.699124
C286	C	-0.676916	-0.010996	0.727842
H287	H	-0.612432	0.076470	0.797513
H288	H	-0.675826	0.139835	0.747536
H289	H	-0.739912	0.107412	0.685052
H290	H	-0.740605	0.011622	0.672544
H291	H	-0.677211	-0.051743	0.722521
H292	H	-0.694889	0.425336	0.000056
H293	H	-0.477310	-0.155018	0.374362
H294	H	-0.493213	0.165279	0.000061
C295	C	-0.706951	0.479660	0.000051
C296	C	-0.743239	0.491620	0.043131
C297	C	-0.792016	0.470597	0.043135
C298	C	-0.804504	0.437614	0.000059
C299	C	-0.768214	0.425652	-0.043025
C300	C	-0.719438	0.446675	-0.043029
H301	H	-0.733996	0.516037	0.075022
H302	H	-0.818880	0.479452	0.075029
H303	H	-0.840611	0.422051	0.000061
H304	H	-0.777457	0.401235	-0.074916
H305	H	-0.692574	0.437820	-0.074922
H306	H	-0.477330	-0.155015	0.531024
H307	H	-0.209009	0.060929	0.000089
C308	C	-0.705870	0.585526	0.000044
C309	C	-0.717630	0.621864	0.043120
C310	C	-0.765832	0.656292	0.043120
C311	C	-0.802274	0.654383	0.000045
C312	C	-0.790515	0.618044	-0.043034
C313	C	-0.742313	0.583615	-0.043034
H314	H	-0.690653	0.623278	0.075010
H315	H	-0.774537	0.683193	0.075010
H316	H	-0.837956	0.679869	0.000045
H317	H	-0.817493	0.616629	-0.074924
H318	H	-0.733609	0.556714	-0.074924
C319	C	-0.501007	-0.131373	0.873421
C320	C	-0.464579	-0.167776	0.844702
C321	C	-0.428150	-0.204184	0.873421
C322	C	-0.428147	-0.204190	0.930859
C323	C	-0.464576	-0.167786	0.959582
C324	C	-0.501006	-0.131378	0.930863
H325	H	-0.464580	-0.167773	0.802179
H326	H	-0.401183	-0.231133	0.852158
H327	H	-0.401180	-0.231141	0.952119
H328	H	-0.464576	-0.167789	1.002105
H329	H	-0.527973	-0.104429	0.952126
C330	C	-0.467851	-0.164472	0.476552
C331	C	-0.412816	-0.164030	0.469371
C332	C	-0.376380	-0.200434	0.498087
C333	C	-0.394978	-0.237279	0.533985
C334	C	-0.450015	-0.237723	0.541168
C335	C	-0.486452	-0.201319	0.512451
H336	H	-0.399047	-0.136754	0.442795
H337	H	-0.335638	-0.200105	0.492770
H338	H	-0.368006	-0.264227	0.555243
H339	H	-0.463785	-0.264999	0.567743
H340	H	-0.527194	-0.201648	0.517769
C341	C	-0.500963	-0.131408	0.126699
C342	C	-0.464141	-0.112767	0.090804
C343	C	-0.427709	-0.149169	0.062084
C344	C	-0.428099	-0.204212	0.069259
C345	C	-0.464922	-0.222855	0.105156
C346	C	-0.501354	-0.186453	0.133876
H347	H	-0.463851	-0.072019	0.085491
H348	H	-0.400450	-0.135368	0.035511
H349	H	-0.401129	-0.231159	0.047999
H350	H	-0.465212	-0.263603	0.110469
H351	H	-0.528613	-0.200254	0.160449
H352	H	0.293777	-0.138273	0.000051
H353	H	-0.117558	0.061861	0.000088
H354	H	-0.646911	0.802415	0.000040
H355	H	-0.494146	0.073812	0.000057
H356	H	-0.445246	0.542327	0.000015
H357	H	-0.630597	-0.001843	0.228868
H358	H	-0.510457	-0.121917	0.771232
