data_functionalizedCrystal
_audit_creation_method	'MofGen! by Chris Wilmer'
_symmetry_space_group_name_H-M	'P1'
_symmetry_Int_Tables_number	1
_symmetry_cell_setting	triclinic
loop_
_symmetry_equiv_pos_as_xyz
  x,y,z
_cell_length_a	27.732048
_cell_length_b	27.732064
_cell_length_c	26.809956
_cell_angle_alpha	90.008400
_cell_angle_beta	89.996742
_cell_angle_gamma	82.646039
loop_
_atom_site_label
_atom_site_type_symbol
_atom_site_fract_x
_atom_site_fract_y
_atom_site_fract_z
O1	O	0.640934	0.057510	-0.041411
O2	O	1.140934	0.557510	0.458589
O3	O	0.500141	0.066255	-0.041426
O4	O	1.000141	0.566255	0.458574
O5	O	0.574906	-0.008514	-0.041420
O6	O	1.074906	0.491486	0.458580
O7	O	0.566169	0.132279	-0.041417
O8	O	1.066169	0.632279	0.458583
O9	O	0.574892	-0.008502	0.041539
O10	O	1.074892	0.491498	0.541539
O11	O	0.500127	0.066267	0.041534
O12	O	1.000127	0.566267	0.541534
O13	O	0.640920	0.057521	0.041548
O14	O	1.140920	0.557521	0.541548
Zn15	Zn	0.570522	0.061896	0.054712
Zn16	Zn	1.070522	0.561896	0.554712
Zn17	Zn	0.570540	0.061881	-0.054590
Zn18	Zn	1.070540	0.561881	0.445410
O19	O	0.566155	0.132290	0.041542
O20	O	1.066155	0.632290	0.541542
C21	C	0.482127	0.066077	0.000052
C22	C	0.982127	0.566077	0.500052
C23	C	0.428473	0.065524	0.000046
C24	C	0.928473	0.565524	0.500046
C25	C	0.089660	0.106228	0.000069
C26	C	0.589660	0.606228	0.500069
C27	C	-0.112000	0.104177	0.000073
C28	C	0.388000	0.604177	0.500073
O29	O	-0.143253	0.141397	0.000096
O30	O	0.356747	0.641397	0.500096
N31	N	-0.131126	0.059842	0.000071
N32	N	0.368874	0.559842	0.500071
C33	C	-0.099834	0.016017	0.000072
C34	C	0.400166	0.516017	0.500072
O35	O	-0.120730	-0.021740	0.000075
O36	O	0.379270	0.478260	0.500075
C37	C	0.101825	0.018068	0.000071
C38	C	0.601825	0.518068	0.500071
C39	C	0.120948	0.062406	0.000068
C40	C	0.620948	0.562406	0.500068
C41	C	0.108784	0.150562	0.000066
C42	C	0.608784	0.650562	0.500066
C43	C	0.159196	0.151074	0.000062
C44	C	0.659196	0.651074	0.500062
C45	C	0.190484	0.107252	0.000061
C46	C	0.690484	0.607252	0.500061
C47	C	0.171360	0.062918	0.000064
C48	C	0.671360	0.562918	0.500064
C49	C	0.133116	-0.025756	0.000075
C50	C	0.633116	0.474244	0.500075
C51	C	0.183533	-0.025240	0.000076
C52	C	0.683533	0.474760	0.500076
C53	C	0.202656	0.019098	0.000073
C54	C	0.702656	0.519098	0.500073
C55	C	0.253060	0.019609	0.000059
C56	C	0.753060	0.519609	0.500059
N57	N	0.272186	0.063944	0.000061
N58	N	0.772186	0.563944	0.500061
C59	C	0.240898	0.107765	0.000062
C60	C	0.740898	0.607765	0.500062
C61	C	-0.205708	0.014943	0.000071
C62	C	0.294292	0.514943	0.500071
C63	C	-0.256123	0.014430	0.000070
C64	C	0.243877	0.514430	0.500070
C65	C	-0.268285	0.102590	0.000073
C66	C	0.231715	0.602590	0.500073
C67	C	-0.217870	0.103103	0.000070
C68	C	0.282130	0.603103	0.500070
C69	C	-0.186582	0.059278	0.000073
C70	C	0.313418	0.559278	0.500073
C71	C	0.346768	0.108838	0.000053
C72	C	0.846768	0.608838	0.500053
C73	C	0.397185	0.109346	0.000047
C74	C	0.897185	0.609346	0.500047
C75	C	0.409342	0.021186	0.000048
C76	C	0.909342	0.521186	0.500048
C77	C	0.358930	0.020678	0.000051
C78	C	0.858930	0.520678	0.500051
C79	C	0.327643	0.064507	0.000055
C80	C	0.827643	0.564507	0.500055
O81	O	0.284342	-0.017592	0.000042
O82	O	0.784342	0.482408	0.500042
O83	O	0.261803	0.145516	0.000069
O84	O	0.761803	0.645516	0.500069
C85	C	0.039248	0.105716	0.000073
C86	C	0.539248	0.605716	0.500073
C87	C	0.020124	0.061382	0.000075
C88	C	0.520124	0.561382	0.500075
C89	C	0.051412	0.017560	0.000074
C90	C	0.551412	0.517560	0.500074
C91	C	-0.030290	0.060869	0.000075
C92	C	0.469710	0.560869	0.500075
C93	C	-0.061578	0.104690	0.000076
C94	C	0.438422	0.604690	0.500076
C95	C	-0.042452	0.149025	0.000078
C96	C	0.457548	0.649025	0.500078
C97	C	0.007960	0.149537	0.000074
C98	C	0.507960	0.649537	0.500074
C99	C	0.032286	-0.026775	0.000072
C100	C	0.532286	0.473225	0.500072
C101	C	-0.018127	-0.027284	0.000076
C102	C	0.481873	0.472716	0.500076
C103	C	-0.049415	0.016538	0.000077
C104	C	0.450585	0.516538	0.500077
C105	C	0.574715	-0.026515	0.000058
C106	C	1.074715	0.473485	0.500058
C107	C	0.574159	-0.080169	0.000053
C108	C	1.074159	0.419831	0.500053
C109	C	0.526192	-0.457242	0.000047
C110	C	1.026192	0.042758	0.500047
C111	C	0.528238	-0.255582	0.000046
C112	C	1.028238	0.244418	0.500046
O113	O	0.491017	-0.224329	0.000022
O114	O	0.991017	0.275671	0.500022
N115	N	0.572572	-0.236454	0.000051
N116	N	1.072572	0.263546	0.500051
C117	C	0.616398	-0.267745	0.000052
C118	C	1.116398	0.232255	0.500052
O119	O	0.654154	-0.246849	0.000051
O120	O	1.154154	0.253151	0.500051
C121	C	0.614351	-0.469405	0.000049
C122	C	1.114351	0.030595	0.500049
C123	C	0.570014	-0.488529	0.000049
C124	C	1.070014	0.011471	0.500049
C125	C	0.481858	-0.476367	0.000047
C126	C	0.981858	0.023633	0.500047
C127	C	0.481347	-0.526779	0.000049
C128	C	0.981347	-0.026779	0.500049
C129	C	0.525169	-0.558066	0.000052
C130	C	1.025169	-0.058066	0.500052
C131	C	0.569503	-0.538941	0.000052
C132	C	1.069503	-0.038941	0.500052
C133	C	0.658177	-0.500695	0.000047
C134	C	1.158177	-0.000695	0.500047
C135	C	0.657661	-0.551112	0.000044
C136	C	1.157661	-0.051112	0.500044
C137	C	0.613324	-0.570237	0.000045
C138	C	1.113324	-0.070237	0.500045
C139	C	0.612814	-0.620640	0.000058
C140	C	1.112814	-0.120640	0.500058
N141	N	0.568480	-0.639768	0.000053
N142	N	1.068480	-0.139768	0.500053
C143	C	0.524658	-0.608481	0.000050
C144	C	1.024658	-0.108481	0.500050
C145	C	0.617469	-0.161871	0.000055
C146	C	1.117469	0.338129	0.500055
C147	C	0.617981	-0.111456	0.000056
C148	C	1.117981	0.388544	0.500056
C149	C	0.529821	-0.099296	0.000049
C150	C	1.029821	0.400704	0.500049
C151	C	0.529310	-0.149712	0.000051
C152	C	1.029310	0.350288	0.500051
C153	C	0.573135	-0.180998	0.000050
C154	C	1.073135	0.319002	0.500050
C155	C	0.523588	-0.714350	0.000057
C156	C	1.023588	-0.214350	0.500057
C157	C	0.523080	-0.764767	0.000062
C158	C	1.023080	-0.264767	0.500062
C159	C	0.611241	-0.776923	0.000066
C160	C	1.111241	-0.276923	0.500066
C161	C	0.611748	-0.726511	0.000064
C162	C	1.111748	-0.226511	0.500064
C163	C	0.567918	-0.695225	0.000057
C164	C	1.067918	-0.195225	0.500057
O165	O	0.650016	-0.651921	0.000076
O166	O	1.150016	-0.151921	0.500076
O167	O	0.486907	-0.629387	0.000041
O168	O	0.986907	-0.129387	0.500041
C169	C	0.526703	-0.406830	0.000044
C170	C	1.026703	0.093170	0.500044
C171	C	0.571036	-0.387705	0.000044
C172	C	1.071036	0.112295	0.500044
C173	C	0.614859	-0.418992	0.000046
C174	C	1.114859	0.081008	0.500046
C175	C	0.571548	-0.337290	0.000045
C176	C	1.071548	0.162710	0.500045
C177	C	0.527726	-0.306003	0.000043
C178	C	1.027726	0.193997	0.500043
C179	C	0.483391	-0.325131	0.000038
C180	C	0.983391	0.174869	0.500038
C181	C	0.482880	-0.375543	0.000041
C182	C	0.982880	0.124457	0.500041
C183	C	0.659193	-0.399865	0.000051
C184	C	1.159193	0.100135	0.500051
C185	C	0.659701	-0.349452	0.000049
C186	C	1.159701	0.150548	0.500049
C187	C	0.615878	-0.318165	0.000046
C188	C	1.115878	0.181835	0.500046
C189	C	0.658934	0.057699	0.000069
C190	C	1.158934	0.557699	0.500069
C191	C	0.712589	0.058252	0.000072
C192	C	1.212589	0.558252	0.500072
C193	C	0.566347	0.150291	0.000063
C194	C	1.066347	0.650291	0.500063
C195	C	0.566903	0.203945	0.000065
C196	C	1.066903	0.703945	0.500065
N197	N	0.570512	0.061906	0.129308
N198	N	1.070512	0.561906	0.629308
N199	N	0.570553	0.061867	-0.129186
N200	N	1.070553	0.561867	0.370814
C201	C	0.603642	0.028781	0.473937
C202	C	1.103642	0.528781	0.973937
C203	C	0.603653	0.028774	0.682815
C204	C	1.103653	0.528774	1.182815
O205	O	0.631801	0.000613	0.709821
O206	O	1.131801	0.500613	1.209821
N207	N	0.570543	0.061870	0.708935
N208	N	1.070543	0.561870	1.208935
C209	C	0.537425	0.094968	0.682834
C210	C	1.037425	0.594968	1.182834
O211	O	0.509259	0.123115	0.709844
O212	O	1.009259	0.623115	1.209844
C213	C	0.537412	0.094973	0.473957
C214	C	1.037412	0.594973	0.973957
C215	C	0.570528	0.061878	0.447839
C216	C	1.070528	0.561878	0.947839
C217	C	0.636755	-0.004312	0.447819
C218	C	1.136755	0.495688	0.947819
C219	C	0.636753	-0.004308	0.395602
C220	C	1.136753	0.495692	0.895602
C221	C	0.603639	0.028789	0.369504
C222	C	1.103639	0.528789	0.869504
C223	C	0.570526	0.061882	0.395622
C224	C	1.070526	0.561882	0.895622
C225	C	0.504292	0.128069	0.447856
C226	C	1.004292	0.628069	0.947856
C227	C	0.504291	0.128066	0.395634
C228	C	1.004291	0.628066	0.895634
C229	C	0.537407	0.094971	0.369515
C230	C	1.037407	0.594971	0.869515
C231	C	0.537410	0.094983	0.317308
C232	C	1.037410	0.594983	0.817308
N233	N	0.570521	0.061886	0.291187
N234	N	1.070521	0.561886	0.791187
C235	C	0.603635	0.028789	0.317285
C236	C	1.103635	0.528789	0.817285
C237	C	0.537435	0.094964	0.792497
C238	C	1.037435	0.594964	1.292497
C239	C	0.537439	0.094964	0.844716
C240	C	1.037439	0.594964	1.344716
C241	C	0.603667	0.028768	0.844693
C242	C	1.103667	0.528768	1.344693
C243	C	0.603665	0.028771	0.792473
C244	C	1.103665	0.528771	1.292473
C245	C	0.570546	0.061868	0.766376
C246	C	1.070546	0.561868	1.266376
C247	C	0.603630	0.028801	0.207627
C248	C	1.103630	0.528801	0.707627
C249	C	0.603627	0.028809	0.155406
C250	C	1.103627	0.528809	0.655406
C251	C	0.537397	0.095002	0.155434
C252	C	1.037397	0.595002	0.655434
C253	C	0.537402	0.094996	0.207650
C254	C	1.037402	0.594996	0.707650
C255	C	0.570520	0.061891	0.233746
C256	C	1.070520	0.561891	0.733746
O257	O	0.509273	0.123125	0.290270
O258	O	1.009273	0.623125	0.790270
O259	O	0.631789	0.000640	0.290266
O260	O	1.131789	0.500640	0.790266
C261	C	0.603643	0.028777	0.526153
C262	C	1.103643	0.528777	1.026153
C263	C	0.570530	0.061870	0.552271
C264	C	1.070530	0.561870	1.052271
C265	C	0.537416	0.094967	0.526173
C266	C	1.037416	0.594967	1.026173
C267	C	0.570534	0.061869	0.604490
C268	C	1.070534	0.561869	1.104490
C269	C	0.603649	0.028773	0.630588
C270	C	1.103649	0.528773	1.130588
C271	C	0.636759	-0.004324	0.604468
C272	C	1.136759	0.495676	1.104468
C273	C	0.636758	-0.004320	0.552251
C274	C	1.136758	0.495680	1.052251
C275	C	0.504306	0.128063	0.552294
C276	C	1.004306	0.628063	1.052294
C277	C	0.504310	0.128057	0.604510
C278	C	1.004310	0.628057	1.104510
C279	C	0.537424	0.094960	0.630609
C280	C	1.037424	0.594960	1.130609
H281	H	-0.067936	0.184706	0.000076
H282	H	0.432064	0.684706	0.500076
H283	H	0.477319	0.155017	0.374388
H284	H	0.977319	0.655017	0.874388
O285	O	0.472075	0.160235	0.473142
O286	O	0.972075	0.660235	0.973142
C287	C	0.442858	0.189449	0.438899
C288	C	0.942858	0.689449	0.938899
H289	H	0.442466	0.169630	0.401674
H290	H	0.942466	0.669630	0.901674
H291	H	0.404199	0.197087	0.453985
H292	H	0.904199	0.697087	0.953985
H293	H	0.458281	0.225252	0.433348
H294	H	0.958281	0.725252	0.933348
H295	H	-0.293769	0.138272	0.000074
H296	H	0.206231	0.638272	0.500074
O297	O	0.505207	0.127068	0.870062
O298	O	1.005207	0.627068	1.370062
C299	C	0.457418	0.119545	0.857293
C300	C	0.957418	0.619545	1.357293
H301	H	0.457473	0.080843	0.842934
H302	H	0.957473	0.580843	1.342934
H303	H	0.433117	0.125273	0.891635
H304	H	0.933117	0.625273	1.391635
H305	H	0.443021	0.146434	0.826985
H306	H	0.943021	0.646434	1.326985
O307	O	0.505249	0.127103	0.129999
O308	O	1.005249	0.627103	0.629999
C309	C	0.512359	0.120011	0.078310
C310	C	1.012359	0.620011	0.578310
H311	H	0.530717	0.081456	0.071175
H312	H	1.030717	0.581456	0.571175
H313	H	0.475714	0.125634	0.058466
H314	H	0.975714	0.625634	0.558466
H315	H	0.536393	0.147208	0.063492
H316	H	1.036393	0.647208	0.563492
O317	O	0.661020	-0.092825	-0.000006
O318	O	1.161020	0.407175	0.499994
C319	C	0.663967	-0.064044	-0.042977
C320	C	1.163967	0.435956	0.457023
H321	H	0.625775	-0.051209	-0.057303
H322	H	1.125775	0.448791	0.442697
H323	H	0.682986	-0.031168	-0.033314
H324	H	1.182986	0.468832	0.466686
H325	H	0.685523	-0.086482	-0.073063
H326	H	1.185523	0.413518	0.426937
O327	O	0.439721	-0.021392	-0.000042
O328	O	0.939721	0.478608	0.499958
C329	C	0.431102	-0.048351	-0.042999
C330	C	0.931102	0.451649	0.457001
H331	H	0.413682	-0.022710	-0.073031
H332	H	0.913682	0.477290	0.426969
H333	H	0.467019	-0.068005	-0.057420
H334	H	0.967019	0.431995	0.442580
H335	H	0.405636	-0.076136	-0.033282
H336	H	0.905636	0.423864	0.466718
O337	O	0.472073	0.160161	0.629856
O338	O	0.972073	0.660161	1.129856
C339	C	0.424286	0.152635	0.617082
C340	C	0.924286	0.652635	1.117082
H341	H	0.424345	0.113934	0.602720
H342	H	0.924345	0.613934	1.102720
H343	H	0.399982	0.158358	0.651422
H344	H	0.899982	0.658358	1.151422
H345	H	0.409889	0.179525	0.586775
H346	H	0.909889	0.679525	1.086775
O347	O	0.702743	-0.330821	-0.000018
O348	O	1.202743	0.169179	0.499982
C349	C	0.705686	-0.302045	-0.042994
C350	C	1.205686	0.197955	0.457006
H351	H	0.667493	-0.289211	-0.057317
H352	H	1.167493	0.210789	0.442683
H353	H	0.724706	-0.269168	-0.033337
H354	H	1.224706	0.230832	0.466663
H355	H	0.727239	-0.324486	-0.073079
H356	H	1.227239	0.175514	0.426921
O357	O	0.505187	0.127162	0.232947
O358	O	1.005187	0.627162	0.732947
C359	C	0.475968	0.156383	0.198711
C360	C	0.975968	0.656383	0.698711
H361	H	0.475577	0.136573	0.161481
H362	H	0.975577	0.636573	0.661481
H363	H	0.437310	0.164016	0.213799
H364	H	0.937310	0.664016	0.713799
H365	H	0.491390	0.192189	0.193171
H366	H	0.991390	0.692189	0.693171
O367	O	0.505330	0.127141	0.767096
O368	O	1.005330	0.627141	1.267096
C369	C	0.530993	0.156796	0.736905
C370	C	1.030993	0.656796	1.236905
H371	H	0.568956	0.137279	0.729065
H372	H	1.068956	0.637279	1.229065
H373	H	0.510753	0.164593	0.700192
H374	H	1.010753	0.664593	1.200192
H375	H	0.534019	0.192494	0.757042
H376	H	1.034019	0.692494	1.257042
H377	H	-0.202303	0.139206	0.000070
H378	H	0.297697	0.639206	0.500070
O379	O	0.668905	-0.036542	0.629771
O380	O	1.168905	0.463458	1.129771
C381	C	0.661393	-0.084339	0.617014
C382	C	1.161393	0.415661	1.117014
H383	H	0.642766	-0.084151	0.579098
H384	H	1.142766	0.415849	1.079098
H385	H	0.697902	-0.108399	0.615228
H386	H	1.197902	0.391601	1.115228
H387	H	0.637438	-0.099117	0.646400
H388	H	1.137438	0.400883	1.146400
O389	O	0.668827	-0.036553	0.526866
O390	O	1.168827	0.463447	1.026866
C391	C	0.643106	-0.066200	0.496721
C392	C	1.143106	0.433800	0.996721
H393	H	0.605171	-0.046630	0.488863
H394	H	1.105171	0.453370	0.988863
H395	H	0.663338	-0.074091	0.460014
H396	H	1.163338	0.425909	0.960014
H397	H	0.640010	-0.101852	0.516907
H398	H	1.140010	0.398148	1.016907
H399	H	0.494139	-0.073813	0.000049
H400	H	0.994139	0.426187	0.500049
O401	O	0.114628	-0.068869	0.000105
O402	O	0.614628	0.431131	0.500105
C403	C	0.153063	-0.107431	0.000096
C404	C	0.653063	0.392569	0.500096
H405	H	0.187214	-0.094130	0.015796
H406	H	0.687214	0.405870	0.515796
H407	H	0.142758	-0.138403	0.024188
H408	H	0.642758	0.361597	0.524188
H409	H	0.160298	-0.120941	-0.039702
H410	H	0.660298	0.379059	0.460298
O411	O	-0.274616	-0.028682	0.000090
O412	O	0.225384	0.471318	0.500090
C413	C	-0.236183	-0.067247	0.000077
C414	C	0.263817	0.432753	0.500077
H415	H	-0.202033	-0.053952	0.015783
H416	H	0.297967	0.446048	0.515783
H417	H	-0.246493	-0.098222	0.024163
H418	H	0.253507	0.401778	0.524163
H419	H	-0.228947	-0.080751	-0.039723
H420	H	0.271053	0.419249	0.460277
H421	H	0.647851	-0.710939	0.000070
H422	H	1.147851	-0.210939	0.500070
H423	H	0.694879	-0.425334	0.000053
H424	H	1.194879	0.074666	0.500053
O425	O	0.472186	0.160284	0.526970
O426	O	0.972186	0.660284	1.026970
C427	C	0.479685	0.208077	0.539758
C428	C	0.979685	0.708077	1.039758
H429	H	0.518385	0.208039	0.554106
H430	H	1.018385	0.708039	1.054106
H431	H	0.473941	0.232385	0.505428
H432	H	0.973941	0.732385	1.005428
H433	H	0.452793	0.222454	0.570080
H434	H	0.952793	0.722454	1.070080
O435	O	0.480967	-0.684033	0.000075
O436	O	0.980967	-0.184033	0.500075
C437	C	0.441733	-0.711733	0.000063
C438	C	0.941733	-0.211733	0.500063
H439	H	0.454296	-0.749449	0.015770
H440	H	0.954296	-0.249449	0.515770
H441	H	0.411047	-0.692914	0.024147
H442	H	0.911047	-0.192914	0.524147
H443	H	0.428129	-0.715234	-0.039737
H444	H	0.928129	-0.215234	0.460263
O445	O	0.480039	-0.783401	-0.000007
O446	O	0.980039	-0.283401	0.499993
C447	C	0.477105	-0.812197	-0.042977
C448	C	0.977105	-0.312197	0.457023
H449	H	0.515302	-0.825036	-0.057298
H450	H	1.015302	-0.325036	0.442702
H451	H	0.458086	-0.845071	-0.033315
H452	H	0.958086	-0.345071	0.466685
H453	H	0.455557	-0.789771	-0.073066
H454	H	0.955557	-0.289771	0.426934
O455	O	0.177787	0.194134	-0.000032
O456	O	0.677787	0.694134	0.499968
C457	C	0.206592	0.197062	-0.042995
C458	C	0.706592	0.697062	0.457005
H459	H	0.194859	0.171880	-0.073020
H460	H	0.694859	0.671880	0.426980
H461	H	0.201771	0.236050	-0.057422
H462	H	0.701771	0.736050	0.442578
H463	H	0.246436	0.185624	-0.033283
H464	H	0.746436	0.685624	0.466717
H465	H	0.023525	0.185642	0.000072
H466	H	0.523525	0.685642	0.500072
H467	H	0.630595	0.001859	0.134143
H468	H	1.130595	0.501859	0.634143
H469	H	0.083313	0.186249	0.000069
H470	H	0.583313	0.686249	0.500069
O471	O	-0.175271	-0.027601	0.000003
O472	O	0.324729	0.472399	0.500003
C473	C	-0.145751	-0.029956	-0.042970
C474	C	0.354249	0.470044	0.457030
H475	H	-0.143471	0.008390	-0.057290
H476	H	0.356529	0.508390	0.442710
H477	H	-0.107729	-0.048258	-0.033310
H478	H	0.392271	0.451742	0.466690
H479	H	-0.162183	-0.051903	-0.073058
H480	H	0.337817	0.448097	0.426942
H481	H	0.653160	-0.187341	0.000054
H482	H	1.153160	0.312659	0.500054
H483	H	0.412752	0.145453	0.000045
H484	H	0.912752	0.645453	0.500045
H485	H	0.321299	0.144528	0.000059
H486	H	0.821299	0.644528	0.500059
H487	H	0.447710	-0.299648	0.000039
H488	H	0.947710	0.200352	0.500039
H489	H	0.343359	-0.015426	0.000046
H490	H	0.843359	0.484574	0.500046
O491	O	0.213974	-0.067781	0.000010
O492	O	0.713974	0.432219	0.500010
C493	C	0.243492	-0.070137	-0.042963
C494	C	0.743492	0.429863	0.457037
H495	H	0.245767	-0.031792	-0.057289
H496	H	0.745767	0.468208	0.442711
H497	H	0.281517	-0.088433	-0.033302
H498	H	0.781517	0.411567	0.466698
H499	H	0.227063	-0.092091	-0.073048
H500	H	0.727063	0.407909	0.426952
H501	H	0.057756	-0.062461	0.000073
H502	H	0.557756	0.437539	0.500073
O503	O	-0.036619	-0.070400	0.000100
O504	O	0.463381	0.429600	0.500100
C505	C	0.001813	-0.108964	0.000087
C506	C	0.501813	0.391036	0.500087
H507	H	0.035966	-0.095668	0.015786
H508	H	0.535966	0.404332	0.515786
H509	H	-0.008494	-0.139937	0.024177
H510	H	0.491506	0.360063	0.524177
H511	H	0.009045	-0.122472	-0.039712
H512	H	0.509045	0.377528	0.460288
O513	O	0.438235	-0.545272	0.000023
O514	O	0.938235	-0.045272	0.500023
C515	C	0.399671	-0.506839	0.000032
C516	C	0.899671	-0.006839	0.500032
H517	H	0.412968	-0.472690	-0.015672
H518	H	0.912968	0.027310	0.484328
H519	H	0.368697	-0.517150	-0.024058
H520	H	0.868697	-0.017150	0.475942
H521	H	0.386166	-0.499600	0.039830
H522	H	0.886166	0.000400	0.539830
H523	H	0.630597	0.001843	0.228869
H524	H	1.130597	0.501843	0.728869
H525	H	0.694281	-0.485133	0.000046
H526	H	1.194281	0.014867	0.500046
H527	H	0.446171	-0.450897	0.000043
H528	H	0.946171	0.049103	0.500043
H529	H	0.663718	-0.031258	0.374340
H530	H	1.163718	0.468742	0.874340
H531	H	0.446776	-0.391109	0.000042
H532	H	0.946776	0.108891	0.500042
H533	H	0.630630	0.001822	0.771211
H534	H	1.130630	0.501822	1.271211
O535	O	0.486198	-0.168207	0.000025
O536	O	0.986198	0.331793	0.500025
C537	C	0.447633	-0.129775	0.000037
C538	C	0.947633	0.370225	0.500037
H539	H	0.460927	-0.095624	-0.015664
H540	H	0.960927	0.404376	0.484336
H541	H	0.416658	-0.140086	-0.024052
H542	H	0.916658	0.359914	0.475948
H543	H	0.434128	-0.122539	0.039837
H544	H	0.934128	0.377461	0.539837
H545	H	0.693350	-0.576584	0.000041
H546	H	1.193350	-0.076584	0.500041
H547	H	0.663720	-0.031265	0.469063
H548	H	1.163720	0.468735	0.969063
O549	O	0.653763	-0.807389	0.000046
O550	O	1.153763	-0.307389	0.500046
C551	C	0.643799	-0.855985	0.000059
C552	C	1.143799	-0.355985	0.500059
H553	H	0.605847	-0.857641	-0.015646
H554	H	1.105847	-0.357641	0.484354
H555	H	0.671754	-0.879036	-0.024028
H556	H	1.171754	-0.379036	0.475972
H557	H	0.645740	-0.870574	0.039858
H558	H	1.145740	-0.370574	0.539858
O559	O	0.635813	-0.003451	0.869995
O560	O	1.135813	0.496549	1.369995
C561	C	0.628298	-0.051247	0.857240
C562	C	1.128298	0.448753	1.357240
H563	H	0.609668	-0.051059	0.819325
H564	H	1.109668	0.448941	1.319325
H565	H	0.664805	-0.075309	0.855451
H566	H	1.164805	0.424691	1.355451
H567	H	0.604344	-0.066024	0.886628
H568	H	1.104344	0.433976	1.386628
