data_functionalizedCrystal
_audit_creation_method	'MofGen! by Chris Wilmer'
_symmetry_space_group_name_H-M	'P1'
_symmetry_Int_Tables_number	1
_symmetry_cell_setting	triclinic
loop_
_symmetry_equiv_pos_as_xyz
  x,y,z
_cell_length_a	23.532409
_cell_length_b	17.038272
_cell_length_c	16.098546
_cell_angle_alpha	92.921539
_cell_angle_beta	87.278796
_cell_angle_gamma	86.980558
loop_
_atom_site_label
_atom_site_type_symbol
_atom_site_fract_x
_atom_site_fract_y
_atom_site_fract_z
O1	O	0.121240	1.039956	0.069213
O2	O	0.371240	1.289956	0.319213
O3	O	0.621240	1.539956	0.569213
O4	O	0.871240	1.789956	0.819213
O5	O	0.119277	0.812340	0.069223
O6	O	0.369277	1.062340	0.319223
O7	O	0.619277	1.312340	0.569223
O8	O	0.869277	1.562340	0.819223
O9	O	0.037687	0.933011	0.069219
O10	O	0.287687	1.183011	0.319219
O11	O	0.537687	1.433011	0.569219
O12	O	0.787687	1.683011	0.819219
O13	O	0.202829	0.919285	0.069217
O14	O	0.452829	1.169285	0.319217
O15	O	0.702829	1.419285	0.569217
O16	O	0.952829	1.669285	0.819217
O17	O	0.042453	0.925989	-0.069294
O18	O	0.292453	1.175989	0.180706
O19	O	0.542453	1.425989	0.430706
O20	O	0.792453	1.675989	0.680706
O21	O	0.124042	0.805318	-0.069290
O22	O	0.374042	1.055318	0.180710
O23	O	0.624042	1.305318	0.430710
O24	O	0.874042	1.555318	0.680710
O25	O	0.126006	1.032934	-0.069299
O26	O	0.376006	1.282934	0.180701
O27	O	0.626006	1.532934	0.430701
O28	O	0.876006	1.782934	0.680701
Zn29	Zn	0.125781	0.918011	-0.091286
Zn30	Zn	0.375781	1.168011	0.158714
Zn31	Zn	0.625781	1.418011	0.408714
Zn32	Zn	0.875781	1.668011	0.658714
Zn33	Zn	0.119502	0.927263	0.091210
Zn34	Zn	0.369502	1.177263	0.341210
Zn35	Zn	0.619502	1.427263	0.591210
Zn36	Zn	0.869502	1.677263	0.841210
O37	O	0.207595	0.912263	-0.069295
O38	O	0.457595	1.162263	0.180705
O39	O	0.707595	1.412263	0.430705
O40	O	0.957595	1.662263	0.680705
C41	C	0.018836	0.929151	-0.000035
C42	C	0.268836	1.179151	0.249965
C43	C	0.518836	1.429151	0.499965
C44	C	0.768836	1.679151	0.749965
C45	C	-0.044437	0.928099	-0.000029
C46	C	0.205563	1.178099	0.249971
C47	C	0.455563	1.428099	0.499971
C48	C	0.705563	1.678099	0.749971
C49	C	0.119874	0.779714	-0.000032
C50	C	0.369874	1.029714	0.249968
C51	C	0.619874	1.279714	0.499968
C52	C	0.869874	1.529714	0.749968
C53	C	0.114547	0.692961	-0.000029
C54	C	0.364547	0.942961	0.249971
C55	C	0.614547	1.192961	0.499971
C56	C	0.864547	1.442961	0.749971
C57	C	0.125408	1.065560	-0.000042
C58	C	0.375408	1.315560	0.249958
C59	C	0.625408	1.565560	0.499958
C60	C	0.875408	1.815560	0.749958
C61	C	0.130735	1.152314	-0.000040
C62	C	0.380735	1.402314	0.249960
C63	C	0.630735	1.652314	0.499960
C64	C	0.880735	1.902314	0.749960
C65	C	-0.320515	0.927455	0.075478
C66	C	-0.070515	1.177455	0.325478
C67	C	0.179485	1.427455	0.575478
C68	C	0.429485	1.677455	0.825478
C69	C	-0.261063	0.928431	0.075478
C70	C	-0.011063	1.178431	0.325478
C71	C	0.238937	1.428431	0.575478
C72	C	0.488937	1.678431	0.825478
O73	O	-0.232520	0.932219	0.139688
O74	O	0.017480	1.182219	0.389688
O75	O	0.267480	1.432219	0.639688
O76	O	0.517480	1.682219	0.889688
N77	N	-0.228738	0.925087	-0.000027
N78	N	0.021262	1.175087	0.249973
N79	N	0.271262	1.425087	0.499973
N80	N	0.521262	1.675087	0.749973
C81	C	-0.255867	0.920774	-0.075536
C82	C	-0.005867	1.170774	0.174464
C83	C	0.244133	1.420774	0.424464
C84	C	0.494133	1.670774	0.674464
O85	O	-0.222913	0.918019	-0.139758
O86	O	0.027087	1.168019	0.110242
O87	O	0.277087	1.418019	0.360242
O88	O	0.527087	1.668019	0.610242
C89	C	-0.315318	0.919803	-0.075535
C90	C	-0.065318	1.169803	0.174465
C91	C	0.184682	1.419803	0.424465
C92	C	0.434682	1.669803	0.674465
C93	C	-0.347640	0.923139	-0.000026
C94	C	-0.097640	1.173139	0.249974
C95	C	0.152360	1.423139	0.499974
C96	C	0.402360	1.673139	0.749974
C97	C	-0.352837	0.930792	0.150981
C98	C	-0.102837	1.180792	0.400981
C99	C	0.147163	1.430792	0.650981
C100	C	0.397163	1.680792	0.900981
C101	C	-0.412284	0.929814	0.150981
C102	C	-0.162284	1.179814	0.400981
C103	C	0.087716	1.429814	0.650981
C104	C	0.337716	1.679814	0.900981
C105	C	-0.439409	0.925499	0.075477
C106	C	-0.189409	1.175499	0.325477
C107	C	0.060591	1.425499	0.575477
C108	C	0.310591	1.675499	0.825477
C109	C	-0.407088	0.922161	-0.000026
C110	C	-0.157088	1.172161	0.249974
C111	C	0.092912	1.422161	0.499974
C112	C	0.342912	1.672161	0.749974
C113	C	-0.342447	0.915495	-0.151044
C114	C	-0.092447	1.165495	0.098956
C115	C	0.157553	1.415495	0.348956
C116	C	0.407553	1.665495	0.598956
C117	C	-0.401902	0.914525	-0.151037
C118	C	-0.151902	1.164525	0.098963
C119	C	0.098098	1.414525	0.348963
C120	C	0.348098	1.664525	0.598963
C121	C	-0.434224	0.917862	-0.075527
C122	C	-0.184224	1.167862	0.174473
C123	C	0.065776	1.417862	0.424473
C124	C	0.315776	1.667862	0.674473
C125	C	-0.493660	0.916868	-0.075531
C126	C	-0.243660	1.166868	0.174469
C127	C	0.006340	1.416868	0.424469
C128	C	0.256340	1.666868	0.674469
N129	N	-0.525986	0.920212	-0.000026
N130	N	-0.275986	1.170212	0.249974
N131	N	-0.025986	1.420212	0.499974
N132	N	0.224014	1.670212	0.749974
C133	C	-0.498860	0.924528	0.075478
C134	C	-0.248860	1.174528	0.325478
C135	C	0.001140	1.424528	0.575478
C136	C	0.251140	1.674528	0.825478
C137	C	-0.131017	0.922814	-0.075532
C138	C	0.118983	1.172814	0.174468
C139	C	0.368983	1.422814	0.424468
C140	C	0.618983	1.672814	0.674468
C141	C	-0.071567	0.923780	-0.075534
C142	C	0.178433	1.173780	0.174466
C143	C	0.428433	1.423780	0.424466
C144	C	0.678433	1.673780	0.674466
C145	C	-0.076767	0.931439	0.075481
C146	C	0.173233	1.181439	0.325481
C147	C	0.423233	1.431439	0.575481
C148	C	0.673233	1.681439	0.825481
C149	C	-0.136218	0.930468	0.075482
C150	C	0.113782	1.180468	0.325482
C151	C	0.363782	1.430468	0.575482
C152	C	0.613782	1.680468	0.825482
C153	C	-0.163342	0.926159	-0.000027
C154	C	0.086658	1.176159	0.249973
C155	C	0.336658	1.426159	0.499973
C156	C	0.586658	1.676159	0.749973
C157	C	-0.623704	0.922473	0.075471
C158	C	-0.373704	1.172473	0.325471
C159	C	-0.123704	1.422473	0.575471
C160	C	0.126296	1.672473	0.825471
C161	C	-0.683156	0.921491	0.075464
C162	C	-0.433156	1.171491	0.325464
C163	C	-0.183156	1.421491	0.575464
C164	C	0.066844	1.671491	0.825464
C165	C	-0.677951	0.913836	-0.075550
C166	C	-0.427951	1.163836	0.174450
C167	C	-0.177951	1.413836	0.424450
C168	C	0.072049	1.663836	0.674450
C169	C	-0.618504	0.914814	-0.075543
C170	C	-0.368504	1.164814	0.174457
C171	C	-0.118504	1.414814	0.424457
C172	C	0.131496	1.664814	0.674457
C173	C	-0.591382	0.919135	-0.000026
C174	C	-0.341382	1.169135	0.249974
C175	C	-0.091382	1.419135	0.499974
C176	C	0.158618	1.669135	0.749974
O177	O	-0.522243	0.913085	-0.139708
O178	O	-0.272243	1.163085	0.110292
O179	O	-0.022243	1.413085	0.360292
O180	O	0.227757	1.663085	0.610292
O181	O	-0.531822	0.927292	0.139689
O182	O	-0.281822	1.177292	0.389689
O183	O	-0.031822	1.427292	0.639689
O184	O	0.218178	1.677292	0.889689
C185	C	0.226446	0.916124	-0.000039
C186	C	0.476446	1.166124	0.249961
C187	C	0.726446	1.416124	0.499961
C188	C	0.976446	1.666124	0.749961
C189	C	0.289719	0.917176	-0.000040
C190	C	0.539719	1.167176	0.249960
C191	C	0.789719	1.417176	0.499960
C192	C	1.039719	1.667176	0.749960
N193	N	0.130066	0.911703	-0.215835
N194	N	0.380066	1.161703	0.034165
N195	N	0.630066	1.411703	0.284165
N196	N	0.880066	1.661703	0.534165
C197	C	0.081830	1.202790	-0.000037
C198	C	0.331830	1.452790	0.249963
C199	C	0.581830	1.702790	0.499963
C200	C	0.831830	1.952790	0.749963
C201	C	0.086838	1.284303	-0.000040
C202	C	0.336838	1.534303	0.249960
C203	C	0.586838	1.784303	0.499960
C204	C	0.836838	2.034303	0.749960
C205	C	0.140752	1.315339	-0.000041
C206	C	0.390752	1.565339	0.249959
C207	C	0.640752	1.815339	0.499959
C208	C	0.890752	2.065339	0.749959
C209	C	0.189660	1.264857	-0.000046
C210	C	0.439660	1.514857	0.249954
C211	C	0.689660	1.764857	0.499954
C212	C	0.939660	2.014857	0.749954
C213	C	0.184652	1.183345	-0.000049
C214	C	0.434652	1.433345	0.249951
C215	C	0.684652	1.683345	0.499951
C216	C	0.934652	1.933345	0.749951
C217	C	0.158447	1.560966	-0.000037
C218	C	0.408447	1.810966	0.249963
C219	C	0.658447	2.060966	0.499963
C220	C	0.908447	2.310966	0.749963
C221	C	0.163452	1.642485	-0.000032
C222	C	0.413452	1.892485	0.249968
C223	C	0.663452	2.142485	0.499968
C224	C	0.913452	2.392485	0.749968
C225	C	0.060630	1.661926	-0.000027
C226	C	0.310630	1.911926	0.249973
C227	C	0.560630	2.161926	0.499973
C228	C	0.810630	2.411926	0.749973
C229	C	0.055625	1.580412	-0.000025
C230	C	0.305625	1.830412	0.249975
C231	C	0.555625	2.080412	0.499975
C232	C	0.805625	2.330412	0.749975
C233	C	0.104534	1.529936	-0.000035
C234	C	0.354534	1.779936	0.249965
C235	C	0.604534	2.029936	0.499965
C236	C	0.854534	2.279936	0.749965
C237	C	0.145872	1.398659	-0.000041
C238	C	0.395872	1.648659	0.249959
C239	C	0.645872	1.898659	0.499959
C240	C	0.895872	2.148659	0.749959
C241	C	0.099413	1.446618	-0.000041
C242	C	0.349413	1.696618	0.249959
C243	C	0.599413	1.946618	0.499959
C244	C	0.849413	2.196618	0.749959
C245	C	0.149832	0.882348	-0.740653
C246	C	0.399832	1.132348	-0.490653
C247	C	0.649832	1.382348	-0.240653
C248	C	0.899832	1.632348	0.009347
C249	C	0.146846	0.886778	-0.653465
C250	C	0.396846	1.136778	-0.403465
C251	C	0.646846	1.386778	-0.153465
C252	C	0.896846	1.636778	0.096535
C253	C	0.109243	0.942442	-0.609865
C254	C	0.359243	1.192442	-0.359865
C255	C	0.609243	1.442442	-0.109865
C256	C	0.859243	1.692442	0.140135
C257	C	0.074619	0.993674	-0.653459
C258	C	0.324619	1.243674	-0.403459
C259	C	0.574619	1.493674	-0.153459
C260	C	0.824619	1.743674	0.096541
C261	C	0.077602	0.989240	-0.740647
C262	C	0.327602	1.239240	-0.490647
C263	C	0.577602	1.489240	-0.240647
C264	C	0.827602	1.739240	0.009353
C265	C	0.098425	0.958501	-0.346616
C266	C	0.348425	1.208501	-0.096616
C267	C	0.598425	1.458501	0.153384
C268	C	0.848425	1.708501	0.403384
C269	C	0.095446	0.962933	-0.259423
C270	C	0.345446	1.212933	-0.009423
C271	C	0.595446	1.462933	0.240577
C272	C	0.845446	1.712933	0.490577
C273	C	0.167673	0.856035	-0.259434
C274	C	0.417673	1.106035	-0.009434
C275	C	0.667673	1.356035	0.240566
C276	C	0.917673	1.606035	0.490566
C277	C	0.170655	0.851609	-0.346623
C278	C	0.420655	1.101609	-0.096623
C279	C	0.670655	1.351609	0.153377
C280	C	0.920655	1.601609	0.403377
C281	C	0.136029	0.902838	-0.390210
C282	C	0.386029	1.152838	-0.140210
C283	C	0.636029	1.402838	0.109790
C284	C	0.886029	1.652838	0.359790
C285	C	0.106191	0.946973	-0.520745
C286	C	0.356191	1.196973	-0.270745
C287	C	0.606191	1.446973	-0.020745
C288	C	0.856191	1.696973	0.229255
C289	C	0.139079	0.898303	-0.479329
C290	C	0.389079	1.148303	-0.229329
C291	C	0.639079	1.398303	0.020671
C292	C	0.889079	1.648303	0.270671
N293	N	0.115212	0.933578	0.215759
N294	N	0.365212	1.183578	0.465759
N295	N	0.615212	1.433578	0.715759
N296	N	0.865212	1.683578	0.965759
H297	H	-0.709470	0.924205	0.136955
H298	H	-0.459470	1.174205	0.386955
H299	H	-0.209470	1.424205	0.636955
H300	H	0.040530	1.674205	0.886955
F301	F	0.220837	1.675513	-0.000033
F302	F	0.470837	1.925513	0.249967
F303	F	0.720837	2.175513	0.499967
F304	F	0.970837	2.425513	0.749967
F305	F	0.042036	1.413585	-0.000045
F306	F	0.292036	1.663585	0.249955
F307	F	0.542036	1.913585	0.499955
F308	F	0.792036	2.163585	0.749955
H309	H	0.169693	0.852979	-0.514830
H310	H	0.419693	1.102979	-0.264830
H311	H	0.669693	1.352979	-0.014830
H312	H	0.919693	1.602979	0.235170
H313	H	0.201275	0.806283	-0.382120
H314	H	0.451275	1.056283	-0.132120
H315	H	0.701275	1.306283	0.117880
H316	H	0.951275	1.556283	0.367880
F317	F	-0.594847	0.927072	0.155845
F318	F	-0.344847	1.177072	0.405845
F319	F	-0.094847	1.427072	0.655845
F320	F	0.155153	1.677072	0.905845
F321	F	0.024447	1.169767	-0.000033
F322	F	0.274447	1.419767	0.249967
F323	F	0.524447	1.669767	0.499967
F324	F	0.774447	1.919767	0.749967
F325	F	-0.323977	0.935387	0.231350
F326	F	-0.073977	1.185387	0.481350
F327	F	0.176023	1.435387	0.731350
F328	F	0.426023	1.685387	0.981350
F329	F	0.236703	1.129624	-0.000057
F330	F	0.486703	1.379624	0.249943
F331	F	0.736703	1.629624	0.499943
F332	F	0.986703	1.879624	0.749943
H333	H	0.075574	0.992297	-0.485239
H334	H	0.325574	1.242297	-0.235239
H335	H	0.575574	1.492297	0.014761
H336	H	0.825574	1.742297	0.264761
H337	H	-0.162531	0.933183	0.136968
H338	H	0.087469	1.183183	0.386968
H339	H	0.337469	1.433183	0.636968
H340	H	0.587469	1.683183	0.886968
H341	H	-0.045254	0.921048	-0.137021
H342	H	0.204746	1.171048	0.112979
H343	H	0.454746	1.421048	0.362979
H344	H	0.704746	1.671048	0.612979
H345	H	0.011723	1.555149	-0.000025
H346	H	0.261723	1.805149	0.249975
H347	H	0.511723	2.055149	0.499975
H348	H	0.761723	2.305149	0.749975
F349	F	0.203250	1.431697	-0.000034
F350	F	0.453250	1.681697	0.249966
F351	F	0.703250	1.931697	0.499966
F352	F	0.953250	2.181697	0.749966
H353	H	0.175036	0.845062	-0.617976
H354	H	0.425036	1.095062	-0.367976
H355	H	0.675036	1.345062	-0.117976
H356	H	0.925036	1.595062	0.132024
H357	H	-0.316140	0.912786	-0.212532
H358	H	-0.066140	1.162786	0.037468
H359	H	0.183860	1.412786	0.287468
H360	H	0.433860	1.662786	0.537468
H361	H	0.233558	1.290132	-0.000052
H362	H	0.483558	1.540132	0.249948
H363	H	0.733558	1.790132	0.499948
H364	H	0.983558	2.040132	0.749948
F365	F	-0.159879	0.918220	-0.155904
F366	F	0.090121	1.168220	0.094096
F367	F	0.340121	1.418220	0.344096
F368	F	0.590121	1.668220	0.594096
H369	H	-0.423983	0.911017	-0.212527
H370	H	-0.173983	1.161017	0.037473
H371	H	0.076017	1.411017	0.287473
H372	H	0.326017	1.661017	0.537473
F373	F	0.204521	0.801515	-0.213041
F374	F	0.454521	1.051515	0.036959
F375	F	0.704521	1.301515	0.286959
F376	F	0.954521	1.551515	0.536959
F377	F	0.210501	1.507257	-0.000039
F378	F	0.460501	1.757257	0.249961
F379	F	0.710501	2.007257	0.499961
F380	F	0.960501	2.257257	0.749961
H381	H	0.043998	1.038994	-0.617956
H382	H	0.293998	1.288994	-0.367956
H383	H	0.543998	1.538994	-0.117956
H384	H	0.793998	1.788994	0.132044
H385	H	0.047015	1.325398	-0.000041
H386	H	0.297015	1.575398	0.249959
H387	H	0.547015	1.825398	0.499959
H388	H	0.797015	2.075398	0.749959
H389	H	0.180456	0.837024	-0.776146
H390	H	0.430456	1.087024	-0.526146
H391	H	0.680456	1.337024	-0.276146
H392	H	0.930456	1.587024	-0.026146
H393	H	0.070232	1.000215	-0.382098
H394	H	0.320232	1.250215	-0.132098
H395	H	0.570232	1.500215	0.117902
H396	H	0.820232	1.750215	0.367902
H397	H	-0.438596	0.932537	0.212468
H398	H	-0.188596	1.182537	0.462468
H399	H	0.061404	1.432537	0.712468
H400	H	0.311404	1.682537	0.962468
H401	H	-0.054671	0.934950	0.136960
H402	H	0.195329	1.184950	0.386960
H403	H	0.445329	1.434950	0.636960
H404	H	0.695329	1.684950	0.886960
H405	H	-0.592184	0.912066	-0.137029
H406	H	-0.342184	1.162066	0.112971
H407	H	-0.092184	1.412066	0.362971
H408	H	0.157816	1.662066	0.612971
H409	H	0.049410	1.030956	-0.776135
H410	H	0.299410	1.280956	-0.526135
H411	H	0.549410	1.530956	-0.276135
H412	H	0.799410	1.780956	-0.026135
F413	F	-0.706830	0.909238	-0.155902
F414	F	-0.456830	1.159238	0.094098
F415	F	-0.206830	1.409238	0.344098
F416	F	0.043170	1.659238	0.594098
H417	H	0.064823	1.008264	-0.223929
H418	H	0.314823	1.258264	0.026071
H419	H	0.564823	1.508264	0.276071
H420	H	0.814823	1.758264	0.526071
F421	F	0.008581	1.715651	-0.000021
F422	F	0.258581	1.965651	0.249979
F423	F	0.508581	2.215651	0.499979
F424	F	0.758581	2.465651	0.749979
