data_functionalizedCrystal
_audit_creation_method	'MofGen! by Chris Wilmer'
_symmetry_space_group_name_H-M	'P1'
_symmetry_Int_Tables_number	1
_symmetry_cell_setting	triclinic
loop_
_symmetry_equiv_pos_as_xyz
  x,y,z
_cell_length_a	10.654550
_cell_length_b	10.489741
_cell_length_c	9.730223
_cell_angle_alpha	89.998920
_cell_angle_beta	89.996251
_cell_angle_gamma	84.512038
loop_
_atom_site_label
_atom_site_type_symbol
_atom_site_fract_x
_atom_site_fract_y
_atom_site_fract_z
O1	O	1.667918	0.179156	-0.114402
O2	O	1.302447	0.196226	-0.114380
O3	O	1.493499	0.002089	-0.114383
O4	O	1.476867	0.373293	-0.114399
O5	O	1.493497	0.002094	0.114196
O6	O	1.302445	0.196231	0.114200
O7	O	1.667916	0.179161	0.114178
Zn8	Zn	1.485180	0.187697	0.150481
Zn9	Zn	1.485183	0.187690	-0.150683
O10	O	1.476864	0.373298	0.114181
C11	C	1.255648	0.194975	-0.000087
C12	C	1.116203	0.191225	-0.000079
C13	C	1.036771	0.305530	-0.000103
C14	C	0.905748	0.301999	-0.000127
C15	C	0.933603	0.069849	-0.000107
C16	C	1.064623	0.073381	-0.000073
C17	C	1.088351	0.423374	-0.000109
C18	C	1.008917	0.537688	-0.000135
C19	C	0.877895	0.534157	-0.000159
C20	C	0.826306	0.416312	-0.000156
C21	C	1.492241	-0.045439	-0.000094
C22	C	1.488483	-0.187067	-0.000096
C23	C	1.366923	-0.255148	-0.000099
C24	C	1.424346	-0.347296	0.112599
C25	C	1.424377	-0.347276	-0.112763
C26	C	1.545956	-0.277350	0.112695
C27	C	1.545970	-0.277319	-0.112768
C28	C	1.603481	-0.369440	-0.000043
C29	C	1.714715	0.180412	-0.000118
C30	C	1.854160	0.184162	-0.000136
C31	C	1.478122	0.420826	-0.000111
C32	C	1.481880	0.562454	-0.000118
N33	N	1.485187	0.187700	0.356017
N34	N	1.485186	0.187677	-0.356220
C35	C	1.569807	0.101766	0.427942
C36	C	1.569803	0.101751	0.571825
C37	C	1.400557	0.273615	0.571846
C38	C	1.400555	0.273623	0.427966
C39	C	1.654439	0.015843	0.355993
C40	C	1.739066	-0.070097	0.427918
C41	C	1.739063	-0.070113	0.571801
C42	C	1.654432	0.015812	0.643759
H43	H	0.719617	0.413446	-0.000154
H44	H	1.129299	-0.019696	-0.000057
H45	H	1.703518	-0.418912	0.000014
N46	N	1.654415	0.015863	0.209023
N47	N	1.578848	0.092593	0.144818
H48	H	1.578829	0.092611	0.041019
N49	N	1.222188	0.426957	-0.000092
N50	N	1.286905	0.376694	-0.096425
H51	H	1.381429	0.379220	-0.096416
N52	N	1.610436	-0.238417	-0.232316
N53	N	1.569016	-0.260462	-0.349252
H54	H	1.614536	-0.232985	-0.433695
N55	N	1.610397	-0.238709	0.232374
N56	N	1.569449	-0.261801	0.349250
H57	H	1.614954	-0.234508	0.433776
H58	H	1.372927	-0.378217	-0.208049
N59	N	1.825488	-0.157867	0.354401
N60	N	1.825479	-0.157847	0.225937
H61	H	1.886514	-0.219838	0.174015
N62	N	1.314126	0.361423	0.354506
N63	N	1.316906	0.479345	0.370578
H64	H	1.255861	0.541355	0.318698
N65	N	1.241539	-0.192812	0.000054
N66	N	1.168172	-0.211459	0.096681
H67	H	1.079621	-0.167434	0.096795
N68	N	1.359810	-0.386160	0.232127
N69	N	1.247309	-0.344989	0.252215
H70	H	1.201722	-0.372433	0.336627
H71	H	0.813223	0.627237	-0.000166
N72	N	1.825497	-0.157915	0.645251
N73	N	1.901044	-0.234625	0.580989
H74	H	1.962095	-0.296637	0.632859
N75	N	1.314104	0.361367	0.645347
N76	N	1.235790	0.320146	0.725636
H77	H	1.174731	0.382123	0.777547
H78	H	1.654428	0.015784	0.760919
H79	H	1.050930	0.633633	-0.000126
N80	N	0.880888	-0.050508	-0.000100
N81	N	0.763905	-0.053644	-0.000129
H82	H	0.726674	-0.138647	-0.000127
