data_functionalizedCrystal
_audit_creation_method	'MofGen! by Chris Wilmer'
_symmetry_space_group_name_H-M	'P1'
_symmetry_Int_Tables_number	1
_symmetry_cell_setting	triclinic
loop_
_symmetry_equiv_pos_as_xyz
  x,y,z
_cell_length_a	19.121275
_cell_length_b	21.295418
_cell_length_c	19.121307
_cell_angle_alpha	87.572479
_cell_angle_beta	89.898049
_cell_angle_gamma	87.589984
loop_
_atom_site_label
_atom_site_type_symbol
_atom_site_fract_x
_atom_site_fract_y
_atom_site_fract_z
Zn1	Zn	1.088514	-0.305701	0.350644
Zn2	Zn	1.083455	-0.406271	0.233412
Zn3	Zn	0.966316	-0.296736	0.238427
Zn4	Zn	0.971239	-0.406645	0.355612
O5	O	1.027381	-0.353838	0.294524
O6	O	1.185946	-0.322638	0.330916
O7	O	1.063739	-0.387833	0.135973
O8	O	0.982583	-0.209838	0.253332
O9	O	1.182229	-0.396526	0.244786
O10	O	1.072361	-0.216425	0.335778
O11	O	0.977677	-0.307357	0.139657
O12	O	0.868866	-0.307720	0.258149
O13	O	0.990973	-0.397163	0.453057
O14	O	0.872482	-0.388470	0.344245
O15	O	1.077135	-0.323000	0.449408
O16	O	1.068512	-0.494407	0.249603
O17	O	0.986067	-0.494682	0.339382
C18	C	0.845237	-0.347163	0.302280
C19	C	0.767316	-0.344323	0.305615
C20	C	1.027295	-0.517386	0.294502
C21	C	1.027323	-0.587355	0.294513
C22	C	0.728767	-0.381390	0.262272
C23	C	0.655552	-0.378723	0.265415
C24	C	0.620887	-0.338984	0.311898
C25	C	0.659441	-0.301915	0.355246
C26	C	0.732655	-0.304586	0.352106
C27	C	0.399926	-0.328999	0.323628
C28	C	0.326707	-0.326329	0.326763
C29	C	0.322823	-0.403138	0.236932
C30	C	0.396038	-0.405803	0.233794
C31	C	0.434586	-0.368737	0.277144
C32	C	0.546049	-0.336254	0.315110
C33	C	0.509422	-0.371470	0.273935
C34	C	1.074220	-1.090199	0.337540
C35	C	1.074199	-1.024456	0.337529
C36	C	1.027478	-0.988203	0.294564
C37	C	0.980788	-1.017698	0.251591
C38	C	0.980815	-1.083441	0.251598
N39	N	0.965843	-0.882569	0.291738
N40	N	0.965819	-0.820116	0.291736
C41	C	1.027395	-0.790124	0.294541
N42	N	1.088997	-0.824944	0.297361
N43	N	1.089019	-0.887402	0.297367
C44	C	1.027444	-0.916915	0.294552
C45	C	1.074063	-0.689349	0.337496
C46	C	1.074043	-0.623604	0.337480
C47	C	0.980626	-0.616848	0.251546
C48	C	0.980652	-0.682592	0.251558
C49	C	1.027370	-0.718838	0.294536
C50	C	1.210236	-0.360540	0.286738
C51	C	1.288158	-0.363396	0.283419
C52	C	1.035168	-0.361123	0.477381
C53	C	1.038486	-0.364228	0.555304
C54	C	1.027487	-0.189653	0.294561
C55	C	1.027533	-0.119688	0.294576
C56	C	1.059539	-0.383921	0.995923
C57	C	1.056411	-0.381000	0.922706
C58	C	1.010044	-0.337637	0.888024
C59	C	0.966796	-0.297198	0.926562
C60	C	0.969921	-0.300123	0.999777
C61	C	0.998363	-0.326713	0.667057
C62	C	0.995243	-0.323790	0.593837
C63	C	1.084857	-0.407593	0.589987
C64	C	1.087981	-0.410512	0.663203
C65	C	1.044732	-0.370075	0.701735
C66	C	1.006847	-0.334649	0.813185
C67	C	1.047925	-0.373066	0.776573
C68	C	1.019618	-0.346593	1.112378
C69	C	1.016297	-0.343483	1.034455
H70	H	0.756986	-0.413748	0.224418
H71	H	0.942748	-0.988178	0.216607
O72	O	0.930231	-0.577757	0.205203
H73	H	0.938052	-0.527087	0.212418
O74	O	0.613971	-0.418694	0.218658
H75	H	0.650376	-0.446767	0.185799
H76	H	1.125738	-0.445823	0.691437
O77	O	0.289310	-0.283468	0.376899
H78	H	0.305703	-0.297051	0.431299
H79	H	0.424258	-0.438162	0.195942
O80	O	0.951716	-0.283094	0.708603
H81	H	0.917443	-0.311290	0.743464
H82	H	1.120068	-0.440516	0.558606
H83	H	0.929040	-0.261894	0.898318
O84	O	0.441498	-0.289010	0.370369
H85	H	0.405091	-0.260921	0.403208
H86	H	0.934709	-0.267193	1.031149
H87	H	0.957486	-0.288475	0.565601
H88	H	1.097300	-0.419229	1.024156
H89	H	1.112266	-1.119707	0.372530
H90	H	1.085676	-0.408373	0.804814
O91	O	0.774232	-0.264603	0.398855
H92	H	0.830966	-0.273141	0.388868
H93	H	1.112219	-1.000442	0.372517
O94	O	1.124404	-0.591791	0.383817
H95	H	1.158754	-0.561886	0.350939
O96	O	0.281243	-0.443115	0.190181
H97	H	0.317649	-0.471192	0.157328
H98	H	0.942631	-0.706601	0.216575
O99	O	0.956845	-0.287876	0.775770
H100	H	0.902413	-0.297211	0.792158
O101	O	0.622057	-0.259047	0.405377
H102	H	0.564670	-0.263409	0.400273
H103	H	1.091615	-0.413936	0.891336
H104	H	0.942795	-1.107450	0.216611
H105	H	0.537650	-0.403828	0.236093
H106	H	0.517817	-0.303898	0.352955
O107	O	1.124456	-0.728451	0.383839
H108	H	1.156927	-0.696898	0.413704
