data_functionalizedCrystal
_audit_creation_method	'MofGen! by Chris Wilmer'
_symmetry_space_group_name_H-M	'P1'
_symmetry_Int_Tables_number	1
_symmetry_cell_setting	triclinic
loop_
_symmetry_equiv_pos_as_xyz
  x,y,z
_cell_length_a	6.817900
_cell_length_b	17.982865
_cell_length_c	27.923559
_cell_angle_alpha	96.858716
_cell_angle_beta	98.965071
_cell_angle_gamma	102.450232
loop_
_atom_site_label
_atom_site_type_symbol
_atom_site_fract_x
_atom_site_fract_y
_atom_site_fract_z
V1	V	-3.971536	-0.106499	-0.151479
O2	O	-3.965421	0.004003	-0.148381
O3	O	-3.918313	-0.210097	-0.150649
O4	O	-3.901384	-0.105350	-0.217450
O5	O	-3.982468	-0.101469	-0.081117
V6	V	-4.458607	-0.093224	-0.143038
O7	O	-4.225011	-0.135619	-0.169994
O8	O	-4.655330	-0.064104	-0.124522
O9	O	-4.288623	0.010374	-0.143868
O10	O	-4.582119	-0.203725	-0.146136
O11	O	-4.565072	-0.098253	-0.213399
O12	O	-4.305552	-0.094373	-0.077067
C13	C	-3.762845	-0.235337	-0.148312
C14	C	-3.800471	-0.320033	-0.148073
C15	C	-4.006365	-0.828701	-0.102109
C16	C	-3.971010	-0.749122	-0.102340
C17	C	-3.978350	-0.720538	-0.146907
C18	C	-4.021029	-0.771538	-0.191247
C19	C	-4.056369	-0.851116	-0.191015
C20	C	-3.878504	-0.450612	-0.192182
C21	C	-3.843166	-0.371028	-0.192410
C22	C	-3.793146	-0.348618	-0.103506
C23	C	-3.828486	-0.428195	-0.103274
C24	C	-3.871150	-0.479188	-0.147614
C25	C	-3.909482	-0.565477	-0.147363
C26	C	-3.940033	-0.634252	-0.147159
C27	C	-3.741249	-0.101721	-0.233523
C28	C	-3.765144	-0.101467	-0.287456
C29	C	-3.948045	-0.169807	-0.628976
C30	C	-4.037958	-0.168898	-0.831683
O31	O	-4.078999	-0.228163	-0.863906
N32	N	-4.014706	-0.098960	-0.849961
C33	C	-3.968985	-0.029245	-0.817559
O34	O	-3.951292	0.030261	-0.837758
C35	C	-3.879088	-0.030155	-0.614854
C36	C	-3.902323	-0.100097	-0.596578
C37	C	-3.971280	-0.239743	-0.610701
C38	C	-3.948792	-0.239969	-0.560027
C39	C	-3.903069	-0.170259	-0.527629
C40	C	-3.879835	-0.100323	-0.545904
C41	C	-3.833382	0.039559	-0.582453
C42	C	-3.810914	0.039325	-0.531774
C43	C	-3.834149	-0.030617	-0.513499
C44	C	-3.811624	-0.030839	-0.462833
N45	N	-3.834876	-0.100777	-0.444554
C46	C	-3.880599	-0.170487	-0.476952
C47	C	-4.016181	-0.028773	-0.923983
C48	C	-4.038652	-0.028545	-0.974659
C49	C	-4.107627	-0.168198	-0.988780
C50	C	-4.085141	-0.168425	-0.938103
C51	C	-4.039433	-0.098710	-0.905705
C52	C	-3.833368	-0.170957	-0.370533
C53	C	-3.810866	-0.171177	-0.319854
C54	C	-3.741904	-0.031524	-0.305738
C55	C	-3.764393	-0.031304	-0.356413
C56	C	-3.810134	-0.101026	-0.388810
O57	O	-3.770608	0.028393	-0.430582
O58	O	-3.898328	-0.229986	-0.456745
C59	C	-3.970533	-0.169581	-0.679650
C60	C	-3.947299	-0.099644	-0.697926
C61	C	-3.901576	-0.029935	-0.665528
C62	C	-3.969770	-0.099417	-0.748602
C63	C	-4.015492	-0.169127	-0.781000
C64	C	-4.038744	-0.239064	-0.762722
C65	C	-4.016256	-0.239290	-0.712048
C66	C	-3.878324	0.040003	-0.683806
C67	C	-3.900813	0.040224	-0.734481
C68	C	-3.946536	-0.029486	-0.766879
C69	C	-4.107434	0.035610	-0.146203
C70	C	-4.049045	0.120305	-0.146445
C71	C	-4.129030	-0.098005	-0.060991
C72	C	-4.084374	-0.098255	-0.007057
H73	H	-3.758393	-0.307089	-0.067403
H74	H	-4.104063	-0.225377	-0.923227
H75	H	-4.144853	-0.224958	-1.015167
Cl76	Cl	-4.009395	0.059387	-0.997627
Cl77	Cl	-3.852392	-0.335097	-0.248443
H78	H	-3.814442	0.096513	-0.597323
Cl79	Cl	-3.890863	-0.258609	-0.411253
H80	H	-3.822515	-0.451463	-0.066983
H81	H	-3.978961	0.028001	-0.897609
Cl82	Cl	-3.684419	0.056106	-0.265000
Cl83	Cl	-3.753483	0.126971	-0.491049
Cl84	Cl	-4.110049	-0.915224	-0.246755
H85	H	-3.841098	0.096770	-0.657432
H86	H	-3.745483	0.025648	-0.371293
Cl87	Cl	-4.096231	-0.326698	-0.803461
H88	H	-3.936265	-0.707605	-0.066237
Cl89	Cl	-3.840080	-0.259110	-0.296883
H90	H	-4.035180	-0.296244	-0.697174
Cl91	Cl	-3.931961	-0.514703	-0.247921
Cl92	Cl	-3.871581	0.128160	-0.757448
H93	H	-3.967726	-0.296923	-0.545152
Cl94	Cl	-3.997144	-0.864626	-0.046077
H95	H	-4.026990	-0.748259	-0.227535
Cl96	Cl	-4.028761	-0.327390	-0.651422
