data_functionalizedCrystal
_audit_creation_method	'MofGen! by Chris Wilmer'
_symmetry_space_group_name_H-M	'P1'
_symmetry_Int_Tables_number	1
_symmetry_cell_setting	triclinic
loop_
_symmetry_equiv_pos_as_xyz
  x,y,z
_cell_length_a	10.967874
_cell_length_b	10.065918
_cell_length_c	10.723024
_cell_angle_alpha	99.739244
_cell_angle_beta	84.591254
_cell_angle_gamma	111.757653
loop_
_atom_site_label
_atom_site_type_symbol
_atom_site_fract_x
_atom_site_fract_y
_atom_site_fract_z
O1	O	1.733036	0.521075	0.250440
O2	O	1.357010	0.432642	0.254394
O3	O	1.553696	0.478893	0.071135
O4	O	1.536350	0.474824	0.433699
O5	O	1.519478	0.243857	0.037116
O6	O	1.322792	0.197605	0.220375
O7	O	1.698818	0.286039	0.216420
Zn8	Zn	1.505372	0.204505	0.212997
Zn9	Zn	1.550456	0.514176	0.257818
O10	O	1.502132	0.239788	0.399679
C11	C	1.291753	0.303800	0.234527
C12	C	1.148287	0.270060	0.225996
C13	C	1.102052	0.376774	0.239815
C14	C	0.953773	0.341904	0.230999
N15	N	1.474613	-0.006835	0.182407
C16	C	1.539745	-0.059295	0.247175
C17	C	1.516083	-0.222027	0.223621
C18	C	1.764075	0.414884	0.236288
C19	C	1.907542	0.448633	0.244821
C20	C	1.535325	0.361080	0.007583
C21	C	1.531548	0.360197	-0.131099
N22	N	1.581224	0.725518	0.288399
C23	C	1.641604	0.386081	-0.202335
C24	C	1.637704	0.385169	-0.345671
C25	C	1.520504	0.357604	0.463232
C26	C	1.524281	0.358497	0.601915
H27	H	1.172242	0.493950	0.258181
C28	C	0.858943	0.183594	0.206377
H29	H	0.771714	0.180923	0.203752
H30	H	0.864178	0.134080	0.272470
H31	H	0.882416	0.138118	0.127753
H32	H	0.977727	0.565818	0.263189
H33	H	1.434439	0.337367	-0.176225
C34	C	1.053454	0.111758	0.201375
H35	H	0.966225	0.109087	0.198750
H36	H	1.058689	0.062244	0.267468
H37	H	1.076927	0.066282	0.122751
C38	C	1.417081	-0.324089	0.125151
H39	H	1.414158	-0.420076	0.122244
H40	H	1.443586	-0.294504	0.044201
H41	H	1.332409	-0.320670	0.148279
H42	H	1.613029	0.016269	0.320058
H43	H	1.654511	-0.198925	0.361289
C44	C	1.764991	0.415105	-0.428366
H45	H	1.836654	0.431947	-0.376889
H46	H	1.780361	0.497875	-0.467747
H47	H	1.756491	0.333939	-0.491474
C48	C	1.375616	-0.108901	0.083941
H49	H	1.372693	-0.204888	0.081035
H50	H	1.402121	-0.079316	0.002992
H51	H	1.290944	-0.105482	0.107069
C52	C	1.772796	0.416930	-0.141385
H53	H	1.758205	0.413486	-0.053045
H54	H	1.832494	0.510123	-0.154884
H55	H	1.808618	0.346186	-0.178618
C56	C	1.396989	0.328557	-0.315397
H57	H	1.325322	0.311696	-0.366877
H58	H	1.405483	0.409706	-0.252283
H59	H	1.381618	0.245772	-0.276027
