data_functionalizedCrystal
_audit_creation_method	'MofGen! by Chris Wilmer'
_symmetry_space_group_name_H-M	'P1'
_symmetry_Int_Tables_number	1
_symmetry_cell_setting	triclinic
loop_
_symmetry_equiv_pos_as_xyz
  x,y,z
_cell_length_a	11.026607
_cell_length_b	14.971486
_cell_length_c	13.448316
_cell_angle_alpha	90.001801
_cell_angle_beta	90.003896
_cell_angle_gamma	96.100073
loop_
_atom_site_label
_atom_site_type_symbol
_atom_site_fract_x
_atom_site_fract_y
_atom_site_fract_z
O1	O	0.158181	1.212292	0.082572
O2	O	0.177123	0.954927	0.082599
O3	O	-0.009032	1.062279	0.082584
O4	O	0.344336	1.104940	0.082587
O5	O	-0.009044	1.062260	-0.082800
O6	O	0.177112	0.954908	-0.082785
O7	O	0.158169	1.212273	-0.082812
Cu8	Cu	0.167639	1.083589	-0.097899
Cu9	Cu	0.167653	1.083611	0.097686
O10	O	0.344324	1.104921	-0.082797
C11	C	0.176270	0.921457	-0.000090
C12	C	0.173732	0.821753	-0.000079
C13	C	0.283093	0.782051	-0.000080
C14	C	0.280700	0.688368	-0.000095
C15	C	0.168945	0.634389	-0.000102
C16	C	0.059576	0.674098	-0.000105
C17	C	0.061969	0.767779	-0.000097
C18	C	0.054594	0.478837	-0.000118
C19	C	0.052200	0.385150	-0.000124
C20	C	0.273325	0.399426	-0.000116
C21	C	0.275718	0.493107	-0.000109
C22	C	0.166348	0.532809	-0.000109
C23	C	-0.054260	1.054400	-0.000106
C24	C	-0.189008	1.030939	-0.000100
C25	C	-0.262720	1.095719	-0.000105
C26	C	-0.401989	1.071472	-0.000099
C27	C	0.389552	1.112800	-0.000105
C28	C	0.524300	1.136261	-0.000104
C29	C	0.159022	1.245743	-0.000121
C30	C	0.161561	1.345447	-0.000125
N31	N	0.167629	1.083579	-0.235463
C32	C	0.085233	1.131139	-0.287510
C33	C	0.085232	1.131145	-0.391614
C34	C	0.167634	1.083595	-0.443668
C35	C	0.250033	1.036029	-0.391614
C36	C	0.250028	1.036019	-0.287513
C37	C	0.250042	1.036055	-0.608594
C38	C	0.250049	1.036066	-0.712703
C39	C	0.085246	1.131181	-0.712695
C40	C	0.085241	1.131171	-0.608594
C41	C	0.167642	1.083606	-0.556547
N42	N	0.167654	1.083626	0.235251
H43	H	0.362378	0.367096	-0.000120
H44	H	-0.027084	0.800103	-0.000096
H45	H	0.317121	0.997290	-0.245137
O46	O	-0.241977	0.933695	-0.000099
H47	H	-0.298990	0.919923	0.067307
H48	H	-0.441982	0.998057	-0.000085
H49	H	-0.435709	1.209677	-0.000037
O50	O	-0.003648	1.182421	-0.231367
H51	H	-0.060951	1.215485	-0.285052
O52	O	0.403631	0.840268	-0.000070
H53	H	0.409998	0.883297	-0.067470
H54	H	0.369753	0.656047	-0.000094
H55	H	0.018139	1.169871	-0.433990
H56	H	0.018149	1.169895	-0.566211
O57	O	-0.003642	1.182478	-0.768822
H58	H	0.010190	1.174488	-0.849955
O59	O	0.338897	0.984760	-0.768854
H60	H	0.396176	0.951666	-0.715175
O61	O	0.338921	0.984760	-0.552451
H62	H	0.396232	0.951706	-0.606135
O63	O	0.396256	0.551325	-0.000113
H64	H	0.448829	0.536763	0.067286
O65	O	-0.068332	0.326924	-0.000145
H66	H	-0.143982	0.370268	-0.000161
O67	O	-0.063366	0.521665	-0.000114
H68	H	-0.141480	0.468393	-0.000108
H69	H	-0.031417	0.630141	-0.000125
H70	H	0.317122	0.997308	-0.434003
H71	H	-0.222722	1.169129	-0.000119
