data_functionalizedCrystal
_audit_creation_method	'MofGen! by Chris Wilmer'
_symmetry_space_group_name_H-M	'P1'
_symmetry_Int_Tables_number	1
_symmetry_cell_setting	triclinic
loop_
_symmetry_equiv_pos_as_xyz
  x,y,z
_cell_length_a	16.109301
_cell_length_b	15.944551
_cell_length_c	15.186229
_cell_angle_alpha	89.995303
_cell_angle_beta	89.999362
_cell_angle_gamma	83.480109
loop_
_atom_site_label
_atom_site_type_symbol
_atom_site_fract_x
_atom_site_fract_y
_atom_site_fract_z
O1	O	1.103166	0.107966	-0.073175
O2	O	1.603166	0.607966	0.426825
O3	O	0.861108	0.121402	-0.073189
O4	O	1.361108	0.621402	0.426811
O5	O	0.988747	-0.007593	-0.073174
O6	O	1.488747	0.492407	0.426826
O7	O	0.975527	0.236961	-0.073190
O8	O	1.475527	0.736961	0.426810
O9	O	0.988738	-0.007594	0.073284
O10	O	1.488738	0.492406	0.573284
O11	O	0.861099	0.121401	0.073268
O12	O	1.361099	0.621401	0.573268
O13	O	1.103157	0.107964	0.073282
O14	O	1.603157	0.607964	0.573282
Zn15	Zn	0.982127	0.114682	0.096529
Zn16	Zn	1.482127	0.614682	0.596529
Zn17	Zn	0.982138	0.114685	-0.096435
Zn18	Zn	1.482138	0.614685	0.403565
O19	O	0.975518	0.236960	0.073267
O20	O	1.475518	0.736960	0.573267
C21	C	0.830129	0.120857	0.000038
C22	C	1.330129	0.620857	0.500038
C23	C	0.737833	0.119226	0.000033
C24	C	1.237833	0.619226	0.500033
C25	C	0.515584	0.191975	0.000038
C26	C	1.015584	0.691975	0.500038
C27	C	0.428863	0.190435	0.000044
C28	C	0.928863	0.690435	0.500044
C29	C	0.448688	0.037387	0.000050
C30	C	0.948688	0.537387	0.500050
C31	C	0.535407	0.038927	0.000051
C32	C	1.035407	0.538927	0.500051
C33	C	0.568853	0.116224	0.000040
C34	C	1.068853	0.616224	0.500040
C35	C	0.395412	0.113143	0.000045
C36	C	0.895412	0.613143	0.500045
C37	C	0.301386	0.111473	0.000052
C38	C	0.801386	0.611473	0.500052
C39	C	0.662885	0.117894	0.000036
C40	C	1.162885	0.617894	0.500036
C41	C	0.988194	-0.038887	0.000055
C42	C	1.488194	0.461113	0.500055
C43	C	0.986548	-0.132133	0.000056
C44	C	1.486548	0.367867	0.500056
C45	C	0.903499	-0.346962	0.000039
C46	C	1.403499	0.153038	0.500039
C47	C	0.942060	-0.407993	0.072253
C48	C	1.442060	0.092007	0.572253
C49	C	0.983572	-0.302858	0.000049
C50	C	1.483572	0.197142	0.500049
C51	C	0.942087	-0.407975	-0.072142
C52	C	1.442087	0.092025	0.427858
C53	C	0.980691	-0.467769	0.000038
C54	C	1.480691	0.032231	0.500038
C55	C	1.022155	-0.362660	0.072323
C56	C	1.522155	0.137340	0.572323
C57	C	1.022171	-0.362636	-0.072137
C58	C	1.522171	0.137364	0.427863
C59	C	1.060790	-0.423649	0.000095
C60	C	1.560790	0.076351	0.500095
C61	C	0.985229	-0.207856	0.000055
C62	C	1.485229	0.292144	0.500055
C63	C	0.979039	-0.562770	0.000038
C64	C	1.479039	-0.062770	0.500038
C65	C	1.134136	0.108510	0.000054
C66	C	1.634136	0.608510	0.500054
C67	C	1.226432	0.110141	0.000053
C68	C	1.726432	0.610141	0.500053
C69	C	0.976071	0.268254	0.000036
C70	C	1.476071	0.768254	0.500036
C71	C	0.977717	0.361500	0.000030
C72	C	1.477717	0.861500	0.500030
N73	N	0.982125	0.114680	0.228221
N74	N	1.482125	0.614680	0.728221
N75	N	0.982146	0.114680	-0.228128
N76	N	1.482146	0.614680	0.271872
C77	C	1.038663	0.057580	0.453951
C78	C	1.538663	0.557580	0.953951
C79	C	1.038666	0.057578	0.546141
C80	C	1.538666	0.557578	1.046141
C81	C	0.925603	0.171783	0.546136
C82	C	1.425603	0.671783	1.046136
C83	C	0.925597	0.171780	0.453948
C84	C	1.425597	0.671780	0.953948
C85	C	0.982132	0.114680	0.407858
C86	C	1.482132	0.614680	0.907858
C87	C	0.982140	0.114680	0.592236
C88	C	1.482140	0.614680	1.092236
C89	C	0.982143	0.114679	0.692192
C90	C	1.482143	0.614679	1.192192
C91	C	0.982128	0.114680	0.307895
C92	C	1.482128	0.614680	0.807895
H93	H	0.385495	0.252119	0.000044
H94	H	0.885495	0.752119	0.500044
O95	O	0.416294	-0.037747	-0.000066
O96	O	0.916294	0.462253	0.499934
C97	C	0.443501	-0.083908	-0.075928
C98	C	0.943501	0.416092	0.424072
H99	H	0.503648	-0.061030	-0.101213
H100	H	1.003648	0.438970	0.398787
H101	H	0.455533	-0.153862	-0.058870
H102	H	0.955533	0.346138	0.441130
H103	H	0.393322	-0.074161	-0.129045
H104	H	0.893322	0.425839	0.370955
O105	O	1.093502	0.002145	0.591051
O106	O	1.593502	0.502145	1.091051
C107	C	1.081400	0.014400	0.682303
C108	C	1.581400	0.514400	1.182303
H109	H	1.015305	0.045773	0.694897
H110	H	1.515305	0.545773	1.194897
H111	H	1.090652	-0.049209	0.717343
H112	H	1.590652	0.450791	1.217343
H113	H	1.128458	0.056544	0.708458
H114	H	1.628458	0.556544	1.208458
H115	H	0.578781	-0.022762	0.000055
H116	H	1.078781	0.477238	0.500055
H117	H	0.837035	-0.313632	0.000107
H118	H	1.337035	0.186368	0.500107
H119	H	0.542812	0.254914	0.000036
H120	H	1.042812	0.754914	0.500036
H121	H	0.879558	0.218278	0.416417
H122	H	1.379558	0.718278	0.916417
H123	H	0.908213	-0.428040	-0.133198
H124	H	1.408213	0.071960	0.366802
O125	O	0.901523	-0.431919	0.145017
O126	O	1.401523	0.068081	0.645017
C127	C	0.818633	-0.392471	0.144770
C128	C	1.318633	0.107529	0.644770
H129	H	0.799341	-0.374217	0.074497
H130	H	1.299341	0.125783	0.574497
H131	H	0.775254	-0.437907	0.172045
H132	H	1.275254	0.062093	0.672045
H133	H	0.814274	-0.333394	0.187565
H134	H	1.314274	0.166606	0.687565
H135	H	0.879574	0.218274	0.583672
H136	H	1.379574	0.718274	1.083672
H137	H	1.055990	-0.342682	0.133442
H138	H	1.555990	0.157318	0.633442
H139	H	1.127313	-0.456830	0.000139
H140	H	1.627313	0.043170	0.500139
O141	O	1.062424	-0.338648	-0.145058
O142	O	1.562424	0.161352	0.354942
C143	C	1.020005	-0.361488	-0.221049
C144	C	1.520005	0.138512	0.278951
H145	H	0.952221	-0.368231	-0.203752
H146	H	1.452221	0.131769	0.296248
H147	H	1.022040	-0.310561	-0.273450
H148	H	1.522040	0.189439	0.226550
H149	H	1.051453	-0.424138	-0.247394
H150	H	1.551453	0.075862	0.252606
H151	H	1.084696	0.011085	0.416427
H152	H	1.584696	0.511085	0.916427
