data_functionalizedCrystal
_audit_creation_method	'MofGen! by Chris Wilmer'
_symmetry_space_group_name_H-M	'P1'
_symmetry_Int_Tables_number	1
_symmetry_cell_setting	triclinic
loop_
_symmetry_equiv_pos_as_xyz
  x,y,z
_cell_length_a	12.827892
_cell_length_b	12.827893
_cell_length_c	12.827885
_cell_angle_alpha	90.021379
_cell_angle_beta	89.970214
_cell_angle_gamma	89.986589
loop_
_atom_site_label
_atom_site_type_symbol
_atom_site_fract_x
_atom_site_fract_y
_atom_site_fract_z
Zn1	Zn	-0.416038	-1.597672	-0.590902
Zn2	Zn	0.083962	-1.097672	-0.090902
Zn3	Zn	-0.590815	-1.597565	-0.416162
Zn4	Zn	-0.090815	-1.097565	0.083838
Zn5	Zn	-0.416083	-1.422912	-0.416170
Zn6	Zn	0.083917	-0.922912	0.083830
Zn7	Zn	-0.590731	-1.422898	-0.590857
Zn8	Zn	-0.090731	-0.922898	-0.090857
O9	O	-0.503417	-1.510262	-0.503523
O10	O	-0.003417	-1.010262	-0.003523
O11	O	-0.439238	-1.743893	-0.567738
O12	O	0.060762	-1.243893	-0.067738
O13	O	-0.567690	-1.574358	-0.269927
O14	O	-0.067690	-1.074358	0.230073
O15	O	-0.269841	-1.446145	-0.439371
O16	O	0.230159	-0.946145	0.060629
O17	O	-0.567647	-1.743815	-0.439358
O18	O	-0.067647	-1.243815	0.060642
O19	O	-0.269808	-1.574540	-0.567746
O20	O	0.230192	-1.074540	-0.067746
O21	O	-0.439315	-1.446042	-0.269933
O22	O	0.060685	-0.946042	0.230067
O23	O	-0.439234	-1.276674	-0.439327
O24	O	0.060766	-0.776674	0.060673
O25	O	-0.567504	-1.446121	-0.737099
O26	O	-0.067504	-0.946121	-0.237099
O27	O	-0.567548	-1.276664	-0.567668
O28	O	-0.067548	-0.776664	-0.067668
O29	O	-0.439157	-1.574526	-0.737132
O30	O	0.060843	-1.074526	-0.237132
O31	O	-0.737040	-1.574345	-0.439314
O32	O	-0.237040	-1.074345	0.060686
O33	O	-0.736978	-1.446018	-0.567661
O34	O	-0.236978	-0.946018	-0.067661
C35	C	-0.503387	-1.238752	-0.503494
C36	C	-0.003387	-0.738752	-0.003494
C37	C	-0.503400	-1.122599	-0.503506
C38	C	-0.003400	-0.622599	-0.003506
C39	C	-0.774927	-1.510196	-0.503504
C40	C	-0.274927	-1.010196	-0.003504
C41	C	-0.891080	-1.510264	-0.503531
C42	C	-0.391080	-1.010264	-0.003531
C43	C	-0.566991	-1.070837	-0.566914
C44	C	-0.066991	-0.570837	-0.066914
C45	C	-0.567005	-0.950786	-0.566928
C46	C	-0.067005	-0.450786	-0.066928
C47	C	-0.942860	-1.573840	-0.440092
C48	C	-0.442860	-1.073840	0.059908
C49	C	-1.062910	-1.573911	-0.440118
C50	C	-0.562910	-1.073911	0.059882
C51	C	-0.230846	-1.510356	-0.503564
C52	C	0.269154	-1.010356	-0.003564
C53	C	-0.114693	-1.510396	-0.503582
C54	C	0.385307	-1.010396	-0.003582
C55	C	-0.503316	-1.510334	-0.776093
C56	C	-0.003316	-1.010334	-0.276093
C57	C	-0.503274	-1.510365	-0.892246
C58	C	-0.003274	-1.010365	-0.392246
C59	C	-0.503438	-0.782832	-0.503544
C60	C	-0.003438	-0.282832	-0.003544
C61	C	-0.503426	-0.898985	-0.503532
C62	C	-0.003426	-0.398985	-0.003532
C63	C	-0.439737	-1.446890	-0.944034
C64	C	0.060263	-0.946890	-0.444034
C65	C	-0.439691	-1.446920	-1.064084
C66	C	0.060309	-0.946920	-0.564084
C67	C	-0.503441	-1.510250	-0.232013
C68	C	-0.003441	-1.010250	0.267987
C69	C	-0.503190	-1.510422	-0.115860
C70	C	-0.003190	-1.010422	0.384140
H71	H	-0.621419	-1.115398	-0.621193
H72	H	-0.121419	-0.615398	-0.121193
H73	H	-0.557584	-1.564772	-1.071331
H74	H	-0.057584	-1.064772	-0.571331
H75	H	-1.107441	-1.628338	-0.385802
H76	H	-0.607441	-1.128338	0.114198
H77	H	-0.621451	-0.906272	-0.621211
H78	H	-0.121451	-0.406272	-0.121211
H79	H	-0.448984	-0.943493	-0.449239
H80	H	0.051016	-0.443493	0.050761
H81	H	-0.385379	-1.392520	-0.899494
H82	H	0.114621	-0.892520	-0.399494
H83	H	-0.448964	-1.078038	-0.449235
H84	H	0.051036	-0.578038	0.050765
H85	H	-1.070171	-1.455959	-0.557894
H86	H	-0.570171	-0.955959	-0.057894
H87	H	-0.935625	-1.455892	-0.557868
H88	H	-0.435625	-0.955892	-0.057868
H89	H	-0.898317	-1.628221	-0.385762
H90	H	-0.398317	-1.128221	0.114238
H91	H	-0.385291	-1.392581	-1.108620
H92	H	0.114709	-0.892581	-0.608620
H93	H	-0.557637	-1.564729	-0.936786
H94	H	-0.057637	-1.064729	-0.436786
