data_functionalizedCrystal
_audit_creation_method	'MofGen! by Chris Wilmer'
_symmetry_space_group_name_H-M	'P1'
_symmetry_Int_Tables_number	1
_symmetry_cell_setting	triclinic
loop_
_symmetry_equiv_pos_as_xyz
  x,y,z
_cell_length_a	10.654550
_cell_length_b	17.038272
_cell_length_c	9.730223
_cell_angle_alpha	89.998176
_cell_angle_beta	89.996251
_cell_angle_gamma	87.798229
loop_
_atom_site_label
_atom_site_type_symbol
_atom_site_fract_x
_atom_site_fract_y
_atom_site_fract_z
O1	O	1.678036	0.109875	-0.114405
O2	O	1.313530	0.120343	-0.114384
O3	O	1.493617	0.001281	-0.114383
O4	O	1.497950	0.228936	-0.114406
O5	O	1.493615	0.001284	0.114196
O6	O	1.313528	0.120346	0.114196
O7	O	1.678034	0.109878	0.114175
Zn8	Zn	1.495781	0.115112	0.150477
Zn9	Zn	1.495783	0.115108	-0.150686
O10	O	1.497948	0.228939	0.114174
C11	C	1.266660	0.119576	-0.000091
C12	C	1.127003	0.117276	-0.000082
C13	C	1.489675	-0.027867	-0.000093
C14	C	1.477918	-0.114726	-0.000093
C15	C	1.054026	0.187378	-0.000109
C16	C	0.922804	0.185212	-0.000132
C17	C	0.937548	0.042837	-0.000108
C18	C	1.068767	0.045004	-0.000075
C19	C	1.045513	0.269577	-0.000129
C20	C	0.914292	0.267411	-0.000152
C21	C	1.585862	-0.164237	-0.000098
C22	C	1.574808	-0.245850	-0.000111
C23	C	1.455808	-0.277949	-0.000108
C24	C	1.347856	-0.228431	-0.000107
C25	C	1.358911	-0.146821	-0.000105
C26	C	1.416750	-0.523925	-0.000125
C27	C	1.405702	-0.605542	-0.000123
C28	C	1.632656	-0.622955	-0.000129
C29	C	1.643701	-0.541342	-0.000118
C30	C	1.535749	-0.491831	-0.000124
C31	C	1.444505	-0.361370	-0.000116
C32	C	1.547052	-0.408412	-0.000126
C33	C	1.724905	0.110645	-0.000121
C34	C	1.864562	0.112944	-0.000139
C35	C	1.501889	0.258088	-0.000119
C36	C	1.513646	0.344947	-0.000128
N37	N	1.495788	0.115115	0.356014
N38	N	1.495785	0.115100	-0.356223
C39	C	1.575554	0.062412	0.427940
C40	C	1.575550	0.062402	0.571823
C41	C	1.416010	0.167805	0.571841
C42	C	1.416009	0.167810	0.427961
C43	C	1.667667	0.001561	0.427931
C44	C	1.667663	0.001551	0.571814
H45	H	0.890116	-0.016005	-0.000123
H46	H	1.662708	-0.286159	-0.000112
H47	H	1.351046	0.210718	0.369400
H48	H	1.077829	0.301726	0.095534
C49	C	1.298000	-0.469474	-0.000107
C50	C	1.202855	-0.473515	-0.118784
C51	C	1.084097	-0.419062	-0.118759
C52	C	1.060485	-0.360568	-0.000056
C53	C	1.155633	-0.356525	0.118631
C54	C	1.274391	-0.410978	0.118606
H55	H	1.220332	-0.516818	-0.206664
H56	H	1.013662	-0.422055	-0.206620
H57	H	0.972573	-0.320259	-0.000037
H58	H	1.138156	-0.313222	0.206510
H59	H	1.344825	-0.407985	0.206466
H60	H	1.640641	-0.058569	0.388884
H61	H	1.083600	0.295749	-0.098819
H62	H	0.870926	0.292254	0.098529
C63	C	1.619351	-0.075212	0.632130
C64	C	1.502676	-0.072978	0.725668
C65	C	1.454375	-0.149739	0.785996
C66	C	1.522751	-0.228735	0.752787
C67	C	1.639433	-0.230973	0.659244
C68	C	1.687733	-0.154211	0.598916
H69	H	1.452054	-0.014497	0.750256
H70	H	1.367999	-0.148083	0.855243
H71	H	1.486996	-0.285559	0.797446
H72	H	1.690055	-0.289453	0.634657
H73	H	1.774110	-0.155868	0.529670
H74	H	1.740603	-0.515213	-0.000120
C75	C	1.328262	0.225771	0.650985
C76	C	1.328486	0.225905	0.809247
C77	C	1.240736	0.283874	0.888387
C78	C	1.152763	0.341709	0.809265
C79	C	1.152536	0.341578	0.650994
C80	C	1.240286	0.283609	0.571854
H81	H	1.393612	0.183090	0.867826
H82	H	1.240905	0.283970	1.005550
H83	H	1.087806	0.384621	0.867849
H84	H	1.087410	0.384393	0.592414
H85	H	1.240117	0.283512	0.454690
C86	C	1.793237	0.027301	0.367624
C87	C	1.915756	-0.019778	0.400819
C88	C	2.041324	0.005967	0.340513
C89	C	2.044372	0.078792	0.247013
C90	C	1.921849	0.125876	0.213813
C91	C	1.796281	0.100131	0.274118
H92	H	1.913503	-0.073692	0.470038
H93	H	2.132024	-0.028888	0.365091
H94	H	2.137325	0.097850	0.202371
H95	H	1.924102	0.179789	0.144594
H96	H	1.705581	0.134986	0.249541
H97	H	1.250963	-0.254573	-0.000114
H98	H	1.128180	-0.012080	-0.000033
C99	C	0.861787	0.309236	-0.129402
C100	C	0.952040	0.345137	-0.233579
C101	C	0.899536	0.386957	-0.362826
C102	C	0.756780	0.392875	-0.387896
C103	C	0.666519	0.356972	-0.283717
C104	C	0.719022	0.315153	-0.154469
H105	H	1.057724	0.340757	-0.215023
H106	H	0.966354	0.413534	-0.439946
H107	H	0.717914	0.423832	-0.483573
H108	H	0.560834	0.361352	-0.302272
H109	H	0.652204	0.288576	-0.077349
C110	C	1.799709	0.019672	0.624586
C111	C	1.872619	-0.040328	0.715574
C112	C	2.004653	-0.022201	0.768353
C113	C	2.063777	0.055926	0.730144
C114	C	1.990865	0.115932	0.639152
C115	C	1.858831	0.097805	0.586373
H116	H	1.828853	-0.098168	0.743862
H117	H	2.058627	-0.066622	0.835711
H118	H	2.161516	0.069345	0.769214
H119	H	2.034632	0.173772	0.610863
H120	H	1.804858	0.142226	0.519014
H121	H	1.682764	-0.138109	-0.000092
H122	H	1.720544	-0.663275	-0.000126
H123	H	1.308794	-0.631674	-0.000099
H124	H	1.271011	-0.106509	-0.000101
H125	H	1.643941	-0.382273	-0.000158
H126	H	1.347615	-0.387514	-0.000111
