data_functionalizedCrystal
_audit_creation_method	'MofGen! by Chris Wilmer'
_symmetry_space_group_name_H-M	'P1'
_symmetry_Int_Tables_number	1
_symmetry_cell_setting	triclinic
loop_
_symmetry_equiv_pos_as_xyz
  x,y,z
_cell_length_a	13.339071
_cell_length_b	13.262508
_cell_length_c	9.130313
_cell_angle_alpha	105.917062
_cell_angle_beta	89.999265
_cell_angle_gamma	99.430290
loop_
_atom_site_label
_atom_site_type_symbol
_atom_site_fract_x
_atom_site_fract_y
_atom_site_fract_z
O1	O	1.344496	0.526826	0.088056
O2	O	1.049677	0.457676	0.060511
O3	O	1.204503	0.341621	0.014283
O4	O	1.189670	0.642882	0.134284
O5	O	1.204501	0.341625	0.257883
O6	O	1.049676	0.457680	0.304111
O7	O	1.344494	0.526830	0.331657
Cu8	Cu	1.197084	0.492255	0.340126
Cu9	Cu	1.197087	0.492251	0.052041
O10	O	1.189668	0.642885	0.377884
C11	C	1.011938	0.445997	0.177658
C12	C	0.899490	0.411180	0.163788
C13	C	0.858334	0.302603	0.120544
C14	C	0.752684	0.269887	0.107505
C15	C	0.688178	0.345744	0.137719
C16	C	0.729333	0.454323	0.180975
C17	C	0.834994	0.487042	0.194004
C18	C	0.664838	0.530183	0.211179
C19	C	0.705993	0.638762	0.254435
C20	C	0.811644	0.671476	0.267463
C21	C	0.876149	0.595619	0.237248
C22	C	0.559177	0.497464	0.198150
C23	C	0.535837	0.681903	0.271610
C24	C	0.641487	0.714619	0.284650
C25	C	1.203671	0.302277	0.120407
C26	C	1.201181	0.185036	0.073697
C27	C	1.194155	-0.145454	0.473191
C28	C	1.196486	-0.035302	0.517079
C29	C	1.197660	0.019788	0.406237
C30	C	1.196503	-0.035286	0.251500
C31	C	1.194163	-0.145451	0.207608
C32	C	1.197669	0.019792	0.140654
C33	C	1.196511	-0.035282	-0.014083
C34	C	1.194173	-0.145436	-0.057967
C35	C	1.192998	-0.200526	0.052874
C36	C	1.200008	0.129957	0.184546
C37	C	1.200017	0.129961	-0.081037
C38	C	1.197686	0.019808	-0.124924
C39	C	1.382233	0.538509	0.214506
C40	C	1.494682	0.573327	0.228366
C41	C	1.190500	0.682229	0.271757
C42	C	1.192990	0.799471	0.318457
N43	N	1.197090	0.492260	0.542751
N44	N	1.197089	0.492240	-0.150586
C45	C	1.265665	0.440900	0.598945
C46	C	1.265662	0.440887	0.752276
C47	C	1.128507	0.543602	0.793210
C48	C	1.128506	0.543608	0.639878
C49	C	1.344853	0.381602	0.575315
C50	C	1.344850	0.381589	0.728646
H51	H	0.602153	0.319100	0.127101
O52	O	1.324661	0.279715	0.484816
C53	C	1.324668	0.279917	0.330474
H54	H	1.371636	0.357326	0.319876
H55	H	1.359160	0.209709	0.260690
H56	H	1.243217	0.272879	0.286048
H57	H	1.072658	0.585418	0.594123
O58	O	1.193178	-0.199039	-0.208217
C59	C	1.279456	-0.249106	-0.236104
H60	H	1.308308	-0.261057	-0.125565
H61	H	1.258112	-0.329639	-0.324377
H62	H	1.341713	-0.197111	-0.280919
H63	H	1.191106	-0.290220	0.017149
O64	O	1.200977	0.183525	-0.188624
C65	C	1.114675	0.233556	-0.176608
H66	H	1.085859	0.245541	-0.056522
H67	H	1.135973	0.314069	-0.200793
H68	H	1.052407	0.181516	-0.262791
H69	H	0.525679	0.409059	0.162931
H70	H	1.072667	0.585407	0.872306
H71	H	1.196742	-0.025049	-0.250913
O72	O	0.712876	0.164380	0.065548
C73	C	0.792462	0.104442	0.041641
H74	H	0.864355	0.154801	0.107815
H75	H	0.770098	0.030497	0.082916
H76	H	0.807287	0.079559	-0.085135
H77	H	1.422612	0.421516	0.786168
O78	O	1.199976	0.126798	0.449129
C79	C	1.200721	0.163591	0.609468
H80	H	1.231393	0.105086	0.661358
H81	H	1.251403	0.244926	0.649947
H82	H	1.119974	0.170514	0.646752
H83	H	0.675011	0.803026	0.319868
O84	O	1.192880	-0.199108	0.580696
C85	C	1.103900	-0.276441	0.557839
H86	H	1.074338	-0.297473	0.434165
H87	H	1.121961	-0.350847	0.584379
H88	H	1.043450	-0.243539	0.636489
O89	O	1.432449	0.436975	0.540820
C90	C	1.444992	0.543523	0.631098
H91	H	1.400059	0.548069	0.738255
H92	H	1.529059	0.574340	0.664676
H93	H	1.416001	0.594318	0.563365
O94	O	1.315856	0.282542	0.746173
C95	C	1.317593	0.288391	0.902712
H96	H	1.310279	0.372371	0.972030
H97	H	1.251465	0.229331	0.925724
H98	H	1.392435	0.268201	0.936963
O99	O	0.978758	0.627583	0.250044
C100	C	1.001255	0.739682	0.294646
H101	H	0.933760	0.773054	0.354053
H102	H	1.071231	0.767176	0.376318
H103	H	1.016967	0.769461	0.189638
O104	O	0.473042	0.755460	0.300972
C105	C	0.370964	0.703300	0.280164
H106	H	0.366568	0.619583	0.292946
H107	H	0.323353	0.749765	0.369388
H108	H	0.340429	0.698376	0.161336
O109	O	1.200994	0.183315	0.334883
C110	C	1.112789	0.142779	0.399488
H111	H	1.081886	0.058254	0.328049
H112	H	1.132404	0.142071	0.520688
H113	H	1.052753	0.195232	0.401969
H114	H	0.910863	0.240852	0.095938
O115	O	0.851495	0.776980	0.309280
C116	C	0.818585	0.825063	0.202248
H117	H	0.745195	0.775074	0.140285
H118	H	0.804282	0.908305	0.263769
H119	H	0.879665	0.830694	0.116143
H120	H	1.197439	0.009533	0.643066
