data_functionalizedCrystal
_audit_creation_method	'MofGen! by Chris Wilmer'
_symmetry_space_group_name_H-M	'P1'
_symmetry_Int_Tables_number	1
_symmetry_cell_setting	triclinic
loop_
_symmetry_equiv_pos_as_xyz
  x,y,z
_cell_length_a	10.654549
_cell_length_b	15.995292
_cell_length_c	9.730217
_cell_angle_alpha	89.999943
_cell_angle_beta	89.997559
_cell_angle_gamma	83.977767
loop_
_atom_site_label
_atom_site_type_symbol
_atom_site_fract_x
_atom_site_fract_y
_atom_site_fract_z
O1	O	1.666260	0.117624	-0.114313
O2	O	1.300632	0.128824	-0.114307
O3	O	1.493479	0.001391	-0.114312
O4	O	1.473413	0.245056	-0.114308
O5	O	1.493473	0.001390	0.114268
O6	O	1.300626	0.128823	0.114273
O7	O	1.666254	0.117622	0.114267
Zn8	Zn	1.483439	0.123222	0.150562
Zn9	Zn	1.483447	0.123224	-0.150602
O10	O	1.473407	0.245055	0.114272
C11	C	1.253842	0.128000	-0.000016
C12	C	1.114432	0.125537	-0.000015
C13	C	0.822471	0.273294	-0.000051
C14	C	0.872974	0.350644	-0.000044
C15	C	1.003961	0.352961	-0.000026
C16	C	1.084450	0.277920	-0.000019
C17	C	1.033947	0.200570	-0.000026
C18	C	0.902956	0.198261	-0.000040
C19	C	1.063930	0.048187	-0.000022
C20	C	0.932943	0.045868	-0.000030
C21	C	1.144419	-0.026854	-0.000015
C22	C	1.093917	-0.104205	-0.000012
C23	C	0.962922	-0.106519	-0.000029
C24	C	0.882441	-0.031482	-0.000037
C25	C	1.492659	-0.029810	-0.000026
C26	C	1.490211	-0.122777	-0.000036
C27	C	1.481210	-0.460568	-0.000023
C28	C	1.620401	-0.436446	0.000485
C29	C	1.623047	-0.339755	-0.000035
C30	C	1.485676	-0.292986	-0.000029
C31	C	1.416090	-0.322491	-0.130554
C32	C	1.414415	-0.419291	-0.130658
C33	C	1.411566	-0.419166	0.129280
C34	C	1.416724	-0.322644	0.131000
C35	C	1.488193	-0.198275	-0.000036
C36	C	1.478689	-0.555278	-0.000025
C37	C	1.713044	0.118446	-0.000026
C38	C	1.852454	0.120909	-0.000037
C39	C	1.474227	0.276256	-0.000017
C40	C	1.476675	0.369223	-0.000016
N41	N	1.483443	0.123221	0.356099
N42	N	1.483453	0.123219	-0.356138
C43	C	1.654278	0.010412	0.356085
C44	C	1.739704	-0.045990	0.428018
C45	C	1.739717	-0.045990	0.571898
C46	C	1.654292	0.010416	0.643848
C47	C	1.568866	0.066818	0.571915
C48	C	1.568865	0.066814	0.428032
C49	C	1.398027	0.179621	0.571929
C50	C	1.398018	0.179627	0.428049
C51	C	1.312602	0.236027	0.643879
C52	C	1.227180	0.292434	0.571946
C53	C	1.227172	0.292433	0.428057
C54	C	1.312592	0.236028	0.356116
H55	H	1.045078	0.415946	-0.000018
Br56	Br	0.763735	0.452480	-0.000070
Br57	Br	1.249600	-0.268668	0.144152
Br58	Br	1.496636	-0.288592	-0.292466
Br59	Br	1.484136	-0.465913	0.294175
H60	H	1.654286	0.010414	0.238930
Br61	Br	1.501163	-0.291204	0.291949
H62	H	1.462612	-0.445827	-0.228232
H63	H	1.677545	-0.320413	0.093528
H64	H	1.157628	0.338352	0.630536
Br65	Br	0.644701	0.270154	-0.000040
Br66	Br	0.704669	-0.034616	-0.000046
H67	H	1.309110	-0.433753	0.130164
H68	H	1.809254	-0.091916	0.369424
Br69	Br	1.111219	0.368976	0.330447
H70	H	1.251075	-0.024962	-0.000007
Br71	Br	1.312606	0.236023	0.839146
H72	H	1.315004	-0.291212	-0.135402
H73	H	1.809273	-0.091920	0.630466
Br74	Br	1.203154	-0.206035	-0.000016
H75	H	1.654297	0.010405	0.761002
Br76	Br	1.312596	0.236027	0.160849
Br77	Br	1.709339	-0.484291	-0.154653
Br78	Br	0.894395	-0.211500	-0.000052
Br79	Br	1.709828	-0.482586	0.156504
Br80	Br	1.714422	-0.308538	-0.156262
Br81	Br	1.244321	-0.444538	-0.140532
Br82	Br	1.262219	0.281066	-0.000028
