data_functionalizedCrystal
_audit_creation_method	'MofGen! by Chris Wilmer'
_symmetry_space_group_name_H-M	'P1'
_symmetry_Int_Tables_number	1
_symmetry_cell_setting	triclinic
loop_
_symmetry_equiv_pos_as_xyz
  x,y,z
_cell_length_a	10.908878
_cell_length_b	15.021413
_cell_length_c	11.026607
_cell_angle_alpha	89.993144
_cell_angle_beta	84.335404
_cell_angle_gamma	90.005349
loop_
_atom_site_label
_atom_site_type_symbol
_atom_site_fract_x
_atom_site_fract_y
_atom_site_fract_z
O1	O	1.662462	0.074017	-0.179092
O2	O	1.995796	0.407351	0.154241
O3	O	2.329129	0.740684	0.487574
O4	O	1.309528	0.074021	-0.088552
O5	O	1.642861	0.407355	0.244781
O6	O	1.976194	0.740688	0.578114
O7	O	1.456744	0.074017	-0.304572
O8	O	1.790077	0.407350	0.028761
O9	O	2.123411	0.740683	0.362094
O10	O	1.515246	0.074022	0.036928
O11	O	1.848579	0.407356	0.370261
O12	O	2.181912	0.740689	0.703594
O13	O	1.456720	-0.074048	-0.304541
O14	O	1.790053	0.259286	0.028792
O15	O	2.123387	0.592619	0.362126
O16	O	1.309503	-0.074043	-0.088521
O17	O	1.642837	0.259291	0.244813
O18	O	1.976170	0.592624	0.578146
O19	O	1.662438	-0.074047	-0.179061
O20	O	1.995771	0.259286	0.154272
O21	O	2.329105	0.592620	0.487606
Zn22	Zn	1.485967	-0.097553	-0.133786
Zn23	Zn	1.819300	0.235780	0.199548
Zn24	Zn	2.152634	0.569113	0.532881
Zn25	Zn	1.485999	0.097528	-0.133827
Zn26	Zn	1.819332	0.430861	0.199506
Zn27	Zn	2.152665	0.764194	0.532839
O28	O	1.515222	-0.074042	0.036959
O29	O	1.848555	0.259291	0.370293
O30	O	2.181888	0.592625	0.703626
C31	C	1.263630	-0.000010	-0.080075
C32	C	1.596963	0.333323	0.253258
C33	C	1.930297	0.666657	0.586592
C34	C	1.126902	-0.000009	-0.054876
C35	C	1.460235	0.333325	0.278457
C36	C	1.793569	0.666658	0.611790
N37	N	1.485954	-0.230691	-0.133760
N38	N	1.819287	0.102643	0.199573
N39	N	2.152621	0.435976	0.532907
C40	C	1.056640	-0.000010	-0.146821
C41	C	1.389973	0.333324	0.186512
C42	C	1.723306	0.666657	0.519846
C43	C	0.915324	-0.000008	-0.120779
C44	C	1.248657	0.333325	0.212554
C45	C	1.581991	0.666659	0.545887
C46	C	1.417859	-0.470372	-0.033908
C47	C	1.751192	-0.137038	0.299425
C48	C	2.084526	0.196295	0.632758
C49	C	1.533923	-0.529707	-0.033778
C50	C	1.867256	-0.196374	0.299556
C51	C	2.200589	0.136960	0.632889
C52	C	1.485979	-0.412298	-0.133795
C53	C	1.819312	-0.078964	0.199538
C54	C	2.152645	0.254369	0.532871
C55	C	1.369951	-0.529704	-0.133906
C56	C	1.703284	-0.196371	0.199427
C57	C	2.036618	0.136963	0.532761
C58	C	1.485993	-0.587722	-0.133825
C59	C	1.819327	-0.254388	0.199509
C60	C	2.152660	0.078945	0.532842
C61	C	1.602111	-0.470327	-0.133624
C62	C	1.935444	-0.136993	0.199709
C63	C	2.268777	0.196340	0.533043
C64	C	1.438055	-0.470318	-0.233783
C65	C	1.771389	-0.136985	0.099550
C66	C	2.104722	0.196348	0.432884
C67	C	1.554189	-0.529627	-0.233713
C68	C	1.887522	-0.196294	0.099620
C69	C	2.220856	0.137040	0.432953
C70	C	1.485969	-0.311240	-0.133775
C71	C	1.819303	0.022093	0.199558
C72	C	2.152636	0.355426	0.532892
C73	C	1.486015	-0.688777	-0.133849
C74	C	1.819349	-0.355444	0.199485
C75	C	2.152682	-0.022110	0.532818
C76	C	1.708336	-0.000013	-0.187538
C77	C	2.041669	0.333320	0.145795
C78	C	2.375002	0.666653	0.479129
C79	C	1.845063	-0.000009	-0.212737
C80	C	2.178397	0.333324	0.120597
C81	C	2.511730	0.666658	0.453930
C82	C	1.445939	-0.000014	-0.347589
C83	C	1.779273	0.333319	-0.014256
C84	C	2.112606	0.666652	0.319077
C85	C	1.413766	-0.000011	-0.475811
C86	C	1.747100	0.333322	-0.142477
C87	C	2.080433	0.666656	0.190856
N88	N	1.486019	0.230665	-0.133864
N89	N	1.819353	0.563999	0.199469
N90	N	2.152686	0.897332	0.532802
C91	C	1.502601	-0.000011	-0.567544
C92	C	1.835935	0.333323	-0.234211
C93	C	2.169268	0.666656	0.099123
C94	C	1.469351	-0.000007	-0.700068
C95	C	1.802685	0.333326	-0.366735
C96	C	2.136018	0.666660	-0.033401
C97	C	1.526026	-0.000009	0.079976
C98	C	1.859360	0.333324	0.413310
C99	C	2.192693	0.666658	0.746643
C100	C	1.558199	-0.000007	0.208198
C101	C	1.891533	0.333327	0.541531
C102	C	2.224866	0.666660	0.874864
H103	H	1.101105	-0.000007	-0.244817
H104	H	1.434438	0.333326	0.088516
H105	H	1.767772	0.666659	0.421850
F106	F	0.857217	0.000001	0.007319
F107	F	1.190550	0.333335	0.340652
F108	F	1.523883	0.666668	0.673986
H109	H	1.603272	-0.000017	-0.547968
H110	H	1.936605	0.333316	-0.214635
H111	H	2.269939	0.666649	0.118698
F112	F	1.282179	-0.000001	-0.501390
F113	F	1.615513	0.333332	-0.168056
F114	F	1.948846	0.666665	0.165277
H115	H	0.889522	-0.000005	-0.310740
H116	H	1.222855	0.333329	0.022593
H117	H	1.556189	0.666662	0.355926
H118	H	1.082437	-0.000003	0.043120
H119	H	1.415770	0.333331	0.376453
H120	H	1.749103	0.666664	0.709786
F121	F	1.342677	-0.436360	0.076552
F122	F	1.676011	-0.103027	0.409885
F123	F	2.009344	0.230306	0.743219
H124	H	1.368674	0.000000	-0.719637
H125	H	1.702007	0.333333	-0.386303
H126	H	2.035341	0.666667	-0.052970
F127	F	1.586922	-0.563804	0.076722
F128	F	1.920255	-0.230471	0.410056
F129	F	2.253589	0.102862	0.743389
F130	F	1.730433	-0.436383	-0.133386
F131	F	2.063766	-0.103049	0.199947
F132	F	2.397100	0.230284	0.533281
H133	H	1.611881	-0.555481	-0.318217
H134	H	1.945215	-0.222148	0.015116
H135	H	2.278548	0.111185	0.348449
H136	H	1.397481	-0.444212	-0.318289
H137	H	1.730814	-0.110878	0.015044
H138	H	2.064147	0.222455	0.348377
F139	F	1.241690	-0.563797	-0.134018
F140	F	1.575023	-0.230464	0.199315
F141	F	1.908357	0.102869	0.532649
F142	F	1.689794	-0.000004	-0.766233
F143	F	2.023127	0.333329	-0.432900
F144	F	2.356460	0.666662	-0.099567
