data_functionalizedCrystal
_audit_creation_method	'MofGen! by Chris Wilmer'
_symmetry_space_group_name_H-M	'P1'
_symmetry_Int_Tables_number	1
_symmetry_cell_setting	triclinic
loop_
_symmetry_equiv_pos_as_xyz
  x,y,z
_cell_length_a	10.654549
_cell_length_b	17.699103
_cell_length_c	16.176319
_cell_angle_alpha	89.988235
_cell_angle_beta	89.991578
_cell_angle_gamma	83.888989
loop_
_atom_site_label
_atom_site_type_symbol
_atom_site_fract_x
_atom_site_fract_y
_atom_site_fract_z
O1	O	1.665995	0.106321	-0.068777
O2	O	1.300341	0.116445	-0.068775
O3	O	1.493486	0.001261	-0.068760
O4	O	1.472850	0.221506	-0.068792
O5	O	1.493459	0.001253	0.068733
O6	O	1.300314	0.116438	0.068718
O7	O	1.665968	0.106314	0.068716
Cu8	Cu	1.483139	0.111375	0.081272
Cu9	Cu	1.483170	0.111384	-0.081330
O10	O	1.472824	0.221498	0.068702
C11	C	1.253543	0.115697	-0.000028
C12	C	1.114138	0.113471	-0.000027
C13	C	1.492729	-0.026945	-0.000011
C14	C	1.490498	-0.110976	-0.000004
C15	C	1.476867	-0.626770	-0.075006
C16	C	1.478961	-0.547814	-0.074999
C17	C	1.479991	-0.508353	-0.000046
C18	C	1.478940	-0.547853	0.074904
C19	C	1.476854	-0.626809	0.074896
C20	C	1.487352	-0.229433	0.074939
C21	C	1.489434	-0.150472	0.074941
C22	C	1.489459	-0.150438	-0.074956
C23	C	1.487373	-0.229394	-0.074964
C24	C	1.486328	-0.268888	-0.000015
C25	C	1.484060	-0.354502	-0.000023
C26	C	1.482251	-0.422739	-0.000036
C27	C	0.821832	0.247026	-0.000069
C28	C	0.872153	0.316941	-0.000076
C29	C	1.003135	0.319035	-0.000065
C30	C	1.083800	0.251207	-0.000050
C31	C	1.033478	0.181292	-0.000044
C32	C	0.902492	0.179205	-0.000052
C33	C	1.063817	0.043556	-0.000020
C34	C	0.932836	0.041460	-0.000025
C35	C	1.144482	-0.024273	-0.000005
C36	C	1.094161	-0.094190	0.000007
C37	C	0.963171	-0.096281	-0.000002
C38	C	0.882514	-0.028456	-0.000018
C39	C	1.712767	0.107062	-0.000032
C40	C	1.852171	0.109288	-0.000039
C41	C	1.473581	0.249703	-0.000049
C42	C	1.475811	0.333735	-0.000061
N43	N	1.483126	0.111368	0.195637
N44	N	1.483193	0.111385	-0.195695
C45	C	1.568676	0.060386	0.238908
C46	C	1.568683	0.060385	0.325455
C47	C	1.483144	0.111371	0.368729
C48	C	1.397585	0.162356	0.325453
C49	C	1.397573	0.162352	0.238907
C50	C	1.397628	0.162370	0.674481
C51	C	1.397648	0.162371	0.761032
C52	C	1.568737	0.060403	0.761028
C53	C	1.568726	0.060399	0.674483
C54	C	1.483163	0.111381	0.631214
C55	C	1.483155	0.111381	0.537369
C56	C	1.483156	0.111376	0.462572
H57	H	1.479823	-0.515660	-0.136026
O58	O	1.052173	0.386903	0.000038
C59	C	1.126976	0.392238	0.071263
H60	H	1.159752	0.332755	0.095017
H61	H	1.212675	0.422851	0.055249
H62	H	1.068993	0.425420	0.121115
O63	O	1.314582	0.211831	0.632328
C64	C	1.332929	0.200916	0.546661
H65	H	1.380023	0.141002	0.534842
H66	H	1.237803	0.208816	0.513782
H67	H	1.395794	0.244101	0.522085
O68	O	1.486540	-0.267821	-0.147720
C69	C	1.594070	-0.321471	-0.152215
H70	H	1.629987	-0.335979	-0.087141
H71	H	1.568162	-0.375188	-0.183940
H72	H	1.671010	-0.296631	-0.189198
O73	O	1.480145	-0.509578	0.147739
C74	C	1.588319	-0.536886	0.193353
H75	H	1.663761	-0.564156	0.149504
H76	H	1.626152	-0.487652	0.227369
H77	H	1.562516	-0.580929	0.240072
O78	O	1.314612	0.211856	0.367615
C79	C	1.332947	0.200917	0.453282
H80	H	1.432870	0.173191	0.465094
H81	H	1.318807	0.258158	0.486158
H82	H	1.261989	0.162559	0.477866
O83	O	1.490303	-0.111981	-0.147716
C84	C	1.382768	-0.058333	-0.152198
H85	H	1.346845	-0.043849	-0.087119
H86	H	1.408673	-0.004604	-0.183929
H87	H	1.305833	-0.083164	-0.189169
H88	H	1.251133	-0.022562	-0.000001
H89	H	1.190450	0.252919	-0.000051
O90	O	1.172464	-0.160090	-0.000128
C91	C	1.149687	-0.202507	-0.071318
H92	H	1.104809	-0.162787	-0.121097
H93	H	1.242717	-0.232366	-0.095215
H94	H	1.083120	-0.246667	-0.055211
H95	H	0.922209	-0.153215	-0.000002
H96	H	1.475994	-0.658965	0.135923
O97	O	0.793617	0.382755	-0.000051
C98	C	0.667217	0.365920	-0.000078
H99	H	0.662354	0.306446	0.025960
H100	H	0.607734	0.409107	0.039831
H101	H	0.629351	0.368595	-0.066043
O102	O	1.314426	0.211952	0.196999
C103	C	1.238908	0.256943	0.253750
H104	H	1.290398	0.258091	0.315434
H105	H	1.219562	0.317277	0.228730
H106	H	1.145701	0.231843	0.262978
H107	H	1.490266	-0.118344	0.135980
H108	H	1.486503	-0.261580	0.135967
H109	H	0.715178	0.245327	-0.000063
H110	H	0.775860	-0.030152	-0.000019
H111	H	1.327987	0.203892	0.796265
O112	O	1.475897	-0.664984	-0.147890
C113	C	1.477233	-0.613187	-0.214035
H114	H	1.518482	-0.559838	-0.192063
H115	H	1.537556	-0.640470	-0.266469
H116	H	1.376745	-0.597367	-0.237062
H117	H	1.638337	0.018870	0.203679
H118	H	1.638343	0.018871	0.360685
H119	H	1.638383	0.018885	0.639251
O120	O	1.651789	0.010766	0.802973
C121	C	1.631579	-0.064271	0.781859
H122	H	1.583170	-0.064448	0.719027
H123	H	1.726080	-0.101015	0.778894
H124	H	1.569146	-0.088027	0.830581
