data_functionalizedCrystal
_audit_creation_method	'MofGen! by Chris Wilmer'
_symmetry_space_group_name_H-M	'P1'
_symmetry_Int_Tables_number	1
_symmetry_cell_setting	triclinic
loop_
_symmetry_equiv_pos_as_xyz
  x,y,z
_cell_length_a	15.944551
_cell_length_b	16.992694
_cell_length_c	16.053802
_cell_angle_alpha	92.750953
_cell_angle_beta	92.564789
_cell_angle_gamma	92.916519
loop_
_atom_site_label
_atom_site_type_symbol
_atom_site_fract_x
_atom_site_fract_y
_atom_site_fract_z
O1	O	0.174798	-1.043704	-0.069327
O2	O	0.674798	-0.543704	0.430673
O3	O	0.172843	-0.815419	-0.069352
O4	O	0.672843	-0.315419	0.430648
O5	O	0.051964	-0.935795	-0.069332
O6	O	0.551964	-0.435795	0.430668
O7	O	0.295677	-0.923328	-0.069348
O8	O	0.795677	-0.423328	0.430652
O9	O	0.058588	-0.929169	0.069526
O10	O	0.558588	-0.429169	0.569526
O11	O	0.179467	-0.808793	0.069506
O12	O	0.679467	-0.308793	0.569506
O13	O	0.181422	-1.037078	0.069530
O14	O	0.681422	-0.537078	0.569530
Zn15	Zn	0.181497	-0.921884	0.091565
Zn16	Zn	0.681497	-0.421884	0.591565
Zn17	Zn	0.172769	-0.930613	-0.091386
Zn18	Zn	0.672769	-0.430613	0.408614
O19	O	0.302301	-0.916702	0.069510
O20	O	0.802301	-0.416702	0.569510
C21	C	0.173641	-0.782894	0.000074
C22	C	0.673641	-0.282894	0.500074
C23	C	0.166141	-0.695850	0.000065
C24	C	0.666141	-0.195850	0.500065
C25	C	0.023948	-0.931964	0.000097
C26	C	0.523948	-0.431964	0.500097
C27	C	-0.069402	-0.930413	0.000098
C28	C	0.430598	-0.430413	0.500098
C29	C	0.180624	-1.069603	0.000103
C30	C	0.680624	-0.569603	0.500103
C31	C	0.188124	-1.156648	0.000106
C32	C	0.688124	-0.656648	0.500106
C33	C	-0.289513	-0.852090	0.000078
C34	C	0.210487	-0.352090	0.500078
C35	C	-0.344825	-0.885194	0.068547
C36	C	0.155175	-0.385194	0.568547
C37	C	-0.240317	-0.927606	0.000091
C38	C	0.259683	-0.427606	0.500091
C39	C	-0.351338	-0.891744	-0.068356
C40	C	0.148662	-0.391744	0.431644
C41	C	-0.405412	-0.924889	0.000081
C42	C	0.094588	-0.424889	0.500081
C43	C	-0.294396	-0.960728	0.068617
C44	C	0.205604	-0.460728	0.568617
C45	C	-0.300907	-0.967271	-0.068348
C46	C	0.199093	-0.467271	0.431652
C47	C	-0.356196	-1.000429	0.000138
C48	C	0.143804	-0.500429	0.500138
C49	C	-0.145209	-0.929169	0.000098
C50	C	0.354791	-0.429169	0.500098
C51	C	-0.500518	-0.923332	0.000080
C52	C	-0.000518	-0.423332	0.500080
C53	C	0.330318	-0.920533	0.000079
C54	C	0.830318	-0.420533	0.500079
C55	C	0.423667	-0.922085	0.000073
C56	C	0.923667	-0.422085	0.500073
N57	N	0.187453	-0.915931	0.216424
N58	N	0.687453	-0.415931	0.716424
C59	C	0.238506	-0.645613	0.000061
C60	C	0.738506	-0.145613	0.500061
C61	C	0.231454	-0.563826	0.000073
C62	C	0.731454	-0.063826	0.500073
C63	C	0.152037	-0.532276	0.000083
C64	C	0.652037	-0.032276	0.500083
C65	C	0.079667	-0.582519	0.000089
C66	C	0.579667	-0.082519	0.500089
C67	C	0.086719	-0.664305	0.000083
C68	C	0.586719	-0.164305	0.500083
C69	C	0.122807	-0.288676	0.000107
C70	C	0.622807	0.211324	0.500107
C71	C	0.115759	-0.206884	0.000111
C72	C	0.615759	0.293116	0.500111
C73	C	0.267548	-0.188196	0.000095
C74	C	0.767548	0.311804	0.500095
C75	C	0.274593	-0.269984	0.000084
C76	C	0.774593	0.230016	0.500084
C77	C	0.202223	-0.320220	0.000095
C78	C	0.702223	0.179780	0.500095
N79	N	0.144827	-0.448677	0.000092
N80	N	0.644827	0.051323	0.500092
N81	N	0.209434	-0.403818	0.000092
N82	N	0.709434	0.096182	0.500092
N83	N	0.166806	-0.936572	-0.216246
N84	N	0.666806	-0.436572	0.283754
C85	C	0.136040	-0.967170	0.260127
C86	C	0.636040	-0.467170	0.760127
C87	C	0.140215	-0.963014	0.347533
C88	C	0.640215	-0.463014	0.847533
C89	C	0.195808	-0.907622	0.391235
C90	C	0.695808	-0.407622	0.891235
C91	C	0.247223	-0.856378	0.347526
C92	C	0.747223	-0.356378	0.847526
C93	C	0.243043	-0.860531	0.260121
C94	C	0.743043	-0.360531	0.760121
C95	C	0.214042	-0.889481	0.652641
C96	C	0.714042	-0.389481	1.152641
C97	C	0.218220	-0.885333	0.740052
C98	C	0.718220	-0.385333	1.240052
C99	C	0.111209	-0.991968	0.740053
C100	C	0.611209	-0.491968	1.240053
C101	C	0.107038	-0.996120	0.652646
C102	C	0.607038	-0.496120	1.152646
C103	C	0.158450	-0.944873	0.608945
C104	C	0.658450	-0.444873	1.108945
N105	N	0.200078	-0.903374	0.480578
N106	N	0.700078	-0.403374	0.980578
N107	N	0.154175	-0.949118	0.519604
N108	N	0.654175	-0.449118	1.019604
H109	H	-0.364314	-0.850491	0.126426
H110	H	0.135686	-0.350491	0.626426
O111	O	-0.254891	-0.777277	0.000036
O112	O	0.245109	-0.277277	0.500036
C113	C	-0.285076	-0.740603	-0.071481
C114	C	0.214924	-0.240603	0.428519
H115	H	-0.347609	-0.770997	-0.095093
H116	H	0.152391	-0.270997	0.404907
H117	H	-0.294438	-0.675751	-0.054915
H118	H	0.205562	-0.175751	0.445085
H119	H	-0.237590	-0.745405	-0.122263
H120	H	0.262410	-0.245405	0.377737
H121	H	0.339262	-0.295666	0.000066
H122	H	0.839262	0.204334	0.500066
H123	H	0.015004	-0.556825	0.000110
H124	H	0.515004	-0.056825	0.500110
O125	O	0.293074	-0.810724	0.217795
O126	O	0.793074	-0.310724	0.717795
C127	C	0.343024	-0.760930	0.275108
C128	C	0.843024	-0.260930	0.775108
H129	H	0.349133	-0.790116	0.337408
H130	H	0.849133	-0.290116	0.837408
H131	H	0.408086	-0.750168	0.249842
H132	H	0.908086	-0.250168	0.749842
H133	H	0.312248	-0.702244	0.284418
H134	H	0.812248	-0.202244	0.784418
O135	O	0.315611	-0.676345	0.000159
O136	O	0.815611	-0.176345	0.500159
C137	C	0.327675	-0.719659	0.072080
C138	C	0.827675	-0.219659	0.572080
H139	H	0.263984	-0.738887	0.096061
H140	H	0.763984	-0.238887	0.596061
H141	H	0.363982	-0.773984	0.055896
H142	H	0.863982	-0.273984	0.555896
H143	H	0.364813	-0.681133	0.122437
H144	H	0.864813	-0.181133	0.622437
O145	O	0.016511	-0.713218	0.000121
O146	O	0.516511	-0.213218	0.500121
C147	C	0.039763	-0.792169	0.000095
C148	C	0.539763	-0.292169	0.500095
H149	H	0.107205	-0.794056	0.026376
H150	H	0.607205	-0.294056	0.526376
H151	H	-0.004100	-0.827303	0.040412
H152	H	0.495900	-0.327303	0.540412
H153	H	0.034987	-0.818991	-0.066524
H154	H	0.534987	-0.318991	0.433476
O155	O	-0.264561	-0.995450	0.137726
O156	O	0.235439	-0.495450	0.637726
C157	C	-0.176236	-0.996479	0.136904
C158	C	0.323764	-0.496479	0.636904
H159	H	-0.151351	-0.948081	0.096323
H160	H	0.348649	-0.448081	0.596323
H161	H	-0.148117	-0.985897	0.203284
H162	H	0.351883	-0.485897	0.703284
H163	H	-0.157818	-1.056288	0.110442
H164	H	0.342182	-0.556288	0.610442
H165	H	-0.376319	-0.862556	-0.126245
H166	H	0.123681	-0.362556	0.373755
H167	H	0.290381	-0.522926	0.000068
H168	H	0.790381	-0.022926	0.500068
H169	H	-0.385145	-1.063164	0.000184
H170	H	0.114855	-0.563164	0.500184
O171	O	0.052475	-0.337440	-0.000036
O172	O	0.552475	0.162560	0.499964
C173	C	0.001143	-0.326543	-0.071937
C174	C	0.501143	0.173457	0.428063
H175	H	0.041215	-0.300990	-0.122205
H176	H	0.541215	0.199010	0.377795
H177	H	-0.029804	-0.385714	-0.096075
H178	H	0.470196	0.114286	0.403925
H179	H	-0.049489	-0.284117	-0.055672
H180	H	0.450511	0.215883	0.444328
H181	H	0.090773	-1.012279	0.224550
H182	H	0.590773	-0.512279	0.724550
O183	O	0.337760	-0.139284	0.000128
O184	O	0.837760	0.360716	0.500128
C185	C	0.314510	-0.060333	0.000115
C186	C	0.814510	0.439667	0.500115
H187	H	0.249577	-0.055942	0.026407
H188	H	0.749577	0.444058	0.526407
H189	H	0.362222	-0.021365	0.040429
H190	H	0.862222	0.478635	0.540429
H191	H	0.312929	-0.039848	-0.066501
H192	H	0.812929	0.460152	0.433499
O193	O	0.264033	-0.839821	0.610110
O194	O	0.764033	-0.339821	1.110110
C195	C	0.316296	-0.884216	0.559556
C196	C	0.816296	-0.384216	1.059556
H197	H	0.286364	-0.946187	0.546449
H198	H	0.786364	-0.446187	1.046449
H199	H	0.324443	-0.854406	0.498100
H200	H	0.824443	-0.354406	0.998100
H201	H	0.380342	-0.887955	0.593238
H202	H	0.880342	-0.387955	1.093238
O203	O	0.052749	-1.049587	0.610069
O204	O	0.552749	-0.549587	1.110069
C205	C	0.059877	-1.042081	0.523553
C206	C	0.559877	-0.542081	1.023553
H207	H	0.124280	-1.013793	0.511485
H208	H	0.624280	-0.513793	1.011485
H209	H	0.052342	-1.102930	0.490141
H210	H	0.552342	-0.602930	0.990141
H211	H	0.008776	-1.003453	0.499073
H212	H	0.508776	-0.503453	0.999073
O213	O	0.090249	-1.012878	0.389856
O214	O	0.590249	-0.512878	0.889856
C215	C	0.040279	-1.062652	0.332541
C216	C	0.540279	-0.562652	0.832541
H217	H	0.071797	-1.066488	0.270228
H218	H	0.571797	-0.566488	0.770228
H219	H	0.032931	-1.124071	0.357785
H220	H	0.532931	-0.624071	0.857785
H221	H	-0.024297	-1.037649	0.323264
H222	H	0.475703	-0.537649	0.823264
O223	O	0.301112	-0.802533	0.390069
O224	O	0.801112	-0.302533	0.890069
C225	C	0.255266	-0.751750	0.440629
C226	C	0.755266	-0.251750	0.940629
H227	H	0.192279	-0.782356	0.453729
H228	H	0.692279	-0.282356	0.953729
H229	H	0.292424	-0.736428	0.502088
H230	H	0.792424	-0.236428	1.002088
H231	H	0.244022	-0.695401	0.406956
H232	H	0.744022	-0.195401	0.906956
O233	O	0.038622	-0.176203	-0.000022
O234	O	0.538622	0.323797	0.499978
C235	C	0.026577	-0.132860	-0.071925
C236	C	0.526577	0.367140	0.428075
H237	H	0.069362	-0.154603	-0.122198
H238	H	0.569362	0.345397	0.377802
H239	H	-0.041780	-0.141339	-0.096052
H240	H	0.458220	0.358661	0.403948
H241	H	0.042409	-0.067593	-0.055667
H242	H	0.542409	0.432407	0.444333
H243	H	0.069351	-1.033690	0.775642
H244	H	0.569351	-0.533690	1.275642
H245	H	-0.281397	-1.001946	-0.126229
H246	H	0.218603	-0.501946	0.373771
O247	O	0.272237	-0.831444	0.782376
O248	O	0.772237	-0.331444	1.282376
C249	C	0.316730	-0.787112	0.725063
C250	C	0.816730	-0.287112	1.225063
H251	H	0.279257	-0.789191	0.662762
H252	H	0.779257	-0.289191	1.162762
H253	H	0.326493	-0.723296	0.750326
H254	H	0.826493	-0.223296	1.250326
H255	H	0.380417	-0.812998	0.715756
H256	H	0.880417	-0.312998	1.215756
