data_functionalizedCrystal
_audit_creation_method	'MofGen! by Chris Wilmer'
_symmetry_space_group_name_H-M	'P1'
_symmetry_Int_Tables_number	1
_symmetry_cell_setting	triclinic
loop_
_symmetry_equiv_pos_as_xyz
  x,y,z
_cell_length_a	27.732048
_cell_length_b	27.732048
_cell_length_c	10.868271
_cell_angle_alpha	89.989927
_cell_angle_beta	90.001179
_cell_angle_gamma	82.642655
loop_
_atom_site_label
_atom_site_type_symbol
_atom_site_fract_x
_atom_site_fract_y
_atom_site_fract_z
O1	O	0.640927	0.057517	-0.102177
O2	O	0.500134	0.066263	-0.102216
O3	O	0.574903	-0.008507	-0.102172
O4	O	0.566157	0.132287	-0.102221
O5	O	0.574897	-0.008510	0.102473
O6	O	0.500127	0.066260	0.102429
O7	O	0.640921	0.057514	0.102468
Zn8	Zn	0.570523	0.061887	0.134940
Zn9	Zn	0.570531	0.061890	-0.134688
O10	O	0.566151	0.132284	0.102424
C11	C	0.482124	0.066078	0.000102
C12	C	0.428469	0.065525	0.000088
C13	C	0.089654	0.106229	0.000127
C14	C	-0.112006	0.104178	0.000139
O15	O	-0.143262	0.141398	0.000179
N16	N	-0.131130	0.059843	0.000152
C17	C	-0.099835	0.016017	0.000170
O18	O	-0.120728	-0.021740	0.000195
C19	C	0.101824	0.018068	0.000168
C20	C	0.120944	0.062407	0.000142
C21	C	0.108775	0.150563	0.000102
C22	C	0.159187	0.151075	0.000093
C23	C	0.190477	0.107253	0.000108
C24	C	0.171356	0.062919	0.000132
C25	C	0.133117	-0.025757	0.000195
C26	C	0.183535	-0.025240	0.000197
C27	C	0.202655	0.019098	0.000171
C28	C	0.253059	0.019609	0.000137
N29	N	0.272183	0.063944	0.000124
C30	C	0.240892	0.107766	0.000109
C31	C	-0.205709	0.014943	0.000170
C32	C	-0.256124	0.014430	0.000168
C33	C	-0.268291	0.102591	0.000139
C34	C	-0.217876	0.103104	0.000131
C35	C	-0.186585	0.059278	0.000156
C36	C	0.346761	0.108839	0.000088
C37	C	0.397178	0.109347	0.000073
C38	C	0.409341	0.021186	0.000109
C39	C	0.358929	0.020678	0.000117
C40	C	0.327639	0.064508	0.000111
O41	O	0.284343	-0.017592	0.000111
O42	O	0.261794	0.145518	0.000112
C43	C	0.039242	0.105716	0.000137
C44	C	0.020120	0.061382	0.000161
C45	C	0.051411	0.017560	0.000176
C46	C	-0.030294	0.060869	0.000160
C47	C	-0.061585	0.104691	0.000145
C48	C	-0.042461	0.149026	0.000131
C49	C	0.007951	0.149539	0.000122
C50	C	0.032287	-0.026775	0.000189
C51	C	-0.018125	-0.027284	0.000197
C52	C	-0.049416	0.016538	0.000183
C53	C	0.574716	-0.026515	0.000154
C54	C	0.574164	-0.080170	0.000164
C55	C	0.614867	-0.418985	0.000112
C56	C	0.612816	-0.620645	0.000094
O57	O	0.650037	-0.651900	0.000051
N58	N	0.568481	-0.639768	0.000083
C59	C	0.524656	-0.608474	0.000068
O60	O	0.486899	-0.629367	0.000046
C61	C	0.526707	-0.406815	0.000077
C62	C	0.571045	-0.387694	0.000101
C63	C	0.659202	-0.399864	0.000134
C64	C	0.659714	-0.349452	0.000145
C65	C	0.615892	-0.318161	0.000134
C66	C	0.571557	-0.337282	0.000112
C67	C	0.482882	-0.375521	0.000054
C68	C	0.483399	-0.325104	0.000053
C69	C	0.527737	-0.305983	0.000076
C70	C	0.528247	-0.255580	0.000112
N71	N	0.572583	-0.236456	0.000123
C72	C	0.616405	-0.267747	0.000134
C73	C	0.523582	-0.714348	0.000066
C74	C	0.523069	-0.764762	0.000066
C75	C	0.611230	-0.776930	0.000090
C76	C	0.611742	-0.726514	0.000099
C77	C	0.567917	-0.695224	0.000077
C78	C	0.617477	-0.161878	0.000159
C79	C	0.617986	-0.111461	0.000175
C80	C	0.529825	-0.099298	0.000145
C81	C	0.529316	-0.149710	0.000135
C82	C	0.573147	-0.180999	0.000138
O83	O	0.491047	-0.224296	0.000142
O84	O	0.654156	-0.246844	0.000130
C85	C	0.614355	-0.469397	0.000101
C86	C	0.570021	-0.488518	0.000079
C87	C	0.526198	-0.457228	0.000068
C88	C	0.569508	-0.538933	0.000079
C89	C	0.613330	-0.570223	0.000090
C90	C	0.657665	-0.551100	0.000101
C91	C	0.658177	-0.500688	0.000112
C92	C	0.481863	-0.476351	0.000056
C93	C	0.481355	-0.526764	0.000047
C94	C	0.525177	-0.558054	0.000058
C95	C	0.658931	0.057699	0.000147
C96	C	0.712586	0.058252	0.000153
C97	C	0.566338	0.150292	0.000095
C98	C	0.566891	0.203947	0.000077
N99	N	0.570521	0.061884	0.318954
N100	N	0.570537	0.061889	-0.318702
C101	C	0.570529	0.061889	0.569960
C102	C	0.570523	0.061888	0.430283
H103	H	0.083302	0.186251	0.000095
Br104	Br	0.451816	-0.038284	0.000132
Br105	Br	0.185128	0.211252	0.000063
H106	H	0.412743	0.145454	0.000051
H107	H	-0.293777	0.138273	0.000127
H108	H	0.694889	-0.425336	0.000139
H109	H	0.647846	-0.710950	0.000117
Br110	Br	-0.282067	-0.045745	0.000166
H111	H	0.486964	-0.780325	0.000068
Br112	Br	0.033892	0.209715	0.000084
H113	H	0.487892	-0.688875	0.000049
Br114	Br	0.670702	-0.819405	0.000102
H115	H	0.209009	-0.060929	0.000218
H116	H	0.343360	-0.015426	0.000120
H117	H	-0.202311	0.139207	0.000117
H118	H	0.695819	-0.333889	0.000160
H119	H	-0.180236	-0.020747	0.000190
H120	H	0.693347	-0.576585	0.000115
Br121	Br	0.107181	-0.085934	0.000203
Br122	Br	-0.084937	0.208499	0.000102
Br123	Br	-0.044068	-0.087463	0.000212
H124	H	0.446777	-0.391080	0.000027
Br125	Br	0.718354	-0.474746	0.000137
H126	H	0.493213	-0.165279	0.000150
H127	H	0.057760	-0.062462	0.000204
H128	H	0.321291	0.144530	0.000086
H129	H	0.494146	-0.073812	0.000140
Br130	Br	0.678163	-0.085515	0.000208
H131	H	0.445246	-0.542327	0.000038
H132	H	0.653168	-0.187348	0.000156
Br133	Br	0.423918	-0.282641	0.000018
Br134	Br	0.422384	-0.433892	0.000035
