data_functionalizedCrystal
_audit_creation_method	'MofGen! by Chris Wilmer'
_symmetry_space_group_name_H-M	'P1'
_symmetry_Int_Tables_number	1
_symmetry_cell_setting	triclinic
loop_
_symmetry_equiv_pos_as_xyz
  x,y,z
_cell_length_a	14.044220
_cell_length_b	14.044202
_cell_length_c	12.503572
_cell_angle_alpha	86.143857
_cell_angle_beta	93.847148
_cell_angle_gamma	93.190790
loop_
_atom_site_label
_atom_site_type_symbol
_atom_site_fract_x
_atom_site_fract_y
_atom_site_fract_z
O1	O	-1.272126	-0.235213	0.089243
O2	O	-0.772126	0.264787	0.589243
O3	O	-0.995453	-0.226909	0.089269
O4	O	-0.495453	0.273091	0.589269
O5	O	-1.129634	-0.092723	0.089228
O6	O	-0.629634	0.407277	0.589228
O7	O	-1.137945	-0.369399	0.089285
O8	O	-0.637945	0.130601	0.589285
O9	O	-1.139729	-0.082619	-0.089417
O10	O	-0.639729	0.417381	0.410583
O11	O	-1.005548	-0.216804	-0.089376
O12	O	-0.505548	0.283196	0.410624
O13	O	-1.282221	-0.225109	-0.089402
O14	O	-0.782221	0.274891	0.410598
Cu15	Cu	-1.144806	-0.220034	-0.105700
Cu16	Cu	-0.644806	0.279966	0.394300
Cu17	Cu	-1.132868	-0.231984	0.105568
Cu18	Cu	-0.632868	0.268016	0.605568
O19	O	-1.148040	-0.359294	-0.089360
O20	O	-0.648040	0.140706	0.410640
C21	C	-0.964878	-0.218221	-0.000050
C22	C	-0.464878	0.281779	0.499950
C23	C	-0.858735	-0.207377	-0.000042
C24	C	-0.358735	0.292623	0.499958
C25	C	-1.131045	-0.052049	-0.000100
C26	C	-0.631045	0.447951	0.499900
C27	C	-1.120197	0.054095	-0.000114
C28	C	-0.620197	0.554095	0.499886
C29	C	-1.312796	-0.233797	-0.000080
C30	C	-0.812796	0.266203	0.499920
C31	C	-1.418939	-0.244641	-0.000081
C32	C	-0.918939	0.255359	0.499919
C33	C	-0.664398	-0.187549	-0.000067
C34	C	-0.164398	0.312451	0.499933
C35	C	-0.613270	-0.264465	-0.000056
C36	C	-0.113270	0.235535	0.499944
C37	C	-0.505134	-0.253432	-0.000070
C38	C	-0.005134	0.246568	0.499930
C39	C	-0.772543	-0.198580	-0.000053
C40	C	-0.272543	0.301420	0.499947
C41	C	-1.177294	0.299552	-0.000092
C42	C	-0.677294	0.799552	0.499908
C43	C	-1.100378	0.248427	-0.000089
C44	C	-0.600378	0.748427	0.499911
C45	C	-1.111408	0.140291	-0.000103
C46	C	-0.611408	0.640291	0.499897
C47	C	-1.166266	0.407698	-0.000078
C48	C	-0.666266	0.907698	0.499922
C49	C	-1.146628	0.600032	-0.000045
C50	C	-0.646628	1.100032	0.499955
C51	C	-1.157471	0.493890	-0.000067
C52	C	-0.657471	0.993890	0.499933
N53	N	-1.124471	-0.240382	0.254163
N54	N	-0.624471	0.259618	0.754163
N55	N	-1.153210	-0.211629	-0.254295
N56	N	-0.653210	0.288371	0.245705
C57	C	-1.112111	-0.252735	0.473282
C58	C	-0.612111	0.247265	0.973282
C59	C	-1.165567	-0.199279	0.526593
C60	C	-0.665567	0.300721	1.026593
C61	C	-1.158690	-0.206152	0.648518
C62	C	-0.658690	0.293848	1.148518
C63	C	-1.118987	-0.245863	0.351346
C64	C	-0.618987	0.254137	0.851346
H65	H	-0.650710	-0.338600	-0.000035
H66	H	-0.150710	0.161400	0.499965
Br67	Br	-0.976816	0.310829	-0.000076
Br68	Br	-0.476816	0.810829	0.499924
H69	H	-1.061184	-0.303659	0.519205
H70	H	-0.561184	0.196341	1.019205
H71	H	-0.626960	-0.113420	-0.000088
H72	H	-0.126960	0.386580	0.499912
Br73	Br	-1.300849	0.237149	-0.000115
Br74	Br	-0.800849	0.737149	0.499885
Br75	Br	-1.250452	-0.114394	0.450045
Br76	Br	-0.750452	0.385606	0.950045
