data_functionalizedCrystal
_audit_creation_method	'MofGen! by Chris Wilmer'
_symmetry_space_group_name_H-M	'P1'
_symmetry_Int_Tables_number	1
_symmetry_cell_setting	triclinic
loop_
_symmetry_equiv_pos_as_xyz
  x,y,z
_cell_length_a	15.944551
_cell_length_b	15.944551
_cell_length_c	15.021413
_cell_angle_alpha	89.996935
_cell_angle_beta	89.997174
_cell_angle_gamma	96.501262
loop_
_atom_site_label
_atom_site_type_symbol
_atom_site_fract_x
_atom_site_fract_y
_atom_site_fract_z
O1	O	1.114529	-0.108321	-0.073941
O2	O	1.614529	0.391679	0.426059
O3	O	0.869979	-0.121677	-0.073964
O4	O	1.369979	0.378323	0.426036
O5	O	0.998932	0.007276	-0.073944
O6	O	1.498932	0.507276	0.426056
O7	O	0.985576	-0.237274	-0.073961
O8	O	1.485576	0.262726	0.426039
O9	O	0.998912	0.007257	0.074121
O10	O	1.498912	0.507257	0.574121
O11	O	0.869959	-0.121695	0.074101
O12	O	1.369959	0.378305	0.574101
O13	O	1.114508	-0.108339	0.074123
O14	O	1.614508	0.391661	0.574123
Zn15	Zn	0.992230	-0.115020	0.097620
Zn16	Zn	1.492230	0.384980	0.597620
Zn17	Zn	0.992257	-0.114996	-0.097461
Zn18	Zn	1.492257	0.385004	0.402539
O19	O	0.985555	-0.237292	0.074103
O20	O	1.485555	0.262708	0.574103
C21	C	0.838675	-0.121132	0.000066
C22	C	1.338675	0.378868	0.500066
C23	C	0.745429	-0.119470	0.000057
C24	C	1.245429	0.380530	0.500057
C25	C	0.530572	-0.035565	0.000081
C26	C	1.030572	0.464435	0.500081
C27	C	0.469562	-0.074518	-0.072926
C28	C	0.969562	0.425482	0.427074
C29	C	0.574703	-0.116462	0.000068
C30	C	1.074703	0.383538	0.500068
C31	C	0.469564	-0.074556	0.073054
C32	C	0.969564	0.425444	0.573054
C33	C	0.409790	-0.113551	0.000083
C34	C	0.909790	0.386449	0.500083
C35	C	0.514921	-0.155438	-0.072998
C36	C	1.014921	0.344562	0.427002
C37	C	0.514930	-0.155464	0.073047
C38	C	1.014930	0.344536	0.573047
C39	C	0.453937	-0.194476	0.000023
C40	C	0.953937	0.305524	0.500023
C41	C	0.669705	-0.118137	0.000059
C42	C	1.169705	0.381863	0.500059
C43	C	0.314789	-0.111883	0.000085
C44	C	0.814789	0.388117	0.500085
C45	C	0.998367	0.038561	0.000089
C46	C	1.498367	0.538561	0.500089
C47	C	0.996705	0.131807	0.000089
C48	C	1.496705	0.631807	0.500089
C49	C	1.145813	-0.108885	0.000092
C50	C	1.645813	0.391115	0.500092
C51	C	1.239059	-0.110547	0.000094
C52	C	1.739059	0.389453	0.500094
N53	N	0.992218	-0.115036	0.230758
N54	N	1.492218	0.384964	0.730758
C55	C	0.986120	-0.268577	0.000069
C56	C	1.486120	0.231423	0.500069
C57	C	0.987782	-0.361823	0.000063
C58	C	1.487782	0.138177	0.500063
C59	C	0.912801	0.346663	0.000069
C60	C	1.412801	0.846663	0.500069
C61	C	0.951753	0.407672	0.073077
C62	C	1.451753	0.907672	0.573077
C63	C	0.993698	0.302533	0.000082
C64	C	1.493698	0.802533	0.500082
C65	C	0.951792	0.407673	-0.072903
C66	C	1.451792	0.907673	0.427097
C67	C	0.990787	0.467445	0.000071
C68	C	1.490787	0.967445	0.500071
C69	C	1.032672	0.362313	0.073150
C70	C	1.532672	0.862313	0.573150
C71	C	1.032700	0.362308	-0.072895
C72	C	1.532700	0.862308	0.427105
C73	C	1.071711	0.423298	0.000131
C74	C	1.571711	0.923298	0.500131
C75	C	0.995372	0.207530	0.000089
C76	C	1.495372	0.707530	0.500089
C77	C	0.989119	0.562446	0.000070
C78	C	1.489119	1.062446	0.500070
N79	N	0.992276	-0.114973	-0.230598
N80	N	1.492276	0.385027	0.269402
C81	C	0.932581	-0.174636	0.470432
C82	C	1.432581	0.325364	0.970432
C83	C	1.008481	-0.190943	0.529772
C84	C	1.508481	0.309057	1.029772
C85	C	0.992239	-0.115015	0.412365
C86	C	1.492239	0.384985	0.912365
C87	C	0.916360	-0.098727	0.529766
C88	C	1.416360	0.401273	1.029766
C89	C	0.992253	-0.114997	0.587789
C90	C	1.492253	0.385003	1.087789
C91	C	1.068178	-0.131360	0.470398
C92	C	1.568178	0.368640	0.970398
C93	C	0.976006	-0.039111	0.470387
C94	C	1.476006	0.460889	0.970387
C95	C	1.051962	-0.055386	0.529701
C96	C	1.551962	0.444614	1.029701
C97	C	0.992230	-0.115028	0.311307
C98	C	1.492230	0.384972	0.811307
C99	C	0.992271	-0.114984	0.688844
C100	C	1.492271	0.385016	1.188844
H101	H	0.534918	-0.189621	-0.134787
H102	H	1.034918	0.310379	0.365213
N103	N	1.153206	-0.149697	0.436005
N104	N	1.653206	0.350303	0.936005
H105	H	1.146082	-0.202648	0.398579
H106	H	1.646082	0.297352	0.898579
H107	H	1.191679	-0.157929	0.487922
H108	H	1.691679	0.342071	0.987922
N109	N	1.160727	0.467237	0.000188
N110	N	1.660727	0.967237	0.500188
H111	H	1.191540	0.450012	-0.054415
H112	H	1.691540	0.950012	0.445585
H113	H	1.191089	0.450743	0.055392
H114	H	1.691089	0.950743	0.555392
H115	H	0.420779	-0.261683	-0.000023
H116	H	0.920779	0.238317	0.499977
H117	H	1.066896	0.342185	-0.134615
H118	H	1.566896	0.842185	0.365385
H119	H	0.563905	0.031573	-0.000005
H120	H	1.063905	0.531573	0.499995
N121	N	0.442956	-0.029232	0.154816
N122	N	0.942956	0.470768	0.654816
H123	H	0.402904	-0.069001	0.191398
H124	H	0.902904	0.430999	0.691398
H125	H	0.413798	0.020973	0.136130
H126	H	0.913798	0.520973	0.636130
H127	H	1.022224	-0.255126	0.555856
H128	H	1.522224	0.244874	1.055856
N129	N	1.118863	0.011416	0.563965
N130	N	1.618863	0.511416	1.063965
H131	H	1.176128	-0.000992	0.542252
H132	H	1.676128	0.499008	1.042252
H133	H	1.118102	0.011355	0.631194
H134	H	1.618102	0.511355	1.131194
N135	N	0.865820	-0.241464	0.435942
N136	N	1.365820	0.258536	0.935942
H137	H	0.808606	-0.229753	0.458467
H138	H	1.308606	0.270247	0.958467
H139	H	0.878272	-0.298747	0.457550
H140	H	1.378272	0.201253	0.957550
H141	H	0.917528	0.427772	0.134794
H142	H	1.417528	0.927772	0.634794
N143	N	0.831357	-0.080472	0.564308
N144	N	1.331357	0.419528	1.064308
H145	H	0.832156	-0.080055	0.631539
H146	H	1.332156	0.419945	1.131539
H147	H	0.786380	-0.125565	0.542687
H148	H	1.286380	0.374435	1.042687
N149	N	0.823857	0.302542	0.000146
N150	N	1.323857	0.802542	0.500146
H151	H	0.793401	0.318914	0.055342
H152	H	1.293401	0.818914	0.555342
H153	H	0.825673	0.239434	-0.000453
H154	H	1.325673	0.739434	0.499547
H155	H	0.962240	0.025051	0.444283
H156	H	1.462240	0.525051	0.944283
H157	H	0.449461	-0.040295	-0.134642
H158	H	0.949461	0.459705	0.365358
H159	H	1.066851	0.342314	0.134941
H160	H	1.566851	0.842314	0.634941
N161	N	0.541559	-0.200784	0.154797
N162	N	1.041559	0.299216	0.654797
H163	H	0.525242	-0.170184	0.209919
H164	H	1.025242	0.329816	0.709919
H165	H	0.604738	-0.202057	0.153816
H166	H	1.104738	0.297943	0.653816
N167	N	0.906467	0.434300	-0.154656
N168	N	1.406467	0.934300	0.345344
H169	H	0.846451	0.406135	-0.154592
H170	H	1.346451	0.906135	0.345408
H171	H	0.936486	0.416994	-0.209749
H172	H	1.436486	0.916994	0.290251
