data_functionalizedCrystal
_audit_creation_method	'MofGen! by Chris Wilmer'
_symmetry_space_group_name_H-M	'P1'
_symmetry_Int_Tables_number	1
_symmetry_cell_setting	triclinic
loop_
_symmetry_equiv_pos_as_xyz
  x,y,z
_cell_length_a	13.635800
_cell_length_b	10.943632
_cell_length_c	10.943567
_cell_angle_alpha	88.227949
_cell_angle_beta	108.837784
_cell_angle_gamma	71.161120
loop_
_atom_site_label
_atom_site_type_symbol
_atom_site_fract_x
_atom_site_fract_y
_atom_site_fract_z
V1	V	2.057743	-0.178601	0.402521
O2	O	2.036598	0.008612	0.394890
O3	O	2.046718	-0.354164	0.399737
O4	O	2.046722	-0.175841	0.578088
O5	O	2.036593	-0.170946	0.215305
V6	V	2.296142	-0.156210	0.380132
O7	O	2.195748	-0.227718	0.451632
O8	O	2.383236	-0.107093	0.331020
O9	O	2.195564	0.019354	0.382915
O10	O	2.375986	-0.343423	0.387762
O11	O	2.375990	-0.163865	0.567348
O12	O	2.195559	-0.158970	0.204565
V13	V	2.557743	-0.178601	0.402521
O14	O	2.536598	0.008612	0.394890
O15	O	2.546718	-0.354164	0.399737
O16	O	2.546722	-0.175841	0.578088
O17	O	2.536593	-0.170946	0.215305
V18	V	2.796142	-0.156210	0.380132
O19	O	2.695748	-0.227718	0.451632
O20	O	2.883236	-0.107093	0.331020
O21	O	2.695564	0.019354	0.382915
O22	O	2.875986	-0.343423	0.387762
O23	O	2.875990	-0.163865	0.567348
O24	O	2.695559	-0.158970	0.204565
C25	C	1.971997	-0.396963	0.393379
C26	C	2.003714	-0.540489	0.392274
C27	C	1.926138	-0.617642	0.384921
C28	C	1.965557	-0.690296	0.280695
C29	C	2.020823	-0.723573	0.494543
C30	C	2.042693	-0.611239	0.287974
C31	C	2.097969	-0.644522	0.501917
C32	C	2.137443	-0.717139	0.397670
C33	C	1.972002	-0.169492	0.620882
C34	C	2.003720	-0.168397	0.764408
C35	C	2.101956	0.062146	0.389270
C36	C	2.059858	0.205670	0.390384
C37	C	2.101951	-0.165323	0.161764
C38	C	2.059851	-0.166411	0.018236
C39	C	2.471997	-0.396963	0.393379
C40	C	2.503714	-0.540489	0.392274
C41	C	2.472002	-0.169492	0.620882
C42	C	2.503720	-0.168397	0.764408
C43	C	1.945124	-0.160341	0.927406
C44	C	1.946547	-0.057427	0.828267
C45	C	2.001837	-0.271274	0.861631
C46	C	2.061671	-0.063394	0.920974
C47	C	2.116973	-0.277336	0.954360
C48	C	2.118469	-0.174400	0.855260
C49	C	2.601956	0.062146	0.389270
C50	C	2.559858	0.205670	0.390384
C51	C	2.601951	-0.165323	0.161764
C52	C	2.559851	-0.166411	0.018236
C53	C	2.426138	-0.617642	0.384921
C54	C	2.465557	-0.690296	0.280695
C55	C	2.520823	-0.723573	0.494543
C56	C	2.542693	-0.611239	0.287974
C57	C	2.597969	-0.644522	0.501917
C58	C	2.637443	-0.717139	0.397670
C59	C	2.426134	-0.161011	0.841557
C60	C	2.520812	-0.270657	0.947528
C61	C	2.465572	-0.056813	0.914179
C62	C	2.598003	-0.278145	0.868503
C63	C	2.542723	-0.064205	0.835130
C64	C	2.637469	-0.173881	0.941071
H65	H	1.836481	-0.574158	0.379408
H66	H	2.551611	-0.562477	0.200587
C67	C	1.967222	-0.389966	0.825822
H68	H	2.014822	-0.443923	0.786578
H69	H	1.972401	-0.438460	0.902592
H70	H	1.893081	-0.360732	0.766180
C71	C	2.305097	-0.153860	0.782845
H72	H	2.297254	-0.227335	0.821701
H73	H	2.257948	-0.076009	0.799327
H74	H	2.285428	-0.153852	0.691278
H75	H	2.653581	-0.623725	0.595460
H76	H	1.872135	-0.154252	0.959289
H77	H	2.551612	0.023080	0.786161
H78	H	2.511881	-0.357937	0.996462
H79	H	2.727071	-0.760363	0.403024
C80	C	2.390384	-0.718365	0.154336
H81	H	2.315608	-0.684149	0.149903
H82	H	2.397474	-0.678263	0.080967
H83	H	2.411680	-0.810012	0.154201
H84	H	2.051611	-0.562477	0.200587
H85	H	2.191534	-0.180325	0.823596
C86	C	2.214671	-0.402921	1.028337
H87	H	2.193530	-0.476666	1.008392
H88	H	2.276039	-0.408685	1.002632
H89	H	2.234700	-0.400903	1.119642
H90	H	1.909904	-0.711060	0.187152
H91	H	2.511862	-0.772487	0.581812
C92	C	2.305023	-0.558868	0.377467
H93	H	2.257864	-0.574015	0.298780
H94	H	2.296725	-0.598771	0.450019
H95	H	2.285753	-0.467537	0.378972
H96	H	2.653695	-0.371789	0.847942
H97	H	2.727126	-0.179349	0.984315
C98	C	2.096146	0.055437	0.956530
H99	H	2.090264	0.104285	0.879560
H100	H	2.048941	0.109012	0.996432
H101	H	2.170515	0.026316	1.015525
C102	C	1.848813	0.068153	0.754329
H103	H	1.787031	0.073034	0.778864
H104	H	1.869460	0.141990	0.775530
H105	H	1.829636	0.066892	0.662970
H106	H	2.409897	0.036706	0.934957
H107	H	2.227071	-0.760363	0.403024
H108	H	2.153581	-0.623725	0.595460
H109	H	2.011862	-0.772487	0.581812
