data_functionalizedCrystal
_audit_creation_method	'MofGen! by Chris Wilmer'
_symmetry_space_group_name_H-M	'P1'
_symmetry_Int_Tables_number	1
_symmetry_cell_setting	triclinic
loop_
_symmetry_equiv_pos_as_xyz
  x,y,z
_cell_length_a	11.026607
_cell_length_b	8.559649
_cell_length_c	7.088906
_cell_angle_alpha	95.343546
_cell_angle_beta	97.576235
_cell_angle_gamma	90.817659
loop_
_atom_site_label
_atom_site_type_symbol
_atom_site_fract_x
_atom_site_fract_y
_atom_site_fract_z
O1	O	1.535814	-0.664137	-0.158970
O2	O	1.189423	-0.589936	-0.158975
O3	O	1.393136	-0.403212	-0.158970
O4	O	1.332101	-0.850861	-0.158975
O5	O	1.420364	-0.378190	0.159005
O6	O	1.216651	-0.564913	0.159001
O7	O	1.563042	-0.639114	0.159005
Cu8	Cu	1.392332	-0.599729	0.188037
Cu9	Cu	1.360132	-0.629321	-0.188006
O10	O	1.359329	-0.825838	0.159001
C11	C	1.411375	-0.332502	0.000014
C12	C	1.425142	-0.159083	0.000004
C13	C	1.159102	-0.563736	0.000012
C14	C	1.028190	-0.522929	0.000010
N15	N	1.414989	-0.578917	0.452525
C16	C	0.943884	-0.635604	0.000008
C17	C	0.808580	-0.593431	0.000006
C18	C	1.593363	-0.665315	0.000014
C19	C	1.724273	-0.706123	0.000003
C20	C	1.341089	-0.896549	0.000012
C21	C	1.327321	-1.069969	0.000010
N22	N	1.337476	-0.650134	0.547505
H23	H	0.971876	-0.763290	0.000017
H24	H	1.495331	-0.505128	0.534183
C25	C	0.990391	-0.350426	0.000011
C26	C	1.015577	-0.255017	-0.165104
C27	C	0.977782	-0.082509	-0.165103
C28	C	0.914801	-0.005411	0.000012
C29	C	0.889611	-0.100821	0.165139
C30	C	0.927406	-0.273329	0.165139
H31	H	1.062202	-0.312089	-0.287343
H32	H	0.996429	-0.011881	-0.287342
H33	H	0.886823	0.122289	0.000013
H34	H	0.842986	-0.043749	0.287378
H35	H	0.908759	-0.343957	0.287377
H36	H	1.257146	-0.723931	0.465857
H37	H	0.780590	-0.465740	-0.000042
H38	H	0.752257	-0.833817	0.000015
H39	H	1.233039	-0.126346	0.000015
H40	H	1.519432	-0.102696	0.000020
