data_functionalizedCrystal
_audit_creation_method	'MofGen! by Chris Wilmer'
_symmetry_space_group_name_H-M	'P1'
_symmetry_Int_Tables_number	1
_symmetry_cell_setting	triclinic
loop_
_symmetry_equiv_pos_as_xyz
  x,y,z
_cell_length_a	16.109301
_cell_length_b	16.098538
_cell_length_c	16.109301
_cell_angle_alpha	92.720629
_cell_angle_beta	96.538519
_cell_angle_gamma	92.735164
loop_
_atom_site_label
_atom_site_type_symbol
_atom_site_fract_x
_atom_site_fract_y
_atom_site_fract_z
O1	O	1.106853	0.069206	-0.103153
O2	O	1.440186	0.402539	0.230180
O3	O	1.773520	0.735873	0.563513
O4	O	0.864792	0.069220	-0.116452
O5	O	1.198125	0.402553	0.216882
O6	O	1.531458	0.735886	0.550215
O7	O	0.992471	0.069204	0.011228
O8	O	1.325805	0.402537	0.344561
O9	O	1.659138	0.735871	0.677895
O10	O	0.979173	0.069222	-0.230833
O11	O	1.312506	0.402555	0.102500
O12	O	1.645840	0.735888	0.435834
O13	O	0.985013	-0.069308	0.003799
O14	O	1.318346	0.264025	0.337132
O15	O	1.651680	0.597359	0.670465
O16	O	0.857333	-0.069292	-0.123881
O17	O	1.190667	0.264041	0.209452
O18	O	1.524000	0.597374	0.542786
O19	O	1.099394	-0.069306	-0.110582
O20	O	1.432728	0.264027	0.222751
O21	O	1.766061	0.597361	0.556084
Zn22	Zn	0.977180	-0.091291	-0.118411
Zn23	Zn	1.310513	0.242042	0.214922
Zn24	Zn	1.643846	0.575376	0.548255
Zn25	Zn	0.987006	0.091205	-0.108623
Zn26	Zn	1.320340	0.424538	0.224710
Zn27	Zn	1.653673	0.757871	0.558044
O28	O	0.971715	-0.069290	-0.238262
O29	O	1.305048	0.264043	0.095071
O30	O	1.638381	0.597376	0.428404
C31	C	0.830088	-0.000035	-0.119628
C32	C	1.163421	0.333298	0.213706
C33	C	1.496754	0.666632	0.547039
C34	C	0.737793	-0.000030	-0.118012
C35	C	1.071126	0.333303	0.215321
C36	C	1.404459	0.666637	0.548654
C37	C	0.515520	-0.000034	-0.190020
C38	C	0.848853	0.333299	0.143313
C39	C	1.182187	0.666632	0.476646
C40	C	0.428799	-0.000040	-0.188496
C41	C	0.762133	0.333294	0.144837
C42	C	1.095466	0.666627	0.478170
C43	C	0.448673	-0.000047	-0.037008
C44	C	0.782007	0.333286	0.296325
C45	C	1.115340	0.666619	0.629659
C46	C	0.535392	-0.000048	-0.038533
C47	C	0.868725	0.333285	0.294800
C48	C	1.202059	0.666619	0.628134
C49	C	0.568813	-0.000037	-0.115041
C50	C	0.902146	0.333296	0.218292
C51	C	1.235480	0.666630	0.551625
C52	C	0.395374	-0.000042	-0.111993
C53	C	0.728707	0.333291	0.221341
C54	C	1.062040	0.666625	0.554674
C55	C	0.301347	-0.000048	-0.110340
C56	C	0.634681	0.333285	0.222993
C57	C	0.968014	0.666619	0.556327
C58	C	0.662845	-0.000033	-0.116695
C59	C	0.996178	0.333301	0.216639
C60	C	1.329512	0.666634	0.549972
N61	N	0.970479	-0.215839	-0.125091
N62	N	1.303812	0.117494	0.208242
N63	N	1.637146	0.450827	0.541576
C64	C	1.024691	-0.259431	-0.070918
C65	C	1.358025	0.073902	0.262416
C66	C	1.691358	0.407236	0.595749
C67	C	1.020012	-0.346619	-0.075598
C68	C	1.353345	-0.013286	0.257735
C69	C	1.686679	0.320047	0.591068
C70	C	0.961123	-0.390215	-0.134457
C71	C	1.294457	-0.056881	0.198876
C72	C	1.627790	0.276452	0.532210
C73	C	0.906905	-0.346617	-0.188633
C74	C	1.240239	-0.013283	0.144701
C75	C	1.573572	0.320050	0.478034
C76	C	0.911582	-0.259430	-0.183947
C77	C	1.244915	0.073903	0.149386
C78	C	1.578248	0.407237	0.482719
C79	C	0.944172	-0.653463	-0.151427
C80	C	1.277505	-0.320129	0.181906
C81	C	1.610838	0.013204	0.515240
C82	C	0.939501	-0.740655	-0.156110
C83	C	1.272835	-0.407322	0.177223
C84	C	1.606168	-0.073989	0.510557
C85	C	1.052607	-0.740652	-0.043074
C86	C	1.385941	-0.407319	0.290259
C87	C	1.719274	-0.073985	0.623592
C88	C	1.057282	-0.653464	-0.038398
C89	C	1.390615	-0.320130	0.294936
C90	C	1.723948	0.013203	0.628269
C91	C	1.003061	-0.609873	-0.092570
C92	C	1.336394	-0.276540	0.240763
C93	C	1.669727	0.056793	0.574096
C94	C	0.956341	-0.479335	-0.139244
C95	C	1.289674	-0.146002	0.194089
C96	C	1.623007	0.187332	0.527422
C97	C	1.007840	-0.520754	-0.087778
C98	C	1.341173	-0.187421	0.245555
C99	C	1.674507	0.145912	0.578889
C100	C	1.134099	-0.000050	-0.107407
C101	C	1.467432	0.333283	0.225927
C102	C	1.800765	0.666617	0.559260
C103	C	1.226394	-0.000049	-0.109022
C104	C	1.559727	0.333284	0.224312
C105	C	1.893061	0.666617	0.557645
C106	C	0.988204	-0.000052	0.038488
C107	C	1.321537	0.333281	0.371822
C108	C	1.654870	0.666614	0.705155
C109	C	0.986588	-0.000054	0.130783
C110	C	1.319922	0.333280	0.464117
C111	C	1.653255	0.666613	0.797450
N112	N	0.993714	0.215753	-0.101937
N113	N	1.327047	0.549086	0.231397
N114	N	1.660380	0.882420	0.564730
C115	C	0.975983	-0.000032	-0.265522
C116	C	1.309316	0.333301	0.067811
C117	C	1.642649	0.666634	0.401144
C118	C	0.977598	-0.000026	-0.357817
C119	C	1.310932	0.333308	-0.024484
C120	C	1.644265	0.666641	0.308849
C121	C	1.058597	-0.000044	0.353056
C122	C	1.391930	0.333289	0.686390
C123	C	1.725263	0.666622	1.019723
C124	C	1.057073	-0.000038	0.439777
C125	C	1.390406	0.333296	0.773110
C126	C	1.723739	0.666629	1.106444
C127	C	0.905584	-0.000032	0.419903
C128	C	1.238918	0.333301	0.753236
C129	C	1.572251	0.666634	1.086570
C130	C	0.907109	-0.000033	0.333184
C131	C	1.240443	0.333300	0.666518
C132	C	1.573776	0.666633	0.999851
C133	C	0.983618	-0.000044	0.299763
C134	C	1.316951	0.333290	0.633097
C135	C	1.650284	0.666623	0.966430
C136	C	0.980569	-0.000036	0.473203
C137	C	1.313902	0.333298	0.806536
C138	C	1.647236	0.666631	1.139869
C139	C	0.978916	-0.000028	0.567229
C140	C	1.312250	0.333305	0.900563
C141	C	1.645583	0.666639	1.233896
C142	C	0.985271	-0.000050	0.205731
C143	C	1.318604	0.333284	0.539064
C144	C	1.651937	0.666617	0.872398
H145	H	0.542728	-0.000032	-0.252318
H146	H	0.876061	0.333302	0.081015
H147	H	1.209394	0.666635	0.414348
H148	H	0.421451	-0.000061	0.025282
H149	H	0.754784	0.333272	0.358615
H150	H	1.088117	0.666605	0.691949
H151	H	1.118128	-0.000036	0.483166
H152	H	1.451462	0.333297	0.816499
H153	H	1.784795	0.666630	1.149832
H154	H	1.105233	-0.617970	0.009530
H155	H	1.438566	-0.284637	0.342863
H156	H	1.771900	0.048696	0.676196
H157	H	0.908394	-0.514837	-0.187170
H158	H	1.241727	-0.181504	0.146164
H159	H	1.575060	0.151829	0.479497
H160	H	0.858953	-0.382117	-0.236554
H161	H	1.192286	-0.048784	0.096780
H162	H	1.525620	0.284550	0.430113
H163	H	0.385411	-0.000039	-0.249552
H164	H	0.718744	0.333294	0.083781
H165	H	1.052078	0.666627	0.417115
C166	C	0.824628	-0.000035	0.274558
C167	C	1.157962	0.333299	0.607891
C168	C	1.491295	0.666632	0.941225
H169	H	0.778844	-0.000041	0.306880
H170	H	1.112177	0.333293	0.640214
H171	H	1.445510	0.666626	0.973547
H172	H	0.824674	0.048267	0.242902
H173	H	1.158008	0.381600	0.576235
H174	H	1.491341	0.714933	0.909569
H175	H	0.819478	-0.048344	0.237730
H176	H	1.152811	0.284990	0.571064
H177	H	1.486145	0.618323	0.904397
H178	H	1.064155	-0.382111	-0.031486
H179	H	1.397488	-0.048778	0.301847
H180	H	1.730822	0.284555	0.635181
C181	C	1.072615	-0.472807	-0.023036
C182	C	1.405948	-0.139473	0.310297
C183	C	1.739281	0.193860	0.643630
H184	H	1.104234	-0.511252	0.008563
H185	H	1.437567	-0.177919	0.341896
H186	H	1.770900	0.155415	0.675229
H187	H	1.109031	-0.438781	-0.051132
H188	H	1.442364	-0.105447	0.282202
H189	H	1.775697	0.227886	0.615535
H190	H	1.044537	-0.438810	0.013413
H191	H	1.377870	-0.105476	0.346746
H192	H	1.711204	0.227857	0.680080
C193	C	0.594018	-0.000047	0.043948
C194	C	0.927352	0.333286	0.377281
C195	C	1.260685	0.666619	0.710615
H196	H	0.561696	-0.000041	0.089732
H197	H	0.895029	0.333292	0.423066
H198	H	1.228363	0.666625	0.756399
H199	H	0.625663	-0.048349	0.043913
H200	H	0.958996	0.284984	0.377246
H201	H	1.292330	0.618318	0.710579
H202	H	0.630857	0.048261	0.049087
H203	H	0.964190	0.381595	0.382420
H204	H	1.297524	0.714928	0.715754
H205	H	1.072648	-0.223942	-0.022993
H206	H	1.405981	0.109392	0.310341
H207	H	1.739315	0.442725	0.643674
H208	H	1.120895	-0.000051	0.325848
H209	H	1.454228	0.333282	0.659182
H210	H	1.787561	0.666616	0.992515
C211	C	0.821432	-0.000033	0.456669
C212	C	1.154765	0.333301	0.790002
C213	C	1.488098	0.666634	1.123336
H214	H	0.831260	-0.000041	0.515948
H215	H	1.164594	0.333292	0.849281
H216	H	1.497927	0.666625	1.182615
H217	H	0.793155	0.048268	0.440963
H218	H	1.126489	0.381602	0.774296
H219	H	1.459822	0.714935	1.107629
H220	H	0.787965	-0.048342	0.435785
H221	H	1.121299	0.284991	0.769118
H222	H	1.454632	0.618325	1.102452
H223	H	0.891545	-0.776147	-0.204043
H224	H	1.224878	-0.442813	0.129290
H225	H	1.558211	-0.109480	0.462624
C226	C	1.112237	-0.788603	0.016518
C227	C	1.445570	-0.455269	0.349851
C228	C	1.778903	-0.121936	0.683184
H229	H	1.101015	-0.846772	0.005305
H230	H	1.434349	-0.513438	0.338638
H231	H	1.767682	-0.180105	0.671972
H232	H	1.168487	-0.774303	0.008244
H233	H	1.501820	-0.440970	0.341577
H234	H	1.835153	-0.107636	0.674910
H235	H	1.103982	-0.774324	0.072777
H236	H	1.437315	-0.440991	0.406111
H237	H	1.770649	-0.107657	0.739444
C238	C	0.884538	-0.605524	-0.211022
C239	C	1.217871	-0.272191	0.122312
C240	C	1.551205	0.061143	0.455645
H241	H	0.848805	-0.643977	-0.246752
H242	H	1.182139	-0.310644	0.086582
H243	H	1.515472	0.022689	0.419915
H244	H	0.851761	-0.571524	-0.179280
H245	H	1.185094	-0.238191	0.154053
H246	H	1.518427	0.095142	0.487387
H247	H	0.916263	-0.571502	-0.243816
H248	H	1.249596	-0.238169	0.089517
H249	H	1.582929	0.095165	0.422850
H250	H	0.867435	-0.223938	-0.228060
H251	H	1.200769	0.109395	0.105273
H252	H	1.534102	0.442728	0.438607
