data_functionalizedCrystal
_audit_creation_method	'MofGen! by Chris Wilmer'
_symmetry_space_group_name_H-M	'P1'
_symmetry_Int_Tables_number	1
_symmetry_cell_setting	triclinic
loop_
_symmetry_equiv_pos_as_xyz
  x,y,z
_cell_length_a	12.759395
_cell_length_b	16.120484
_cell_length_c	12.759387
_cell_angle_alpha	87.136424
_cell_angle_beta	90.020509
_cell_angle_gamma	92.926975
loop_
_atom_site_label
_atom_site_type_symbol
_atom_site_fract_x
_atom_site_fract_y
_atom_site_fract_z
Zn1	Zn	1.584987	-0.331828	0.615167
Zn2	Zn	1.575935	-0.471265	0.448379
Zn3	Zn	1.409282	-0.331874	0.439506
Zn4	Zn	1.400339	-0.471205	0.624015
O5	O	1.492636	-0.401543	0.531767
O6	O	1.730807	-0.350331	0.593052
O7	O	1.553783	-0.452818	0.300184
O8	O	1.440121	-0.215202	0.455392
O9	O	1.724157	-0.452774	0.470514
O10	O	1.569211	-0.215169	0.584449
O11	O	1.431344	-0.350408	0.293665
O12	O	1.261075	-0.350350	0.463971
O13	O	1.424878	-0.452673	0.769859
O14	O	1.254504	-0.452717	0.599529
O15	O	1.560539	-0.350273	0.763359
O16	O	1.545111	-0.587922	0.479094
O17	O	1.416101	-0.587879	0.608132
C18	C	1.219669	-0.401533	0.531748
C19	C	1.102891	-0.401549	0.531766
C20	C	1.478681	-0.618150	0.545559
C21	C	1.472808	-0.710816	0.551495
C22	C	1.096077	-0.508315	0.672716
C23	C	1.037808	-0.561705	0.743194
C24	C	0.928086	-0.561715	0.743207
C25	C	0.876630	-0.508328	0.672737
C26	C	0.934899	-0.454938	0.602259
C27	C	1.044623	-0.454935	0.602251
C28	C	0.941713	-0.348169	0.461316
C29	C	1.051436	-0.348161	0.461296
C30	C	0.890258	-0.294781	0.390846
C31	C	0.948526	-0.241394	0.320361
C32	C	1.058255	-0.241387	0.320350
C33	C	1.109704	-0.294771	0.390818
C34	C	1.462090	-0.880477	0.562353
C35	C	1.523370	-0.921768	0.501198
C36	C	1.517406	-1.016173	0.507239
C37	C	1.468052	-0.786063	0.556313
C38	C	1.766669	-0.401554	0.531786
C39	C	1.883445	-0.401558	0.531794
C40	C	1.492720	-0.401461	0.805795
C41	C	1.492756	-0.401426	0.922570
C42	C	1.506673	-0.184090	0.517944
C43	C	1.512655	-0.091424	0.512053
C44	C	1.492616	-0.401564	0.258801
C45	C	1.492798	-0.401364	0.142012
C46	C	1.634028	-0.294805	0.915821
C47	C	1.704680	-0.241481	0.967306
C48	C	1.704707	-0.241451	1.077026
C49	C	1.634074	-0.294748	1.135263
C50	C	1.563422	-0.348071	1.083777
C51	C	1.563404	-0.348098	0.974055
C52	C	1.422147	-0.454688	1.090526
C53	C	1.422123	-0.454723	0.980807
C54	C	1.351514	-0.507985	1.148763
C55	C	1.280866	-0.561313	1.097278
C56	C	1.280842	-0.561342	0.987551
C57	C	1.351472	-0.508047	0.929321
H58	H	1.185418	-0.508318	0.672704
C59	C	1.373192	-0.587260	1.310972
C60	C	1.351540	-0.507955	1.269369
H61	H	1.373202	-0.587243	1.385430
H62	H	1.440046	-0.601683	1.287079
H63	H	1.320999	-0.626635	1.288635
H64	H	1.403738	-0.468580	1.291700
H65	H	1.284677	-0.493522	1.293272
C66	C	1.591328	-0.788194	0.433178
C67	C	1.600229	-0.873783	0.424379
H68	H	1.638769	-0.758570	0.385747
H69	H	1.607564	-0.773918	0.502874
H70	H	1.521614	-0.774049	0.416862
H71	H	1.669942	-0.887930	0.440703
H72	H	1.584000	-0.888066	0.354667
C73	C	1.394112	-1.014049	0.630328
C74	C	1.385214	-0.928462	0.639144
H75	H	1.346645	-1.043678	0.677728
H76	H	1.463808	-1.028202	0.646665
H77	H	1.377900	-1.028313	0.560611
H78	H	1.401435	-0.914197	0.708860
H79	H	1.315503	-0.914303	0.622814
H80	H	1.223356	-0.604699	1.144702
C81	C	1.270596	-0.236631	0.314065
C82	C	1.230312	-0.294765	0.390805
H83	H	1.345054	-0.236632	0.314058
H84	H	1.249249	-0.182859	0.328935
H85	H	1.244815	-0.250985	0.247154
H86	H	1.256087	-0.280407	0.457718
H87	H	1.251669	-0.348548	0.375941
H88	H	1.634022	-0.294832	0.826481
C89	C	1.767395	-0.194194	0.796114
C90	C	1.782327	-0.182906	0.903291
H91	H	1.815336	-0.158036	0.756599
H92	H	1.697602	-0.181981	0.777347
H93	H	1.779137	-0.250221	0.781708
H94	H	1.770576	-0.126880	0.917699
H95	H	1.852136	-0.195113	0.922065
H96	H	1.762231	-0.198025	1.118945
C97	C	1.711022	-0.236649	1.288760
C98	C	1.634098	-0.294710	1.255869
H99	H	1.711037	-0.236631	1.363218
H100	H	1.696321	-0.182863	1.260519
H101	H	1.777879	-0.251086	1.264864
H102	H	1.567239	-0.280269	1.279758
H103	H	1.648792	-0.348508	1.284122
H104	H	1.223298	-0.604756	0.945638
H105	H	1.351463	-0.508069	0.839981
H106	H	0.906622	-0.197927	0.262995
H107	H	1.079716	-0.605170	0.800571
H108	H	0.787289	-0.508334	0.672763
C109	C	0.932359	-0.667251	0.882537
C110	C	0.864031	-0.620396	0.820682
H111	H	0.892811	-0.703480	0.930363
H112	H	0.977508	-0.630965	0.920484
H113	H	0.973084	-0.699097	0.838710
H114	H	0.823311	-0.588546	0.864508
H115	H	0.818863	-0.656687	0.782732
C116	C	1.053959	-0.135853	0.181024
C117	C	1.122300	-0.182703	0.242871
H118	H	1.093497	-0.099628	0.133187
H119	H	1.013243	-0.104011	0.224848
H120	H	1.008801	-0.172149	0.143081
H121	H	1.167453	-0.146407	0.280820
H122	H	1.163034	-0.214546	0.199041
H123	H	0.800916	-0.294790	0.390866
