data_functionalizedCrystal
_audit_creation_method	'MofGen! by Chris Wilmer'
_symmetry_space_group_name_H-M	'P1'
_symmetry_Int_Tables_number	1
_symmetry_cell_setting	triclinic
loop_
_symmetry_equiv_pos_as_xyz
  x,y,z
_cell_length_a	21.295417
_cell_length_b	12.759401
_cell_length_c	12.759393
_cell_angle_alpha	90.019465
_cell_angle_beta	89.960780
_cell_angle_gamma	89.971285
loop_
_atom_site_label
_atom_site_type_symbol
_atom_site_fract_x
_atom_site_fract_y
_atom_site_fract_z
Zn1	Zn	-0.250602	-1.606140	-0.593954
Zn2	Zn	-0.355886	-1.605986	-0.418251
Zn3	Zn	-0.250631	-1.430442	-0.418290
Zn4	Zn	-0.355834	-1.430382	-0.593889
O5	O	-0.303238	-1.518237	-0.506096
O6	O	-0.264578	-1.753140	-0.570657
O7	O	-0.341958	-1.582660	-0.271235
O8	O	-0.162538	-1.453838	-0.441636
O9	O	-0.341929	-1.753027	-0.441569
O10	O	-0.162516	-1.582922	-0.570696
O11	O	-0.264628	-1.453689	-0.271264
O12	O	-0.264577	-1.283413	-0.441573
O13	O	-0.341840	-1.453736	-0.740919
O14	O	-0.341869	-1.283369	-0.570585
O15	O	-0.264527	-1.582864	-0.740967
O16	O	-0.443968	-1.582602	-0.441506
O17	O	-0.443930	-1.453586	-0.570547
C18	C	-0.303221	-1.245270	-0.506077
C19	C	-0.303229	-1.128493	-0.506094
C20	C	-0.263023	-1.073691	-0.573413
C21	C	-0.263027	-0.963967	-0.573418
C22	C	-0.343448	-0.963857	-0.438782
C23	C	-0.343440	-1.073579	-0.438773
C24	C	-0.466790	-1.518099	-0.506038
C25	C	-0.536758	-1.518137	-0.506048
C26	C	-0.569624	-1.585375	-0.438926
C27	C	-0.635366	-1.585424	-0.438949
C28	C	-0.668240	-1.518216	-0.506084
C29	C	-0.635367	-1.450974	-0.573220
C30	C	-0.569626	-1.450934	-0.573202
N31	N	-0.771504	-1.426309	-0.514087
N32	N	-0.833955	-1.426350	-0.514099
C33	C	-0.866315	-1.518334	-0.506145
N34	N	-0.833864	-1.610278	-0.498159
N35	N	-0.771407	-1.610236	-0.498142
C36	C	-0.739526	-1.518253	-0.506112
C37	C	-0.970466	-1.585631	-0.439044
C38	C	-1.036210	-1.585682	-0.439075
C39	C	-1.036209	-1.451222	-0.573341
C40	C	-0.970467	-1.451181	-0.573315
C41	C	-0.937599	-1.518384	-0.506161
C42	C	-0.139048	-1.518404	-0.506178
C43	C	-0.069080	-1.518475	-0.506212
C44	C	-0.303175	-1.518310	-0.780130
C45	C	-0.303147	-1.518342	-0.896906
C46	C	-0.303250	-0.792270	-0.506112
C47	C	-0.303240	-0.909047	-0.506109
C48	C	-0.262874	-1.451211	-0.951783
C49	C	-0.262855	-1.451235	-1.061507
C50	C	-0.343384	-1.585531	-1.061468
C51	C	-0.343406	-1.585500	-0.951746
C52	C	-0.303256	-1.518224	-0.233129
C53	C	-0.303106	-1.518397	-0.116353
H54	H	-0.230279	-1.118398	-0.628227
C55	C	-0.218548	-1.377391	-1.121866
N56	N	-0.185172	-1.321770	-1.167328
H57	H	-0.376181	-1.118200	-0.383948
H58	H	-0.376160	-1.640210	-1.106132
C59	C	-0.218800	-0.903689	-0.647478
N60	N	-0.185486	-0.858288	-0.703263
H61	H	-0.376187	-0.919133	-0.383973
H62	H	-0.943704	-1.640355	-0.384366
C63	C	-0.671526	-1.659388	-0.365101
N64	N	-0.698759	-1.715096	-0.309475
C65	C	-0.533473	-1.659289	-0.365043
N66	N	-0.506244	-1.714957	-0.309389
C67	C	-0.671530	-1.377041	-0.647065
N68	N	-0.698768	-1.321354	-0.702689
C69	C	-0.533472	-1.376976	-0.647059
N70	N	-0.506241	-1.321275	-0.702693
C71	C	-1.072362	-1.659652	-0.365230
N72	N	-1.099592	-1.715366	-0.309606
H73	H	-1.062975	-1.396505	-0.628008
H74	H	-0.943706	-1.396425	-0.627968
C75	C	-0.218594	-1.377326	-0.891463
N76	N	-0.185243	-1.321670	-0.846033
H77	H	-0.376203	-1.640169	-0.907064
