data_functionalizedCrystal
_audit_creation_method	'MofGen! by Chris Wilmer'
_symmetry_space_group_name_H-M	'P1'
_symmetry_Int_Tables_number	1
_symmetry_cell_setting	triclinic
loop_
_symmetry_equiv_pos_as_xyz
  x,y,z
_cell_length_a	10.540539
_cell_length_b	23.532407
_cell_length_c	9.016244
_cell_angle_alpha	89.993097
_cell_angle_beta	89.994699
_cell_angle_gamma	83.687085
loop_
_atom_site_label
_atom_site_type_symbol
_atom_site_fract_x
_atom_site_fract_y
_atom_site_fract_z
O1	O	1.683259	0.080251	-0.123287
O2	O	1.313598	0.087813	-0.123307
O3	O	1.509576	0.001174	-0.123270
O4	O	1.487282	0.166890	-0.123325
O5	O	1.509547	0.001176	0.123411
O6	O	1.313570	0.087815	0.123373
O7	O	1.683231	0.080253	0.123393
Cu8	Cu	1.498398	0.084034	0.145907
Cu9	Cu	1.498431	0.084032	-0.145821
O10	O	1.487253	0.166892	0.123356
C11	C	1.266300	0.087246	0.000031
C12	C	1.125407	0.085550	0.000024
C13	C	0.944114	0.020541	0.000622
C14	C	1.090676	0.022261	0.000050
C15	C	1.062751	0.116006	-0.140847
C16	C	0.916278	0.113846	-0.140949
C17	C	0.915715	0.115136	0.139573
C18	C	1.062677	0.115719	0.141419
C19	C	1.508994	-0.020045	0.000075
C20	C	1.507287	-0.083273	0.000086
C21	C	1.612557	-0.481681	0.000010
C22	C	1.610971	-0.541092	-0.000001
O23	O	1.708557	-0.577192	-0.000051
N24	N	1.494462	-0.564488	-0.000006
C25	C	1.379532	-0.528469	-0.000015
O26	O	1.280287	-0.553824	-0.000022
C27	C	1.381119	-0.469060	-0.000015
C28	C	1.497635	-0.445667	0.000006
C29	C	1.729064	-0.458288	0.000029
C30	C	1.730649	-0.398882	0.000043
C31	C	1.615727	-0.362868	0.000038
C32	C	1.499220	-0.386261	0.000020
C33	C	1.266190	-0.433042	-0.000034
C34	C	1.267787	-0.373629	-0.000035
C35	C	1.384303	-0.350237	-0.000014
C36	C	1.385883	-0.290840	0.000029
N37	N	1.502392	-0.267444	0.000035
C38	C	1.617314	-0.303458	0.000039
C39	C	1.376208	-0.653234	-0.000019
C40	C	1.374620	-0.712642	-0.000010
C41	C	1.606059	-0.725261	0.000002
C42	C	1.607646	-0.665851	0.000003
C43	C	1.492717	-0.629838	-0.000014
C44	C	1.620634	-0.178700	0.000070
C45	C	1.622209	-0.119287	0.000090
C46	C	1.390770	-0.106674	0.000071
C47	C	1.389194	-0.166081	0.000059
C48	C	1.504137	-0.202093	0.000053
O49	O	1.288349	-0.254705	0.000073
O50	O	1.716543	-0.278095	0.000026
C51	C	1.730530	0.080819	0.000052
C52	C	1.871422	0.082516	0.000048
C53	C	1.487835	0.188111	0.000008
C54	C	1.489542	0.251339	-0.000013
N55	N	1.498383	0.084035	0.351093
N56	N	1.498456	0.084026	-0.351007
C57	C	1.393236	0.130226	0.586106
C58	C	1.393460	0.130399	0.414215
C59	C	1.630663	0.097553	0.413434
C60	C	1.630086	0.097880	0.585378
C61	C	1.472574	0.024176	0.585655
C62	C	1.469516	0.024564	0.413701
H63	H	1.133225	-0.001874	-0.101092
H64	H	1.294574	0.122217	0.627497
C65	C	1.118971	0.085662	0.282210
H66	H	1.180453	0.054857	0.254952
H67	H	1.052601	0.071404	0.337540
H68	H	1.158622	0.112184	0.340986
C69	C	1.338076	0.010715	0.358664
H70	H	1.321160	-0.025310	0.396914
H71	H	1.337945	0.009437	0.253360
H72	H	1.274024	0.039473	0.391786
C73	C	0.906581	-0.013240	0.137089
H74	H	0.951487	-0.050519	0.135360
H75	H	0.817354	-0.015985	0.135220
H76	H	0.927765	0.005941	0.224886
H77	H	1.717094	-0.100245	0.000111
H78	H	1.825528	-0.379842	0.000053
C79	C	0.849452	0.175331	-0.149646
H80	H	0.911861	0.201517	-0.153111
H81	H	0.797019	0.182981	-0.064711
H82	H	0.798268	0.179428	-0.236519
H83	H	1.297204	-0.077341	0.000073
H84	H	1.409454	0.174378	0.629285
H85	H	1.710792	0.064822	0.372544
C86	C	0.849897	0.176890	0.140841
H87	H	0.795678	0.182788	0.056805
H88	H	0.912740	0.202869	0.137731
H89	H	0.800642	0.183106	0.228756
H90	H	1.279741	-0.731682	-0.000000
H91	H	1.654144	0.140724	0.370343
H92	H	1.541225	-0.011468	0.370740
H93	H	0.884828	0.094655	0.246352
C94	C	0.904433	-0.013100	-0.135064
H95	H	0.948787	-0.050494	-0.133862
H96	H	0.924904	0.005995	-0.223284
H97	H	0.815119	-0.015562	-0.131738
C98	C	1.090893	0.178791	-0.147966
H99	H	1.141231	0.187007	-0.064893
H100	H	1.012835	0.203168	-0.146663
H101	H	1.136005	0.184930	-0.236731
H102	H	1.549314	-0.010211	0.626322
H103	H	1.409902	0.174802	0.373054
H104	H	1.822652	-0.487605	0.000027
H105	H	1.653007	0.141545	0.625454
C106	C	1.149297	-0.010112	0.136466
H107	H	1.083547	-0.024438	0.192729
H108	H	1.191860	0.015162	0.196045
H109	H	1.208634	-0.041043	0.104777
C110	C	1.738974	0.054190	0.641581
H111	H	1.783373	0.036324	0.559324
H112	H	1.704434	0.026063	0.700148
H113	H	1.796309	0.073236	0.699924
C114	C	1.249777	-0.613624	-0.000010
H115	H	1.180170	-0.636070	0.000001
H116	H	1.245580	-0.590179	-0.086028
H117	H	1.245575	-0.590192	0.086029
H118	H	0.888818	0.091335	-0.246237
H119	H	1.174194	-0.344309	-0.000050
C120	C	1.747067	-0.218304	0.000077
H121	H	1.816673	-0.195856	0.000103
H122	H	1.751287	-0.241739	-0.085947
H123	H	1.751250	-0.241746	0.086110
C124	C	1.121223	0.087422	-0.282460
H125	H	1.183801	0.056932	-0.256037
H126	H	1.159898	0.114778	-0.339466
H127	H	1.056033	0.072909	-0.339231
C128	C	1.260595	0.119422	0.357271
H129	H	1.205994	0.114819	0.439225
H130	H	1.267981	0.085709	0.298543
H131	H	1.225824	0.150979	0.298935
H132	H	1.699635	-0.754594	-0.000000
C133	C	1.138020	-0.458761	-0.000069
H134	H	1.069816	-0.428796	-0.000091
H135	H	1.132556	-0.481680	0.085946
H136	H	1.132602	-0.481666	-0.086111
C137	C	1.093350	0.178053	0.152894
H138	H	1.145037	0.186534	0.071232
H139	H	1.137774	0.183055	0.242796
H140	H	1.016154	0.203030	0.151699
C141	C	1.345134	0.006807	0.644284
H142	H	1.306516	0.035898	0.707944
H143	H	1.360408	-0.028037	0.697847
H144	H	1.289838	0.001860	0.563219
C145	C	1.735812	-0.640125	0.000011
H146	H	1.804022	-0.670087	0.000006
H147	H	1.741240	-0.617213	0.086030
H148	H	1.741256	-0.617211	-0.086027
H149	H	1.294317	-0.185128	0.000083
