data_functionalizedCrystal
_audit_creation_method	'MofGen! by Chris Wilmer'
_symmetry_space_group_name_H-M	'P1'
_symmetry_Int_Tables_number	1
_symmetry_cell_setting	triclinic
loop_
_symmetry_equiv_pos_as_xyz
  x,y,z
_cell_length_a	14.044191
_cell_length_b	14.044190
_cell_length_c	13.101039
_cell_angle_alpha	93.663707
_cell_angle_beta	86.337551
_cell_angle_gamma	93.191777
loop_
_atom_site_label
_atom_site_type_symbol
_atom_site_fract_x
_atom_site_fract_y
_atom_site_fract_z
O1	O	1.281983	0.225377	-0.085186
O2	O	1.781983	0.725377	0.414814
O3	O	1.005311	0.217064	-0.085198
O4	O	1.505311	0.717064	0.414802
O5	O	1.139490	0.082885	-0.085172
O6	O	1.639490	0.582885	0.414828
O7	O	1.147805	0.359556	-0.085212
O8	O	1.647805	0.859556	0.414788
O9	O	1.129864	0.092530	0.085256
O10	O	1.629864	0.592530	0.585256
O11	O	0.995685	0.226708	0.085230
O12	O	1.495685	0.726708	0.585230
O13	O	1.272357	0.235022	0.085242
O14	O	1.772357	0.735022	0.585242
Zn15	Zn	1.132493	0.232396	0.112295
Zn16	Zn	1.632493	0.732396	0.612295
Zn17	Zn	1.145175	0.219689	-0.112251
Zn18	Zn	1.645175	0.719689	0.387749
O19	O	1.138179	0.369200	0.085216
O20	O	1.638179	0.869200	0.585216
C21	C	0.964876	0.218249	0.000015
C22	C	1.464876	0.718249	0.500015
C23	C	0.858733	0.207402	0.000011
C24	C	1.358733	0.707402	0.500011
C25	C	0.613276	0.264503	0.000013
C26	C	1.113276	0.764503	0.500013
C27	C	0.664399	0.187587	0.000022
C28	C	1.164399	0.687587	0.500022
C29	C	0.772536	0.198615	0.000016
C30	C	1.272536	0.698615	0.500016
C31	C	0.505129	0.253476	0.000019
C32	C	1.005129	0.753476	0.500019
C33	C	1.131040	0.052086	0.000045
C34	C	1.631040	0.552086	0.500045
C35	C	1.120192	-0.054057	0.000054
C36	C	1.620192	0.445943	0.500054
C37	C	1.177295	-0.299516	0.000016
C38	C	1.677295	0.200484	0.500016
C39	C	1.100378	-0.248393	0.000020
C40	C	1.600378	0.251607	0.500020
C41	C	1.111405	-0.140254	0.000038
C42	C	1.611405	0.359746	0.500038
C43	C	1.166269	-0.407664	-0.000003
C44	C	1.666269	0.092336	0.499997
C45	C	1.312792	0.233836	0.000027
C46	C	1.812792	0.733836	0.500027
C47	C	1.418936	0.244683	0.000024
C48	C	1.918936	0.744683	0.500024
C49	C	1.146629	0.400000	-0.000003
C50	C	1.646629	0.900000	0.499997
C51	C	1.157477	0.506142	-0.000018
C52	C	1.657477	1.006142	0.499982
N53	N	1.123845	0.241069	0.265542
N54	N	1.623845	0.741069	0.765542
N55	N	1.153831	0.211010	-0.265498
N56	N	1.653831	0.711010	0.234502
C57	C	1.112079	0.252876	0.474582
C58	C	1.612079	0.752876	0.974582
C59	C	1.165594	0.199205	0.525469
C60	C	1.665594	0.699205	1.025469
C61	C	1.159047	0.205775	0.641786
C62	C	1.659047	0.705775	1.141786
C63	C	1.118624	0.246307	0.358255
C64	C	1.618624	0.746307	0.858255
H65	H	0.650720	0.338629	-0.000001
H66	H	1.150720	0.838629	0.499999
H67	H	1.216326	0.148323	0.481676
H68	H	1.716326	0.648323	0.981676
H69	H	1.251421	-0.262072	0.000030
H70	H	1.751421	0.237928	0.500030
C71	C	1.044376	0.320577	0.533099
C72	C	1.544376	0.820577	1.033099
C73	C	0.978149	0.268276	0.594730
C74	C	1.478149	0.768276	1.094730
C75	C	0.915779	0.330612	0.648675
C76	C	1.415779	0.830612	1.148675
H77	H	1.011561	0.353421	0.485999
H78	H	1.511561	0.853421	0.985999
H79	H	1.079811	0.365491	0.575003
H80	H	1.579811	0.865491	1.075003
H81	H	0.942718	0.223380	0.552830
H82	H	1.442718	0.723380	1.052830
H83	H	1.010937	0.235435	0.641849
H84	H	1.510937	0.735435	1.141849
H85	H	0.951214	0.375525	0.690579
H86	H	1.451214	0.875525	1.190579
H87	H	0.882972	0.363453	0.601567
H88	H	1.382972	0.863453	1.101567
H89	H	0.870843	0.295136	0.690505
H90	H	1.370843	0.795136	1.190505
C91	C	0.614304	0.088815	-0.000028
C92	C	1.114304	0.588815	0.499972
C93	C	0.515454	0.097365	-0.000056
C94	C	1.015454	0.597365	0.499944
C95	C	0.469273	0.006400	-0.000123
C96	C	0.969273	0.506400	0.499877
H97	H	0.628778	0.058382	0.059387
H98	H	1.128778	0.558382	0.559387
H99	H	0.635548	0.051745	-0.059485
H100	H	1.135548	0.551745	0.440515
H101	H	0.494218	0.134420	0.059395
H102	H	0.994218	0.634420	0.559395
H103	H	0.500952	0.127781	-0.059466
H104	H	1.000952	0.627781	0.440534
H105	H	0.490517	-0.030670	-0.059581
H106	H	0.990517	0.469330	0.440419
H107	H	0.483755	-0.024025	0.059292
H108	H	0.983755	0.475975	0.559292
H109	H	0.402200	0.012188	-0.000152
H110	H	0.902200	0.512188	0.499848
H111	H	1.026246	-0.285839	0.000010
H112	H	1.526246	0.214161	0.500010
