data_functionalizedCrystal
_audit_creation_method	'MofGen! by Chris Wilmer'
_symmetry_space_group_name_H-M	'P1'
_symmetry_Int_Tables_number	1
_symmetry_cell_setting	triclinic
loop_
_symmetry_equiv_pos_as_xyz
  x,y,z
_cell_length_a	16.109301
_cell_length_b	16.109304
_cell_length_c	9.730223
_cell_angle_alpha	90.001479
_cell_angle_beta	90.002159
_cell_angle_gamma	83.462111
loop_
_atom_site_label
_atom_site_type_symbol
_atom_site_fract_x
_atom_site_fract_y
_atom_site_fract_z
O1	O	1.103128	0.106864	-0.114206
O2	O	0.861066	0.120163	-0.114224
O3	O	0.988746	-0.007517	-0.114215
O4	O	0.975449	0.234545	-0.114215
O5	O	0.988744	-0.007514	0.114365
O6	O	0.861065	0.120167	0.114356
O7	O	1.103127	0.106868	0.114374
Zn8	Zn	0.982095	0.113518	0.150657
Zn9	Zn	0.982097	0.113513	-0.150507
O10	O	0.975447	0.234548	0.114365
C11	C	0.830091	0.119626	0.000064
C12	C	0.737795	0.118011	0.000056
C13	C	0.988206	-0.038490	0.000072
C14	C	0.986590	-0.130785	0.000062
C15	C	0.428798	0.188494	0.000080
C16	C	0.515518	0.190020	0.000072
C17	C	0.535390	0.038531	0.000054
C18	C	0.448671	0.037007	0.000052
C19	C	0.395377	0.111991	0.000072
C20	C	0.568816	0.115040	0.000066
C21	C	0.662842	0.116694	0.000057
C22	C	0.301345	0.110338	0.000078
C23	C	0.982857	-0.343124	-0.124532
C24	C	0.981331	-0.429845	-0.124531
C25	C	0.981333	-0.429838	0.124680
C26	C	0.982854	-0.343119	0.124677
C27	C	0.983620	-0.299765	0.000067
C28	C	0.980573	-0.473204	0.000071
C29	C	0.978919	-0.567230	0.000073
C30	C	0.985273	-0.205733	0.000065
C31	C	1.134102	0.107405	0.000084
C32	C	1.226398	0.109020	0.000082
C33	C	0.975987	0.265521	0.000076
C34	C	0.977603	0.357816	0.000076
N35	N	0.982100	0.113520	0.356194
N36	N	0.982099	0.113504	-0.356043
C37	C	1.038651	0.057002	0.428123
C38	C	1.038649	0.056992	0.572006
C39	C	0.925542	0.170025	0.572017
C40	C	0.925541	0.170030	0.428136
C41	C	1.103955	-0.008254	0.428119
C42	C	1.103952	-0.008264	0.572002
H43	H	0.385408	0.249551	0.000096
C44	C	0.594015	-0.043944	0.000051
H45	H	0.650449	-0.032081	0.000068
H46	H	0.583887	-0.075317	-0.079661
H47	H	0.583883	-0.075313	0.079771
C48	C	1.085527	-0.094403	0.375340
H49	H	1.085530	-0.094394	0.277703
H50	H	1.032393	-0.105794	0.407877
H51	H	1.127300	-0.136165	0.407865
C52	C	0.983693	-0.295433	-0.261592
H53	H	0.984716	-0.237576	-0.243753
H54	H	0.934989	-0.303292	-0.312791
H55	H	1.031904	-0.316003	-0.312785
C56	C	0.552282	0.274171	0.000080
H57	H	0.611561	0.264343	0.000062
H58	H	0.533992	0.305042	0.079794
H59	H	0.533982	0.305042	-0.079638
H60	H	1.164140	0.011454	0.383497
C61	C	1.077410	-0.089606	0.632282
H62	H	1.065595	-0.125825	0.559563
H63	H	1.028880	-0.076962	0.687236
H64	H	1.121396	-0.116223	0.687223
C65	C	0.980500	-0.477538	-0.261590
H66	H	0.981181	-0.439296	-0.335797
H67	H	0.931454	-0.505014	-0.266781
H68	H	1.028368	-0.517720	-0.266759
C69	C	1.190090	0.010208	0.624773
H70	H	1.225513	0.017820	0.548839
H71	H	1.214157	-0.035341	0.679002
H72	H	1.183735	0.059556	0.679021
H73	H	0.421460	-0.025296	0.000041
H74	H	0.983470	-0.307814	0.226147
H75	H	0.980711	-0.465148	0.226133
H76	H	0.879493	0.216034	0.630608
C77	C	0.863331	0.232195	0.349018
H78	H	0.829654	0.265852	0.412474
H79	H	0.828737	0.202274	0.292882
H80	H	0.893226	0.266824	0.292899
