data_functionalizedCrystal
_audit_creation_method	'MofGen! by Chris Wilmer'
_symmetry_space_group_name_H-M	'P1'
_symmetry_Int_Tables_number	1
_symmetry_cell_setting	triclinic
loop_
_symmetry_equiv_pos_as_xyz
  x,y,z
_cell_length_a	6.817900
_cell_length_b	11.102289
_cell_length_c	11.102193
_cell_angle_alpha	91.948902
_cell_angle_beta	108.604059
_cell_angle_gamma	108.605707
loop_
_atom_site_label
_atom_site_type_symbol
_atom_site_fract_x
_atom_site_fract_y
_atom_site_fract_z
V1	V	-4.111515	-0.175848	-0.396257
O2	O	-4.070547	0.008441	-0.388714
O3	O	-4.088292	-0.348668	-0.393547
O4	O	-4.088289	-0.173147	-0.569079
O5	O	-4.070550	-0.168295	-0.211967
V6	V	-4.588618	-0.153805	-0.374215
O7	O	-4.386854	-0.224203	-0.444609
O8	O	-4.763475	-0.105450	-0.325863
O9	O	-4.388634	0.019016	-0.376925
O10	O	-4.746982	-0.338094	-0.381758
O11	O	-4.746979	-0.161358	-0.558505
O12	O	-4.388637	-0.156505	-0.201393
C13	C	-3.938603	-0.390798	-0.387296
C14	C	-4.001070	-0.532081	-0.386232
C15	C	-4.214424	-0.604929	-0.392072
C16	C	-4.273112	-0.737681	-0.391083
C17	C	-3.905068	-0.724722	-0.378409
C18	C	-3.846388	-0.591975	-0.379406
C19	C	-4.426910	-0.612411	-0.399384
C20	C	-4.485598	-0.745162	-0.398395
C21	C	-3.938598	-0.166902	-0.611203
C22	C	-4.001058	-0.165837	-0.752485
C23	C	-4.121387	-0.398616	-0.788812
C24	C	-4.210886	-0.514499	-0.873348
C25	C	-4.269572	-0.513492	-1.006094
C26	C	-4.238760	-0.396588	-1.054305
C27	C	-4.149261	-0.280704	-0.969769
C28	C	-4.090574	-0.281724	-0.837022
C29	C	-4.028948	-0.047929	-0.933443
C30	C	-3.970246	-0.048934	-0.800696
C31	C	-3.998135	0.068974	-0.981655
C32	C	-3.908620	0.184861	-0.897118
C33	C	-3.849930	0.183849	-0.764364
C34	C	-3.880746	0.066950	-0.716161
C35	C	-4.201666	0.061139	-0.383173
C36	C	-4.118438	0.202420	-0.384245
C37	C	-4.201670	-0.162755	-0.159263
C38	C	-4.118447	-0.163813	-0.017979
H39	H	-4.617402	-0.803031	-0.492549
H40	H	-4.538772	-0.593192	-0.491813
H41	H	-3.672667	-0.532668	-0.374666
H42	H	-4.426981	-0.559182	-0.309775
C43	C	-4.243638	-0.641414	-0.821017
C44	C	-4.120301	-0.705195	-0.858187
C45	C	-4.150222	-0.822080	-0.809955
H46	H	-4.195664	-0.625462	-0.729856
H47	H	-4.395588	-0.693403	-0.854270
H48	H	-3.968383	-0.653218	-0.824928
H49	H	-4.168251	-0.721180	-0.949340
H50	H	-4.302172	-0.874069	-0.843208
H51	H	-4.102248	-0.806115	-0.718796
H52	H	-4.066560	-0.865375	-0.835177
C53	C	-4.367044	-0.639412	-1.097748
C54	C	-4.562720	-0.715888	-1.082507
C55	C	-4.652558	-0.831900	-1.166906
H56	H	-4.397784	-0.622245	-1.183760
H57	H	-4.264512	-0.683412	-1.079306
H58	H	-4.665231	-0.671898	-1.100958
H59	H	-4.532040	-0.733090	-0.996514
H60	H	-4.550026	-0.875899	-1.148464
H61	H	-4.683284	-0.814720	-1.252912
H62	H	-4.785322	-0.883808	-1.156569
H63	H	-4.073576	-0.399447	-0.680724
C64	C	-4.061828	0.070337	-1.125741
C65	C	-4.015746	0.197512	-1.149867
C66	C	-4.074415	0.198821	-1.282584
H67	H	-3.979658	0.031736	-1.158491
H68	H	-4.215082	0.023572	-1.166653
H69	H	-3.862518	0.244258	-1.108970
H70	H	-4.097910	0.236137	-1.117148
H71	H	-4.227670	0.152056	-1.323497
H72	H	-3.992241	0.160215	-1.315322
H73	H	-4.043176	0.285106	-1.298972
H74	H	-4.536909	-0.770130	-0.311580
C75	C	-3.874746	0.311879	-0.949270
C76	C	-3.650508	0.387867	-0.899904
C77	C	-3.619227	0.504893	-0.947908
H78	H	-3.922342	0.296070	-1.040423
H79	H	-3.958021	0.355539	-0.924143
H80	H	-3.567262	0.344216	-0.925040
H81	H	-3.602863	0.403711	-0.808756
H82	H	-3.702502	0.548553	-0.922781
H83	H	-3.666834	0.489072	-1.039060
H84	H	-3.467085	0.556470	-0.914411
H85	H	-4.286577	-0.395779	-1.162396
H86	H	-3.777066	0.278215	-0.695541
H87	H	-3.832952	0.066115	-0.608074
H88	H	-3.779140	-0.773505	-0.372853
