data_functionalizedCrystal
_audit_creation_method	'MofGen! by Chris Wilmer'
_symmetry_space_group_name_H-M	'P1'
_symmetry_Int_Tables_number	1
_symmetry_cell_setting	triclinic
loop_
_symmetry_equiv_pos_as_xyz
  x,y,z
_cell_length_a	25.639239
_cell_length_b	17.639504
_cell_length_c	25.639234
_cell_angle_alpha	101.235352
_cell_angle_beta	89.978894
_cell_angle_gamma	78.779592
loop_
_atom_site_label
_atom_site_type_symbol
_atom_site_fract_x
_atom_site_fract_y
_atom_site_fract_z
Zn1	Zn	-0.046912	-1.208400	-0.457509
Zn2	Zn	-0.134349	-1.208290	-0.370058
Zn3	Zn	-0.064557	-1.076222	-0.352378
Zn4	Zn	-0.151973	-1.076133	-0.439757
O5	O	-0.099448	-1.142261	-0.404926
O6	O	-0.043751	-1.319010	-0.460737
O7	O	-0.125100	-1.190761	-0.294547
O8	O	0.010960	-1.093839	-0.366354
O9	O	-0.107991	-1.318929	-0.396487
O10	O	0.023924	-1.190949	-0.443593
O11	O	-0.073824	-1.093732	-0.281557
O12	O	-0.090913	-0.965585	-0.349141
O13	O	-0.138027	-1.093688	-0.515278
O14	O	-0.155137	-0.965520	-0.413337
O15	O	-0.060839	-1.190863	-0.528320
O16	O	-0.209863	-1.190676	-0.379274
O17	O	-0.222811	-1.093581	-0.430481
C18	C	-0.126852	-0.936869	-0.377395
C19	C	-0.138589	-0.849001	-0.365629
C20	C	-0.010239	-0.560197	-0.494427
C21	C	-0.021280	-0.477632	-0.483361
C22	C	-0.088062	-0.477570	-0.416362
C23	C	-0.077028	-0.560136	-0.427424
C24	C	-0.038115	-0.601444	-0.466457
C25	C	-0.104905	-0.601383	-0.399454
C26	C	-0.093870	-0.683943	-0.410513
C27	C	-0.054958	-0.725256	-0.449543
C28	C	-0.027080	-0.684003	-0.477516
C29	C	-0.143814	-0.560074	-0.360418
C30	C	-0.171691	-0.601321	-0.332448
C31	C	-0.160659	-0.683882	-0.343510
C32	C	-0.121747	-0.725195	-0.382540
C33	C	-0.188536	-0.725134	-0.315537
C34	C	-0.177501	-0.807694	-0.326596
C35	C	-0.110712	-0.807754	-0.393599
C36	C	-0.235308	-1.142128	-0.404884
C37	C	-0.293420	-1.142144	-0.404893
C38	C	-0.646995	-1.192950	-0.378337
C39	C	-0.701596	-1.192981	-0.378348
O40	O	-0.724079	-1.236040	-0.355724
N41	N	-0.735668	-1.142400	-0.404979
C42	C	-0.715138	-1.091791	-0.431605
O43	O	-0.749133	-1.048771	-0.454258
C44	C	-0.660538	-1.091765	-0.431597
C45	C	-0.626468	-1.142343	-0.404960
C46	C	-0.612926	-1.243525	-0.351702
C47	C	-0.558330	-1.243493	-0.351690
C48	C	-0.537803	-1.192886	-0.378313
C49	C	-0.571872	-1.142311	-0.404948
C50	C	-0.640008	-1.041160	-0.458226
C51	C	-0.585403	-1.041139	-0.458216
C52	C	-0.551334	-1.091717	-0.431578
C53	C	-0.496749	-1.091673	-0.431559
N54	N	-0.462676	-1.142253	-0.404928
C55	C	-0.483203	-1.192860	-0.378305
C56	C	-0.829800	-1.091850	-0.431621
C57	C	-0.884400	-1.091872	-0.431626
C58	C	-0.870854	-1.193063	-0.378370
C59	C	-0.816254	-1.193037	-0.378362
C60	C	-0.795728	-1.142431	-0.404990
C61	C	-0.368547	-1.192789	-0.378282
C62	C	-0.313947	-1.192750	-0.378270
C63	C	-0.327498	-1.091563	-0.431529
C64	C	-0.382093	-1.091598	-0.431538
C65	C	-0.402616	-1.142218	-0.404914
O66	O	-0.474227	-1.048637	-0.454173
O67	O	-0.449201	-1.235880	-0.355661
C68	C	0.036946	-1.142416	-0.404982
C69	C	0.095069	-1.142482	-0.405006
C70	C	-0.099431	-1.142278	-0.541301
C71	C	-0.099423	-1.142285	-0.599416
C72	C	-0.071929	-0.348455	-0.432563
C73	C	-0.060183	-0.436323	-0.444335
C74	C	-0.139542	-1.091738	-0.843820
C75	C	-0.139556	-1.091725	-0.789214
O76	O	-0.173728	-1.048672	-0.755194
N77	N	-0.099377	-1.142315	-0.768694
C78	C	-0.059179	-1.192917	-0.802783
O79	O	-0.025005	-1.235947	-0.780315
C80	C	-0.059164	-1.192927	-0.857388
C81	C	-0.099348	-1.142338	-0.877905
C82	C	-0.179723	-1.041154	-0.864337
C83	C	-0.179710	-1.041169	-0.918940
C84	C	-0.139516	-1.091769	-0.953025
C85	C	-0.099335	-1.142353	-0.932507
C86	C	-0.018965	-1.243524	-0.891475
C87	C	-0.018953	-1.243529	-0.946083
C88	C	-0.059137	-1.192940	-0.966600
C89	C	-0.059128	-1.192968	-1.021195
N90	N	-0.099307	-1.142378	-1.041715
C91	C	-0.139500	-1.091778	-1.007629
C92	C	-0.059214	-1.192893	-0.688109
C93	C	-0.059231	-1.192888	-0.633506
C94	C	-0.139607	-1.091694	-0.619940
C95	C	-0.139592	-1.091704	-0.674545
C96	C	-0.099393	-1.142302	-0.708629
C97	C	-0.139470	-1.091814	-1.122299
C98	C	-0.139454	-1.091836	-1.176908
C99	C	-0.059077	-1.193027	-1.190469
C100	C	-0.059094	-1.193008	-1.135865
C101	C	-0.099293	-1.142395	-1.101781
O102	O	-0.024972	-1.235996	-1.055246
O103	O	-0.173665	-1.048748	-1.030104
C104	C	-0.099421	-1.142290	-0.269087
C105	C	-0.099260	-1.142436	-0.210993
H106	H	-0.045972	-0.792481	-0.458545
H107	H	-0.079027	-0.841389	-0.425386
Br108	Br	-0.396391	-1.261488	-0.342148
Br109	Br	-0.194129	-1.023045	-0.702383
Br110	Br	-0.194158	-1.023024	-0.573672
H111	H	-0.026479	-1.234103	-0.715859
Br112	Br	0.025724	-0.740071	-0.530496
Br113	Br	0.042566	-0.616265	-0.547407
Br114	Br	-0.299628	-1.022888	-0.467661
H115	H	-0.788517	-1.234223	-0.356672
Br116	Br	-0.241336	-0.669065	-0.262558
Br117	Br	-0.224496	-0.545254	-0.279474
Br118	Br	-0.193996	-1.023180	-1.204749
H119	H	-0.026354	-1.234226	-1.218231
H120	H	-0.409834	-1.050415	-0.453230
H121	H	0.001426	-0.444052	-0.506138
H122	H	-0.119743	-0.443926	-0.384579
H123	H	-0.212454	-0.999944	-0.836590
Br124	Br	0.035575	-1.312183	-0.863645
H125	H	-0.172200	-1.050593	-1.094553
H126	H	-0.530593	-1.284681	-0.330002
Br127	Br	-0.267713	-1.261396	-0.342116
H128	H	-0.152786	-0.492849	-0.351403
Br129	Br	-0.930632	-1.023215	-0.467769
Br130	Br	0.035612	-1.312192	-0.992336
Br131	Br	-0.215338	-0.863677	-0.288641
H132	H	-0.887576	-1.234273	-0.356694
Br133	Br	-0.234249	-0.972510	-0.946775
Br134	Br	-0.004700	-1.261560	-0.605671
H135	H	-0.568694	-0.999931	-0.479902
Br136	Br	-0.801950	-1.023159	-0.467759
H137	H	-0.026376	-1.234207	-1.119161
H138	H	-0.667739	-0.999970	-0.479914
Br139	Br	-0.640773	-1.312217	-0.315568
