data_functionalizedCrystal
_audit_creation_method	'MofGen! by Chris Wilmer'
_symmetry_space_group_name_H-M	'P1'
_symmetry_Int_Tables_number	1
_symmetry_cell_setting	triclinic
loop_
_symmetry_equiv_pos_as_xyz
  x,y,z
_cell_length_a	16.992697
_cell_length_b	15.455438
_cell_length_c	16.992695
_cell_angle_alpha	87.143447
_cell_angle_beta	90.668337
_cell_angle_gamma	92.853811
loop_
_atom_site_label
_atom_site_type_symbol
_atom_site_fract_x
_atom_site_fract_y
_atom_site_fract_z
O1	O	-1.047630	0.072005	-0.170139
O2	O	-0.819228	0.072035	-0.168309
O3	O	-0.932514	0.072013	-0.055024
O4	O	-0.934344	0.072027	-0.283424
O5	O	-0.938956	-0.072247	-0.048567
O6	O	-0.825670	-0.072226	-0.161852
O7	O	-1.054072	-0.072255	-0.163683
Cu8	Cu	-0.940459	-0.085413	-0.162178
Cu9	Cu	-0.932841	0.085192	-0.169814
O10	O	-0.940786	-0.072234	-0.276968
C11	C	-0.793089	-0.000092	-0.162725
C12	C	-0.705604	-0.000081	-0.155696
N13	N	-0.945823	-0.205407	-0.156807
C14	C	-0.659613	-0.000077	-0.223515
C15	C	-0.577413	-0.000088	-0.216905
C16	C	-0.541205	-0.000097	-0.142477
C17	C	-0.587202	-0.000104	-0.074654
C18	C	-0.669401	-0.000099	-0.081264
C19	C	-0.295891	-0.000118	-0.115081
C20	C	-0.213686	-0.000120	-0.108476
C21	C	-0.203903	-0.000106	-0.250728
C22	C	-0.286103	-0.000096	-0.257332
C23	C	-0.332094	-0.000107	-0.189508
N24	N	-0.457183	-0.000105	-0.135719
N25	N	-0.416114	-0.000105	-0.196266
C26	C	-0.897685	-0.250813	-0.204914
C27	C	-0.901764	-0.341620	-0.200851
C28	C	-0.953978	-0.387019	-0.148676
C29	C	-1.002121	-0.341606	-0.100567
C30	C	-0.998046	-0.250801	-0.104635
C31	C	-0.971551	-0.658596	-0.131137
C32	C	-0.975621	-0.749407	-0.127071
C33	C	-0.875264	-0.749415	-0.227357
C34	C	-0.871190	-0.658608	-0.231417
C35	C	-0.919336	-0.613203	-0.183311
N36	N	-0.958147	-0.479838	-0.144520
N37	N	-0.915171	-0.520386	-0.187472
C38	C	-0.080211	-0.000123	-0.169266
C39	C	-0.167695	-0.000116	-0.176294
C40	C	-0.933379	-0.000117	-0.022435
C41	C	-0.926350	-0.000116	0.065049
N42	N	-0.927482	0.205186	-0.175178
C43	C	-0.939921	-0.000102	-0.309556
C44	C	-0.946950	-0.000098	-0.397041
C45	C	-0.994169	-0.000125	0.111040
C46	C	-0.987559	-0.000116	0.193241
C47	C	-0.913131	-0.000104	0.229449
C48	C	-0.845307	-0.000091	0.183451
C49	C	-0.851917	-0.000094	0.101252
C50	C	-0.885736	-0.000088	0.474762
C51	C	-0.879131	-0.000088	0.556968
C52	C	-1.021384	-0.000111	0.566752
C53	C	-1.027987	-0.000119	0.484551
C54	C	-0.960163	-0.000102	0.438560
N55	N	-0.906374	-0.000097	0.313471
N56	N	-0.966921	-0.000103	0.354540
H57	H	-0.689087	-0.000069	-0.284122
Br58	Br	-1.036889	-0.596980	-0.065851
Br59	Br	-0.793688	-0.000060	0.412357
Br60	Br	-0.826814	-0.189210	-0.275721
H61	H	-0.315577	-0.000079	-0.317939
H62	H	-0.828673	-0.621646	-0.273902
H63	H	-0.836066	-0.786392	-0.266524
Br64	Br	-0.514999	-0.000080	-0.308948
Br65	Br	-0.358297	-0.000135	-0.023034
H66	H	-1.088594	-0.000129	0.455076
H67	H	-1.018142	-0.786367	-0.084581
H68	H	-0.818520	-0.000092	0.586446
Br69	Br	-1.113425	-0.000134	0.629171
H70	H	-0.784706	-0.000076	0.212938
Br71	Br	-1.072991	-0.403215	-0.029762
H72	H	-0.557716	-0.000123	-0.014052
Br73	Br	-0.731819	-0.000112	0.010779
H74	H	-0.796692	-0.000086	0.063807
H75	H	-0.166449	-0.000099	-0.305946
H76	H	-1.054776	-0.000141	0.081567
Br77	Br	-1.063385	-0.189178	-0.039349
H78	H	-0.862567	-0.378590	-0.240024
H79	H	-1.042784	-0.000126	0.230684
H80	H	-0.184209	-0.000126	-0.047865
