data_functionalizedCrystal
_audit_creation_method	'MofGen! by Chris Wilmer'
_symmetry_space_group_name_H-M	'P1'
_symmetry_Int_Tables_number	1
_symmetry_cell_setting	triclinic
loop_
_symmetry_equiv_pos_as_xyz
  x,y,z
_cell_length_a	23.096457
_cell_length_b	23.096457
_cell_length_c	23.096457
_cell_angle_alpha	90.013252
_cell_angle_beta	60.007119
_cell_angle_gamma	60.005779
loop_
_atom_site_label
_atom_site_type_symbol
_atom_site_fract_x
_atom_site_fract_y
_atom_site_fract_z
Zr1	Zr	0.633731	0.557804	-0.075969
O2	O	0.754511	0.465347	-0.168414
O3	O	0.512950	0.586139	-0.047633
O4	O	0.633734	0.586122	-0.168420
O5	O	0.633725	0.465386	0.047655
O6	O	0.633737	0.681401	-0.168422
O7	O	0.633727	0.465363	-0.047627
O8	O	0.417677	0.681431	0.047644
O9	O	0.849785	0.465356	-0.168410
O10	O	0.562632	0.669339	-0.035546
O11	O	0.562628	0.598250	0.035563
O12	O	0.704836	0.598230	-0.106648
O13	O	0.704832	0.527141	-0.035538
Zr14	Zr	0.633735	0.709799	0.075992
Zr15	Zr	0.633737	0.709763	-0.075972
Zr16	Zr	0.633728	0.557840	0.075994
Zr17	Zr	0.785683	0.557819	-0.075964
Zr18	Zr	0.481782	0.709784	0.075986
O19	O	0.754516	0.681465	0.047656
O20	O	0.754519	0.681413	-0.168417
O21	O	0.754507	0.465398	0.047659
O22	O	0.512955	0.802257	0.168436
O23	O	0.512959	0.802205	-0.047637
O24	O	0.512946	0.586190	0.168440
O25	O	0.633740	0.802217	-0.047633
O26	O	0.633732	0.681481	0.168442
O27	O	0.633728	0.586202	0.168444
O28	O	0.633739	0.802240	0.047649
O29	O	0.849790	0.586144	-0.168412
O30	O	0.417675	0.681460	0.168435
O31	O	0.417680	0.802247	0.168432
O32	O	0.417682	0.802218	0.047641
O33	O	0.849783	0.465385	-0.047619
O34	O	0.849788	0.586172	-0.047621
O35	O	0.562630	0.669373	0.106670
O36	O	0.562634	0.740462	0.035561
O37	O	0.704837	0.669353	-0.035541
O38	O	0.704833	0.598264	0.035568
C39	C	0.443664	0.633783	0.000004
C40	C	0.379156	0.633776	0.000002
C41	C	0.296372	0.686279	0.052488
C42	C	0.235750	0.686284	0.052495
C43	C	0.257918	0.633791	0.000004
C44	C	0.340716	0.581279	-0.052486
C45	C	0.401335	0.581271	-0.052487
N46	N	0.201808	0.617898	-0.062242
N47	N	0.144219	0.617909	-0.062238
C48	C	0.075279	0.633810	0.000006
N49	N	0.066095	0.649712	0.062249
N50	N	0.123688	0.649704	0.062245
C51	C	0.192192	0.633793	0.000000
C52	C	-0.073242	0.686321	0.052503
C53	C	-0.133863	0.686321	0.052510
C54	C	-0.028894	0.581319	-0.052476
C55	C	0.031724	0.581316	-0.052478
C56	C	0.009545	0.633821	0.000012
C57	C	0.633725	0.443723	0.000015
C58	C	0.633723	0.379213	0.000016
C59	C	0.559515	-0.044191	0.037127
C60	C	0.559510	0.016427	0.037125
C61	C	0.633738	0.009623	0.000012
C62	C	0.707976	-0.057808	-0.037117
C63	C	0.707978	-0.118424	-0.037120
N64	N	0.688986	0.077176	0.005166
N65	N	0.688979	0.134761	0.005173
C66	C	0.633734	0.192254	0.000017
N67	N	0.578485	0.189992	-0.005132
N68	N	0.578490	0.132402	-0.005134
C69	C	0.633743	0.075347	0.000011
C70	C	0.559496	0.325403	0.037137
C71	C	0.559494	0.386021	0.037130
C72	C	0.707962	0.311785	-0.037107
C73	C	0.707962	0.251169	-0.037105
C74	C	0.633726	0.257983	0.000021
C75	C	0.823802	0.633821	0.000018
C76	C	0.888309	0.633827	0.000020
C77	C	0.633736	0.633756	-0.190072
C78	C	0.633737	0.633741	-0.254585
C79	C	0.633740	0.823880	0.000008
C80	C	0.633743	0.888391	0.000007
C81	C	0.707963	0.596627	-0.322003
C82	C	0.707965	0.596645	-0.382619
C83	C	0.633735	0.633768	-0.375814
C84	C	0.559499	0.670890	-0.308384
C85	C	0.559500	0.670877	-0.247769
N86	N	0.578481	0.628640	-0.443371
N87	N	0.578485	0.628649	-0.500955
C88	C	0.633728	0.633811	-0.558439
N89	N	0.688979	0.638951	-0.556171
N90	N	0.688977	0.638938	-0.498583
C91	C	0.633726	0.633787	-0.441536
C92	C	0.707961	0.596715	-0.691587
C93	C	0.707959	0.596738	-0.752203
C94	C	0.559491	0.670979	-0.677965
C95	C	0.559495	0.670960	-0.617351
C96	C	0.633732	0.633824	-0.624167
C97	C	0.633730	0.633847	0.190095
C98	C	0.633728	0.633862	0.254607
C99	C	0.443671	0.823861	0.000001
C100	C	0.379166	0.888365	-0.000002
C101	C	0.443661	0.633828	0.190088
C102	C	0.379152	0.633837	0.254598
C103	C	0.443668	0.823906	0.190085
C104	C	0.379162	0.888425	0.254594
C105	C	0.823797	0.443697	-0.190062
C106	C	0.888304	0.379178	-0.254571
C107	C	0.823794	0.443743	0.000021
C108	C	0.888299	0.379238	0.000025
C109	C	0.823805	0.633776	-0.190066
C110	C	0.888314	0.633767	-0.254576
C111	C	0.348873	0.881532	-0.037127
C112	C	0.288272	0.942134	-0.037145
C113	C	0.257961	1.009570	-0.000033
C114	C	0.288260	1.016402	0.037093
C115	C	0.348864	0.955800	0.037106
C116	C	0.348859	0.670966	0.322016
C117	C	0.288254	0.670972	0.382636
C118	C	0.257940	0.633852	0.375837
C119	C	0.288239	0.596717	0.308412
C120	C	0.348847	0.596708	0.247793
C121	C	0.348871	0.955839	0.247770
C122	C	0.288269	1.016468	0.308377
C123	C	0.257955	1.009682	0.375808
C124	C	0.288252	0.942261	0.382631
C125	C	0.348857	0.881634	0.322024
C126	C	0.918602	0.311765	-0.247747
C127	C	0.979223	0.251136	-0.308355
C128	C	1.009540	0.257922	-0.375786
C129	C	0.979239	0.325342	-0.382608
C130	C	0.918624	0.385969	-0.322002
C131	C	0.918599	0.386072	0.037143
C132	C	0.979217	0.325469	0.037144
C133	C	1.009530	0.258033	0.000030
C134	C	0.979228	0.251201	-0.037093
C135	C	0.918615	0.311803	-0.037098
C136	C	0.918609	0.670894	-0.247754
C137	C	0.979214	0.670900	-0.308362
C138	C	1.009526	0.633773	-0.375792
C139	C	0.979225	0.596645	-0.382613
C140	C	0.918618	0.596644	-0.322005
H141	H	0.468745	0.538513	-0.095227
H142	H	0.499063	0.071329	0.067366
H143	H	1.058897	0.208549	-0.425130
H144	H	0.168335	0.729039	0.095237
H145	H	1.058884	0.208693	0.000039
H146	H	0.768400	0.306243	-0.067329
Cl147	Cl	0.466174	0.333966	0.083801
H148	H	1.058877	0.633779	-0.425137
Cl149	Cl	0.801291	-0.066362	-0.083773
Cl150	Cl	1.017341	0.166419	-0.083745
H151	H	0.768413	0.566391	-0.327559
H152	H	0.768405	0.566518	-0.807099
H153	H	-0.091302	0.729071	0.095246
H154	H	0.208613	1.058910	-0.000048
Cl155	Cl	0.250174	0.717661	0.467390
H156	H	1.003932	0.330859	-0.437518
H157	H	0.373521	0.961374	0.067342
H158	H	0.099133	0.538565	-0.095221
H159	H	0.893937	0.701127	-0.192854
H160	H	0.263548	0.566495	0.302886
H161	H	0.208590	0.633865	0.425202
H162	H	0.373534	0.701194	0.327566
H163	H	0.893947	0.306230	-0.067322
H164	H	0.208606	1.059054	0.425152
Cl165	Cl	0.880536	0.470715	-0.330593
Cl166	Cl	0.801285	0.550048	-0.700151
Cl167	Cl	0.880501	0.303215	-0.162985
H168	H	0.263561	0.936747	0.437541
Cl169	Cl	1.017294	0.334074	0.083820
Cl170	Cl	0.386917	0.550031	0.163041
H171	H	0.373544	0.961377	0.192870
H172	H	0.263608	1.071359	0.302809
Cl173	Cl	0.250143	1.101184	0.083749
Cl174	Cl	0.386924	0.796888	0.330615
H175	H	1.003878	0.701133	-0.302795
Cl176	Cl	1.017349	0.549967	-0.467388
Cl177	Cl	1.017299	0.166388	-0.299761
Cl178	Cl	0.880547	0.549956	-0.330594
Cl179	Cl	0.880508	0.470841	0.083803
Cl180	Cl	0.801302	-0.203184	-0.083788
H181	H	0.358761	0.538538	-0.095224
Cl182	Cl	-0.237941	0.752327	0.118504
Cl183	Cl	0.268487	0.752280	0.118480
H184	H	-0.010844	0.538577	-0.095214
Cl185	Cl	0.466170	0.470781	0.083796
Cl186	Cl	0.466190	-0.035622	0.083801
Cl187	Cl	0.466182	0.717562	-0.299827
Cl188	Cl	0.801283	0.166410	-0.083767
H189	H	0.768411	0.566420	-0.437521
H190	H	0.499052	0.701206	-0.672422
Cl191	Cl	0.466179	0.717534	-0.163009
H192	H	0.373552	0.826628	-0.067357
Cl193	Cl	0.466176	0.717606	-0.532592
H194	H	0.263610	0.936558	-0.067377
