data_functionalizedCrystal
_audit_creation_method	'MofGen! by Chris Wilmer'
_symmetry_space_group_name_H-M	'P1'
_symmetry_Int_Tables_number	1
_symmetry_cell_setting	triclinic
loop_
_symmetry_equiv_pos_as_xyz
  x,y,z
_cell_length_a	17.699077
_cell_length_b	17.699083
_cell_length_c	15.186229
_cell_angle_alpha	89.995368
_cell_angle_beta	89.997203
_cell_angle_gamma	83.281795
loop_
_atom_site_label
_atom_site_type_symbol
_atom_site_fract_x
_atom_site_fract_y
_atom_site_fract_z
O1	O	1.004078	0.095689	-0.073219
O2	O	0.783698	0.108146	-0.073223
O3	O	0.900114	-0.008272	-0.073213
O4	O	0.887662	0.212107	-0.073229
O5	O	0.900107	-0.008274	0.073244
O6	O	0.783691	0.108144	0.073234
O7	O	1.004070	0.095687	0.073239
Zn8	Zn	0.893879	0.101915	0.096490
Zn9	Zn	0.893889	0.101918	-0.096474
O10	O	0.887654	0.212105	0.073228
C11	C	0.755498	0.107700	0.000005
C12	C	0.671479	0.106363	0.000003
C13	C	0.632008	0.105732	0.079838
C14	C	0.553065	0.104464	0.079839
C15	C	0.513595	0.103832	0.000005
C16	C	0.553072	0.104460	-0.079836
C17	C	0.632014	0.105723	-0.079837
C18	C	0.234709	0.099367	-0.079838
C19	C	0.155761	0.098107	-0.079831
C20	C	0.155760	0.098108	0.079838
C21	C	0.234702	0.099370	0.079838
C22	C	0.274173	0.099995	-0.000002
C23	C	0.359772	0.101369	-0.000003
C24	C	0.427997	0.102464	0.000004
C25	C	0.899664	-0.036470	0.000016
C26	C	0.898326	-0.120488	0.000016
C27	C	0.966659	-0.169110	0.000019
C28	C	0.965397	-0.248054	0.000011
C29	C	0.895800	-0.278373	0.000007
C30	C	0.827461	-0.229744	0.000001
C31	C	0.828724	-0.150803	0.000003
C32	C	0.822366	-0.548107	-0.000006
C33	C	0.821108	-0.627055	-0.000005
C34	C	0.959039	-0.645358	0.000002
C35	C	0.960302	-0.566417	0.000004
C36	C	0.891963	-0.517795	-0.000006
C37	C	0.893333	-0.432196	0.000001
C38	C	0.894430	-0.363971	0.000006
C39	C	1.032271	0.096133	0.000009
C40	C	1.116289	0.097470	0.000004
C41	C	0.888104	0.240303	-0.000002
C42	C	0.889443	0.324321	-0.000008
N43	N	0.893878	0.101913	0.228182
N44	N	0.893897	0.101914	-0.228167
C45	C	0.945444	0.050381	0.453910
C46	C	0.945446	0.050379	0.546099
C47	C	0.842325	0.153449	0.546099
C48	C	0.842319	0.153446	0.453911
C49	C	0.893883	0.101913	0.407819
C50	C	0.893891	0.101914	0.592197
C51	C	0.893893	0.101912	0.692153
C52	C	0.893880	0.101914	0.307856
H53	H	0.664151	0.106238	-0.144846
O54	O	0.792336	0.203542	0.409037
C55	C	0.832780	0.250192	0.355717
H56	H	0.892057	0.219968	0.341904
H57	H	0.801166	0.262205	0.290892
H58	H	0.837820	0.306125	0.391236
H59	H	0.764431	-0.651737	-0.000006
H60	H	1.016974	-0.541735	0.000011
H61	H	0.123614	0.097596	0.144848
H62	H	0.123627	0.097591	-0.144846
O63	O	0.792271	0.203612	0.590776
C64	C	0.804444	0.278520	0.568252
H65	H	0.833615	0.278386	0.501314
H66	H	0.747484	0.315866	0.565097
H67	H	0.842073	0.301881	0.620129
H68	H	0.520932	0.103937	0.144849
O69	O	0.670233	0.106309	0.157470
C70	C	0.618460	0.105498	0.227934
H71	H	0.565368	0.080647	0.204528
H72	H	0.646141	0.069129	0.283772
H73	H	0.602007	0.166059	0.252480
H74	H	0.773080	-0.111214	0.000001
O75	O	1.025355	-0.692699	-0.000037
C76	C	1.009323	-0.768877	-0.000022
H77	H	0.949882	-0.771792	-0.027754
H78	H	1.052894	-0.804719	-0.042541
H79	H	1.012228	-0.791721	0.070240
H80	H	0.266834	0.099889	0.144848
H81	H	0.266837	0.099873	-0.144849
H82	H	0.520930	0.103941	-0.144839
H83	H	0.987429	0.008419	0.416383
H84	H	0.766721	-0.508528	-0.000014
H85	H	1.023333	-0.144431	0.000028
O86	O	0.759921	-0.259320	0.000036
C87	C	0.773457	-0.339422	0.000016
H88	H	0.832554	-0.358073	0.027746
H89	H	0.728929	-0.363580	0.042536
H90	H	0.769833	-0.361387	-0.070246
O91	O	0.995461	0.000351	0.591008
C92	C	0.984424	0.011411	0.682260
H93	H	0.924200	0.039775	0.694856
H94	H	0.992954	-0.045919	0.717300
H95	H	1.027190	0.049318	0.708413
H96	H	1.021041	-0.287639	0.000015
