data_functionalizedCrystal
_audit_creation_method	'MofGen! by Chris Wilmer'
_symmetry_space_group_name_H-M	'P1'
_symmetry_Int_Tables_number	1
_symmetry_cell_setting	triclinic
loop_
_symmetry_equiv_pos_as_xyz
  x,y,z
_cell_length_a	27.731994
_cell_length_b	27.731993
_cell_length_c	26.809956
_cell_angle_alpha	90.002784
_cell_angle_beta	89.987196
_cell_angle_gamma	97.379399
loop_
_atom_site_label
_atom_site_type_symbol
_atom_site_fract_x
_atom_site_fract_y
_atom_site_fract_z
O1	O	-0.057386	0.640937	-0.041337
O2	O	-0.066159	0.500138	-0.041366
O3	O	0.008627	0.574924	-0.041358
O4	O	-0.132172	0.566151	-0.041345
O5	O	0.008615	0.574910	0.041601
O6	O	-0.066171	0.500124	0.041593
O7	O	-0.057398	0.640923	0.041622
Zn8	Zn	-0.061786	0.570521	0.054779
Zn9	Zn	-0.061771	0.570540	-0.054523
O10	O	-0.132184	0.566137	0.041615
C11	C	-0.065985	0.482124	0.000110
C12	C	-0.065443	0.428468	0.000098
C13	C	-0.061506	0.045316	-0.045099
C14	C	-0.063573	0.246973	-0.045112
O15	O	-0.063815	0.273053	-0.083572
N16	N	-0.063838	0.272186	0.000108
C17	C	-0.063583	0.246981	0.045334
O18	O	-0.063850	0.273054	0.083797
C19	C	-0.061512	0.045326	0.045347
C20	C	-0.061252	0.020115	0.000124
C21	C	-0.061245	0.020105	-0.090318
C22	C	-0.060731	-0.030306	-0.090315
C23	C	-0.060478	-0.055507	-0.045091
C24	C	-0.060738	-0.030297	0.000128
C25	C	-0.061253	0.020123	0.090573
C26	C	-0.060735	-0.030294	0.090572
C27	C	-0.060475	-0.055505	0.045349
C28	C	-0.059970	-0.105909	0.045355
N29	N	-0.059705	-0.131122	0.000135
C30	C	-0.059959	-0.105921	-0.045088
C31	C	-0.064671	0.352853	0.045324
C32	C	-0.065189	0.403267	0.045321
C33	C	-0.065178	0.403255	-0.045126
C34	C	-0.064663	0.352840	-0.045122
C35	C	-0.064406	0.327641	0.000104
C36	C	-0.058880	-0.211789	-0.045077
C37	C	-0.058368	-0.262205	-0.045069
C38	C	-0.058376	-0.262189	0.045377
C39	C	-0.058891	-0.211777	0.045370
C40	C	-0.059141	-0.186578	0.000139
O41	O	-0.059722	-0.132019	0.083794
O42	O	-0.059681	-0.132001	-0.083545
C43	C	-0.062020	0.095728	-0.045103
C44	C	-0.062280	0.120938	0.000117
C45	C	-0.062027	0.095737	0.045340
C46	C	-0.062799	0.171352	0.000113
C47	C	-0.063052	0.196553	-0.045110
C48	C	-0.062788	0.171340	-0.090330
C49	C	-0.062274	0.120929	-0.090326
C50	C	-0.062292	0.120950	0.090560
C51	C	-0.062806	0.171361	0.090552
C52	C	-0.063060	0.196562	0.045329
C53	C	-0.150185	0.566324	0.000137
C54	C	-0.203841	0.566867	0.000143
C55	C	-0.536553	0.570290	-0.045100
C56	C	-0.738211	0.572352	-0.045107
O57	O	-0.764278	0.572646	-0.083566
N58	N	-0.763432	0.572600	0.000114
C59	C	-0.738235	0.572336	0.045340
O60	O	-0.764313	0.572600	0.083803
C61	C	-0.536578	0.570278	0.045346
C62	C	-0.511360	0.570025	0.000123
C63	C	-0.511335	0.570038	-0.090320
C64	C	-0.460924	0.569520	-0.090318
C65	C	-0.435731	0.569254	-0.045095
C66	C	-0.460949	0.569507	0.000125
C67	C	-0.511381	0.570018	0.090572
C68	C	-0.460963	0.569504	0.090569
C69	C	-0.435746	0.569251	0.045345
C70	C	-0.385345	0.568724	0.045349
N71	N	-0.360124	0.568475	0.000128
C72	C	-0.385317	0.568741	-0.045094
C73	C	-0.844108	0.573416	0.045333
C74	C	-0.894522	0.573929	0.045332
C75	C	-0.894495	0.573946	-0.045115
C76	C	-0.844080	0.573429	-0.045113
C77	C	-0.818887	0.573167	0.000113
C78	C	-0.279450	0.567652	-0.045086
C79	C	-0.229035	0.567132	-0.045080
C80	C	-0.229066	0.567118	0.045367
C81	C	-0.279478	0.567636	0.045361
C82	C	-0.304668	0.567904	0.000131
O83	O	-0.359246	0.568435	0.083788
O84	O	-0.359228	0.568488	-0.083551
C85	C	-0.586964	0.570808	-0.045102
C86	C	-0.612182	0.571061	0.000118
C87	C	-0.586989	0.570796	0.045341
C88	C	-0.662596	0.571574	0.000117
C89	C	-0.687789	0.571840	-0.045106
C90	C	-0.662568	0.571591	-0.090327
C91	C	-0.612157	0.571073	-0.090324
C92	C	-0.612210	0.571044	0.090561
C93	C	-0.662621	0.571561	0.090556
C94	C	-0.687814	0.571827	0.045333
C95	C	0.026628	0.574737	0.000119
C96	C	0.080285	0.574195	0.000110
C97	C	-0.057572	0.658938	0.000146
C98	C	-0.058114	0.712594	0.000154
N99	N	-0.061796	0.570512	0.129375
N100	N	-0.061757	0.570553	-0.129119
C101	C	-0.028664	0.603651	0.474005
C102	C	-0.028656	0.603662	0.682883
O103	O	-0.000489	0.631818	0.709890
N104	N	-0.061760	0.570543	0.709003
C105	C	-0.094866	0.537416	0.682900
O106	O	-0.123020	0.509242	0.709909
C107	C	-0.094871	0.537402	0.474023
C108	C	-0.061768	0.570527	0.447906
C109	C	0.004437	0.636773	0.447888
C110	C	0.004433	0.636772	0.395672
C111	C	-0.028672	0.603648	0.369572
C112	C	-0.061772	0.570526	0.395690
C113	C	-0.127974	0.504273	0.447921
C114	C	-0.127972	0.504272	0.395699
C115	C	-0.094869	0.537397	0.369582
C116	C	-0.094881	0.537401	0.317374
N117	N	-0.061777	0.570521	0.291254
C118	C	-0.028672	0.603644	0.317353
C119	C	-0.094862	0.537426	0.792563
C120	C	-0.094862	0.537430	0.844782
C121	C	-0.028651	0.603676	0.844761
C122	C	-0.028654	0.603674	0.792541
C123	C	-0.061758	0.570545	0.766443
C124	C	-0.028683	0.603639	0.207695
C125	C	-0.028692	0.603636	0.155475
C126	C	-0.094900	0.537388	0.155500
C127	C	-0.094894	0.537393	0.207716
C128	C	-0.061781	0.570520	0.233813
O129	O	-0.123029	0.509256	0.290335
O130	O	-0.000516	0.631806	0.290335
C131	C	-0.028660	0.603652	0.526221
C132	C	-0.061760	0.570530	0.552338
C133	C	-0.094865	0.537407	0.526239
C134	C	-0.061760	0.570534	0.604557
C135	C	-0.028655	0.603658	0.630657
C136	C	0.004448	0.636777	0.604537
C137	C	0.004445	0.636776	0.552320
C138	C	-0.127969	0.504287	0.552359
C139	C	-0.127962	0.504292	0.604576
C140	C	-0.094858	0.537415	0.630675
H141	H	-0.064452	0.332317	-0.081947
H142	H	-0.001699	0.630647	0.771280
F143	F	0.006581	0.638928	0.872547
H144	H	-0.121822	0.510461	0.866043
F145	F	-0.130099	0.502165	0.764792
H146	H	-0.060517	-0.050828	-0.127140
F147	F	-0.689390	0.571873	-0.138456
F148	F	-0.921357	0.574188	0.093465
F149	F	-0.202246	0.566832	0.093493
H150	H	-0.440454	0.569292	0.127398
F151	F	-0.817302	0.573136	0.093472
F152	F	-0.163206	0.469010	0.367927
H153	H	0.031389	0.663744	0.374410
H154	H	-0.061450	0.040619	-0.127147
F155	F	-0.306252	0.567938	-0.093225
F156	F	-0.163200	0.469035	0.632366
H157	H	0.031396	0.663746	0.469133
F158	F	-0.065475	0.430091	0.093454
H159	H	-0.154926	0.477313	0.531113
F160	F	-0.306317	0.567903	0.093493
F161	F	-0.058108	-0.289019	0.093505
H162	H	-0.531842	0.570255	-0.127147
H163	H	-0.591629	0.570867	-0.127150
H164	H	-0.060529	-0.050810	0.127402
F165	F	-0.130132	0.502138	0.127715
H166	H	-0.208505	0.566924	-0.081908
F167	F	-0.163206	0.469016	0.475708
H168	H	-0.531904	0.570229	0.127398
H169	H	-0.591702	0.570829	0.127388
H170	H	-0.683150	0.571763	0.127385
H171	H	-0.001735	0.630612	0.134212
H172	H	-0.062997	0.191867	-0.127152
H173	H	0.031402	0.663750	0.625795
H174	H	-0.001720	0.630614	0.228937
H175	H	-0.058158	-0.282730	-0.081897
H176	H	0.031400	0.663749	0.531060
H177	H	-0.059084	-0.191278	-0.081909
H178	H	-0.064459	0.332340	0.082155
F179	F	-0.065450	0.430084	-0.093256
H180	H	-0.062062	0.100407	-0.127151
F181	F	-0.130131	0.502142	0.235511
F182	F	-0.061530	0.046943	0.138707
F183	F	-0.062025	0.094135	0.138695
H184	H	-0.059112	-0.191251	0.082194
H185	H	-0.063022	0.191883	0.127381
H186	H	-0.440396	0.569317	-0.127144
H187	H	-0.823551	0.573221	-0.081938
H188	H	-0.915016	0.574158	-0.081937
