data_functionalizedCrystal
_audit_creation_method	'MofGen! by Chris Wilmer'
_symmetry_space_group_name_H-M	'P1'
_symmetry_Int_Tables_number	1
_symmetry_cell_setting	triclinic
loop_
_symmetry_equiv_pos_as_xyz
  x,y,z
_cell_length_a	16.109301
_cell_length_b	11.026607
_cell_length_c	15.186229
_cell_angle_alpha	89.998222
_cell_angle_beta	89.999362
_cell_angle_gamma	96.023749
loop_
_atom_site_label
_atom_site_type_symbol
_atom_site_fract_x
_atom_site_fract_y
_atom_site_fract_z
O1	O	1.126503	0.155971	-0.073169
O2	O	0.887350	0.175382	-0.073183
O3	O	0.987106	-0.010969	-0.073174
O4	O	1.026747	0.342322	-0.073178
O5	O	0.987097	-0.010971	0.073283
O6	O	0.887341	0.175379	0.073274
O7	O	1.126494	0.155969	0.073288
Zn8	Zn	1.006916	0.165674	0.096534
Zn9	Zn	1.006928	0.165677	-0.096429
O10	O	1.026738	0.342319	0.073279
C11	C	0.856253	0.174594	0.000044
C12	C	0.763604	0.172237	0.000039
C13	C	0.979788	-0.056178	0.000053
C14	C	0.957987	-0.190883	0.000049
C15	C	0.557080	0.277333	0.000048
C16	C	0.470027	0.275108	0.000053
C17	C	0.456769	0.054010	0.000052
C18	C	0.543821	0.056235	0.000053
C19	C	0.593975	0.167900	0.000046
C20	C	0.419869	0.163450	0.000051
C21	C	0.325481	0.161038	0.000057
C22	C	0.688369	0.170314	0.000042
C23	C	1.018183	-0.264713	0.000051
C24	C	0.995652	-0.403938	0.000046
C25	C	1.157591	0.156756	0.000059
C26	C	1.250240	0.159114	0.000059
C27	C	1.034056	0.387529	0.000050
C28	C	1.055857	0.522234	0.000049
N29	N	1.006914	0.165670	0.228227
N30	N	1.006935	0.165671	-0.228122
C31	C	1.051109	0.083182	0.453954
C32	C	1.051112	0.083179	0.546144
C33	C	0.962734	0.248163	0.546145
C34	C	0.962728	0.248159	0.453957
C35	C	1.006920	0.165670	0.407864
C36	C	1.006929	0.165671	0.592241
C37	C	1.006931	0.165669	0.692198
C38	C	1.006917	0.165671	0.307901
H39	H	0.597913	0.368257	0.000049
C40	C	0.923479	0.321409	0.312637
C41	C	0.914154	0.338839	0.403286
H42	H	0.893488	0.377383	0.281357
H43	H	0.980933	0.334610	0.297531
H44	H	0.902326	0.240415	0.297545
H45	H	0.935313	0.419831	0.418379
H46	H	0.856689	0.325648	0.418398
C47	C	1.068463	-0.126878	0.425626
C48	C	1.099670	-0.007526	0.403309
H49	H	1.098438	-0.182887	0.394364
H50	H	1.074784	-0.138642	0.487123
H51	H	1.011002	-0.140050	0.410511
H52	H	1.157130	0.005649	0.418431
H53	H	1.093356	0.004243	0.341798
C54	C	0.875366	0.411228	0.536886
C55	C	0.914160	0.338833	0.596812
H56	H	0.845374	0.467198	0.568166
H57	H	0.916502	0.454892	0.500927
H58	H	0.837901	0.360686	0.500931
H59	H	0.951629	0.389374	0.632763
H60	H	0.873019	0.295165	0.632786
C61	C	0.491881	0.493874	0.000041
C62	C	0.429472	0.395400	0.000049
H63	H	0.466843	0.568139	0.000033
H64	H	0.525557	0.490144	0.051110
H65	H	0.525559	0.490132	-0.051036
H66	H	0.395798	0.399137	0.051130
H67	H	0.395782	0.399132	-0.051026
C68	C	0.559336	-0.131531	-0.075243
C69	C	0.584384	-0.064061	0.000048
H70	H	0.584383	-0.205788	-0.075245
H71	H	0.500321	-0.148839	-0.075238
H72	H	0.576332	-0.085726	-0.126309
H73	H	0.567382	-0.109863	0.051114
H74	H	0.643411	-0.046756	0.000050
C75	C	0.826249	-0.205400	0.075324
C76	C	0.865894	-0.244681	0.000040
H77	H	0.769392	-0.238605	0.075313
H78	H	0.853142	-0.232057	0.126389
H79	H	0.829316	-0.118894	0.075319
H80	H	0.862833	-0.331186	0.000049
H81	H	0.838994	-0.218031	-0.051038
C82	C	0.418659	-0.135135	0.075337
C83	C	0.401638	-0.068729	0.000050
H84	H	0.384620	-0.210907	0.075334
H85	H	0.475778	-0.149468	0.075333
H86	H	0.407108	-0.090072	0.126405
H87	H	0.413195	-0.113788	-0.051018
H88	H	0.344506	-0.054400	0.000046
C89	C	1.114769	-0.083403	0.000066
C90	C	1.110275	-0.210911	0.000061
H91	H	1.171625	-0.050193	0.000078
H92	H	1.087880	-0.056764	-0.051006
H93	H	1.087862	-0.056777	0.051140
H94	H	1.137178	-0.237537	-0.051017
H95	H	1.137176	-0.237560	0.051138
C96	C	0.863926	-0.418442	-0.075255
C97	C	0.903556	-0.457736	0.000036
H98	H	0.807072	-0.451663	-0.075263
H99	H	0.866984	-0.331949	-0.075244
H100	H	0.890838	-0.445086	-0.126320
H101	H	0.876647	-0.431084	0.051102
H102	H	0.900492	-0.544247	0.000033
C103	C	1.187596	-0.463255	-0.075232
C104	C	1.147954	-0.423973	0.000054
H105	H	1.244450	-0.430038	-0.075230
H106	H	1.184534	-0.549748	-0.075226
H107	H	1.160693	-0.436598	-0.126301
H108	H	1.174853	-0.450638	0.051123
H109	H	1.151021	-0.337461	0.000056
C110	C	1.044450	-0.081963	0.649812
C111	C	1.099687	-0.007493	0.596805
H112	H	1.074440	-0.137948	0.681083
H113	H	1.018143	-0.032838	0.690456
H114	H	1.003312	-0.125622	0.613842
H115	H	1.140822	0.036173	0.632776
H116	H	1.126007	-0.056624	0.556156
