data_functionalizedCrystal
_audit_creation_method	'MofGen! by Chris Wilmer'
_symmetry_space_group_name_H-M	'P1'
_symmetry_Int_Tables_number	1
_symmetry_cell_setting	triclinic
loop_
_symmetry_equiv_pos_as_xyz
  x,y,z
_cell_length_a	13.262390
_cell_length_b	17.019294
_cell_length_c	12.376457
_cell_angle_alpha	97.480483
_cell_angle_beta	63.168449
_cell_angle_gamma	82.863057
loop_
_atom_site_label
_atom_site_type_symbol
_atom_site_fract_x
_atom_site_fract_y
_atom_site_fract_z
O1	O	1.512742	0.016462	-0.560714
O2	O	1.186179	0.043669	-0.462959
O3	O	1.356054	-0.083296	-0.502823
O4	O	1.342868	0.143427	-0.520850
O5	O	1.313600	-0.051596	-0.304846
O6	O	1.143725	0.075369	-0.264982
O7	O	1.470288	0.048162	-0.362736
Zn8	Zn	1.300266	0.066798	-0.282426
Zn9	Zn	1.356201	0.025032	-0.543270
O10	O	1.300414	0.175127	-0.322872
C11	C	1.123120	0.060909	-0.351244
C12	C	0.998474	0.065043	-0.313324
C13	C	0.739696	0.007563	-0.638120
C14	C	0.856809	0.003675	-0.673750
C15	C	0.892231	0.019017	-0.583646
C16	C	0.810529	0.038247	-0.457907
C17	C	0.693406	0.042129	-0.422273
C18	C	0.845941	0.053583	-0.367799
C19	C	0.764239	0.072813	-0.242060
C20	C	0.647128	0.076694	-0.206432
C21	C	0.611706	0.061353	-0.296535
C22	C	0.963064	0.049701	-0.403433
C23	C	0.916774	0.084267	-0.187586
C24	C	0.799661	0.088154	-0.151956
C25	C	1.333490	-0.096321	-0.400614
C26	C	1.329492	-0.182361	-0.391012
C27	C	1.350758	-0.240057	-0.494419
C28	C	1.346994	-0.320899	-0.485392
C29	C	1.321971	-0.344043	-0.372959
C30	C	1.300700	-0.286339	-0.269543
C31	C	1.304457	-0.205498	-0.278569
C32	C	1.309463	-0.587265	-0.340304
C33	C	1.305712	-0.668113	-0.331287
C34	C	1.352004	-0.702667	-0.547136
C35	C	1.355765	-0.621824	-0.556154
C36	C	1.334488	-0.564127	-0.452737
C37	C	1.318126	-0.426676	-0.363730
C38	C	1.338325	-0.481494	-0.461965
C39	C	1.533348	0.030921	-0.474454
C40	C	1.657996	0.026787	-0.512382
C41	C	1.322978	0.188152	-0.425085
C42	C	1.326978	0.274190	-0.434694
N43	N	1.262100	0.095302	-0.104409
N44	N	1.394376	-0.003477	-0.721289
C45	C	1.482972	-0.069658	0.198733
C46	C	1.509678	-0.089607	0.074125
C47	C	1.447785	-0.043382	0.029485
C48	C	1.359183	0.022797	0.109466
C49	C	1.332480	0.042752	0.234084
C50	C	1.297294	0.069028	0.064836
C51	C	1.208691	0.135206	0.144817
C52	C	1.181992	0.155158	0.269423
C53	C	1.243884	0.108932	0.314062
C54	C	1.323997	0.049073	-0.059782
C55	C	1.173505	0.161482	-0.024431
C56	C	1.146798	0.181432	0.100177
H57	H	1.371140	-0.221222	-0.585976
F58	F	0.712696	0.108620	-0.018138
H59	H	1.358690	-0.462645	-0.553505
F60	F	1.052503	0.251863	0.185311
H61	H	1.123108	0.199125	-0.060775
H62	H	0.923323	-0.011986	-0.776127
F63	F	1.369629	-0.382302	-0.595453
F64	F	0.954466	0.100590	-0.091684
H65	H	1.376142	-0.602988	-0.647710
F66	F	1.291491	-0.451315	-0.244072
H67	H	1.369324	-0.749652	-0.631332
F68	F	1.418291	-0.021357	-0.144889
H69	H	1.109855	0.209050	0.334541
H70	H	1.533363	-0.107285	0.235086
F71	F	1.476209	-0.064616	-0.103134
H72	H	1.029575	0.034045	-0.505811
H73	H	1.222138	0.125173	0.415529
H74	H	0.987590	0.015851	-0.612664
H75	H	0.580610	0.092338	-0.104046
H76	H	1.285329	-0.686952	-0.239724
H77	H	1.292161	-0.540299	-0.256101
H78	H	1.280319	-0.305188	-0.177996
F79	F	1.603971	-0.160035	-0.010992
H80	H	0.710844	-0.004934	-0.711468
F81	F	0.487060	0.065494	-0.258621
H82	H	1.287124	-0.158519	-0.194359
