data_functionalizedCrystal
_audit_creation_method	'MofGen! by Chris Wilmer'
_symmetry_space_group_name_H-M	'P1'
_symmetry_Int_Tables_number	1
_symmetry_cell_setting	triclinic
loop_
_symmetry_equiv_pos_as_xyz
  x,y,z
_cell_length_a	10.540535
_cell_length_b	10.540539
_cell_length_c	16.176319
_cell_angle_alpha	89.995366
_cell_angle_beta	89.994990
_cell_angle_gamma	84.524567
loop_
_atom_site_label
_atom_site_type_symbol
_atom_site_fract_x
_atom_site_fract_y
_atom_site_fract_z
O1	O	1.685896	0.178876	-0.068697
O2	O	2.185896	0.678876	0.431303
O3	O	1.316482	0.195738	-0.068708
O4	O	1.816482	0.695738	0.431292
O5	O	1.509617	0.002601	-0.068701
O6	O	2.009617	0.502601	0.431299
O7	O	1.492761	0.372014	-0.068704
O8	O	1.992761	0.872014	0.431296
O9	O	1.509590	0.002588	0.068792
O10	O	2.009590	0.502588	0.568792
O11	O	1.316455	0.195726	0.068785
O12	O	1.816455	0.695726	0.568785
O13	O	1.685869	0.178864	0.068796
O14	O	2.185869	0.678864	0.568796
Cu15	Cu	1.501159	0.187293	0.081345
Cu16	Cu	2.001159	0.687293	0.581345
Cu17	Cu	1.501191	0.187308	-0.081257
Cu18	Cu	2.001191	0.687308	0.418743
O19	O	1.492734	0.372001	0.068789
O20	O	1.992734	0.872001	0.568789
C21	C	1.269165	0.194469	0.000037
C22	C	1.769165	0.694469	0.500037
C23	C	1.128217	0.190689	0.000032
C24	C	1.628217	0.690689	0.500032
C25	C	1.091546	0.049675	0.000037
C26	C	1.591546	0.549675	0.500037
C27	C	0.944946	0.045698	0.000357
C28	C	1.444946	0.545698	0.500357
C29	C	0.918866	0.255052	0.078404
C30	C	1.418866	0.755052	0.578404
C31	C	1.065631	0.258053	0.078462
C32	C	1.565631	0.758053	0.578462
C33	C	1.065546	0.260119	-0.077899
C34	C	1.565546	0.760119	0.422101
C35	C	0.919200	0.253597	-0.078921
C36	C	1.419200	0.753597	0.421079
C37	C	1.508339	-0.044709	0.000044
C38	C	2.008339	0.455291	0.500044
C39	C	1.504557	-0.185657	0.000039
C40	C	2.004557	0.314343	0.500039
C41	C	1.359640	-0.369081	-0.000274
C42	C	1.859640	0.130919	0.499726
C43	C	1.363474	-0.222463	0.000036
C44	C	1.863474	0.277537	0.500036
C45	C	1.572438	-0.247323	0.078557
C46	C	2.072438	0.252677	0.578557
C47	C	1.567623	-0.393867	0.078623
C48	C	2.067623	0.106133	0.578623
C49	C	1.570523	-0.394371	-0.077733
C50	C	2.070523	0.105629	0.422267
C51	C	1.571822	-0.247389	-0.078771
C52	C	2.071822	0.252611	0.421229
C53	C	1.733185	0.180133	0.000049
C54	C	2.233185	0.680133	0.500049
C55	C	1.874134	0.183913	0.000048
C56	C	2.374134	0.683913	0.500048
C57	C	1.494011	0.419311	0.000042
C58	C	1.994011	0.919311	0.500042
C59	C	1.497793	0.560259	0.000041
C60	C	1.997793	1.060259	0.500041
N61	N	1.501146	0.187282	0.195710
N62	N	2.001146	0.687282	0.695710
N63	N	1.501214	0.187310	-0.195622
N64	N	2.001214	0.687310	0.304378
C65	C	1.586693	0.101796	0.238977
C66	C	2.086693	0.601796	0.738977
C67	C	1.586699	0.101795	0.325524
C68	C	2.086699	0.601795	0.825524
C69	C	1.501164	0.187287	0.368803
C70	C	2.001164	0.687287	0.868803
C71	C	1.415609	0.272777	0.325529
C72	C	1.915609	0.772777	0.825529
C73	C	1.415597	0.272771	0.238984
C74	C	1.915597	0.772771	0.738984
C75	C	1.415652	0.272801	0.674558
C76	C	1.915652	0.772801	1.174558
C77	C	1.415673	0.272803	0.761109
C78	C	1.915673	0.772803	1.261109
C79	C	1.586754	0.101825	0.761098
C80	C	2.086754	0.601825	1.261098
C81	C	1.586743	0.101819	0.674553
C82	C	2.086743	0.601819	1.174553
C83	C	1.501183	0.187304	0.631287
C84	C	2.001183	0.687304	1.131287
C85	C	1.501176	0.187303	0.537443
C86	C	2.001176	0.687303	1.037443
C87	C	1.501177	0.187295	0.462645
C88	C	2.001177	0.687295	0.962645
H89	H	0.915619	-0.009938	-0.055801
H90	H	1.415619	0.490062	0.444199
F91	F	1.510846	-0.435591	-0.155519
F92	F	2.010846	0.064409	0.344481
F93	F	1.677739	0.010809	0.192925
F94	F	2.177739	0.510809	0.692925
H95	H	1.310061	-0.179854	-0.056249
H96	H	1.810061	0.320146	0.443751
F97	F	1.121055	0.202611	-0.155556
F98	F	1.621055	0.702611	0.344444
F99	F	1.677745	0.010810	0.371573
F100	F	2.177745	0.510810	0.871573
F101	F	1.324543	0.363753	0.192937
F102	F	1.824543	0.863753	0.692937
H103	H	1.676045	-0.224971	0.081479
H104	H	2.176045	0.275029	0.581479
F105	F	1.507413	-0.193382	-0.154704
F106	F	2.007413	0.306618	0.345296
H107	H	1.345958	0.342381	0.360771
H108	H	1.845958	0.842381	0.860771
H109	H	1.656397	0.032209	0.639318
H110	H	2.156397	0.532209	1.139318
F111	F	0.907733	-0.026659	0.074218
F112	F	1.407733	0.473341	0.574218
F113	F	1.677812	0.010839	0.807151
F114	F	2.177812	0.510839	1.307151
F115	F	1.286886	-0.408998	0.072705
F116	F	1.786886	0.091002	0.572705
F117	F	1.324598	0.363782	0.628518
F118	F	1.824598	0.863782	1.128518
F119	F	1.286805	-0.406452	-0.073871
F120	F	1.786805	0.093548	0.426129
F121	F	1.293137	-0.167884	0.073720
F122	F	1.793137	0.332116	0.573720
H123	H	1.133526	-0.004470	-0.056146
H124	H	1.633526	0.495530	0.443854
F125	F	1.148330	-0.019929	0.073376
F126	F	1.648330	0.480071	0.573376
H127	H	0.887952	0.206234	0.136943
H128	H	1.387952	0.706234	0.636943
H129	H	1.517433	-0.422071	0.137313
H130	H	2.017433	0.077929	0.637313
H131	H	1.525262	-0.204728	0.136984
H132	H	2.025262	0.295272	0.636984
H133	H	1.669087	-0.441838	0.082188
H134	H	2.169087	0.058162	0.582188
F135	F	1.094497	0.395742	-0.078873
F136	F	1.594497	0.895742	0.421127
H137	H	1.346015	0.342423	0.796345
H138	H	1.846015	0.842423	1.296345
F139	F	1.118127	0.195244	0.155315
F140	F	1.618127	0.695244	0.655315
F141	F	1.095738	0.393168	0.082829
F142	F	1.595738	0.893168	0.582829
F143	F	1.703717	-0.456102	-0.078421
F144	F	2.203717	0.043898	0.421579
F145	F	0.856970	0.388068	0.081926
F146	F	1.356970	0.888068	0.581926
H147	H	0.890609	0.201827	-0.136890
H148	H	1.390609	0.701827	0.363110
F149	F	0.855103	0.385454	-0.085422
F150	F	1.355103	0.885454	0.414578
F151	F	1.706269	-0.215726	-0.084969
F152	F	2.206269	0.284274	0.415031
