data_functionalizedCrystal
_audit_creation_method	'MofGen! by Chris Wilmer'
_symmetry_space_group_name_H-M	'P1'
_symmetry_Int_Tables_number	1
_symmetry_cell_setting	triclinic
loop_
_symmetry_equiv_pos_as_xyz
  x,y,z
_cell_length_a	16.109301
_cell_length_b	10.489741
_cell_length_c	14.586319
_cell_angle_alpha	89.996488
_cell_angle_beta	89.999213
_cell_angle_gamma	84.000327
loop_
_atom_site_label
_atom_site_type_symbol
_atom_site_fract_x
_atom_site_fract_y
_atom_site_fract_z
O1	O	1.104141	0.163947	-0.076182
O2	O	0.862205	0.184350	-0.076196
O3	O	0.988678	-0.011529	-0.076183
O4	O	0.977668	0.359826	-0.076195
O5	O	0.988670	-0.011532	0.076298
O6	O	0.862196	0.184347	0.076284
O7	O	1.104132	0.163944	0.076299
Cu8	Cu	0.983164	0.174145	0.090214
Cu9	Cu	0.983174	0.174149	-0.090112
O10	O	0.977659	0.359823	0.076286
C11	C	0.831221	0.183522	0.000042
C12	C	0.738910	0.181044	0.000037
C13	C	0.517319	0.291514	0.000044
C14	C	0.430584	0.289175	0.000050
C15	C	0.449026	0.056771	0.000053
C16	C	0.535759	0.059111	0.000054
C17	C	0.569903	0.176486	0.000045
C18	C	0.396435	0.171808	0.000050
C19	C	0.302393	0.169272	0.000056
C20	C	0.663950	0.179022	0.000040
C21	C	0.987842	-0.059050	0.000057
C22	C	0.985354	-0.200644	0.000055
C23	C	0.904883	-0.267616	0.000043
C24	C	0.942893	-0.360292	0.075226
C25	C	0.942920	-0.360264	-0.075108
C26	C	1.023397	-0.291454	0.075300
C27	C	1.023414	-0.291417	-0.075102
C28	C	1.061482	-0.384066	0.000100
C29	C	1.135117	0.164772	0.000058
C30	C	1.227427	0.167250	0.000058
C31	C	0.978495	0.407344	0.000044
C32	C	0.980983	0.548938	0.000040
N33	N	0.983162	0.174142	0.217046
N34	N	0.983182	0.174142	-0.216944
C35	C	1.039183	0.087436	0.452058
C36	C	1.039186	0.087433	0.548040
C37	C	0.927155	0.260852	0.548038
C38	C	0.927149	0.260848	0.452058
C39	C	0.983168	0.174141	0.404071
C40	C	0.983176	0.174142	0.596032
C41	C	0.983178	0.174140	0.700099
C42	C	0.983165	0.174142	0.299997
H43	H	0.421215	-0.038791	0.000067
C44	C	1.068657	-0.251174	0.160263
C45	C	1.026652	-0.286904	0.238702
C46	C	1.068324	-0.249831	0.316985
H47	H	1.069960	-0.160852	0.159893
H48	H	1.124118	-0.292135	0.160534
H49	H	0.971206	-0.245939	0.238431
H50	H	1.025348	-0.377220	0.239102
H51	H	1.123785	-0.290792	0.317256
H52	H	1.069624	-0.159510	0.316606
H53	H	1.039834	-0.274079	0.370215
H54	H	0.578575	-0.034565	0.000057
H55	H	0.838720	-0.217005	0.000115
H56	H	1.084796	0.016832	0.412990
H57	H	0.908840	-0.390811	0.138784
C58	C	1.149796	-0.451195	0.000346
C59	C	1.191524	-0.416313	0.079205
C60	C	1.272874	-0.478144	0.079473
H61	H	1.178701	-0.426621	-0.052490
H62	H	1.147765	-0.541384	-0.000112
H63	H	1.193558	-0.326144	0.079655
H64	H	1.162644	-0.440889	0.132054
H65	H	1.270844	-0.568333	0.079015
H66	H	1.301772	-0.453565	0.026634
H67	H	1.301194	-0.454495	0.132982
C68	C	1.100098	-0.006760	0.599975
C69	C	1.149166	-0.082669	0.537402
C70	C	1.205296	-0.169447	0.585210
H71	H	1.069975	-0.059994	0.637424
H72	H	1.135027	0.039108	0.637392
H73	H	1.114242	-0.128534	0.500001
H74	H	1.179307	-0.029471	0.499951
H75	H	1.240224	-0.123579	0.622628
H76	H	1.175166	-0.222671	0.622658
H77	H	1.238600	-0.220953	0.542763
C78	C	1.068640	-0.250706	-0.159961
C79	C	1.026231	-0.285138	-0.238474
C80	C	1.067855	-0.247636	-0.316670
H81	H	1.123959	-0.292153	-0.160627
H82	H	1.070309	-0.160447	-0.159087
H83	H	1.024571	-0.375379	-0.239348
H84	H	0.970914	-0.243694	-0.237838
H85	H	1.069524	-0.157378	-0.315796
H86	H	1.123173	-0.289087	-0.317327
H87	H	1.039083	-0.270982	-0.369950
H88	H	0.545116	0.387088	0.000043
H89	H	0.387773	0.382843	0.000051
H90	H	0.908865	-0.390732	-0.138675
H91	H	0.881546	0.331449	0.587118
H92	H	0.881530	0.331455	0.412984
