data_functionalizedCrystal
_audit_creation_method	'MofGen! by Chris Wilmer'
_symmetry_space_group_name_H-M	'P1'
_symmetry_Int_Tables_number	1
_symmetry_cell_setting	triclinic
loop_
_symmetry_equiv_pos_as_xyz
  x,y,z
_cell_length_a	6.817900
_cell_length_b	9.582860
_cell_length_c	16.015572
_cell_angle_alpha	76.189886
_cell_angle_beta	104.485554
_cell_angle_gamma	111.206767
loop_
_atom_site_label
_atom_site_type_symbol
_atom_site_fract_x
_atom_site_fract_y
_atom_site_fract_z
V1	V	-4.003263	-0.060387	-0.269347
O2	O	-3.950086	0.153916	-0.264383
O3	O	-3.994506	-0.264976	-0.267348
O4	O	-3.926564	0.006805	-0.386890
O5	O	-4.018499	-0.119746	-0.144013
V6	V	-4.485422	-0.042583	-0.254375
O7	O	-4.267516	-0.099440	-0.302189
O8	O	-4.671367	-0.003529	-0.221533
O9	O	-4.270973	0.162006	-0.256374
O10	O	-4.655995	-0.256885	-0.259339
O11	O	-4.587583	0.016777	-0.379709
O12	O	-4.338915	-0.109774	-0.136832
C13	C	-3.850066	-0.316921	-0.263058
C14	C	-3.924004	-0.483749	-0.262208
C15	C	-3.763398	0.029764	-0.415545
C16	C	-3.782234	0.083346	-0.511636
C17	C	-4.163022	-0.392251	-0.888905
C18	C	-4.180716	-0.341854	-0.979193
C19	C	-4.053206	-0.081114	-0.954685
C20	C	-4.035491	-0.131490	-0.864393
C21	C	-4.090405	-0.287060	-0.831511
C22	C	-3.962873	-0.026298	-0.806999
C23	C	-3.945171	-0.076671	-0.716715
C24	C	-4.000085	-0.232235	-0.683826
C25	C	-4.072703	-0.337432	-0.741227
C26	C	-3.907974	0.129271	-0.839884
C27	C	-3.835357	0.234463	-0.782489
C28	C	-3.817639	0.184091	-0.692203
C29	C	-3.872554	0.028527	-0.659314
C30	C	-3.745022	0.289289	-0.634802
C31	C	-3.727319	0.238917	-0.544518
C32	C	-3.854851	-0.021845	-0.569030
C33	C	-4.078756	0.213942	-0.260661
C34	C	-3.984056	0.380772	-0.261517
C35	C	-4.165424	-0.132741	-0.108172
C36	C	-4.125826	-0.186316	-0.012081
H37	H	-3.899541	-0.148525	-0.542255
O38	O	-4.251301	-0.443845	-1.035070
C39	C	-4.334963	-0.481811	-1.185017
C40	C	-4.255042	-0.366150	-1.121836
H41	H	-4.337972	-0.419039	-1.255179
H42	H	-4.503108	-0.559892	-1.176747
H43	H	-4.222822	-0.552141	-1.169887
H44	H	-4.367027	-0.295717	-1.136926
H45	H	-4.086859	-0.288173	-1.130118
H46	H	-3.922361	0.170280	-0.913399
O47	O	-3.782357	0.385582	-0.814405
C48	C	-3.852160	0.619057	-0.825209
C49	C	-3.912432	0.447923	-0.789030
H50	H	-3.957263	0.669517	-0.804692
H51	H	-3.877386	0.637073	-0.899602
H52	H	-3.677075	0.677296	-0.798064
H53	H	-4.087513	0.389572	-0.816109
H54	H	-3.887053	0.430018	-0.714637
H55	H	-4.207712	-0.518931	-0.862130
O56	O	-3.692038	0.440407	-0.666720
C57	C	-3.761882	0.673867	-0.677524
C58	C	-3.822124	0.502735	-0.641342
H59	H	-3.866995	0.724317	-0.657005
H60	H	-3.787119	0.691879	-0.751917
H61	H	-3.586799	0.732120	-0.650384
H62	H	-3.997204	0.444371	-0.668416
H63	H	-3.796735	0.484834	-0.566949
O64	O	-4.000198	0.069954	-0.986745
C65	C	-4.119671	0.273350	-1.078584
C66	C	-4.179982	0.102232	-1.042359
H67	H	-4.265002	0.299505	-1.123540
H68	H	-3.984749	0.307392	-1.116932
H69	H	-4.064631	0.339855	-1.022037
H70	H	-4.235120	0.035608	-1.098852
H71	H	-4.314828	0.068308	-1.003986
H72	H	-3.668188	0.324574	-0.497786
H73	H	-3.985674	-0.273246	-0.610310
H74	H	-4.117392	-0.464112	-0.714452
