data_functionalizedCrystal
_audit_creation_method	'MofGen! by Chris Wilmer'
_symmetry_space_group_name_H-M	'P1'
_symmetry_Int_Tables_number	1
_symmetry_cell_setting	triclinic
loop_
_symmetry_equiv_pos_as_xyz
  x,y,z
_cell_length_a	9.565339
_cell_length_b	11.792241
_cell_length_c	11.792241
_cell_angle_alpha	84.193416
_cell_angle_beta	90.000085
_cell_angle_gamma	90.000624
loop_
_atom_site_label
_atom_site_type_symbol
_atom_site_fract_x
_atom_site_fract_y
_atom_site_fract_z
O1	O	0.116125	-1.506908	-0.155560
O2	O	0.116157	-1.176567	-0.171593
O3	O	0.116130	-1.349754	0.001594
O4	O	0.116152	-1.333721	-0.328747
O5	O	-0.116390	-1.349740	0.001584
O6	O	-0.116363	-1.176553	-0.171603
O7	O	-0.116395	-1.506894	-0.155570
Zn8	Zn	-0.153297	-1.341722	-0.163589
Zn9	Zn	0.153059	-1.341740	-0.163574
O10	O	-0.116368	-1.333707	-0.328757
C11	C	-0.000099	-1.134269	-0.170591
C12	C	-0.000086	-1.008255	-0.167576
N13	N	-0.362376	-1.341718	-0.163598
C14	C	-0.000129	-1.348740	0.043880
C15	C	-0.000127	-1.345726	0.169894
C16	C	-0.453567	-1.261600	-0.243664
C17	C	-0.546754	-1.364301	-0.266319
C18	C	-0.546744	-1.239061	-0.140952
C19	C	-0.453512	-1.444471	-0.186304
C20	C	-0.453493	-1.319163	-0.060892
C21	C	-0.546639	-1.421938	-0.083503
N22	N	0.362138	-1.341753	-0.163556
C23	C	-0.000136	-1.549192	-0.156572
C24	C	-0.000139	-1.675206	-0.159587
C25	C	-0.000127	-0.777543	-0.162034
C26	C	-0.000105	-0.905928	-0.165113
C27	C	-0.000106	-1.334721	-0.371043
C28	C	-0.000098	-1.337736	-0.497057
C29	C	-0.000103	-1.340183	0.400606
C30	C	-0.000116	-1.343262	0.272221
H31	H	-0.412701	-1.193909	-0.311436
H32	H	-0.587248	-1.489780	-0.015773
H33	H	-0.412497	-1.300030	0.025919
H34	H	-0.587718	-1.383402	-0.353157
H35	H	-0.412731	-1.531320	-0.205544
H36	H	-0.587700	-1.152231	-0.121816
