data_functionalizedCrystal
_audit_creation_method	'MofGen! by Chris Wilmer'
_symmetry_space_group_name_H-M	'P1'
_symmetry_Int_Tables_number	1
_symmetry_cell_setting	triclinic
loop_
_symmetry_equiv_pos_as_xyz
  x,y,z
_cell_length_a	13.032831
_cell_length_b	12.759393
_cell_length_c	12.759387
_cell_angle_alpha	90.027941
_cell_angle_beta	82.805208
_cell_angle_gamma	97.179843
loop_
_atom_site_label
_atom_site_type_symbol
_atom_site_fract_x
_atom_site_fract_y
_atom_site_fract_z
Zn1	Zn	1.597764	0.622502	-0.797749
Zn2	Zn	1.597655	0.798205	-0.622064
Zn3	Zn	1.422993	0.600208	-0.599801
Zn4	Zn	1.422985	0.775792	-0.775432
O5	O	1.510349	0.699177	-0.698761
O6	O	1.743992	0.664520	-0.793100
O7	O	1.574443	0.771990	-0.472084
O8	O	1.446225	0.456151	-0.626082
O9	O	1.743912	0.793608	-0.664026
O10	O	1.574629	0.472530	-0.771513
O11	O	1.446120	0.626523	-0.455728
O12	O	1.276749	0.604790	-0.604442
O13	O	1.446212	0.755408	-0.925419
O14	O	1.276743	0.733791	-0.733477
O15	O	1.574622	0.642787	-0.941815
O16	O	1.574436	0.942247	-0.642386
O17	O	1.446106	0.925780	-0.755064
C18	C	1.238827	0.664440	-0.664123
C19	C	1.122668	0.649605	-0.649329
C20	C	1.510286	0.972137	-0.698746
C21	C	1.510355	1.088922	-0.698786
C22	C	1.070906	0.706920	-0.706482
C23	C	0.950850	0.691588	-0.691194
C24	C	1.644085	1.106028	-0.581568
C25	C	1.710977	1.169446	-0.522978
C26	C	1.711039	1.279175	-0.523021
C27	C	1.644203	1.325489	-0.581663
C28	C	1.577311	1.262072	-0.640253
C29	C	1.577254	1.152340	-0.640201
C30	C	1.443587	1.244966	-0.757477
C31	C	1.443519	1.135236	-0.757429
C32	C	1.376752	1.291280	-0.816119
C33	C	1.309852	1.227862	-0.874704
C34	C	1.309793	1.118126	-0.874658
C35	C	1.376627	1.071819	-0.816019
C36	C	1.782932	0.734051	-0.733536
C37	C	1.899090	0.748912	-0.748355
C38	C	1.510428	0.699084	-0.972805
C39	C	1.510462	0.699045	-1.089586
C40	C	1.510441	1.425155	-0.698820
C41	C	1.510480	1.308384	-0.698887
C42	C	1.644184	0.581782	-1.106680
C43	C	1.711060	0.523136	-1.170090
C44	C	1.711085	0.523101	-1.279815
C45	C	1.644225	0.581715	-1.326132
C46	C	1.577350	0.640361	-1.262722
C47	C	1.577334	0.640392	-1.152996
C48	C	1.443624	0.757616	-1.245627
C49	C	1.443602	0.757659	-1.135903
C50	C	1.376764	0.816230	-1.291944
C51	C	1.309892	0.874883	-1.228534
C52	C	1.309870	0.874917	-1.118803
C53	C	1.376726	0.816304	-1.072493
C54	C	1.510331	0.699201	-0.425792
C55	C	1.510499	0.698971	-0.309037
H56	H	0.906289	0.631159	-0.630945
H57	H	0.943650	0.809330	-0.808615
O58	O	1.775977	0.466302	-1.124932
C59	C	1.835180	0.414347	-0.963468
C60	C	1.761627	0.478776	-1.014468
H61	H	1.823588	0.424392	-0.874149
H62	H	1.919465	0.443591	-0.995724
H63	H	1.816888	0.327291	-0.982779
H64	H	1.779825	0.565845	-0.995177
H65	H	1.677364	0.449445	-0.982209
H66	H	1.078103	0.589180	-0.589085
H67	H	1.115471	0.767337	-0.766735
H68	H	1.255400	0.922660	-1.067179
H69	H	1.376786	0.816193	-1.381287
O70	O	1.775799	1.124281	-0.466034
C71	C	1.835020	0.962824	-0.414056
C72	C	1.761538	1.013827	-0.478567
H73	H	1.823531	0.873517	-0.424184
H74	H	1.816713	0.982065	-0.326976
H75	H	1.919280	0.995150	-0.443311
H76	H	1.677253	0.981530	-0.449404
H77	H	1.779935	0.994592	-0.565637
H78	H	1.644268	1.414838	-0.581704
H79	H	1.765513	1.330811	-0.475318
H80	H	1.644180	0.581815	-1.017339
O81	O	1.376907	1.397883	-0.816347
C82	C	1.403741	1.558662	-0.920587
C83	C	1.403630	1.437943	-0.920476
H84	H	1.425323	1.591084	-1.004769
H85	H	1.463064	1.596095	-0.868704
H86	H	1.322837	1.578166	-0.888368
H87	H	1.484491	1.418344	-0.952715
H88	H	1.344253	1.400575	-0.972330
O89	O	1.245049	1.272818	-0.931830
C90	C	1.194222	1.299736	-1.104031
C91	C	1.267694	1.248782	-1.039468
H92	H	1.212490	1.280303	-1.191065
H93	H	1.205768	1.389069	-1.094096
H94	H	1.109955	1.267495	-1.074707
H95	H	1.351990	1.280938	-1.068749
H96	H	1.256058	1.159452	-1.049404
O97	O	1.776144	0.466113	-1.341267
C98	C	1.908736	0.349756	-1.346650
C99	C	1.835130	0.414267	-1.276936
H100	H	1.956430	0.307804	-1.294665
H101	H	1.963439	0.404930	-1.404965
H102	H	1.860769	0.288712	-1.391935
H103	H	1.883013	0.475315	-1.231583
H104	H	1.780424	0.359027	-1.218686
O105	O	1.244762	1.056406	-0.931423
C106	C	1.103542	0.914633	-0.927407
C107	C	1.177141	0.984433	-0.862994
H108	H	1.048837	0.856441	-0.872106
H109	H	1.151413	0.869227	-0.988448
H110	H	1.055840	0.966616	-0.969353
H111	H	1.224858	0.932528	-0.820982
H112	H	1.129210	1.029847	-0.802014
O113	O	1.644407	0.581595	-1.432738
C114	C	1.717755	0.517140	-1.599570
C115	C	1.717676	0.517202	-1.478855
H116	H	1.776971	0.465066	-1.636890
H117	H	1.739473	0.601237	-1.632184
H118	H	1.636811	0.485012	-1.618995
H119	H	1.798595	0.549281	-1.459338
H120	H	1.695899	0.433088	-1.446305
O121	O	1.245050	0.931793	-1.273700
C122	C	1.185769	0.983642	-1.435160
C123	C	1.259272	0.919163	-1.384146
H124	H	1.197226	0.973436	-1.524461
H125	H	1.204085	1.070736	-1.416000
H126	H	1.101516	0.954429	-1.402767
H127	H	1.343549	0.948285	-1.416510
H128	H	1.240867	0.832080	-1.403299
H129	H	1.376578	0.982471	-0.815967
H130	H	1.644029	1.016680	-0.581511
H131	H	1.376719	0.816331	-0.983151
