data_functionalizedCrystal
_audit_creation_method	'MofGen! by Chris Wilmer'
_symmetry_space_group_name_H-M	'P1'
_symmetry_Int_Tables_number	1
_symmetry_cell_setting	triclinic
loop_
_symmetry_equiv_pos_as_xyz
  x,y,z
_cell_length_a	16.974800
_cell_length_b	10.654550
_cell_length_c	9.730223
_cell_angle_alpha	89.995747
_cell_angle_beta	93.653525
_cell_angle_gamma	83.936323
loop_
_atom_site_label
_atom_site_type_symbol
_atom_site_fract_x
_atom_site_fract_y
_atom_site_fract_z
O1	O	1.050026	0.159968	0.002544
O2	O	0.819930	0.180375	-0.023061
O3	O	0.940268	-0.012651	-0.009661
O4	O	0.929688	0.352994	-0.010855
O5	O	0.940261	-0.012656	0.218918
O6	O	0.819923	0.180370	0.205518
O7	O	1.050018	0.159963	0.231123
Zn8	Zn	0.934969	0.170166	0.254613
Zn9	Zn	0.934979	0.170172	-0.046550
O10	O	0.929680	0.352988	0.217724
C11	C	0.939488	-0.059439	0.104542
C12	C	0.937163	-0.198846	0.104281
C13	C	0.790464	0.179599	0.087950
C14	C	0.702674	0.177281	0.078181
C15	C	1.008016	-0.279440	0.112165
C16	C	1.005828	-0.410427	0.111904
C17	C	0.861927	-0.380212	0.095881
C18	C	0.864116	-0.249228	0.096132
C19	C	0.661431	0.176186	0.198194
C20	C	0.578945	0.173988	0.189019
C21	C	0.537703	0.172893	0.059830
C22	C	0.578952	0.173985	-0.060191
C23	C	0.661437	0.176174	-0.051015
C24	C	0.291009	0.166338	0.019025
C25	C	0.208517	0.164152	0.009857
C26	C	0.208516	0.164153	0.259068
C27	C	0.291002	0.166349	0.268233
C28	C	0.332245	0.167434	0.148212
N29	N	0.453388	0.170650	0.050449
N30	N	0.416559	0.169668	0.157595
C31	C	1.079485	0.160739	0.120109
C32	C	1.167274	0.163057	0.129869
C33	C	0.930461	0.399777	0.103518
C34	C	0.932785	0.539184	0.103770
N35	N	0.934968	0.170160	0.460149
N36	N	0.934987	0.170168	-0.252086
C37	C	0.988272	0.084724	0.538010
C38	C	0.988280	0.084725	0.681894
C39	C	0.881677	0.255608	0.670042
C40	C	0.881666	0.255600	0.526161
H41	H	1.067496	-0.238424	0.118797
C42	C	0.163153	0.162947	-0.132266
N43	N	0.128984	0.162042	-0.239308
H44	H	0.802454	-0.421249	0.089249
C45	C	0.163144	0.162946	0.391082
N46	N	0.128969	0.162032	0.490520
C47	C	1.046899	-0.009272	0.465402
N48	N	1.091056	-0.080078	0.410717
C49	C	1.083772	-0.499076	0.120590
N50	N	1.142483	-0.565846	0.127135
C51	C	0.786168	-0.160568	0.087452
N52	N	0.727460	-0.093789	0.080909
H53	H	1.031684	0.015154	0.745285
C54	C	0.706790	0.177389	0.340312
N55	N	0.740952	0.178289	0.447361
H56	H	0.324579	0.167217	-0.078705
H57	H	0.545370	0.173075	0.286746
C58	C	0.823047	0.349585	0.742669
N59	N	0.778885	0.420370	0.797370
H60	H	0.324577	0.167234	0.373432
C61	C	0.533583	0.172777	-0.202300
N62	N	0.499411	0.171872	-0.309340
H63	H	0.695016	0.177068	-0.148742
C64	C	0.823061	0.349649	0.440512
N65	N	0.778933	0.420502	0.376003
