data_functionalizedCrystal
_audit_creation_method	'MofGen! by Chris Wilmer'
_symmetry_space_group_name_H-M	'P1'
_symmetry_Int_Tables_number	1
_symmetry_cell_setting	triclinic
loop_
_symmetry_equiv_pos_as_xyz
  x,y,z
_cell_length_a	12.759401
_cell_length_b	12.594516
_cell_length_c	12.759393
_cell_angle_alpha	89.971950
_cell_angle_beta	89.979062
_cell_angle_gamma	90.017577
loop_
_atom_site_label
_atom_site_type_symbol
_atom_site_fract_x
_atom_site_fract_y
_atom_site_fract_z
Zn1	Zn	1.606257	-0.423647	-0.594038
Zn2	Zn	1.606143	-0.601663	-0.418366
Zn3	Zn	1.430555	-0.423704	-0.418373
Zn4	Zn	1.430543	-0.601589	-0.594003
O5	O	1.518375	-0.512651	-0.506195
O6	O	1.753263	-0.447269	-0.570746
O7	O	1.582809	-0.578111	-0.271345
O8	O	1.453915	-0.274751	-0.441693
O9	O	1.753179	-0.578056	-0.441680
O10	O	1.583002	-0.274709	-0.570754
O11	O	1.453805	-0.447365	-0.271351
O12	O	1.283533	-0.447293	-0.441659
O13	O	1.453894	-0.577930	-0.741029
O14	O	1.283524	-0.577985	-0.570694
O15	O	1.582990	-0.447197	-0.741054
O16	O	1.582797	-0.750599	-0.441646
O17	O	1.453784	-0.750545	-0.570686
C18	C	1.245407	-0.512638	-0.506174
C19	C	1.128631	-0.512658	-0.506190
C20	C	1.073791	-0.580812	-0.573272
C21	C	0.964067	-0.580817	-0.573293
C22	C	0.964031	-0.444509	-0.439140
C23	C	1.073753	-0.444500	-0.439125
C24	C	1.518306	-0.789192	-0.506185
C25	C	1.518372	-0.907497	-0.506215
C26	C	1.448195	-0.976759	-0.576351
C27	C	1.422594	-1.047629	-0.480484
C28	C	1.544069	-1.047427	-0.602099
C29	C	1.492721	-0.976808	-0.410297
C30	C	1.614240	-0.976600	-0.531977
C31	C	1.588675	-1.047438	-0.436044
C32	C	1.792408	-0.512665	-0.506216
C33	C	1.909184	-0.512671	-0.506226
C34	C	1.518453	-0.512549	-0.780228
C35	C	1.518487	-0.512505	-0.897005
C36	C	1.518472	-0.235030	-0.506228
C37	C	1.518514	-0.116725	-0.506242
C38	C	1.585712	-0.444422	-0.951882
C39	C	1.585730	-0.444376	-1.061606
C40	C	1.451294	-0.580506	-1.061567
C41	C	1.451272	-0.580546	-0.951844
C42	C	1.518357	-0.512676	-0.233228
C43	C	1.518527	-0.512420	-0.116451
H44	H	1.118469	-0.636308	-0.627883
H45	H	1.470950	-0.945916	-0.329198
H46	H	0.919422	-0.636313	-0.627920
O47	O	1.126869	-0.378257	-0.373857
C48	C	1.054907	-0.318089	-0.314679
H49	H	0.976680	-0.361685	-0.310974
H50	H	1.043276	-0.237300	-0.353291
C51	C	1.193763	-0.249063	-0.207436
C52	C	1.097686	-0.302612	-0.202877
H53	H	1.220152	-0.239511	-0.138472
H54	H	1.242246	-0.289596	-0.247307
H55	H	1.184057	-0.181745	-0.239617
H56	H	1.107396	-0.369934	-0.170709
H57	H	1.049206	-0.262090	-0.162998
O58	O	1.386162	-0.646716	-1.114888
C59	C	1.445964	-0.715426	-1.178374
H60	H	1.528701	-0.722019	-1.145319
H61	H	1.449614	-0.682487	-1.261536
C62	C	1.292976	-0.817972	-1.220638
C63	C	1.394592	-0.826077	-1.180033
H64	H	1.261286	-0.886226	-1.221666
H65	H	1.252684	-0.771679	-1.177869
H66	H	1.296032	-0.790519	-1.289935
H67	H	1.391534	-0.853517	-1.110733
H68	H	1.434882	-0.872378	-1.222791
H69	H	1.388743	-0.945724	-0.635576
O70	O	1.386079	-0.646841	-0.898576
C71	C	1.408987	-0.752916	-0.925392
H72	H	1.492921	-0.758288	-0.955571
H73	H	1.352659	-0.780714	-0.989064
C74	C	1.293627	-0.817382	-0.790841
C75	C	1.396721	-0.823981	-0.827898
H76	H	1.286057	-0.861220	-0.730704
H77	H	1.278191	-0.745917	-0.772776
H78	H	1.246699	-0.840545	-0.843910
H79	H	1.443646	-0.800805	-0.774834
H80	H	1.412165	-0.895444	-0.845951
O81	O	0.910559	-0.378405	-0.374029
C82	C	0.801955	-0.393006	-0.388444
H83	H	0.786967	-0.475193	-0.422711
H84	H	0.770863	-0.329947	-0.444507
C85	C	0.763980	-0.282175	-0.240079
C86	C	0.745570	-0.383122	-0.282159
H87	H	0.729197	-0.276073	-0.174520
H88	H	0.837148	-0.272334	-0.230369
H89	H	0.738069	-0.229637	-0.286809
H90	H	0.771492	-0.435657	-0.235436
H91	H	0.672405	-0.392971	-0.291859
H92	H	1.341587	-1.078851	-0.458716
O93	O	1.659677	-1.084114	-0.365292
C94	C	1.760307	-1.046351	-0.391748
H95	H	1.752637	-0.971403	-0.441283
H96	H	1.803975	-1.109715	-0.438240
C97	C	1.831025	-1.112799	-0.230091
C98	C	1.821604	-1.020742	-0.290924
H99	H	1.868838	-1.097006	-0.167899
H100	H	1.763229	-1.138245	-0.212268
H101	H	1.867411	-1.165594	-0.268846
H102	H	1.785207	-0.967954	-0.252174
H103	H	1.889395	-0.995286	-0.308738
O104	O	1.710826	-0.939396	-0.558180
C105	C	1.737554	-0.975332	-0.659353
H106	H	1.663093	-0.995261	-0.704616
H107	H	1.788578	-1.049327	-0.652777
C108	C	1.889862	-0.863237	-0.662015
C109	C	1.798407	-0.887705	-0.717611
H110	H	1.927403	-0.809187	-0.697952
H111	H	1.871858	-0.839028	-0.593852
H112	H	1.932369	-0.924906	-0.656540
H113	H	1.755896	-0.826040	-0.723075
H114	H	1.816406	-0.911901	-0.785777
H115	H	1.565747	-1.078448	-0.683176
H116	H	1.640440	-0.389016	-0.907235
H117	H	1.640470	-0.388934	-1.106282
