data_functionalizedCrystal
_audit_creation_method	'MofGen! by Chris Wilmer'
_symmetry_space_group_name_H-M	'P1'
_symmetry_Int_Tables_number	1
_symmetry_cell_setting	triclinic
loop_
_symmetry_equiv_pos_as_xyz
  x,y,z
_cell_length_a	6.817900
_cell_length_b	15.866870
_cell_length_c	19.453114
_cell_angle_alpha	113.120776
_cell_angle_beta	101.709288
_cell_angle_gamma	102.655915
loop_
_atom_site_label
_atom_site_type_symbol
_atom_site_fract_x
_atom_site_fract_y
_atom_site_fract_z
V1	V	-4.029387	-0.133791	-0.253639
O2	O	-3.993831	0.005401	-0.213432
O3	O	-4.003025	-0.264297	-0.285930
O4	O	-3.972031	-0.132185	-0.348736
O5	O	-4.025040	-0.127626	-0.150191
V6	V	-4.511320	-0.117089	-0.237132
O7	O	-4.294133	-0.170429	-0.289848
O8	O	-4.696770	-0.080451	-0.200924
O9	O	-4.314475	0.013416	-0.204841
O10	O	-4.664273	-0.256281	-0.277340
O11	O	-4.633063	-0.123255	-0.340580
O12	O	-4.345469	-0.118696	-0.142035
C13	C	-3.853677	-0.296097	-0.290709
C14	C	-3.913350	-0.402790	-0.317745
C15	C	-3.814139	-0.127574	-0.370823
C16	C	-3.848674	-0.127123	-0.448788
C17	C	-3.925870	-0.683731	-0.066963
C18	C	-3.981949	-0.783990	-0.092391
C19	C	-4.055444	-0.811962	-0.228274
C20	C	-3.999360	-0.711703	-0.202857
C21	C	-3.934578	-0.647595	-0.122201
C22	C	-4.008067	-0.675567	-0.258095
C23	C	-3.951998	-0.575317	-0.232680
C24	C	-3.887222	-0.511204	-0.152027
C25	C	-3.878509	-0.547345	-0.096786
C26	C	-4.072864	-0.739677	-0.338752
C27	C	-4.081572	-0.703541	-0.393990
C28	C	-4.025488	-0.603289	-0.368575
C29	C	-3.960711	-0.539176	-0.287922
C30	C	-4.034201	-0.567148	-0.423817
C31	C	-3.978132	-0.466898	-0.398402
C32	C	-3.904642	-0.438926	-0.262507
C33	C	-4.047493	-0.131729	-0.490238
C34	C	-4.079942	-0.131307	-0.563495
C35	C	-3.913572	-0.126297	-0.595307
C36	C	-3.714721	-0.121685	-0.553846
C37	C	-3.682272	-0.122098	-0.480587
N38	N	-3.862388	-0.176983	-0.727220
N39	N	-3.893227	-0.176593	-0.796814
C40	C	-4.011328	-0.125049	-0.816032
N41	N	-4.097462	-0.073924	-0.763033
N42	N	-4.066628	-0.074318	-0.693434
C43	C	-3.948737	-0.125848	-0.674744
C44	C	-4.245344	-0.129196	-0.936916
C45	C	-4.277783	-0.128767	-1.010172
C46	C	-3.912561	-0.119154	-1.000525
C47	C	-3.880122	-0.119574	-0.927266
C48	C	-4.046524	-0.124599	-0.895468
C49	C	-4.127166	0.045212	-0.200062
C50	C	-4.046731	0.151903	-0.173030
C51	C	-4.166704	-0.123310	-0.119946
C52	C	-4.111407	-0.123755	-0.041978
H53	H	-3.851858	-0.386724	-0.196828
H54	H	-3.718229	-0.115833	-0.893521
O55	O	-4.294403	-0.136275	-0.608211
H56	H	-4.289002	-0.135137	-0.664492
O57	O	-4.151451	-0.772693	-0.480980
H58	H	-4.148097	-0.730721	-0.515121
O59	O	-3.535272	-0.116288	-0.588153
H60	H	-3.591244	-0.116787	-0.646064
H61	H	-4.086973	-0.619359	-0.489488
O62	O	-3.467827	-0.117132	-0.435869
H63	H	-3.426940	-0.180503	-0.472132
O64	O	-3.826705	-0.403072	-0.124600
H65	H	-3.964307	-0.386325	-0.150797
H66	H	-3.825725	-0.495143	-0.031106
O67	O	-4.424790	-0.134596	-0.902603
H68	H	-4.568489	-0.137709	-0.943730
O69	O	-4.492224	-0.133717	-1.054878
H70	H	-4.602472	-0.137283	-1.020457
O71	O	-4.226951	-0.137141	-0.455935
H72	H	-4.180437	-0.071807	-0.398266
O73	O	-3.732837	-0.113916	-1.034703
H74	H	-3.697850	-0.047791	-1.043381
H75	H	-3.974847	-0.813405	-0.047403
O76	O	-3.855985	-0.614572	0.020032
H77	H	-3.859351	-0.656539	0.054177
H78	H	-4.108204	-0.864172	-0.293945
H79	H	-3.985255	-0.437477	-0.443383
O80	O	-4.133320	-0.847805	-0.366168
H81	H	-4.268772	-0.871875	-0.347102
