data_functionalizedCrystal
_audit_creation_method	'MofGen! by Chris Wilmer'
_symmetry_space_group_name_H-M	'P1'
_symmetry_Int_Tables_number	1
_symmetry_cell_setting	triclinic
loop_
_symmetry_equiv_pos_as_xyz
  x,y,z
_cell_length_a	19.288864
_cell_length_b	17.666332
_cell_length_c	19.288865
_cell_angle_alpha	89.989547
_cell_angle_beta	96.863755
_cell_angle_gamma	90.023099
loop_
_atom_site_label
_atom_site_type_symbol
_atom_site_fract_x
_atom_site_fract_y
_atom_site_fract_z
O1	O	0.921353	0.063200	-0.086648
O2	O	1.171353	0.313200	0.163352
O3	O	1.421353	0.563200	0.413352
O4	O	1.671353	0.813200	0.663352
O5	O	0.719092	0.063149	-0.098336
O6	O	0.969092	0.313149	0.151664
O7	O	1.219092	0.563149	0.401664
O8	O	1.469092	0.813149	0.651664
O9	O	0.826067	0.063161	0.008638
O10	O	1.076067	0.313161	0.258638
O11	O	1.326067	0.563161	0.508638
O12	O	1.576067	0.813161	0.758638
O13	O	0.814378	0.063188	-0.193622
O14	O	1.064378	0.313188	0.056378
O15	O	1.314378	0.563188	0.306378
O16	O	1.564378	0.813188	0.556378
O17	O	0.826048	-0.062736	0.008641
O18	O	1.076048	0.187264	0.258641
O19	O	1.326048	0.437264	0.508641
O20	O	1.576048	0.687264	0.758641
O21	O	0.719074	-0.062748	-0.098333
O22	O	0.969074	0.187252	0.151667
O23	O	1.219074	0.437252	0.401667
O24	O	1.469074	0.687252	0.651667
O25	O	0.921334	-0.062697	-0.086644
O26	O	1.171334	0.187303	0.163356
O27	O	1.421334	0.437303	0.413356
O28	O	1.671334	0.687303	0.663356
Cu29	Cu	0.820202	-0.074218	-0.092489
Cu30	Cu	1.070202	0.175782	0.157511
Cu31	Cu	1.320202	0.425782	0.407511
Cu32	Cu	1.570202	0.675782	0.657511
Cu33	Cu	0.820224	0.074670	-0.092492
Cu34	Cu	1.070224	0.324670	0.157508
Cu35	Cu	1.320224	0.574670	0.407508
Cu36	Cu	1.570224	0.824670	0.657508
O37	O	0.814360	-0.062709	-0.193619
O38	O	1.064360	0.187291	0.056381
O39	O	1.314360	0.437291	0.306381
O40	O	1.564360	0.687291	0.556381
C41	C	0.693207	0.000194	-0.097959
C42	C	0.943207	0.250194	0.152041
C43	C	1.193207	0.500194	0.402041
C44	C	1.443207	0.750194	0.652041
C45	C	0.616103	0.000174	-0.096830
C46	C	0.866103	0.250174	0.153170
C47	C	1.116103	0.500174	0.403170
C48	C	1.366103	0.750174	0.653170
N49	N	0.820192	-0.178937	-0.092486
N50	N	1.070192	0.071063	0.157514
N51	N	1.320192	0.321063	0.407514
N52	N	1.570192	0.571063	0.657514
C53	C	0.571407	0.000194	-0.159598
C54	C	0.821407	0.250194	0.090402
C55	C	1.071407	0.500194	0.340402
C56	C	1.321407	0.750194	0.590402
C57	C	0.498960	0.000203	-0.158537
C58	C	0.748960	0.250203	0.091463
C59	C	0.998960	0.500203	0.341463
C60	C	1.248960	0.750203	0.591463
C61	C	0.471212	0.000206	-0.094705
C62	C	0.721212	0.250206	0.155295
C63	C	0.971212	0.500206	0.405295
C64	C	1.221212	0.750206	0.655295
C65	C	0.515918	0.000181	-0.031929
C66	C	0.765918	0.250181	0.218071
C67	C	1.015918	0.500181	0.468071
C68	C	1.265918	0.750181	0.718071
C69	C	0.588364	0.000165	-0.032991
C70	C	0.838364	0.250165	0.217009
C71	C	1.088364	0.500165	0.467009
C72	C	1.338364	0.750165	0.717009
C73	C	0.362957	0.044332	-0.044527
C74	C	0.612957	0.294332	0.205473
C75	C	0.862957	0.544332	0.455473
C76	C	1.112957	0.794332	0.705473
C77	C	0.290512	0.044352	-0.043467
C78	C	0.540512	0.294352	0.206533
C79	C	0.790512	0.544352	0.456533
C80	C	1.040512	0.794352	0.706533
C81	C	0.247767	0.000251	-0.091425
C82	C	0.497767	0.250251	0.158575
C83	C	0.747767	0.500251	0.408575
C84	C	0.997767	0.750251	0.658575
C85	C	0.277473	-0.043861	-0.140455
C86	C	0.527473	0.206139	0.109545
C87	C	0.777473	0.456139	0.359545
C88	C	1.027473	0.706139	0.609545
C89	C	0.349918	-0.043877	-0.141518
C90	C	0.599918	0.206123	0.108482
C91	C	0.849918	0.456123	0.358482
C92	C	1.099918	0.706123	0.608482
C93	C	0.392658	0.000222	-0.093546
C94	C	0.642658	0.250222	0.156454
C95	C	0.892658	0.500222	0.406454
C96	C	1.142658	0.750222	0.656454
C97	C	0.124514	0.000279	-0.153047
C98	C	0.374514	0.250279	0.096953
C99	C	0.624514	0.500279	0.346953
C100	C	0.874514	0.750279	0.596953
C101	C	0.052066	0.000283	-0.151984
C102	C	0.302066	0.250283	0.098016
C103	C	0.552066	0.500283	0.348016
C104	C	0.802066	0.750283	0.598016
C105	C	0.069026	0.000269	-0.025374
C106	C	0.319026	0.250269	0.224626
C107	C	0.569026	0.500269	0.474626
C108	C	0.819026	0.750269	0.724626
C109	C	0.141473	0.000258	-0.026439
C110	C	0.391473	0.250258	0.223561
C111	C	0.641473	0.500258	0.473561
C112	C	0.891473	0.750258	0.723561
C113	C	0.169212	0.000267	-0.090278
C114	C	0.419212	0.250267	0.159722
C115	C	0.669212	0.500267	0.409722
C116	C	0.919212	0.750267	0.659722
C117	C	0.862179	-0.218523	-0.134509
C118	C	1.112179	0.031477	0.115491
C119	C	1.362179	0.281477	0.365491
C120	C	1.612179	0.531477	0.615491
C121	C	0.862190	-0.297771	-0.134507
C122	C	1.112190	-0.047771	0.115493
C123	C	1.362190	0.202229	0.365493
C124	C	1.612190	0.452229	0.615493
C125	C	0.820201	-0.337429	-0.092490
C126	C	1.070201	-0.087429	0.157510
C127	C	1.320201	0.162571	0.407510
C128	C	1.570201	0.412571	0.657510
C129	C	0.778211	-0.297833	-0.050457
C130	C	1.028211	-0.047833	0.199543
C131	C	1.278211	0.202167	0.449543
C132	C	1.528211	0.452167	0.699543
C133	C	0.778206	-0.218587	-0.050455
C134	C	1.028206	0.031413	0.199545
C135	C	1.278206	0.281413	0.449545
C136	C	1.528206	0.531413	0.699545
N137	N	0.759369	-0.461885	-0.090783
N138	N	1.009369	-0.211885	0.159217
N139	N	1.259369	0.038115	0.409217
N140	N	1.509369	0.288115	0.659217
N141	N	0.759375	-0.537165	-0.090789
N142	N	1.009375	-0.287165	0.159211
N143	N	1.259375	-0.037165	0.409211
N144	N	1.509375	0.212835	0.659211
C145	C	0.820214	-0.576193	-0.092492
C146	C	1.070214	-0.326193	0.157508
C147	C	1.320214	-0.076193	0.407508
C148	C	1.570214	0.173807	0.657508
N149	N	0.881046	-0.537097	-0.094203
N150	N	1.131046	-0.287097	0.155797
N151	N	1.381046	-0.037097	0.405797
N152	N	1.631046	0.212903	0.655797
N153	N	0.881039	-0.461810	-0.094200
N154	N	1.131039	-0.211810	0.155800
N155	N	1.381039	0.038190	0.405800
N156	N	1.631039	0.288190	0.655800
C157	C	0.820202	-0.423358	-0.092487
C158	C	1.070202	-0.173358	0.157513
C159	C	1.320202	0.076642	0.407513
C160	C	1.570202	0.326642	0.657513
C161	C	0.862217	-0.701709	-0.134516
C162	C	1.112217	-0.451709	0.115484
C163	C	1.362217	-0.201709	0.365484
C164	C	1.612217	0.048291	0.615484
C165	C	0.862229	-0.780958	-0.134509
C166	C	1.112229	-0.530958	0.115491
C167	C	1.362229	-0.280958	0.365491
C168	C	1.612229	-0.030958	0.615491
C169	C	0.778244	-0.781019	-0.050463
C170	C	1.028244	-0.531019	0.199537
C171	C	1.278244	-0.281019	0.449537
C172	C	1.528244	-0.031019	0.699537
C173	C	0.778237	-0.701771	-0.050466
C174	C	1.028237	-0.451771	0.199534
C175	C	1.278237	-0.201771	0.449534
C176	C	1.528237	0.048229	0.699534
C177	C	0.820223	-0.662121	-0.092496
C178	C	1.070223	-0.412121	0.157504
C179	C	1.320223	-0.162121	0.407504
C180	C	1.570223	0.087879	0.657504
C181	C	0.947220	0.000260	-0.087022
C182	C	1.197220	0.250260	0.162978
C183	C	1.447220	0.500260	0.412978
C184	C	1.697220	0.750260	0.662978
C185	C	1.024324	0.000285	-0.088151
C186	C	1.274324	0.250285	0.161849
C187	C	1.524324	0.500285	0.411849
C188	C	1.774324	0.750285	0.661849
C189	C	0.825682	0.000210	0.034516
C190	C	1.075682	0.250210	0.284516
C191	C	1.325682	0.500210	0.534516
C192	C	1.575682	0.750210	0.784516
C193	C	0.824553	0.000203	0.111620
C194	C	1.074553	0.250203	0.361620
C195	C	1.324553	0.500203	0.611620
C196	C	1.574553	0.750203	0.861620
N197	N	0.820241	0.179389	-0.092490
N198	N	1.070241	0.429389	0.157510
N199	N	1.320241	0.679389	0.407510
N200	N	1.570241	0.929389	0.657510
C201	C	0.814745	0.000244	-0.219497
C202	C	1.064745	0.250244	0.030503
C203	C	1.314745	0.500244	0.280503
C204	C	1.564745	0.750244	0.530503
C205	C	0.815874	0.000255	-0.296601
C206	C	1.065874	0.250255	-0.046601
C207	C	1.315874	0.500255	0.203399
C208	C	1.565874	0.750255	0.453399
C209	C	0.887321	0.000215	0.156316
C210	C	1.137321	0.250215	0.406316
C211	C	1.387321	0.500215	0.656316
C212	C	1.637321	0.750215	0.906316
C213	C	0.886260	0.000227	0.228763
C214	C	1.136260	0.250227	0.478763
C215	C	1.386260	0.500227	0.728763
C216	C	1.636260	0.750227	0.978763
C217	C	0.822428	0.000211	0.256511
C218	C	1.072428	0.250211	0.506511
C219	C	1.322428	0.500211	0.756511
C220	C	1.572428	0.750211	1.006511
C221	C	0.759652	0.000204	0.211805
C222	C	1.009652	0.250204	0.461805
C223	C	1.259652	0.500204	0.711805
C224	C	1.509652	0.750204	0.961805
C225	C	0.760714	0.000200	0.139359
C226	C	1.010714	0.250200	0.389359
C227	C	1.260714	0.500200	0.639359
C228	C	1.510714	0.750200	0.889359
C229	C	0.772242	-0.043900	0.364799
C230	C	1.022242	0.206100	0.614799
C231	C	1.272242	0.456100	0.864799
C232	C	1.522242	0.706100	1.114799
C233	C	0.771182	-0.043901	0.437244
C234	C	1.021182	0.206099	0.687244
C235	C	1.271182	0.456099	0.937244
C236	C	1.521182	0.706099	1.187244
C237	C	0.819148	0.000228	0.479956
C238	C	1.069148	0.250228	0.729956
C239	C	1.319148	0.500228	0.979956
C240	C	1.569148	0.750228	1.229956
C241	C	0.868186	0.044346	0.450217
C242	C	1.118186	0.294346	0.700217
C243	C	1.368186	0.544346	0.950217
C244	C	1.618186	0.794346	1.200217
C245	C	0.869249	0.044342	0.377772
C246	C	1.119249	0.294342	0.627772
C247	C	1.369249	0.544342	0.877772
C248	C	1.619249	0.794342	1.127772
C249	C	0.821269	0.000216	0.335065
C250	C	1.071269	0.250216	0.585065
C251	C	1.321269	0.500216	0.835065
C252	C	1.571269	0.750216	1.085065
C253	C	0.880770	0.000253	0.603209
C254	C	1.130770	0.250253	0.853209
C255	C	1.380770	0.500253	1.103209
C256	C	1.630770	0.750253	1.353209
C257	C	0.879707	0.000270	0.675657
C258	C	1.129707	0.250270	0.925657
C259	C	1.379707	0.500270	1.175657
C260	C	1.629707	0.750270	1.425657
C261	C	0.753097	0.000239	0.658697
C262	C	1.003097	0.250239	0.908697
C263	C	1.253097	0.500239	1.158697
C264	C	1.503097	0.750239	1.408697
C265	C	0.754162	0.000230	0.586250
C266	C	1.004162	0.250230	0.836250
C267	C	1.254162	0.500230	1.086250
C268	C	1.504162	0.750230	1.336250
C269	C	0.818001	0.000234	0.558511
C270	C	1.068001	0.250234	0.808511
C271	C	1.318001	0.500234	1.058511
C272	C	1.568001	0.750234	1.308511
H273	H	0.593987	0.000203	-0.211580
H274	H	0.843987	0.250203	0.038420
H275	H	1.093987	0.500203	0.288420
H276	H	1.343987	0.750203	0.538420
H277	H	0.707679	0.000193	0.234401
H278	H	0.957679	0.250193	0.484401
H279	H	1.207679	0.500193	0.734401
H280	H	1.457679	0.750193	0.984401
H281	H	0.709599	0.000190	0.102967
H282	H	0.959599	0.250190	0.352967
H283	H	1.209599	0.500190	0.602967
H284	H	1.459599	0.750190	0.852967
H285	H	0.397755	0.080249	-0.005472
H286	H	0.647755	0.330249	0.244528
H287	H	0.897755	0.580249	0.494528
H288	H	1.147755	0.830249	0.744528
H289	H	0.624756	0.000149	0.018124
H290	H	0.874756	0.250149	0.268124
H291	H	1.124756	0.500149	0.518124
H292	H	1.374756	0.750149	0.768124
H293	H	0.242670	-0.079773	-0.179507
H294	H	0.492670	0.170227	0.070493
H295	H	0.742670	0.420227	0.320493
H296	H	0.992670	0.670227	0.570493
H297	H	0.907245	0.080280	0.484993
H298	H	1.157245	0.330280	0.734993
H299	H	1.407245	0.580280	0.984993
H300	H	1.657245	0.830280	1.234993
H301	H	0.909176	0.080267	0.353561
H302	H	1.159176	0.330267	0.603561
H303	H	1.409176	0.580267	0.853561
H304	H	1.659176	0.830267	1.103561
H305	H	0.177866	0.000245	0.024674
H306	H	0.427866	0.250245	0.274674
H307	H	0.677866	0.500245	0.524674
H308	H	0.927866	0.750245	0.774674
H309	H	0.493322	0.000194	0.020044
H310	H	0.743322	0.250194	0.270044
H311	H	0.993322	0.500194	0.520044
H312	H	1.243322	0.750194	0.770044
H313	H	0.744014	-0.186357	-0.016234
H314	H	0.994014	0.063643	0.233766
H315	H	1.244014	0.313643	0.483766
H316	H	1.494014	0.563643	0.733766
H317	H	0.939303	0.000221	0.133736
H318	H	1.189303	0.250221	0.383736
H319	H	1.439303	0.500221	0.633736
H320	H	1.689303	0.750221	0.883736
H321	H	0.462561	0.000217	-0.209652
H322	H	0.712561	0.250217	0.040348
H323	H	0.962561	0.500217	0.290348
H324	H	1.212561	0.750217	0.540348
H325	H	0.896370	-0.186245	-0.168731
H326	H	1.146370	0.063755	0.081269
H327	H	1.396370	0.313755	0.331269
H328	H	1.646370	0.563755	0.581269
H329	H	0.374102	-0.079796	-0.181437
H330	H	0.624102	0.170204	0.068563
H331	H	0.874102	0.420204	0.318563
H332	H	1.124102	0.670204	0.568563
H333	H	0.015674	0.000295	-0.203099
H334	H	0.265674	0.250295	0.046901
H335	H	0.515674	0.500295	0.296901
H336	H	0.765674	0.750295	0.546901
H337	H	0.147101	0.000275	-0.205028
H338	H	0.397101	0.250275	0.044972
H339	H	0.647101	0.500275	0.294972
H340	H	0.897101	0.750275	0.544972
H341	H	0.744024	-0.330128	-0.016245
H342	H	0.994024	-0.080128	0.233755
H343	H	1.244024	0.169872	0.483755
H344	H	1.494024	0.419872	0.733755
H345	H	0.930822	0.000284	0.712049
H346	H	1.180822	0.250284	0.962049
H347	H	1.430822	0.500284	1.212049
H348	H	1.680822	0.750284	1.462049
H349	H	0.932751	0.000260	0.580622
H350	H	1.182751	0.250260	0.830622
H351	H	1.432751	0.500260	1.080622
H352	H	1.682751	0.750260	1.330622
H353	H	0.703049	0.000216	0.549857
H354	H	0.953049	0.250216	0.799857
H355	H	1.203049	0.500216	1.049857
H356	H	1.453049	0.750216	1.299857
H357	H	0.701123	0.000230	0.681288
H358	H	0.951123	0.250230	0.931288
H359	H	1.201123	0.500230	1.181288
H360	H	1.451123	0.750230	1.431288
H361	H	0.896404	-0.669424	-0.168739
H362	H	1.146404	-0.419424	0.081261
H363	H	1.396404	-0.169424	0.331261
H364	H	1.646404	0.080576	0.581261
H365	H	0.744056	-0.813308	-0.016250
H366	H	0.994056	-0.563308	0.233750
H367	H	1.244056	-0.313308	0.483750
H368	H	1.494056	-0.063308	0.733750
H369	H	0.046435	0.000318	0.026600
H370	H	0.296435	0.250318	0.276600
H371	H	0.546435	0.500318	0.526600
H372	H	0.796435	0.750318	0.776600
H373	H	0.731249	-0.079820	0.461451
H374	H	0.981249	0.170180	0.711451
H375	H	1.231249	0.420180	0.961451
H376	H	1.481249	0.670180	1.211451
H377	H	0.266331	0.080274	-0.003547
H378	H	0.516331	0.330274	0.246453
H379	H	0.766331	0.580274	0.496453
H380	H	1.016331	0.830274	0.746453
H381	H	0.733180	-0.079839	0.330028
H382	H	0.983180	0.170161	0.580028
H383	H	1.233180	0.420161	0.830028
H384	H	1.483180	0.670161	1.080028
H385	H	0.896426	-0.813188	-0.168728
H386	H	1.146426	-0.563188	0.081272
H387	H	1.396426	-0.313188	0.331272
H388	H	1.646426	-0.063188	0.581272
H389	H	0.937375	0.000240	0.265162
H390	H	1.187375	0.250240	0.515162
H391	H	1.437375	0.500240	0.765162
H392	H	1.687375	0.750240	1.015162
H393	H	0.744044	-0.669540	-0.016248
H394	H	0.994044	-0.419540	0.233752
H395	H	1.244044	-0.169540	0.483752
H396	H	1.494044	0.080460	0.733752
H397	H	0.896382	-0.330009	-0.168730
H398	H	1.146382	-0.080009	0.081270
H399	H	1.396382	0.169991	0.331270
H400	H	1.646382	0.419991	0.581270
