data_functionalizedCrystal
_audit_creation_method	'MofGen! by Chris Wilmer'
_symmetry_space_group_name_H-M	'P1'
_symmetry_Int_Tables_number	1
_symmetry_cell_setting	triclinic
loop_
_symmetry_equiv_pos_as_xyz
  x,y,z
_cell_length_a	21.295418
_cell_length_b	21.295417
_cell_length_c	21.295411
_cell_angle_alpha	89.978356
_cell_angle_beta	89.956262
_cell_angle_gamma	90.046319
loop_
_atom_site_label
_atom_site_type_symbol
_atom_site_fract_x
_atom_site_fract_y
_atom_site_fract_z
Zn1	Zn	0.962356	-0.250415	-0.356234
Zn2	Zn	1.462356	0.249585	0.143766
Zn3	Zn	0.962258	-0.355667	-0.250959
Zn4	Zn	1.462258	0.144333	0.249041
Zn5	Zn	0.857079	-0.250445	-0.250943
Zn6	Zn	1.357079	0.249555	0.249057
Zn7	Zn	0.857048	-0.355680	-0.356155
Zn8	Zn	1.357048	0.144320	0.143845
O9	O	0.909685	-0.303052	-0.303573
O10	O	1.409685	0.196948	0.196427
O11	O	1.050432	-0.264360	-0.342308
O12	O	1.550432	0.235640	0.157692
O13	O	0.948278	-0.341716	-0.162867
O14	O	1.448278	0.158284	0.337133
O15	O	0.871098	-0.162351	-0.264937
O16	O	1.371098	0.337649	0.235063
O17	O	1.050361	-0.341688	-0.264963
O18	O	1.550361	0.158312	0.235037
O19	O	0.948444	-0.162330	-0.342293
O20	O	1.448444	0.337670	0.157707
O21	O	0.871003	-0.264410	-0.162856
O22	O	1.371003	0.235590	0.337144
O23	O	0.768985	-0.264422	-0.264861
O24	O	1.268985	0.235578	0.235139
O25	O	0.871046	-0.341709	-0.444255
O26	O	1.371046	0.158291	0.055745
O27	O	0.768963	-0.341738	-0.342160
O28	O	1.268963	0.158262	0.157840
O29	O	0.948415	-0.264372	-0.444313
O30	O	1.448415	0.235628	0.055687
O31	O	0.948248	-0.443758	-0.264887
O32	O	1.448248	0.056242	0.235113
O33	O	0.870951	-0.443767	-0.342175
O34	O	1.370951	0.056233	0.157825
C35	C	0.746134	-0.303085	-0.303500
C36	C	1.246134	0.196915	0.196500
C37	C	0.676166	-0.303114	-0.303484
C38	C	1.176166	0.196886	0.196516
C39	C	0.909603	-0.466603	-0.303538
C40	C	1.409603	0.033397	0.196462
C41	C	0.909625	-0.536571	-0.303544
C42	C	1.409625	-0.036571	0.196456
C43	C	0.643304	-0.343426	-0.343674
C44	C	1.143304	0.156574	0.156326
C45	C	0.577561	-0.343410	-0.343702
C46	C	1.077561	0.156590	0.156298
C47	C	0.544683	-0.303090	-0.303530
C48	C	1.044683	0.196910	0.196470
C49	C	0.577553	-0.262770	-0.263337
C50	C	1.077553	0.237230	0.236663
C51	C	0.643294	-0.262783	-0.263315
C52	C	1.143294	0.237217	0.236685
N53	N	0.441407	-0.298163	-0.248472
N54	N	0.941407	0.201837	0.251528
N55	N	0.378956	-0.298155	-0.248495
N56	N	0.878956	0.201845	0.251505
C57	C	0.346608	-0.303050	-0.303596
C58	C	0.846608	0.196950	0.196404
N59	N	0.379072	-0.307965	-0.358675
N60	N	0.879072	0.192035	0.141325
N61	N	0.441529	-0.307976	-0.358650
N62	N	0.941529	0.192024	0.141350
C63	C	0.473398	-0.303072	-0.303550
C64	C	0.973398	0.196928	0.196450
C65	C	0.242461	-0.343346	-0.343820
C66	C	0.742461	0.156654	0.156180
C67	C	0.176717	-0.343326	-0.343849
C68	C	0.676717	0.156674	0.156151
C69	C	0.176710	-0.262690	-0.263479
C70	C	0.676710	0.237310	0.236521
C71	C	0.242453	-0.262707	-0.263455
C72	C	0.742453	0.237293	0.236545
C73	C	0.275324	-0.303038	-0.303625
C74	C	0.775324	0.196962	0.196375
C75	C	0.949910	-0.569412	-0.263342
C76	C	1.449910	-0.069412	0.236658
C77	C	0.949939	-0.635155	-0.263356
C78	C	1.449939	-0.135155	0.236644
C79	C	0.909673	-0.668054	-0.303566
C80	C	1.409673	-0.168054	0.196434
C81	C	0.869386	-0.635205	-0.343776
C82	C	1.369386	-0.135205	0.156224
C83	C	0.869362	-0.569464	-0.343765
C84	C	1.369362	-0.069464	0.156235
N85	N	0.854606	-0.771336	-0.308340
N86	N	1.354606	-0.271336	0.191660
N87	N	0.854630	-0.833787	-0.308347
N88	N	1.354630	-0.333787	0.191653
C89	C	0.909743	-0.866129	-0.303602
C90	C	1.409743	-0.366129	0.196398
N91	N	0.964832	-0.833659	-0.298838
N92	N	1.464832	-0.333659	0.201162
N93	N	0.964807	-0.771202	-0.298828
N94	N	1.464807	-0.271202	0.201172
C95	C	0.909695	-0.739339	-0.303582
C96	C	1.409695	-0.239339	0.196418
C97	C	0.950063	-0.970255	-0.263413
C98	C	1.450063	-0.470255	0.236587
C99	C	0.950094	-1.035999	-0.263431
C100	C	1.450094	-0.535999	0.236569
C101	C	0.869535	-1.036048	-0.343848
C102	C	1.369535	-0.536048	0.156152
C103	C	0.869510	-0.970305	-0.343833
C104	C	1.369510	-0.470305	0.156167
C105	C	0.909773	-0.937413	-0.303612
C106	C	1.409773	-0.437413	0.196388
C107	C	1.073876	-0.303019	-0.303646
C108	C	1.573876	0.196981	0.196354
C109	C	1.143844	-0.303005	-0.303677
C110	C	1.643844	0.196995	0.196323
C111	C	0.909738	-0.303038	-0.467763
C112	C	1.409738	0.196962	0.032237
C113	C	0.909760	-0.303033	-0.537731
C114	C	1.409760	0.196967	-0.037731
C115	C	0.909785	-0.138861	-0.303622
C116	C	1.409785	0.361139	0.196378
C117	C	0.909828	-0.068893	-0.303642
C118	C	1.409828	0.431107	0.196358
C119	C	0.950044	-0.262761	-0.570629
C120	C	1.450044	0.237239	-0.070629
C121	C	0.950043	-0.262734	-0.636371
C122	C	1.450043	0.237266	-0.136371
C123	C	0.909765	-0.302989	-0.669214
C124	C	1.409765	0.197011	-0.169214
C125	C	0.869473	-0.343263	-0.636308
C126	C	1.369473	0.156737	-0.136308
C127	C	0.869470	-0.343285	-0.570567
C128	C	1.369470	0.156715	-0.070567
N129	N	0.904908	-0.358058	-0.772428
N130	N	1.404908	0.141942	-0.272428
N131	N	0.904914	-0.358036	-0.834879
N132	N	1.404914	0.141964	-0.334879
C133	C	0.909769	-0.302926	-0.867289
C134	C	1.409769	0.197074	-0.367289
N135	N	0.914629	-0.247837	-0.834888
N136	N	1.414629	0.252163	-0.334888
N137	N	0.914627	-0.247860	-0.772430
N138	N	1.414627	0.252140	-0.272430
C139	C	0.909763	-0.302970	-0.740499
C140	C	1.409763	0.197030	-0.240499
C141	C	0.950054	-0.262621	-0.971472
C142	C	1.450054	0.237379	-0.471472
C143	C	0.950049	-0.262593	-1.037216
C144	C	1.450049	0.237407	-0.537216
C145	C	0.869482	-0.343128	-1.037151
C146	C	1.369482	0.156872	-0.537151
C147	C	0.869484	-0.343151	-0.971409
C148	C	1.369484	0.156849	-0.471409
C149	C	0.909773	-0.302898	-0.938573
C150	C	1.409773	0.197102	-0.438573
C151	C	0.909670	-0.303019	-0.140021
C152	C	1.409670	0.196981	0.359979
C153	C	0.909769	-0.302848	-0.070054
C154	C	1.409769	0.197152	0.429946
H155	H	0.670063	-0.376266	-0.376384
H156	H	1.170063	0.123734	0.123616
O157	O	0.830272	-0.382321	-0.538580
O158	O	1.330272	0.117679	-0.038580
C159	C	0.789647	-0.346506	-0.500509
C160	C	1.289647	0.153494	-0.000509
H161	H	0.785788	-0.296920	-0.520317
H162	H	1.285788	0.203080	-0.020317
H163	H	0.809113	-0.344352	-0.450700
H164	H	1.309113	0.155648	0.049300
C165	C	0.728930	-0.438176	-0.475118
C166	C	1.228930	0.061824	0.024882
C167	C	0.724185	-0.377275	-0.499451
C168	C	1.224185	0.122725	0.000549
H169	H	0.688550	-0.457157	-0.474463
H170	H	1.188550	0.042843	0.025537
H171	H	0.756301	-0.462306	-0.500766
H172	H	1.256301	0.037694	-0.000766
H173	H	0.745153	-0.436373	-0.433613
H174	H	1.245153	0.063627	0.066387
H175	H	0.707969	-0.379080	-0.540957
H176	H	1.207969	0.120920	-0.040957
H177	H	0.696810	-0.353146	-0.473810
H178	H	1.196810	0.146854	0.026190
H179	H	0.982852	-0.229795	-1.064000
H180	H	1.482852	0.270205	-0.564000
O181	O	0.989204	-0.223458	-0.939668
O182	O	1.489204	0.276542	-0.439668
C183	C	1.024768	-0.187912	-0.982806
C184	C	1.524768	0.312088	-0.482806
H185	H	0.998985	-0.185721	-1.029649
H186	H	1.498985	0.314279	-0.529649
H187	H	1.072563	-0.210950	-0.989834
H188	H	1.572563	0.289050	-0.489834
C189	C	1.065545	-0.123613	-0.899622
C190	C	1.565545	0.376387	-0.399622
C191	C	1.033876	-0.120918	-0.957154
C192	C	1.533876	0.379082	-0.457154
H193	H	1.071167	-0.082289	-0.883799
H194	H	1.571167	0.417711	-0.383799
H195	H	1.041587	-0.147562	-0.870559
H196	H	1.541587	0.352438	-0.370559
H197	H	1.105371	-0.142814	-0.905487
H198	H	1.605371	0.357186	-0.405487
H199	H	0.994048	-0.101725	-0.951288
H200	H	1.494048	0.398275	-0.451288
H201	H	1.057827	-0.096964	-0.986216
H202	H	1.557827	0.403036	-0.486216
O203	O	0.830431	-0.938302	-0.382860
O204	O	1.330431	-0.438302	0.117140
C205	C	0.839032	-0.873224	-0.374217
C206	C	1.339032	-0.373224	0.125783
H207	H	0.887619	-0.864199	-0.353661
H208	H	1.387619	-0.364199	0.146339
H209	H	0.801703	-0.854630	-0.340644
H210	H	1.301703	-0.354630	0.159356
C211	C	0.773543	-0.850527	-0.463143
C212	C	1.273543	-0.350527	0.036857
C213	C	0.833221	-0.839442	-0.437901
C214	C	1.333221	-0.339442	0.062099
H215	H	0.769956	-0.829688	-0.502425
H216	H	1.269956	-0.329688	-0.002425
H217	H	0.767746	-0.894371	-0.468966
H218	H	1.267746	-0.394371	0.031034
H219	H	0.742443	-0.835032	-0.435160
H220	H	1.242443	-0.335032	0.064840
H221	H	0.864319	-0.854944	-0.465880
H222	H	1.364319	-0.354944	0.034120
H223	H	0.839023	-0.795599	-0.432085
H224	H	1.339023	-0.295599	0.067915
O225	O	0.989196	-0.223598	-0.538831
O226	O	1.489196	0.276402	-0.038831
C227	C	1.024763	-0.188058	-0.581970
C228	C	1.524763	0.311942	-0.081970
H229	H	0.998982	-0.185870	-0.628815
H230	H	1.498982	0.314130	-0.128815
H231	H	1.072557	-0.211099	-0.588994
H232	H	1.572557	0.288901	-0.088994
C233	C	1.065540	-0.123753	-0.498791
C234	C	1.565540	0.376247	0.001209
C235	C	1.033873	-0.121062	-0.556325
C236	C	1.533873	0.378938	-0.056325
H237	H	1.071163	-0.082428	-0.482971
H238	H	1.571163	0.417572	0.017029
H239	H	1.041580	-0.147699	-0.469727
H240	H	1.541580	0.352301	0.030273
H241	H	1.105366	-0.142957	-0.504652
H242	H	1.605366	0.357043	-0.004652
H243	H	0.994046	-0.101866	-0.550461
H244	H	1.494046	0.398134	-0.050461
H245	H	1.057827	-0.097112	-0.585388
H246	H	1.557827	0.402888	-0.085388
O247	O	0.830338	-0.667132	-0.382925
O248	O	1.330338	-0.167132	0.117075
C249	C	0.844050	-0.651008	-0.445679
C250	C	1.344050	-0.151008	0.054321
H251	H	0.894331	-0.632876	-0.448916
H252	H	1.394331	-0.132876	0.051084
H253	H	0.810280	-0.612878	-0.462087
H254	H	1.310280	-0.112878	0.037913
C255	C	0.774970	-0.731665	-0.483713
C256	C	1.274970	-0.231665	0.016287
C257	C	0.836727	-0.709399	-0.487690
C258	C	1.336727	-0.209399	0.012310
H259	H	0.770450	-0.767682	-0.509629
H260	H	1.270450	-0.267682	-0.009629
H261	H	0.765729	-0.742527	-0.441435
H262	H	1.265729	-0.242527	0.058565
H263	H	0.746835	-0.699885	-0.497385
H264	H	1.246835	-0.199885	0.002615
H265	H	0.864860	-0.741176	-0.474011
H266	H	1.364860	-0.241176	0.025989
H267	H	0.845972	-0.698544	-0.529967
H268	H	1.345972	-0.198544	-0.029967
O269	O	0.830378	-0.382457	-0.668139
O270	O	1.330378	0.117543	-0.168139
C271	C	0.844106	-0.445199	-0.652091
C272	C	1.344106	0.054801	-0.152091
H273	H	0.868301	-0.446513	-0.604375
H274	H	1.368301	0.053487	-0.104375
H275	H	0.876459	-0.466384	-0.689112
H276	H	1.376459	0.033616	-0.189112
C277	C	0.752998	-0.481728	-0.707612
C278	C	1.252998	0.018272	-0.207612
C279	C	0.782710	-0.483342	-0.649004
C280	C	1.282710	0.016658	-0.149004
H281	H	0.715126	-0.505258	-0.705711
H282	H	1.215126	-0.005258	-0.205711
H283	H	0.743750	-0.439458	-0.718426
H284	H	1.243750	0.060542	-0.218426
H285	H	0.779965	-0.499381	-0.738457
H286	H	1.279965	0.000619	-0.238457
H287	H	0.755746	-0.465682	-0.618162
H288	H	1.255746	0.034318	-0.118162
H289	H	0.791951	-0.525611	-0.638185
H290	H	1.291951	-0.025611	-0.138185
H291	H	0.836680	-0.375898	-1.063891
H292	H	1.336680	0.124102	-0.563891
H293	H	0.982850	-0.943473	-0.230664
H294	H	1.482850	-0.443473	0.269336
H295	H	0.836752	-1.062833	-0.376591
H296	H	1.336752	-0.562833	0.123409
O297	O	0.989054	-0.537391	-0.224365
O298	O	1.489054	-0.037391	0.275635
C299	C	1.029692	-0.499310	-0.260250
C300	C	1.529692	0.000690	0.239750
H301	H	1.007465	-0.489462	-0.307926
H302	H	1.507465	0.010538	0.192074
H303	H	1.076347	-0.524588	-0.267227
H304	H	1.576347	-0.024588	0.232773
C305	C	1.068385	-0.448962	-0.167064
C306	C	1.568385	0.051038	0.332936
C307	C	1.041082	-0.436863	-0.225619
C308	C	1.541082	0.063137	0.274381
H309	H	1.075413	-0.410442	-0.145701
H310	H	1.575413	0.089558	0.354299
H311	H	1.041008	-0.474619	-0.142887
H312	H	1.541008	0.025381	0.357113
H313	H	1.107261	-0.470029	-0.172887
H314	H	1.607261	0.029971	0.327113
H315	H	1.002203	-0.415803	-0.219795
H316	H	1.502203	0.084197	0.280205
H317	H	1.068452	-0.411200	-0.249794
H318	H	1.568452	0.088800	0.250206
O319	O	0.144696	-0.382427	-0.382872
O320	O	0.644696	0.117573	0.117128
C321	C	0.079622	-0.373778	-0.374272
C322	C	0.579622	0.126222	0.125728
H323	H	0.070669	-0.325164	-0.353753
H324	H	0.570669	0.174836	0.146247
H325	H	0.060888	-0.411060	-0.340684
H326	H	0.560888	0.088940	0.159316
C327	C	0.056932	-0.439347	-0.463167
C328	C	0.556932	0.060653	0.036833
C329	C	0.045936	-0.379637	-0.437970
C330	C	0.545936	0.120363	0.062030
H331	H	0.036152	-0.442964	-0.502458
H332	H	0.536152	0.057036	-0.002458
H333	H	0.100773	-0.445177	-0.468960
H334	H	0.600773	0.054823	0.031040
H335	H	0.041320	-0.470409	-0.435171
H336	H	0.541320	0.029591	0.064829
H337	H	0.061554	-0.348577	-0.465962
H338	H	0.561554	0.151423	0.034038
H339	H	0.002096	-0.373802	-0.432183
H340	H	0.502096	0.126198	0.067817
H341	H	0.836683	-0.375948	-0.944623
H342	H	1.336683	0.124052	-0.444623
H343	H	0.836557	-0.542724	-0.376503
H344	H	1.336557	-0.042724	0.123497
H345	H	0.149942	-0.229857	-0.230773
H346	H	0.649942	0.270143	0.269227
H347	H	0.982902	-1.062737	-0.230695
H348	H	1.482902	-0.562737	0.269305
H349	H	0.550800	-0.376236	-0.376431
H350	H	1.050800	0.123764	0.123569
O351	O	0.274424	-0.382584	-0.382754
O352	O	0.774424	0.117416	0.117246
C353	C	0.312380	-0.423190	-0.346828
C354	C	0.812380	0.076810	0.153172
H355	H	0.292508	-0.427002	-0.297250
H356	H	0.792508	0.072998	0.202750
H357	H	0.362222	-0.403735	-0.344677
H358	H	0.862222	0.096265	0.155323
C359	C	0.337762	-0.483990	-0.438356
C360	C	0.837762	0.016010	0.061644
C361	C	0.313352	-0.488678	-0.377465
C362	C	0.813352	0.011322	0.122535
H363	H	0.338365	-0.524386	-0.457255
H364	H	0.838365	-0.024386	0.042745
H365	H	0.312192	-0.456633	-0.462561
H366	H	0.812192	0.043367	0.037439
H367	H	0.379295	-0.467776	-0.436555
H368	H	0.879295	0.032224	0.063445
H369	H	0.271818	-0.504884	-0.379267
H370	H	0.771818	-0.004884	0.120733
H371	H	0.338915	-0.516040	-0.353261
H372	H	0.838915	-0.016040	0.146739
O373	O	0.545689	-0.223635	-0.224224
O374	O	1.045689	0.276365	0.275776
C375	C	0.561662	-0.237313	-0.161454
C376	C	1.061662	0.262687	0.338546
H377	H	0.609370	-0.261519	-0.160091
H378	H	1.109370	0.238481	0.339909
H379	H	0.524608	-0.269639	-0.140202
H380	H	1.024608	0.230361	0.359798
C381	C	0.506126	-0.146161	-0.125110
C382	C	1.006126	0.353839	0.374890
C383	C	0.564723	-0.175885	-0.123435
C384	C	1.064723	0.324115	0.376565
H385	H	0.508012	-0.108270	-0.101657
H386	H	1.008012	0.391730	0.398343
H387	H	0.495362	-0.136946	-0.167399
H388	H	0.995362	0.363054	0.332601
H389	H	0.475254	-0.173106	-0.107401
H390	H	0.975254	0.326894	0.392599
H391	H	0.595593	-0.148944	-0.141151
H392	H	1.095593	0.351056	0.358849
H393	H	0.575493	-0.185094	-0.081148
H394	H	1.075493	0.314906	0.418852
O395	O	0.675289	-0.223713	-0.224239
O396	O	1.175289	0.276287	0.275761
C397	C	0.713220	-0.259503	-0.183490
C398	C	1.213220	0.240497	0.316510
H399	H	0.723042	-0.307243	-0.205600
H400	H	1.223042	0.192757	0.294400
H401	H	0.687823	-0.266344	-0.136837
H402	H	1.187823	0.233656	0.363163
C403	C	0.763627	-0.166232	-0.144978
C404	C	1.263627	0.333768	0.355022
C405	C	0.775696	-0.224866	-0.172136
C406	C	1.275696	0.275134	0.327864
H407	H	0.802164	-0.144866	-0.137971
H408	H	1.302164	0.355134	0.362029
H409	H	0.738070	-0.142119	-0.172428
H410	H	1.238070	0.357881	0.327572
H411	H	0.742462	-0.171942	-0.106103
H412	H	1.242462	0.328058	0.393897
H413	H	0.796853	-0.219155	-0.211013
H414	H	1.296853	0.280845	0.288987
H415	H	0.801257	-0.248977	-0.144691
H416	H	1.301257	0.251023	0.355309
H417	H	0.982746	-0.661899	-0.230619
H418	H	1.482746	-0.161899	0.269381
O419	O	0.274281	-0.223532	-0.224351
O420	O	0.774281	0.276468	0.275649
C421	C	0.231167	-0.187928	-0.188910
C422	C	0.731167	0.312072	0.311090
H423	H	0.184276	-0.213699	-0.186699
H424	H	0.684276	0.286301	0.313301
H425	H	0.224249	-0.140152	-0.212054
H426	H	0.724249	0.359848	0.287946
C427	C	0.314353	-0.147108	-0.124638
C428	C	0.814353	0.352892	0.375362
C429	C	0.256762	-0.178763	-0.121917
C430	C	0.756762	0.321237	0.378083
H431	H	0.330141	-0.141452	-0.083315
H432	H	0.830141	0.358548	0.416685
H433	H	0.343400	-0.171093	-0.148516
H434	H	0.843400	0.328907	0.351484
H435	H	0.308579	-0.107298	-0.143927
H436	H	0.808579	0.392702	0.356073
H437	H	0.262537	-0.218575	-0.102636
H438	H	0.762537	0.281425	0.397364
H439	H	0.227716	-0.154785	-0.098034
H440	H	0.727716	0.345215	0.401966
O441	O	0.989090	-0.223550	-0.668366
O442	O	1.489090	0.276450	-0.168366
C443	C	0.953285	-0.182895	-0.706385
C444	C	1.453285	0.317105	-0.206385
H445	H	0.903709	-0.179012	-0.686537
H446	H	1.403709	0.320988	-0.186537
H447	H	0.951102	-0.202348	-0.756205
H448	H	1.451102	0.297652	-0.256205
C449	C	1.044980	-0.122224	-0.731807
C450	C	1.544980	0.377776	-0.231807
C451	C	0.984091	-0.117450	-0.707426
C452	C	1.484091	0.382550	-0.207426
H453	H	1.063983	-0.081855	-0.732452
H454	H	1.563983	0.418145	-0.232452
H455	H	1.069104	-0.149614	-0.706195
H456	H	1.569104	0.350386	-0.206195
H457	H	1.043152	-0.138436	-0.773321
H458	H	1.543152	0.361564	-0.273321
H459	H	0.985920	-0.101245	-0.665910
H460	H	1.485920	0.398755	-0.165910
H461	H	0.959968	-0.090055	-0.733031
H462	H	1.459968	0.409945	-0.233031
