data_functionalizedCrystal
_audit_creation_method	'MofGen! by Chris Wilmer'
_symmetry_space_group_name_H-M	'P1'
_symmetry_Int_Tables_number	1
_symmetry_cell_setting	triclinic
loop_
_symmetry_equiv_pos_as_xyz
  x,y,z
_cell_length_a	19.805407
_cell_length_b	12.645330
_cell_length_c	19.805399
_cell_angle_alpha	90.023856
_cell_angle_beta	90.019573
_cell_angle_gamma	90.012646
loop_
_atom_site_label
_atom_site_type_symbol
_atom_site_fract_x
_atom_site_fract_y
_atom_site_fract_z
Zn1	Zn	1.034800	-0.422064	0.382737
Zn2	Zn	1.034742	-0.599342	0.269556
Zn3	Zn	0.921615	-0.422093	0.269562
Zn4	Zn	0.921606	-0.599286	0.382703
O5	O	0.978191	-0.510696	0.326140
O6	O	1.129509	-0.445592	0.367735
O7	O	1.019715	-0.575865	0.174840
O8	O	0.936657	-0.273742	0.284591
O9	O	1.129467	-0.575837	0.284582
O10	O	1.019814	-0.273721	0.367741
O11	O	0.936601	-0.445641	0.174844
O12	O	0.826897	-0.445587	0.284558
O13	O	0.936642	-0.575741	0.477424
O14	O	0.826890	-0.575769	0.367683
O15	O	1.019805	-0.445537	0.477449
O16	O	1.019706	-0.747682	0.284549
O17	O	0.936585	-0.747640	0.367677
C18	C	0.802335	-0.510676	0.326118
C19	C	0.727103	-0.510693	0.326124
C20	C	0.978157	-0.786126	0.326124
C21	C	0.978204	-0.903956	0.326139
C22	C	0.691773	-0.578581	0.369337
C23	C	0.621084	-0.578583	0.369347
C24	C	0.585727	-0.510701	0.326140
C25	C	0.621062	-0.442805	0.282925
C26	C	0.691749	-0.442799	0.282919
C27	C	0.335989	-0.442829	0.282947
C28	C	0.265297	-0.442843	0.282955
C29	C	0.265324	-0.578613	0.369375
C30	C	0.336011	-0.578606	0.369369
C31	C	0.371340	-0.510707	0.326157
C32	C	0.447988	-0.510705	0.326148
C33	C	0.509080	-0.510708	0.326145
C34	C	1.030412	-1.071502	0.273737
C35	C	1.030582	-0.948942	0.273865
C36	C	0.997546	-0.948344	0.397486
C37	C	0.997960	-1.070942	0.397208
C38	C	0.906635	-1.071282	0.307898
C39	C	0.906978	-0.948677	0.306298
C40	C	1.154734	-0.510717	0.326162
C41	C	1.229966	-0.510726	0.326171
C42	C	0.978229	-0.510629	0.502682
C43	C	0.978245	-0.510601	0.577914
C44	C	0.978243	-0.234191	0.326170
C45	C	0.978266	-0.116361	0.326184
C46	C	0.978192	-0.510686	0.150284
C47	C	0.978307	-0.510416	0.075052
C48	C	1.021549	-0.442800	0.613273
C49	C	1.021556	-0.442770	0.683961
C50	C	0.978262	-0.510546	0.719290
C51	C	0.934953	-0.578349	0.683927
C52	C	0.934943	-0.578374	0.613240
C53	C	0.934991	-0.578250	0.969000
C54	C	0.935006	-0.578223	1.039692
C55	C	1.021604	-0.442646	1.039722
C56	C	1.021594	-0.442671	0.969035
C57	C	0.978283	-0.510470	0.933678
C58	C	0.978275	-0.510501	0.857029
C59	C	0.978273	-0.510521	0.795937
H60	H	0.720556	-0.633862	0.404519
C61	C	0.582224	-0.653324	0.416839
H62	H	0.613406	-0.693779	0.442553
H63	H	0.554646	-0.612898	0.446394
H64	H	0.554654	-0.699444	0.390856
H65	H	0.899699	-0.633530	0.712697
H66	H	0.364796	-0.633886	0.404551
H67	H	1.056821	-0.387562	0.712747
H68	H	0.899747	-0.633416	1.068455
H69	H	0.236551	-0.633895	0.404563
C70	C	1.102249	-0.909202	0.290211
H71	H	1.102600	-0.834075	0.290340
H72	H	1.115500	-0.934548	0.333370
H73	H	1.132864	-0.934455	0.256997
H74	H	0.899734	-0.633472	0.940221
H75	H	1.018481	-0.918934	0.220963
C76	C	1.014342	-1.111560	0.202077
H77	H	0.975683	-1.155993	0.203497
H78	H	1.005687	-1.053022	0.173305
H79	H	1.051760	-1.150442	0.185226
H80	H	0.236511	-0.387559	0.247770
H81	H	1.050318	-1.099456	0.412697
H82	H	0.899673	-0.633573	0.584452
H83	H	0.364745	-0.387549	0.247756
C84	C	1.101701	-1.113001	0.289895
H85	H	1.099824	-1.157543	0.328465
H86	H	1.118355	-1.152032	0.252448
H87	H	1.130904	-1.055020	0.298754
C88	C	0.947791	-0.909012	0.451692
H89	H	0.960413	-0.936799	0.494430
H90	H	0.948793	-0.833951	0.453366
H91	H	0.903464	-0.932048	0.440722
C92	C	0.582171	-0.368140	0.235396
H93	H	0.535012	-0.377875	0.241582
H94	H	0.593765	-0.296931	0.245376
H95	H	0.593738	-0.383571	0.189899
C96	C	0.730612	-0.368120	0.235386
H97	H	0.699432	-0.327698	0.209651
H98	H	0.758202	-0.321984	0.261330
H99	H	0.758172	-0.408611	0.205844
C100	C	1.069216	-0.368118	0.930173
H101	H	1.063011	-0.377849	0.883010
H102	H	1.059325	-0.296886	0.941765
H103	H	1.114695	-0.383639	0.941764
C104	C	1.069242	-0.368060	1.078616
H105	H	1.063045	-0.377741	1.125775
H106	H	1.114714	-0.383588	1.067039
H107	H	1.059346	-0.296831	1.067036
H108	H	1.049313	-0.917557	0.413233
C109	C	0.948889	-1.111032	0.451803
H110	H	0.928794	-1.052388	0.474057
H111	H	0.914686	-1.152841	0.431325
H112	H	0.972926	-1.152583	0.483721
C113	C	0.882876	-1.113153	0.238837
H114	H	0.916424	-1.158522	0.220507
H115	H	0.841952	-1.151381	0.244327
H116	H	0.875610	-1.055380	0.209062
H117	H	0.892395	-0.919676	0.253792
C118	C	0.851657	-0.907328	0.354115
H119	H	0.871364	-0.862053	0.386956
H120	H	0.818997	-0.869106	0.328858
H121	H	0.830490	-0.965322	0.376047
H122	H	0.867782	-1.100293	0.346097
C123	C	1.069171	-0.368241	0.574417
H124	H	1.094956	-0.327849	0.605602
H125	H	1.098652	-0.408798	0.546841
H126	H	1.043276	-0.322055	0.546845
