data_functionalizedCrystal
_audit_creation_method	'MofGen! by Chris Wilmer'
_symmetry_space_group_name_H-M	'P1'
_symmetry_Int_Tables_number	1
_symmetry_cell_setting	triclinic
loop_
_symmetry_equiv_pos_as_xyz
  x,y,z
_cell_length_a	19.188930
_cell_length_b	17.666332
_cell_length_c	10.540539
_cell_angle_alpha	90.003026
_cell_angle_beta	83.835136
_cell_angle_gamma	90.023133
loop_
_atom_site_label
_atom_site_type_symbol
_atom_site_fract_x
_atom_site_fract_y
_atom_site_fract_z
O1	O	0.927206	0.063188	0.158469
O2	O	1.427206	0.563188	0.658469
O3	O	0.724037	0.063136	0.179802
O4	O	1.224037	0.563136	0.679802
O5	O	0.830257	0.063163	-0.015673
O6	O	1.330257	0.563163	0.484327
O7	O	0.820986	0.063162	0.353944
O8	O	1.320986	0.563162	0.853944
O9	O	0.830238	-0.062734	-0.015678
O10	O	1.330238	0.437266	0.484322
O11	O	0.724018	-0.062761	0.179797
O12	O	1.224018	0.437239	0.679797
O13	O	0.927187	-0.062708	0.158464
O14	O	1.427187	0.437292	0.658464
Cu15	Cu	0.825601	-0.074230	0.169130
Cu16	Cu	1.325601	0.425770	0.669130
Cu17	Cu	0.825623	0.074658	0.169136
Cu18	Cu	1.325623	0.574658	0.669136
O19	O	0.820967	-0.062735	0.353939
O20	O	1.320967	0.437265	0.853939
C21	C	0.698012	0.000181	0.179108
C22	C	1.198012	0.500181	0.679108
C23	C	0.620494	0.000161	0.177035
C24	C	1.120494	0.500161	0.677035
N25	N	0.825590	-0.178949	0.169124
N26	N	1.325590	0.321051	0.669124
C27	C	0.576334	0.000173	0.291733
C28	C	1.076334	0.500173	0.791733
C29	C	0.503497	0.000181	0.289785
C30	C	1.003497	0.500181	0.789785
C31	C	0.474823	0.000193	0.173132
C32	C	0.974823	0.500193	0.673132
C33	C	0.518992	0.000177	0.058418
C34	C	1.018992	0.500177	0.558418
C35	C	0.591827	0.000161	0.060370
C36	C	1.091827	0.500161	0.560370
N37	N	0.366255	0.043072	0.083967
N38	N	0.866255	0.543072	0.583967
N39	N	0.297064	0.043089	0.082121
N40	N	0.797064	0.543089	0.582121
C41	C	0.255375	0.000239	0.167245
C42	C	0.755375	0.500239	0.667245
N43	N	0.285490	-0.042618	0.254304
N44	N	0.785490	0.457382	0.754304
N45	N	0.354687	-0.042631	0.256154
N46	N	0.854687	0.457369	0.756154
C47	C	0.395846	0.000210	0.171003
C48	C	0.895846	0.500210	0.671003
C49	C	0.132237	0.000259	0.279839
C50	C	0.632237	0.500259	0.779839
C51	C	0.059400	0.000263	0.277885
C52	C	0.559400	0.500263	0.777885
C53	C	0.074896	0.000266	0.046516
C54	C	0.574896	0.500266	0.546516
C55	C	0.147732	0.000255	0.048472
C56	C	0.647732	0.500255	0.548472
C57	C	0.176398	0.000255	0.165137
C58	C	0.676398	0.500255	0.665137
C59	C	0.868311	-0.218541	0.245926
C60	C	1.368311	0.281459	0.745926
C61	C	0.868322	-0.297789	0.245922
C62	C	1.368322	0.202211	0.745922
C63	C	0.825600	-0.337441	0.169131
C64	C	1.325600	0.162559	0.669131
C65	C	0.782876	-0.297840	0.092314
C66	C	1.282876	0.202160	0.592314
C67	C	0.782871	-0.218594	0.092311
C68	C	1.282871	0.281406	0.592311
N69	N	0.764430	-0.461897	0.166004
N70	N	1.264430	0.038103	0.666004
N71	N	0.764437	-0.537177	0.166015
N72	N	1.264437	-0.037177	0.666015
C73	C	0.825612	-0.576205	0.169136
C74	C	1.325612	-0.076205	0.669136
N75	N	0.886782	-0.537109	0.172270
N76	N	1.386782	-0.037109	0.672270
N77	N	0.886775	-0.461822	0.172266
N78	N	1.386775	0.038178	0.672266
C79	C	0.825600	-0.423371	0.169126
C80	C	1.325600	0.076629	0.669126
C81	C	0.868349	-0.701727	0.245938
C82	C	1.368349	-0.201727	0.745938
C83	C	0.868362	-0.780976	0.245925
C84	C	1.368362	-0.280976	0.745925
C85	C	0.782909	-0.781025	0.092324
C86	C	1.282909	-0.281025	0.592324
C87	C	0.782903	-0.701778	0.092330
C88	C	1.282903	-0.201778	0.592330
C89	C	0.825622	-0.662133	0.169143
C90	C	1.325622	-0.162133	0.669143
C91	C	0.953212	0.000248	0.159157
C92	C	1.453212	0.500248	0.659157
C93	C	1.030731	0.000273	0.161231
C94	C	1.530731	0.500273	0.661231
C95	C	0.829552	0.000215	-0.062963
C96	C	1.329552	0.500215	0.437037
C97	C	0.827472	0.000219	-0.203866
C98	C	1.327472	0.500219	0.296134
N99	N	0.825639	0.179377	0.169132
N100	N	1.325639	0.679377	0.669132
C101	C	0.747771	0.000481	-0.385536
C102	C	1.247771	0.500481	0.114464
C103	C	0.749879	0.000198	-0.238965
C104	C	1.249879	0.500198	0.261035
C105	C	0.864802	-0.071665	-0.266349
C106	C	1.364802	0.428335	0.233651
C107	C	0.862154	-0.071726	-0.412835
C108	C	1.362154	0.428274	0.087165
C109	C	0.863754	0.071443	-0.413382
C110	C	1.363754	0.571443	0.086618
C111	C	0.864469	0.072393	-0.266416
C112	C	1.364469	0.572393	0.233584
C113	C	0.821672	0.000214	0.401229
C114	C	1.321672	0.500214	0.901229
C115	C	0.823752	0.000216	0.542132
C116	C	1.323752	0.500216	1.042132
H117	H	0.599669	0.000174	0.386731
H118	H	1.099669	0.500174	0.886731
C119	C	0.709909	-0.069554	-0.181671
C120	C	1.209909	0.430446	0.318329
H121	H	0.692324	-0.097831	-0.247990
H122	H	1.192324	0.402169	0.252010
H123	H	0.671998	-0.053536	-0.122379
H124	H	1.171998	0.446464	0.377621
H125	H	0.740756	-0.100339	-0.139316
H126	H	1.240756	0.399661	0.360684
H127	H	0.495641	0.000197	-0.036562
H128	H	0.995641	0.500197	0.463438
H129	H	0.834549	-0.125475	-0.440429
H130	H	1.334549	0.374525	0.059571
C131	C	0.937535	-0.076127	-0.479304
C132	C	1.437535	0.423873	0.020696
H133	H	0.969639	-0.077876	-0.416744
H134	H	1.469639	0.422124	0.083256
H135	H	0.946913	-0.032775	-0.531685
H136	H	1.446913	0.467225	-0.031685
H137	H	0.942558	-0.120462	-0.530474
H138	H	1.442558	0.379538	-0.030474
C139	C	0.941777	-0.075265	-0.237843
C140	C	1.441777	0.424735	0.262157
H141	H	0.951855	-0.032860	-0.187456
H142	H	1.451855	0.467140	0.312544
H143	H	0.971663	-0.074591	-0.315761
H144	H	1.471663	0.425409	0.184239
H145	H	0.949298	-0.120562	-0.192699
H146	H	1.449298	0.379438	0.307301
H147	H	0.720505	0.051726	-0.195712
H148	H	1.220505	0.551726	0.304288
H149	H	0.155578	0.000248	0.374834
H150	H	0.655578	0.500248	0.874834
C151	C	0.735914	-0.824633	0.007857
C152	C	1.235914	-0.324633	0.507857
H153	H	0.742032	-0.877501	0.018862
H154	H	1.242032	-0.377501	0.518862
H155	H	0.748452	-0.811643	-0.079052
H156	H	1.248452	-0.311643	0.420948
H157	H	0.688260	-0.811670	0.031666
H158	H	1.188260	-0.311670	0.531666
C159	C	0.735880	-0.341454	0.007851
C160	C	1.235880	0.158546	0.507851
H161	H	0.741995	-0.394321	0.018863
H162	H	1.241995	0.105679	0.518863
H163	H	0.748419	-0.328468	-0.079059
H164	H	1.248419	0.171532	0.420941
H165	H	0.688226	-0.328488	0.031659
H166	H	1.188226	0.171512	0.531659
H167	H	0.919799	0.071941	-0.461843
H168	H	1.419799	0.571941	0.038157
C169	C	0.010821	0.000276	0.404057
C170	C	0.510821	0.500276	0.904057
H171	H	-0.036664	0.000277	0.386189
H172	H	0.463336	0.500277	0.886189
H173	H	0.019597	0.044179	0.451903
H174	H	0.519597	0.544179	0.951903
H175	H	0.019551	-0.043632	0.451912
H176	H	0.519551	0.456368	0.951912
H177	H	0.467536	0.000189	0.383189
H178	H	0.967536	0.500189	0.883189
H179	H	0.748081	-0.186358	0.029768
H180	H	1.248081	0.313642	0.529768
H181	H	0.903099	-0.186268	0.308468
H182	H	1.403099	0.313732	0.808468
C183	C	0.043363	0.000284	-0.081801
C184	C	0.543363	0.500284	0.418199
H185	H	-0.006340	0.000300	-0.066538
H186	H	0.493660	0.500300	0.433462
H187	H	0.058459	-0.043619	-0.129022
H188	H	0.558459	0.456381	0.370978
H189	H	0.058508	0.044193	-0.129001
H190	H	0.558508	0.544193	0.370999
C191	C	0.827625	0.144236	-0.210297
C192	C	1.327625	0.644236	0.289703
H193	H	0.789856	0.130312	-0.148997
H194	H	1.289856	0.630312	0.351003
H195	H	0.810150	0.172460	-0.276752
H196	H	1.310150	0.672460	0.223248
H197	H	0.860143	0.174251	-0.170491
H198	H	1.360143	0.674251	0.329509
H199	H	0.717237	-0.050794	-0.415073
H200	H	1.217237	0.449206	0.084927
C201	C	0.940894	0.078279	-0.235390
C202	C	1.440894	0.578279	0.264610
H203	H	0.951287	0.036608	-0.183660
H204	H	1.451287	0.536608	0.316340
H205	H	0.947037	0.124166	-0.190936
H206	H	1.447037	0.624166	0.309064
H207	H	0.971511	0.077676	-0.312447
H208	H	1.471511	0.577676	0.187553
C209	C	0.196310	0.000254	-0.077698
C210	C	0.696310	0.500254	0.422302
H211	H	0.168803	0.000268	-0.147453
H212	H	0.668803	0.500268	0.352547
H213	H	0.225023	-0.043654	-0.081751
H214	H	0.725023	0.456346	0.418249
H215	H	0.225066	0.044158	-0.081738
H216	H	0.725066	0.544158	0.418262
C217	C	0.829746	-0.143950	-0.208055
C218	C	1.329746	0.356050	0.291945
H219	H	0.792366	-0.130477	-0.145654
H220	H	1.292366	0.369523	0.354346
H221	H	0.863278	-0.173031	-0.169222
H222	H	1.363278	0.326969	0.330778
H223	H	0.811949	-0.172931	-0.273335
H224	H	1.311949	0.327069	0.226665
H225	H	0.627783	0.000152	-0.033035
H226	H	1.127783	0.500152	0.466965
H227	H	0.717128	0.052029	-0.413459
H228	H	1.217128	0.552029	0.086541
H229	H	0.903134	-0.669446	0.308483
H230	H	1.403134	-0.169446	0.808483
C231	C	0.915310	-0.341349	0.330419
C232	C	1.415310	0.158651	0.830419
H233	H	0.940747	-0.306388	0.376172
H234	H	1.440747	0.193612	0.876172
H235	H	0.947186	-0.372255	0.278274
H236	H	1.447186	0.127745	0.778274
H237	H	0.886978	-0.372270	0.388965
H238	H	1.386978	0.127730	0.888965
C239	C	0.915357	-0.824527	0.330412
C240	C	1.415357	-0.324527	0.830412
H241	H	0.940791	-0.789564	0.376164
H242	H	1.440791	-0.289564	0.876164
H243	H	0.947235	-0.855426	0.278259
H244	H	1.447235	-0.355426	0.778259
H245	H	0.887031	-0.855453	0.388958
H246	H	1.387031	-0.355453	0.888958
C247	C	0.829839	0.145046	-0.455244
C248	C	1.329839	0.645046	0.044756
H249	H	0.790961	0.133023	-0.500248
H250	H	1.290961	0.633023	-0.000248
H251	H	0.863260	0.173127	-0.509209
H252	H	1.363260	0.673127	-0.009209
H253	H	0.814353	0.174390	-0.382088
H254	H	1.314353	0.674390	0.117912
H255	H	0.748112	-0.669542	0.029795
H256	H	1.248112	-0.169542	0.529795
