data_functionalizedCrystal
_audit_creation_method	'MofGen! by Chris Wilmer'
_symmetry_space_group_name_H-M	'P1'
_symmetry_Int_Tables_number	1
_symmetry_cell_setting	triclinic
loop_
_symmetry_equiv_pos_as_xyz
  x,y,z
_cell_length_a	12.837939
_cell_length_b	19.188930
_cell_length_c	11.892095
_cell_angle_alpha	93.870839
_cell_angle_beta	94.310906
_cell_angle_gamma	91.013290
loop_
_atom_site_label
_atom_site_type_symbol
_atom_site_fract_x
_atom_site_fract_y
_atom_site_fract_z
O1	O	-1.381279	0.177427	-0.094018
O2	O	-1.079514	0.168464	-0.094022
O3	O	-1.239103	0.071888	-0.093998
O4	O	-1.221690	0.274003	-0.094042
O5	O	-1.225797	0.079927	0.094008
O6	O	-1.066208	0.176503	0.093984
O7	O	-1.367973	0.185466	0.093987
Zn8	Zn	-1.214978	0.182261	0.123835
Zn9	Zn	-1.232509	0.171669	-0.123870
O10	O	-1.208384	0.282042	0.093963
C11	C	-1.034254	0.169456	-0.000019
C12	C	-0.919218	0.160425	-0.000019
C13	C	-1.231886	0.049858	0.000008
C14	C	-1.230192	-0.027762	0.000018
C15	C	-0.677768	0.268993	-0.000025
C16	C	-0.569680	0.260511	-0.000025
C17	C	-0.594953	0.134980	-0.000009
C18	C	-0.703040	0.143462	-0.000010
C19	C	-0.744444	0.210471	-0.000020
C20	C	-0.852534	0.218951	-0.000028
C21	C	-0.877804	0.093422	-0.000005
C22	C	-0.769716	0.084940	-0.000004
C23	C	-1.323834	-0.066263	0.000024
C24	C	-1.322245	-0.139197	0.000006
C25	C	-1.227007	-0.173626	0.000004
C26	C	-1.133352	-0.135116	-0.000009
C27	C	-1.134945	-0.062184	-0.000002
N28	N	-1.149680	-0.283888	0.063985
N29	N	-1.148173	-0.353170	0.063981
C30	C	-1.222202	-0.393365	-0.000019
N31	N	-1.297810	-0.361660	-0.064000
N32	N	-1.299319	-0.292371	-0.063991
C33	C	-1.225269	-0.252708	-0.000004
C34	C	-1.314127	-0.510949	-0.000034
C35	C	-1.312535	-0.583884	-0.000059
C36	C	-1.123639	-0.579801	-0.000062
C37	C	-1.125235	-0.506868	-0.000048
C38	C	-1.220482	-0.472446	-0.000029
C39	C	-0.413233	0.184475	-0.000016
C40	C	-0.528269	0.193507	-0.000018
C41	C	-1.215601	0.304072	-0.000045
C42	C	-1.217295	0.381692	-0.000062
N43	N	-1.203021	0.189489	0.292888
N44	N	-1.244475	0.164436	-0.292922
C45	C	-1.327678	0.114099	0.529554
C46	C	-1.319328	0.119157	0.647895
C47	C	-1.177965	0.204659	0.647912
C48	C	-1.186315	0.199601	0.529571
C49	C	-1.261176	0.154320	0.470396
C50	C	-1.269530	0.149266	0.352054
C51	C	-1.128163	0.234764	0.352073
C52	C	-1.119812	0.239822	0.470413
H53	H	-0.886242	0.273513	-0.000034
H54	H	-1.117009	0.241521	0.696107
C55	C	-1.425254	-0.181556	0.000021
H56	H	-1.482206	-0.150610	0.000041
H57	H	-1.433206	-0.212890	-0.065539
H58	H	-1.423906	-0.207292	0.065592
H59	H	-0.561216	0.080429	0.000092
H60	H	-1.391683	-0.482921	-0.000023
H61	H	-1.388793	-0.615231	-0.000060
C62	C	-1.022226	-0.464514	-0.000036
H63	H	-0.965275	-0.495462	-0.000030
H64	H	-1.023557	-0.438772	-0.065592
H65	H	-1.014285	-0.433186	0.065539
C66	C	-1.428603	-0.028404	0.000026
H67	H	-1.484146	-0.061784	0.000015
H68	H	-1.428516	0.002761	0.065586
H69	H	-1.437789	-0.002838	-0.065546
H70	H	-1.058860	0.276687	0.518607
C71	C	-1.351868	0.099457	0.286963
H72	H	-1.390270	0.076222	0.339149
H73	H	-1.398153	0.125473	0.240781
H74	H	-1.317969	0.065934	0.240816
C75	C	-0.723321	0.342695	-0.000046
H76	H	-0.797244	0.339363	-0.000054
H77	H	-0.695778	0.369900	0.065507
H78	H	-0.705057	0.364286	-0.065624
C79	C	-0.724167	0.011237	0.000001
H80	H	-0.650244	0.014565	-0.000007
H81	H	-0.742435	-0.010366	0.065560
H82	H	-0.751711	-0.015958	-0.065571
H83	H	-1.074015	0.267517	0.303893
C84	C	-0.496341	0.324885	-0.000041
H85	H	-0.536484	0.366004	-0.000056
H86	H	-0.449007	0.326989	0.065518
H87	H	-0.458296	0.321382	-0.065614
C88	C	-0.951145	0.029042	0.000001
H89	H	-0.911003	-0.012078	-0.000002
H90	H	-0.989202	0.032540	0.065559
H91	H	-0.998469	0.026942	-0.065573
C92	C	-1.028593	-0.172984	-0.000006
H93	H	-1.041054	-0.221934	0.000002
H94	H	-0.994687	-0.162991	-0.065568
H95	H	-0.985410	-0.157396	0.065564
H96	H	-1.046094	-0.607833	-0.000069
C97	C	-1.031937	-0.019828	-0.000006
H98	H	-1.046527	0.028537	-0.000007
H99	H	-0.988224	-0.028147	0.065549
H100	H	-0.997518	-0.033736	-0.065583
C101	C	-1.410022	0.064296	0.464459
H102	H	-1.448432	0.041064	0.516641
H103	H	-1.456298	0.090318	0.418277
H104	H	-1.376128	0.030770	0.418311
C105	C	-1.392483	0.074915	0.712965
H106	H	-1.438265	0.047229	0.660770
H107	H	-1.352081	0.045341	0.759146
H108	H	-1.432255	0.104887	0.759111
