data_functionalizedCrystal
_audit_creation_method	'MofGen! by Chris Wilmer'
_symmetry_space_group_name_H-M	'P1'
_symmetry_Int_Tables_number	1
_symmetry_cell_setting	triclinic
loop_
_symmetry_equiv_pos_as_xyz
  x,y,z
_cell_length_a	19.077105
_cell_length_b	12.759394
_cell_length_c	19.076929
_cell_angle_alpha	92.271260
_cell_angle_beta	90.078300
_cell_angle_gamma	87.711291
loop_
_atom_site_label
_atom_site_type_symbol
_atom_site_fract_x
_atom_site_fract_y
_atom_site_fract_z
Zn1	Zn	1.058310	-0.508242	-0.440431
Zn2	Zn	1.558310	-0.008242	0.059569
Zn3	Zn	1.062973	-0.677178	-0.322929
Zn4	Zn	1.562973	-0.177178	0.177071
Zn5	Zn	0.945531	-0.494177	-0.318224
Zn6	Zn	1.445531	0.005823	0.181776
Zn7	Zn	0.940791	-0.676536	-0.435681
Zn8	Zn	1.440791	-0.176536	0.064319
O9	O	1.001901	-0.589033	-0.379316
O10	O	1.501901	-0.089033	0.120684
O11	O	1.157261	-0.536807	-0.428800
O12	O	1.657261	-0.036807	0.071200
O13	O	1.051330	-0.647285	-0.223973
O14	O	1.551330	-0.147285	0.276027
O15	O	0.960524	-0.349025	-0.334454
O16	O	1.460524	0.150975	0.165546
O17	O	1.160687	-0.660923	-0.342472
O18	O	1.660687	-0.160923	0.157528
O19	O	1.043382	-0.359358	-0.424238
O20	O	1.543382	0.140642	0.075762
O21	O	0.965045	-0.512835	-0.220517
O22	O	1.465045	-0.012835	0.279483
O23	O	0.846570	-0.512212	-0.329848
O24	O	1.346570	-0.012212	0.170152
O25	O	0.952444	-0.659829	-0.534642
O26	O	1.452444	-0.159829	-0.034642
O27	O	0.843087	-0.646190	-0.416143
O28	O	1.343087	-0.146190	0.083857
O29	O	1.038785	-0.536184	-0.538132
O30	O	1.538785	-0.036184	-0.038132
O31	O	1.046733	-0.824111	-0.337867
O32	O	1.546733	-0.324111	0.162133
O33	O	0.956966	-0.823639	-0.420705
O34	O	1.456966	-0.323639	0.079295
C35	C	0.819332	-0.577606	-0.371970
C36	C	1.319332	-0.077606	0.128030
C37	C	0.741227	-0.572744	-0.368844
C38	C	1.241227	-0.072744	0.131156
C39	C	0.702742	-0.640312	-0.412234
C40	C	1.202742	-0.140312	0.087766
C41	C	0.629354	-0.635730	-0.409301
C42	C	1.129354	-0.135730	0.090699
C43	C	0.594454	-0.563584	-0.362973
C44	C	1.094454	-0.063584	0.137027
C45	C	0.632944	-0.496008	-0.319581
C46	C	1.132944	0.003992	0.180419
C47	C	0.706331	-0.500586	-0.322519
C48	C	1.206331	-0.000586	0.177481
C49	C	0.375164	-0.542397	-0.349380
C50	C	0.875164	-0.042397	0.150620
C51	C	0.301773	-0.537826	-0.346444
C52	C	0.801773	-0.037826	0.153556
C53	C	0.298188	-0.677547	-0.436165
C54	C	0.798188	-0.177547	0.063835
C55	C	0.371575	-0.682123	-0.439095
C56	C	0.871575	-0.182123	0.060905
C57	C	0.410060	-0.614544	-0.395706
C58	C	0.910060	-0.114544	0.104294
N59	N	0.519440	-0.558901	-0.359971
N60	N	1.019440	-0.058901	0.140029
N61	N	0.485072	-0.619223	-0.398712
N62	N	0.985072	-0.119223	0.101288
C63	C	1.001860	-0.861997	-0.379297
C64	C	1.501860	-0.361997	0.120703
C65	C	1.001905	-0.978778	-0.379315
C66	C	1.501905	-0.478778	0.120685
C67	C	1.095445	-0.979224	-0.293126
C68	C	1.595445	-0.479224	0.206874
C69	C	1.142232	-1.034309	-0.250040
C70	C	1.642232	-0.534309	0.249960
C71	C	1.142273	-1.144034	-0.250060
C72	C	1.642273	-0.644034	0.249940
C73	C	1.095522	-1.198677	-0.293173
C74	C	1.595522	-0.698677	0.206827
C75	C	1.048734	-1.143591	-0.336259
C76	C	1.548734	-0.643591	0.163741
C77	C	1.048697	-1.033863	-0.336232
C78	C	1.548697	-0.533863	0.163768
C79	C	0.955200	-1.143146	-0.422452
C80	C	1.455200	-0.643146	0.077548
C81	C	0.955155	-1.033420	-0.422428
C82	C	1.455155	-0.533420	0.077572
C83	C	0.908449	-1.197788	-0.465565
C84	C	1.408449	-0.697788	0.034435
C85	C	0.861657	-1.142702	-0.508648
C86	C	1.361657	-0.642702	-0.008648
C87	C	0.861618	-1.032970	-0.508625
C88	C	1.361618	-0.532970	-0.008625
C89	C	0.908367	-0.978335	-0.465514
C90	C	1.408367	-0.478335	0.034486
C91	C	1.185183	-0.600506	-0.386691
C92	C	1.685183	-0.100506	0.113309
C93	C	1.263287	-0.605394	-0.389834
C94	C	1.763287	-0.105394	0.110166
C95	C	0.994566	-0.599504	-0.562596
C96	C	1.494566	-0.099504	-0.062596
C97	C	0.991440	-0.603965	-0.640699
C98	C	1.491440	-0.103965	-0.140699
C99	C	1.001961	-0.315005	-0.379351
C100	C	1.501961	0.184995	0.120649
C101	C	1.001987	-0.198231	-0.379366
C102	C	1.501987	0.301769	0.120634
C103	C	0.969025	-0.636051	-1.080142
C104	C	1.469025	-0.136051	-0.580142
C105	C	0.971959	-0.631843	-1.006755
C106	C	1.471959	-0.131843	-0.506755
C107	C	1.018383	-0.565370	-0.971883
C108	C	1.518383	-0.065370	-0.471883
C109	C	1.061870	-0.503093	-1.010400
C110	C	1.561870	-0.003093	-0.510400
C111	C	1.058932	-0.507296	-1.083785
C112	C	1.558932	-0.007296	-0.583785
C113	C	1.031989	-0.545892	-0.752601
C114	C	1.531989	-0.045892	-0.252601
C115	C	1.034925	-0.541696	-0.679211
C116	C	1.534925	-0.041696	-0.179211
C117	C	0.945013	-0.670444	-0.675572
C118	C	1.445013	-0.170444	-0.175572
C119	C	0.942082	-0.674646	-0.748958
C120	C	1.442082	-0.174646	-0.248958
C121	C	0.985566	-0.612365	-0.787469
C122	C	1.485566	-0.112365	-0.287469
N123	N	1.021385	-0.561070	-0.896870
N124	N	1.521385	-0.061070	-0.396870
N125	N	0.982560	-0.616661	-0.862480
N126	N	1.482560	-0.116661	-0.362480
C127	C	1.009248	-0.578530	-0.196751
C128	C	1.509248	-0.078530	0.303249
C129	C	1.012510	-0.573781	-0.118654
C130	C	1.512510	-0.073781	0.381346
H131	H	0.731152	-0.699065	-0.449957
H132	H	1.231152	-0.199065	0.050043
H133	H	0.908488	-1.287133	-0.465582
H134	H	1.408488	-0.787133	0.034418
H135	H	0.406490	-0.487377	-0.314044
H136	H	0.906490	0.012623	0.185956
C137	C	0.908332	-0.857634	-0.465488
C138	C	1.408332	-0.357634	0.034512
N139	N	0.908311	-0.766721	-0.465470
N140	N	1.408311	-0.266721	0.034530
C141	C	1.095398	-0.858522	-0.293092
C142	C	1.595398	-0.358522	0.206908
N143	N	1.095365	-0.767608	-0.293066
N144	N	1.595365	-0.267608	0.206934
C145	C	1.085997	-0.468565	-0.640853
C146	C	1.585997	0.031435	-0.140853
N147	N	1.124462	-0.413488	-0.611961
N148	N	1.624462	0.086512	-0.111961
H149	H	0.399986	-0.740874	-0.476819
H150	H	0.899986	-0.240874	0.023181
C151	C	0.748665	-0.426258	-0.274784
C152	C	1.248665	0.073742	0.225216
N153	N	0.780550	-0.370270	-0.238831
N154	N	1.280550	0.129730	0.261169
C155	C	0.810235	-1.202815	-0.556065
C156	C	1.310235	-0.702815	-0.056065
N157	N	0.771502	-1.248097	-0.591779
N158	N	1.271502	-0.748097	-0.091779
C159	C	1.112935	-0.429969	-0.972037
C160	C	1.612935	0.070031	-0.472037
N161	N	1.151400	-0.374893	-0.943143
N162	N	1.651400	0.125107	-0.443143
H163	H	0.823520	-0.988126	-0.543713
H164	H	1.323520	-0.488126	-0.043713
C165	C	0.594551	-0.416644	-0.268621
C166	C	1.094551	0.083356	0.231379
N167	N	0.565634	-0.356868	-0.230236
N168	N	1.065634	0.143132	0.269764
C169	C	1.106771	-0.438797	-1.126148
C170	C	1.606771	0.061203	-0.626148
N171	N	1.142804	-0.387199	-1.158055
N172	N	1.642804	0.112801	-0.658055
C173	C	1.193740	-1.204630	-0.202664
C174	C	1.693740	-0.704630	0.297336
N175	N	1.232505	-1.250270	-0.166964
N176	N	1.732505	-0.750270	0.333036
C177	C	0.587023	-0.710080	-0.457020
C178	C	1.087023	-0.210080	0.042980
N179	N	0.555141	-0.766091	-0.492960
N180	N	1.055141	-0.266091	0.007040
H181	H	0.266846	-0.732565	-0.471491
H182	H	0.766846	-0.232565	0.028509
C183	C	0.917954	-0.709176	-1.118495
C184	C	1.417954	-0.209176	-0.618495
N185	N	0.879484	-0.764253	-1.147380
N186	N	1.379484	-0.264253	-0.647380
H187	H	1.095565	-1.288022	-0.293193
H188	H	1.595565	-0.788022	0.206807
C189	C	0.263384	-0.458455	-0.295478
C190	C	0.763384	0.041545	0.204522
N191	N	0.234470	-0.398677	-0.257092
N192	N	0.734470	0.101323	0.242908
C193	C	1.193654	-0.974194	-0.202616
C194	C	1.693654	-0.474194	0.297384
N195	N	1.232384	-0.928918	-0.166896
N196	N	1.732384	-0.428918	0.333104
C197	C	0.924117	-0.700338	-0.964395
C198	C	1.424117	-0.200338	-0.464395
N199	N	0.888078	-0.751928	-0.932490
N200	N	1.388078	-0.251928	-0.432490
H201	H	0.904279	-0.728776	-0.777346
H202	H	1.404279	-0.228776	-0.277346
C203	C	0.897177	-0.738939	-0.633204
C204	C	1.397177	-0.238939	-0.133204
N205	N	0.861142	-0.790527	-0.601292
N206	N	1.361142	-0.290527	-0.101292
H207	H	1.067401	-0.495184	-0.783948
H208	H	1.567401	0.004816	-0.283948
