data_functionalizedCrystal
_audit_creation_method	'MofGen! by Chris Wilmer'
_symmetry_space_group_name_H-M	'P1'
_symmetry_Int_Tables_number	1
_symmetry_cell_setting	triclinic
loop_
_symmetry_equiv_pos_as_xyz
  x,y,z
_cell_length_a	21.295419
_cell_length_b	21.295417
_cell_length_c	19.805399
_cell_angle_alpha	89.970204
_cell_angle_beta	89.981377
_cell_angle_gamma	90.044503
loop_
_atom_site_label
_atom_site_type_symbol
_atom_site_fract_x
_atom_site_fract_y
_atom_site_fract_z
Zn1	Zn	0.962322	-0.250375	-0.382692
Zn2	Zn	0.962237	-0.355644	-0.269500
Zn3	Zn	0.857056	-0.250420	-0.269519
Zn4	Zn	0.857016	-0.355638	-0.382648
O5	O	0.909658	-0.303019	-0.326090
O6	O	1.050400	-0.264323	-0.367687
O7	O	0.948266	-0.341707	-0.174785
O8	O	0.871073	-0.162324	-0.284558
O9	O	1.050338	-0.341664	-0.284525
O10	O	0.948411	-0.162292	-0.367706
O11	O	0.870990	-0.264399	-0.174800
O12	O	0.768962	-0.264393	-0.284515
O13	O	0.871004	-0.341653	-0.477371
O14	O	0.768932	-0.341696	-0.367631
O15	O	0.948372	-0.264317	-0.477403
O16	O	0.948227	-0.443733	-0.284483
O17	O	0.870922	-0.443728	-0.367612
C18	C	0.746106	-0.303049	-0.326071
C19	C	0.676138	-0.303077	-0.326079
C20	C	0.643327	-0.262872	-0.369448
C21	C	0.577584	-0.262855	-0.369451
C22	C	0.544656	-0.303055	-0.326091
C23	C	0.577475	-0.343263	-0.282713
C24	C	0.643217	-0.343274	-0.282707
N25	N	0.441382	-0.358133	-0.320802
N26	N	0.378930	-0.358120	-0.320812
C27	C	0.346581	-0.303022	-0.326106
N28	N	0.379043	-0.247936	-0.331403
N29	N	0.441500	-0.247949	-0.331397
C30	C	0.473370	-0.303047	-0.326092
C31	C	0.242484	-0.262795	-0.369480
C32	C	0.176740	-0.262777	-0.369478
C33	C	0.176633	-0.343191	-0.282744
C34	C	0.242375	-0.343203	-0.282743
C35	C	0.275297	-0.303006	-0.326115
C36	C	0.909578	-0.466571	-0.326055
C37	C	0.909601	-0.536539	-0.326063
C38	C	0.949848	-0.569331	-0.369390
C39	C	0.949870	-0.635074	-0.369406
C40	C	0.909652	-0.668021	-0.326085
C41	C	0.869397	-0.635221	-0.282755
C42	C	0.869372	-0.569480	-0.282745
N43	N	0.904898	-0.771284	-0.266849
N44	N	0.904926	-0.833735	-0.266861
C45	C	0.909726	-0.866096	-0.326115
N46	N	0.914508	-0.833646	-0.385358
N47	N	0.914484	-0.771189	-0.385345
C48	C	0.909675	-0.739307	-0.326092
C49	C	0.949999	-0.970174	-0.369463
C50	C	0.950017	-1.035918	-0.369481
C51	C	0.869547	-1.036064	-0.282824
C52	C	0.869526	-0.970321	-0.282812
C53	C	0.909755	-0.937380	-0.326131
C54	C	1.073848	-0.302989	-0.326109
C55	C	1.143816	-0.302977	-0.326117
C56	C	0.909693	-0.302979	-0.502632
C57	C	0.909708	-0.302963	-0.577864
C58	C	0.909756	-0.138829	-0.326139
C59	C	0.909797	-0.068861	-0.326160
C60	C	0.949995	-0.262692	-0.613227
C61	C	0.950001	-0.262674	-0.683915
C62	C	0.909724	-0.302930	-0.719240
C63	C	0.869433	-0.343202	-0.683873
C64	C	0.869424	-0.343217	-0.613186
C65	C	0.869469	-0.343144	-0.968947
C66	C	0.869482	-0.343127	-1.039639
C67	C	0.950046	-0.262600	-1.039676
C68	C	0.950037	-0.262615	-0.968988
C69	C	0.909744	-0.302885	-0.933628
C70	C	0.909737	-0.302903	-0.856979
C71	C	0.909734	-0.302915	-0.795887
C72	C	0.909659	-0.303013	-0.150234
C73	C	0.909766	-0.302853	-0.075002
H74	H	0.269091	-0.375945	-0.247429
H75	H	0.269290	-0.230060	-0.404792
C76	C	0.994362	-0.218294	-1.078579
N77	N	1.027739	-0.184924	-1.107880
C78	C	0.679537	-0.218646	-0.417150
N79	N	0.706811	-0.185332	-0.453076
C80	C	0.140648	-0.218545	-0.417190
N81	N	0.113462	-0.185229	-0.453128
C82	C	0.994303	-0.218405	-0.574375
N83	N	1.027675	-0.185045	-0.545115
C84	C	0.994105	-0.533100	-0.417038
N85	N	1.027442	-0.505810	-0.452925
C86	C	0.994150	-0.671153	-0.417067
N87	N	1.027502	-0.698326	-0.452965
C88	C	0.825297	-1.072302	-0.235179
N89	N	0.791964	-1.099600	-0.199295
H90	H	0.982837	-0.229836	-0.940230
C91	C	0.541484	-0.218628	-0.417166
N92	N	0.514296	-0.185318	-0.453108
C93	C	0.541253	-0.387483	-0.235018
N94	N	0.513970	-0.420790	-0.199091
H95	H	0.836650	-0.662051	-0.247484
C96	C	0.140415	-0.387411	-0.235047
N97	N	0.113133	-0.420717	-0.199120
C98	C	0.825247	-0.934248	-0.235153
N99	N	0.791889	-0.907078	-0.199259
C100	C	0.994321	-0.218373	-0.722810
N101	N	1.027704	-0.185005	-0.752105
H102	H	0.836597	-0.542780	-0.247463
H103	H	0.982791	-1.062616	-0.404765
C104	C	0.994243	-0.933937	-0.417123
N105	N	1.027566	-0.906645	-0.453023
H106	H	0.836681	-0.375910	-1.068398
H107	H	0.836669	-0.375943	-0.940164
H108	H	0.836612	-0.376003	-0.584395
C109	C	0.679310	-0.387508	-0.234998
N110	N	0.706497	-0.420828	-0.199065
C111	C	0.825122	-0.387478	-0.722733
N112	N	0.791745	-0.420828	-0.752002
