data_functionalizedCrystal
_audit_creation_method	'MofGen! by Chris Wilmer'
_symmetry_space_group_name_H-M	'P1'
_symmetry_Int_Tables_number	1
_symmetry_cell_setting	triclinic
loop_
_symmetry_equiv_pos_as_xyz
  x,y,z
_cell_length_a	14.853569
_cell_length_b	14.853569
_cell_length_c	13.930277
_cell_angle_alpha	89.994278
_cell_angle_beta	89.994756
_cell_angle_gamma	83.635565
loop_
_atom_site_label
_atom_site_type_symbol
_atom_site_fract_x
_atom_site_fract_y
_atom_site_fract_z
O1	O	1.196368	0.117710	-0.079789
O2	O	1.696368	0.617710	0.420211
O3	O	0.933909	0.131730	-0.079801
O4	O	1.433909	0.631730	0.420199
O5	O	1.072149	-0.006510	-0.079786
O6	O	1.572149	0.493490	0.420214
O7	O	1.058129	0.255950	-0.079805
O8	O	1.558129	0.755950	0.420195
O9	O	1.072129	-0.006513	0.079876
O10	O	1.572129	0.493487	0.579876
O11	O	0.933890	0.131727	0.079860
O12	O	1.433890	0.631727	0.579860
O13	O	1.196349	0.117707	0.079872
O14	O	1.696349	0.617707	0.579872
Zn15	Zn	1.065116	0.124717	0.105216
Zn16	Zn	1.565116	0.624717	0.605216
Zn17	Zn	1.065142	0.124721	-0.105145
Zn18	Zn	1.565142	0.624721	0.394855
O19	O	1.058109	0.255947	0.079857
O20	O	1.558109	0.755947	0.579857
C21	C	0.900311	0.131093	0.000028
C22	C	1.400311	0.631093	0.500028
C23	C	0.800227	0.129189	0.000024
C24	C	1.300227	0.629189	0.500024
C25	C	0.763850	0.046178	0.000027
C26	C	1.263850	0.546178	0.500027
C27	C	0.742561	0.210410	0.000025
C28	C	1.242561	0.710410	0.500025
C29	C	0.648527	0.208624	0.000027
C30	C	1.148527	0.708624	0.500027
C31	C	0.612150	0.125613	0.000029
C32	C	1.112150	0.625613	0.500029
C33	C	0.669807	0.044389	0.000031
C34	C	1.169807	0.544389	0.500031
C35	C	0.590863	0.289847	0.000035
C36	C	1.090863	0.789847	0.500035
C37	C	0.496823	0.288063	0.000037
C38	C	0.996823	0.788063	0.500037
C39	C	0.460444	0.205052	0.000033
C40	C	0.960444	0.705052	0.500033
C41	C	0.518108	0.123824	0.000033
C42	C	1.018108	0.623824	0.500033
C43	C	0.481731	0.040813	0.000036
C44	C	0.981731	0.540813	0.500036
C45	C	0.539392	-0.040415	0.000029
C46	C	1.039392	0.459585	0.500029
C47	C	0.633429	-0.038623	0.000026
C48	C	1.133429	0.461377	0.500026
C49	C	0.366408	0.203259	0.000036
C50	C	0.866408	0.703259	0.500036
C51	C	0.387688	0.039024	0.000040
C52	C	0.887688	0.539024	0.500040
C53	C	1.071503	-0.040100	0.000045
C54	C	1.571503	0.459900	0.500045
C55	C	1.069599	-0.140183	0.000046
C56	C	1.569599	0.359817	0.500046
C57	C	0.986588	-0.176560	0.000044
C58	C	1.486588	0.323440	0.500044
C59	C	1.150821	-0.197849	0.000041
C60	C	1.650821	0.302151	0.500041
C61	C	1.149034	-0.291883	0.000037
C62	C	1.649034	0.208117	0.500037
C63	C	1.066024	-0.328260	0.000035
C64	C	1.566024	0.171740	0.500035
C65	C	0.984799	-0.270603	0.000037
C66	C	1.484799	0.229397	0.500037
C67	C	1.230257	-0.349547	0.000025
C68	C	1.730257	0.150453	0.500025
C69	C	1.228474	-0.443588	0.000020
C70	C	1.728474	0.056412	0.500020
C71	C	1.145462	-0.479966	0.000025
C72	C	1.645462	0.020034	0.500025
C73	C	1.064234	-0.422303	0.000028
C74	C	1.564234	0.077697	0.500028
C75	C	0.981224	-0.458680	0.000026
C76	C	1.481224	0.041320	0.500026
C77	C	0.899995	-0.401018	0.000036
C78	C	1.399995	0.098982	0.500036
C79	C	0.901787	-0.306982	0.000042
C80	C	1.401787	0.193018	0.500042
C81	C	1.143670	-0.574002	0.000018
C82	C	1.643670	-0.074002	0.500018
C83	C	0.979434	-0.552722	0.000019
C84	C	1.479434	-0.052722	0.500019
C85	C	1.229947	0.118344	0.000041
C86	C	1.729947	0.618344	0.500041
C87	C	1.330031	0.120249	0.000039
C88	C	1.830031	0.620249	0.500039
C89	C	1.058754	0.289537	0.000024
C90	C	1.558754	0.789537	0.500024
C91	C	1.060659	0.389621	0.000016
C92	C	1.560659	0.889621	0.500016
N93	N	1.065106	0.124713	0.248782
N94	N	1.565106	0.624713	0.748782
N95	N	1.065159	0.124717	-0.248711
N96	N	1.565159	0.624717	0.251289
C97	C	1.003927	0.185909	0.701045
C98	C	1.503927	0.685909	1.201045
C99	C	1.126381	0.063525	0.701028
C100	C	1.626381	0.563525	1.201028
C101	C	1.126371	0.063522	0.600532
C102	C	1.626371	0.563522	1.100532
C103	C	1.065138	0.124715	0.550288
C104	C	1.565138	0.624715	1.050288
C105	C	1.003916	0.185910	0.600540
C106	C	1.503916	0.685910	1.100540
C107	C	1.187598	0.002334	0.550273
C108	C	1.687598	0.502334	1.050273
C109	C	1.187590	0.002330	0.449771
C110	C	1.687590	0.502330	0.949771
C111	C	1.126352	0.063518	0.399525
C112	C	1.626352	0.563518	0.899525
C113	C	1.065127	0.124715	0.449783
C114	C	1.565127	0.624715	0.949783
C115	C	1.003894	0.185908	0.399539
C116	C	1.503894	0.685908	0.899539
C117	C	0.942664	0.247101	0.449795
C118	C	1.442664	0.747101	0.949795
C119	C	0.942678	0.247099	0.550294
C120	C	1.442678	0.747099	1.050294
C121	C	1.126338	0.063521	0.299026
C122	C	1.626338	0.563521	0.799026
C123	C	1.003884	0.185909	0.299034
C124	C	1.503884	0.685909	0.799034
H125	H	0.620489	0.357430	0.000039
H126	H	1.120489	0.857430	0.500039
H127	H	1.209805	-0.620946	0.000001
H128	H	1.709805	-0.120946	0.500001
Cl129	Cl	1.203313	-0.013397	0.235854
Cl130	Cl	1.703313	0.486603	0.735854
H131	H	0.832407	-0.430648	0.000028
H132	H	1.332407	0.069352	0.500028
H133	H	0.835656	-0.260026	0.000048
H134	H	1.335656	0.239974	0.500048
H135	H	1.237456	-0.047482	0.591185
H136	H	1.737456	0.452518	1.091185
Cl137	Cl	0.341965	-0.065339	0.000036
Cl138	Cl	0.841965	0.434661	0.500036
Cl139	Cl	1.203362	-0.013394	0.764189
Cl140	Cl	1.703362	0.486606	1.264189
H141	H	0.920454	-0.129608	0.000056
H142	H	1.420454	0.370392	0.500056
H143	H	0.810802	-0.019956	0.000017
H144	H	1.310802	0.480044	0.500017
H145	H	1.237446	-0.047498	0.408859
H146	H	1.737446	0.452502	0.908859
Cl147	Cl	0.293924	0.305366	0.000055
Cl148	Cl	0.793924	0.805366	0.500055
H149	H	0.772186	0.277994	0.000030
H150	H	1.272186	0.777994	0.500030
H151	H	0.449882	0.354205	0.000041
H152	H	0.949882	0.854205	0.500041
H153	H	0.954071	0.235730	0.741966
H154	H	1.454071	0.735730	1.241966
H155	H	0.911836	-0.582332	0.000026
H156	H	1.411836	-0.082332	0.500026
Cl157	Cl	1.255171	-0.152116	0.000033
Cl158	Cl	1.755171	0.347884	0.500033
H159	H	1.297840	-0.319921	0.000086
H160	H	1.797840	0.180079	0.500086
H161	H	1.294615	-0.490528	0.000013
H162	H	1.794615	0.009472	0.500013
Cl163	Cl	0.926896	0.262836	0.235878
Cl164	Cl	1.426896	0.762836	0.735878
Cl165	Cl	0.865695	0.324032	0.386620
Cl166	Cl	1.365695	0.824032	0.886620
H167	H	0.892828	0.296921	0.591218
H168	H	1.392828	0.796921	1.091218
H169	H	0.680385	-0.104755	0.000023
H170	H	1.180385	0.395245	0.500023
Cl171	Cl	0.493650	-0.144768	0.000042
Cl172	Cl	0.993650	0.355232	0.500042
