data_functionalizedCrystal
_audit_creation_method	'MofGen! by Chris Wilmer'
_symmetry_space_group_name_H-M	'P1'
_symmetry_Int_Tables_number	1
_symmetry_cell_setting	triclinic
loop_
_symmetry_equiv_pos_as_xyz
  x,y,z
_cell_length_a	11.169417
_cell_length_b	18.101396
_cell_length_c	11.169409
_cell_angle_alpha	89.964958
_cell_angle_beta	90.019824
_cell_angle_gamma	89.962098
loop_
_atom_site_label
_atom_site_type_symbol
_atom_site_fract_x
_atom_site_fract_y
_atom_site_fract_z
Zn1	Zn	1.834740	0.294752	0.678520
Zn2	Zn	2.334740	0.794752	1.178520
Zn3	Zn	1.834536	0.418619	0.477828
Zn4	Zn	2.334536	0.918619	0.977828
Zn5	Zn	1.634026	0.294797	0.477854
Zn6	Zn	2.134026	0.794797	0.977854
Zn7	Zn	1.633940	0.418558	0.678472
Zn8	Zn	2.133940	0.918558	1.178472
O9	O	1.734310	0.356682	0.578169
O10	O	2.234310	0.856682	1.078169
O11	O	2.002662	0.311190	0.651907
O12	O	2.502662	0.811190	1.151907
O13	O	1.807888	0.402238	0.309881
O14	O	2.307888	0.902238	0.809881
O15	O	1.660772	0.191159	0.504504
O16	O	2.160772	0.691159	1.004504
O17	O	2.002512	0.402194	0.504459
O18	O	2.502512	0.902194	1.004459
O19	O	1.808236	0.191125	0.651933
O20	O	2.308236	0.691125	1.151933
O21	O	1.660574	0.311267	0.309901
O22	O	2.160574	0.811267	0.809901
O23	O	1.466065	0.311208	0.504458
O24	O	1.966065	0.811208	1.004458
O25	O	1.660626	0.402091	0.846429
O26	O	2.160626	0.902091	1.346429
O27	O	1.466001	0.402135	0.651851
O28	O	1.966001	0.902135	1.151851
O29	O	1.808153	0.311131	0.846464
O30	O	2.308153	0.811131	1.346464
O31	O	1.807805	0.522244	0.504412
O32	O	2.307805	1.022244	1.004412
O33	O	1.660428	0.522199	0.651825
O34	O	2.160428	1.022199	1.151825
C35	C	1.422486	0.356671	0.578153
C36	C	1.922486	0.856671	1.078153
C37	C	1.289086	0.356684	0.578175
C38	C	1.789086	0.856684	1.078175
C39	C	1.734117	0.549092	0.578137
C40	C	2.234117	1.049092	1.078137
C41	C	1.734145	0.631406	0.578163
C42	C	2.234145	1.131406	1.078163
C43	C	1.734358	0.930497	0.578233
C44	C	2.234358	1.430497	1.078233
C45	C	1.641853	0.899175	0.671211
C46	C	2.141853	1.399175	1.171211
C47	C	1.641427	0.813557	0.670919
C48	C	2.141427	1.313557	1.170919
C49	C	1.734252	0.782115	0.578200
C50	C	2.234252	1.282115	1.078200
C51	C	1.699995	0.813278	0.451713
C52	C	2.199995	1.313278	0.951713
C53	C	1.699385	0.898923	0.452271
C54	C	2.199385	1.398923	0.952271
C55	C	1.861328	0.898837	0.610628
C56	C	2.361328	1.398837	1.110628
C57	C	1.860596	0.813186	0.613400
C58	C	2.360596	1.313186	1.113400
C59	C	1.734194	0.698255	0.578173
C60	C	2.234194	1.198255	1.078173
C61	C	1.734413	1.014357	0.578252
C62	C	2.234413	1.514357	1.078252
C63	C	2.047353	0.356694	0.578185
C64	C	2.547353	0.856694	1.078185
C65	C	2.180753	0.356699	0.578192
C66	C	2.680753	0.856699	1.078192
C67	C	1.734402	0.356599	0.891211
C68	C	2.234402	0.856599	1.391211
C69	C	1.734442	0.356564	1.024611
C70	C	2.234442	0.856564	1.524611
C71	C	1.734494	1.163520	0.578231
C72	C	2.234494	1.663520	1.078231
C73	C	1.734465	1.081206	0.578270
C74	C	2.234465	1.581206	1.078270
C75	C	1.734288	0.356710	0.266344
C76	C	2.234288	0.856710	0.766344
C77	C	1.734481	0.356537	0.132944
C78	C	2.234481	0.856537	0.632944
H79	H	1.663067	0.919714	0.765304
H80	H	2.163067	1.419714	1.265304
O81	O	1.784759	0.926387	0.357390
O82	O	2.284759	1.426387	0.857390
H83	H	1.734959	0.960425	0.291340
H84	H	2.234959	1.460425	0.791340
H85	H	1.606571	0.918969	0.424829
H86	H	2.106571	1.418969	0.924829
O87	O	1.516785	0.786497	0.642465
O88	O	2.016785	1.286497	1.142465
H89	H	1.456580	0.834584	0.628850
H90	H	1.956580	1.334584	1.128850
O91	O	1.902691	0.927356	0.730726
O92	O	2.402691	1.427356	1.230726
H93	H	1.833203	0.964418	0.768670
H94	H	2.333203	1.464418	1.268670
O95	O	1.786431	0.786305	0.357433
O96	O	2.286431	1.286305	0.857433
H97	H	1.854883	0.750313	0.399829
H98	H	2.354883	1.250313	0.899829
O99	O	1.578361	0.784967	0.414700
O100	O	2.078361	1.284967	0.914700
H101	H	1.542111	0.748711	0.486179
H102	H	2.042111	1.248711	0.986179
H103	H	1.933172	0.791778	0.550614
H104	H	2.433172	1.291778	1.050614
O105	O	1.952691	0.925832	0.521129
O106	O	2.452691	1.425832	1.021129
H107	H	1.907956	0.961603	0.453872
H108	H	2.407956	1.461603	0.953872
O109	O	1.894841	0.786192	0.736692
O110	O	2.394841	1.286192	1.236692
H111	H	1.822192	0.750790	0.772759
H112	H	2.322192	1.250790	1.272759
H113	H	1.548312	0.920764	0.650024
H114	H	2.048312	1.420764	1.150024
O115	O	1.669725	0.785634	0.795169
O116	O	2.169725	1.285634	1.295169
H117	H	1.683843	0.833303	0.856006
H118	H	2.183843	1.333303	1.356006
