data_functionalizedCrystal
_audit_creation_method	'MofGen! by Chris Wilmer'
_symmetry_space_group_name_H-M	'P1'
_symmetry_Int_Tables_number	1
_symmetry_cell_setting	triclinic
loop_
_symmetry_equiv_pos_as_xyz
  x,y,z
_cell_length_a	27.731994
_cell_length_b	26.210047
_cell_length_c	27.732046
_cell_angle_alpha	89.987412
_cell_angle_beta	97.368744
_cell_angle_gamma	90.018354
loop_
_atom_site_label
_atom_site_type_symbol
_atom_site_fract_x
_atom_site_fract_y
_atom_site_fract_z
O1	O	0.640958	0.042363	-0.057392
O2	O	0.500161	0.042381	-0.066164
O3	O	0.574933	0.042360	0.008620
O4	O	0.566186	0.042384	-0.132176
O5	O	0.574898	-0.042498	0.008620
O6	O	0.500126	-0.042477	-0.066164
O7	O	0.640924	-0.042495	-0.057391
Cu8	Cu	0.570522	-0.050234	-0.061777
Cu9	Cu	0.570563	0.050120	-0.061778
O10	O	0.566152	-0.042474	-0.132175
C11	C	0.482136	-0.000046	-0.065984
C12	C	0.428480	-0.000039	-0.065442
C13	C	0.095743	-0.046316	-0.062025
C14	C	-0.105916	-0.046322	-0.059964
O15	O	-0.132004	-0.085661	-0.059676
N16	N	-0.131112	-0.000066	-0.059708
C17	C	-0.105890	0.046195	-0.059965
O18	O	-0.131947	0.085538	-0.059695
C19	C	0.095768	0.046200	-0.062023
C20	C	0.120961	-0.000059	-0.062284
C21	C	0.120935	-0.092571	-0.062285
C22	C	0.171347	-0.092569	-0.062803
C23	C	0.196565	-0.046312	-0.063061
C24	C	0.171372	-0.000057	-0.062802
C25	C	0.120990	0.092461	-0.062276
C26	C	0.171408	0.092458	-0.062790
C27	C	0.196600	0.046199	-0.063050
C28	C	0.247001	0.046203	-0.063578
N29	N	0.272197	-0.000053	-0.063833
C30	C	0.246979	-0.046311	-0.063575
C31	C	-0.211763	0.046189	-0.058885
C32	C	-0.262177	0.046187	-0.058372
C33	C	-0.262200	-0.046330	-0.058370
C34	C	-0.211785	-0.046328	-0.058887
C35	C	-0.186567	-0.000067	-0.059141
C36	C	0.352846	-0.046303	-0.064663
C37	C	0.403262	-0.046297	-0.065184
C38	C	0.403280	0.046220	-0.065183
C39	C	0.352869	0.046214	-0.064665
C40	C	0.327653	-0.000051	-0.064404
O41	O	0.273122	0.085521	-0.063860
O42	O	0.273047	-0.085648	-0.063834
C43	C	0.045331	-0.046318	-0.061507
C44	C	0.020139	-0.000063	-0.061247
C45	C	0.045357	0.046195	-0.061506
C46	C	-0.030276	-0.000064	-0.060734
C47	C	-0.055494	-0.046321	-0.060476
C48	C	-0.030298	-0.092577	-0.060731
C49	C	0.020113	-0.092575	-0.061249
C50	C	0.020161	0.092451	-0.061250
C51	C	-0.030250	0.092445	-0.060732
C52	C	-0.055469	0.046188	-0.060474
N53	N	0.570497	-0.120818	-0.061776
C54	C	0.537422	-0.526776	-0.094877
C55	C	0.537399	-0.313118	-0.094877
O56	O	0.509220	-0.285491	-0.123016
N57	N	0.570512	-0.286402	-0.061774
C58	C	0.603631	-0.313104	-0.028667
O59	O	0.631792	-0.285478	-0.000508
C60	C	0.603652	-0.526762	-0.028665
C61	C	0.570540	-0.553475	-0.061773
C62	C	0.504312	-0.553489	-0.127982
C63	C	0.504320	-0.606901	-0.127983
C64	C	0.537438	-0.633599	-0.094880
C65	C	0.570548	-0.606886	-0.061775
C66	C	0.636769	-0.553463	0.004444
C67	C	0.636770	-0.606881	0.004442
C68	C	0.603658	-0.633594	-0.028666
C69	C	0.603673	-0.686996	-0.028672
N70	N	0.570560	-0.713712	-0.061775
C71	C	0.537442	-0.687013	-0.094879
C72	C	0.603619	-0.200931	-0.028671
C73	C	0.603614	-0.147517	-0.028672
C74	C	0.537381	-0.147534	-0.094882
C75	C	0.537388	-0.200949	-0.094883
C76	C	0.570506	-0.227646	-0.061774
C77	C	0.537462	-0.799181	-0.094879
C78	C	0.537474	-0.852597	-0.094879
C79	C	0.603705	-0.852575	-0.028668
C80	C	0.603695	-0.799164	-0.028670
C81	C	0.570569	-0.772468	-0.061777
O82	O	0.631834	-0.714655	-0.000544
O83	O	0.509278	-0.714648	-0.123026
C84	C	0.537414	-0.473365	-0.094876
C85	C	0.570524	-0.446652	-0.061770
C86	C	0.603642	-0.473350	-0.028667
C87	C	0.570519	-0.393238	-0.061772
C88	C	0.537402	-0.366539	-0.094875
C89	C	0.504288	-0.393255	-0.127978
C90	C	0.504296	-0.446666	-0.127979
C91	C	0.636755	-0.446634	0.004436
C92	C	0.636745	-0.393223	0.004434
C93	C	0.603627	-0.366524	-0.028670
C94	C	0.658948	-0.000067	-0.057571
C95	C	0.712605	-0.000070	-0.058114
C96	C	0.574732	-0.000071	0.026627
C97	C	0.574179	-0.000076	0.080282
N98	N	0.570592	0.120704	-0.061775
C99	C	0.614886	-0.000064	0.419105
C100	C	0.612837	-0.000061	0.620764
O101	O	0.650058	-0.000044	0.652027
N102	N	0.568500	-0.000057	0.639880
C103	C	0.524673	-0.000049	0.608576
O104	O	0.486916	-0.000040	0.629462
C105	C	0.526724	-0.000048	0.406918
C106	C	0.571063	-0.000058	0.387806
C107	C	0.659222	-0.000073	0.399992
C108	C	0.659734	-0.000076	0.349580
C109	C	0.615910	-0.000070	0.318281
C110	C	0.571575	-0.000061	0.337394
C111	C	0.482897	-0.000037	0.375616
C112	C	0.483414	-0.000035	0.325198
C113	C	0.527753	-0.000045	0.306086
C114	C	0.528263	-0.000059	0.255683
N115	N	0.572599	-0.000063	0.236568
C116	C	0.616423	-0.000069	0.267867
C117	C	0.523600	-0.000051	0.714450
C118	C	0.523087	-0.000052	0.764865
C119	C	0.611251	-0.000063	0.777049
C120	C	0.611763	-0.000066	0.726634
C121	C	0.567936	-0.000056	0.695335
C122	C	0.617495	-0.000077	0.161998
C123	C	0.618003	-0.000082	0.111581
C124	C	0.529840	-0.000068	0.099401
C125	C	0.529332	-0.000066	0.149813
C126	C	0.573163	-0.000068	0.181111
O127	O	0.491061	-0.000070	0.224392
O128	O	0.654175	-0.000067	0.246972
C129	C	0.614374	-0.000060	0.469517
C130	C	0.570039	-0.000051	0.488630
C131	C	0.526215	-0.000045	0.457330
C132	C	0.569526	-0.000052	0.539044
C133	C	0.613350	-0.000058	0.570343
C134	C	0.657686	-0.000063	0.551228
C135	C	0.658198	-0.000066	0.500816
C136	C	0.481879	-0.000041	0.476445
C137	C	0.481371	-0.000038	0.526858
C138	C	0.525194	-0.000044	0.558157
C139	C	0.566354	-0.000048	0.849818
C140	C	0.566911	-0.000058	0.796164
H141	H	0.100487	0.130130	-0.062063
Br142	Br	0.469157	-0.000064	0.175752
Br143	Br	0.459360	-0.517265	-0.172914
Br144	Br	0.681708	-0.517220	0.049379
H145	H	0.191937	0.130130	-0.062997
H146	H	0.494160	-0.000065	0.073908
Br147	Br	0.437448	-0.109081	-0.065540
H148	H	0.332355	0.083882	-0.064461
Br149	Br	0.492436	-0.111289	-0.139808
Br150	Br	0.648562	-0.111269	0.016254
H151	H	0.040689	0.130120	-0.061459
Br152	Br	0.648569	-0.237157	0.016265
Br153	Br	0.459345	-0.357011	-0.172906
Br154	Br	0.678182	-0.000096	0.085647
H155	H	0.653187	-0.000077	0.187475
H156	H	0.630671	-0.874322	-0.001717
Br157	Br	0.422398	-0.000030	0.433975
H158	H	0.445262	-0.000034	0.542414
Br159	Br	0.719912	-0.000075	0.323651
H160	H	0.477333	-0.468412	-0.154939
H161	H	0.694303	-0.000074	0.485260
Br162	Br	0.492504	-0.762960	-0.139811
Br163	Br	0.718705	-0.000080	0.442462
H164	H	0.446792	-0.000026	0.391168
Br165	Br	0.648641	-0.762912	0.016258
H166	H	0.447724	-0.000026	0.299717
H167	H	-0.191235	0.083862	-0.059092
Br168	Br	0.681716	-0.643109	0.049381
H169	H	-0.191276	-0.083996	-0.059099
H170	H	0.663713	-0.371477	0.031394
Br171	Br	-0.064533	-0.155354	-0.060385
Br172	Br	0.717160	-0.000075	0.593716
H173	H	0.663723	-0.468368	0.031394
Br174	Br	0.492535	-0.888848	-0.139816
H175	H	0.477356	-0.628647	-0.154941
Br176	Br	0.437515	0.108995	-0.065531
Br177	Br	0.464115	-0.000036	0.671980
H178	H	0.332321	-0.083977	-0.064455
H179	H	0.191854	-0.130238	-0.063013
Br180	Br	0.671939	-0.000080	0.700702
Br181	Br	0.670725	-0.000070	0.819536
H182	H	-0.282686	0.083856	-0.058167
H183	H	-0.050759	0.130118	-0.060524
H184	H	0.486982	-0.000053	0.780421
H185	H	-0.282741	-0.083994	-0.058161
Br186	Br	0.054295	-0.155359	-0.061604
Br187	Br	0.492449	-0.237196	-0.139817
H188	H	0.100408	-0.130242	-0.062074
