data_functionalizedCrystal
_audit_creation_method	'MofGen! by Chris Wilmer'
_symmetry_space_group_name_H-M	'P1'
_symmetry_Int_Tables_number	1
_symmetry_cell_setting	triclinic
loop_
_symmetry_equiv_pos_as_xyz
  x,y,z
_cell_length_a	20.875621
_cell_length_b	21.606444
_cell_length_c	21.606444
_cell_angle_alpha	59.991153
_cell_angle_beta	87.030131
_cell_angle_gamma	58.317858
loop_
_atom_site_label
_atom_site_type_symbol
_atom_site_fract_x
_atom_site_fract_y
_atom_site_fract_z
Zr1	Zr	0.617935	0.677517	-0.112288
O2	O	0.515509	0.806651	-0.206006
O3	O	0.649333	0.548386	-0.083544
O4	O	0.649327	0.677521	-0.212687
O5	O	0.515520	0.677511	0.024992
O6	O	0.754886	0.677522	-0.217975
O7	O	0.515515	0.677515	-0.076862
O8	O	0.754897	0.446522	0.013040
O9	O	0.515509	0.908511	-0.206023
O10	O	0.741503	0.601499	-0.075248
O11	O	0.662729	0.601495	0.004710
O12	O	0.662722	0.753536	-0.147340
O13	O	0.583949	0.753532	-0.067382
Zr14	Zr	0.786298	0.677511	0.041724
Zr15	Zr	0.786289	0.677518	-0.120721
Zr16	Zr	0.617943	0.677510	0.050157
Zr17	Zr	0.617936	0.839972	-0.112315
Zr18	Zr	0.786297	0.515056	0.041751
O19	O	0.754899	0.806642	0.012980
O20	O	0.754887	0.806652	-0.217996
O21	O	0.515521	0.806641	0.024970
O22	O	0.888724	0.548377	0.135442
O23	O	0.888712	0.548387	-0.095534
O24	O	0.649346	0.548376	0.147432
O25	O	0.888713	0.677517	-0.095556
O26	O	0.754905	0.677506	0.142123
O27	O	0.649346	0.677506	0.147411
O28	O	0.888718	0.677513	0.006298
O29	O	0.649329	0.908512	-0.212726
O30	O	0.754904	0.446516	0.142162
O31	O	0.888723	0.446517	0.135459
O32	O	0.888717	0.446522	0.006337
O33	O	0.515516	0.908505	-0.076901
O34	O	0.649336	0.908506	-0.083604
O35	O	0.741511	0.601492	0.076776
O36	O	0.820284	0.601496	-0.003182
O37	O	0.741504	0.753533	-0.075274
O38	O	0.662730	0.753529	0.004684
C39	C	0.702115	0.474307	-0.035248
C40	C	0.702115	0.405341	-0.035236
C41	C	0.643956	0.429078	-0.088451
C42	C	0.643958	0.364288	-0.088467
C43	C	0.702116	0.275763	-0.035264
C44	C	0.760281	0.252026	0.017954
C45	C	0.760281	0.316815	0.017966
C46	C	0.760280	-0.009260	0.017906
C47	C	0.760274	-0.074049	0.017891
C48	C	0.643957	0.038213	-0.088527
C49	C	0.643958	0.103002	-0.088515
C50	C	0.702124	0.079260	-0.035300
C51	C	0.702122	0.149512	-0.035284
C52	C	0.702116	0.205511	-0.035276
C53	C	0.491531	0.677513	-0.024734
C54	C	0.420060	0.677512	-0.021154
C55	C	0.386479	0.677517	-0.075586
C56	C	0.319327	0.677512	-0.072218
C57	C	0.285753	0.677509	-0.014422
C58	C	0.319340	0.677501	0.040015
C59	C	0.386494	0.677500	0.036651
C60	C	0.084914	0.677507	0.001662
C61	C	0.017754	0.677511	0.005022
C62	C	0.017746	0.677520	-0.107212
C63	C	0.084899	0.677524	-0.110574
C64	C	0.118482	0.677512	-0.056135
N65	N	0.217112	0.677507	-0.010980
N66	N	0.187126	0.677508	-0.059575
C67	C	0.912702	0.677515	-0.045830
C68	C	0.984173	0.677516	-0.049410
C69	C	0.702106	0.677523	-0.238476
C70	C	0.702102	0.677526	-0.307438
C71	C	0.702118	0.880721	-0.035316
C72	C	0.702118	0.949687	-0.035328
C73	C	0.660979	0.756887	-0.377468
C74	C	0.660986	0.756884	-0.442263
C75	C	0.702112	0.677520	-0.437027
C76	C	0.743240	0.598153	-0.366990
C77	C	0.743237	0.598156	-0.302196
C78	C	0.743252	0.598137	-0.628293
C79	C	0.743250	0.598140	-0.693094
C80	C	0.661001	0.756866	-0.768360
C81	C	0.660998	0.756869	-0.703567
C82	C	0.702129	0.677502	-0.633536
C83	C	0.702123	0.677506	-0.563278
C84	C	0.702114	0.677515	-0.507283
C85	C	0.702127	0.677505	0.167912
C86	C	0.702131	0.677502	0.236874
C87	C	0.912701	0.474308	-0.045796
C88	C	0.984172	0.405342	-0.049364
C89	C	0.702126	0.474298	0.167946
C90	C	0.702129	0.405329	0.236920
C91	C	0.912712	0.474300	0.157398
C92	C	0.984186	0.405331	0.222792
C93	C	0.491521	0.880728	-0.227962
C94	C	0.420047	0.949697	-0.293356
C95	C	0.491532	0.880719	-0.024768
C96	C	0.420061	0.949685	-0.021200
C97	C	0.702107	0.880729	-0.238510
C98	C	0.702104	0.949699	-0.307484
C99	C	0.976612	0.372957	-0.088665
C100	C	1.043759	0.308165	-0.092033
C101	C	1.118466	0.275755	-0.056095
C102	C	1.126025	0.308147	-0.016793
C103	C	1.058878	0.372943	-0.013430
C104	C	0.743254	0.372939	0.306935
C105	C	0.743254	0.308144	0.371750
C106	C	0.702133	0.275736	0.366547
C107	C	0.661004	0.308132	0.296524
C108	C	0.661000	0.372931	0.231712
C109	C	1.058877	0.372944	0.211764
C110	C	1.126041	0.308149	0.273202
C111	C	1.118512	0.275738	0.345667
C112	C	1.043813	0.308131	0.356694
C113	C	0.976651	0.372929	0.295257
C114	C	0.345356	0.982092	-0.282328
C115	C	0.278192	1.046906	-0.343766
C116	C	0.285721	1.079321	-0.416231
C117	C	0.360420	1.046924	-0.427258
C118	C	0.427582	0.982115	-0.365821
C119	C	0.427621	0.982078	0.018094
C120	C	0.360473	1.046888	0.021444
C121	C	0.285767	1.079300	-0.014496
C122	C	0.278208	1.046904	-0.053795
C123	C	0.345355	0.982100	-0.057148
C124	C	0.743232	0.982086	-0.302257
C125	C	0.743244	1.046882	-0.367060
C126	C	0.702123	1.079293	-0.437088
C127	C	0.660993	1.046899	-0.442314
C128	C	0.660986	0.982100	-0.377512
H129	H	0.596598	0.057539	-0.131860
H130	H	1.186860	0.281750	0.012465
H131	H	0.807636	-0.146135	0.061218
F132	F	0.617227	0.841336	-0.842899
F133	F	0.787026	0.407416	0.312490
H134	H	0.488445	0.955693	0.047366
H135	H	-0.009602	0.677528	-0.151533
H136	H	0.339211	0.955703	-0.223328
H137	H	1.173206	0.222975	0.395687
H138	H	0.217376	1.073273	-0.334773
F139	F	0.368534	1.081351	0.063275
F140	F	1.066936	0.407398	0.028405
F141	F	1.189924	0.206793	-0.059680
F142	F	0.283611	0.677492	0.101531
F143	F	0.897161	0.407386	0.307005
F144	F	0.787024	0.513665	-0.687515
H145	H	1.037695	0.281732	0.415703
H146	H	0.776749	0.281774	0.428759
H147	H	0.231026	1.132093	-0.466251
F148	F	0.702145	0.206770	0.435534
H149	H	0.366540	1.073324	-0.486267
F150	F	0.617244	0.273632	0.290999
F151	F	0.617230	0.407392	0.157197
F152	F	0.214309	1.148270	-0.010919
H153	H	0.627484	0.821515	-0.381741
F154	F	0.198693	1.081406	-0.092040
H155	H	0.627501	0.821508	-0.499283
H156	H	0.488397	0.955740	-0.374809
F157	F	0.787011	0.513687	-0.361418
H158	H	0.627506	0.821496	-0.707838
F159	F	0.582056	0.389557	-0.145104
H160	H	1.065022	0.399324	0.152764
H161	H	1.186858	0.281781	0.264210
H162	H	0.112251	0.677499	0.045988
H163	H	0.339189	0.955728	-0.089143
F164	F	0.787002	0.947603	-0.227734
H165	H	0.776744	0.533512	-0.571279
F166	F	0.787013	0.513689	-0.227664
H167	H	0.776736	1.073250	-0.362791
H168	H	0.807643	-0.028602	0.061237
H169	H	0.627514	1.073298	-0.499340
H170	H	0.627491	0.955738	-0.381778
H171	H	0.596589	0.501157	-0.131768
F172	F	0.582056	0.197217	-0.145138
F173	F	0.897109	0.407440	-0.126921
F174	F	1.035699	0.273700	-0.133861
F175	F	0.702136	1.148260	-0.506051
H176	H	0.807637	0.179943	0.061269
H177	H	0.112233	0.677526	-0.157637
H178	H	0.413808	0.677525	-0.122653
F179	F	0.283589	0.677516	-0.130150
F180	F	0.822184	0.291548	0.074602
H181	H	-0.009579	0.677509	0.052089
H182	H	0.413836	0.677495	0.080975
