data_functionalizedCrystal
_audit_creation_method	'MofGen! by Chris Wilmer'
_symmetry_space_group_name_H-M	'P1'
_symmetry_Int_Tables_number	1
_symmetry_cell_setting	triclinic
loop_
_symmetry_equiv_pos_as_xyz
  x,y,z
_cell_length_a	23.532407
_cell_length_b	16.974800
_cell_length_c	15.455446
_cell_angle_alpha	83.686872
_cell_angle_beta	92.661642
_cell_angle_gamma	83.120189
loop_
_atom_site_label
_atom_site_type_symbol
_atom_site_fract_x
_atom_site_fract_y
_atom_site_fract_z
O1	O	0.072493	1.048651	-0.001500
O2	O	0.572493	1.548651	0.498500
O3	O	0.082308	0.817589	0.014729
O4	O	0.582308	1.317589	0.514729
O5	O	-0.005526	0.940089	0.006109
O6	O	0.494474	1.440089	0.506109
O7	O	0.160327	0.926152	0.007120
O8	O	0.660327	1.426152	0.507120
O9	O	-0.010531	0.947054	-0.138640
O10	O	0.489469	1.447054	0.361360
O11	O	0.077304	0.824555	-0.130021
O12	O	0.577304	1.324555	0.369979
O13	O	0.067488	1.055617	-0.146249
O14	O	0.567488	1.555617	0.353751
Cu15	Cu	0.071939	0.940722	-0.151352
Cu16	Cu	0.571939	1.440722	0.348648
Cu17	Cu	0.077858	0.932484	0.019831
Cu18	Cu	0.577858	1.432484	0.519831
O19	O	0.155323	0.933118	-0.137630
O20	O	0.655323	1.433118	0.362370
C21	C	0.079527	0.791516	-0.055570
C22	C	0.579527	1.291516	0.444430
C23	C	0.078690	0.703450	-0.049386
C24	C	0.578690	1.203450	0.450614
C25	C	0.075567	0.665878	-0.125385
C26	C	0.575567	1.165878	0.374615
C27	C	0.074770	0.583132	-0.119576
C28	C	0.574770	1.083132	0.380424
C29	C	0.077101	0.537958	-0.037768
C30	C	0.577101	1.037958	0.462232
C31	C	0.080223	0.575536	0.038237
C32	C	0.580223	1.075536	0.538237
C33	C	0.081015	0.658281	0.032428
C34	C	0.581015	1.158281	0.532428
C35	C	0.075021	0.290079	-0.011932
C36	C	0.575021	0.790079	0.488068
C37	C	0.074230	0.207328	-0.006128
C38	C	0.574230	0.707328	0.493872
C39	C	0.068777	0.214930	-0.163942
C40	C	0.568777	0.714930	0.336058
C41	C	0.069573	0.297676	-0.169745
C42	C	0.569573	0.797676	0.330255
C43	C	0.072691	0.335247	-0.093740
C44	C	0.572691	0.835247	0.406260
N45	N	0.076289	0.453378	-0.031828
N46	N	0.576289	0.953378	0.468172
N47	N	0.073499	0.419826	-0.099680
N48	N	0.573499	0.919826	0.400320
C49	C	-0.029245	0.943217	-0.066243
C50	C	0.470755	1.443217	0.433757
C51	C	-0.092463	0.942150	-0.066175
C52	C	0.407537	1.442150	0.433825
C53	C	-0.491511	1.007948	-0.070748
C54	C	0.008489	1.507948	0.429252
C55	C	-0.550911	1.006957	-0.070672
C56	C	-0.050911	1.506957	0.429328
O57	O	-0.587605	1.067952	-0.074924
O58	O	-0.087605	1.567952	0.425076
N59	N	-0.573597	0.934131	-0.065558
N60	N	-0.073597	1.434131	0.434442
C61	C	-0.536878	0.862292	-0.060511
C62	C	-0.036878	1.362292	0.439489
O63	O	-0.561628	0.800258	-0.056153
O64	O	-0.061628	1.300258	0.443847
C65	C	-0.477478	0.863284	-0.060581
C66	C	0.022522	1.363284	0.439419
C67	C	-0.454796	0.936115	-0.065704
C68	C	0.045204	1.436115	0.434296
C69	C	-0.468828	1.080773	-0.075871
C70	C	0.031172	1.580773	0.424129
C71	C	-0.409432	1.081764	-0.075948
C72	C	0.090568	1.581764	0.424052
C73	C	-0.372717	1.009930	-0.070904
C74	C	0.127283	1.509930	0.429096
C75	C	-0.395400	0.937106	-0.065782
C76	C	0.104600	1.437106	0.434218
C77	C	-0.440760	0.791446	-0.055527
C78	C	0.059240	1.291446	0.444473
C79	C	-0.381356	0.792444	-0.055597
C80	C	0.118644	1.292444	0.444403
C81	C	-0.358675	0.865275	-0.060721
C82	C	0.141325	1.365275	0.439279
C83	C	-0.299288	0.866264	-0.060816
C84	C	0.200712	1.366264	0.439184
N85	N	-0.276603	0.939089	-0.065930
N86	N	0.223397	1.439089	0.434070
C87	C	-0.313317	1.010922	-0.070974
C88	C	0.186683	1.510922	0.429026
C89	C	-0.661622	0.860215	-0.060363
C90	C	-0.161622	1.360215	0.439637
C91	C	-0.721021	0.859222	-0.060299
C92	C	-0.221021	1.359222	0.439701
C93	C	-0.735050	1.003887	-0.070459
C94	C	-0.235050	1.503887	0.429541
C95	C	-0.675651	1.004879	-0.070529
C96	C	-0.175651	1.504879	0.429471
C97	C	-0.638936	0.933040	-0.065477
C98	C	-0.138936	1.433040	0.434523
C99	C	-0.188580	1.012998	-0.071138
C100	C	0.311420	1.512998	0.428862
C101	C	-0.129177	1.013983	-0.071219
C102	C	0.370823	1.513983	0.428781
C103	C	-0.115153	0.869319	-0.061054
C104	C	0.384847	1.369319	0.438946
C105	C	-0.174550	0.868334	-0.060978
C106	C	0.325450	1.368334	0.439022
C107	C	-0.211263	0.940180	-0.066017
C108	C	0.288737	1.440180	0.433983
O109	O	-0.262560	0.805300	-0.056562
O110	O	0.237440	1.305300	0.443438
O111	O	-0.288559	1.072946	-0.075320
O112	O	0.211441	1.572946	0.424680
C113	C	0.179041	0.929989	-0.065276
C114	C	0.679041	1.429989	0.434724
C115	C	0.242260	0.931056	-0.065338
C116	C	0.742260	1.431056	0.434662
C117	C	0.070270	1.081690	-0.075948
C118	C	0.570270	1.581690	0.424052
C119	C	0.071107	1.169756	-0.082127
C120	C	0.571107	1.669756	0.417873
N121	N	0.067776	0.946522	-0.271753
N122	N	0.567776	1.446522	0.228247
C123	C	0.044716	0.978742	-0.818014
C124	C	0.544716	1.478742	-0.318014
C125	C	0.047871	0.974337	-0.726898
C126	C	0.547871	1.474337	-0.226898
C127	C	0.088325	0.917877	-0.677538
C128	C	0.588325	1.417877	-0.177538
C129	C	0.125630	0.865824	-0.719298
C130	C	0.625630	1.365824	-0.219298
C131	C	0.122476	0.870232	-0.810413
C132	C	0.622476	1.370232	-0.310413
C133	C	0.101927	0.898877	-0.404628
C134	C	0.601927	1.398877	0.095372
C135	C	0.105076	0.894471	-0.313507
C136	C	0.605076	1.394471	0.186493
C137	C	0.027318	1.002986	-0.321113
C138	C	0.527318	1.502986	0.178887
C139	C	0.024167	1.007386	-0.412229
C140	C	0.524167	1.507386	0.087771
C141	C	0.061473	0.955336	-0.453982
C142	C	0.561473	1.455336	0.046018
N143	N	0.091550	0.913372	-0.584403
N144	N	0.591550	1.413372	-0.084403
N145	N	0.058250	0.959845	-0.547116
N146	N	0.558250	1.459845	-0.047116
N147	N	0.082016	0.926690	0.140232
N148	N	0.582016	1.426690	0.640232
H149	H	-0.110714	1.073293	-0.075393
H150	H	0.389286	1.573293	0.424607
H151	H	-0.085249	0.810835	-0.056951
H152	H	0.414751	1.310835	0.443049
H153	H	0.073673	0.702652	-0.192002
H154	H	0.573673	1.202652	0.307998
H155	H	0.077559	0.320659	0.049957
H156	H	0.577559	0.820659	0.549957
C157	C	0.082785	0.525842	0.128228
C158	C	0.582785	1.025842	0.628228
N159	N	0.084717	0.488413	0.196011
N160	N	0.584717	0.988413	0.696011
C161	C	-0.465695	0.711325	-0.049885
C162	C	0.034305	1.211325	0.450115
N163	N	-0.484475	0.650973	-0.045632
N164	N	0.015525	1.150973	0.454368
H165	H	0.083559	0.688871	0.094315
H166	H	0.583559	1.188871	0.594315
C167	C	0.065341	0.173596	-0.247542
C168	C	0.565341	0.673596	0.252458
N169	N	0.062750	0.142463	-0.310513
N170	N	0.562750	0.642463	0.189487
H171	H	0.138020	0.848491	-0.273321
H172	H	0.638020	1.348491	0.226679
H173	H	-0.218464	1.071502	-0.075238
H174	H	0.281536	1.571502	0.424762
H175	H	-0.764954	1.062377	-0.074562
H176	H	-0.264954	1.562377	0.425438
H177	H	-0.390970	1.141069	-0.080117
H178	H	0.109030	1.641069	0.419883
C179	C	-0.340974	0.713414	-0.050043
C180	C	0.159026	1.213414	0.449957
N181	N	-0.310559	0.653888	-0.045862
N182	N	0.189441	1.153888	0.454138
H183	H	0.132302	0.856494	-0.438615
H184	H	0.632302	1.356494	0.061385
H185	H	-0.498716	1.139271	-0.079975
H186	H	0.001284	1.639271	0.420025
C187	C	-0.650707	1.084996	-0.076157
C188	C	-0.150707	1.584996	0.423843
N189	N	-0.631922	1.145344	-0.080393
N190	N	-0.131922	1.645344	0.419607
H191	H	-0.739483	0.799917	-0.056142
H192	H	-0.239483	1.299917	0.443858
C193	C	0.076794	0.157638	0.083872
C194	C	0.576794	0.657638	0.583872
N195	N	0.078726	0.120212	0.151656
N196	N	0.578726	0.620212	0.651656
C197	C	0.170129	0.803717	-0.664998
C198	C	0.670129	1.303717	-0.164998
N199	N	0.203645	0.756934	-0.624100
N200	N	0.703645	1.256934	-0.124100
H201	H	-0.631732	0.801711	-0.056256
H202	H	-0.131732	1.301711	0.443744
C203	C	-0.020352	1.069474	-0.466517
C204	C	0.479648	1.569474	0.033483
N205	N	-0.053892	1.116228	-0.507407
N206	N	0.446108	1.616228	-0.007407
C207	C	-0.013718	1.060234	-0.275178
C208	C	0.486282	1.560234	0.224822
N209	N	-0.044629	1.103356	-0.240579
N210	N	0.455371	1.603356	0.259421
H211	H	-0.193019	0.809031	-0.056830
H212	H	0.306981	1.309031	0.443170
H213	H	0.011772	1.024714	-0.858198
H214	H	0.511772	1.524714	-0.358198
H215	H	0.067672	0.334451	-0.236362
H216	H	0.567672	0.834451	0.263638
C217	C	0.071348	0.541804	-0.203182
C218	C	0.571348	1.041804	0.296818
N219	N	0.068774	0.510676	-0.266158
N220	N	0.568774	1.010676	0.233842
H221	H	0.017499	1.016722	-0.692903
H222	H	0.517499	1.516722	-0.192903
H223	H	0.152851	0.827848	-0.844408
H224	H	0.652851	1.327848	-0.344408
