data_functionalizedCrystal
_audit_creation_method	'MofGen! by Chris Wilmer'
_symmetry_space_group_name_H-M	'P1'
_symmetry_Int_Tables_number	1
_symmetry_cell_setting	triclinic
loop_
_symmetry_equiv_pos_as_xyz
  x,y,z
_cell_length_a	23.096457
_cell_length_b	14.560438
_cell_length_c	14.560438
_cell_angle_alpha	60.000069
_cell_angle_beta	89.997959
_cell_angle_gamma	59.999411
loop_
_atom_site_label
_atom_site_type_symbol
_atom_site_fract_x
_atom_site_fract_y
_atom_site_fract_z
Zr1	Zr	0.557766	1.005292	-0.120540
O2	O	0.465317	1.196893	-0.267179
O3	O	0.586106	0.813691	-0.075589
O4	O	0.586106	1.005295	-0.267190
O5	O	0.465317	1.005286	0.075562
O6	O	0.681386	1.005298	-0.267196
O7	O	0.465317	1.005289	-0.075579
O8	O	0.681386	0.662553	0.075543
O9	O	0.465318	1.348031	-0.267177
O10	O	0.669300	0.892501	-0.056419
O11	O	0.598193	0.892497	0.056379
O12	O	0.598193	1.118086	-0.169206
O13	O	0.527087	1.118082	-0.056407
Zr14	Zr	0.709727	1.005292	0.120504
Zr15	Zr	0.709727	1.005296	-0.120548
Zr16	Zr	0.557766	1.005288	0.120513
Zr17	Zr	0.557766	1.246339	-0.120535
Zr18	Zr	0.709727	0.764244	0.120499
O19	O	0.681387	1.196892	0.075553
O20	O	0.681387	1.196898	-0.267192
O21	O	0.465318	1.196887	0.075566
O22	O	0.802176	0.813691	0.267144
O23	O	0.802175	0.813697	-0.075602
O24	O	0.586106	0.813685	0.267156
O25	O	0.802175	1.005298	-0.075598
O26	O	0.681387	1.005288	0.267154
O27	O	0.586107	1.005286	0.267160
O28	O	0.802176	1.005295	0.075543
O29	O	0.586106	1.348034	-0.267184
O30	O	0.681386	0.662550	0.267148
O31	O	0.802175	0.662553	0.267141
O32	O	0.802175	0.662556	0.075536
O33	O	0.465318	1.348027	-0.075572
O34	O	0.586107	1.348030	-0.075579
O35	O	0.669300	0.892497	0.169170
O36	O	0.740406	0.892501	0.056371
O37	O	0.669300	1.118086	-0.056415
O38	O	0.598193	1.118082	0.056384
C39	C	0.633746	0.703778	-0.000024
C40	C	0.633746	0.601447	-0.000026
C41	C	0.670861	0.553373	-0.058906
C42	C	0.670864	0.457214	-0.058895
C43	C	0.596630	0.457215	0.058877
C44	C	0.596632	0.553366	0.058872
C45	C	0.443666	1.005287	-0.000007
C46	C	0.379155	1.005285	-0.000003
C47	C	0.385966	0.887535	0.058859
C48	C	0.325350	0.887533	0.058864
C49	C	0.257924	1.005288	-0.000015
C50	C	0.251115	1.123053	-0.058881
C51	C	0.311731	1.123052	-0.058874
N52	N	0.135128	1.092940	-0.095841
N53	N	0.077549	1.092933	-0.095845
C54	C	0.075291	1.005300	-0.000035
N55	N	0.132795	0.917653	0.095776
N56	N	0.190381	0.917656	0.095778
C57	C	0.192193	1.005303	-0.000028
C58	C	0.016379	0.887540	0.058838
C59	C	-0.044239	0.887543	0.058846
C60	C	-0.118474	1.123066	-0.058910
C61	C	-0.057856	1.123059	-0.058907
C62	C	0.009568	1.005293	-0.000036
C63	C	0.823827	1.005297	-0.000029
C64	C	0.888338	1.005299	-0.000033
C65	C	0.633746	1.005297	-0.301538
C66	C	0.633746	1.005299	-0.403871
C67	C	0.633747	1.306806	-0.000012
C68	C	0.633747	1.409137	-0.000010
C69	C	0.686237	1.005301	-0.451950
C70	C	0.686239	1.005290	-0.548095
C71	C	0.581253	1.005278	-0.548078
C72	C	0.581255	1.005281	-0.451929
C73	C	0.633747	1.005286	0.301502
C74	C	0.633747	1.005285	0.403835
C75	C	0.823826	0.703783	-0.000035
C76	C	0.888338	0.601454	-0.000040
C77	C	0.633746	0.703773	0.301496
C78	C	0.633746	0.601440	0.403827
C79	C	0.823827	0.703778	0.301485
C80	C	0.888338	0.601447	0.403812
C81	C	0.443666	1.306806	-0.301521
C82	C	0.379155	1.409137	-0.403848
C83	C	0.443667	1.306800	-0.000001
C84	C	0.379155	1.409130	0.000004
C85	C	0.633747	1.306811	-0.301532
C86	C	0.633747	1.409144	-0.403863
C87	C	0.881516	0.553399	-0.058929
C88	C	0.942126	0.457263	-0.058956
C89	C	1.009556	0.409177	-0.000089
C90	C	1.016377	0.457241	0.058801
C91	C	0.955768	0.553382	0.058822
C92	C	0.955757	0.553393	0.392986
C93	C	1.016378	0.457255	0.489125
C94	C	1.009579	0.409167	0.596088
C95	C	0.942153	0.457230	0.606911
C96	C	0.881534	0.553372	0.510774
C97	C	0.311736	1.457202	-0.393022
C98	C	0.251115	1.553370	-0.489160
C99	C	0.257914	1.601463	-0.596123
C100	C	0.325340	1.553394	-0.606947
C101	C	0.385959	1.457235	-0.510810
C102	C	0.385977	1.457195	0.058883
C103	C	0.325367	1.553357	0.058884
C104	C	0.257937	1.601446	0.000013
C105	C	0.251116	1.553377	-0.058873
C106	C	0.311725	1.457223	-0.058880
C107	C	0.670863	0.553362	0.510778
C108	C	0.670855	0.457218	0.606925
C109	C	0.596613	0.457235	0.489157
C110	C	0.596617	0.553384	0.393012
H111	H	0.566413	0.418056	0.106828
H112	H	0.701077	0.418079	0.694006
H113	H	-0.173373	1.218944	-0.106852
H114	H	0.208548	1.679762	-0.674395
H115	H	-0.063405	1.218944	-0.106847
Br116	Br	0.546234	0.618650	0.247852
H117	H	0.440877	1.418048	0.106830
H118	H	0.538515	1.005266	-0.587218
Br119	Br	0.510018	1.005262	-0.386664
Br120	Br	0.790011	0.618640	-0.138834
H121	H	0.936558	0.418141	-0.106911
Br122	Br	0.932938	0.391953	0.752084
Br123	Br	0.159598	1.618652	-0.138761
Br124	Br	0.175688	1.731943	0.000034
Br125	Br	1.091805	0.278698	-0.000128
Br126	Br	1.107895	0.391964	0.138692
H127	H	0.566385	0.418095	0.480365
H128	H	0.961332	0.592496	0.106782
Br129	Br	0.757476	1.005322	-0.386729
Br130	Br	0.334640	1.618570	0.138809
H131	H	0.728982	1.005289	-0.587238
H132	H	-0.038687	0.791653	0.106787
Br133	Br	0.546266	0.618602	0.138800
H134	H	0.961306	0.592532	0.305900
Br135	Br	0.302454	1.391998	-0.138788
H136	H	0.701088	0.418073	-0.106839
Br137	Br	0.721232	0.618620	-0.138834
Br138	Br	1.107875	0.392044	0.474409
Br139	Br	1.091857	0.278686	0.726550
H140	H	0.440862	0.791640	0.106790
Br141	Br	0.334588	0.727719	0.138751
Br142	Br	0.159610	1.282864	-0.138779
H143	H	0.701093	0.592490	0.519590
H144	H	0.306179	1.218941	-0.106805
Br145	Br	0.790039	0.618571	0.525487
H146	H	0.306187	1.418050	-0.305936
H147	H	0.196220	1.592492	-0.480326
Br148	Br	0.477454	1.392008	-0.525523
Br149	Br	0.334555	1.618675	-0.752120
Br150	Br	0.107885	0.727718	0.138736
