data_functionalizedCrystal
_audit_creation_method	'MofGen! by Chris Wilmer'
_symmetry_space_group_name_H-M	'P1'
_symmetry_Int_Tables_number	1
_symmetry_cell_setting	triclinic
loop_
_symmetry_equiv_pos_as_xyz
  x,y,z
_cell_length_a	13.596369
_cell_length_b	12.837943
_cell_length_c	12.837942
_cell_angle_alpha	94.828940
_cell_angle_beta	89.994711
_cell_angle_gamma	89.995986
loop_
_atom_site_label
_atom_site_type_symbol
_atom_site_fract_x
_atom_site_fract_y
_atom_site_fract_z
O1	O	0.081773	-1.402337	-0.272142
O2	O	0.081779	-1.099204	-0.258699
O3	O	0.081770	-1.244049	-0.113854
O4	O	0.081782	-1.257492	-0.416987
O5	O	-0.081813	-1.244032	-0.113844
O6	O	-0.081804	-1.099187	-0.258689
O7	O	-0.081810	-1.402320	-0.272132
Zn8	Zn	-0.107779	-1.250751	-0.265409
Zn9	Zn	0.107748	-1.250773	-0.265422
O10	O	-0.081801	-1.257475	-0.416977
C11	C	-0.000012	-1.060126	-0.254153
C12	C	-0.000010	-0.943711	-0.240608
C13	C	-0.000021	-1.239499	-0.074780
C14	C	-0.000019	-1.225954	0.041635
N15	N	-0.254871	-1.250743	-0.265400
C16	C	-0.656162	-1.250772	-0.265423
C17	C	-0.544511	-1.250761	-0.265420
C18	C	-0.455520	-1.250758	-0.265412
C19	C	-0.343862	-1.250746	-0.265407
N20	N	0.254840	-1.250788	-0.265424
C21	C	-0.000017	-1.441398	-0.276679
C22	C	-0.000013	-1.557813	-0.290223
C23	C	-0.000018	-0.718837	-0.403437
C24	C	-0.000016	-0.609454	-0.390716
C25	C	-0.000013	-0.615562	-0.202445
C26	C	-0.000014	-0.724944	-0.215166
C27	C	-0.000015	-0.776578	-0.315666
C28	C	-0.000009	-0.885962	-0.328386
C29	C	-0.000013	-0.892067	-0.140116
C30	C	-0.000012	-0.782685	-0.127395
C31	C	-0.000008	-1.262025	-0.456051
C32	C	-0.000004	-1.275569	-0.572467
C33	C	-0.000002	-1.388784	0.266510
C34	C	0.000000	-1.376062	0.375892
C35	C	-0.000006	-1.187791	0.369785
C36	C	-0.000008	-1.200513	0.260402
C37	C	-0.000007	-1.301012	0.208769
C38	C	-0.000016	-1.313732	0.099384
C39	C	-0.000016	-1.125462	0.093279
C40	C	-0.000014	-1.112741	0.202661
H41	H	-0.000012	-0.928000	-0.410218
H42	H	-0.000094	-0.573502	-0.120623
C43	C	-0.084106	-0.482899	-0.485626
C44	C	-0.000015	-0.545985	-0.487198
H45	H	-0.084107	-0.443722	-0.545197
H46	H	-0.084097	-0.436494	-0.423964
H47	H	-0.141145	-0.525702	-0.486669
H48	H	0.057025	-0.503181	-0.486147
H49	H	-0.000015	-0.592395	-0.548876
H50	H	-0.000017	-0.760878	-0.485268
C51	C	-0.000005	-0.617720	-0.024296
C52	C	-0.000006	-0.725923	-0.016930
H53	H	0.000007	-0.582682	0.043903
H54	H	-0.057050	-0.598541	-0.060871
H55	H	0.057041	-0.598555	-0.060903
H56	H	-0.057056	-0.745089	0.019671
H57	H	0.057045	-0.745109	0.019660
H58	H	-0.000005	-0.939092	-0.068646
H59	H	0.000004	-1.105969	0.411844
H60	H	-0.000019	-1.395564	0.057346
H61	H	-0.000010	-1.470614	0.224469
C62	C	0.084095	-1.532623	0.414755
C63	C	0.000003	-1.472545	0.439360
H64	H	0.084093	-1.592193	0.453934
H65	H	0.141127	-1.491863	0.431427
H66	H	0.084084	-1.554572	0.342218
H67	H	0.000018	-1.450590	0.511896
H68	H	-0.057044	-1.513312	0.422695
C69	C	-0.000020	-1.009642	0.367626
C70	C	-0.000022	-1.002276	0.259423
H71	H	-0.000034	-0.941444	0.402665
H72	H	0.057026	-1.046226	0.386793
H73	H	-0.057064	-1.046241	0.386804
H74	H	0.057026	-0.965684	0.240245
H75	H	-0.057074	-0.965677	0.240249
C76	C	0.084072	-1.030536	-0.033278
C77	C	-0.000017	-1.028971	0.029812
H78	H	0.084070	-0.970963	-0.072452
H79	H	0.084064	-1.092196	-0.079685
H80	H	0.141113	-1.029491	0.009522
H81	H	-0.057058	-1.030023	-0.012989
H82	H	-0.000018	-0.967295	0.076225
