data_functionalizedCrystal
_audit_creation_method	'MofGen! by Chris Wilmer'
_symmetry_space_group_name_H-M	'P1'
_symmetry_Int_Tables_number	1
_symmetry_cell_setting	triclinic
loop_
_symmetry_equiv_pos_as_xyz
  x,y,z
_cell_length_a	17.638336
_cell_length_b	17.637015
_cell_length_c	16.959447
_cell_angle_alpha	101.248830
_cell_angle_beta	101.211961
_cell_angle_gamma	87.828186
loop_
_atom_site_label
_atom_site_type_symbol
_atom_site_fract_x
_atom_site_fract_y
_atom_site_fract_z
Zn1	Zn	1.099767	-0.537565	0.560118
Zn2	Zn	1.599767	-0.037565	1.060118
Zn3	Zn	1.074010	-0.664583	0.397034
Zn4	Zn	1.574010	-0.164583	0.897034
Zn5	Zn	0.972783	-0.511872	0.407522
Zn6	Zn	1.472783	-0.011872	0.907522
Zn7	Zn	0.947083	-0.638818	0.508765
Zn8	Zn	1.447083	-0.138818	1.008765
O9	O	1.023411	-0.588209	0.468360
O10	O	1.523411	-0.088209	0.968360
O11	O	1.202613	-0.575950	0.555587
O12	O	1.702613	-0.075950	1.055587
O13	O	1.060558	-0.644356	0.287803
O14	O	1.560558	-0.144356	0.787803
O15	O	1.011162	-0.408995	0.453645
O16	O	1.511162	0.091005	0.953645
O17	O	1.183690	-0.669269	0.435770
O18	O	1.683690	-0.169269	0.935770
O19	O	1.104457	-0.427872	0.565757
O20	O	1.604457	0.072128	1.065757
O21	O	0.986187	-0.532160	0.295509
O22	O	1.486187	-0.032160	0.795509
O23	O	0.863111	-0.507176	0.403850
O24	O	1.363111	-0.007176	0.903850
O25	O	0.967361	-0.625356	0.626199
O26	O	1.467361	-0.125356	1.126199
O27	O	0.844229	-0.600443	0.478232
O28	O	1.344229	-0.100443	0.978232
O29	O	1.079537	-0.550966	0.663928
O30	O	1.579537	-0.050966	1.163928
O31	O	1.035638	-0.767450	0.385974
O32	O	1.535638	-0.267450	0.885974
O33	O	0.942385	-0.748521	0.468062
O34	O	1.442385	-0.248521	0.968062
C35	C	0.826117	-0.548226	0.436607
C36	C	1.326117	-0.048226	0.936607
C37	C	0.741711	-0.531139	0.423037
C38	C	1.241711	-0.031139	0.923037
C39	C	0.632566	-0.458423	0.365281
C40	C	1.132566	0.041577	0.865281
C41	C	0.711878	-0.474484	0.378036
C42	C	1.211878	0.025516	0.878036
C43	C	0.692236	-0.571759	0.455297
C44	C	1.192236	-0.071759	0.955297
C45	C	0.612921	-0.555709	0.442545
C46	C	1.112921	-0.055709	0.942545
C47	C	0.583092	-0.499039	0.397537
C48	C	1.083092	0.000961	0.897537
C49	C	0.563447	-0.596325	0.474801
C50	C	1.063447	-0.096325	0.974801
C51	C	0.484139	-0.580273	0.462053
C52	C	0.984139	-0.080273	0.962053
C53	C	0.454304	-0.523604	0.417049
C54	C	0.954304	-0.023604	0.917049
C55	C	0.503784	-0.482987	0.384789
C56	C	1.003784	0.017013	0.884789
C57	C	0.593278	-0.652991	0.519814
C58	C	1.093278	-0.152991	1.019814
C59	C	0.543804	-0.693607	0.552070
C60	C	1.043804	-0.193607	1.052070
C61	C	0.464494	-0.677559	0.539317
C62	C	0.964494	-0.177559	1.039317
C63	C	0.434659	-0.620891	0.494313
C64	C	0.934659	-0.120891	0.994313
C65	C	0.415014	-0.718177	0.571577
C66	C	0.915014	-0.218177	1.071577
C67	C	0.335706	-0.702124	0.558829
C68	C	0.835706	-0.202124	1.058829
C69	C	0.355351	-0.604838	0.481565
C70	C	0.855351	-0.104838	0.981565
C71	C	0.983449	-0.785548	0.420328
C72	C	1.483449	-0.285548	0.920328
C73	C	0.966422	-0.869985	0.399817
C74	C	1.466422	-0.369985	0.899817
C75	C	0.893882	-0.979240	0.312493
C76	C	1.393882	-0.479240	0.812493
C77	C	0.909887	-0.899900	0.331772
C78	C	1.409887	-0.399900	0.831772
C79	C	1.006979	-0.919405	0.448607
C80	C	1.506979	-0.419405	0.948607
C81	C	0.990985	-0.998748	0.429335
C82	C	1.490985	-0.498748	0.929335
C83	C	0.934435	-1.028659	0.361277
C84	C	1.434435	-0.528659	0.861277
C85	C	1.031538	-1.048167	0.478120
C86	C	1.531538	-0.548167	0.978120
C87	C	1.015543	-1.127503	0.458851
C88	C	1.515543	-0.627503	0.958851
C89	C	0.958994	-1.157420	0.390798
C90	C	1.458994	-0.657420	0.890798
C91	C	0.918440	-1.107995	0.342009
C92	C	1.418440	-0.607995	0.842009
C93	C	1.088083	-1.018254	0.546181
C94	C	1.588083	-0.518254	1.046181
C95	C	1.128636	-1.067673	0.594965
C96	C	1.628636	-0.567673	1.094965
C97	C	1.112645	-1.147011	0.575694
C98	C	1.612645	-0.647011	1.075694
C99	C	1.056097	-1.176928	0.507641
C100	C	1.556097	-0.676928	1.007641
C101	C	1.153199	-1.196437	0.624483
C102	C	1.653199	-0.696437	1.124483
C103	C	1.137204	-1.275773	0.605215
C104	C	1.637204	-0.775773	1.105215
C105	C	1.040101	-1.256264	0.488372
C106	C	1.540101	-0.756264	0.988372
C107	C	1.221474	-0.628350	0.500237
C108	C	1.721474	-0.128350	1.000237
C109	C	1.305877	-0.645455	0.513821
C110	C	1.805877	-0.145455	1.013821
C111	C	1.023455	-0.588153	0.674548
C112	C	1.523455	-0.088153	1.174548
C113	C	1.023474	-0.588129	0.762414
C114	C	1.523474	-0.088129	1.262414
C115	C	1.063550	-0.390104	0.516600
C116	C	1.563550	0.109896	1.016600
C117	C	1.080654	-0.305684	0.537157
C118	C	1.580654	0.194316	1.037157
C119	C	1.023421	-0.588220	0.262994
C120	C	1.523421	-0.088220	0.762994
C121	C	1.023593	-0.588060	0.175204
C122	C	1.523593	-0.088060	0.675204
C123	C	0.965176	-0.626799	1.114282
C124	C	1.465176	-0.126799	1.614282
C125	C	1.081986	-0.549336	1.153565
C126	C	1.581986	-0.049336	1.653565
C127	C	1.081962	-0.549348	1.071012
C128	C	1.581962	-0.049348	1.571012
C129	C	1.023545	-0.588087	1.010090
C130	C	1.523545	-0.088087	1.510090
C131	C	0.965152	-0.626814	1.031721
C132	C	1.465152	-0.126814	1.531721
C133	C	1.140359	-0.510628	1.049374
C134	C	1.640359	-0.010628	1.549374
C135	C	1.140339	-0.510639	0.966817
C136	C	1.640339	-0.010639	1.466817
C137	C	1.081918	-0.549374	0.905893
C138	C	1.581918	-0.049374	1.405893
C139	C	1.023521	-0.588102	0.927528
C140	C	1.523521	-0.088102	1.427528
C141	C	0.965104	-0.626841	0.866606
C142	C	1.465104	-0.126841	1.366606
C143	C	0.906704	-0.665565	0.888240
C144	C	1.406704	-0.165565	1.388240
C145	C	0.906731	-0.665549	0.970797
C146	C	1.406731	-0.165549	1.470797
C147	C	1.081891	-0.549390	0.823336
C148	C	1.581891	-0.049390	1.323336
C149	C	0.965080	-0.626856	0.784045
C150	C	1.465080	-0.126856	1.284045
H151	H	0.479496	-0.436841	0.348138
H152	H	0.979496	0.063159	0.848138
F153	F	1.144044	-0.508186	0.800313
F154	F	1.644044	-0.008186	1.300313
F155	F	0.866724	-0.847307	0.279840
F156	F	1.366724	-0.347307	0.779840
H157	H	0.917504	-0.658394	0.734446
H158	H	1.417504	-0.158394	1.234446
H159	H	1.187891	-0.479107	0.949211
H160	H	1.687891	0.020893	1.449211
H161	H	0.331063	-0.558692	0.444915
H162	H	0.831063	-0.058692	0.944915
H163	H	0.389727	-0.510533	0.406675
H164	H	0.889727	-0.010533	0.906675
H165	H	0.945966	-1.222020	0.375115
H166	H	1.445966	-0.722020	0.875115
H167	H	1.174677	-1.043310	0.650380
H168	H	1.674677	-0.543310	1.150380
F169	F	0.677686	-0.670075	0.533379
F170	F	1.177686	-0.170075	1.033379
H171	H	0.859144	-0.697110	0.838626
H172	H	1.359144	-0.197110	1.338626
H173	H	0.716534	-0.617897	0.491945
H174	H	1.216534	-0.117897	0.991945
F175	F	0.575558	-0.753921	0.599965
F176	F	1.075558	-0.253921	1.099965
H177	H	0.859187	-0.697078	0.988420
H178	H	1.359187	-0.197078	1.488420
F179	F	0.979923	-1.288104	0.415929
F180	F	1.479923	-0.788104	0.915929
H181	H	0.752159	-0.441398	0.351775
H182	H	1.252159	0.058602	0.851775
F183	F	0.600814	-0.398118	0.317365
F184	F	1.100814	0.101882	0.817365
H185	H	0.917626	-0.658324	1.131901
H186	H	1.417626	-0.158324	1.631901
H187	H	0.439314	-0.764311	0.608229
H188	H	0.939314	-0.264311	1.108229
H189	H	1.129550	-0.517801	1.203172
H190	H	1.629550	-0.017801	1.703172
F191	F	1.213371	-1.164590	0.696921
F192	F	1.713371	-0.664590	1.196921
H193	H	0.847838	-1.003596	0.257069
H194	H	1.347838	-0.503596	0.757069
H195	H	0.295423	-0.735196	0.585098
H196	H	0.795423	-0.235196	1.085098
F197	F	0.858262	-1.139834	0.269566
F198	F	1.358262	-0.639834	0.769566
H199	H	1.053019	-0.895041	0.504022
H200	H	1.553019	-0.395041	1.004022
F201	F	1.104895	-0.933774	0.566871
F202	F	1.604895	-0.433774	1.066871
F203	F	1.180367	-1.328371	0.657135
F204	F	1.680367	-0.828371	1.157135
H205	H	1.187923	-0.479094	1.098982
H206	H	1.687923	0.020906	1.598982
