data_functionalizedCrystal
_audit_creation_method	'MofGen! by Chris Wilmer'
_symmetry_space_group_name_H-M	'P1'
_symmetry_Int_Tables_number	1
_symmetry_cell_setting	triclinic
loop_
_symmetry_equiv_pos_as_xyz
  x,y,z
_cell_length_a	23.096457
_cell_length_b	23.196402
_cell_length_c	23.196401
_cell_angle_alpha	59.999265
_cell_angle_beta	90.004056
_cell_angle_gamma	60.000277
loop_
_atom_site_label
_atom_site_type_symbol
_atom_site_fract_x
_atom_site_fract_y
_atom_site_fract_z
Zr1	Zr	0.557768	0.631020	-0.075654
O2	O	0.465306	0.751300	-0.167704
O3	O	0.586110	0.510751	-0.047439
O4	O	0.586091	0.631036	-0.167713
O5	O	0.465342	0.630997	0.047450
O6	O	0.681372	0.631038	-0.167717
O7	O	0.465325	0.631014	-0.047429
O8	O	0.681406	0.415869	0.047432
O9	O	0.465308	0.846167	-0.167700
O10	O	0.669307	0.560217	-0.035404
O11	O	0.598214	0.560203	0.035406
O12	O	0.598192	0.701824	-0.106202
O13	O	0.527098	0.701811	-0.035393
Zr14	Zr	0.709757	0.630997	0.075662
Zr15	Zr	0.709729	0.631023	-0.075659
Zr16	Zr	0.557796	0.630994	0.075667
Zr17	Zr	0.557772	0.782323	-0.075647
Zr18	Zr	0.709753	0.479694	0.075655
O19	O	0.681415	0.751266	0.047447
O20	O	0.681375	0.751303	-0.167712
O21	O	0.465346	0.751263	0.047455
O22	O	0.802220	0.510717	0.167712
O23	O	0.802180	0.510754	-0.047447
O24	O	0.586150	0.510714	0.167720
O25	O	0.802183	0.631019	-0.047442
O26	O	0.681434	0.630980	0.167721
O27	O	0.586154	0.630979	0.167725
O28	O	0.802201	0.631003	0.047437
O29	O	0.586097	0.846169	-0.167704
O30	O	0.681428	0.415848	0.167712
O31	O	0.802217	0.415850	0.167708
O32	O	0.802195	0.415871	0.047428
O33	O	0.465331	0.846146	-0.047420
O34	O	0.586120	0.846148	-0.047424
O35	O	0.669334	0.560192	0.106210
O36	O	0.740427	0.560206	0.035401
O37	O	0.669311	0.701814	-0.035398
O38	O	0.598218	0.701800	0.035412
C39	C	0.633757	0.441752	-0.000004
C40	C	0.633756	0.377520	-0.000007
C41	C	0.670861	0.347357	-0.036971
C42	C	0.670868	0.286996	-0.036966
C43	C	0.633756	0.256812	-0.000005
C44	C	0.596649	0.286980	0.036968
C45	C	0.596649	0.347334	0.036967
C46	C	0.571583	0.194783	-0.005278
C47	C	0.571581	0.134433	-0.005282
C48	C	0.633756	0.070657	0.000002
C49	C	0.695934	0.067246	0.005276
C50	C	0.695934	0.127600	0.005275
C51	C	0.633752	0.191368	0.000001
C52	C	0.670872	-0.024957	-0.036958
C53	C	0.670881	-0.085323	-0.036947
C54	C	0.596655	-0.085332	0.036981
C55	C	0.596653	-0.024974	0.036975
C56	C	0.633760	0.005213	0.000002
C57	C	0.443682	0.631005	0.000011
C58	C	0.379171	0.631004	0.000013
C59	C	0.385987	0.557089	0.036963
C60	C	0.325371	0.557087	0.036966
C61	C	0.257940	0.631006	0.000006
C62	C	0.251127	0.704931	-0.036945
C63	C	0.311742	0.704930	-0.036941
N64	N	0.135135	0.686033	-0.060148
N65	N	0.077555	0.686029	-0.060150
C66	C	0.075307	0.631013	-0.000007
N67	N	0.132821	0.575989	0.060138
N68	N	0.190406	0.575991	0.060139
C69	C	0.192209	0.631015	-0.000002
C70	C	0.016400	0.557091	0.036949
C71	C	-0.044218	0.557093	0.036954
C72	C	-0.118463	0.704939	-0.036964
C73	C	-0.057845	0.704935	-0.036962
C74	C	0.009584	0.631009	-0.000007
C75	C	0.823843	0.631012	-0.000003
C76	C	0.888354	0.631013	-0.000005
C77	C	0.633727	0.631041	-0.189275
C78	C	0.633716	0.631052	-0.253515
C79	C	0.633768	0.820265	0.000012
C80	C	0.633770	0.884497	0.000015
C81	C	0.686208	0.631054	-0.283680
C82	C	0.686224	0.631038	-0.344027
C83	C	0.633736	0.631036	-0.374214
C84	C	0.581239	0.631029	-0.344039
C85	C	0.581229	0.631037	-0.283690
C86	C	0.569679	0.678529	-0.493591
C87	C	0.569689	0.678526	-0.553942
C88	C	0.633767	0.631007	-0.560350
C89	C	0.697840	0.583501	-0.506405
C90	C	0.697830	0.583509	-0.446056
C91	C	0.633742	0.631026	-0.439653
C92	C	0.686281	0.630990	-0.655949
C93	C	0.686297	0.630969	-0.716295
C94	C	0.581307	0.630967	-0.716310
C95	C	0.581296	0.630981	-0.655962
C96	C	0.633783	0.630996	-0.625787
C97	C	0.633798	0.630976	0.189283
C98	C	0.633810	0.630965	0.253523
C99	C	0.823838	0.441755	-0.000011
C100	C	0.888347	0.377525	-0.000016
C101	C	0.633793	0.441720	0.189275
C102	C	0.633803	0.377477	0.253512
C103	C	0.823873	0.441723	0.189268
C104	C	0.888395	0.377481	0.253503
C105	C	0.443652	0.820294	-0.189260
C106	C	0.379131	0.884536	-0.253495
C107	C	0.443688	0.820261	0.000019
C108	C	0.379178	0.884492	0.000024
C109	C	0.633733	0.820297	-0.189267
C110	C	0.633723	0.884540	-0.253504
C111	C	0.881518	0.347367	-0.036984
C112	C	0.942126	0.287024	-0.037003
C113	C	1.009563	0.256835	-0.000050
C114	C	1.016391	0.286999	0.036920
C115	C	0.955783	0.347345	0.036934
C116	C	0.670931	0.347302	0.320644
C117	C	0.670938	0.286947	0.381007
C118	C	0.633820	0.256765	0.374237
C119	C	0.596687	0.286945	0.307098
C120	C	0.596676	0.347303	0.246736
C121	C	0.955811	0.347319	0.246706
C122	C	1.016442	0.286966	0.307055
C123	C	1.009655	0.256771	0.374201
C124	C	0.942231	0.286938	0.380996
C125	C	0.881602	0.347295	0.320647
C126	C	0.311714	0.914705	-0.246698
C127	C	0.251083	0.975077	-0.307047
C128	C	0.257871	1.005275	-0.374193
C129	C	0.325294	0.975104	-0.380988
C130	C	0.385924	0.914737	-0.320639
C131	C	0.386007	0.914656	0.036986
C132	C	0.325399	0.975016	0.036988
C133	C	0.257963	1.005207	0.000032
C134	C	0.251135	0.975040	-0.036934
C135	C	0.311742	0.914686	-0.036940
C136	C	0.670848	0.914704	-0.246711
C137	C	0.670852	0.975059	-0.307063
C138	C	0.633727	1.005253	-0.374206
C139	C	0.596600	0.975084	-0.380998
C140	C	0.596600	0.914726	-0.320647
H141	H	0.701077	0.371931	-0.067075
F142	F	0.710443	0.379411	0.327865
H143	H	0.566466	0.262362	0.301596
F144	F	0.457773	0.882538	0.076320
H145	H	1.071336	0.262409	0.301510
H146	H	0.961351	0.371895	0.192038
F147	F	0.633731	1.069494	-0.438432
H148	H	0.701080	0.890129	-0.192045
H149	H	0.701179	0.262381	0.435668
H150	H	0.196220	0.999631	-0.067022
F151	F	0.633838	0.192525	0.438486
H152	H	0.746561	0.124817	0.009571
H153	H	0.330973	0.999568	0.067093
F154	F	0.193464	1.069442	0.000046
F155	F	0.557160	0.379407	0.175291
F156	F	0.762110	-0.000625	0.010897
F157	F	0.766018	0.532947	-0.388644
F158	F	0.935018	0.254794	0.452463
F159	F	0.193337	1.069524	-0.438416
H160	H	0.566366	0.890173	-0.326188
F161	F	0.088165	0.478414	0.076282
H162	H	0.701084	0.999616	-0.301519
H163	H	0.306171	0.890128	-0.067036
H164	H	1.059029	0.207624	0.423335
H165	H	0.566374	0.999677	-0.435674
H166	H	-0.038662	0.496900	0.067048
H167	H	0.826710	0.371845	0.326191
H168	H	1.071306	0.262410	0.067006
F169	F	0.742173	0.630964	-0.748396
H170	H	0.306174	0.890121	-0.192030
F171	F	0.525357	0.631035	-0.251585
H172	H	0.701084	0.262432	-0.067067
H173	H	1.058907	0.207697	-0.000066
F174	F	0.332507	1.007250	-0.452455
F175	F	0.710369	0.007167	-0.076303
H176	H	0.701101	-0.109886	-0.067045
F177	F	0.505402	0.262657	-0.010902
H178	H	0.440816	0.890174	-0.326182
F179	F	0.525449	0.630957	-0.748431
F180	F	0.179361	0.783601	-0.076278
H181	H	0.196190	0.999633	-0.301501
H182	H	0.566435	-0.000411	0.067073
F183	F	0.557157	-0.117452	0.076318
F184	F	0.505406	0.138072	-0.010898
H185	H	0.566432	0.262399	0.067062
H186	H	0.440887	0.496892	0.067050
F187	F	0.557155	0.379436	0.076312
F188	F	0.963063	0.379431	0.076287
H189	H	0.306187	0.765123	-0.067028
F190	F	0.332623	0.478413	0.076291
F191	F	-0.190224	0.783610	-0.076295
H192	H	0.729021	0.630999	-0.631378
F193	F	0.742070	0.631066	-0.251565
F194	F	-0.065101	0.783608	-0.076292
H195	H	0.728971	0.631040	-0.368591
H196	H	0.538550	0.630984	-0.631403
F197	F	0.766043	0.532927	-0.513220
H198	H	0.517494	0.717218	-0.488378
F199	F	0.501498	0.729089	-0.611351
H200	H	0.538504	0.631025	-0.368620
H201	H	0.936553	0.262472	-0.067107
F202	F	0.809753	0.379487	-0.076320
