data_functionalizedCrystal
_audit_creation_method	'MofGen! by Chris Wilmer'
_symmetry_space_group_name_H-M	'P1'
_symmetry_Int_Tables_number	1
_symmetry_cell_setting	triclinic
loop_
_symmetry_equiv_pos_as_xyz
  x,y,z
_cell_length_a	10.908937
_cell_length_b	11.026607
_cell_length_c	17.766277
_cell_angle_alpha	89.996915
_cell_angle_beta	89.988590
_cell_angle_gamma	84.335986
loop_
_atom_site_label
_atom_site_type_symbol
_atom_site_fract_x
_atom_site_fract_y
_atom_site_fract_z
O1	O	1.662457	-0.179059	-0.062617
O2	O	1.309525	-0.088522	-0.062613
O3	O	1.456740	-0.304541	-0.062612
O4	O	1.515242	0.036960	-0.062618
O5	O	1.456705	-0.304543	0.062576
O6	O	1.309489	-0.088524	0.062575
O7	O	1.662422	-0.179061	0.062571
Cu8	Cu	1.485952	-0.133793	0.074004
Cu9	Cu	1.485994	-0.133790	-0.074046
O10	O	1.515206	0.036958	0.062570
C11	C	1.263622	-0.080062	-0.000018
C12	C	1.126895	-0.054865	-0.000017
C13	C	1.445930	-0.347575	-0.000019
C14	C	1.413757	-0.475796	-0.000021
C15	C	0.915317	-0.120775	-0.000029
C16	C	1.056631	-0.146820	-0.000019
C17	C	1.502592	-0.567529	-0.000023
C18	C	1.469342	-0.700053	-0.000025
C19	C	1.708325	-0.187521	-0.000025
C20	C	1.845052	-0.212718	-0.000032
C21	C	1.526016	0.079992	-0.000025
C22	C	1.558189	0.208213	-0.000028
N23	N	1.485932	-0.133797	0.178134
N24	N	1.486022	-0.133797	-0.178176
C25	C	1.551155	-0.229417	0.217522
C26	C	1.551161	-0.229424	0.296324
C27	C	1.485960	-0.133793	0.335735
C28	C	1.420723	-0.038164	0.296338
C29	C	1.420709	-0.038167	0.217538
C30	C	1.494294	-0.024956	0.460571
C31	C	1.494317	-0.024954	0.539370
C32	C	1.485996	-0.133786	0.578781
C33	C	1.477677	-0.242630	0.539384
C34	C	1.477663	-0.242632	0.460584
C35	C	1.485967	-0.133781	0.421181
C36	C	1.551228	-0.229421	0.703615
C37	C	1.551225	-0.229427	0.782418
C38	C	1.420795	-0.038159	0.782431
C39	C	1.420790	-0.038161	0.703629
C40	C	1.486014	-0.133792	0.664226
H41	H	1.101088	-0.244824	-0.000019
H42	H	1.604275	-0.307292	0.328399
O43	O	1.622739	-0.544343	0.000074
C44	C	1.681442	-0.595821	0.064917
H45	H	1.628723	-0.673028	0.086536
H46	H	1.683302	-0.522964	0.110317
C47	C	1.879019	-0.551350	0.018664
C48	C	1.814274	-0.646184	0.045213
H49	H	1.960958	-0.582411	0.006511
H50	H	1.839471	-0.516664	-0.025021
H51	H	1.880556	-0.490643	0.056502
H52	H	1.812725	-0.706880	0.007372
H53	H	1.853826	-0.680881	0.088891
O54	O	1.349215	-0.723326	-0.000160
C55	C	1.290503	-0.671792	-0.064985
H56	H	1.362329	-0.659855	-0.110301
H57	H	1.240230	-0.579235	-0.050323
C58	C	1.109034	-0.771313	-0.038728
C59	C	1.197252	-0.756662	-0.094389
H60	H	1.051509	-0.823661	-0.056865
H61	H	1.148587	-0.806030	0.004947
H62	H	1.067154	-0.694177	-0.026515
H63	H	1.239141	-0.833795	-0.106594
H64	H	1.157704	-0.721960	-0.138068
O65	O	1.678343	-0.768605	0.000073
C66	C	1.737039	-0.820083	0.064918
H67	H	1.684320	-0.897293	0.086534
H68	H	1.738891	-0.747226	0.110319
C69	C	1.934620	-0.775604	0.018674
C70	C	1.869875	-0.870441	0.045219
H71	H	2.016561	-0.806663	0.006525
H72	H	1.895075	-0.740918	-0.025012
H73	H	1.936150	-0.714898	0.056513
H74	H	1.868332	-0.931137	0.007377
H75	H	1.909423	-0.905139	0.088899
O76	O	1.502602	0.080701	0.577674
C77	C	1.608905	0.069107	0.623252
H78	H	1.678154	-0.005300	0.599494
H79	H	1.582759	0.043951	0.682977
C80	C	1.581745	0.282324	0.653633
C81	C	1.666802	0.190943	0.624449
H82	H	1.617457	0.357478	0.654375
H83	H	1.510124	0.290135	0.622928
H84	H	1.559964	0.261345	0.703402
H85	H	1.688570	0.211916	0.574678
H86	H	1.738429	0.183138	0.655145
H87	H	1.082440	0.043139	-0.000024
H88	H	0.889514	-0.310715	-0.000031
H89	H	1.470901	-0.331251	0.571471
O90	O	1.293637	-0.499076	-0.000155
C91	C	1.234925	-0.447542	-0.064980
H92	H	1.306752	-0.435605	-0.110296
H93	H	1.184652	-0.354986	-0.050318
C94	C	1.053457	-0.547064	-0.038724
C95	C	1.141674	-0.532412	-0.094385
H96	H	0.995931	-0.599411	-0.056861
H97	H	1.093009	-0.581780	0.004952
H98	H	1.011576	-0.469927	-0.026511
H99	H	1.183563	-0.609545	-0.106590
H100	H	1.102126	-0.497710	-0.138063
O101	O	1.614809	-0.322163	0.665324
C102	C	1.704838	-0.275234	0.619748
H103	H	1.727933	-0.184175	0.643489
H104	H	1.667902	-0.261485	0.560014
C105	C	1.793513	-0.477391	0.589426
C106	C	1.821887	-0.365555	0.618589
H107	H	1.865713	-0.533106	0.588708
H108	H	1.732856	-0.509009	0.620129
H109	H	1.762731	-0.465916	0.539651
H110	H	1.852653	-0.377028	0.668367
H111	H	1.882552	-0.333941	0.587895
H112	H	1.604260	-0.307288	0.185442
H113	H	1.470887	-0.331255	0.428510
O114	O	1.614697	-0.322384	0.820565
C115	C	1.672235	-0.406797	0.768884
H116	H	1.684592	-0.359537	0.712709
H117	H	1.612502	-0.484923	0.760517
C118	C	1.783908	-0.515357	0.868614
C119	C	1.799094	-0.457308	0.799620
H120	H	1.862158	-0.546520	0.887574
H121	H	1.745140	-0.458490	0.903433
H122	H	1.734126	-0.580454	0.861632
H123	H	1.848862	-0.392204	0.806605
H124	H	1.837873	-0.514166	0.764803
O125	O	1.357424	0.054854	0.665480
C126	C	1.299849	0.139246	0.717160
H127	H	1.350465	0.130435	0.773323
H128	H	1.200003	0.119939	0.725560
C129	C	1.241294	0.280235	0.617419
C130	C	1.303468	0.269421	0.686397
H131	H	1.243521	0.360533	0.598442
H132	H	1.280079	0.223378	0.582600
H133	H	1.158095	0.264140	0.624428
H134	H	1.386669	0.285501	0.679386
H135	H	1.264698	0.326284	0.721214
H136	H	1.367702	0.039702	0.814519
O137	O	1.502455	0.080867	0.422408
C138	C	1.509790	0.176932	0.474075
H139	H	1.546025	0.138401	0.530244
H140	H	1.414338	0.227196	0.482465
C141	C	1.553291	0.313344	0.374316
C142	C	1.597805	0.266020	0.443302
H143	H	1.607577	0.368302	0.355334
H144	H	1.548344	0.248625	0.339506
H145	H	1.473747	0.355222	0.381317
H146	H	1.677340	0.224131	0.436298
H147	H	1.602767	0.330735	0.478110
O148	O	1.357301	0.054583	0.334703
C149	C	1.267248	0.007721	0.380291
H150	H	1.295155	-0.092840	0.392095
H151	H	1.174738	0.018087	0.349942
C152	C	1.221872	0.201881	0.440645
C153	C	1.256153	0.078372	0.455148
H154	H	1.215023	0.245464	0.486819
H155	H	1.282539	0.233455	0.409929
H156	H	1.144784	0.210502	0.415352
H157	H	1.333247	0.069752	0.480432
H158	H	1.195499	0.046799	0.485870
O159	O	1.357334	0.054848	0.179390
C160	C	1.299754	0.139239	0.231068
H161	H	1.350365	0.130428	0.287233
H162	H	1.199907	0.119930	0.239464
C163	C	1.241205	0.280229	0.131326
C164	C	1.303373	0.269414	0.200307
H165	H	1.243432	0.360527	0.112350
H166	H	1.279994	0.223372	0.096508
H167	H	1.158005	0.264131	0.138332
H168	H	1.386575	0.285496	0.193298
H169	H	1.264598	0.326277	0.235123
H170	H	0.870855	-0.022779	-0.000039
