data_functionalizedCrystal
_audit_creation_method	'MofGen! by Chris Wilmer'
_symmetry_space_group_name_H-M	'P1'
_symmetry_Int_Tables_number	1
_symmetry_cell_setting	triclinic
loop_
_symmetry_equiv_pos_as_xyz
  x,y,z
_cell_length_a	19.188933
_cell_length_b	19.188930
_cell_length_c	17.666332
_cell_angle_alpha	89.989930
_cell_angle_beta	89.991845
_cell_angle_gamma	83.145175
loop_
_atom_site_label
_atom_site_type_symbol
_atom_site_fract_x
_atom_site_fract_y
_atom_site_fract_z
O1	O	0.926149	0.087174	-0.062932
O2	O	0.722838	0.098906	-0.062940
O3	O	0.830361	-0.008616	-0.062921
O4	O	0.818626	0.194696	-0.062951
O5	O	0.830341	-0.008618	0.062976
O6	O	0.722818	0.098904	0.062957
O7	O	0.926129	0.087171	0.062965
Cu8	Cu	0.824472	0.093037	0.074456
Cu9	Cu	0.824495	0.093040	-0.074431
O10	O	0.818607	0.194693	0.062946
C11	C	0.696817	0.098525	0.000008
C12	C	0.619313	0.097384	0.000005
C13	C	0.066068	0.089240	-0.068612
C14	C	0.138892	0.090308	-0.068615
C15	C	0.175299	0.090844	0.000011
C16	C	0.138877	0.090294	0.068645
C17	C	0.066055	0.089219	0.068647
N18	N	0.284311	0.132262	0.051087
N19	N	0.353488	0.133284	0.051081
C20	C	0.394707	0.094082	0.000012
N21	N	0.364134	0.053827	-0.051062
N22	N	0.294950	0.052807	-0.051059
C23	C	0.254262	0.092009	0.000018
C24	C	0.510085	0.095785	-0.068621
C25	C	0.582911	0.096849	-0.068621
C26	C	0.582894	0.096842	0.068641
C27	C	0.510070	0.095771	0.068639
C28	C	0.473669	0.095246	0.000006
C29	C	0.829971	-0.034628	0.000030
C30	C	0.828830	-0.112132	0.000036
C31	C	0.891921	-0.157056	0.000043
C32	C	0.890849	-0.229880	0.000030
C33	C	0.826683	-0.257777	0.000027
C34	C	0.763584	-0.212843	0.000017
C35	C	0.764658	-0.140021	0.000021
N36	N	0.777629	-0.365783	0.042870
N37	N	0.776614	-0.434961	0.042868
C38	C	0.823445	-0.477185	0.000012
N39	N	0.871341	-0.447619	-0.042832
N40	N	0.872358	-0.378434	-0.042826
C41	C	0.825512	-0.336739	0.000022
C42	C	0.885378	-0.601073	0.000004
C43	C	0.884304	-0.673898	-0.000013
C44	C	0.757037	-0.656860	-0.000019
C45	C	0.758113	-0.584037	-0.000010
C46	C	0.822286	-0.556148	0.000005
C47	C	0.952150	0.087553	0.000016
C48	C	1.029655	0.088694	0.000013
C49	C	0.818997	0.220705	-0.000006
C50	C	0.820137	0.298210	-0.000018
N51	N	0.824461	0.093035	0.179176
C52	C	0.866670	0.135281	0.218774
C53	C	0.866680	0.135279	0.298022
C54	C	0.824469	0.093040	0.337668
C55	C	0.782258	0.050785	0.298060
C56	C	0.782254	0.050783	0.218814
N57	N	0.763320	0.091320	0.462106
N58	N	0.763326	0.091326	0.537386
C59	C	0.824481	0.093043	0.576432
N60	N	0.885630	0.094768	0.537354
N61	N	0.885623	0.094765	0.462066
C62	C	0.824470	0.093037	0.423597
C63	C	0.866705	0.135290	0.701960
C64	C	0.866717	0.135283	0.781209
C65	C	0.782288	0.050793	0.781245
C66	C	0.782282	0.050796	0.701998
C67	C	0.824490	0.093048	0.662360
N68	N	0.824506	0.093042	0.820850
H69	H	0.036407	0.088777	0.124531
O70	O	0.907750	0.176225	0.663368
C71	C	1.002030	0.180018	0.573909
C72	C	0.955584	0.133580	0.617550
H73	H	1.040725	0.145557	0.536867
H74	H	0.967612	0.218654	0.536758
H75	H	1.032172	0.210225	0.615844
H76	H	0.925434	0.103328	0.575670
H77	H	0.990040	0.094987	0.654712
O78	O	0.947773	-0.574093	-0.000029
C79	C	1.073889	-0.598676	0.000006
C80	C	1.003277	-0.629322	0.000029
H81	H	1.118782	-0.643313	0.000069
H82	H	1.077623	-0.565022	-0.052692
H83	H	1.077532	-0.564995	0.052684
H84	H	0.999586	-0.663034	-0.052613
H85	H	0.999572	-0.662935	0.052762
O86	O	0.945576	-0.717567	-0.000145
C87	C	1.018221	-0.809681	-0.065349
C88	C	0.948811	-0.760256	-0.065302
H89	H	1.020853	-0.844218	-0.118015
H90	H	1.064294	-0.777269	-0.065386
H91	H	1.020881	-0.844183	-0.012642
H92	H	0.946083	-0.725744	-0.118000
H93	H	0.902772	-0.792710	-0.065226
H94	H	0.168524	0.090729	0.124521
O95	O	0.741209	0.009745	0.663645
C96	C	0.657500	-0.074086	0.672046
C97	C	0.703970	-0.027614	0.715574
H98	H	0.627391	-0.104314	0.714012
H99	H	0.618787	-0.039683	0.634967
H100	H	0.691965	-0.112705	0.634925
H101	H	0.669561	0.011011	0.752737
H102	H	0.742688	-0.062061	0.752606
O103	O	0.618234	0.097237	0.135325
C104	C	0.648558	0.037104	0.252666
C105	C	0.608513	0.036564	0.177164
H106	H	0.640701	-0.011937	0.286521
H107	H	0.706877	0.037919	0.240925
H108	H	0.627702	0.085764	0.286473
H109	H	0.629310	-0.012088	0.143319
H110	H	0.550200	0.035786	0.188958
O111	O	0.030823	0.088690	-0.135347
C112	C	0.038525	0.088848	-0.271490
C113	C	0.078529	0.089460	-0.195967
H114	H	0.077075	0.089484	-0.320521
H115	H	0.010997	0.039480	-0.274966
H116	H	-0.002129	0.137181	-0.274888
H117	H	0.119216	0.041160	-0.192518
H118	H	0.106009	0.138859	-0.192523
H119	H	0.901093	0.169683	0.813449
H120	H	0.168545	0.090757	-0.124499
H121	H	0.901052	0.169683	0.330270
O122	O	0.696780	-0.540466	-0.000107
C123	C	0.588364	-0.503582	-0.065355
C124	C	0.657794	-0.552977	-0.065327
H125	H	0.556831	-0.513670	-0.118088
H126	H	0.556718	-0.513719	-0.012705
H127	H	0.600168	-0.446748	-0.065314
H128	H	0.646053	-0.609828	-0.065395
H129	H	0.689419	-0.542779	-0.117972
H130	H	0.480447	0.095356	-0.124506
H131	H	0.747920	0.016400	0.813524
O132	O	0.618237	0.097502	-0.135308
C133	C	0.632407	0.158297	-0.252645
C134	C	0.592357	0.157653	-0.177141
H135	H	0.611488	0.206917	-0.286495
H136	H	0.690711	0.159197	-0.240905
H137	H	0.624639	0.109218	-0.286455
H138	H	0.600067	0.206723	-0.143294
H139	H	0.534067	0.156717	-0.188934
H140	H	0.704792	-0.679573	-0.000025
O141	O	0.954275	-0.130001	-0.000083
C142	C	1.063408	-0.122312	-0.065273
C143	C	0.992810	-0.152985	-0.065232
H144	H	1.094590	-0.140895	-0.117932
H145	H	1.053385	-0.062544	-0.065320
H146	H	1.094534	-0.140830	-0.012559
H147	H	0.961647	-0.134521	-0.117937
H148	H	1.002883	-0.212751	-0.065146
O149	O	0.474602	0.095337	0.135253
C150	C	0.384301	0.154606	0.214926
C151	C	0.424403	0.155182	0.139449
H152	H	0.343717	0.202992	0.218350
H153	H	0.356698	0.105282	0.218368
H154	H	0.422844	0.155137	0.263966
H155	H	0.385907	0.154676	0.090366
H156	H	0.452017	0.204501	0.136073
H157	H	0.901041	0.169683	0.186506
H158	H	0.747890	0.016393	0.330345
O159	O	0.952119	-0.273558	-0.000092
C160	C	1.024759	-0.365690	-0.065277
C161	C	0.955354	-0.316256	-0.065243
H162	H	1.027390	-0.400234	-0.117937
H163	H	1.070836	-0.333285	-0.065315
H164	H	1.027409	-0.400184	-0.012564
H165	H	0.952635	-0.281752	-0.117946
H166	H	0.909309	-0.348704	-0.065166
H167	H	0.711340	-0.235562	0.000013
H168	H	0.747881	0.016380	0.186573
H169	H	0.713280	-0.103444	0.000017
