data_functionalizedCrystal
_audit_creation_method	'MofGen! by Chris Wilmer'
_symmetry_space_group_name_H-M	'P1'
_symmetry_Int_Tables_number	1
_symmetry_cell_setting	triclinic
loop_
_symmetry_equiv_pos_as_xyz
  x,y,z
_cell_length_a	10.654541
_cell_length_b	10.540539
_cell_length_c	9.730217
_cell_angle_alpha	89.998866
_cell_angle_beta	89.999932
_cell_angle_gamma	84.504710
loop_
_atom_site_label
_atom_site_type_symbol
_atom_site_fract_x
_atom_site_fract_y
_atom_site_fract_z
O1	O	1.667901	0.178284	-0.114241
O2	O	1.302428	0.195274	-0.114252
O3	O	1.493503	0.002070	-0.114244
O4	O	1.476827	0.371489	-0.114248
O5	O	1.493497	0.002068	0.114336
O6	O	1.302422	0.195273	0.114328
O7	O	1.667895	0.178282	0.114339
Zn8	Zn	1.485158	0.186777	0.150626
Zn9	Zn	1.485166	0.186779	-0.150538
O10	O	1.476821	0.371487	0.114332
C11	C	1.255627	0.194027	0.000036
C12	C	1.116182	0.190296	0.000032
C13	C	1.492249	-0.045234	0.000043
C14	C	1.488508	-0.186180	0.000036
C15	C	1.088292	0.421325	0.000012
C16	C	1.008838	0.535081	-0.000003
C17	C	0.877819	0.531569	-0.000004
C18	C	0.826252	0.414286	0.000014
C19	C	0.905707	0.300530	0.000029
C20	C	1.036727	0.304055	0.000026
C21	C	0.933596	0.069504	0.000059
C22	C	1.064615	0.073014	0.000050
C23	C	0.882029	-0.047778	0.000077
C24	C	0.961484	-0.161538	0.000082
C25	C	1.092511	-0.158020	0.000082
C26	C	1.144070	-0.040742	0.000065
C27	C	1.345136	-0.369555	-0.000482
C28	C	1.348929	-0.222938	0.000033
C29	C	1.555676	-0.247864	0.130568
C30	C	1.550912	-0.394407	0.130678
C31	C	1.553758	-0.394924	-0.129260
C32	C	1.555043	-0.247942	-0.130986
C33	C	1.714697	0.179530	0.000048
C34	C	1.854142	0.183260	0.000043
C35	C	1.478074	0.418790	0.000041
C36	C	1.481816	0.559737	0.000040
N37	N	1.485162	0.186775	0.356162
N38	N	1.485172	0.186772	-0.356075
C39	C	1.654428	0.015742	0.356160
C40	C	1.739070	-0.069770	0.428098
C41	C	1.739082	-0.069771	0.571978
C42	C	1.654442	0.015747	0.643922
C43	C	1.569800	0.101260	0.571984
C44	C	1.569799	0.101254	0.428101
C45	C	1.400530	0.272284	0.571986
C46	C	1.400521	0.272293	0.428107
C47	C	1.315890	0.357803	0.643931
C48	C	1.231252	0.443324	0.571992
C49	C	1.231244	0.443322	0.428104
C50	C	1.315880	0.357806	0.356168
H51	H	1.194974	0.424197	-0.000017
O52	O	1.830379	-0.161990	0.649583
H53	H	1.889240	-0.221449	0.575391
O54	O	1.315911	0.357804	0.799116
H55	H	1.221925	0.336597	0.837069
H56	H	1.290002	-0.398134	-0.094089
O57	O	1.493879	-0.191423	0.259246
H58	H	1.415337	-0.119459	0.230560
H59	H	1.807981	-0.139402	0.369508
H60	H	1.654447	0.015731	0.761077
O61	O	1.139982	0.535557	0.649597
H62	H	1.156865	0.634670	0.621976
O63	O	0.792107	0.654255	-0.000014
H64	H	0.810553	0.710315	-0.093190
O65	O	1.493968	-0.436687	-0.260342
H66	H	1.394401	-0.394896	-0.264988
H67	H	1.162314	0.512952	0.369539
O68	O	1.272391	-0.409534	0.122813
H69	H	1.176057	-0.359077	0.121446
O70	O	1.683869	-0.458014	0.138569
H71	H	1.738406	-0.429466	0.048368
O72	O	1.064451	0.661577	-0.000026
H73	H	1.168905	0.644916	-0.000035
H74	H	0.719568	0.411436	0.000029
H75	H	1.315885	0.357801	0.239014
H76	H	1.656807	-0.223758	-0.138865
O77	O	1.278919	-0.166459	-0.123904
H78	H	1.199258	-0.098293	-0.089489
O79	O	1.490038	-0.193697	-0.258907
H80	H	1.558436	-0.146416	-0.322508
O81	O	1.687306	-0.457513	-0.130429
H82	H	1.703246	-0.514783	-0.225645
O83	O	0.740717	-0.051579	0.000079
H84	H	0.694128	0.047224	0.000053
H85	H	0.919487	-0.257019	0.000096
O86	O	1.278454	-0.167587	0.124195
H87	H	1.241536	-0.245559	0.184112
H88	H	1.157196	-0.250655	0.000100
O89	O	1.285383	-0.036952	0.000076
H90	H	1.307887	0.063709	0.000074
H91	H	1.501267	-0.422589	0.228251
H92	H	1.658178	-0.225548	0.135424
O93	O	1.654413	0.015748	0.200975
H94	H	1.727479	-0.058086	0.163033
