data_functionalizedCrystal
_audit_creation_method	'MofGen! by Chris Wilmer'
_symmetry_space_group_name_H-M	'P1'
_symmetry_Int_Tables_number	1
_symmetry_cell_setting	triclinic
loop_
_symmetry_equiv_pos_as_xyz
  x,y,z
_cell_length_a	25.639242
_cell_length_b	12.759400
_cell_length_c	12.759393
_cell_angle_alpha	90.031564
_cell_angle_beta	89.970128
_cell_angle_gamma	89.990414
loop_
_atom_site_label
_atom_site_type_symbol
_atom_site_fract_x
_atom_site_fract_y
_atom_site_fract_z
Zn1	Zn	0.799355	0.418347	-0.594300
Zn2	Zn	1.299355	0.918347	-0.094300
Zn3	Zn	0.799303	0.594066	-0.418620
Zn4	Zn	1.299303	1.094066	0.081380
Zn5	Zn	0.711919	0.418386	-0.418605
Zn6	Zn	1.211919	0.918386	0.081395
Zn7	Zn	0.711913	0.593969	-0.594227
Zn8	Zn	1.211913	1.093969	-0.094227
O9	O	0.755622	0.506192	-0.506438
O10	O	1.255622	1.006192	-0.006438
O11	O	0.872513	0.441681	-0.571033
O12	O	1.372513	0.941681	-0.071033
O13	O	0.787691	0.570818	-0.271597
O14	O	1.287691	1.070818	0.228403
O15	O	0.723542	0.271360	-0.441935
O16	O	1.223542	0.771360	0.058065
O17	O	0.872475	0.570781	-0.441962
O18	O	1.372475	1.070781	0.058038
O19	O	0.787781	0.271331	-0.571018
O20	O	1.287781	0.771331	-0.071018
O21	O	0.723491	0.441747	-0.271586
O22	O	1.223491	0.941747	0.228414
O23	O	0.638753	0.441653	-0.441864
O24	O	1.138753	0.941653	0.058136
O25	O	0.723532	0.570615	-0.741258
O26	O	1.223532	1.070615	-0.241258
O27	O	0.638749	0.570653	-0.570893
O28	O	1.138749	1.070653	-0.070893
O29	O	0.787775	0.441587	-0.741312
O30	O	1.287775	0.941587	-0.241312
O31	O	0.787686	0.741074	-0.441891
O32	O	1.287686	1.241074	0.058109
O33	O	0.723481	0.741003	-0.570908
O34	O	1.223481	1.241003	-0.070908
C35	C	0.755591	0.779159	-0.506416
C36	C	1.255591	1.279159	-0.006416
C37	C	0.755626	0.895936	-0.506442
C38	C	1.255626	1.395936	-0.006442
C39	C	0.619780	0.506148	-0.506370
C40	C	1.119780	1.006148	-0.006370
C41	C	0.561666	0.506154	-0.506365
C42	C	1.061666	1.006154	-0.006365
C43	C	0.310466	0.438909	-0.439369
C44	C	0.810466	0.938909	0.060631
C45	C	0.365070	0.438900	-0.439356
C46	C	0.865070	0.938900	0.060644
O47	O	0.393301	0.381664	-0.382334
O48	O	0.893301	0.881664	0.117666
N49	N	0.392392	0.506167	-0.506418
N50	N	0.892392	1.006167	-0.006418
C51	C	0.365107	0.573441	-0.573506
C52	C	0.865107	1.073441	-0.073506
O53	O	0.393360	0.630655	-0.630547
O54	O	0.893360	1.130655	-0.130547
C55	C	0.310503	0.573444	-0.573524
C56	C	0.810503	1.073444	-0.073524
C57	C	0.283184	0.506180	-0.506449
C58	C	0.783184	1.006180	-0.006449
C59	C	0.283147	0.371650	-0.372301
C60	C	0.783147	0.871650	0.127699
C61	C	0.228546	0.371661	-0.372313
C62	C	0.728546	0.871661	0.127687
C63	C	0.201265	0.438932	-0.439393
C64	C	0.701265	0.938932	0.060607
C65	C	0.228584	0.506192	-0.506462
C66	C	0.728584	1.006192	-0.006462
C67	C	0.283219	0.640712	-0.640616
C68	C	0.783219	1.140712	-0.140616
C69	C	0.228612	0.640709	-0.640629
C70	C	0.728612	1.140709	-0.140629
C71	C	0.201293	0.573445	-0.573554
C72	C	0.701293	1.073445	-0.073554
C73	C	0.146702	0.573474	-0.573554
C74	C	0.646702	1.073474	-0.073554
N75	N	0.119380	0.506207	-0.506492
N76	N	0.619380	1.006207	-0.006492
C77	C	0.146661	0.438936	-0.439411
C78	C	0.646661	0.938936	0.060589
C79	C	0.479777	0.573427	-0.573465
C80	C	0.979777	1.073427	-0.073465
C81	C	0.534380	0.573429	-0.573442
C82	C	1.034380	1.073429	-0.073442
C83	C	0.534339	0.438887	-0.439293
C84	C	1.034339	0.938887	0.060707
C85	C	0.479736	0.438890	-0.439311
C86	C	0.979736	0.938890	0.060689
C87	C	0.452455	0.506159	-0.506402
C88	C	0.952455	1.006159	-0.006402
C89	C	0.031996	0.438965	-0.439441
C90	C	0.531996	0.938965	0.060559
C91	C	-0.022609	0.438986	-0.439456
C92	C	0.477391	0.938986	0.060544
C93	C	-0.022564	0.573524	-0.573609
C94	C	0.477436	1.073524	-0.073609
C95	C	0.032037	0.573508	-0.573591
C96	C	0.532037	1.073508	-0.073591
C97	C	0.059315	0.506220	-0.506503
C98	C	0.559315	1.006220	-0.006503
O99	O	0.118436	0.630677	-0.630550
O100	O	0.618436	1.130677	-0.130550
O101	O	0.118401	0.381721	-0.382389
O102	O	0.618401	0.881721	0.117611
C103	C	0.755659	0.506086	-0.780471
C104	C	1.255659	1.006086	-0.280471
C105	C	0.755675	0.506041	-0.897248
C106	C	1.255675	1.006041	-0.397248
C107	C	0.891995	0.506237	-0.506507
C108	C	1.391995	1.006237	-0.006507
C109	C	0.950109	0.506257	-0.506537
C110	C	1.450109	1.006257	-0.006537
C111	C	0.755668	0.232159	-0.506483
C112	C	1.255668	0.732159	-0.006483
C113	C	0.755687	0.115382	-0.506502
C114	C	1.255687	0.615382	-0.006502
C115	C	0.789094	0.950800	-0.439337
C116	C	1.289094	1.450800	0.060663
C117	C	0.789126	1.060524	-0.439369
C118	C	1.289126	1.560524	0.060631
C119	C	0.722217	1.060510	-0.573615
C120	C	1.222217	1.560510	-0.073615
C121	C	0.722188	0.950788	-0.573587
C122	C	1.222188	1.450788	-0.073587
C123	C	0.827722	0.950809	-0.361828
C124	C	1.327722	1.450809	0.138172
C125	C	0.827754	1.060533	-0.361860
C126	C	1.327754	1.560533	0.138140
C127	C	0.789131	0.438849	-0.952140
C128	C	1.289131	0.938849	-0.452140
C129	C	0.789143	0.438811	-1.061864
C130	C	1.289143	0.938811	-0.561864
C131	C	0.722242	0.573166	-1.061795
C132	C	1.222242	1.073166	-0.561795
C133	C	0.722227	0.573197	-0.952073
C134	C	1.222227	1.073197	-0.452073
C135	C	0.827757	0.361284	-0.952181
C136	C	1.327757	0.861284	-0.452181
C137	C	0.827770	0.361246	-1.061905
C138	C	1.327770	0.861246	-0.561905
C139	C	0.755616	0.506222	-0.233471
C140	C	1.255616	1.006222	0.266529
C141	C	0.755702	0.505971	-0.116695
C142	C	1.255702	1.005971	0.383305
H143	H	-0.044850	0.384210	-0.384833
H144	H	0.455150	0.884210	0.115167
Cl145	Cl	0.805326	0.241945	-1.114473
Cl146	Cl	1.305326	0.741945	-0.614473
Cl147	Cl	0.194210	0.287084	-0.287998
Cl148	Cl	0.694210	0.787084	0.212002
H149	H	0.054200	0.384168	-0.384817
H150	H	0.554200	0.884168	0.115183
Cl151	Cl	0.317433	0.287068	-0.287960
Cl152	Cl	0.817433	0.787068	0.212040
H153	H	0.868264	0.383046	-1.091699
H154	H	1.368264	0.883046	-0.591699
H155	H	0.457496	0.384114	-0.384696
H156	H	0.957496	0.884114	0.115304
Cl157	Cl	0.680158	0.657653	-0.883069
Cl158	Cl	1.180158	1.157653	-0.383069
Cl159	Cl	0.568646	0.354316	-0.354963
Cl160	Cl	1.068646	0.854316	0.145037
H161	H	0.816937	1.090394	-0.280475
H162	H	1.316937	1.590394	0.219525
Cl163	Cl	0.568717	0.658008	-0.657753
Cl164	Cl	1.068717	1.158008	-0.157753
H165	H	0.457569	0.628214	-0.628096
H166	H	0.957569	1.128214	-0.128096
H167	H	0.054281	0.628288	-0.628200
H168	H	0.554281	1.128288	-0.128200
Cl169	Cl	0.680196	0.657587	-1.130725
Cl170	Cl	1.180196	1.157587	-0.630725
Cl171	Cl	0.194320	0.725280	-0.724980
Cl172	Cl	0.694320	1.225280	-0.224980
Cl173	Cl	0.317550	0.725276	-0.724946
Cl174	Cl	0.817550	1.225276	-0.224946
H175	H	0.816924	0.279918	-0.922421
H176	H	1.316924	0.779918	-0.422421
Cl177	Cl	-0.056871	0.658102	-0.657921
Cl178	Cl	0.443129	1.158102	-0.157921
H179	H	0.866212	0.390459	-0.918160
H180	H	1.366212	0.890459	-0.418160
Cl181	Cl	0.680120	0.881819	-0.657967
Cl182	Cl	1.180120	1.381819	-0.157967
H183	H	0.694994	1.105184	-0.628283
H184	H	1.194994	1.605184	-0.128283
H185	H	0.868203	0.920959	-0.383695
H186	H	1.368203	1.420959	0.116305
H187	H	0.813228	0.916859	-0.284496
H188	H	1.313228	1.416859	0.215504
H189	H	0.866225	1.094485	-0.391087
H190	H	1.366225	1.594485	0.108913
