data_functionalizedCrystal
_audit_creation_method	'MofGen! by Chris Wilmer'
_symmetry_space_group_name_H-M	'P1'
_symmetry_Int_Tables_number	1
_symmetry_cell_setting	triclinic
loop_
_symmetry_equiv_pos_as_xyz
  x,y,z
_cell_length_a	15.944551
_cell_length_b	14.519709
_cell_length_c	13.596369
_cell_angle_alpha	90.012081
_cell_angle_beta	90.005711
_cell_angle_gamma	96.410558
loop_
_atom_site_label
_atom_site_type_symbol
_atom_site_fract_x
_atom_site_fract_y
_atom_site_fract_z
O1	O	0.110109	-1.223660	0.081665
O2	O	0.443442	-0.890327	0.414999
O3	O	0.776776	-0.556993	0.748332
O4	O	0.123076	-0.955161	0.081696
O5	O	0.456409	-0.621827	0.415029
O6	O	0.789742	-0.288494	0.748362
O7	O	-0.005672	-1.096742	0.081671
O8	O	0.327662	-0.763409	0.415004
O9	O	0.660995	-0.430076	0.748338
O10	O	0.238857	-1.082078	0.081690
O11	O	0.572190	-0.748745	0.415024
O12	O	0.905523	-0.415411	0.748357
O13	O	-0.005679	-1.096760	-0.081912
O14	O	0.327654	-0.763427	0.251421
O15	O	0.660988	-0.430093	0.584755
O16	O	0.123069	-0.955178	-0.081887
O17	O	0.456402	-0.621845	0.251446
O18	O	0.789735	-0.288511	0.584780
O19	O	0.110102	-1.223678	-0.081917
O20	O	0.443435	-0.890344	0.251416
O21	O	0.776769	-0.557011	0.584749
Zn22	Zn	0.116584	-1.089431	-0.107875
Zn23	Zn	0.449918	-0.756097	0.225459
Zn24	Zn	0.783251	-0.422764	0.558792
Zn25	Zn	0.116593	-1.089408	0.107653
Zn26	Zn	0.449927	-0.756074	0.440986
Zn27	Zn	0.783260	-0.422741	0.774320
O28	O	0.238850	-1.082096	-0.081893
O29	O	0.572183	-0.748762	0.251441
O30	O	0.905516	-0.415429	0.584774
C31	C	-0.036970	-1.096142	-0.000121
C32	C	0.296363	-0.762809	0.333213
C33	C	0.629696	-0.429476	0.666546
C34	C	-0.130219	-1.094317	-0.000121
C35	C	0.203114	-0.760984	0.333212
C36	C	0.536448	-0.427651	0.666546
C37	C	0.122468	-0.920811	-0.000092
C38	C	0.455801	-0.587477	0.333241
C39	C	0.789134	-0.254144	0.666575
C40	C	0.120657	-0.818432	-0.000081
C41	C	0.453990	-0.485099	0.333253
C42	C	0.787324	-0.151766	0.666586
C43	C	0.110710	-1.258028	-0.000128
C44	C	0.444043	-0.924694	0.333206
C45	C	0.777377	-0.591361	0.666539
C46	C	0.112521	-1.360406	-0.000132
C47	C	0.445854	-1.027072	0.333201
C48	C	0.779187	-0.693739	0.666534
C49	C	-0.345209	-1.002196	-0.000097
C50	C	-0.011876	-0.668862	0.333236
C51	C	0.321457	-0.335529	0.666570
C52	C	-0.406168	-1.044983	-0.080758
C53	C	-0.072835	-0.711649	0.252575
C54	C	0.260499	-0.378316	0.585909
C55	C	-0.300950	-1.091016	-0.000113
C56	C	0.032384	-0.757682	0.333220
C57	C	0.365717	-0.424349	0.666554
C58	C	-0.406144	-1.044986	0.080522
C59	C	-0.072811	-0.711653	0.413855
C60	C	0.260522	-0.378320	0.747188
C61	C	-0.465867	-1.087820	-0.000101
C62	C	-0.132534	-0.754486	0.333232
C63	C	0.200800	-0.421153	0.666566
C64	C	-0.360680	-1.133827	-0.080841
C65	C	-0.027347	-0.800493	0.252493
C66	C	0.305987	-0.467160	0.585826
C67	C	-0.360650	-1.133818	0.080512
C68	C	-0.027317	-0.800485	0.413845
C69	C	0.306017	-0.467151	0.747178
C70	C	-0.421591	-1.176669	-0.000169
C71	C	-0.088258	-0.843336	0.333164
C72	C	0.245076	-0.510003	0.666498
C73	C	-0.205945	-1.092854	-0.000121
C74	C	0.127389	-0.759521	0.333213
C75	C	0.460722	-0.426187	0.666546
C76	C	-0.560871	-1.085988	-0.000100
C77	C	-0.227537	-0.752655	0.333233
C78	C	0.105796	-0.419321	0.666566
C79	C	0.270148	-1.082696	-0.000099
C80	C	0.603481	-0.749362	0.333234
C81	C	0.936815	-0.416029	0.666568
C82	C	0.363397	-1.084521	-0.000092
C83	C	0.696730	-0.751187	0.333241
C84	C	1.030063	-0.417854	0.666575
N85	N	0.116577	-1.089453	-0.254966
N86	N	0.449911	-0.756120	0.078367
N87	N	0.783244	-0.422786	0.411700
C88	C	0.113990	-0.443548	-0.000126
C89	C	0.447324	-0.110215	0.333208
C90	C	0.780657	0.223118	0.666541
C91	C	0.115842	-0.547853	-0.000113
C92	C	0.449175	-0.214520	0.333220
C93	C	0.782508	0.118814	0.666554
C94	C	0.117323	-0.630987	-0.000102
C95	C	0.450657	-0.297654	0.333231
C96	C	0.783990	0.035680	0.666564
C97	C	0.119175	-0.735298	-0.000091
C98	C	0.452509	-0.401965	0.333242
C99	C	0.785842	-0.068632	0.666575
N100	N	0.116594	-1.089392	0.254745
N101	N	0.449927	-0.756059	0.588078
N102	N	0.783260	-0.422726	0.921411
C103	C	0.116594	-1.089396	0.343743
C104	C	0.449928	-0.756062	0.677076
C105	C	0.783261	-0.422729	1.010409
C106	C	0.116592	-1.089409	0.455394
C107	C	0.449926	-0.756076	0.788727
C108	C	0.783259	-0.422742	1.122061
C109	C	0.116587	-1.089425	0.544385
C110	C	0.449920	-0.756091	0.877718
C111	C	0.783253	-0.422758	1.211051
C112	C	0.116583	-1.089437	0.656043
C113	C	0.449917	-0.756104	0.989376
C114	C	0.783250	-0.422770	1.322710
H115	H	-0.312009	-0.928471	-0.000169
H116	H	0.021325	-0.595138	0.333164
H117	H	0.354658	-0.261805	0.666497
N118	N	-0.463064	-1.269232	-0.000210
N119	N	-0.129730	-0.935898	0.333123
N120	N	0.203603	-0.602565	0.666457
N121	N	-0.450412	-1.323305	0.068379
N122	N	-0.117079	-0.989972	0.401713
N123	N	0.216255	-0.656638	0.735046
H124	H	-0.479704	-1.388676	0.068349
H125	H	-0.146371	-1.055343	0.401682
H126	H	0.186962	-0.722010	0.735016
N127	N	-0.335330	-1.180892	0.166059
N128	N	-0.001997	-0.847559	0.499392
N129	N	0.331336	-0.514225	0.832725
N130	N	-0.349647	-1.150611	0.249748
N131	N	-0.016314	-0.817277	0.583082
N132	N	0.317020	-0.483944	0.916415
H133	H	-0.331764	-1.183851	0.310174
H134	H	0.001569	-0.850517	0.643508
H135	H	0.334903	-0.517184	0.976841
N136	N	-0.431475	-0.997884	-0.166302
N137	N	-0.098142	-0.664550	0.167031
N138	N	0.235191	-0.331217	0.500365
N139	N	-0.416025	-1.027337	-0.250015
N140	N	-0.082691	-0.694004	0.083319
N141	N	0.250642	-0.360671	0.416652
H142	H	-0.433895	-0.994070	-0.310428
H143	H	-0.100562	-0.660737	0.022905
H144	H	0.232771	-0.327403	0.356238
N145	N	-0.335560	-1.180932	-0.166486
N146	N	-0.002227	-0.847598	0.166847
N147	N	0.331106	-0.514265	0.500180
N148	N	-0.363755	-1.263594	-0.181271
N149	N	-0.030421	-0.930260	0.152062
N150	N	0.302912	-0.596927	0.485395
H151	H	-0.346013	-1.296859	-0.241759
H152	H	-0.012680	-0.963526	0.091574
H153	H	0.320653	-0.630193	0.424908
N154	N	-0.431409	-0.997820	0.166057
N155	N	-0.098076	-0.664487	0.499390
N156	N	0.235257	-0.331154	0.832723
N157	N	-0.403756	-0.914929	0.180414
N158	N	-0.070423	-0.581596	0.513747
N159	N	0.262911	-0.248262	0.847080
H160	H	-0.421597	-0.881611	0.240818
H161	H	-0.088264	-0.548277	0.574151
H162	H	0.245069	-0.214944	0.907485
