data_functionalizedCrystal
_audit_creation_method	'MofGen! by Chris Wilmer'
_symmetry_space_group_name_H-M	'P1'
_symmetry_Int_Tables_number	1
_symmetry_cell_setting	triclinic
loop_
_symmetry_equiv_pos_as_xyz
  x,y,z
_cell_length_a	19.188925
_cell_length_b	19.188930
_cell_length_c	17.666332
_cell_angle_alpha	90.011603
_cell_angle_beta	89.989697
_cell_angle_gamma	96.856335
loop_
_atom_site_label
_atom_site_type_symbol
_atom_site_fract_x
_atom_site_fract_y
_atom_site_fract_z
O1	O	0.926152	-0.087151	-0.062973
O2	O	1.426152	0.412849	0.437027
O3	O	0.722840	-0.098889	-0.062972
O4	O	1.222840	0.401111	0.437028
O5	O	0.830363	0.008636	-0.062958
O6	O	1.330363	0.508636	0.437042
O7	O	0.818629	-0.194676	-0.062987
O8	O	1.318629	0.305324	0.437013
O9	O	0.830344	0.008642	0.062939
O10	O	1.330344	0.508642	0.562939
O11	O	0.722821	-0.098883	0.062925
O12	O	1.222821	0.401117	0.562925
O13	O	0.926133	-0.087145	0.062924
O14	O	1.426133	0.412855	0.562924
Cu15	Cu	0.824476	-0.093014	0.074419
Cu16	Cu	1.324476	0.406986	0.574419
Cu17	Cu	0.824498	-0.093020	-0.074468
Cu18	Cu	1.324498	0.406980	0.425532
O19	O	0.818610	-0.194670	0.062909
O20	O	1.318610	0.305330	0.562909
C21	C	0.696820	-0.098507	-0.000023
C22	C	1.196820	0.401493	0.499977
C23	C	0.619315	-0.097367	-0.000022
C24	C	1.119315	0.402633	0.499978
C25	C	0.057545	-0.152831	-0.000032
C26	C	0.557545	0.347169	0.499968
C27	C	0.130368	-0.153908	-0.000037
C28	C	0.630368	0.346092	0.499963
C29	C	0.175302	-0.090816	-0.000026
C30	C	0.675302	0.409184	0.499974
C31	C	0.147408	-0.026642	-0.000031
C32	C	0.647408	0.473358	0.499969
C33	C	0.074586	-0.025568	-0.000034
C34	C	0.574586	0.474432	0.499966
N35	N	0.295973	-0.045138	0.042837
N36	N	0.795973	0.454862	0.542837
N37	N	0.365150	-0.046163	0.042842
N38	N	0.865150	0.453837	0.542842
C39	C	0.394712	-0.094050	-0.000018
C40	C	0.894712	0.405950	0.499982
N41	N	0.352481	-0.140883	-0.042872
N42	N	0.852481	0.359117	0.457128
N43	N	0.283297	-0.139860	-0.042874
N44	N	0.783297	0.360140	0.457126
C45	C	0.254267	-0.091974	-0.000023
C46	C	0.754267	0.408026	0.499977
C47	C	0.501561	-0.159386	-0.000023
C48	C	1.001561	0.340614	0.499977
C49	C	0.574385	-0.160460	-0.000032
C50	C	1.074385	0.339540	0.499968
C51	C	0.591425	-0.033193	-0.000018
C52	C	1.091425	0.466807	0.499982
C53	C	0.518601	-0.032121	-0.000017
C54	C	1.018601	0.467879	0.499983
C55	C	0.473673	-0.095220	-0.000016
C56	C	0.973673	0.404780	0.499984
C57	C	0.829974	0.034650	-0.000007
C58	C	1.329974	0.534650	0.499993
C59	C	0.828833	0.112154	-0.000001
C60	C	1.328833	0.612154	0.499999
C61	C	0.952154	-0.087527	-0.000027
C62	C	1.452154	0.412473	0.499973
C63	C	1.029658	-0.088666	-0.000033
C64	C	1.529658	0.411334	0.499967
N65	N	0.824465	-0.093008	0.179139
N66	N	1.324465	0.406992	0.679139
C67	C	0.819000	-0.220684	-0.000043
C68	C	1.319000	0.279316	0.499957
C69	C	0.820140	-0.298188	-0.000054
C70	C	1.320140	0.201812	0.499946
C71	C	0.891924	0.157079	0.000003
C72	C	1.391924	0.657079	0.500003
C73	C	0.890852	0.229903	-0.000010
C74	C	1.390852	0.729903	0.499990
C75	C	0.826686	0.257799	-0.000010
C76	C	1.326686	0.757799	0.499990
C77	C	0.763587	0.212864	-0.000017
C78	C	1.263587	0.712864	0.499983
C79	C	0.764660	0.140041	-0.000013
C80	C	1.264660	0.640041	0.499987
N81	N	0.777632	0.365805	0.042835
N82	N	1.277632	0.865805	0.542835
N83	N	0.776617	0.434983	0.042833
N84	N	1.276617	0.934983	0.542833
C85	C	0.823448	0.477207	-0.000025
C86	C	1.323448	0.977207	0.499975
N87	N	0.871344	0.447641	-0.042871
N88	N	1.371344	0.947641	0.457129
N89	N	0.872361	0.378456	-0.042865
N90	N	1.372361	0.878456	0.457135
C91	C	0.825515	0.336761	-0.000015
C92	C	1.325515	0.836761	0.499985
C93	C	0.885381	0.601097	-0.000036
C94	C	1.385381	1.101097	0.499964
C95	C	0.884307	0.673922	-0.000053
C96	C	1.384307	1.173922	0.499947
C97	C	0.757040	0.656880	-0.000053
C98	C	1.257040	1.156880	0.499947
C99	C	0.758116	0.584057	-0.000044
C100	C	1.258116	1.084057	0.499956
C101	C	0.822289	0.556170	-0.000032
C102	C	1.322289	1.056170	0.499968
N103	N	0.824514	-0.093020	-0.179187
N104	N	1.324514	0.406980	0.320813
C105	C	0.872092	-0.045420	0.218755
C106	C	1.372092	0.454580	0.718755
C107	C	0.872096	-0.045416	0.298003
C108	C	1.372096	0.454584	0.798003
C109	C	0.824480	-0.093014	0.337631
C110	C	1.324480	0.406986	0.837631
C111	C	0.776844	-0.140606	0.298005
C112	C	1.276844	0.359394	0.798005
C113	C	0.776837	-0.140604	0.218759
C114	C	1.276837	0.359396	0.718759
N115	N	0.815404	-0.154821	0.462041
N116	N	1.315404	0.345179	0.962041
N117	N	0.815415	-0.154821	0.537321
N118	N	1.315415	0.345179	1.037321
C119	C	0.824498	-0.093023	0.576395
C120	C	1.324498	0.406977	1.076395
N121	N	0.833584	-0.031223	0.537345
N122	N	1.333584	0.468777	1.037345
N123	N	0.833576	-0.031223	0.462057
N124	N	1.333576	0.468777	0.962057
C125	C	0.824482	-0.093022	0.423560
C126	C	1.324482	0.406978	0.923560
C127	C	0.872132	-0.045427	0.701940
C128	C	1.372132	0.454573	1.201940
C129	C	0.872131	-0.045423	0.781190
C130	C	1.372131	0.454577	1.281190
C131	C	0.776883	-0.140619	0.781191
C132	C	1.276883	0.359381	1.281191
C133	C	0.776880	-0.140617	0.701943
C134	C	1.276880	0.359383	1.201943
C135	C	0.824509	-0.093022	0.662323
C136	C	1.324509	0.406978	1.162323
H137	H	0.051883	0.026685	-0.000035
H138	H	0.551883	0.526685	0.499965
H139	H	0.910912	-0.006666	0.813446
H140	H	1.410912	0.493334	1.313446
O141	O	0.952123	0.273584	-0.000135
O142	O	1.452123	0.773584	0.499865
C143	C	0.955317	0.316219	-0.065328
C144	C	1.455317	0.816219	0.434672
H145	H	0.919547	0.289429	-0.110907
H146	H	1.419547	0.789429	0.389093
H147	H	1.011590	0.324582	-0.087204
H148	H	1.511590	0.824582	0.412796
H149	H	0.937398	0.369120	-0.050589
H150	H	1.437398	0.869120	0.449411
O151	O	0.730670	-0.186867	0.180190
O152	O	1.230670	0.313133	0.680190
C153	C	0.767926	-0.229861	0.134348
C154	C	1.267926	0.270139	0.634348
H155	H	0.822643	-0.201915	0.122469
H156	H	1.322643	0.298085	0.622469
H157	H	0.738748	-0.240980	0.078626
H158	H	1.238748	0.259020	0.578626
H159	H	0.772511	-0.281451	0.164877
H160	H	1.272511	0.218549	0.664877
H161	H	0.935686	0.710500	-0.000054
H162	H	1.435686	1.210500	0.499946
O163	O	0.458012	-0.220741	-0.000066
O164	O	0.958012	0.279259	0.499934
C165	C	0.498245	-0.277608	-0.000057
C166	C	0.998245	0.222392	0.499943
H167	H	0.552658	-0.259720	-0.023888
H168	H	1.052658	0.240280	0.476112
H169	H	0.471252	-0.321801	-0.036617
H170	H	0.971252	0.178199	0.463383
H171	H	0.503360	-0.297287	0.060338
H172	H	1.003360	0.202713	0.560338
O173	O	0.947699	0.573970	0.000100
O174	O	1.447699	1.073970	0.500100
C175	C	0.952116	0.532361	0.065297
C176	C	1.452116	1.032361	0.565297
H177	H	0.915678	0.549482	0.110871
H178	H	1.415678	1.049482	0.610871
H179	H	1.008405	0.539078	0.087180
H180	H	1.508405	1.039078	0.587180
H181	H	0.935838	0.474877	0.050563
H182	H	1.435838	0.974877	0.550563
H183	H	0.738111	-0.179371	0.813456
H184	H	1.238111	0.320629	1.313456
O185	O	0.634995	0.028141	0.000092
O186	O	1.134995	0.528141	0.500092
C187	C	0.622387	0.067113	0.065307
C188	C	1.122387	0.567113	0.565307
H189	H	0.567087	0.049804	0.087044
H190	H	1.067087	0.549804	0.587044
H191	H	0.627693	0.125360	0.050647
H192	H	1.127693	0.625360	0.550647
H193	H	0.662183	0.057692	0.110964
H194	H	1.162183	0.557692	0.610964
H195	H	0.713282	0.103462	-0.000015
H196	H	1.213282	0.603462	0.499985
O197	O	0.491592	0.030254	-0.000109
O198	O	0.991592	0.530254	0.499891
C199	C	0.514569	0.068690	-0.065316
C200	C	1.014569	0.568690	0.434684
H201	H	0.565023	0.049814	-0.087055
H202	H	1.065023	0.549814	0.412945
H203	H	0.524853	0.126865	-0.050644
H204	H	1.024853	0.626865	0.449356
H205	H	0.472411	0.060472	-0.110976
H206	H	0.972411	0.560472	0.389024
H207	H	0.910911	-0.006670	0.669680
H208	H	1.410911	0.493330	1.169680
H209	H	0.910880	-0.006662	0.330264
H210	H	1.410880	0.493338	0.830264
O211	O	0.701212	0.239875	0.000084
O212	O	1.201212	0.739875	0.500084
C213	C	0.662758	0.216924	0.065294
C214	C	1.162758	0.716924	0.565294
H215	H	0.681627	0.166477	0.087036
H216	H	1.181627	0.666477	0.587036
H217	H	0.604587	0.206635	0.050626
H218	H	1.104587	0.706635	0.550626
H219	H	0.670966	0.259099	0.110951
H220	H	1.170966	0.759099	0.610951
H221	H	0.704794	0.679592	-0.000057
H222	H	1.204794	1.179592	0.499943
O223	O	0.013835	-0.214079	-0.000143
O224	O	0.513835	0.285921	0.499857
C225	C	-0.028769	-0.217279	-0.065362
C226	C	0.471231	0.282721	0.434638
H227	H	-0.032280	-0.161873	-0.087093
H228	H	0.467720	0.338127	0.412907
H229	H	-0.083586	-0.243458	-0.050708
H230	H	0.416414	0.256542	0.449292
H231	H	-0.004893	-0.249094	-0.111021
H232	H	0.495107	0.250906	0.388979
H233	H	0.738074	-0.179360	0.330275
H234	H	1.238074	0.320640	0.830275
O235	O	0.157548	-0.216198	0.000072
O236	O	0.657548	0.283802	0.500072
C237	C	0.199131	-0.220617	0.065290
C238	C	0.699131	0.279383	0.565290
H239	H	0.217431	-0.165525	0.087024
H240	H	0.717431	0.334475	0.587024
H241	H	0.246738	-0.248306	0.050635
H242	H	0.746738	0.251694	0.550635
H243	H	0.166851	-0.251593	0.110948
H244	H	0.666851	0.248407	0.610948
H245	H	0.944179	0.134379	0.000010
H246	H	1.444179	0.634379	0.500010
O247	O	0.730595	-0.186918	0.663573
O248	O	1.230595	0.313082	1.163573
C249	C	0.688555	-0.228918	0.715540
C250	C	1.188555	0.271082	1.215540
H251	H	0.717181	-0.229637	0.772021
H252	H	1.217181	0.270363	1.272021
H253	H	0.677729	-0.284704	0.692632
H254	H	1.177729	0.215296	1.192632
H255	H	0.636762	-0.206376	0.723989
H256	H	1.136762	0.293624	1.223989
O257	O	0.696782	0.540484	-0.000138
O258	O	1.196782	1.040484	0.499862
C259	C	0.657826	0.553069	-0.065352
C260	C	1.157826	1.053069	0.434648
H261	H	0.675143	0.608360	-0.087095
H262	H	1.175143	1.108360	0.412905
H263	H	0.599576	0.547771	-0.050686
H264	H	1.099576	1.047771	0.449314
H265	H	0.667256	0.513253	-0.111006
H266	H	1.167256	1.013253	0.388994
O267	O	0.191126	0.034599	-0.000120
O268	O	0.691126	0.534599	0.499880
C269	C	0.233761	0.037786	-0.065329
C270	C	0.733761	0.537786	0.434671
H271	H	0.237277	-0.017625	-0.087070
H272	H	0.737277	0.482375	0.412930
H273	H	0.288573	0.063961	-0.050658
H274	H	0.788573	0.563961	0.449342
H275	H	0.209911	0.069596	-0.110987
H276	H	0.709911	0.569596	0.389013
O277	O	0.601504	-0.222779	-0.000177
O278	O	1.101504	0.277221	0.499823
C279	C	0.643134	-0.227207	-0.065377
C280	C	1.143134	0.272793	0.434623
H281	H	0.626031	-0.190771	-0.110940
H282	H	1.126031	0.309229	0.389060
H283	H	0.636418	-0.283498	-0.087274
H284	H	1.136418	0.216502	0.412726
H285	H	0.700614	-0.210933	-0.050639
H286	H	1.200614	0.289067	0.449361
H287	H	0.910871	-0.006663	0.186498
H288	H	1.410871	0.493337	0.686498
