data_functionalizedCrystal
_audit_creation_method	'MofGen! by Chris Wilmer'
_symmetry_space_group_name_H-M	'P1'
_symmetry_Int_Tables_number	1
_symmetry_cell_setting	triclinic
loop_
_symmetry_equiv_pos_as_xyz
  x,y,z
_cell_length_a	16.974800
_cell_length_b	27.731996
_cell_length_c	15.455313
_cell_angle_alpha	92.636264
_cell_angle_beta	90.973911
_cell_angle_gamma	83.006863
loop_
_atom_site_label
_atom_site_type_symbol
_atom_site_fract_x
_atom_site_fract_y
_atom_site_fract_z
O1	O	1.048306	0.061617	0.001473
O2	O	1.548306	0.561617	0.501473
O3	O	0.818781	0.068999	-0.014648
O4	O	1.318781	0.568999	0.485352
O5	O	0.940693	-0.005047	-0.006066
O6	O	1.440693	0.494953	0.493934
O7	O	0.926395	0.135664	-0.007108
O8	O	1.426395	0.635664	0.492892
O9	O	0.933721	-0.000831	0.137705
O10	O	1.433721	0.499169	0.637705
O11	O	0.811810	0.073216	0.129124
O12	O	1.311810	0.573216	0.629124
O13	O	1.041335	0.065834	0.145245
O14	O	1.541335	0.565834	0.645245
Cu15	Cu	0.925936	0.069910	0.150312
Cu16	Cu	1.425936	0.569910	0.650312
Cu17	Cu	0.934180	0.064923	-0.019715
Cu18	Cu	1.434180	0.564923	0.480285
O19	O	0.919423	0.139880	0.136663
O20	O	1.419423	0.639880	0.636663
C21	C	0.785941	0.070749	0.055176
C22	C	1.285941	0.570749	0.555176
C23	C	0.698472	0.069677	0.049034
C24	C	1.198472	0.569677	0.549034
C25	C	0.653584	0.071470	0.124520
C26	C	1.153584	0.571470	0.624520
C27	C	0.571400	0.070455	0.118751
C28	C	1.071400	0.570455	0.618751
C29	C	0.534105	0.067649	0.037495
C30	C	1.034105	0.567649	0.537495
C31	C	0.579000	0.065854	-0.037997
C32	C	1.079000	0.565854	0.462003
C33	C	0.661183	0.066866	-0.032227
C34	C	1.161183	0.566866	0.467773
C35	C	0.288722	0.064373	0.011834
C36	C	0.788722	0.564373	0.511834
C37	C	0.206532	0.063363	0.006070
C38	C	0.706532	0.563363	0.506070
C39	C	0.198939	0.067962	0.162818
C40	C	0.698939	0.567962	0.662818
C41	C	0.281123	0.068977	0.168581
C42	C	0.781123	0.568977	0.668581
C43	C	0.326011	0.067179	0.093089
C44	C	0.826011	0.567179	0.593089
N45	N	0.450100	0.066613	0.031596
N46	N	0.950100	0.566613	0.531596
N47	N	0.410016	0.068212	0.098989
N48	N	0.910016	0.568212	0.598989
C49	C	0.936913	-0.020948	0.065802
C50	C	1.436913	0.479052	0.565802
C51	C	0.936028	-0.074609	0.065748
C52	C	1.436028	0.425391	0.565748
C53	C	0.934263	-0.409658	-0.013055
C54	C	1.434263	0.090342	0.486945
C55	C	0.930904	-0.611337	-0.013306
C56	C	1.430904	-0.111337	0.486694
O57	O	0.933668	-0.639365	-0.079990
O58	O	1.433668	-0.139365	0.420010
N59	N	0.926687	-0.634258	0.065034
N60	N	1.426687	-0.134258	0.565034
C61	C	0.923304	-0.606756	0.143442
C62	C	1.423304	-0.106756	0.643442
O63	O	0.919632	-0.630879	0.210068
O64	O	1.419632	-0.130879	0.710068
C65	C	0.926657	-0.405078	0.143691
C66	C	1.426657	0.094922	0.643691
C67	C	0.930883	-0.382160	0.065347
C68	C	1.430883	0.117840	0.565347
C69	C	0.938488	-0.386740	-0.091393
C70	C	1.438488	0.113260	0.408607
C71	C	0.939332	-0.336324	-0.091329
C72	C	1.439332	0.163676	0.408671
C73	C	0.935951	-0.308826	-0.012927
C74	C	1.435951	0.191174	0.487073
C75	C	0.931727	-0.331744	0.065411
C76	C	1.431727	0.168256	0.565411
C77	C	0.923269	-0.377576	0.222098
C78	C	1.423269	0.122424	0.722098
C79	C	0.924106	-0.327153	0.222153
C80	C	1.424106	0.172847	0.722153
C81	C	0.928331	-0.304236	0.143809
C82	C	1.428331	0.195764	0.643809
C83	C	0.929191	-0.253829	0.143877
C84	C	1.429191	0.246171	0.643877
N85	N	0.933408	-0.230908	0.065537
N86	N	1.433408	0.269092	0.565537
C87	C	0.936788	-0.258406	-0.012865
C88	C	1.436788	0.241594	0.487135
C89	C	0.921545	-0.712640	0.143305
C90	C	1.421545	-0.212640	0.643305
C91	C	0.920708	-0.763059	0.143243
C92	C	1.420708	-0.263059	0.643243
C93	C	0.928307	-0.767637	-0.013505
C94	C	1.428307	-0.267637	0.486495
C95	C	0.929149	-0.717217	-0.013442
C96	C	1.429149	-0.217217	0.486558
C97	C	0.925762	-0.689719	0.064965
C98	C	1.425762	-0.189719	0.564965
C99	C	0.938561	-0.152528	-0.012725
C100	C	1.438561	0.347472	0.487275
C101	C	0.939408	-0.102108	-0.012654
C102	C	1.439408	0.397892	0.487346
C103	C	0.931805	-0.097534	0.144093
C104	C	1.431805	0.402466	0.644093
C105	C	0.930962	-0.147951	0.144023
C106	C	1.430962	0.352049	0.644023
C107	C	0.934338	-0.175447	0.065607
C108	C	1.434338	0.324553	0.565607
O109	O	0.926420	-0.225770	0.210525
O110	O	1.426420	0.274230	0.710525
O111	O	0.940443	-0.234273	-0.079482
O112	O	1.440443	0.265727	0.420518
C113	C	0.933419	-0.460075	-0.013119
C114	C	1.433419	0.039925	0.486881
C115	C	0.929195	-0.482993	0.065219
C116	C	1.429195	0.017007	0.565219
C117	C	0.925815	-0.455494	0.143621
C118	C	1.425815	0.044506	0.643621
C119	C	0.928358	-0.533412	0.065157
C120	C	1.428358	-0.033412	0.565157
C121	C	0.931738	-0.560911	-0.013245
C122	C	1.431738	-0.060911	0.486755
C123	C	0.935955	-0.537989	-0.091584
C124	C	1.435955	-0.037989	0.408416
C125	C	0.936799	-0.487573	-0.091520
C126	C	1.436799	0.012427	0.408480
C127	C	0.921597	-0.478415	0.221961
C128	C	1.421597	0.021585	0.721961
C129	C	0.920754	-0.528832	0.221891
C130	C	1.420754	-0.028832	0.721891
C131	C	0.924135	-0.556330	0.143489
C132	C	1.424135	-0.056330	0.643489
C133	C	1.074175	0.064084	0.075419
C134	C	1.574175	0.564084	0.575419
C135	C	1.161644	0.065156	0.081556
C136	C	1.661644	0.565156	0.581556
C137	C	0.923203	0.155781	0.064793
C138	C	1.423203	0.655781	0.564793
C139	C	0.924088	0.209442	0.064841
C140	C	1.424088	0.709442	0.564841
N141	N	0.920143	0.073417	0.269899
N142	N	1.420143	0.573417	0.769899
N143	N	0.939979	0.061412	-0.139302
N144	N	1.439979	0.561412	0.360698
C145	C	0.971953	0.041971	0.318940
C146	C	1.471953	0.541971	0.818940
C147	C	0.967579	0.044628	0.409440
C148	C	1.467579	0.544628	0.909440
C149	C	0.911399	0.078734	0.450898
C150	C	1.411399	0.578734	0.950898
C151	C	0.859583	0.110181	0.401850
C152	C	1.359583	0.610181	0.901850
C153	C	0.863954	0.107521	0.311352
C154	C	1.363954	0.607521	0.811352
C155	C	0.892534	0.090200	0.721152
C156	C	1.392534	0.590200	1.221152
C157	C	0.888169	0.092858	0.811657
C158	C	1.388169	0.592858	1.311657
C159	C	0.996165	0.027304	0.819241
C160	C	1.496165	0.527304	1.319241
C161	C	1.000533	0.024650	0.728740
C162	C	1.500533	0.524650	1.228740
C163	C	0.948715	0.056095	0.679700
C164	C	1.448715	0.556095	1.179700
N165	N	0.906929	0.081451	0.543404
N166	N	1.406929	0.581451	1.043404
N167	N	0.953182	0.053375	0.587196
N168	N	1.453182	0.553375	1.087196
H169	H	0.697730	0.065407	-0.093696
H170	H	1.197730	0.565407	0.406304
H171	H	0.548628	0.063566	-0.104157
H172	H	1.048628	0.563566	0.395843
H173	H	0.821764	0.133127	0.271423
H174	H	1.321764	0.633127	0.771423
H175	H	0.842418	0.120633	0.845407
H176	H	1.342418	0.620633	1.345407
H177	H	0.683943	0.073759	0.190687
H178	H	1.183943	0.573759	0.690687
H179	H	0.176169	0.061079	-0.060102
H180	H	0.676169	0.561079	0.439898
H181	H	0.931060	-0.790035	-0.077343
H182	H	1.431060	-0.290035	0.422657
H183	H	0.534858	0.071907	0.180219
H184	H	1.034858	0.571907	0.680219
H185	H	0.917279	-0.781716	0.207040
H186	H	1.417279	-0.281716	0.707040
H187	H	0.921336	-0.304766	0.286002
H188	H	1.421336	0.195234	0.786002
H189	H	0.940240	-0.468918	-0.155317
H190	H	1.440240	0.031082	0.344683
H191	H	0.311483	0.071259	0.234748
H192	H	0.811483	0.571259	0.734748
H193	H	0.918790	-0.690256	0.207157
H194	H	1.418790	-0.190256	0.707157
H195	H	0.162382	0.069425	0.224279
H196	H	0.662382	0.569425	0.724279
H197	H	0.919829	-0.396227	0.285894
H198	H	1.419829	0.103773	0.785894
H199	H	1.046280	-0.003121	0.694988
H200	H	1.546280	0.496879	1.194988
H201	H	1.038352	0.001702	0.859177
H202	H	1.538352	0.501702	1.359177
H203	H	0.927529	-0.166612	0.207818
H204	H	1.427529	0.333388	0.707818
H205	H	0.942851	-0.083451	-0.076454
H206	H	1.442851	0.416549	0.423546
H207	H	0.325260	0.062908	-0.049637
H208	H	0.825260	0.562908	0.450363
H209	H	0.941306	-0.174909	-0.076579
H210	H	1.441306	0.325091	0.423421
H211	H	0.942769	-0.317669	-0.155125
H212	H	1.442769	0.182331	0.344875
H213	H	0.941237	-0.409124	-0.155241
H214	H	1.441237	0.090876	0.344759
H215	H	0.813836	0.137949	0.435610
H216	H	1.313836	0.637949	0.935610
H217	H	0.932589	-0.698561	-0.077237
H218	H	1.432589	-0.198561	0.422763
H219	H	0.929057	-0.075136	0.207927
H220	H	1.429057	0.424864	0.707927
H221	H	0.938711	-0.560388	-0.155422
H222	H	1.438711	-0.060388	0.344578
H223	H	0.918846	-0.456031	0.285807
H224	H	1.418846	0.043969	0.785807
H225	H	0.917319	-0.547487	0.285693
H226	H	1.417319	-0.047487	0.785693
H227	H	1.017704	0.014201	0.285192
H228	H	1.517704	0.514201	0.785192
H229	H	0.850343	0.115805	0.681230
H230	H	1.350343	0.615805	1.181230
H231	H	1.009766	0.019022	0.449370
H232	H	1.509766	0.519022	0.949370
