data_functionalizedCrystal
_audit_creation_method	'MofGen! by Chris Wilmer'
_symmetry_space_group_name_H-M	'P1'
_symmetry_Int_Tables_number	1
_symmetry_cell_setting	triclinic
loop_
_symmetry_equiv_pos_as_xyz
  x,y,z
_cell_length_a	16.959455
_cell_length_b	16.120484
_cell_length_c	16.959447
_cell_angle_alpha	87.133462
_cell_angle_beta	90.016723
_cell_angle_gamma	92.924574
loop_
_atom_site_label
_atom_site_type_symbol
_atom_site_fract_x
_atom_site_fract_y
_atom_site_fract_z
Zn1	Zn	1.192396	-0.331913	0.462899
Zn2	Zn	1.692396	0.168087	0.962899
Zn3	Zn	1.185602	-0.471342	0.337416
Zn4	Zn	1.685602	0.028658	0.837416
Zn5	Zn	1.060223	-0.331944	0.330732
Zn6	Zn	1.560223	0.168056	0.830732
Zn7	Zn	1.053476	-0.471284	0.469547
Zn8	Zn	1.553476	0.028716	0.969547
O9	O	1.122924	-0.401621	0.400149
O10	O	1.622924	0.098379	0.900149
O11	O	1.302105	-0.350420	0.446269
O12	O	1.802105	0.149580	0.946269
O13	O	1.168951	-0.452888	0.225920
O14	O	1.668951	0.047112	0.725920
O15	O	1.083423	-0.215275	0.342685
O16	O	1.583423	0.284725	0.842685
O17	O	1.297114	-0.452857	0.354077
O18	O	1.797114	0.047143	0.854077
O19	O	1.180530	-0.215252	0.439788
O20	O	1.680530	0.284748	0.939788
O21	O	1.076835	-0.350473	0.221010
O22	O	1.576835	0.149527	0.721010
O23	O	0.948718	-0.350417	0.349131
O24	O	1.448718	0.149583	0.849131
O25	O	1.071923	-0.452760	0.579274
O26	O	1.571923	0.047240	1.079274
O27	O	0.943761	-0.452790	0.451117
O28	O	1.443761	0.047210	0.951117
O29	O	1.173987	-0.350364	0.574390
O30	O	1.673987	0.149636	1.074390
O31	O	1.162409	-0.588000	0.360523
O32	O	1.662409	-0.088000	0.860523
O33	O	1.065336	-0.587958	0.457598
O34	O	1.565336	-0.087958	0.957598
C35	C	0.917559	-0.401601	0.400121
C36	C	1.417559	0.098399	0.900121
C37	C	0.829702	-0.401613	0.400129
C38	C	1.329702	0.098387	0.900129
C39	C	1.112424	-0.618229	0.410524
C40	C	1.612424	-0.118229	0.910524
C41	C	1.108005	-0.710894	0.414990
C42	C	1.608005	-0.210894	0.914990
C43	C	0.790989	-0.348236	0.347107
C44	C	1.290989	0.151764	0.847107
C45	C	0.785861	-0.454996	0.453163
C46	C	1.285861	0.045004	0.953163
C47	C	0.703315	-0.455005	0.453175
C48	C	1.203315	0.044995	0.953175
C49	C	0.664602	-0.401628	0.400153
C50	C	1.164602	0.098372	0.900153
C51	C	0.708435	-0.348242	0.347119
C52	C	1.208435	0.151758	0.847119
C53	C	0.659475	-0.508385	0.506214
C54	C	1.159475	-0.008385	1.006214
C55	C	0.576924	-0.508396	0.506228
C56	C	1.076924	-0.008396	1.006228
C57	C	0.538209	-0.455022	0.453202
C58	C	1.038209	0.044978	0.953202
C59	C	0.582048	-0.401635	0.400165
C60	C	1.082048	0.098365	0.900165
C61	C	0.543335	-0.348258	0.347143
C62	C	1.043335	0.151742	0.847143
C63	C	0.587172	-0.294874	0.294101
C64	C	1.087172	0.205126	0.794101
C65	C	0.669721	-0.294869	0.294092
C66	C	1.169721	0.205131	0.794092
C67	C	0.455661	-0.455027	0.453211
C68	C	0.955661	0.044973	0.953211
C69	C	0.460781	-0.348264	0.347155
C70	C	0.960781	0.151736	0.847155
C71	C	1.099940	-0.880556	0.423158
C72	C	1.599940	-0.380556	0.923158
C73	C	1.146050	-0.921846	0.377152
C74	C	1.646050	-0.421846	0.877152
C75	C	1.141563	-1.016251	0.381697
C76	C	1.641563	-0.516251	0.881697
C77	C	1.104426	-0.786142	0.418614
C78	C	1.604426	-0.286142	0.918614
C79	C	1.329092	-0.401642	0.400177
C80	C	1.829092	0.098358	0.900177
C81	C	1.416948	-0.401650	0.400189
C82	C	1.916948	0.098350	0.900189
C83	C	1.122961	-0.401552	0.606314
C84	C	1.622961	0.098448	1.106314
C85	C	1.122976	-0.401523	0.694169
C86	C	1.622976	0.098477	1.194169
C87	C	1.133487	-0.184168	0.389749
C88	C	1.633487	0.315832	0.889749
C89	C	1.137988	-0.091502	0.385318
C90	C	1.637988	0.408498	0.885318
C91	C	1.122937	-0.401630	0.194783
C92	C	1.622937	0.098370	0.694783
C93	C	1.123086	-0.401424	0.106917
C94	C	1.623086	0.098576	0.606917
C95	C	1.069935	-0.454747	1.068186
C96	C	1.569935	0.045253	1.568186
C97	C	1.176215	-0.348122	1.063095
C98	C	1.676215	0.151878	1.563095
C99	C	1.176193	-0.348140	0.980550
C100	C	1.676193	0.151860	1.480550
C101	C	1.123042	-0.401463	0.941819
C102	C	1.623042	0.098537	1.441819
C103	C	1.069913	-0.454768	0.985633
C104	C	1.569913	0.045232	1.485633
C105	C	1.229326	-0.294842	0.936730
C106	C	1.729326	0.205158	1.436730
C107	C	1.229307	-0.294858	0.854180
C108	C	1.729307	0.205142	1.354180
C109	C	1.176152	-0.348177	0.815447
C110	C	1.676152	0.151823	1.315447
C111	C	1.123020	-0.401484	0.859266
C112	C	1.623020	0.098516	1.359266
C113	C	1.069869	-0.454807	0.820535
C114	C	1.569869	0.045193	1.320535
C115	C	1.016732	-0.508110	0.864353
C116	C	1.516732	-0.008110	1.364353
C117	C	1.016757	-0.508088	0.946900
C118	C	1.516757	-0.008088	1.446900
C119	C	1.176127	-0.348200	0.732900
C120	C	1.676127	0.151800	1.232900
C121	C	1.069847	-0.454828	0.737983
C122	C	1.569847	0.045172	1.237983
H123	H	0.429267	-0.304799	0.303976
H124	H	0.929267	0.195201	0.803976
C125	C	0.884340	-0.336520	0.240224
C126	C	1.384340	0.163480	0.740224
C127	C	0.839174	-0.289559	0.288807
C128	C	1.339174	0.210441	0.788807
H129	H	0.914091	-0.300294	0.204236
H130	H	1.414091	0.199706	0.704236
H131	H	0.850363	-0.372799	0.211681
H132	H	1.350363	0.127201	0.711681
H133	H	0.919206	-0.368306	0.271807
H134	H	1.419206	0.131694	0.771807
H135	H	0.804303	-0.257778	0.257224
H136	H	1.304303	0.242222	0.757224
H137	H	0.873154	-0.253265	0.317352
H138	H	1.373154	0.246735	0.817352
H139	H	1.188895	-0.886295	0.334350
H140	H	1.688895	-0.386295	0.834350
C141	C	1.048791	-1.014128	0.474296
C142	C	1.548791	-0.514128	0.974296
C143	C	1.042096	-0.928541	0.480929
C144	C	1.542096	-0.428541	0.980929
H145	H	1.013074	-1.043758	0.509955
H146	H	1.513074	-0.543758	1.009955
H147	H	1.101225	-1.028284	0.486591
H148	H	1.601225	-0.528284	0.986591
H149	H	1.036600	-1.028388	0.421844
H150	H	1.536600	-0.528388	0.921844
H151	H	1.054292	-0.914280	0.533380
H152	H	1.554292	-0.414280	1.033380
H153	H	0.989650	-0.914379	0.468639
H154	H	1.489650	-0.414379	0.968639
H155	H	1.272604	-0.251434	0.968271
H156	H	1.772604	0.248566	1.468271
H157	H	1.026557	-0.498243	0.706454
H158	H	1.526557	0.001757	1.206454
C159	C	0.878175	-0.466697	0.560011
C160	C	1.378175	0.033303	1.060011
C161	C	0.828416	-0.513663	0.511441
C162	C	1.328416	-0.013663	1.011441
H163	H	0.904452	-0.502920	0.595986
H164	H	1.404452	-0.002920	1.095986
H165	H	0.847738	-0.430426	0.588568
H166	H	1.347738	0.069574	1.088568
H167	H	0.916090	-0.434903	0.528416
H168	H	1.416090	0.065097	1.028416
H169	H	0.790496	-0.545453	0.543036
H170	H	1.290496	-0.045453	1.043036
H171	H	0.858855	-0.549949	0.482882
H172	H	1.358855	-0.049949	0.982882
C173	C	1.192538	-0.236088	0.634710
C174	C	1.692538	0.263912	1.134710
C175	C	1.234529	-0.289619	0.684733
C176	C	1.734529	0.210381	1.184733
H177	H	1.228596	-0.199925	0.604971
H178	H	1.728596	0.300075	1.104971
H179	H	1.159670	-0.204184	0.665390
H180	H	1.659670	0.295816	1.165390
H181	H	1.160879	-0.267854	0.599835
H182	H	1.660879	0.232146	1.099835
H183	H	1.266184	-0.257853	0.719612
H184	H	1.766184	0.242147	1.219612
H185	H	1.267411	-0.321526	0.654050
H186	H	1.767411	0.178474	1.154050
C187	C	0.763088	-0.283150	0.187223
C188	C	1.263088	0.216850	0.687223
C189	C	0.717913	-0.236191	0.235800
C190	C	1.217913	0.263809	0.735800
H191	H	0.792846	-0.246922	0.151242
H192	H	1.292846	0.253078	0.651242
H193	H	0.729117	-0.319427	0.158673
H194	H	1.229117	0.180573	0.658673
H195	H	0.797948	-0.314937	0.218812
H196	H	1.297948	0.185063	0.718812
H197	H	0.683048	-0.204408	0.204211
H198	H	1.183048	0.295592	0.704211
H199	H	0.751888	-0.199899	0.264353
H200	H	1.251888	0.300101	0.764353
H201	H	0.973460	-0.551529	0.832808
H202	H	1.473460	-0.051529	1.332808
H203	H	0.691002	-0.551838	0.549384
H204	H	1.191002	-0.051838	1.049384
H205	H	0.973499	-0.551487	0.982584
H206	H	1.473499	-0.051487	1.482584
H207	H	1.026670	-0.498143	1.103865
H208	H	1.526670	0.001857	1.603865
C209	C	1.223440	-0.300755	1.187375
C210	C	1.723440	0.199245	1.687375
C211	C	1.234639	-0.289515	1.105666
C212	C	1.734639	0.210485	1.605666
H213	H	1.259508	-0.264568	1.213656
H214	H	1.759508	0.235432	1.713656
H215	H	1.232293	-0.356763	1.203569
H216	H	1.732293	0.143237	1.703569
H217	H	1.170926	-0.288544	1.200312
H218	H	1.670926	0.211456	1.700312
H219	H	1.287151	-0.301732	1.092728
H220	H	1.787151	0.198268	1.592728
H221	H	1.225793	-0.233494	1.089466
H222	H	1.725793	0.266506	1.589466
C223	C	0.580155	-0.613933	0.611054
C224	C	1.080155	-0.113933	1.111054
C225	C	0.528742	-0.567083	0.564521
C226	C	1.028742	-0.067083	1.064521
H227	H	0.550407	-0.650170	0.647035
H228	H	1.050407	-0.150170	1.147035
H229	H	0.614115	-0.577644	0.639604
H230	H	1.114115	-0.077644	1.139604
H231	H	0.610803	-0.645770	0.578079
H232	H	1.110803	-0.145770	1.078079
H233	H	0.498098	-0.535242	0.597495
H234	H	0.998098	-0.035242	1.097495
H235	H	0.494768	-0.603377	0.535968
H236	H	0.994768	-0.103377	1.035968
C237	C	1.245687	-0.182720	0.756017
C238	C	1.745687	0.317280	1.256017
C239	C	1.287699	-0.236247	0.806025
C240	C	1.787699	0.263753	1.306025
H241	H	1.281733	-0.146534	0.726287
H242	H	1.781733	0.353466	1.226287
H243	H	1.212806	-0.150840	0.786707
H244	H	1.712806	0.349160	1.286707
H245	H	1.214040	-0.214488	0.721133
H246	H	1.714040	0.285512	1.221133
H247	H	1.319341	-0.204480	0.840913
H248	H	1.819341	0.295520	1.340913
H249	H	1.320594	-0.268130	0.775332
H250	H	1.820594	0.231870	1.275332
C251	C	0.462901	-0.247491	0.247034
C252	C	0.962901	0.252509	0.747034
C253	C	0.544613	-0.236207	0.235816
C254	C	1.044613	0.263793	0.735816
H255	H	0.436626	-0.211277	0.211048
H256	H	0.936626	0.288723	0.711048
H257	H	0.449994	-0.235349	0.299575
H258	H	0.949994	0.264651	0.799575
H259	H	0.446666	-0.303498	0.238074
H260	H	0.946666	0.196502	0.738074
H261	H	0.560848	-0.180201	0.244783
H262	H	1.060848	0.319799	0.744783
H263	H	0.557526	-0.248343	0.183263
H264	H	1.057526	0.251657	0.683263
H265	H	0.419972	-0.498486	0.496401
H266	H	0.919972	0.001514	0.996401
