data_functionalizedCrystal
_audit_creation_method	'MofGen! by Chris Wilmer'
_symmetry_space_group_name_H-M	'P1'
_symmetry_Int_Tables_number	1
_symmetry_cell_setting	triclinic
loop_
_symmetry_equiv_pos_as_xyz
  x,y,z
_cell_length_a	14.971494
_cell_length_b	10.967819
_cell_length_c	13.448316
_cell_angle_alpha	102.130692
_cell_angle_beta	90.005561
_cell_angle_gamma	84.176749
loop_
_atom_site_label
_atom_site_type_symbol
_atom_site_fract_x
_atom_site_fract_y
_atom_site_fract_z
O1	O	0.125494	1.655888	0.366446
O2	O	0.137494	1.292608	0.304195
O3	O	0.001347	1.483979	0.336986
O4	O	0.261641	1.464517	0.333655
O5	O	0.001335	1.483975	0.171601
O6	O	0.137482	1.292604	0.138810
O7	O	0.125482	1.655884	0.201062
Cu8	Cu	0.131481	1.474243	0.154835
Cu9	Cu	0.131495	1.474248	0.350422
O10	O	0.261629	1.464512	0.168271
C11	C	0.136613	1.246115	0.213536
C12	C	0.133995	1.107587	0.189798
C13	C	0.130138	0.902659	0.240374
C14	C	0.132837	1.045836	0.264902
C15	C	-0.031989	1.483105	0.254146
C16	C	-0.131299	1.480491	0.253702
C17	C	-0.177944	1.479268	0.343645
C18	C	-0.271257	1.476804	0.343224
C19	C	-0.317923	1.475572	0.252861
C20	C	-0.271271	1.476791	0.162911
C21	C	-0.177960	1.479246	0.163332
C22	C	-0.465762	1.471677	0.162041
C23	C	-0.559080	1.469224	0.161621
C24	C	-0.559059	1.469234	0.341933
C25	C	-0.465747	1.471690	0.342354
C26	C	-0.419102	1.472911	0.252404
C27	C	0.294964	1.465387	0.251113
C28	C	0.394275	1.468001	0.251563
C29	C	0.126363	1.702377	0.291723
C30	C	0.128980	1.840905	0.315467
N31	N	0.131498	1.474253	0.487987
N32	N	0.131471	1.474249	0.017272
C33	C	0.071333	1.559150	0.554574
C34	C	0.071330	1.559155	0.658678
C35	C	0.131490	1.474256	0.696192
C36	C	0.191661	1.389355	0.629596
C37	C	0.191667	1.389356	0.525495
C38	C	0.191643	1.389355	0.846577
C39	C	0.191636	1.389352	0.950685
C40	C	0.071306	1.559154	0.979759
C41	C	0.071312	1.559156	0.875658
C42	C	0.131483	1.474252	0.809070
H43	H	-0.309231	1.475813	0.416465
O44	O	0.132702	1.037302	0.080551
H45	H	0.194045	1.051258	0.039745
H46	H	-0.427784	1.472644	0.088790
O47	O	0.256538	1.297784	0.670069
H48	H	0.326413	1.313596	0.652831
O49	O	0.129374	0.832202	0.131139
H50	H	0.127666	0.730750	0.129008
O51	O	-0.415409	1.473026	0.439815
H52	H	-0.365443	1.389165	0.429748
O53	O	0.130316	0.911260	0.424686
H54	H	0.068994	0.897363	0.465561
H55	H	-0.139956	1.480278	0.417230
H56	H	0.240661	1.320226	0.471280
H57	H	0.022313	1.628285	1.033982
O58	O	-0.609346	1.467887	0.438957
H59	H	-0.659319	1.551738	0.457656
O60	O	-0.321609	1.475483	0.065453
H61	H	-0.356689	1.389393	0.046386
H62	H	-0.139981	1.480224	0.090088
H63	H	0.022322	1.628281	0.845115
O64	O	0.134173	1.116196	0.374124
H65	H	0.132921	1.049179	0.425401
O66	O	-0.609418	1.467875	0.064158
H67	H	-0.561306	1.469114	0.001677
O68	O	0.006453	1.650730	0.514115
H69	H	-0.035375	1.709776	0.577913
H70	H	0.022340	1.628286	0.712894
H71	H	0.240625	1.320219	0.981222
O72	O	0.256545	1.297790	0.774752
H73	H	0.298372	1.238747	0.818323
