data_functionalizedCrystal
_audit_creation_method	'MofGen! by Chris Wilmer'
_symmetry_space_group_name_H-M	'P1'
_symmetry_Int_Tables_number	1
_symmetry_cell_setting	triclinic
loop_
_symmetry_equiv_pos_as_xyz
  x,y,z
_cell_length_a	17.077404
_cell_length_b	19.076808
_cell_length_c	17.077396
_cell_angle_alpha	92.329364
_cell_angle_beta	90.021444
_cell_angle_gamma	92.321597
loop_
_atom_site_label
_atom_site_type_symbol
_atom_site_fract_x
_atom_site_fract_y
_atom_site_fract_z
Zn1	Zn	1.187484	-0.280249	0.431310
Zn2	Zn	1.520817	0.053084	0.764643
Zn3	Zn	1.854150	0.386417	1.097977
Zn4	Zn	1.182111	-0.397960	0.294763
Zn5	Zn	1.515444	-0.064626	0.628096
Zn6	Zn	1.848777	0.268707	0.961430
Zn7	Zn	1.056214	-0.280270	0.300053
Zn8	Zn	1.389548	0.053063	0.633386
Zn9	Zn	1.722881	0.386397	0.966719
Zn10	Zn	1.050905	-0.397914	0.425984
Zn11	Zn	1.384239	-0.064580	0.759318
Zn12	Zn	1.717572	0.268753	1.092651
O13	O	1.119179	-0.339098	0.363027
O14	O	1.452512	-0.005765	0.696361
O15	O	1.785845	0.327568	1.029694
O16	O	1.296617	-0.295875	0.413212
O17	O	1.629951	0.037459	0.746545
O18	O	1.963284	0.370792	1.079879
O19	O	1.165384	-0.382376	0.185616
O20	O	1.498717	-0.049042	0.518950
O21	O	1.832050	0.284291	0.852283
O22	O	1.078098	-0.181771	0.321907
O23	O	1.411431	0.151562	0.655240
O24	O	1.744765	0.484896	0.988573
O25	O	1.292670	-0.382356	0.312891
O26	O	1.626003	-0.049022	0.646225
O27	O	1.959336	0.284311	0.979558
O28	O	1.174541	-0.181756	0.418341
O29	O	1.507874	0.151578	0.751674
O30	O	1.841208	0.484911	1.085008
O31	O	1.072888	-0.295910	0.189503
O32	O	1.406221	0.037424	0.522836
O33	O	1.739555	0.370757	0.856169
O34	O	0.945664	-0.295865	0.316743
O35	O	1.278997	0.037468	0.650076
O36	O	1.612330	0.370801	0.983409
O37	O	1.069050	-0.382278	0.536539
O38	O	1.402383	-0.048944	0.869872
O39	O	1.735716	0.284389	1.203206
O40	O	0.941763	-0.382298	0.409264
O41	O	1.275097	-0.048964	0.742597
O42	O	1.608430	0.284369	1.075931
O43	O	1.169393	-0.295830	0.540452
O44	O	1.502726	0.037503	0.873785
O45	O	1.836060	0.370837	1.207118
O46	O	1.160235	-0.496450	0.307727
O47	O	1.493569	-0.163117	0.641060
O48	O	1.826902	0.170217	0.974394
O49	O	1.063840	-0.496416	0.404135
O50	O	1.397173	-0.163083	0.737468
O51	O	1.730506	0.170250	1.070801
C52	C	0.915232	-0.339079	0.363000
C53	C	1.248565	-0.005746	0.696333
C54	C	1.581898	0.327587	1.029666
C55	C	0.827981	-0.339088	0.363006
C56	C	1.161315	-0.005755	0.696339
C57	C	1.494648	0.327579	1.029672
C58	C	0.454215	-0.294168	0.415369
C59	C	0.787548	0.039165	0.748702
C60	C	1.120881	0.372499	1.082035
C61	C	0.536195	-0.294163	0.415360
C62	C	0.869529	0.039171	0.748694
C63	C	1.202862	0.372504	1.082027
C64	C	0.575131	-0.339113	0.363047
C65	C	0.908465	-0.005780	0.696380
C66	C	1.241798	0.327554	1.029713
C67	C	0.532082	-0.384077	0.310743
C68	C	0.865415	-0.050743	0.644077
C69	C	1.198749	0.282590	0.977410
C70	C	0.450103	-0.384085	0.310756
C71	C	0.783436	-0.050751	0.644089
C72	C	1.116769	0.282582	0.977423
C73	C	0.702953	-0.384055	0.310719
C74	C	1.036286	-0.050722	0.644052
C75	C	1.369620	0.282611	0.977386
C76	C	0.784938	-0.384046	0.310705
C77	C	1.118271	-0.050713	0.644038
C78	C	1.451605	0.282620	0.977372
C79	C	0.789045	-0.294133	0.415323
C80	C	1.122379	0.039200	0.748656
C81	C	1.455712	0.372533	1.081990
C82	C	0.707066	-0.294142	0.415336
C83	C	1.040400	0.039192	0.748669
C84	C	1.373733	0.372525	1.082003
C85	C	0.664023	-0.339104	0.363031
C86	C	0.997356	-0.005771	0.696365
C87	C	1.330689	0.327562	1.029698
C88	C	1.110900	-0.521972	0.354796
C89	C	1.444233	-0.188639	0.688129
C90	C	1.777566	0.144694	1.021463
C91	C	1.107430	-0.600206	0.351301
C92	C	1.440763	-0.266873	0.684634
C93	C	1.774096	0.066460	1.017968
C94	C	1.155975	-0.636893	0.399908
C95	C	1.489308	-0.303559	0.733241
C96	C	1.822641	0.029774	1.066574
C97	C	1.152711	-0.710402	0.396625
C98	C	1.486044	-0.377069	0.729958
C99	C	1.819378	-0.043735	1.063292
C100	C	1.100906	-0.747224	0.344731
C101	C	1.434239	-0.413890	0.678064
C102	C	1.767573	-0.080557	1.011398
C103	C	1.052356	-0.710532	0.296122
C104	C	1.385689	-0.377199	0.629456
C105	C	1.719023	-0.043866	0.962789
C106	C	1.055616	-0.637024	0.299410
C107	C	1.388949	-0.303691	0.632743
C108	C	1.722283	0.029642	0.966076
C109	C	1.085772	-0.967077	0.329515
C110	C	1.419105	-0.633743	0.662849
C111	C	1.752439	-0.300410	0.996182
C112	C	1.082517	-1.040590	0.326230
C113	C	1.415850	-0.707256	0.659563
C114	C	1.749184	-0.373923	0.992897
C115	C	1.182872	-1.040454	0.426734
C116	C	1.516205	-0.707121	0.760068
C117	C	1.849538	-0.373788	1.093401
C118	C	1.186130	-0.966945	0.430013
C119	C	1.519464	-0.633611	0.763347
C120	C	1.852797	-0.300278	1.096680
C121	C	1.137577	-0.930260	0.381408
C122	C	1.470911	-0.596927	0.714741
C123	C	1.804244	-0.263593	1.048074
N124	N	1.097571	-0.822362	0.341373
N125	N	1.430904	-0.489029	0.674706
N126	N	1.764237	-0.155696	1.008039
N127	N	1.140909	-0.855123	0.384771
N128	N	1.474243	-0.521790	0.718104
N129	N	1.807576	-0.188456	1.051437
C130	C	1.323922	-0.339118	0.363056
C131	C	1.657255	-0.005785	0.696389
C132	C	1.990589	0.327549	1.029722
C133	C	1.411171	-0.339126	0.363068
C134	C	1.744505	-0.005793	0.696401
C135	C	2.077838	0.327540	1.029734
C136	C	1.119228	-0.339046	0.567774
C137	C	1.452562	-0.005713	0.901107
C138	C	1.785895	0.327620	1.234441
C139	C	1.119250	-0.339024	0.655025
C140	C	1.452583	-0.005691	0.988358
C141	C	1.785916	0.327642	1.321692
C142	C	1.127511	-0.155510	0.371308
C143	C	1.460844	0.177823	0.704641
C144	C	1.794178	0.511156	1.037975
C145	C	1.131062	-0.077276	0.374837
C146	C	1.464395	0.256057	0.708170
C147	C	1.797729	0.589391	1.041503
C148	C	1.119176	-0.339099	0.159080
C149	C	1.452510	-0.005766	0.492413
C150	C	1.785843	0.327568	0.825746
C151	C	1.119316	-0.338923	0.071838
C152	C	1.452649	-0.005590	0.405171
C153	C	1.785983	0.327744	0.738505
C154	C	1.171500	-0.294007	0.698054
C155	C	1.504834	0.039326	1.031387
C156	C	1.838167	0.372659	1.364721
C157	C	1.171511	-0.293984	0.780036
C158	C	1.504844	0.039349	1.113369
C159	C	1.838178	0.372683	1.446702
C160	C	1.119274	-0.338982	0.818986
C161	C	1.452607	-0.005648	1.152320
C162	C	1.785940	0.327685	1.485653
C163	C	1.067017	-0.384000	0.775952
C164	C	1.400351	-0.050667	1.109285
C165	C	1.733684	0.282666	1.442618
C166	C	1.067004	-0.384020	0.693972
C167	C	1.400337	-0.050686	1.027305
C168	C	1.733670	0.282647	1.360638
C169	C	1.067051	-0.383958	0.946824
C170	C	1.400384	-0.050625	1.280157
C171	C	1.733718	0.282709	1.613490
C172	C	1.067065	-0.383940	1.028809
C173	C	1.400399	-0.050607	1.362142
C174	C	1.733732	0.282727	1.695476
C175	C	1.171558	-0.293922	1.032887
C176	C	1.504891	0.039411	1.366221
C177	C	1.838225	0.372744	1.699554
C178	C	1.171544	-0.293942	0.950908
C179	C	1.504878	0.039392	1.284241
C180	C	1.838211	0.372725	1.617574
C181	C	1.119289	-0.338962	0.907878
C182	C	1.452622	-0.005628	1.241212
C183	C	1.785955	0.327705	1.574545
H184	H	0.667909	-0.420672	0.268130
H185	H	1.001243	-0.087338	0.601464
H186	H	1.334576	0.245995	0.934797
Cl187	Cl	1.251258	-0.920660	0.495255
Cl188	Cl	1.584592	-0.587326	0.828589
Cl189	Cl	1.917925	-0.253993	1.161922
H190	H	1.024528	-0.420579	1.060521
H191	H	1.357861	-0.087246	1.393854
H192	H	1.691194	0.246087	1.727187
H193	H	0.422519	-0.257560	0.457964
H194	H	0.755852	0.075774	0.791297
H195	H	1.089186	0.409107	1.124631
Cl196	Cl	0.987221	-0.756823	0.230892
Cl197	Cl	1.320555	-0.423490	0.564225
Cl198	Cl	1.653888	-0.090156	0.897558
H199	H	1.016085	-0.607155	0.259830
H200	H	1.349418	-0.273822	0.593163
H201	H	1.682751	0.059511	0.926497
Cl202	Cl	0.590303	-0.237645	0.481117
Cl203	Cl	0.923637	0.095689	0.814450
Cl204	Cl	1.256970	0.429022	1.147784
H205	H	1.046240	-0.937214	0.289937
H206	H	1.379573	-0.603880	0.623270
H207	H	1.712906	-0.270547	0.956604
Cl208	Cl	1.001312	-0.440613	0.639878
Cl209	Cl	1.334645	-0.107280	0.973211
Cl210	Cl	1.667978	0.226054	1.306544
Cl211	Cl	0.581030	-0.440589	0.244980
Cl212	Cl	0.914364	-0.107256	0.578314
Cl213	Cl	1.247697	0.226077	0.911647
H214	H	1.198163	-0.606917	0.442162
H215	H	1.531496	-0.273584	0.775495
H216	H	1.864830	0.059750	1.108829
Cl217	Cl	1.237178	-0.237439	0.649095
Cl218	Cl	1.570511	0.095894	0.982429
Cl219	Cl	1.903844	0.429228	1.315762
H220	H	1.024487	-0.420607	0.911792
H221	H	1.357820	-0.087274	1.245125
H222	H	1.691154	0.246059	1.578459
H223	H	0.415058	-0.420696	0.268169
H224	H	0.748391	-0.087362	0.601502
H225	H	1.081724	0.245971	0.934835
H226	H	1.192248	-0.740269	0.436200
H227	H	1.525581	-0.406935	0.769533
H228	H	1.858914	-0.073602	1.102866
Cl229	Cl	1.017389	-1.086879	0.260984
Cl230	Cl	1.350722	-0.753546	0.594317
Cl231	Cl	1.684055	-0.420213	0.927651
H232	H	0.675367	-0.257536	0.457931
H233	H	1.008700	0.075797	0.791264
H234	H	1.342034	0.409131	1.124598
H235	H	1.222400	-1.070331	0.466307
H236	H	1.555733	-0.736998	0.799640
H237	H	1.889066	-0.403664	1.132974
Cl238	Cl	1.237234	-0.237420	0.834125
Cl239	Cl	1.570567	0.095914	1.167458
Cl240	Cl	1.903901	0.429247	1.500791
H241	H	1.214085	-0.257305	0.919196
H242	H	1.547418	0.076029	1.252529
H243	H	1.880751	0.409362	1.585863
Cl244	Cl	0.843157	-0.237605	0.481073
Cl245	Cl	1.176490	0.095728	0.814406
Cl246	Cl	1.509823	0.429062	1.147740
H247	H	1.214105	-0.257264	1.067926
H248	H	1.547439	0.076069	1.401259
H249	H	1.880772	0.409403	1.734593
H250	H	1.024482	-0.420636	0.807672
H251	H	1.357816	-0.087302	1.141005
H252	H	1.691149	0.246031	1.474339
H253	H	0.816637	-0.420651	0.268109
H254	H	1.149971	-0.087318	0.601442
H255	H	1.483304	0.246016	0.934775
