data_functionalizedCrystal
_audit_creation_method	'MofGen! by Chris Wilmer'
_symmetry_space_group_name_H-M	'P1'
_symmetry_Int_Tables_number	1
_symmetry_cell_setting	triclinic
loop_
_symmetry_equiv_pos_as_xyz
  x,y,z
_cell_length_a	10.654562
_cell_length_b	6.394989
_cell_length_c	9.130313
_cell_angle_alpha	89.998359
_cell_angle_beta	89.996930
_cell_angle_gamma	94.506093
loop_
_atom_site_label
_atom_site_type_symbol
_atom_site_fract_x
_atom_site_fract_y
_atom_site_fract_z
O1	O	1.670934	-0.293559	-0.121886
O2	O	1.305753	-0.321488	-0.121866
O3	O	1.493527	-0.003535	-0.121877
O4	O	1.483160	-0.611512	-0.121875
O5	O	1.493525	-0.003543	0.121721
O6	O	1.305751	-0.321497	0.121732
O7	O	1.670932	-0.293567	0.121713
Cu8	Cu	1.488341	-0.307533	0.143965
Cu9	Cu	1.488344	-0.307523	-0.144119
O10	O	1.483158	-0.611521	0.121724
C11	C	1.258933	-0.319436	-0.000065
C12	C	1.119425	-0.313284	-0.000058
C13	C	1.053863	-0.310419	0.132716
C14	C	0.922779	-0.304655	0.132692
C15	C	0.922832	-0.304631	-0.132893
C16	C	1.053914	-0.310379	-0.132867
C17	C	1.053831	-0.310443	0.286050
C18	C	0.922748	-0.304679	0.286026
C19	C	1.717752	-0.295619	-0.000092
C20	C	1.857260	-0.301772	-0.000108
C21	C	1.491476	0.074312	-0.000083
C22	C	1.485212	0.310638	-0.000084
N23	N	1.488348	-0.307539	0.346588
N24	N	1.488346	-0.307500	-0.346741
C25	C	1.571517	-0.166797	0.423235
C26	C	1.571513	-0.166772	0.576572
C27	C	1.405169	-0.448249	0.576601
C28	C	1.405167	-0.448262	0.423267
C29	C	1.667559	-0.004295	0.423220
C30	C	1.667555	-0.004270	0.576556
H31	H	0.877990	-0.449068	0.344891
O32	O	1.629432	0.176776	0.633487
C33	C	1.726611	0.274281	0.720309
H34	H	1.791766	0.151956	0.758309
H35	H	1.782567	0.399617	0.653063
C36	C	1.589138	0.526963	0.807983
C37	C	1.669156	0.376718	0.854666
H38	H	1.553699	0.590161	0.890857
H39	H	1.523667	0.461279	0.749485
H40	H	1.635781	0.631390	0.751944
H41	H	1.622510	0.272282	0.910688
H42	H	1.734618	0.442388	0.913176
O43	O	1.324546	-0.585066	0.348655
C44	C	1.393841	-0.715066	0.259996
H45	H	1.490816	-0.633397	0.237006
H46	H	1.404809	-0.869601	0.319107
C47	C	1.204616	-0.858949	0.142594
C48	C	1.323718	-0.758633	0.114346
H49	H	1.161359	-0.885833	0.052752
H50	H	1.157929	-0.771372	0.202328
H51	H	1.213773	-0.987717	0.191856
H52	H	1.314560	-0.629857	0.065102
H53	H	1.370402	-0.846190	0.054600
O54	O	1.107407	-0.138363	0.356296
C55	C	1.239401	-0.144460	0.356159
H56	H	1.264309	-0.313398	0.341913
H57	H	1.281367	-0.044828	0.262028
C58	C	1.262652	0.149988	0.519906
C59	C	1.293246	-0.057506	0.502421
H60	H	1.295869	0.203634	0.610124
H61	H	1.173726	0.154103	0.519995
H62	H	1.297627	0.232990	0.441455
H63	H	1.258258	-0.140508	0.580862
H64	H	1.382168	-0.061632	0.502349
O65	O	0.885676	-0.122717	0.342643
C66	C	0.937392	0.047920	0.258650
H67	H	1.024753	0.000757	0.198846
H68	H	0.864917	0.094461	0.175333
C69	C	0.866476	0.293085	0.433687
C70	C	0.973781	0.235163	0.360244
H71	H	0.888918	0.408589	0.496352
H72	H	0.831629	0.178125	0.490273
H73	H	0.806091	0.331854	0.364242
H74	H	1.034158	0.196370	0.429688
H75	H	1.008639	0.350121	0.303672
H76	H	1.337444	-0.562820	0.639049
O77	O	1.783081	-0.046871	0.626460
C78	C	1.782850	-0.046812	0.780883
H79	H	1.705094	0.050715	0.822311
H80	H	1.765494	-0.214655	0.822534
C81	C	2.006582	-0.071541	0.786459
C82	C	1.911087	0.048257	0.837341
H83	H	2.085685	-0.012908	0.821287
H84	H	2.006738	-0.071590	0.682421
H85	H	1.992102	-0.211404	0.821172
H86	H	1.925559	0.188108	0.802613
H87	H	1.910936	0.048331	0.941375
H88	H	1.107292	-0.312680	-0.240984
H89	H	0.869476	-0.302266	-0.241021
H90	H	1.085019	-0.462815	0.333627
H91	H	1.644415	0.156290	0.381600
H92	H	1.759281	-0.055186	0.375657
