data_functionalizedCrystal
_audit_creation_method	'MofGen! by Chris Wilmer'
_symmetry_space_group_name_H-M	'P1'
_symmetry_Int_Tables_number	1
_symmetry_cell_setting	triclinic
loop_
_symmetry_equiv_pos_as_xyz
  x,y,z
_cell_length_a	14.519731
_cell_length_b	10.489716
_cell_length_c	13.596369
_cell_angle_alpha	89.998063
_cell_angle_beta	89.994584
_cell_angle_gamma	84.108994
loop_
_atom_site_label
_atom_site_type_symbol
_atom_site_fract_x
_atom_site_fract_y
_atom_site_fract_z
O1	O	1.224757	0.167335	-0.081784
O2	O	1.724757	0.667335	0.418216
O3	O	0.956389	0.186997	-0.081785
O4	O	1.456389	0.686997	0.418215
O5	O	1.096692	-0.008497	-0.081788
O6	O	1.596692	0.491503	0.418212
O7	O	1.084455	0.362829	-0.081781
O8	O	1.584455	0.862829	0.418219
O9	O	1.096678	-0.008507	0.081795
O10	O	1.596678	0.491493	0.581795
O11	O	0.956375	0.186987	0.081798
O12	O	1.456375	0.686987	0.581798
O13	O	1.224743	0.167324	0.081798
O14	O	1.724743	0.667324	0.581798
Zn15	Zn	1.090557	0.177154	0.107771
Zn16	Zn	1.590557	0.677154	0.607771
Zn17	Zn	1.090576	0.177168	-0.107757
Zn18	Zn	1.590576	0.677168	0.392243
O19	O	1.084441	0.362818	0.081802
O20	O	1.584441	0.862818	0.581802
C21	C	0.922018	0.186070	0.000006
C22	C	1.422018	0.686070	0.500006
C23	C	0.819623	0.183310	0.000006
C24	C	1.319623	0.683310	0.500006
C25	C	0.736466	0.181066	0.000002
C26	C	1.236466	0.681066	0.500002
C27	C	0.632142	0.178264	0.000001
C28	C	1.132142	0.678264	0.500001
C29	C	0.548991	0.176039	0.000001
C30	C	1.048991	0.676039	0.500001
C31	C	0.444661	0.173236	-0.000001
C32	C	0.944661	0.673236	0.499999
C33	C	1.095765	-0.056025	0.000000
C34	C	1.595765	0.443975	0.500000
C35	C	1.093014	-0.197628	-0.000009
C36	C	1.593014	0.302372	0.499991
C37	C	1.179052	-0.296189	0.000000
C38	C	1.679052	0.203811	0.500000
C39	C	1.133595	-0.373076	-0.080652
C40	C	1.633595	0.126924	0.419348
C41	C	1.133561	-0.373050	0.080628
C42	C	1.633561	0.126950	0.580628
C43	C	1.047593	-0.272649	-0.080728
C44	C	1.547593	0.227351	0.419272
C45	C	1.047572	-0.272618	0.080625
C46	C	1.547572	0.227382	0.580625
C47	C	1.002051	-0.349454	-0.000048
C48	C	1.502051	0.150546	0.499952
C49	C	1.259115	0.168251	0.000005
C50	C	1.759115	0.668251	0.500005
C51	C	1.361510	0.171012	-0.000001
C52	C	1.861510	0.671012	0.499999
C53	C	1.085367	0.410346	0.000011
C54	C	1.585367	0.910346	0.500011
C55	C	1.088118	0.551949	0.000014
C56	C	1.588118	1.051949	0.500014
N57	N	1.090551	0.177144	0.254862
N58	N	1.590551	0.677144	0.754862
N59	N	1.090589	0.177168	-0.254849
N60	N	1.590589	0.677168	0.245151
C61	C	1.090574	0.177169	0.656153
C62	C	1.590574	0.677169	1.156153
C63	C	1.090565	0.177166	0.544502
C64	C	1.590565	0.677166	1.044502
C65	C	1.090563	0.177157	0.455511
C66	C	1.590563	0.677157	0.955511
C67	C	1.090553	0.177153	0.343853
C68	C	1.590553	0.677153	0.843853
H69	H	1.169921	-0.416941	-0.148839
H70	H	1.669921	0.083059	0.351161
O71	O	1.268368	-0.267819	0.000016
O72	O	1.768368	0.232181	0.500016
C73	C	1.314028	-0.321125	0.084252
C74	C	1.814028	0.178875	0.584252
H75	H	1.276757	-0.404571	0.112097
H76	H	1.776757	0.095429	0.612097
H77	H	1.388558	-0.356992	0.064706
H78	H	1.888558	0.143008	0.564706
H79	H	1.313693	-0.244918	0.144067
H80	H	1.813693	0.255082	0.644067
O81	O	1.004387	-0.220722	-0.162276
O82	O	1.504387	0.279278	0.337724
C83	C	1.049557	-0.273180	-0.247070
C84	C	1.549557	0.226820	0.252930
H85	H	1.088647	-0.369947	-0.228269
H86	H	1.588647	0.130053	0.271731
H87	H	0.996113	-0.286477	-0.306624
H88	H	1.496113	0.213523	0.193376
H89	H	1.100434	-0.205539	-0.274884
H90	H	1.600434	0.294461	0.225116
O91	O	1.004268	-0.220035	0.161896
O92	O	1.504268	0.279965	0.661896
C93	C	1.006798	-0.086044	0.160275
C94	C	1.506798	0.413956	0.660275
H95	H	1.016164	-0.053069	0.081340
H96	H	1.516164	0.446931	0.581340
H97	H	0.939152	-0.037150	0.191071
H98	H	1.439152	0.462850	0.691071
H99	H	1.067120	-0.059565	0.207101
H100	H	1.567120	0.440435	0.707101
O101	O	0.912691	-0.377626	-0.000268
O102	O	1.412691	0.122374	0.499732
C103	C	0.867679	-0.325989	-0.085405
C104	C	1.367679	0.174011	0.414595
H105	H	0.921330	-0.311866	-0.144576
H106	H	1.421330	0.188134	0.355424
H107	H	0.817652	-0.394610	-0.113551
H108	H	1.317652	0.105390	0.386449
H109	H	0.827657	-0.229737	-0.066935
H110	H	1.327657	0.270263	0.433065
H111	H	1.169893	-0.416901	0.148812
H112	H	1.669893	0.083099	0.648812
