data_functionalizedCrystal
_audit_creation_method	'MofGen! by Chris Wilmer'
_symmetry_space_group_name_H-M	'P1'
_symmetry_Int_Tables_number	1
_symmetry_cell_setting	triclinic
loop_
_symmetry_equiv_pos_as_xyz
  x,y,z
_cell_length_a	19.121112
_cell_length_b	19.121063
_cell_length_c	19.120904
_cell_angle_alpha	94.741613
_cell_angle_beta	90.088845
_cell_angle_gamma	90.126867
loop_
_atom_site_label
_atom_site_type_symbol
_atom_site_fract_x
_atom_site_fract_y
_atom_site_fract_z
Zn1	Zn	1.039579	-0.343505	-0.456027
Zn2	Zn	1.372912	-0.010172	-0.122694
Zn3	Zn	1.706245	0.323161	0.210639
Zn4	Zn	1.039492	-0.456148	-0.343374
Zn5	Zn	1.372825	-0.122815	-0.010041
Zn6	Zn	1.706159	0.210518	0.323292
Zn7	Zn	0.927792	-0.333517	-0.333406
Zn8	Zn	1.261125	-0.000184	-0.000073
Zn9	Zn	1.594458	0.333149	0.333261
Zn10	Zn	0.917325	-0.455676	-0.455559
Zn11	Zn	1.250658	-0.122343	-0.122225
Zn12	Zn	1.583991	0.210990	0.211108
O13	O	0.981047	-0.397212	-0.397092
O14	O	1.314380	-0.063879	-0.063758
O15	O	1.647713	0.269455	0.269575
O16	O	1.137478	-0.362825	-0.445451
O17	O	1.470811	-0.029492	-0.112118
O18	O	1.804145	0.303841	0.221215
O19	O	1.029019	-0.435899	-0.243785
O20	O	1.362352	-0.102565	0.089548
O21	O	1.695686	0.230768	0.422882
O22	O	0.947037	-0.236577	-0.345696
O23	O	1.280371	0.096757	-0.012363
O24	O	1.613704	0.430090	0.320970
O25	O	1.137414	-0.445584	-0.362686
O26	O	1.470748	-0.112250	-0.029352
O27	O	1.804081	0.221083	0.303981
O28	O	1.029167	-0.243915	-0.435786
O29	O	1.362500	0.089419	-0.102452
O30	O	1.695833	0.422752	0.230881
O31	O	0.946953	-0.345802	-0.236461
O32	O	1.280287	-0.012469	0.096872
O33	O	1.613620	0.320865	0.430205
O34	O	0.828492	-0.345344	-0.345242
O35	O	1.161826	-0.012011	-0.011909
O36	O	1.495159	0.321322	0.321425
O37	O	0.929198	-0.444779	-0.553888
O38	O	1.262531	-0.111446	-0.220555
O39	O	1.595864	0.221887	0.112779
O40	O	0.820802	-0.435094	-0.434987
O41	O	1.154136	-0.101761	-0.101654
O42	O	1.487469	0.231572	0.231679
O43	O	1.019017	-0.362368	-0.554232
O44	O	1.352351	-0.029034	-0.220899
O45	O	1.685684	0.304299	0.112434
O46	O	1.018870	-0.554351	-0.362231
O47	O	1.352203	-0.221018	-0.028898
O48	O	1.685536	0.112315	0.304435
O49	O	0.929114	-0.554005	-0.444653
O50	O	1.262447	-0.220671	-0.111320
O51	O	1.595780	0.112662	0.222014
C52	C	0.799260	-0.389085	-0.388983
C53	C	1.132593	-0.055751	-0.055649
C54	C	1.465927	0.277582	0.277684
C55	C	0.721489	-0.385625	-0.385531
C56	C	1.054823	-0.052292	-0.052198
C57	C	1.388156	0.281041	0.281136
C58	C	0.281836	-0.363681	-0.363667
C59	C	0.615169	-0.030347	-0.030334
C60	C	0.948502	0.302986	0.303000
C61	C	0.354909	-0.366935	-0.366914
C62	C	0.688242	-0.033602	-0.033581
C63	C	1.021576	0.299732	0.299752
C64	C	0.387458	-0.415361	-0.415193
C65	C	0.720791	-0.082028	-0.081860
C66	C	1.054125	0.251306	0.251473
C67	C	0.346929	-0.460531	-0.460233
C68	C	0.680263	-0.127197	-0.126900
C69	C	1.013596	0.206136	0.206434
C70	C	0.273857	-0.457272	-0.456989
C71	C	0.607191	-0.123939	-0.123656
C72	C	0.940524	0.209394	0.209678
C73	C	0.607889	-0.427537	-0.427326
C74	C	0.941222	-0.094204	-0.093993
C75	C	1.274556	0.239130	0.239340
C76	C	0.680966	-0.430793	-0.430566
C77	C	1.014300	-0.097460	-0.097232
C78	C	1.347633	0.235873	0.236101
C79	C	0.688941	-0.337196	-0.337247
C80	C	1.022274	-0.003863	-0.003914
C81	C	1.355608	0.329471	0.329419
C82	C	0.615867	-0.333945	-0.334005
C83	C	0.949201	-0.000612	-0.000671
C84	C	1.282534	0.332722	0.332662
C85	C	0.575345	-0.379112	-0.379047
C86	C	0.908678	-0.045779	-0.045713
C87	C	1.242012	0.287554	0.287620
C88	C	0.462151	-0.418690	-0.418512
C89	C	0.795484	-0.085357	-0.085179
C90	C	1.128817	0.247977	0.248154
C91	C	0.500654	-0.375779	-0.375731
C92	C	0.833987	-0.042446	-0.042397
C93	C	1.167320	0.290888	0.290936
C94	C	0.972865	-0.579659	-0.404489
C95	C	1.306198	-0.246325	-0.071156
C96	C	1.639531	0.087008	0.262178
C97	C	0.969427	-0.657714	-0.407680
C98	C	1.302761	-0.324381	-0.074347
C99	C	1.636094	0.008953	0.258987
C100	C	1.014577	-0.694545	-0.366305
C101	C	1.347910	-0.361212	-0.032972
C102	C	1.681243	-0.027878	0.300361
C103	C	1.011348	-0.767887	-0.369311
C104	C	1.344681	-0.434553	-0.035978
C105	C	1.678015	-0.101220	0.297356
C106	C	0.962966	-0.804396	-0.413688
C107	C	1.296299	-0.471062	-0.080354
C108	C	1.629633	-0.137729	0.252979
C109	C	0.917815	-0.767560	-0.455067
C110	C	1.251148	-0.434226	-0.121734
C111	C	1.584481	-0.100893	0.211600
C112	C	0.921047	-0.694220	-0.452065
C113	C	1.254381	-0.360886	-0.118731
C114	C	1.587714	-0.027553	0.214602
C115	C	0.950869	-1.025827	-0.424901
C116	C	1.284202	-0.692494	-0.091567
C117	C	1.617535	-0.359161	0.241766
C118	C	0.947638	-1.099172	-0.427898
C119	C	1.280971	-0.765839	-0.094565
C120	C	1.614305	-0.432506	0.238768
C121	C	1.041173	-1.099494	-0.342143
C122	C	1.374506	-0.766161	-0.008810
C123	C	1.707839	-0.432827	0.324524
C124	C	1.044398	-1.026152	-0.339142
C125	C	1.377732	-0.692819	-0.005808
C126	C	1.711065	-0.359486	0.327525
C127	C	0.999249	-0.989323	-0.380523
C128	C	1.332583	-0.655990	-0.047190
C129	C	1.665916	-0.322656	0.286143
C130	C	0.959663	-0.879362	-0.416759
C131	C	1.292996	-0.546029	-0.083426
C132	C	1.626330	-0.212696	0.249907
C133	C	1.002556	-0.914358	-0.377455
C134	C	1.335890	-0.581025	-0.044122
C135	C	1.669223	-0.247691	0.289211
C136	C	1.163543	-0.405371	-0.405233
C137	C	1.496877	-0.072038	-0.071899
C138	C	1.830210	0.261295	0.261434
C139	C	1.241312	-0.408848	-0.408702
C140	C	1.574646	-0.075515	-0.075369
C141	C	1.907979	0.257818	0.257965
C142	C	0.972950	-0.404635	-0.580252
C143	C	1.306283	-0.071302	-0.246919
C144	C	1.639616	0.262032	0.086415
C145	C	0.969499	-0.407798	-0.658304
C146	C	1.302832	-0.074465	-0.324971
C147	C	1.636166	0.258869	0.008363
C148	C	0.989279	-0.214054	-0.389681
C149	C	1.322613	0.119279	-0.056348
C150	C	1.655946	0.452613	0.276985
C151	C	0.992787	-0.136003	-0.386524
C152	C	1.326121	0.197330	-0.053190
C153	C	1.659454	0.530664	0.280143
C154	C	1.014640	-0.366379	-0.695153
C155	C	1.347973	-0.033046	-0.361820
C156	C	1.681306	0.300288	-0.028487
C157	C	1.011389	-0.369348	-0.768491
C158	C	1.344723	-0.036015	-0.435158
C159	C	1.678056	0.297319	-0.101824
C160	C	0.963001	-0.413741	-0.804978
C161	C	1.296334	-0.080407	-0.471645
C162	C	1.629667	0.252926	-0.138312
C163	C	0.917855	-0.455161	-0.768124
C164	C	1.251188	-0.121828	-0.434790
C165	C	1.584522	0.211505	-0.101457
C166	C	0.921103	-0.452188	-0.694787
C167	C	1.254436	-0.118855	-0.361454
C168	C	1.587770	0.214479	-0.028120
C169	C	0.950852	-0.424861	-1.026399
C170	C	1.284185	-0.091528	-0.693065
C171	C	1.617519	0.241805	-0.359732
C172	C	0.947609	-0.427833	-1.099740
C173	C	1.280943	-0.094500	-0.766407
C174	C	1.614276	0.238834	-0.433074
C175	C	1.041143	-0.342018	-1.100103
C176	C	1.374476	-0.008685	-0.766769
C177	C	1.707809	0.324648	-0.433436
C178	C	1.044389	-0.339052	-1.026765
C179	C	1.377722	-0.005719	-0.693431
C180	C	1.711056	0.327615	-0.360098
C181	C	0.999241	-0.380470	-0.989916
C182	C	1.332574	-0.047137	-0.656583
C183	C	1.665908	0.286197	-0.323250
C184	C	0.959678	-0.416778	-0.879942
C185	C	1.293012	-0.083445	-0.546608
C186	C	1.626345	0.249888	-0.213275
C187	C	1.002560	-0.377428	-0.914954
C188	C	1.335894	-0.044095	-0.581621
C189	C	1.669227	0.289238	-0.248288
C190	C	0.989155	-0.389769	-0.214643
C191	C	1.322488	-0.056435	0.118690
C192	C	1.655822	0.276898	0.452023
C193	C	0.992750	-0.386414	-0.136590
C194	C	1.326083	-0.053080	0.196743
C195	C	1.659417	0.280253	0.530077
H196	H	0.707465	-0.470228	-0.469884
H197	H	1.040798	-0.136895	-0.136551
H198	H	1.374132	0.196439	0.196783
H199	H	0.920269	-0.909096	-0.452889
H200	H	1.253602	-0.575763	-0.119556
H201	H	1.586935	-0.242430	0.213777
F202	F	1.089223	-1.138696	-0.298108
F203	F	1.422556	-0.805362	0.035226
F204	F	1.755889	-0.472029	0.368559
F205	F	1.089188	-0.297940	-1.139324
F206	F	1.422521	0.035394	-0.805991
F207	F	1.755854	0.368727	-0.472658
F208	F	0.564771	-0.475611	-0.475262
F209	F	0.898105	-0.142278	-0.141929
F210	F	1.231438	0.191056	0.191405
F211	F	0.381572	-0.512071	-0.511614
F212	F	0.714906	-0.178738	-0.178281
F213	F	1.048239	0.154595	0.155053
H214	H	1.083794	-0.302905	-0.997062
H215	H	1.417127	0.030429	-0.663729
H216	H	1.750461	0.363762	-0.330395
F217	F	1.059457	-0.325289	-0.807708
F218	F	1.392791	0.008044	-0.474375
F219	F	1.726124	0.341378	-0.141041
H220	H	0.908203	-0.463984	-1.129446
H221	H	1.241537	-0.130651	-0.796113
H222	H	1.574870	0.202682	-0.462780
H223	H	0.914099	-0.458598	-0.996406
H224	H	1.247432	-0.125264	-0.663073
H225	H	1.580766	0.208069	-0.329740
F226	F	0.466011	-0.324239	-0.324353
F227	F	0.799345	0.009094	0.008980
F228	F	1.132678	0.342427	0.342313
F229	F	1.054051	-0.330177	-0.876120
F230	F	1.387385	0.003156	-0.542787
F231	F	1.720718	0.336489	-0.209453
H232	H	0.721942	-0.300423	-0.300577
H233	H	1.055275	0.032910	0.032756
H234	H	1.388609	0.366244	0.366089
F235	F	0.866354	-0.502405	-0.806958
F236	F	1.199687	-0.169071	-0.473625
F237	F	1.533020	0.164262	-0.140291
H238	H	1.083795	-0.996428	-0.303006
H239	H	1.417128	-0.663095	0.030327
H240	H	1.750461	-0.329761	0.363660
H241	H	0.908247	-1.128897	-0.464048
H242	H	1.241581	-0.795563	-0.130714
H243	H	1.574914	-0.462230	0.202619
F244	F	0.230730	-0.505344	-0.504923
F245	F	0.564063	-0.172011	-0.171590
F246	F	0.897396	0.161323	0.161743
H247	H	0.884338	-0.485909	-0.664785
H248	H	1.217671	-0.152575	-0.331451
H249	H	1.551004	0.180758	0.001882
F250	F	1.066145	-0.319133	-0.656328
F251	F	1.399479	0.014200	-0.322994
F252	F	1.732812	0.347533	0.010339
F253	F	0.247201	-0.312142	-0.312278
F254	F	0.580535	0.021191	0.021056
F255	F	0.913868	0.354525	0.354389
F256	F	0.398034	-0.318857	-0.318986
F257	F	0.731367	0.014477	0.014348
F258	F	1.064701	0.347810	0.347681
H259	H	0.920283	-0.452926	-0.909658
H260	H	1.253617	-0.119593	-0.576325
H261	H	1.586950	0.213740	-0.242991
F262	F	0.496798	-0.470237	-0.469884
F263	F	0.830131	-0.136903	-0.136550
F264	F	1.163465	0.196430	0.196783
H265	H	0.884283	-0.664233	-0.485757
H266	H	1.217616	-0.330899	-0.152424
H267	H	1.550949	0.002434	0.180909
F268	F	0.581232	-0.282400	-0.282623
F269	F	0.914565	0.050933	0.050711
F270	F	1.247898	0.384267	0.384044
F271	F	1.059404	-0.807082	-0.325276
F272	F	1.392738	-0.473748	0.008057
F273	F	1.726071	-0.140415	0.341390
F274	F	1.066068	-0.655695	-0.319069
F275	F	1.399401	-0.322362	0.014265
F276	F	1.732735	0.010971	0.347598
F277	F	0.866326	-0.806418	-0.502300
F278	F	1.199660	-0.473084	-0.168967
F279	F	1.532993	-0.139751	0.164366
F280	F	0.902816	-0.986640	-0.468943
F281	F	1.236149	-0.653307	-0.135609
F282	F	1.569483	-0.319973	0.197724
H283	H	1.041952	-0.884630	-0.341326
H284	H	1.375285	-0.551297	-0.007993
H285	H	1.708618	-0.217964	0.325340
