data_functionalizedCrystal
_audit_creation_method	'MofGen! by Chris Wilmer'
_symmetry_space_group_name_H-M	'P1'
_symmetry_Int_Tables_number	1
_symmetry_cell_setting	triclinic
loop_
_symmetry_equiv_pos_as_xyz
  x,y,z
_cell_length_a	10.654545
_cell_length_b	14.853559
_cell_length_c	9.130313
_cell_angle_alpha	89.997672
_cell_angle_beta	89.996934
_cell_angle_gamma	84.057266
loop_
_atom_site_label
_atom_site_type_symbol
_atom_site_fract_x
_atom_site_fract_y
_atom_site_fract_z
O1	O	1.666522	0.126607	-0.121777
O2	O	1.300917	0.138675	-0.121782
O3	O	1.493491	0.001463	-0.121778
O4	O	1.473948	0.263819	-0.121781
O5	O	1.493478	0.001459	0.121821
O6	O	1.300904	0.138671	0.121816
O7	O	1.666509	0.126603	0.121822
Cu8	Cu	1.483705	0.132637	0.144062
Cu9	Cu	1.483721	0.132642	-0.144022
O10	O	1.473935	0.263815	0.121818
C11	C	1.254122	0.137788	0.000016
C12	C	1.114706	0.135140	0.000014
C13	C	1.049207	0.133891	0.132801
C14	C	0.918214	0.131387	0.132801
C15	C	0.918229	0.131385	-0.132784
C16	C	1.049221	0.133882	-0.132783
C17	C	1.492601	-0.032132	0.000019
C18	C	1.489953	-0.132231	0.000011
C19	C	1.478727	-0.555463	-0.132776
C20	C	1.478713	-0.555463	0.132805
C21	C	1.481211	-0.461416	0.132807
C22	C	1.482466	-0.414389	0.000015
C23	C	1.481222	-0.461408	-0.132778
C24	C	1.482442	-0.414389	0.265597
C25	C	1.484939	-0.320336	0.265604
C26	C	1.486203	-0.273308	0.132810
C27	C	1.484960	-0.320333	0.000012
C28	C	1.486215	-0.273306	-0.132780
C29	C	1.484981	-0.320330	-0.265580
C30	C	1.482486	-0.414380	-0.265572
C31	C	1.488699	-0.179258	0.132802
C32	C	1.488709	-0.179250	-0.132783
C33	C	1.713304	0.127490	0.000020
C34	C	1.852720	0.130139	0.000013
C35	C	1.474825	0.297411	0.000018
C36	C	1.477473	0.397509	0.000016
N37	N	1.483703	0.132633	0.346684
N38	N	1.483732	0.132638	-0.346645
C39	C	1.569004	0.071901	0.423338
C40	C	1.569016	0.071901	0.576675
C41	C	1.398423	0.193373	0.576691
C42	C	1.398406	0.193368	0.423357
H43	H	1.489737	-0.140967	-0.240919
H44	H	1.102552	0.134897	-0.240920
H45	H	1.485994	-0.282027	-0.373699
C46	C	1.304573	0.260157	0.661028
H47	H	1.253750	0.296313	0.593410
H48	H	1.349775	0.298002	0.720850
H49	H	1.252265	0.227346	0.720836
C50	C	0.846189	0.130015	-0.278848
H51	H	0.758792	0.128359	-0.259834
H52	H	0.877149	0.077945	-0.333412
H53	H	0.858169	0.182913	-0.333404
H54	H	1.477683	-0.593757	0.240918
C55	C	1.481112	-0.466105	-0.411634
H56	H	1.479430	-0.528852	-0.392610
H57	H	1.554697	-0.457118	-0.466205
H58	H	1.408336	-0.444267	-0.466188
C59	C	1.477365	-0.607184	-0.278844
H60	H	1.475694	-0.669932	-0.259832
H61	H	1.550950	-0.598186	-0.333407
H62	H	1.404589	-0.585348	-0.333400
C63	C	1.486312	-0.268619	0.411674
H64	H	1.485217	-0.310099	0.490758
H65	H	1.414116	-0.225504	0.417202
H66	H	1.560477	-0.238359	0.417188
H67	H	1.102521	0.134914	0.240932
H68	H	1.638473	0.022447	0.639082
H69	H	1.328938	0.242823	0.360941
H70	H	1.638456	0.022446	0.360915
H71	H	0.864890	0.130370	0.240929
H72	H	1.489674	-0.140973	0.240926
H73	H	1.481414	-0.452685	0.373709
