data_functionalizedCrystal
_audit_creation_method	'MofGen! by Chris Wilmer'
_symmetry_space_group_name_H-M	'P1'
_symmetry_Int_Tables_number	1
_symmetry_cell_setting	triclinic
loop_
_symmetry_equiv_pos_as_xyz
  x,y,z
_cell_length_a	10.654556
_cell_length_b	15.944493
_cell_length_c	9.730223
_cell_angle_alpha	90.001475
_cell_angle_beta	89.998368
_cell_angle_gamma	83.981290
loop_
_atom_site_label
_atom_site_type_symbol
_atom_site_fract_x
_atom_site_fract_y
_atom_site_fract_z
O1	O	1.666271	0.118005	-0.114218
O2	O	1.300645	0.129240	-0.114230
O3	O	1.493480	0.001402	-0.114235
O4	O	1.473435	0.245842	-0.114213
O5	O	1.493468	0.001399	0.114344
O6	O	1.300632	0.129236	0.114349
O7	O	1.666259	0.118001	0.114362
Zn8	Zn	1.483443	0.123618	0.150648
Zn9	Zn	1.483460	0.123623	-0.150516
O10	O	1.473423	0.245839	0.114367
C11	C	1.253851	0.128412	0.000058
C12	C	1.114441	0.125940	0.000052
C13	C	0.917949	0.122463	-0.124537
C14	C	1.048940	0.124780	-0.124545
C15	C	1.048946	0.124776	0.124665
C16	C	0.917958	0.122453	0.124672
C17	C	1.492655	-0.029899	0.000049
C18	C	1.490198	-0.123162	0.000031
C19	C	1.603706	-0.358263	0.000061
C20	C	1.542502	-0.409185	-0.112642
C21	C	1.485647	-0.293909	0.000048
C22	C	1.542462	-0.409164	0.112720
C23	C	1.481260	-0.458844	0.000070
C24	C	1.424475	-0.343603	-0.112748
C25	C	1.424453	-0.343579	0.112715
C26	C	1.363162	-0.394468	-0.000016
C27	C	1.488178	-0.198895	0.000034
C28	C	1.478720	-0.553856	0.000074
C29	C	1.713052	0.118829	0.000071
C30	C	1.852462	0.121301	0.000067
C31	C	1.474248	0.277140	0.000080
C32	C	1.476705	0.370403	0.000088
N33	N	1.483441	0.123614	0.356184
N34	N	1.483472	0.123620	-0.356053
C35	C	1.568858	0.067032	0.428108
C36	C	1.568870	0.067033	0.571991
C37	C	1.398046	0.180205	0.572013
C38	C	1.398029	0.180200	0.428133
H39	H	1.102288	0.125715	0.226114
H40	H	1.592339	-0.437807	0.207995
H41	H	1.328506	0.226276	0.630609
C42	C	0.845910	0.121185	-0.261606
N43	N	0.791655	0.120218	-0.364850
H44	H	1.638405	0.020956	0.369530
C45	C	1.225675	-0.416164	-0.000102
N46	N	1.122121	-0.432507	-0.000174
C47	C	0.845916	0.121181	0.261753
N48	N	0.791654	0.120224	0.364999
H49	H	1.638423	0.020957	0.630547
C50	C	1.609866	-0.447904	-0.241354
N51	N	1.660614	-0.477068	-0.338294
C52	C	1.120971	0.126055	-0.261619
N53	N	1.175224	0.127014	-0.364870
C54	C	1.741085	-0.336348	-0.000086
N55	N	1.844557	-0.319841	-0.000203
C56	C	1.304116	0.242487	0.349012
N57	N	1.233403	0.289412	0.289419
H58	H	1.374651	-0.315070	-0.208132
H59	H	1.374633	-0.314909	0.207998
