data_functionalizedCrystal
_audit_creation_method	'MofGen! by Chris Wilmer'
_symmetry_space_group_name_H-M	'P1'
_symmetry_Int_Tables_number	1
_symmetry_cell_setting	triclinic
loop_
_symmetry_equiv_pos_as_xyz
  x,y,z
_cell_length_a	10.654550
_cell_length_b	10.723023
_cell_length_c	9.130313
_cell_angle_alpha	89.996488
_cell_angle_beta	89.999724
_cell_angle_gamma	84.476239
loop_
_atom_site_label
_atom_site_type_symbol
_atom_site_fract_x
_atom_site_fract_y
_atom_site_fract_z
O1	O	1.667813	0.175275	-0.121687
O2	O	1.302332	0.191974	-0.121713
O3	O	1.493503	0.002049	-0.121693
O4	O	1.476641	0.365199	-0.121706
O5	O	1.493490	0.002044	0.121906
O6	O	1.302318	0.191968	0.121886
O7	O	1.667799	0.175269	0.121912
Cu8	Cu	1.485058	0.183618	0.144142
Cu9	Cu	1.485073	0.183625	-0.143942
O10	O	1.476628	0.365194	0.121892
C11	C	1.255527	0.190745	0.000083
C12	C	1.116084	0.187077	0.000073
C13	C	1.492269	-0.044453	0.000105
C14	C	1.488599	-0.183008	0.000100
C15	C	1.036582	0.298901	0.000073
C16	C	0.905561	0.295447	0.000099
C17	C	0.933559	0.068334	0.000118
C18	C	1.064577	0.071789	0.000103
C19	C	1.486969	-0.244771	-0.126094
C20	C	1.483175	-0.387975	-0.126102
C21	C	1.714604	0.176498	0.000113
C22	C	1.854046	0.180167	0.000114
C23	C	1.477861	0.411696	0.000091
C24	C	1.481532	0.550251	0.000087
N25	N	1.485056	0.183613	0.346764
N26	N	1.485085	0.183621	-0.346565
C27	C	1.569735	0.099550	0.423425
C28	C	1.569747	0.099550	0.576762
C29	C	1.400396	0.267687	0.576764
C30	C	1.400379	0.267680	0.423430
H31	H	0.840835	0.386506	0.000102
H32	H	1.481780	-0.441090	-0.234141
H33	H	0.891606	-0.025530	0.000151
H34	H	1.638682	0.031096	0.361007
H35	H	1.129312	-0.019278	0.000107
C36	C	1.488685	-0.173737	-0.270038
C37	C	1.382831	-0.085852	-0.277686
C38	C	1.384389	-0.020381	-0.410257
H39	H	1.487118	-0.230896	-0.349344
H40	H	1.563112	-0.131758	-0.275458
H41	H	1.308424	-0.127828	-0.272281
H42	H	1.384376	-0.028666	-0.198411
H43	H	1.458816	0.021598	-0.415678
H44	H	1.382825	-0.077550	-0.489553
H45	H	1.312575	0.039265	-0.415459
C46	C	1.308269	0.358814	0.659931
C47	C	1.184684	0.337405	0.622689
C48	C	1.099783	0.421318	0.699287
H49	H	1.322441	0.442282	0.634853
H50	H	1.320325	0.346772	0.762245
H51	H	1.172633	0.349458	0.520398
H52	H	1.170471	0.253954	0.647772
H53	H	1.111838	0.409276	0.801600
H54	H	1.113967	0.504780	0.674202
H55	H	1.015921	0.406796	0.674039
H56	H	1.638700	0.031097	0.639175
H57	H	1.331417	0.336135	0.361008
H58	H	1.482940	-0.396643	0.108131
C59	C	1.486503	-0.253979	0.144055
C60	C	1.376671	-0.315640	0.151667
C61	C	1.374700	-0.381038	0.284253
H62	H	1.487946	-0.196791	0.223347
H63	H	1.558223	-0.313725	0.149524
H64	H	1.304969	-0.255901	0.146211
H65	H	1.375204	-0.372849	0.072405
H66	H	1.446421	-0.440784	0.289723
H67	H	1.376147	-0.323841	0.363535
H68	H	1.300186	-0.422892	0.289430
H69	H	1.078514	0.392775	0.000060
