data_functionalizedCrystal
_audit_creation_method	'MofGen! by Chris Wilmer'
_symmetry_space_group_name_H-M	'P1'
_symmetry_Int_Tables_number	1
_symmetry_cell_setting	triclinic
loop_
_symmetry_equiv_pos_as_xyz
  x,y,z
_cell_length_a	19.805407
_cell_length_b	25.639240
_cell_length_c	19.805399
_cell_angle_alpha	90.035908
_cell_angle_beta	90.017803
_cell_angle_gamma	90.030074
loop_
_atom_site_label
_atom_site_type_symbol
_atom_site_fract_x
_atom_site_fract_y
_atom_site_fract_z
Zn1	Zn	1.034706	-0.208200	0.382648
Zn2	Zn	1.368039	0.125133	0.715982
Zn3	Zn	1.701372	0.458466	1.049315
Zn4	Zn	1.034608	-0.295634	0.269444
Zn5	Zn	1.367941	0.037699	0.602777
Zn6	Zn	1.701275	0.371032	0.936110
Zn7	Zn	0.921520	-0.208211	0.269477
Zn8	Zn	1.254854	0.125123	0.602810
Zn9	Zn	1.588187	0.458456	0.936143
Zn10	Zn	0.921471	-0.295602	0.382594
Zn11	Zn	1.254805	0.037731	0.715927
Zn12	Zn	1.588138	0.371064	1.049261
O13	O	0.978076	-0.251912	0.326041
O14	O	1.311410	0.081421	0.659374
O15	O	1.644743	0.414755	0.992707
O16	O	1.129409	-0.219808	0.367641
O17	O	1.462743	0.113526	0.700974
O18	O	1.796076	0.446859	1.034307
O19	O	1.019586	-0.284055	0.174732
O20	O	1.352920	0.049278	0.508065
O21	O	1.686253	0.382612	0.841398
O22	O	0.936596	-0.135044	0.284526
O23	O	1.269929	0.198289	0.617859
O24	O	1.603263	0.531623	0.951192
O25	O	1.129338	-0.284045	0.284470
O26	O	1.462671	0.049288	0.617803
O27	O	1.796004	0.382622	0.951136
O28	O	1.019753	-0.135037	0.367672
O29	O	1.353086	0.198297	0.701006
O30	O	1.686420	0.531630	1.034339
O31	O	0.936501	-0.219825	0.174756
O32	O	1.269835	0.113508	0.508089
O33	O	1.603168	0.446841	0.841422
O34	O	0.826797	-0.219794	0.284473
O35	O	1.160131	0.113539	0.617806
O36	O	1.493464	0.446872	0.951139
O37	O	0.936513	-0.283991	0.477318
O38	O	1.269846	0.049343	0.810651
O39	O	1.603179	0.382676	1.143985
O40	O	0.826761	-0.284001	0.367580
O41	O	1.160095	0.049333	0.700913
O42	O	1.493428	0.382666	1.034246
O43	O	1.019705	-0.219777	0.477358
O44	O	1.353039	0.113557	0.810691
O45	O	1.686372	0.446890	1.144025
O46	O	1.019539	-0.368795	0.284417
O47	O	1.352872	-0.035462	0.617750
O48	O	1.686205	0.297871	0.951084
O49	O	0.936418	-0.368772	0.367548
O50	O	1.269751	-0.035439	0.700881
O51	O	1.603084	0.297895	1.034215
C52	C	0.802220	-0.251896	0.326024
C53	C	1.135554	0.081438	0.659358
C54	C	1.468887	0.414771	0.992691
C55	C	0.726988	-0.251901	0.326033
C56	C	1.060322	0.081432	0.659367
C57	C	1.393655	0.414765	0.992700
C58	C	0.691682	-0.218512	0.369406
C59	C	1.025016	0.114821	0.702740
C60	C	1.358349	0.448155	1.036073
C61	C	0.620994	-0.218515	0.369409
C62	C	0.954327	0.114819	0.702742
C63	C	1.287660	0.448152	1.036076
C64	C	0.585613	-0.251910	0.326041
C65	C	0.918946	0.081424	0.659375
C66	C	1.252279	0.414757	0.992708
C67	C	0.620924	-0.285300	0.282664
C68	C	0.954257	0.048033	0.615997
C69	C	1.287591	0.381366	0.949330
C70	C	0.691611	-0.285295	0.282658
C71	C	1.024944	0.048039	0.615991
C72	C	1.358278	0.381372	0.949325
C73	C	0.335851	-0.285324	0.282684
C74	C	0.669184	0.048009	0.616018
C75	C	1.002517	0.381343	0.949351
C76	C	0.265159	-0.285328	0.282695
C77	C	0.598492	0.048005	0.616028
C78	C	0.931825	0.381338	0.949361
C79	C	0.265233	-0.218544	0.369435
C80	C	0.598567	0.114789	0.702768
C81	C	0.931900	0.448123	1.036102
C82	C	0.335921	-0.218538	0.369430
C83	C	0.669254	0.114795	0.702763
C84	C	1.002587	0.448128	1.036096
C85	C	0.371225	-0.251927	0.326050
C86	C	0.704559	0.081407	0.659383
C87	C	1.037892	0.414740	0.992716
C88	C	0.447874	-0.251923	0.326046
C89	C	0.781207	0.081411	0.659380
C90	C	1.114541	0.414744	0.992713
C91	C	0.508966	-0.251917	0.326048
C92	C	0.842299	0.081417	0.659381
C93	C	1.175632	0.414750	0.992714
C94	C	0.977981	-0.387755	0.325988
C95	C	1.311314	-0.054421	0.659321
C96	C	1.644647	0.278912	0.992654
C97	C	0.978002	-0.445869	0.325988
C98	C	1.311335	-0.112535	0.659321
C99	C	1.644668	0.220798	0.992654
C100	C	1.021398	-0.806189	0.369413
C101	C	1.354731	-0.472856	0.702747
C102	C	1.688064	-0.139523	1.036080
C103	C	1.021418	-0.860793	0.369427
C104	C	1.354751	-0.527460	0.702760
C105	C	1.688084	-0.194127	1.036094
O106	O	1.058201	-0.888994	0.406295
O107	O	1.391534	-0.555661	0.739628
O108	O	1.724867	-0.222328	1.072961
N109	N	0.978170	-0.888151	0.326106
N110	N	1.311504	-0.554818	0.659439
N111	N	1.644837	-0.221484	0.992773
C112	C	0.934895	-0.860901	0.282773
C113	C	1.268229	-0.527568	0.616107
C114	C	1.601562	-0.194235	0.949440
O115	O	0.898112	-0.889185	0.245927
O116	O	1.231445	-0.555852	0.579260
O117	O	1.564778	-0.222518	0.912594
C118	C	0.934873	-0.806298	0.282764
C119	C	1.268206	-0.472965	0.616097
C120	C	1.601539	-0.139631	0.949430
C121	C	0.978128	-0.778943	0.326083
C122	C	1.311461	-0.445610	0.659416
C123	C	1.644794	-0.112277	0.992749
C124	C	1.064649	-0.778834	0.412729
C125	C	1.397982	-0.445501	0.746063
C126	C	1.731315	-0.112168	1.079396
C127	C	1.064629	-0.724234	0.412715
C128	C	1.397963	-0.390901	0.746048
C129	C	1.731296	-0.057567	1.079381
C130	C	1.021359	-0.696988	0.369384
C131	C	1.354693	-0.363655	0.702717
C132	C	1.688026	-0.030321	1.036050
C133	C	0.978108	-0.724343	0.326068
C134	C	1.311442	-0.391010	0.659401
C135	C	1.644775	-0.057676	0.992734
C136	C	0.891595	-0.779049	0.239435
C137	C	1.224928	-0.445716	0.572768
C138	C	1.558261	-0.112383	0.906101
C139	C	0.891575	-0.724442	0.239429
C140	C	1.224909	-0.391109	0.572762
C141	C	1.558242	-0.057776	0.906096
C142	C	0.934830	-0.697088	0.282748
C143	C	1.268163	-0.363754	0.616081
C144	C	1.601497	-0.030421	0.949415
C145	C	0.934819	-0.642497	0.282722
C146	C	1.268152	-0.309163	0.616055
C147	C	1.601486	0.024170	0.949389
N148	N	0.978066	-0.615139	0.326043
N149	N	1.311399	-0.281806	0.659376
N150	N	1.644733	0.051528	0.992710
C151	C	1.021336	-0.642385	0.369374
C152	C	1.354670	-0.309051	0.702707
C153	C	1.688003	0.024282	1.036041
C154	C	0.934946	-0.975572	0.282798
C155	C	1.268279	-0.642239	0.616131
C156	C	1.601613	-0.308905	0.949465
C157	C	0.934972	-1.030174	0.282804
C158	C	1.268305	-0.696841	0.616137
C159	C	1.601638	-0.363508	0.949471
C160	C	1.021493	-1.030063	0.369459
C161	C	1.354827	-0.696729	0.702792
C162	C	1.688160	-0.363396	1.036126
C163	C	1.021470	-0.975459	0.369449
C164	C	1.354804	-0.642126	0.702782
C165	C	1.688137	-0.308793	1.036116
C166	C	0.978193	-0.948214	0.326119
C167	C	1.311527	-0.614881	0.659453
C168	C	1.644860	-0.281548	0.992786
C169	C	1.021293	-0.527720	0.369339
C170	C	1.354626	-0.194386	0.702672
C171	C	1.687960	0.138947	1.036006
C172	C	1.021272	-0.473114	0.369318
C173	C	1.354605	-0.139781	0.702652
C174	C	1.687939	0.193552	1.035985
C175	C	0.934748	-0.473231	0.282666
C176	C	1.268082	-0.139897	0.616000
C177	C	1.601415	0.193436	0.949333
C178	C	0.934772	-0.527831	0.282684
C179	C	1.268105	-0.194498	0.616018
C180	C	1.601438	0.138835	0.949351
C181	C	0.978046	-0.555075	0.326026
C182	C	1.311380	-0.221741	0.659359
C183	C	1.644713	0.111592	0.992693
O184	O	0.898053	-0.614261	0.245875
O185	O	1.231386	-0.280928	0.579209
O186	O	1.564719	0.052406	0.912542
O187	O	1.058108	-0.614095	0.406220
O188	O	1.391441	-0.280761	0.739554
O189	O	1.724774	0.052572	1.072887
C190	C	1.154619	-0.251929	0.326058
C191	C	1.487952	0.081405	0.659391
C192	C	1.821286	0.414738	0.992724
C193	C	1.229851	-0.251936	0.326065
C194	C	1.563184	0.081397	0.659398
C195	C	1.896518	0.414731	0.992731
C196	C	0.978114	-0.251879	0.502584
C197	C	1.311448	0.081454	0.835917
C198	C	1.644781	0.414788	1.169250
C199	C	0.978131	-0.251865	0.577816
C200	C	1.311464	0.081468	0.911149
C201	C	1.644797	0.414802	1.244482
C202	C	0.978191	-0.115539	0.326109
C203	C	1.311524	0.217794	0.659442
C204	C	1.644858	0.551128	0.992775
C205	C	0.978240	-0.057425	0.326138
C206	C	1.311573	0.275908	0.659471
C207	C	1.644906	0.609242	0.992804
C208	C	0.978078	-0.251907	0.150185
C209	C	1.311411	0.081426	0.483518
C210	C	1.644744	0.414760	0.816851
C211	C	0.978193	-0.251774	0.074953
C212	C	1.311526	0.081560	0.408286
C213	C	1.644859	0.414893	0.741620
C214	C	1.021450	-0.218427	0.613182
C215	C	1.354783	0.114906	0.946515
C216	C	1.688117	0.448240	1.279848
C217	C	1.021457	-0.218412	0.683870
C218	C	1.354790	0.114921	1.017203
C219	C	1.688124	0.448255	1.350537
C220	C	0.978147	-0.251838	0.719191
C221	C	1.311481	0.081496	1.052525
C222	C	1.644814	0.414829	1.385858
C223	C	0.934823	-0.285277	0.683820
C224	C	1.268156	0.048056	1.017153
C225	C	1.601490	0.381390	1.350487
C226	C	0.934813	-0.285289	0.613133
C227	C	1.268147	0.048044	0.946466
C228	C	1.601480	0.381377	1.279800
C229	C	0.934861	-0.285228	0.968894
C230	C	1.268195	0.048105	1.302227
C231	C	1.601528	0.381438	1.635560
C232	C	0.934876	-0.285215	1.039586
C233	C	1.268209	0.048119	1.372919
C234	C	1.601543	0.381452	1.706252
C235	C	1.021505	-0.218351	1.039631
C236	C	1.354838	0.114982	1.372964
C237	C	1.688172	0.448316	1.706297
C238	C	1.021495	-0.218363	0.968944
C239	C	1.354829	0.114970	1.302277
C240	C	1.688162	0.448303	1.635610
C241	C	0.978169	-0.251800	0.933579
C242	C	1.311502	0.081533	1.266912
C243	C	1.644835	0.414866	1.600245
C244	C	0.978161	-0.251816	0.856930
C245	C	1.311494	0.081518	1.190264
C246	C	1.644827	0.414851	1.523597
C247	C	0.978158	-0.251825	0.795838
C248	C	1.311492	0.081508	1.129172
C249	C	1.644825	0.414841	1.462505
H250	H	0.592111	-0.312489	0.247350
H251	H	0.925444	0.020845	0.580683
H252	H	1.258778	0.354178	0.914017
Br253	Br	0.739693	-0.173191	0.428270
Br254	Br	1.073026	0.160142	0.761604
Br255	Br	1.406359	0.493475	1.094937
Br256	Br	0.876041	-0.330638	0.731755
Br257	Br	1.209374	0.002695	1.065088
Br258	Br	1.542707	0.336029	1.398422
H259	H	1.056725	-1.052256	0.404743
H260	H	1.390058	-0.718923	0.738076
H261	H	1.723392	-0.385589	1.071409
Br262	Br	0.876278	-1.067292	0.224000
Br263	Br	1.209611	-0.733958	0.557334
Br264	Br	1.542944	-0.400625	0.890667
Br265	Br	0.217316	-0.173230	0.428309
Br266	Br	0.550649	0.160104	0.761642
Br267	Br	0.883983	0.493437	1.094976
H268	H	0.899605	-0.312435	1.068342
H269	H	1.232938	0.020898	1.401676
H270	H	1.566272	0.354232	1.735009
Br271	Br	1.080306	-0.172970	1.087630
Br272	Br	1.413639	0.160363	1.420963
Br273	Br	1.746972	0.493696	1.754296
H274	H	0.899555	-0.550105	0.247405
H275	H	1.232889	-0.216771	0.580738
H276	H	1.566222	0.116562	0.914072
Br277	Br	0.832837	-0.687470	0.180622
Br278	Br	1.166171	-0.354137	0.513955
Br279	Br	1.499504	-0.020804	0.847288
Br280	Br	1.080236	-0.173065	0.565253
Br281	Br	1.413569	0.160268	0.898586
Br282	Br	1.746903	0.493602	1.231919
H283	H	0.899531	-0.312512	0.584339
H284	H	1.232865	0.020821	0.917672
H285	H	1.566198	0.354154	1.251005
Br286	Br	1.080282	-0.173054	0.731865
Br287	Br	1.413615	0.160279	1.065198
Br288	Br	1.746949	0.493612	1.398531
H289	H	0.899706	-0.953392	0.247508
H290	H	1.233040	-0.620059	0.580841
H291	H	1.566373	-0.286725	0.914175
Br292	Br	0.573081	-0.173199	0.428275
Br293	Br	0.906414	0.160134	0.761609
Br294	Br	1.239747	0.493468	1.094942
Br295	Br	0.383934	-0.173218	0.428292
Br296	Br	0.717268	0.160115	0.761625
Br297	Br	1.050601	0.493448	1.094959
Br298	Br	1.123377	-0.815801	0.471547
Br299	Br	1.456710	-0.482467	0.804881
Br300	Br	1.790044	-0.149134	1.138214
H301	H	1.056765	-0.191146	0.940189
H302	H	1.390098	0.142187	1.273522
H303	H	1.723431	0.475520	1.606855
H304	H	0.899592	-0.312463	0.940108
H305	H	1.232926	0.020871	1.273441
H306	H	1.566259	0.354204	1.606775
H307	H	0.236353	-0.312524	0.247377
H308	H	0.569687	0.020810	0.580711
H309	H	0.903020	0.354143	0.914044
Br310	Br	0.383756	-0.330623	0.223794
Br311	Br	0.717089	0.002710	0.557127
Br312	Br	1.050422	0.336043	0.890461
Br313	Br	1.079982	-0.435993	0.428110
Br314	Br	1.413315	-0.102660	0.761443
Br315	Br	1.746648	0.230673	1.094777
Br316	Br	0.739528	-0.330610	0.223791
Br317	Br	1.072861	0.002724	0.557125
Br318	Br	1.406194	0.336057	0.890458
Br319	Br	1.080024	-0.564684	0.428160
Br320	Br	1.413358	-0.231351	0.761493
Br321	Br	1.746691	0.101983	1.094826
H322	H	0.899520	-0.451039	0.247385
H323	H	1.232853	-0.117705	0.580718
H324	H	1.566187	0.215628	0.914051
H325	H	1.099849	-0.701965	0.447991
H326	H	1.433182	-0.368632	0.781324
H327	H	1.766516	-0.035298	1.114657
Br328	Br	0.832886	-0.816160	0.180642
Br329	Br	1.166219	-0.482826	0.513975
Br330	Br	1.499553	-0.149493	0.847309
Br331	Br	1.080175	-0.938341	0.428241
Br332	Br	1.413509	-0.605008	0.761574
Br333	Br	1.746842	-0.271674	1.094908
