data_functionalizedCrystal
_audit_creation_method	'MofGen! by Chris Wilmer'
_symmetry_space_group_name_H-M	'P1'
_symmetry_Int_Tables_number	1
_symmetry_cell_setting	triclinic
loop_
_symmetry_equiv_pos_as_xyz
  x,y,z
_cell_length_a	21.395364
_cell_length_b	21.295417
_cell_length_c	21.295411
_cell_angle_alpha	90.028718
_cell_angle_beta	90.016431
_cell_angle_gamma	90.045458
loop_
_atom_site_label
_atom_site_type_symbol
_atom_site_fract_x
_atom_site_fract_y
_atom_site_fract_z
Zn1	Zn	0.957810	-0.250386	0.355911
Zn2	Zn	1.291143	0.082947	0.689245
Zn3	Zn	1.624477	0.416281	1.022578
Zn4	Zn	0.957728	-0.355651	0.250637
Zn5	Zn	1.291061	-0.022317	0.583970
Zn6	Zn	1.624394	0.311016	0.917303
Zn7	Zn	0.853040	-0.250427	0.250656
Zn8	Zn	1.186373	0.082907	0.583990
Zn9	Zn	1.519706	0.416240	0.917323
Zn10	Zn	0.852994	-0.355649	0.355868
Zn11	Zn	1.186328	-0.022315	0.689202
Zn12	Zn	1.519661	0.311018	1.022535
O13	O	0.905393	-0.303028	0.303268
O14	O	1.238726	0.030305	0.636601
O15	O	1.572060	0.363639	0.969935
O16	O	1.045477	-0.264333	0.341956
O17	O	1.378810	0.069000	0.675289
O18	O	1.712144	0.402333	1.008623
O19	O	0.943825	-0.341711	0.162550
O20	O	1.277158	-0.008377	0.495883
O21	O	1.610492	0.324956	0.829217
O22	O	0.866991	-0.162332	0.264645
O23	O	1.200324	0.171001	0.597978
O24	O	1.533658	0.504335	0.931311
O25	O	1.045416	-0.341671	0.264611
O26	O	1.378750	-0.008338	0.597945
O27	O	1.712083	0.324996	0.931278
O28	O	0.943965	-0.162302	0.341975
O29	O	1.277299	0.171031	0.675308
O30	O	1.610632	0.504365	1.008642
O31	O	0.866911	-0.264403	0.162564
O32	O	1.200245	0.068930	0.495898
O33	O	1.533578	0.402264	0.829231
O34	O	0.765356	-0.264401	0.264603
O35	O	1.098689	0.068932	0.597937
O36	O	1.432022	0.402266	0.931270
O37	O	0.866914	-0.341667	0.443963
O38	O	1.200247	-0.008334	0.777297
O39	O	1.533581	0.324999	1.110630
O40	O	0.765323	-0.341707	0.341902
O41	O	1.098656	-0.008374	0.675235
O42	O	1.431989	0.324960	1.008569
O43	O	0.943921	-0.264331	0.443995
O44	O	1.277255	0.069002	0.777328
O45	O	1.610588	0.402335	1.110662
O46	O	0.943781	-0.443740	0.264570
O47	O	1.277114	-0.110407	0.597903
O48	O	1.610448	0.222927	0.931236
O49	O	0.866834	-0.443738	0.341883
O50	O	1.200167	-0.110405	0.675216
O51	O	1.533501	0.222928	1.008550
C52	C	0.742605	-0.303059	0.303250
C53	C	1.075939	0.030275	0.636584
C54	C	1.409272	0.363608	0.969917
C55	C	0.672964	-0.303087	0.303258
C56	C	1.006297	0.030246	0.636591
C57	C	1.339631	0.363580	0.969925
C58	C	0.640305	-0.262883	0.343594
C59	C	0.973638	0.070450	0.676927
C60	C	1.306971	0.403784	1.010260
C61	C	0.574869	-0.262866	0.343596
C62	C	0.908203	0.070467	0.676929
C63	C	1.241536	0.403800	1.010263
C64	C	0.542096	-0.303065	0.303269
C65	C	0.875429	0.030269	0.636603
C66	C	1.208762	0.363602	0.969936
C67	C	0.574763	-0.343271	0.262926
C68	C	0.908096	-0.009938	0.596259
C69	C	1.241430	0.323395	0.929592
C70	C	0.640197	-0.343282	0.262920
C71	C	0.973530	-0.009949	0.596253
C72	C	1.306864	0.323384	0.929587
C73	C	0.438372	-0.359755	0.298205
C74	C	0.771706	-0.026421	0.631539
C75	C	1.105039	0.306912	0.964872
C76	C	0.372939	-0.359745	0.298215
C77	C	0.706273	-0.026411	0.631549
C78	C	1.039606	0.306922	0.964882
C79	C	0.340275	-0.303030	0.303283
C80	C	0.673608	0.030303	0.636617
C81	C	1.006942	0.363637	0.969950
C82	C	0.373052	-0.246324	0.308354
C83	C	0.706385	0.087010	0.641688
C84	C	1.039718	0.420343	0.975021
C85	C	0.438486	-0.246335	0.308349
C86	C	0.771819	0.086999	0.641682
C87	C	1.105152	0.420332	0.975015
C88	C	0.471143	-0.303057	0.303271
C89	C	0.804477	0.030277	0.636604
C90	C	1.137810	0.363610	0.969937
C91	C	0.236663	-0.262805	0.343624
C92	C	0.569996	0.070529	0.676957
C93	C	0.903330	0.403862	1.010290
C94	C	0.171227	-0.262787	0.343622
C95	C	0.504560	0.070546	0.676955
C96	C	0.837893	0.403880	1.010288
C97	C	0.171121	-0.343197	0.262955
C98	C	0.504455	-0.009864	0.596288
C99	C	0.837788	0.323469	0.929622
C100	C	0.236557	-0.343210	0.262954
C101	C	0.569890	-0.009876	0.596287
C102	C	0.903223	0.323457	0.929620
C103	C	0.269324	-0.303014	0.303291
C104	C	0.602657	0.030319	0.636625
C105	C	0.935990	0.363653	0.969958
C106	C	0.905311	-0.466580	0.303233
C107	C	1.238644	-0.133246	0.636567
C108	C	1.571977	0.200087	0.969900
C109	C	0.905333	-0.536548	0.303239
C110	C	1.238666	-0.203214	0.636573
C111	C	1.572000	0.130119	0.969906
C112	C	0.945435	-0.569394	0.263024
C113	C	1.278768	-0.236061	0.596357
C114	C	1.612102	0.097272	0.929690
C115	C	0.945464	-0.635137	0.263038
C116	C	1.278798	-0.301803	0.596371
C117	C	1.612131	0.031530	0.929704
C118	C	0.905381	-0.668030	0.303261
C119	C	1.238714	-0.334697	0.636594
C120	C	1.572047	-0.001364	0.969928
C121	C	0.865276	-0.635176	0.343485
C122	C	1.198609	-0.301842	0.676818
C123	C	1.531942	0.031491	1.010151
C124	C	0.865252	-0.569435	0.343474
C125	C	1.198585	-0.236101	0.676807
C126	C	1.531919	0.097232	1.010141
N127	N	0.850570	-0.771311	0.308054
N128	N	1.183903	-0.437977	0.641387
N129	N	1.517237	-0.104644	0.974721
N130	N	0.850594	-0.833762	0.308061
N131	N	1.183928	-0.500429	0.641394
N132	N	1.517261	-0.167095	0.974727
C133	C	0.905451	-0.866105	0.303297
C134	C	1.238784	-0.532772	0.636631
C135	C	1.572117	-0.199438	0.969964
N136	N	0.960283	-0.833637	0.298515
N137	N	1.293616	-0.500304	0.631848
N138	N	1.626950	-0.166970	0.965181
N139	N	0.960258	-0.771180	0.298505
N140	N	1.293591	-0.437847	0.631838
N141	N	1.626924	-0.104513	0.965171
C142	C	0.905402	-0.739316	0.303278
C143	C	1.238735	-0.405982	0.636611
C144	C	1.572069	-0.072649	0.969944
C145	C	0.945588	-0.970237	0.263095
C146	C	1.278921	-0.636904	0.596428
C147	C	1.612254	-0.303570	0.929761
C148	C	0.945618	-1.035981	0.263113
C149	C	1.278952	-0.702647	0.596447
C150	C	1.612285	-0.369314	0.929780
C151	C	0.865424	-1.036018	0.343557
C152	C	1.198758	-0.702685	0.676890
C153	C	1.532091	-0.369352	1.010224
C154	C	0.865399	-0.970276	0.343542
C155	C	1.198733	-0.636943	0.676875
C156	C	1.532066	-0.303609	1.010208
C157	C	0.905480	-0.937389	0.303307
C158	C	1.238814	-0.604056	0.636640
C159	C	1.572147	-0.270723	0.969974
C160	C	1.068816	-0.302998	0.303286
C161	C	1.402150	0.030336	0.636620
C162	C	1.735483	0.363669	0.969953
C163	C	1.138457	-0.302985	0.303294
C164	C	1.471791	0.030349	0.636627
C165	C	1.805124	0.363682	0.969961
C166	C	0.905422	-0.302994	0.467458
C167	C	1.238755	0.030339	0.800792
C168	C	1.572088	0.363672	1.134125
C169	C	0.905434	-0.302980	0.537427
C170	C	1.238767	0.030353	0.870760
C171	C	1.572101	0.363686	1.204093
C172	C	0.905492	-0.138838	0.303317
C173	C	1.238826	0.194496	0.636650
C174	C	1.572159	0.527829	0.969984
C175	C	0.905535	-0.068870	0.303338
C176	C	1.238868	0.264464	0.636671
C177	C	1.572202	0.597797	0.970004
C178	C	0.905400	-0.303016	0.139717
C179	C	1.238734	0.030317	0.473050
C180	C	1.572067	0.363651	0.806383
C181	C	0.905509	-0.302853	0.069749
C182	C	1.238843	0.030480	0.403082
C183	C	1.572176	0.363814	0.736416
C184	C	0.945553	-0.343104	1.036878
C185	C	1.278886	-0.009770	1.370211
C186	C	1.612220	0.323563	1.703545
C187	C	0.945542	-0.343124	0.971135
C188	C	1.278875	-0.009790	1.304469
C189	C	1.612208	0.323543	1.637802
C190	C	0.905493	-0.302882	0.938266
C191	C	1.238827	0.030451	1.271600
C192	C	1.572160	0.363785	1.604933
C193	C	0.865442	-0.262629	0.971145
C194	C	1.198775	0.070705	1.304479
C195	C	1.532109	0.404038	1.637812
C196	C	0.865450	-0.262614	1.036887
C197	C	1.198783	0.070719	1.370220
C198	C	1.532117	0.404053	1.703553
N199	N	0.900708	-0.247804	0.835061
N200	N	1.234041	0.085530	1.168394
N201	N	1.567374	0.418863	1.501728
N202	N	0.900704	-0.247819	0.772610
N203	N	1.234037	0.085514	1.105943
N204	N	1.567370	0.418847	1.439276
C205	C	0.905466	-0.302924	0.740191
C206	C	1.238799	0.030409	1.073525
C207	C	1.572132	0.363742	1.406858
N208	N	0.910244	-0.358014	0.772584
N209	N	1.243578	-0.024681	1.105917
N210	N	1.576911	0.308652	1.439251
N211	N	0.910252	-0.357998	0.835041
N212	N	1.243585	-0.024665	1.168375
N213	N	1.576918	0.308669	1.501708
C214	C	0.905480	-0.302894	0.866981
C215	C	1.238813	0.030440	1.200314
C216	C	1.572147	0.363773	1.533648
C217	C	0.945499	-0.343200	0.636035
C218	C	1.278833	-0.009867	0.969368
C219	C	1.612166	0.323466	1.302702
C220	C	0.945484	-0.343222	0.570291
C221	C	1.278817	-0.009888	0.903624
C222	C	1.612150	0.323445	1.236958
C223	C	0.865387	-0.262721	0.570302
C224	C	1.198720	0.070613	0.903636
C225	C	1.532054	0.403946	1.236969
C226	C	0.865400	-0.262705	0.636045
C227	C	1.198733	0.070628	0.969378
C228	C	1.532066	0.403962	1.302711
C229	C	0.905459	-0.302944	0.668907
C230	C	1.238792	0.030389	1.002240
C231	C	1.572126	0.363723	1.335574
H232	H	0.144636	-0.230044	0.376467
H233	H	0.477970	0.103289	0.709800
H234	H	0.811303	0.436622	1.043134
H235	H	0.465170	-0.200162	0.312476
H236	H	0.798503	0.133171	0.645809
H237	H	1.131837	0.466504	0.979142
Cl238	Cl	0.996042	-1.077274	0.212556
Cl239	Cl	1.329375	-0.743941	0.545889
Cl240	Cl	1.662708	-0.410607	0.879223
Cl241	Cl	0.814833	-0.528140	0.394035
Cl242	Cl	1.148167	-0.194806	0.727368
Cl243	Cl	1.481500	0.138527	1.060701
H244	H	0.548074	-0.376001	0.230091
H245	H	0.881408	-0.042667	0.563424
H246	H	1.214741	0.290666	0.896758
H247	H	0.548273	-0.230125	0.376441
H248	H	0.881606	0.103209	0.709774
H249	H	1.214940	0.436542	1.043108
H250	H	0.144438	-0.375928	0.230120
H251	H	0.477771	-0.042594	0.563453
H252	H	0.811104	0.290739	0.896787
H253	H	0.832777	-0.229957	0.543541
H254	H	1.166111	0.103377	0.876874
H255	H	1.499444	0.436710	1.210208
H256	H	0.978089	-0.376004	0.543529
H257	H	1.311422	-0.042671	0.876862
H258	H	1.644755	0.290662	1.210195
Cl259	Cl	0.681257	-0.393827	0.212207
Cl260	Cl	1.014590	-0.060494	0.545540
Cl261	Cl	1.347923	0.272840	0.878873
H262	H	0.832841	-0.229836	1.063650
H263	H	1.166174	0.103498	1.396983
H264	H	1.499508	0.436831	1.730316
Cl265	Cl	0.995857	-0.393786	0.677351
Cl266	Cl	1.329191	-0.060453	1.010684
Cl267	Cl	1.662524	0.272880	1.344017
H268	H	0.832742	-0.943531	0.376286
H269	H	1.166075	-0.610197	0.709620
H270	H	1.499409	-0.276864	1.042953
H271	H	0.346458	-0.200141	0.312481
H272	H	0.679791	0.133192	0.645815
H273	H	1.013125	0.466526	0.979148
Cl274	Cl	0.815047	-0.212110	0.677371
Cl275	Cl	1.148381	0.121223	1.010704
Cl276	Cl	1.481714	0.454557	1.344037
Cl277	Cl	0.331741	-0.431032	0.291851
Cl278	Cl	0.665074	-0.097699	0.625184
Cl279	Cl	0.998408	0.235634	0.958517
Cl280	Cl	0.681494	-0.212350	0.394302
Cl281	Cl	1.014827	0.120983	0.727636
Cl282	Cl	1.348161	0.454316	1.060969
H283	H	0.832640	-0.661962	0.376236
H284	H	1.165974	-0.328629	0.709569
H285	H	1.499307	0.004705	1.042903
Cl286	Cl	0.277859	-0.212270	0.394328
Cl287	Cl	0.611192	0.121064	0.727661
Cl288	Cl	0.944526	0.454397	1.060995
H289	H	0.464962	-0.405942	0.294078
H290	H	0.798295	-0.072609	0.627411
H291	H	1.131629	0.260725	0.960744
H292	H	0.263148	-0.375951	0.230110
H293	H	0.596482	-0.042617	0.563444
H294	H	0.929815	0.290716	0.896777
H295	H	0.978159	-0.375894	0.944367
H296	H	1.311493	-0.042560	1.277700
H297	H	1.644826	0.290773	1.611033
H298	H	0.978073	-0.542620	0.230264
H299	H	1.311406	-0.209286	0.563597
H300	H	1.644739	0.124047	0.896931
H301	H	0.978122	-0.661886	0.230289
H302	H	1.311456	-0.328552	0.563623
H303	H	1.644789	0.004781	0.896956
H304	H	0.978171	-0.375871	1.063630
H305	H	1.311504	-0.042538	1.396964
H306	H	1.644837	0.290795	1.730297
H307	H	0.832790	-1.062800	0.376310
H308	H	1.166123	-0.729466	0.709644
H309	H	1.499457	-0.396133	1.042977
H310	H	0.978226	-0.943459	0.230335
H311	H	1.311560	-0.610126	0.563669
H312	H	1.644893	-0.276793	0.897002
Cl313	Cl	0.815097	-0.212037	0.929825
Cl314	Cl	1.148430	0.121296	1.263159
Cl315	Cl	1.481764	0.454629	1.596492
