data_functionalizedCrystal
_audit_creation_method	'MofGen! by Chris Wilmer'
_symmetry_space_group_name_H-M	'P1'
_symmetry_Int_Tables_number	1
_symmetry_cell_setting	triclinic
loop_
_symmetry_equiv_pos_as_xyz
  x,y,z
_cell_length_a	14.044220
_cell_length_b	14.853567
_cell_length_c	12.503552
_cell_angle_alpha	93.525201
_cell_angle_beta	93.839943
_cell_angle_gamma	91.588096
loop_
_atom_site_label
_atom_site_type_symbol
_atom_site_fract_x
_atom_site_fract_y
_atom_site_fract_z
O1	O	0.118299	-1.210931	-0.089249
O2	O	0.133041	-0.949641	-0.089268
O3	O	-0.012319	-1.076364	-0.089248
O4	O	0.263659	-1.084209	-0.089269
O5	O	-0.001378	-1.066822	0.089393
O6	O	0.143983	-0.940099	0.089373
O7	O	0.129240	-1.201390	0.089392
Cu8	Cu	0.137611	-1.069873	0.105694
Cu9	Cu	0.124671	-1.081157	-0.105570
O10	O	0.274601	-1.074667	0.089372
C11	C	-0.042167	-1.068159	0.000073
C12	C	-0.147406	-1.057918	0.000073
C13	C	0.137844	-0.911229	0.000051
C14	C	0.135842	-0.810987	0.000044
C15	C	0.124438	-1.239802	0.000072
C16	C	0.126440	-1.340045	0.000071
C17	C	-0.340094	-1.039194	0.000057
C18	C	-0.397631	-1.111833	0.000059
C19	C	-0.504849	-1.101415	0.000049
C20	C	-0.232866	-1.049611	0.000066
C21	C	0.304449	-1.082872	0.000049
C22	C	0.409688	-1.093114	0.000042
N23	N	0.146711	-1.061943	0.254286
C24	C	0.041033	-0.390940	0.000075
C25	C	0.213725	-0.383342	0.000061
C26	C	0.215607	-0.477525	0.000057
C27	C	0.130201	-0.528420	0.000061
C28	C	0.042912	-0.485132	0.000068
C29	C	0.302894	-0.520820	0.000039
C30	C	0.304779	-0.615009	0.000035
C31	C	0.219372	-0.665905	0.000046
C32	C	0.132080	-0.622612	0.000054
C33	C	0.046674	-0.673507	0.000058
C34	C	-0.040619	-0.630214	0.000074
C35	C	-0.042494	-0.536028	0.000079
C36	C	0.221248	-0.760092	0.000040
C37	C	0.048553	-0.767699	0.000051
N38	N	0.115563	-1.089094	-0.254161
C39	C	0.102173	-1.100754	0.526725
C40	C	0.160098	-1.050286	0.473393
C41	C	0.152648	-1.056774	0.351470
C42	C	0.109622	-1.094267	0.648658
H43	H	-0.366372	-1.181849	-0.000009
H44	H	-0.371355	-0.969188	0.000049
H45	H	0.215286	-1.002206	0.519301
H46	H	-0.020996	-0.809131	0.000058
H47	H	-0.030038	-0.355687	0.000092
C48	C	-0.133238	-0.685633	0.000130
C49	C	-0.112899	-0.777380	0.000139
C50	C	-0.198191	-0.828461	0.000204
H51	H	-0.172911	-0.675191	-0.062143
H52	H	-0.165214	-0.668497	0.062457
H53	H	-0.080938	-0.794510	-0.062182
H54	H	-0.073240	-0.787850	0.062407
H55	H	-0.230167	-0.811325	0.062532
H56	H	-0.237858	-0.818012	-0.062069
H57	H	-0.184402	-0.890716	0.000221
C58	C	-0.137170	-0.488861	0.000034
C59	C	-0.120535	-0.395485	0.000005
C60	C	-0.207726	-0.352004	-0.000055
H61	H	-0.168601	-0.502427	0.062315
H62	H	-0.176165	-0.509131	-0.062285
H63	H	-0.081554	-0.375223	0.062318
H64	H	-0.089118	-0.381893	-0.062271
H65	H	-0.246721	-0.372273	-0.062374
H66	H	-0.239150	-0.365577	0.062227
H67	H	-0.196451	-0.288645	-0.000084
C68	C	0.306364	-0.327982	-0.000111
C69	C	0.304689	-0.278573	-0.092003
C70	C	0.390009	-0.227552	-0.092189
H71	H	0.358694	-0.367148	-0.000170
H72	H	0.313036	-0.287708	0.062153
H73	H	0.298028	-0.318843	-0.154252
H74	H	0.252377	-0.239391	-0.091964
H75	H	0.396681	-0.187277	-0.029924
H76	H	0.442333	-0.266724	-0.092245
H77	H	0.388881	-0.194016	-0.154531
C78	C	0.399487	-0.662125	0.000178
C79	C	0.411234	-0.711097	0.092064
C80	C	0.498459	-0.754526	0.092222
H81	H	0.450172	-0.618427	0.000226
H82	H	0.399993	-0.702080	-0.062091
H83	H	0.410737	-0.671145	0.154317
H84	H	0.360571	-0.754810	0.092035
H85	H	0.498965	-0.794481	0.029953
H86	H	0.549137	-0.710822	0.092267
H87	H	0.506437	-0.787765	0.154560
H88	H	0.046990	-1.148832	0.480822
C89	C	0.315969	-0.807157	-0.000198
C90	C	0.316468	-0.865894	-0.092120
C91	C	0.403719	-0.909256	-0.092380
H92	H	0.324200	-0.840491	0.062024
H93	H	0.366590	-0.763387	-0.000262
H94	H	0.265862	-0.909658	-0.092046
H95	H	0.308253	-0.832583	-0.154357
H96	H	0.454339	-0.865486	-0.092445
H97	H	0.411942	-0.942585	-0.030154
H98	H	0.404072	-0.949108	-0.154753
H99	H	0.372426	-0.479375	0.000025
