data_functionalizedCrystal
_audit_creation_method	'MofGen! by Chris Wilmer'
_symmetry_space_group_name_H-M	'P1'
_symmetry_Int_Tables_number	1
_symmetry_cell_setting	triclinic
loop_
_symmetry_equiv_pos_as_xyz
  x,y,z
_cell_length_a	10.654550
_cell_length_b	9.130313
_cell_length_c	10.654550
_cell_angle_alpha	89.997341
_cell_angle_beta	95.515084
_cell_angle_gamma	90.008279
loop_
_atom_site_label
_atom_site_type_symbol
_atom_site_fract_x
_atom_site_fract_y
_atom_site_fract_z
O1	O	1.667842	0.121919	-0.176395
O2	O	1.302364	0.121896	-0.193201
O3	O	1.493506	0.121899	-0.002059
O4	O	1.476700	0.121916	-0.367537
O5	O	1.493488	-0.121700	-0.002060
O6	O	1.302345	-0.121703	-0.193202
O7	O	1.667824	-0.121679	-0.176396
Cu8	Cu	1.485083	-0.143934	-0.184799
Cu9	Cu	1.485105	0.144150	-0.184798
O10	O	1.476681	-0.121682	-0.367538
C11	C	1.255556	0.000093	-0.191968
C12	C	1.116113	0.000084	-0.188276
N13	N	1.485077	-0.346556	-0.184800
C14	C	1.400428	-0.423247	-0.269400
C15	C	1.400452	-0.576584	-0.269397
C16	C	1.569779	-0.576525	-0.100184
C17	C	1.569759	-0.423191	-0.100193
C18	C	1.315745	-0.346612	-0.354006
C19	C	1.231088	-0.423303	-0.438612
C20	C	1.231112	-0.576640	-0.438610
C21	C	1.315794	-0.653286	-0.354001
C22	C	1.036628	0.000111	-0.300817
C23	C	0.905607	0.000136	-0.297341
C24	C	0.933570	0.000114	-0.068771
C25	C	1.064588	0.000078	-0.072249
C26	C	1.088152	0.000117	-0.416844
C27	C	1.008665	0.000145	-0.529395
C28	C	0.877645	0.000170	-0.525918
C29	C	0.826111	0.000167	-0.409891
C30	C	1.714631	0.000126	-0.177630
C31	C	1.854074	0.000145	-0.181321
C32	C	1.492263	0.000100	0.044739
C33	C	1.488571	0.000102	0.184182
N34	N	1.485120	0.346773	-0.184788
C35	C	1.477925	0.000120	-0.414336
C36	C	1.481617	0.000127	-0.553779
C37	C	1.601112	0.000110	0.263667
C38	C	1.597636	0.000128	0.394688
C39	C	1.369066	0.000124	0.366725
C40	C	1.372544	0.000117	0.235707
H41	H	1.315715	-0.221758	-0.354013
H42	H	1.638690	-0.360749	-0.031305
F43	F	1.659894	-0.658101	-0.010141
H44	H	1.194834	0.000103	-0.419688
H45	H	1.050633	0.000135	-0.623860
H46	H	0.812929	0.000179	-0.617562
H47	H	0.719424	0.000165	-0.407069
H48	H	0.891600	0.000136	0.025693
F49	F	1.149187	0.000048	0.047530
F50	F	1.140978	-0.341731	-0.528663
H51	H	1.280893	0.000115	0.170986
H52	H	1.695588	0.000102	0.221721
F53	F	1.717418	0.000139	0.479278
H54	H	1.162190	-0.639080	-0.507507
F55	F	1.315823	-0.816482	-0.354016
H56	H	1.274601	0.000132	0.408693
