data_functionalizedCrystal
_audit_creation_method	'MofGen! by Chris Wilmer'
_symmetry_space_group_name_H-M	'P1'
_symmetry_Int_Tables_number	1
_symmetry_cell_setting	triclinic
loop_
_symmetry_equiv_pos_as_xyz
  x,y,z
_cell_length_a	19.188930
_cell_length_b	16.992694
_cell_length_c	15.455313
_cell_angle_alpha	92.857794
_cell_angle_beta	92.650876
_cell_angle_gamma	93.093497
loop_
_atom_site_label
_atom_site_type_symbol
_atom_site_fract_x
_atom_site_fract_y
_atom_site_fract_z
O1	O	0.145160	-1.043326	-0.072038
O2	O	0.645160	-0.543326	0.427962
O3	O	0.143535	-0.815047	-0.072064
O4	O	0.643535	-0.315047	0.427936
O5	O	0.043078	-0.935773	-0.072033
O6	O	0.543078	-0.435773	0.427967
O7	O	0.245617	-0.922600	-0.072069
O8	O	0.745617	-0.422600	0.427931
O9	O	0.048798	-0.928870	0.072227
O10	O	0.548798	-0.428870	0.572227
O11	O	0.149255	-0.808144	0.072197
O12	O	0.649255	-0.308144	0.572197
O13	O	0.150879	-1.036422	0.072222
O14	O	0.650879	-0.536422	0.572222
Cu15	Cu	0.150589	-0.921653	0.085382
Cu16	Cu	0.650589	-0.421653	0.585382
Cu17	Cu	0.143825	-0.929817	-0.085223
Cu18	Cu	0.643825	-0.429817	0.414777
O19	O	0.251336	-0.915696	0.072192
O20	O	0.751336	-0.415696	0.572192
C21	C	0.144306	-0.782390	0.000064
C22	C	0.644306	-0.282390	0.500064
C23	C	0.138072	-0.695368	0.000055
C24	C	0.638072	-0.195368	0.500055
C25	C	0.019902	-0.931895	0.000099
C26	C	0.519902	-0.431895	0.500099
C27	C	-0.057677	-0.930614	0.000107
C28	C	0.442323	-0.430614	0.500107
N29	N	0.155346	-0.915916	0.205376
N30	N	0.655346	-0.415916	0.705376
C31	C	-0.098455	-1.001452	0.000119
C32	C	0.401545	-0.501452	0.500119
C33	C	-0.171350	-1.000250	0.000105
C34	C	0.328650	-0.500250	0.500105
C35	C	-0.203463	-0.928204	0.000096
C36	C	0.296537	-0.428204	0.500096
C37	C	-0.162676	-0.857356	0.000079
C38	C	0.337324	-0.357356	0.500079
C39	C	-0.089783	-0.858561	0.000085
C40	C	0.410217	-0.358561	0.500085
N41	N	-0.312744	-0.870784	0.049185
N42	N	0.187256	-0.370784	0.549185
N43	N	-0.381990	-0.869644	0.049181
N44	N	0.118010	-0.369644	0.549181
C45	C	-0.423085	-0.924569	0.000078
C46	C	0.076915	-0.424569	0.500078
N47	N	-0.392319	-0.980688	-0.049011
N48	N	0.107681	-0.480688	0.450989
N49	N	-0.323067	-0.981830	-0.049004
N50	N	0.176933	-0.481830	0.450996
C51	C	-0.282503	-0.926889	0.000090
C52	C	0.217497	-0.426889	0.500090
C53	C	-0.542904	-0.994108	0.000074
C54	C	-0.042904	-0.494108	0.500074
C55	C	-0.615801	-0.992903	0.000054
C56	C	-0.115801	-0.492903	0.500054
C57	C	-0.607124	-0.850007	0.000038
C58	C	-0.107124	-0.350007	0.500038
C59	C	-0.534230	-0.851215	0.000048
C60	C	-0.034230	-0.351215	0.500048
C61	C	-0.502124	-0.923267	0.000070
C62	C	-0.002124	-0.423267	0.500070
C63	C	0.274513	-0.919575	0.000057
C64	C	0.774513	-0.419575	0.500057
C65	C	0.352092	-0.920856	0.000044
C66	C	0.852092	-0.420856	0.500044
C67	C	0.150109	-1.069079	0.000093
C68	C	0.650109	-0.569079	0.500093
C69	C	0.156342	-1.156102	0.000096
C70	C	0.656342	-0.656102	0.500096
C71	C	0.198212	-0.644922	0.000045
C72	C	0.698212	-0.144922	0.500045
C73	C	0.192351	-0.563155	0.000058
C74	C	0.692351	-0.063155	0.500058
C75	C	0.126351	-0.531836	0.000075
C76	C	0.626351	-0.031836	0.500075
C77	C	0.066208	-0.582288	0.000087
C78	C	0.566208	-0.082288	0.500087
C79	C	0.072069	-0.664053	0.000080
C80	C	0.572069	-0.164053	0.500080
C81	C	0.102059	-0.288320	0.000102
C82	C	0.602059	0.211680	0.500102
C83	C	0.096203	-0.206548	0.000106
C84	C	0.596203	0.293452	0.500106
C85	C	0.222347	-0.187420	0.000079
C86	C	0.722347	0.312580	0.500079
C87	C	0.228202	-0.269188	0.000067
C88	C	0.728202	0.230812	0.500067
C89	C	0.168059	-0.319633	0.000084
C90	C	0.668059	0.180367	0.500084
N91	N	0.120360	-0.448257	0.000085
N92	N	0.620360	0.051743	0.500085
N93	N	0.174051	-0.403210	0.000079
N94	N	0.674051	0.096790	0.500079
N95	N	0.139063	-0.935560	-0.205217
N96	N	0.639063	-0.435560	0.294783
C97	C	0.112686	-0.967222	0.250783
C98	C	0.612686	-0.467222	0.750783
C99	C	0.116291	-0.962891	0.341590
C100	C	0.616291	-0.462891	0.841590
C101	C	0.162559	-0.907257	0.386988
C102	C	0.662559	-0.407257	0.886988
C103	C	0.205221	-0.855945	0.341574
C104	C	0.705221	-0.355945	0.841574
C105	C	0.201613	-0.860273	0.250769
C106	C	0.701613	-0.360273	0.750769
C107	C	0.178116	-0.888576	0.658564
C108	C	0.678116	-0.388576	1.158564
C109	C	0.181723	-0.884253	0.749376
C110	C	0.681723	-0.384253	1.249376
C111	C	0.092792	-0.991199	0.749385
C112	C	0.592792	-0.491199	1.249385
C113	C	0.089190	-0.995525	0.658578
C114	C	0.589190	-0.495525	1.158578
C115	C	0.131849	-0.944211	0.613173
C116	C	0.631849	-0.444211	1.113173
N117	N	0.166246	-0.902830	0.479807
N118	N	0.666246	-0.402830	0.979807
N119	N	0.128158	-0.948634	0.520355
N120	N	0.628158	-0.448634	1.020355
H121	H	-0.072320	-1.060123	0.000134
H122	H	0.427680	-0.560123	0.500134
H123	H	0.281946	-0.294682	0.000043
H124	H	0.781946	0.205318	0.500043
H125	H	-0.516763	-1.052778	0.000088
H126	H	-0.016763	-0.552778	0.500088
O127	O	0.074755	-1.012712	0.385597
O128	O	0.574755	-0.512712	0.885597
C129	C	0.004051	-1.001268	0.363446
C130	C	0.504051	-0.501268	0.863446
H131	H	-0.000187	-0.974186	0.297524
H132	H	0.499813	-0.474186	0.797524
H133	H	-0.027122	-1.060466	0.360333
H134	H	0.472878	-0.560466	0.860333
H135	H	-0.017712	-0.959897	0.414568
H136	H	0.482288	-0.459897	0.914568
H137	H	0.051515	-1.040827	0.621617
H138	H	0.551515	-0.540827	1.121617
H139	H	-0.649002	-1.050591	0.000059
H140	H	-0.149002	-0.550591	0.500059
H141	H	-0.204558	-1.057937	0.000111
H142	H	0.295442	-0.557937	0.500111
O143	O	-0.638420	-0.780088	0.000063
O144	O	-0.138420	-0.280088	0.500063
C145	C	-0.711504	-0.794214	0.000033
C146	C	-0.211504	-0.294214	0.500033
H147	H	-0.724110	-0.854141	0.027355
H148	H	-0.224110	-0.354141	0.527355
H149	H	-0.734785	-0.746120	0.041903
H150	H	-0.234785	-0.246120	0.541903
H151	H	-0.734714	-0.793801	-0.069179
H152	H	-0.234714	-0.293801	0.430821
O153	O	0.002042	-0.551996	0.000139
O154	O	0.502042	-0.051996	0.500139
C155	C	-0.049782	-0.614059	0.000124
C156	C	0.450218	-0.114059	0.500124
H157	H	-0.026032	-0.668235	0.027432
H158	H	0.473968	-0.168235	0.527432
H159	H	-0.093928	-0.595126	0.042012
H160	H	0.406072	-0.095126	0.542012
H161	H	-0.071294	-0.629002	-0.069083
H162	H	0.428706	-0.129002	0.430917
O163	O	-0.050143	-0.789773	-0.000076
O164	O	0.449857	-0.289773	0.499924
C165	C	-0.010654	-0.789781	-0.074773
C166	C	0.489346	-0.289781	0.425227
H167	H	-0.037143	-0.832461	-0.126991
H168	H	0.462857	-0.332461	0.373009
H169	H	-0.006979	-0.727806	-0.099861
H170	H	0.493021	-0.227806	0.400139
H171	H	0.044091	-0.809081	-0.057871
H172	H	0.544091	-0.309081	0.442129
O173	O	0.243125	-0.810400	0.206792
O174	O	0.743125	-0.310400	0.706792
C175	C	0.284726	-0.760355	0.266331
C176	C	0.784726	-0.260355	0.766331
H177	H	0.289898	-0.789407	0.331055
H178	H	0.789898	-0.289407	0.831055
H179	H	0.338757	-0.749450	0.240077
H180	H	0.838757	-0.249450	0.740077
H181	H	0.259163	-0.701740	0.276006
H182	H	0.759163	-0.201740	0.776006
H183	H	-0.501027	-0.793530	0.000043
H184	H	-0.001027	-0.293530	0.500043
H185	H	0.058060	-1.032976	0.786362
H186	H	0.558060	-0.532976	1.286362
O187	O	0.043666	-0.337343	0.000261
O188	O	0.543666	0.162657	0.500261
C189	C	0.046248	-0.381663	0.074960
C190	C	0.546248	0.118337	0.574960
H191	H	0.082341	-0.349103	0.127180
H192	H	0.582341	0.150897	0.627180
H193	H	-0.008475	-0.389855	0.100043
H194	H	0.491525	0.110145	0.600043
H195	H	0.066965	-0.441867	0.058061
H196	H	0.566965	0.058133	0.558061
H197	H	0.271312	-0.146339	0.000067
H198	H	0.771312	0.353661	0.500067
H199	H	0.042455	-0.181052	0.000119
H200	H	0.542455	0.318948	0.500119
H201	H	-0.188827	-0.798696	0.000070
H202	H	0.311173	-0.298696	0.500070
O203	O	0.226680	-0.830129	0.793343
O204	O	0.726680	-0.330129	1.293343
C205	C	0.263568	-0.785774	0.733796
C206	C	0.763568	-0.285774	1.233796
H207	H	0.232329	-0.788078	0.669074
H208	H	0.732329	-0.288078	1.169074
H209	H	0.271721	-0.721883	0.760042
H210	H	0.771721	-0.221883	1.260042
H211	H	0.316480	-0.811494	0.724122
H212	H	0.816480	-0.311494	1.224122
O213	O	0.013676	-0.713084	0.000239
O214	O	0.513676	-0.213084	0.500239
C215	C	0.016263	-0.757401	0.074940
C216	C	0.516263	-0.257401	0.574940
H217	H	0.052359	-0.724840	0.127155
H218	H	0.552359	-0.224840	0.627155
H219	H	-0.038459	-0.765593	0.100029
H220	H	0.461541	-0.265593	0.600029
H221	H	0.036979	-0.817606	0.058041
H222	H	0.536979	-0.317606	0.558041
H223	H	0.251956	-0.670415	0.000031
H224	H	0.751956	-0.170415	0.500031
H225	H	0.241323	-0.522084	0.000049
H226	H	0.741323	-0.022084	0.500049
O227	O	0.219596	-0.838851	0.614374
O228	O	0.719596	-0.338851	1.114374
C229	C	0.262952	-0.883188	0.561850
C230	C	0.762952	-0.383188	1.061850
H231	H	0.238056	-0.945271	0.548235
H232	H	0.738056	-0.445271	1.048235
H233	H	0.269628	-0.853469	0.498002
H234	H	0.769628	-0.353469	0.998002
H235	H	0.316229	-0.886679	0.596838
H236	H	0.816229	-0.386679	1.096838
H237	H	0.242891	-0.810642	0.378543
H238	H	0.742891	-0.310642	0.878543
O239	O	0.067674	-1.021147	0.206611
O240	O	0.567674	-0.521147	0.706611
C241	C	0.020148	-0.981788	0.154150
C242	C	0.520148	-0.481788	0.654150
H243	H	0.043982	-0.921015	0.140526
H244	H	0.543982	-0.421015	0.640526
H245	H	0.008365	-1.017589	0.090303
H246	H	0.508365	-0.517589	0.590303
H247	H	-0.030331	-0.974932	0.189198
H248	H	0.469669	-0.474932	0.689198
