data_functionalizedCrystal
_audit_creation_method	'MofGen! by Chris Wilmer'
_symmetry_space_group_name_H-M	'P1'
_symmetry_Int_Tables_number	1
_symmetry_cell_setting	triclinic
loop_
_symmetry_equiv_pos_as_xyz
  x,y,z
_cell_length_a	19.077105
_cell_length_b	16.120444
_cell_length_c	19.076919
_cell_angle_alpha	84.952692
_cell_angle_beta	89.923776
_cell_angle_gamma	90.739589
loop_
_atom_site_label
_atom_site_type_symbol
_atom_site_fract_x
_atom_site_fract_y
_atom_site_fract_z
Zn1	Zn	1.040330	-0.403263	0.456946
Zn2	Zn	1.540330	0.096737	0.956946
Zn3	Zn	1.039008	-0.537289	0.344933
Zn4	Zn	1.539008	-0.037289	0.844933
Zn5	Zn	0.928045	-0.392097	0.334282
Zn6	Zn	1.428045	0.107903	0.834282
Zn7	Zn	0.916852	-0.536786	0.457665
Zn8	Zn	1.416852	-0.036786	0.957665
O9	O	0.981059	-0.467359	0.398456
O10	O	1.481059	0.032641	0.898456
O11	O	1.138270	-0.425926	0.446244
O12	O	1.638270	0.074074	0.946244
O13	O	1.028419	-0.513566	0.245006
O14	O	1.528419	-0.013566	0.745006
O15	O	0.948178	-0.276935	0.345795
O16	O	1.448178	0.223065	0.845795
O17	O	1.137298	-0.524394	0.363948
O18	O	1.637298	-0.024394	0.863948
O19	O	1.030673	-0.285139	0.435916
O20	O	1.530673	0.214861	0.935916
O21	O	0.946895	-0.406894	0.237181
O22	O	1.446895	0.093106	0.737181
O23	O	0.828446	-0.406406	0.346492
O24	O	1.328446	0.093594	0.846492
O25	O	0.929101	-0.523537	0.556084
O26	O	1.429101	-0.023537	1.056084
O27	O	0.820222	-0.512709	0.437141
O28	O	1.320222	-0.012709	0.937141
O29	O	1.019820	-0.425438	0.555556
O30	O	1.519820	0.074562	1.055556
O31	O	1.017566	-0.653865	0.364645
O32	O	1.517566	-0.153865	0.864645
O33	O	0.927819	-0.653496	0.447469
O34	O	1.427819	-0.153496	0.947469
C35	C	0.798894	-0.458292	0.390739
C36	C	1.298894	0.041708	0.890739
C37	C	0.720961	-0.454434	0.387455
C38	C	1.220961	0.045566	0.887455
C39	C	0.680085	-0.508045	0.433041
C40	C	1.180085	-0.008045	0.933041
C41	C	0.606859	-0.504409	0.429958
C42	C	1.106859	-0.004409	0.929958
C43	C	0.574512	-0.447166	0.381286
C44	C	1.074512	0.052834	0.881286
C45	C	0.615394	-0.393550	0.335698
C46	C	1.115394	0.106450	0.835698
C47	C	0.688618	-0.397182	0.338785
C48	C	1.188618	0.102818	0.838785
C49	C	0.355972	-0.430356	0.367004
C50	C	0.855972	0.069644	0.867004
C51	C	0.282743	-0.426729	0.363920
C52	C	0.782743	0.073271	0.863920
C53	C	0.274213	-0.537589	0.458181
C54	C	0.774213	-0.037589	0.958181
C55	C	0.347439	-0.541219	0.461261
C56	C	0.847439	-0.041219	0.961261
C57	C	0.388315	-0.487600	0.415675
C58	C	0.888315	0.012400	0.915675
N59	N	0.499664	-0.443450	0.378132
N60	N	0.999664	0.056550	0.878132
N61	N	0.463162	-0.491312	0.418833
N62	N	0.963162	0.008688	0.918833
C63	C	0.971353	-0.683927	0.407307
C64	C	1.471353	-0.183927	0.907307
C65	C	0.967263	-0.776580	0.411119
C66	C	1.467263	-0.276580	0.911119
C67	C	1.002437	-0.987660	0.378838
C68	C	1.502437	-0.487660	0.878838
C69	C	0.959810	-0.946213	0.418087
C70	C	1.459810	-0.446213	0.918087
C71	C	0.963958	-0.851820	0.414209
C72	C	1.463958	-0.351820	0.914209
C73	C	0.998290	-1.082061	0.382716
C74	C	1.498290	-0.582061	0.882716
C75	C	1.163935	-0.476461	0.406204
C76	C	1.663935	0.023539	0.906204
C77	C	1.241866	-0.480340	0.409506
C78	C	1.741866	0.019660	0.909506
C79	C	0.973359	-0.475677	0.582077
C80	C	1.473359	0.024323	1.082077
C81	C	0.970078	-0.479222	0.660326
C82	C	1.470078	0.020778	1.160326
C83	C	0.990822	-0.249947	0.389588
C84	C	1.490822	0.250053	0.889588
C85	C	0.994982	-0.157299	0.385808
C86	C	1.494982	0.342701	0.885808
C87	C	0.988772	-0.459015	0.215549
C88	C	1.488772	0.040985	0.715549
C89	C	0.992199	-0.455242	0.137297
C90	C	1.492199	0.044758	0.637297
C91	C	1.015767	-0.429815	0.696813
C92	C	1.515767	0.070185	1.196813
C93	C	1.012676	-0.433142	0.770336
C94	C	1.512676	0.066858	1.270336
C95	C	0.963899	-0.485881	0.807369
C96	C	1.463899	0.014119	1.307369
C97	C	0.918205	-0.535290	0.770876
C98	C	1.418205	-0.035290	1.270876
C99	C	0.921294	-0.531958	0.697355
C100	C	1.421294	-0.031958	1.197355
C101	C	0.949594	-0.501319	1.027283
C102	C	1.449594	-0.001319	1.527283
C103	C	0.946510	-0.504649	1.100809
C104	C	1.446510	-0.004649	1.600809
C105	C	1.040980	-0.402499	1.100263
C106	C	1.540980	0.097501	1.600263
C107	C	1.044067	-0.399176	1.026741
C108	C	1.544067	0.100824	1.526741
C109	C	0.998371	-0.448581	0.990255
C110	C	1.498371	0.051419	1.490255
N111	N	0.960739	-0.489285	0.882521
N112	N	1.460739	0.010715	1.382521
N113	N	1.001528	-0.445172	0.915104
N114	N	1.501528	0.054828	1.415104
H115	H	0.256408	-0.380106	0.324289
H116	H	0.756408	0.119894	0.824289
H117	H	0.878487	-0.578228	0.801035
H118	H	1.378487	-0.078228	1.301035
H119	H	0.884082	-0.572182	0.667647
H120	H	1.384082	-0.072182	1.167647
C121	C	1.069419	-0.371797	0.656082
C122	C	1.569419	0.128203	1.156082
H123	H	1.096181	-0.342842	0.688345
H124	H	1.596181	0.157158	1.188345
H125	H	1.099744	-0.403897	0.629996
H126	H	1.599744	0.096103	1.129996
H127	H	1.045427	-0.332841	0.624785
H128	H	1.545427	0.167159	1.124785
H129	H	0.920200	-0.981622	0.454603
H130	H	1.420200	-0.481622	0.954603
C131	C	1.097717	-0.341158	0.986006
C132	C	1.597717	0.158842	1.486006
H133	H	1.093015	-0.346255	0.936994
H134	H	1.593015	0.153745	1.436994
H135	H	1.089464	-0.285189	0.995335
H136	H	1.589464	0.214811	1.495335
H137	H	1.143774	-0.356252	1.000550
H138	H	1.643774	0.143748	1.500550
H139	H	0.389245	-0.386701	0.329881
H140	H	0.889245	0.113299	0.829881
C141	C	1.055937	-0.939832	0.329506
C142	C	1.555937	-0.439832	0.829506
H143	H	1.051733	-0.881744	0.333335
H144	H	1.551733	-0.381744	0.833335
H145	H	1.101998	-0.956794	0.342404
H146	H	1.601998	-0.456794	0.842404
H147	H	1.047074	-0.951434	0.282336
H148	H	1.547074	-0.451434	0.782336
C149	C	0.899337	-0.555667	0.987154
C150	C	1.399337	-0.055667	1.487154
H151	H	0.908153	-0.546127	0.938063
H152	H	1.408153	-0.046127	1.438063
H153	H	0.906577	-0.612729	1.001923
H154	H	1.406577	-0.112729	1.501923
H155	H	0.852268	-0.541664	0.996709
H156	H	1.352268	-0.041664	1.496709
C157	C	0.579813	-0.330586	0.282158
C158	C	1.079813	0.169414	0.782158
H159	H	0.530349	-0.336107	0.286842
H160	H	1.030349	0.163893	0.786842
H161	H	0.593886	-0.275664	0.290753
H162	H	1.093886	0.224336	0.790753
H163	H	0.593248	-0.341158	0.235840
H164	H	1.093248	0.158842	0.735840
H165	H	1.049882	-0.392911	0.800041
H166	H	1.549882	0.107089	1.300041
H167	H	0.906788	-0.547597	1.130960
H168	H	1.406788	-0.047597	1.630960
C169	C	0.715661	-0.571012	0.486582
C170	C	1.215661	-0.071012	0.986582
H171	H	0.680826	-0.602414	0.513294
H172	H	1.180826	-0.102414	1.013294
H173	H	0.743728	-0.607477	0.462291
H174	H	1.243728	-0.107477	0.962291
H175	H	0.744368	-0.541985	0.517205
H176	H	1.244368	-0.041985	1.017205
C177	C	1.091236	-0.348152	1.140399
C178	C	1.591236	0.151848	1.640399
H179	H	1.082409	-0.357682	1.189490
H180	H	1.582409	0.142318	1.689490
H181	H	1.138303	-0.362146	1.130847
H182	H	1.638303	0.137854	1.630847
H183	H	1.083989	-0.291087	1.125629
H184	H	1.583989	0.208913	1.625629
C185	C	0.733582	-0.338209	0.288642
C186	C	1.233582	0.161791	0.788642
H187	H	0.703831	-0.303600	0.259209
H188	H	1.203831	0.196400	0.759209
H189	H	0.762644	-0.304581	0.315347
H190	H	1.262644	0.195419	0.815347
H191	H	0.762004	-0.370064	0.260425
H192	H	1.262004	0.129936	0.760425
H193	H	0.573580	-0.548066	0.467078
H194	H	1.073580	-0.048066	0.967078
H195	H	0.240925	-0.581241	0.495295
H196	H	0.740925	-0.081241	0.995295
C197	C	0.383017	-0.604181	0.514804
C198	C	0.883017	-0.104181	1.014804
H199	H	0.348184	-0.635585	0.541517
H200	H	0.848184	-0.135585	1.041517
H201	H	0.411084	-0.640645	0.490512
H202	H	0.911084	-0.140645	0.990512
H203	H	0.411724	-0.575153	0.545427
H204	H	0.911724	-0.075153	1.045427
