data_functionalizedCrystal
_audit_creation_method	'MofGen! by Chris Wilmer'
_symmetry_space_group_name_H-M	'P1'
_symmetry_Int_Tables_number	1
_symmetry_cell_setting	triclinic
loop_
_symmetry_equiv_pos_as_xyz
  x,y,z
_cell_length_a	14.044191
_cell_length_b	16.992695
_cell_length_c	15.455313
_cell_angle_alpha	92.847427
_cell_angle_beta	87.077556
_cell_angle_gamma	91.930000
loop_
_atom_site_label
_atom_site_type_symbol
_atom_site_fract_x
_atom_site_fract_y
_atom_site_fract_z
O1	O	1.276020	0.186916	-0.072090
O2	O	0.999531	0.180052	-0.072101
O3	O	1.136667	0.069264	-0.072089
O4	O	1.138884	0.297704	-0.072102
O5	O	1.128822	0.075571	0.072173
O6	O	0.991687	0.186359	0.072161
O7	O	1.268176	0.193223	0.072171
Cu8	Cu	1.129215	0.190367	0.085338
Cu9	Cu	1.138492	0.182908	-0.085268
O10	O	1.131040	0.304011	0.072159
C11	C	1.129893	0.043005	0.000042
C12	C	1.121384	-0.044634	0.000041
C13	C	0.960067	0.180203	0.000028
C14	C	0.854163	0.171246	0.000024
C15	C	1.203481	-0.089131	0.000045
C16	C	1.195481	-0.171477	0.000037
C17	C	1.105383	-0.209326	0.000030
C18	C	1.023280	-0.164823	0.000024
C19	C	1.031281	-0.082478	0.000026
C20	C	1.072221	-0.455244	0.000017
C21	C	1.064226	-0.537595	0.000017
C22	C	1.236428	-0.544243	0.000029
C23	C	1.244421	-0.461896	0.000037
C24	C	1.162318	-0.417401	0.000025
N25	N	1.097203	-0.293497	0.000024
N26	N	1.170499	-0.333232	0.000025
C27	C	0.607447	0.218393	0.000030
C28	C	0.660265	0.154885	0.000033
C29	C	0.768160	0.163991	0.000028
C30	C	0.499543	0.209288	0.000035
C31	C	1.307640	0.193072	0.000040
C32	C	1.413544	0.202028	0.000038
C33	C	1.137814	0.330269	0.000027
C34	C	1.146323	0.417908	0.000022
N35	N	1.122697	0.195613	0.205333
N36	N	1.145016	0.177656	-0.205263
C37	C	1.180980	0.148566	0.250733
C38	C	1.176060	0.152542	0.341540
C39	C	1.112862	0.203568	0.386946
C40	C	1.054572	0.250616	0.341541
C41	C	1.059488	0.246636	0.250735
C42	C	1.091643	0.220725	0.658526
C43	C	1.086733	0.224703	0.749338
C44	C	1.208221	0.126627	0.749331
C45	C	1.213135	0.122655	0.658524
C46	C	1.154842	0.169700	0.613126
N47	N	1.107833	0.207634	0.479766
N48	N	1.159866	0.165629	0.520308
H49	H	1.276848	-0.058320	0.000056
F50	F	0.654254	0.298392	0.000018
F51	F	1.340316	-0.421622	0.000022
H52	H	1.264596	0.081106	0.621555
F53	F	1.248250	0.094261	0.202416
F54	F	1.282860	-0.218830	0.000043
F55	F	1.029606	0.270795	0.610217
H56	H	1.223518	0.114232	0.378504
H57	H	1.303271	-0.580480	0.000037
F58	F	0.927391	-0.205107	0.000007
F59	F	0.987305	0.304918	0.389866
F60	F	0.997451	0.296707	0.202419
F61	F	0.968327	-0.577874	0.000015
H62	H	1.005367	-0.419026	0.000008
H63	H	0.624457	0.093673	-0.000025
F64	F	1.270254	0.076560	0.797652
H65	H	0.964429	-0.046250	0.000022
H66	H	1.035267	0.266257	0.786304
