data_functionalizedCrystal
_audit_creation_method	'MofGen! by Chris Wilmer'
_symmetry_space_group_name_H-M	'P1'
_symmetry_Int_Tables_number	1
_symmetry_cell_setting	triclinic
loop_
_symmetry_equiv_pos_as_xyz
  x,y,z
_cell_length_a	19.288859
_cell_length_b	19.288865
_cell_length_c	11.892113
_cell_angle_alpha	94.384913
_cell_angle_beta	85.619337
_cell_angle_gamma	96.865014
loop_
_atom_site_label
_atom_site_type_symbol
_atom_site_fract_x
_atom_site_fract_y
_atom_site_fract_z
O1	O	0.925302	-0.090578	-0.094040
O2	O	0.723041	-0.102271	-0.094039
O3	O	0.830015	0.004707	-0.094017
O4	O	0.818328	-0.197556	-0.094062
O5	O	0.822107	0.012608	0.093992
O6	O	0.715133	-0.094370	0.093970
O7	O	0.917394	-0.082676	0.093970
Zn8	Zn	0.815008	-0.087269	0.123821
Zn9	Zn	0.825427	-0.097679	-0.123890
O10	O	0.810420	-0.189654	0.093948
C11	C	0.693210	-0.097945	-0.000034
C12	C	0.616106	-0.096817	-0.000032
C13	C	0.052066	-0.151961	-0.000046
C14	C	0.124513	-0.153027	-0.000052
C15	C	0.169219	-0.090257	-0.000036
C16	C	0.141474	-0.026418	-0.000043
C17	C	0.069029	-0.025355	-0.000048
C18	C	0.287718	-0.040675	0.065846
C19	C	0.360161	-0.041741	0.065858
C20	C	0.392664	-0.093534	-0.000026
C21	C	0.352713	-0.144273	-0.065907
C22	C	0.280268	-0.143209	-0.065912
C23	C	0.247774	-0.091403	-0.000032
C24	C	0.498956	-0.158525	-0.000033
C25	C	0.571405	-0.159588	-0.000047
C26	C	0.588365	-0.032977	-0.000026
C27	C	0.515918	-0.031916	-0.000024
C28	C	0.471217	-0.094692	-0.000023
C29	C	0.825684	0.034534	-0.000009
C30	C	0.824555	0.111638	0.000001
C31	C	0.947224	-0.087003	-0.000038
C32	C	1.024329	-0.088130	-0.000047
N33	N	0.807902	-0.080163	0.292876
C34	C	0.814750	-0.219482	-0.000063
C35	C	0.815880	-0.296586	-0.000080
C36	C	0.887323	0.156336	0.000006
C37	C	0.886263	0.228782	-0.000012
C38	C	0.822431	0.256529	-0.000012
C39	C	0.759655	0.211821	-0.000024
C40	C	0.760717	0.139375	-0.000017
C41	C	0.769481	0.367583	0.065844
C42	C	0.768421	0.440027	0.065844
C43	C	0.819152	0.479973	-0.000037
C44	C	0.870954	0.447468	-0.065905
C45	C	0.872016	0.375023	-0.065898
C46	C	0.821272	0.335082	-0.000020
C47	C	0.880775	0.603226	-0.000053
C48	C	0.879713	0.675673	-0.000078
C49	C	0.753102	0.658710	-0.000079
C50	C	0.754167	0.586264	-0.000065
C51	C	0.818005	0.558527	-0.000047
N52	N	0.832538	-0.104779	-0.292945
C53	C	0.881976	-0.154255	0.529507
C54	C	0.877014	-0.149282	0.647850
C55	C	0.793022	-0.065243	0.647907
C56	C	0.797983	-0.070215	0.529564
C57	C	0.842461	-0.114723	0.470369
C58	C	0.847418	-0.119699	0.352023
C59	C	0.763430	-0.035656	0.352083
C60	C	0.758469	-0.030684	0.470426
H61	H	0.493334	0.020063	-0.000018
H62	H	0.756818	-0.028999	0.696125
O63	O	0.690806	0.241742	-0.000024
H64	H	0.657430	0.226992	0.076600
O65	O	0.949625	0.573299	-0.000056
H66	H	0.993096	0.616555	-0.000077
H67	H	0.909192	-0.181472	0.695997
O68	O	0.710494	0.017316	0.534273
H69	H	0.713678	0.014130	0.626500
O70	O	0.039105	0.043495	-0.000030
H71	H	0.082359	0.086966	-0.000012
O72	O	0.450734	-0.226227	-0.000042
H73	H	0.463788	-0.260006	-0.076682
H74	H	0.918184	-0.190502	0.481309
O75	O	0.720814	0.006995	0.288301
H76	H	0.731739	-0.003933	0.196063
H77	H	0.015675	-0.203079	-0.000050
H78	H	0.147101	-0.205007	-0.000041
H79	H	0.703054	0.549870	-0.000063
H80	H	0.912264	0.479991	-0.119552
O81	O	0.636576	0.034727	-0.000000
H82	H	0.629968	0.062063	-0.076628
O83	O	0.237178	-0.197932	-0.136961
H84	H	0.255836	-0.194765	-0.227253
O85	O	0.387757	-0.200138	-0.136985
H86	H	0.444846	-0.192349	-0.125930
H87	H	0.930828	0.712066	-0.000080
H88	H	0.939305	0.133758	0.000017
O89	O	0.712554	0.475086	0.136885
H90	H	0.677448	0.435138	0.182681
O91	O	0.403249	0.012974	0.136924
H92	H	0.368480	0.049174	0.182724
O93	O	0.714764	0.324499	0.136912
H94	H	0.678574	0.359273	0.182726
O95	O	0.953964	0.277007	0.000009
H96	H	0.998531	0.245549	0.000032
H97	H	0.593987	-0.211569	-0.000056
O98	O	0.927874	0.339958	-0.136952
H99	H	0.962970	0.379899	-0.182777
H100	H	0.261261	0.001505	0.119499
O101	O	0.684251	0.688624	-0.000074
H102	H	0.694056	0.746510	-0.000070
O103	O	0.693010	0.091165	-0.000007
H104	H	0.693684	0.054524	-0.076634
O105	O	0.189686	0.041287	-0.000014
H106	H	0.244722	0.029825	0.000005
O107	O	0.895389	-0.167700	0.288168
H108	H	0.922037	-0.194347	0.349179
