data_functionalizedCrystal
_audit_creation_method	'MofGen! by Chris Wilmer'
_symmetry_space_group_name_H-M	'P1'
_symmetry_Int_Tables_number	1
_symmetry_cell_setting	triclinic
loop_
_symmetry_equiv_pos_as_xyz
  x,y,z
_cell_length_a	10.489746
_cell_length_b	19.288865
_cell_length_c	18.366186
_cell_angle_alpha	90.011479
_cell_angle_beta	89.993894
_cell_angle_gamma	96.161226
loop_
_atom_site_label
_atom_site_type_symbol
_atom_site_fract_x
_atom_site_fract_y
_atom_site_fract_z
O1	O	1.691842	-0.098011	-0.060510
O2	O	2.191842	0.401989	0.439490
O3	O	1.320439	-0.107205	-0.060523
O4	O	1.820439	0.392795	0.439477
O5	O	1.516872	-0.001550	-0.060502
O6	O	2.016872	0.498450	0.439498
O7	O	1.495408	-0.203667	-0.060531
O8	O	1.995408	0.296333	0.439469
O9	O	1.516839	-0.001545	0.060597
O10	O	2.016839	0.498455	0.560597
O11	O	1.320406	-0.107200	0.060576
O12	O	1.820406	0.392800	0.560576
O13	O	1.691808	-0.098006	0.060589
O14	O	2.191808	0.401994	0.560589
Zn15	Zn	1.506102	-0.102602	0.079810
Zn16	Zn	2.006102	0.397398	0.579810
Zn17	Zn	1.506145	-0.102609	-0.079744
Zn18	Zn	2.006145	0.397391	0.420256
O19	O	1.495375	-0.203661	0.060568
O20	O	1.995375	0.296339	0.560568
C21	C	1.272906	-0.106508	0.000025
C22	C	1.772906	0.393492	0.500025
C23	C	1.131324	-0.104428	0.000021
C24	C	1.631324	0.395572	0.500021
C25	C	0.980015	-0.035971	0.000041
C26	C	1.480015	0.464029	0.500041
C27	C	1.056618	-0.070194	0.059742
C28	C	1.556618	0.429806	0.559742
C29	C	1.056606	-0.070215	-0.059652
C30	C	1.556606	0.429785	0.440348
C31	C	0.955661	-0.134980	0.059790
C32	C	1.455661	0.365020	0.559790
C33	C	0.955644	-0.134991	-0.059659
C34	C	1.455644	0.365009	0.440341
C35	C	1.032197	-0.169262	0.000057
C36	C	1.532197	0.330738	0.500057
C37	C	1.516165	0.024334	0.000050
C38	C	2.016165	0.524334	0.500050
C39	C	1.514092	0.101451	0.000056
C40	C	2.014092	0.601451	0.500056
C41	C	1.739341	-0.098704	0.000039
C42	C	2.239341	0.401296	0.500039
C43	C	1.880923	-0.100783	0.000039
C44	C	2.380923	0.399217	0.500039
C45	C	1.496082	-0.229545	0.000014
C46	C	1.996082	0.270455	0.500014
C47	C	1.498156	-0.306662	0.000003
C48	C	1.998156	0.193338	0.500003
N49	N	1.506081	-0.102597	0.188701
N50	N	2.006081	0.397403	0.688701
C51	C	1.629350	0.145373	0.000064
C52	C	2.129350	0.645373	0.500064
C53	C	1.627402	0.217834	0.000052
C54	C	2.127402	0.717834	0.500052
C55	C	1.510190	0.246368	0.000048
C56	C	2.010190	0.746368	0.500048
C57	C	1.394916	0.202436	0.000036
C58	C	1.894916	0.702436	0.500036
C59	C	1.396867	0.129978	0.000040
C60	C	1.896867	0.629978	0.500040
C61	C	1.418035	0.355277	0.042463
C62	C	1.918035	0.855277	0.542463
C63	C	1.416089	0.427734	0.042463
C64	C	1.916089	0.927734	0.542463
C65	C	1.504167	0.469854	0.000031
C66	C	2.004167	0.969854	0.500031
C67	C	1.594213	0.439510	-0.042392
C68	C	2.094213	0.939510	0.457608
C69	C	1.596164	0.367051	-0.042387
C70	C	2.096164	0.867051	0.457613
C71	C	1.508061	0.324937	0.000043
C72	C	2.008061	0.824937	0.500043
C73	C	1.617322	0.592347	0.000025
C74	C	2.117322	1.092347	0.500025
C75	C	1.615369	0.664808	0.000009
C76	C	2.115369	1.164808	0.500009
C77	C	1.382880	0.649409	0.000000
C78	C	1.882880	1.149409	0.500000
C79	C	1.384836	0.576950	0.000009
C80	C	1.884836	1.076950	0.500009
C81	C	1.502060	0.548423	0.000025
C82	C	2.002060	1.048423	0.500025
N83	N	1.506176	-0.102609	-0.188635
N84	N	2.006176	0.397391	0.311365
C85	C	1.593090	-0.055836	0.226811
C86	C	2.093090	0.444164	0.726811
C87	C	1.593098	-0.055833	0.303039
C88	C	2.093098	0.444167	0.803039
C89	C	1.506109	-0.102603	0.341154
C90	C	2.006109	0.397397	0.841154
C91	C	1.419084	-0.149367	0.303035
C92	C	1.919084	0.350633	0.803035
C93	C	1.419070	-0.149364	0.226808
C94	C	1.919070	0.350636	0.726808
C95	C	1.489035	-0.165776	0.461904
C96	C	1.989035	0.334224	0.961904
C97	C	1.489058	-0.165780	0.538129
C98	C	1.989058	0.334220	1.038129
C99	C	1.506146	-0.102612	0.576261
C100	C	2.006146	0.397388	1.076261
C101	C	1.523237	-0.039437	0.538159
C102	C	2.023237	0.460563	1.038159
C103	C	1.523223	-0.039434	0.461932
C104	C	2.023223	0.460566	0.961932
C105	C	1.506114	-0.102611	0.423808
C106	C	2.006114	0.397389	0.923808
C107	C	1.593168	-0.055843	0.697026
C108	C	2.093168	0.444157	1.197026
C109	C	1.593167	-0.055839	0.773255
C110	C	2.093167	0.444161	1.273255
C111	C	1.419159	-0.149380	0.773250
C112	C	1.919159	0.350620	1.273250
C113	C	1.419154	-0.149378	0.697022
C114	C	1.919154	0.350622	1.197022
C115	C	1.506165	-0.102610	0.658915
C116	C	2.006165	0.397390	1.158915
H117	H	1.724803	0.122152	0.000074
H118	H	2.224803	0.622152	0.500074
H119	H	1.100699	-0.042831	0.110225
H120	H	1.600699	0.457169	0.610225
H121	H	1.712772	0.569119	0.000035
H122	H	2.212772	1.069119	0.500035
H123	H	1.721262	0.253602	0.000056
H124	H	2.221262	0.753602	0.500056
H125	H	0.911539	-0.162330	-0.110143
H126	H	1.411539	0.337670	0.389857
H127	H	1.665935	0.473803	-0.076944
H128	H	2.165935	0.973803	0.423056
H129	H	1.664014	-0.017760	0.665998
H130	H	2.164014	0.482240	1.165998
H131	H	1.100682	-0.042845	-0.110127
H132	H	1.600682	0.457155	0.389873
H133	H	0.956568	0.020386	0.000109
H134	H	1.456568	0.520386	0.500109
H135	H	1.475099	-0.217218	0.430864
H136	H	1.975099	0.282782	0.930864
H137	H	1.664017	-0.017757	0.804285
H138	H	2.164017	0.482243	1.304285
H139	H	1.663936	-0.017754	0.195786
H140	H	2.163936	0.482246	0.695786
H141	H	1.348254	-0.187447	0.334072
H142	H	1.848254	0.312553	0.834072
H143	H	1.669480	0.342348	-0.076931
H144	H	2.169480	0.842348	0.423069
H145	H	1.709230	0.700569	0.000011
H146	H	2.209230	1.200569	0.500011
H147	H	1.342763	0.452434	0.077002
H148	H	1.842763	0.952434	0.577002
H149	H	1.287444	0.672641	-0.000007
H150	H	1.787444	1.172641	0.499993
H151	H	1.346308	0.320987	0.077020
H152	H	1.846308	0.820987	0.577020
H153	H	1.299481	0.225674	0.000031
H154	H	1.799481	0.725674	0.500031
H155	H	1.348308	-0.187458	0.665991
H156	H	1.848308	0.312542	1.165991
H157	H	1.290980	0.541187	0.000007
H158	H	1.790980	1.041187	0.500007
H159	H	1.303007	0.094216	0.000034
H160	H	1.803007	0.594216	0.500034
H161	H	1.348215	-0.187443	0.195779
H162	H	1.848215	0.312557	0.695779
H163	H	0.911750	-0.162319	0.110321
H164	H	1.411750	0.337681	0.610321
H165	H	1.348327	-0.187458	0.804283
H166	H	1.848327	0.312542	1.304283
H167	H	1.475150	-0.217220	0.569147
H168	H	1.975150	0.282780	1.069147
H169	H	1.663953	-0.017753	0.334073
H170	H	2.163953	0.482247	0.834073
H171	H	1.537135	0.012005	0.430912
H172	H	2.037135	0.512005	0.930912
H173	H	1.537150	0.012001	0.569204
H174	H	2.037150	0.512001	1.069204
H175	H	1.055398	-0.225661	0.000082
H176	H	1.555398	0.274339	0.500082
