data_functionalizedCrystal
_audit_creation_method	'MofGen! by Chris Wilmer'
_symmetry_space_group_name_H-M	'P1'
_symmetry_Int_Tables_number	1
_symmetry_cell_setting	triclinic
loop_
_symmetry_equiv_pos_as_xyz
  x,y,z
_cell_length_a	29.839131
_cell_length_b	21.395364
_cell_length_c	21.395356
_cell_angle_alpha	90.024640
_cell_angle_beta	89.970658
_cell_angle_gamma	89.961079
loop_
_atom_site_label
_atom_site_type_symbol
_atom_site_fract_x
_atom_site_fract_y
_atom_site_fract_z
Zn1	Zn	-0.178895	-0.957806	-0.354272
Zn2	Zn	-0.254022	-0.957691	-0.249491
Zn3	Zn	-0.178903	-0.853023	-0.249506
Zn4	Zn	-0.253995	-0.852971	-0.354229
O5	O	-0.216454	-0.905373	-0.301875
O6	O	-0.188868	-1.045469	-0.340384
O7	O	-0.244072	-0.943780	-0.161815
O8	O	-0.116035	-0.866993	-0.263428
O9	O	-0.244064	-1.045384	-0.263402
O10	O	-0.116029	-0.943977	-0.340398
O11	O	-0.188883	-0.866881	-0.161827
O12	O	-0.188857	-0.765338	-0.263387
O13	O	-0.244018	-0.866904	-0.441913
O14	O	-0.244026	-0.765300	-0.340326
O15	O	-0.188842	-0.943926	-0.441944
O16	O	-0.316886	-0.943730	-0.263361
O17	O	-0.316866	-0.866792	-0.340312
C18	C	-0.216440	-0.742585	-0.301854
C19	C	-0.216445	-0.672944	-0.301860
C20	C	-0.245226	-0.171144	-0.341887
C21	C	-0.245226	-0.236580	-0.341882
C22	C	-0.216457	-0.269306	-0.301885
C23	C	-0.187693	-0.236591	-0.261879
C24	C	-0.187696	-0.171157	-0.261882
C25	C	-0.175972	-0.373005	-0.297037
C26	C	-0.175968	-0.438438	-0.297039
C27	C	-0.216447	-0.471127	-0.301874
C28	C	-0.256932	-0.438374	-0.306721
C29	C	-0.256935	-0.372940	-0.306723
C30	C	-0.216450	-0.340258	-0.301878
C31	C	-0.245213	-0.574786	-0.341868
C32	C	-0.245214	-0.640223	-0.341858
C33	C	-0.187677	-0.640233	-0.261859
C34	C	-0.187679	-0.574797	-0.261866
C35	C	-0.216447	-0.542078	-0.301874
C36	C	-0.333176	-0.905260	-0.301844
C37	C	-0.383111	-0.905269	-0.301851
C38	C	-0.692752	-0.945507	-0.261865
C39	C	-0.880425	-0.945584	-0.261889
O40	O	-0.904688	-0.979707	-0.227868
N41	N	-0.903896	-0.905503	-0.301922
C42	C	-0.880446	-0.865402	-0.341954
O43	O	-0.904715	-0.831317	-0.376010
C44	C	-0.692774	-0.865328	-0.341933
C45	C	-0.669305	-0.905408	-0.301893
C46	C	-0.669283	-0.985584	-0.221829
C47	C	-0.622368	-0.985562	-0.221821
C48	C	-0.598921	-0.945463	-0.261849
C49	C	-0.622390	-0.905386	-0.301885
C50	C	-0.669324	-0.825231	-0.381968
C51	C	-0.622403	-0.825217	-0.381960
C52	C	-0.598935	-0.865297	-0.341920
C53	C	-0.552027	-0.865265	-0.341905
N54	N	-0.528556	-0.905346	-0.301872
C55	C	-0.552003	-0.945445	-0.261844
C56	C	-0.978976	-0.865443	-0.341962
C57	C	-1.025894	-0.865460	-0.341967
C58	C	-1.025870	-0.945644	-0.261902
C59	C	-0.978951	-0.945622	-0.261895
C60	C	-0.955505	-0.905524	-0.301929
C61	C	-0.453477	-0.945395	-0.261830
C62	C	-0.406558	-0.945368	-0.261823
C63	C	-0.406586	-0.865187	-0.341890
C64	C	-0.453501	-0.865212	-0.341894
C65	C	-0.476946	-0.905321	-0.301862
O66	O	-0.527735	-0.831165	-0.375913
O67	O	-0.527725	-0.979535	-0.227804
C68	C	-0.739667	-0.945529	-0.261873
C69	C	-0.763136	-0.905452	-0.301909
C70	C	-0.739689	-0.865353	-0.341937
C71	C	-0.810054	-0.905470	-0.301914
C72	C	-0.833501	-0.945569	-0.261886
C73	C	-0.810030	-0.985650	-0.221853
C74	C	-0.763114	-0.985628	-0.221845
C75	C	-0.763160	-0.825272	-0.381970
C76	C	-0.810075	-0.825297	-0.381974
C77	C	-0.833522	-0.865396	-0.341946
C78	C	-0.099275	-0.905504	-0.301920
C79	C	-0.049341	-0.905559	-0.301939
C80	C	-0.216426	-0.905422	-0.465298
C81	C	-0.216414	-0.905443	-0.534939
C82	C	-0.216465	-0.068796	-0.301892
C83	C	-0.216463	-0.138437	-0.301889
C84	C	-0.187674	-0.865413	-0.567648
C85	C	-0.187666	-0.865411	-0.633084
C86	C	-0.216393	-0.905450	-0.665808
C87	C	-0.245139	-0.945484	-0.633091
C88	C	-0.245149	-0.945480	-0.567656
C89	C	-0.219927	-0.961901	-0.769495
C90	C	-0.219913	-0.961906	-0.834928
C91	C	-0.216362	-0.905461	-0.867629
C92	C	-0.212817	-0.849009	-0.834888
C93	C	-0.212827	-0.849006	-0.769454
C94	C	-0.216385	-0.905458	-0.736760
C95	C	-0.187612	-0.865424	-0.971290
C96	C	-0.187606	-0.865421	-1.036727
C97	C	-0.245077	-0.945500	-1.036732
C98	C	-0.245085	-0.945497	-0.971297
C99	C	-0.216349	-0.905460	-0.938580
C100	C	-0.216449	-0.905360	-0.139087
C101	C	-0.216334	-0.905460	-0.069446
H102	H	-0.164256	-0.548167	-0.229297
H103	H	-0.387451	-0.978005	-0.229216
H104	H	-0.143002	-0.465100	-0.293100
H105	H	-0.268529	-0.978084	-0.659739
H106	H	-0.164214	-0.832823	-0.944651
C107	C	-0.695067	-1.029697	-0.177788
N108	N	-0.714485	-1.062921	-0.144609
C109	C	-0.479259	-0.989514	-0.217789
N110	N	-0.498678	-1.022740	-0.184613
C111	C	-0.155987	-0.821384	-1.072707
N112	N	-0.132169	-0.788216	-1.099807
C113	C	-0.156044	-0.272591	-0.217887
N114	N	-0.132205	-0.299706	-0.184750
C115	C	-0.596558	-1.029648	-0.177769
N116	N	-0.577122	-1.062855	-0.144584
H117	H	-0.268639	-0.666852	-0.374427
H118	H	-0.222798	-1.007872	-0.861580
C119	C	-1.051670	-0.989756	-0.217875
N120	N	-1.071105	-1.022984	-0.184719
C121	C	-0.953140	-0.989715	-0.217851
N122	N	-0.933702	-1.022928	-0.184675
C123	C	-0.953192	-0.821345	-0.386022
N124	N	-0.933773	-0.788135	-0.419214
C125	C	-0.223835	-1.023999	-0.733531
N126	N	-0.226779	-1.070770	-0.706443
H127	H	-0.268553	-0.978081	-0.541025
C128	C	-0.835830	-1.029759	-0.177822
N129	N	-0.855265	-1.062982	-0.144661
C130	C	-0.131438	-0.337055	-0.291718
N131	N	-0.097896	-0.309978	-0.287711
H132	H	-0.289894	-0.464987	-0.310662
H133	H	-0.268652	-0.144508	-0.374462
H134	H	-0.268466	-0.978102	-1.063376
C135	C	-0.596616	-0.781105	-0.426002
N136	N	-0.577193	-0.747879	-0.459174
C137	C	-0.301468	-0.336914	-0.312042
N138	N	-0.335011	-0.309780	-0.316043
C139	C	-0.276865	-0.272565	-0.385888
N140	N	-0.300694	-0.299667	-0.419036
H141	H	-0.164273	-0.144527	-0.229310
H142	H	-0.268637	-0.548144	-0.374444
C143	C	-0.156068	-0.821366	-0.531663
N144	N	-0.132263	-0.788188	-0.504558
H145	H	-0.209922	-0.803046	-0.861512
C146	C	-0.479317	-0.821120	-0.385937
N147	N	-0.498759	-0.787914	-0.419116
C148	C	-0.156031	-0.676227	-0.217860
N149	N	-0.132196	-0.703342	-0.184718
H150	H	-0.688424	-0.792591	-0.414569
C151	C	-0.156046	-0.821375	-0.669071
N152	N	-0.132229	-0.788208	-0.696175
C153	C	-1.051704	-0.821363	-0.386007
N154	N	-1.071143	-0.788151	-0.419183
C155	C	-0.380785	-0.821083	-0.385921
N156	N	-0.361351	-0.787867	-0.419089
H157	H	-0.744009	-1.018265	-0.189241
C158	C	-0.835886	-0.781202	-0.426023
N159	N	-0.855324	-0.747994	-0.459204
C160	C	-0.737375	-0.781174	-0.426023
N161	N	-0.717955	-0.747961	-0.459211
C162	C	-0.208931	-0.786910	-0.733442
N163	N	-0.205999	-0.740138	-0.706318
H164	H	-0.268487	-0.978096	-0.944665
