data_functionalizedCrystal
_audit_creation_method	'MofGen! by Chris Wilmer'
_symmetry_space_group_name_H-M	'P1'
_symmetry_Int_Tables_number	1
_symmetry_cell_setting	triclinic
loop_
_symmetry_equiv_pos_as_xyz
  x,y,z
_cell_length_a	16.959455
_cell_length_b	29.839131
_cell_length_c	16.959447
_cell_angle_alpha	90.033915
_cell_angle_beta	90.014322
_cell_angle_gamma	90.038367
loop_
_atom_site_label
_atom_site_type_symbol
_atom_site_fract_x
_atom_site_fract_y
_atom_site_fract_z
Zn1	Zn	1.208267	-0.178881	0.446889
Zn2	Zn	1.208140	-0.254014	0.314702
Zn3	Zn	1.076095	-0.178895	0.314726
Zn4	Zn	1.076010	-0.253981	0.446841
O5	O	1.142128	-0.216443	0.380790
O6	O	1.318861	-0.188856	0.429364
O7	O	1.190606	-0.244070	0.204094
O8	O	1.093716	-0.116026	0.332288
O9	O	1.318767	-0.244056	0.332247
O10	O	1.190822	-0.116016	0.429388
O11	O	1.093593	-0.188880	0.204112
O12	O	0.965473	-0.188847	0.332242
O13	O	1.093572	-0.243999	0.557458
O14	O	0.965411	-0.244012	0.429305
O15	O	1.190740	-0.188823	0.557493
O16	O	1.190524	-0.316877	0.332200
O17	O	1.093449	-0.316852	0.429282
C18	C	0.936762	-0.216428	0.380771
C19	C	0.848905	-0.216433	0.380782
C20	C	0.477437	-0.187695	0.330354
C21	C	0.477421	-0.245228	0.431270
C22	C	0.559967	-0.245221	0.431265
C23	C	0.601252	-0.216452	0.380803
C24	C	0.559991	-0.187688	0.330346
C25	C	0.601235	-0.273987	0.481716
C26	C	0.683786	-0.273982	0.481713
C27	C	0.725072	-0.245210	0.431254
C28	C	0.683806	-0.216445	0.380795
C29	C	0.725090	-0.187676	0.330333
C30	C	0.683826	-0.158908	0.279878
C31	C	0.601277	-0.158916	0.279887
C32	C	0.807620	-0.245202	0.431245
C33	C	0.807644	-0.187669	0.330325
C34	C	1.141985	-0.333165	0.380750
C35	C	1.141996	-0.383100	0.380760
C36	C	1.192767	-0.692743	0.330313
C37	C	1.192864	-0.880416	0.330344
O38	O	1.235918	-0.904681	0.287422
N39	N	1.142292	-0.903885	0.380849
C40	C	1.091695	-0.880432	0.431354
O41	O	1.048688	-0.904700	0.474319
C42	C	1.091602	-0.692760	0.431327
C43	C	1.142172	-0.669294	0.380812
C44	C	1.243333	-0.669277	0.279803
C45	C	1.243305	-0.622362	0.279793
C46	C	1.192711	-0.598913	0.330293
C47	C	1.142144	-0.622379	0.380802
C48	C	1.041010	-0.669308	0.481835
C49	C	1.040992	-0.622387	0.481826
C50	C	1.091563	-0.598921	0.431311
C51	C	1.091522	-0.552014	0.431292
N52	N	1.142094	-0.528545	0.380786
C53	C	1.192689	-0.551995	0.330287
C54	C	1.091746	-0.978963	0.431364
C55	C	1.091768	-1.025881	0.431370
C56	C	1.192939	-1.025862	0.330360
C57	C	1.192912	-0.978943	0.330351
C58	C	1.142319	-0.955494	0.380858
C59	C	1.192626	-0.453469	0.330268
C60	C	1.192591	-0.406549	0.330260
C61	C	1.091424	-0.406572	0.431273
C62	C	1.091455	-0.453488	0.431278
C63	C	1.142063	-0.476935	0.380773
O64	O	1.048497	-0.527720	0.474197
O65	O	1.235702	-0.527719	0.287341
C66	C	1.192795	-0.739659	0.330323
C67	C	1.142228	-0.763125	0.380833
C68	C	1.091633	-0.739675	0.431332
C69	C	1.142250	-0.810043	0.380839
C70	C	1.192845	-0.833492	0.330339
C71	C	1.243417	-0.810024	0.279834
C72	C	1.243389	-0.763108	0.279824
C73	C	1.041061	-0.763144	0.481838
C74	C	1.041092	-0.810059	0.481843
C75	C	1.091687	-0.833509	0.431344
C76	C	1.348296	-0.216458	0.380808
C77	C	1.436153	-0.216465	0.380816
C78	C	1.142161	-0.216406	0.586958
C79	C	1.142175	-0.216390	0.674814
C80	C	1.142293	-0.099264	0.380846
C81	C	1.142363	-0.049330	0.380870
C82	C	1.142141	-0.216447	0.175423
C83	C	1.142280	-0.216337	0.087567
C84	C	1.091678	-0.245070	1.046274
C85	C	1.192860	-0.187615	1.046306
C86	C	1.192839	-0.187625	0.963760
C87	C	1.142238	-0.216358	0.922468
C88	C	1.091657	-0.245081	0.963721
C89	C	1.243424	-0.158905	0.922501
C90	C	1.243406	-0.158914	0.839950
C91	C	1.192800	-0.187645	0.798656
C92	C	1.142217	-0.216369	0.839914
C93	C	1.091615	-0.245102	0.798621
C94	C	1.041028	-0.273824	0.839878
C95	C	1.041051	-0.273812	0.922426
C96	C	1.192776	-0.187657	0.716107
C97	C	1.091594	-0.245113	0.716068
H98	H	0.567615	-0.297413	0.522794
H99	H	1.233771	-0.387445	0.289123
H100	H	1.284611	-0.829124	0.238713
H101	H	1.234091	-0.959840	0.289218
H102	H	1.233837	-0.472554	0.289144
H103	H	1.050381	-0.268507	0.682453
H104	H	1.284486	-0.603259	0.238662
H105	H	1.284538	-0.688365	0.238680
H106	H	0.999826	-0.688406	0.522966
H107	H	1.234135	-1.044962	0.289242
H108	H	0.999832	-0.297221	0.806247
H109	H	1.233966	-0.164273	0.682520
H110	H	0.999868	-0.297198	0.956025
H111	H	0.999862	-0.744055	0.522962
H112	H	1.284597	-0.135526	0.806366
H113	H	0.841252	-0.164238	0.289237
H114	H	0.717376	-0.297406	0.522797
H115	H	1.050582	-1.044983	0.472496
H116	H	0.999905	-0.829161	0.522978
H117	H	1.050545	-0.959874	0.472494
H118	H	1.284568	-0.744006	0.238690
H119	H	0.999794	-0.603298	0.522958
H120	H	1.050279	-0.472595	0.472414
H121	H	1.050228	-0.387473	0.472387
H122	H	1.050489	-0.268453	1.079869
H123	H	1.234062	-0.164225	1.079932
H124	H	1.284626	-0.135515	0.956128
H125	H	0.717450	-0.135486	0.238788
H126	H	0.567672	-0.135496	0.238808
H127	H	0.443836	-0.164272	0.289277
H128	H	0.443803	-0.268653	0.472350
H129	H	0.841214	-0.268625	0.472322
