data_functionalizedCrystal
_audit_creation_method	'MofGen! by Chris Wilmer'
_symmetry_space_group_name_H-M	'P1'
_symmetry_Int_Tables_number	1
_symmetry_cell_setting	triclinic
loop_
_symmetry_equiv_pos_as_xyz
  x,y,z
_cell_length_a	13.635800
_cell_length_b	9.582889
_cell_length_c	19.551833
_cell_angle_alpha	86.175482
_cell_angle_beta	101.663477
_cell_angle_gamma	68.792702
loop_
_atom_site_label
_atom_site_type_symbol
_atom_site_fract_x
_atom_site_fract_y
_atom_site_fract_z
V1	V	2.023300	-0.208624	0.217729
O2	O	1.996310	0.008411	0.213716
O3	O	2.018762	-0.412113	0.216113
O4	O	1.994405	-0.206123	0.312746
O5	O	2.020835	-0.199005	0.116414
V6	V	2.263174	-0.182580	0.205626
O7	O	2.158068	-0.265752	0.244277
O8	O	2.353505	-0.125452	0.179078
O9	O	2.156109	0.020909	0.207242
O10	O	2.348862	-0.399615	0.209639
O11	O	2.324337	-0.192199	0.306941
O12	O	2.180466	-0.185081	0.110609
V13	V	2.523300	-0.208624	0.217729
O14	O	2.496310	0.008411	0.213716
O15	O	2.518762	-0.412113	0.216113
O16	O	2.494405	-0.206123	0.312746
O17	O	2.520835	-0.199005	0.116414
V18	V	2.763174	-0.182580	0.205626
O19	O	2.658068	-0.265752	0.244277
O20	O	2.853505	-0.125452	0.179078
O21	O	2.656109	0.020909	0.207242
O22	O	2.848862	-0.399615	0.209639
O23	O	2.824337	-0.192199	0.306941
O24	O	2.680466	-0.185081	0.110609
C25	C	1.946197	-0.461697	0.212646
C26	C	1.983099	-0.628057	0.211958
C27	C	1.915128	-0.198935	0.335910
C28	C	1.932275	-0.198236	0.413586
C29	C	2.060346	0.070486	0.210708
C30	C	2.013063	0.236844	0.211400
C31	C	2.091415	-0.192274	0.087442
C32	C	2.063886	-0.192965	0.009766
C33	C	2.446197	-0.461697	0.212646
C34	C	2.483099	-0.628057	0.211958
C35	C	2.415128	-0.198935	0.335910
C36	C	2.432275	-0.198236	0.413586
C37	C	2.031944	-0.205420	0.453628
C38	C	2.048056	-0.204765	0.526613
C39	C	1.964501	-0.196955	0.559555
C40	C	1.864816	-0.189761	0.519502
C41	C	1.848703	-0.190402	0.446517
C42	C	1.940962	-0.278325	0.678816
C43	C	1.957080	-0.277694	0.751800
C44	C	2.014193	-0.194971	0.784663
C45	C	2.055206	-0.112901	0.744534
C46	C	2.039093	-0.113541	0.671550
C47	C	1.981962	-0.196258	0.638694
C48	C	2.131337	-0.201442	0.903844
C49	C	2.147444	-0.200777	0.976830
C50	C	1.964205	-0.185789	0.969718
C51	C	1.948098	-0.186439	0.896733
C52	C	2.031670	-0.194274	0.863801
C53	C	2.560346	0.070486	0.210708
C54	C	2.513063	0.236844	0.211400
C55	C	2.591415	-0.192274	0.087442
C56	C	2.563886	-0.192965	0.009766
C57	C	2.531947	-0.205396	0.453620
C58	C	2.548068	-0.204720	0.526604
C59	C	2.464519	-0.196896	0.559553
C60	C	2.364837	-0.189732	0.519513
C61	C	2.348715	-0.190397	0.446529
C62	C	2.465203	-0.200772	-0.023165
C63	C	2.439317	-0.201403	-0.096152
C64	C	2.512120	-0.194238	-0.136205
C65	C	2.610810	-0.186425	-0.103270
C66	C	2.636691	-0.185784	-0.030285
H67	H	2.099995	-0.211794	0.426820
H68	H	2.670078	-0.180587	-0.135892
O69	O	2.343565	-0.209276	-0.128177
C70	C	2.363977	-0.340431	-0.160746
H71	H	2.448014	-0.377372	-0.171667
H72	H	2.360058	-0.435131	-0.124251
C73	C	2.174832	-0.260496	-0.217454
C74	C	2.278045	-0.305861	-0.230873
H75	H	2.121824	-0.239176	-0.260710
H76	H	2.161079	-0.172137	-0.195510
H77	H	2.171582	-0.339421	-0.187039
H78	H	2.281298	-0.226929	-0.261280
H79	H	2.291797	-0.394206	-0.252824
H80	H	2.477661	-0.196357	0.618981
H81	H	1.923691	-0.344530	0.784468
H82	H	2.267551	-0.184570	0.413939
H83	H	2.129222	-0.210623	0.559223
H84	H	2.072486	-0.046714	0.638880
H85	H	2.491038	-0.194780	-0.195632
O86	O	2.394588	-0.207988	0.015782
C87	C	2.444873	-0.338321	0.067622
H88	H	2.514016	-0.425337	0.050185
H89	H	2.478365	-0.306368	0.119858
C90	C	2.276234	-0.299430	0.098656
C91	C	2.361152	-0.406311	0.077238
H92	H	2.224591	-0.341368	0.104591
H93	H	2.242356	-0.211620	0.063733
H94	H	2.304158	-0.272813	0.142184
H95	H	2.333229	-0.432913	0.033706
H96	H	2.395023	-0.494129	0.112154
H97	H	2.101715	-0.045544	0.771289
O98	O	1.882906	-0.178129	1.001591
C99	C	1.791488	-0.171976	0.950596
H100	H	1.795449	-0.127009	0.896177
H101	H	1.790528	-0.290421	0.950446
C102	C	1.682712	-0.121224	1.035443
C103	C	1.687572	-0.065983	0.968606
H104	H	1.618611	-0.055849	1.046553
H105	H	1.744303	-0.125375	1.069801
H106	H	1.681917	-0.219928	1.035310
H107	H	1.688381	0.032710	0.968743
H108	H	1.625979	-0.061813	0.934249
O109	O	1.851268	-0.179298	0.857770
C110	C	1.805225	-0.049005	0.805907
H111	H	1.840167	0.038078	0.823343
H112	H	1.824750	-0.080988	0.753691
C113	C	1.638439	-0.088066	0.774823
C114	C	1.681348	0.018895	0.796240
H115	H	1.562025	-0.046185	0.768856
H116	H	1.669460	-0.175851	0.809762
H117	H	1.654719	-0.114710	0.731311
H118	H	1.665079	0.045522	0.839755
H119	H	1.650322	0.106686	0.761308
O120	O	1.885500	-0.358827	0.647014
C121	C	1.852746	-0.431108	0.698079
H122	H	1.907806	-0.444644	0.752464
H123	H	1.765390	-0.359695	0.698278
C124	C	1.792966	-0.571622	0.613325
C125	C	1.860598	-0.588258	0.680122
H126	H	1.797804	-0.668557	0.602248
H127	H	1.815029	-0.522921	0.578921
H128	H	1.720175	-0.512106	0.613500
H129	H	1.933388	-0.647757	0.679944
H130	H	1.838547	-0.636973	0.714526
H131	H	2.717052	-0.179435	-0.003478
H132	H	2.629241	-0.210560	0.559195
H133	H	2.199385	-0.207816	0.877029
H134	H	2.228605	-0.206616	1.009431
H135	H	1.796785	-0.183398	0.546327
H136	H	2.296817	-0.183362	0.546351
O137	O	1.751857	-0.183219	0.407560
C138	C	1.705828	-0.052915	0.355704
H139	H	1.740801	0.034137	0.373141
H140	H	1.725332	-0.084894	0.303482
C141	C	1.539008	-0.091888	0.324629
C142	C	1.581955	0.015035	0.346049
H143	H	1.462596	-0.049976	0.318670
H144	H	1.570018	-0.179681	0.359563
H145	H	1.555271	-0.118528	0.281113
H146	H	1.565703	0.041659	0.389568
H147	H	1.550938	0.102834	0.311122
H148	H	2.599991	-0.211771	0.426803
