data_functionalizedCrystal
_audit_creation_method	'MofGen! by Chris Wilmer'
_symmetry_space_group_name_H-M	'P1'
_symmetry_Int_Tables_number	1
_symmetry_cell_setting	triclinic
loop_
_symmetry_equiv_pos_as_xyz
  x,y,z
_cell_length_a	14.971486
_cell_length_b	15.944564
_cell_length_c	14.048226
_cell_angle_alpha	89.991746
_cell_angle_beta	89.996377
_cell_angle_gamma	96.440968
loop_
_atom_site_label
_atom_site_type_symbol
_atom_site_fract_x
_atom_site_fract_y
_atom_site_fract_z
O1	O	1.186827	-0.109464	0.079054
O2	O	0.926414	-0.122572	0.079080
O3	O	1.063726	0.006249	0.079057
O4	O	1.049515	-0.238286	0.079077
O5	O	1.063723	0.006260	-0.079264
O6	O	0.926411	-0.122562	-0.079241
O7	O	1.186825	-0.109454	-0.079268
Zn8	Zn	1.056617	-0.116006	-0.104391
Zn9	Zn	1.056621	-0.116020	0.104204
O10	O	1.049512	-0.238275	-0.079245
C11	C	0.893088	-0.121981	-0.000077
C12	C	0.793793	-0.120224	-0.000068
C13	C	1.063133	0.037549	-0.000104
C14	C	1.061358	0.130796	-0.000105
C15	C	0.736490	-0.195903	-0.000063
C16	C	0.643192	-0.194248	-0.000077
C17	C	0.607199	-0.116912	-0.000090
C18	C	0.664510	-0.041227	-0.000097
C19	C	0.757806	-0.042884	-0.000090
C20	C	0.470051	-0.037780	-0.000111
C21	C	0.376749	-0.036123	-0.000116
C22	C	0.355437	-0.189144	-0.000098
C23	C	0.448733	-0.190800	-0.000091
C24	C	0.506037	-0.115115	-0.000097
C25	C	1.220150	-0.110045	-0.000108
C26	C	1.319445	-0.111802	-0.000112
N27	N	1.056624	-0.116023	0.246564
C28	C	0.972000	0.345736	-0.000084
C29	C	1.013486	0.406719	-0.078150
C30	C	1.058147	0.301524	-0.000098
C31	C	1.013509	0.406692	0.077942
C32	C	1.055040	0.466438	-0.000087
C33	C	1.099657	0.361278	-0.078229
C34	C	1.099668	0.361245	0.077934
C35	C	1.141216	0.422210	-0.000152
C36	C	1.059935	0.206520	-0.000105
C37	C	1.053259	0.561441	-0.000087
C38	C	1.050093	0.730424	-0.000083
C39	C	1.051832	0.637172	-0.000079
N40	N	1.056621	-0.115996	-0.246752
C41	C	1.117539	-0.059094	0.296372
C42	C	1.117543	-0.059091	0.396030
C43	C	1.056627	-0.116015	0.445878
C44	C	0.995709	-0.172951	0.396063
C45	C	0.995710	-0.172957	0.296407
C46	C	0.995709	-0.172933	0.603777
C47	C	0.995706	-0.172926	0.703440
C48	C	1.117542	-0.059067	0.703400
C49	C	1.117543	-0.059073	0.603744
C50	C	1.056624	-0.116008	0.553936
H51	H	0.765787	-0.258879	-0.000052
C52	C	1.184538	0.003561	0.548913
N53	N	1.234997	0.050741	0.507615
C54	C	0.928696	-0.235582	0.241619
N55	N	0.878221	-0.282755	0.200354
H56	H	0.900497	0.312497	-0.000154
C57	C	0.820840	0.040369	-0.000092
N58	N	0.868316	0.103078	-0.000096
H59	H	1.136062	0.341258	-0.144300
H60	H	0.977047	0.426866	-0.144142
H61	H	1.212781	0.455300	-0.000203
H62	H	1.136074	0.341075	0.143929
C63	C	0.964267	0.433868	0.167102
N64	N	0.927172	0.454332	0.234253
H65	H	0.596539	-0.255873	-0.000072
C66	C	1.184551	0.003530	0.241549
N67	N	1.235028	0.050699	0.200258
C68	C	0.928692	-0.235563	0.548991
N69	N	0.878212	-0.282731	0.507726
H70	H	1.167145	-0.012735	0.436583
H71	H	0.347447	0.026851	-0.000128
C72	C	1.184567	0.003551	0.758191
N73	N	1.235049	0.050711	0.799463
C74	C	0.928624	-0.235477	0.758271
N75	N	0.878070	-0.282567	0.799569
H76	H	0.946112	-0.219303	0.436655
H77	H	0.478035	-0.253774	-0.000072
H78	H	0.516706	0.023852	-0.000117
C79	C	0.292400	-0.272399	-0.000097
N80	N	0.244918	-0.335104	-0.000093
H81	H	0.635197	0.021741	-0.000121
