data_functionalizedCrystal
_audit_creation_method	'MofGen! by Chris Wilmer'
_symmetry_space_group_name_H-M	'P1'
_symmetry_Int_Tables_number	1
_symmetry_cell_setting	triclinic
loop_
_symmetry_equiv_pos_as_xyz
  x,y,z
_cell_length_a	17.699083
_cell_length_b	14.044220
_cell_length_c	16.176319
_cell_angle_alpha	89.992517
_cell_angle_beta	89.998611
_cell_angle_gamma	88.235946
loop_
_atom_site_label
_atom_site_type_symbol
_atom_site_fract_x
_atom_site_fract_y
_atom_site_fract_z
O1	O	1.012346	0.119850	-0.068632
O2	O	0.793044	0.135443	-0.068659
O3	O	0.899403	-0.010330	-0.068638
O4	O	0.905987	0.265624	-0.068653
O5	O	0.899387	-0.010340	0.068855
O6	O	0.793027	0.135434	0.068834
O7	O	1.012330	0.119841	0.068861
Cu8	Cu	0.902677	0.127637	0.081402
Cu9	Cu	0.902696	0.127648	-0.081200
O10	O	0.905970	0.265614	0.068840
C11	C	0.764800	0.134880	0.000084
C12	C	0.680666	0.133204	0.000074
C13	C	0.637948	0.218769	0.000069
C14	C	0.558895	0.217189	0.000080
C15	C	0.522563	0.130041	0.000089
C16	C	0.565287	0.044469	0.000096
C17	C	0.644338	0.046050	0.000092
C18	C	0.246484	0.038089	0.000117
C19	C	0.167427	0.036514	0.000120
C20	C	0.161041	0.209227	0.000106
C21	C	0.240092	0.210809	0.000101
C22	C	0.282809	0.125237	0.000112
C23	C	0.368527	0.126952	0.000102
C24	C	0.436847	0.128325	0.000094
C25	C	0.896513	-0.045643	0.000109
C26	C	0.887917	-0.150849	0.000109
C27	C	0.872202	-0.343474	0.000095
C28	C	0.933168	-0.401248	0.000100
C29	C	0.924424	-0.508431	0.000092
C30	C	0.880945	-0.236281	0.000102
C31	C	1.040574	0.120404	0.000116
C32	C	1.124707	0.122081	0.000121
C33	C	0.908860	0.300927	0.000091
C34	C	0.917456	0.406133	0.000086
N35	N	0.902668	0.127628	0.195767
N36	N	0.902710	0.127648	-0.195565
C37	C	0.949782	0.063106	0.239041
C38	C	0.949786	0.063105	0.325588
C39	C	0.902679	0.127632	0.368860
C40	C	0.855561	0.192157	0.325580
C41	C	0.855554	0.192153	0.239034
C42	C	0.855588	0.192175	0.674608
C43	C	0.855600	0.192176	0.761160
C44	C	0.949820	0.063127	0.761161
C45	C	0.949813	0.063123	0.674616
C46	C	0.902692	0.127644	0.631344
C47	C	0.902687	0.127643	0.537500
C48	C	0.902687	0.127638	0.462702
H49	H	0.679119	-0.023626	0.000095
H50	H	0.126251	0.278904	0.000101
O51	O	0.802143	-0.380604	-0.000021
C52	C	0.793461	-0.437086	-0.071242
H53	H	0.851475	-0.461714	-0.094983
H54	H	0.759015	-0.501829	-0.055229
H55	H	0.762874	-0.393389	-0.121104
O56	O	0.995564	0.000333	0.197138
C57	C	1.037161	-0.056601	0.253896
H58	H	1.006067	-0.057618	0.315592
H59	H	1.043597	-0.132309	0.228902
H60	H	1.095454	-0.025915	0.263089
O61	O	0.529876	-0.040104	0.000070
C62	C	0.450943	-0.023155	0.000092
H63	H	0.437399	0.050848	-0.025944
H64	H	0.422940	-0.078907	-0.039820
H65	H	0.428662	-0.027700	0.066056
O66	O	0.673117	0.303509	0.000096
C67	C	0.618457	0.378692	0.000074
H68	H	0.563045	0.352243	0.026110
H69	H	0.639063	0.439545	0.039987
H70	H	0.609064	0.405081	-0.065889
H71	H	0.137848	-0.034456	0.000128
H72	H	0.988174	0.010583	0.639387
H73	H	0.991930	-0.370212	0.000052
O74	O	0.517321	0.300248	-0.000043
C75	C	0.471416	0.304510	-0.071260
H76	H	0.462341	0.229292	-0.094986
H77	H	0.414477	0.339956	-0.055248
H78	H	0.500307	0.347727	-0.121133
O79	O	0.809768	0.254923	0.197124
C80	C	0.768178	0.311863	0.253872
H81	H	0.799282	0.312890	0.315561
H82	H	0.761736	0.387567	0.228855
H83	H	0.709888	0.281176	0.263090
H84	H	0.269670	0.281773	0.000089
O85	O	0.995446	0.000337	0.367656
C86	C	0.950989	-0.058064	0.417746
H87	H	0.891198	-0.059578	0.391677
H88	H	0.976788	-0.133440	0.418728
H89	H	0.949031	-0.028401	0.483336
H90	H	0.817238	0.244723	0.796390
H91	H	0.988186	0.010587	0.796403
H92	H	0.817202	0.244692	0.360817
H93	H	0.281255	-0.031590	0.000127
O94	O	0.809798	0.254944	0.632709
C95	C	0.768214	0.311882	0.689463
H96	H	0.799322	0.312904	0.751149
H97	H	0.761772	0.387587	0.664450
H98	H	0.709923	0.281196	0.698684
