data_functionalizedCrystal
_audit_creation_method	'MofGen! by Chris Wilmer'
_symmetry_space_group_name_H-M	'P1'
_symmetry_Int_Tables_number	1
_symmetry_cell_setting	triclinic
loop_
_symmetry_equiv_pos_as_xyz
  x,y,z
_cell_length_a	14.044220
_cell_length_b	14.519709
_cell_length_c	13.596369
_cell_angle_alpha	89.993066
_cell_angle_beta	89.999747
_cell_angle_gamma	88.434511
loop_
_atom_site_label
_atom_site_type_symbol
_atom_site_fract_x
_atom_site_fract_y
_atom_site_fract_z
O1	O	1.258085	0.222370	-0.081691
O2	O	1.758085	0.722370	0.418309
O3	O	0.982102	0.214346	-0.081716
O4	O	1.482102	0.714346	0.418284
O5	O	1.127410	0.084710	-0.081694
O6	O	1.627410	0.584710	0.418306
O7	O	1.112776	0.352006	-0.081713
O8	O	1.612776	0.852006	0.418287
O9	O	1.127396	0.084701	0.081889
O10	O	1.627396	0.584701	0.581889
O11	O	0.982087	0.214337	0.081867
O12	O	1.482087	0.714337	0.581867
O13	O	1.258070	0.222361	0.081892
O14	O	1.758070	0.722361	0.581892
Zn15	Zn	1.120076	0.218348	0.107852
Zn16	Zn	1.620076	0.718348	0.607852
Zn17	Zn	1.120095	0.218359	-0.107676
Zn18	Zn	1.620095	0.718359	0.392324
O19	O	1.112761	0.351997	0.081870
O20	O	1.612761	0.851997	0.581870
C21	C	1.126721	0.050290	0.000098
C22	C	1.626721	0.550290	0.500098
C23	C	1.124677	-0.052256	0.000098
C24	C	1.624677	0.447744	0.500098
C25	C	0.946774	0.210829	0.000073
C26	C	1.446774	0.710829	0.500073
C27	C	0.841531	0.200352	0.000064
C28	C	1.341531	0.700352	0.500064
C29	C	1.117153	-0.427758	0.000072
C30	C	1.617153	0.072242	0.500072
C31	C	1.119243	-0.323282	0.000079
C32	C	1.619243	0.176718	0.500079
C33	C	1.120915	-0.240010	0.000086
C34	C	1.620915	0.259990	0.500086
C35	C	1.123005	-0.135527	0.000092
C36	C	1.623005	0.364473	0.500092
C37	C	0.648837	0.181197	0.000084
C38	C	1.148837	0.681197	0.500084
C39	C	0.591329	0.255505	0.000083
C40	C	1.091329	0.755505	0.500083
C41	C	0.484108	0.244848	0.000095
C42	C	0.984108	0.744848	0.500095
C43	C	0.756068	0.191854	0.000073
C44	C	1.256068	0.691854	0.500073
C45	C	1.293398	0.225878	0.000101
C46	C	1.793398	0.725878	0.500101
C47	C	1.398641	0.236355	0.000104
C48	C	1.898641	0.736355	0.500104
C49	C	1.113451	0.386416	0.000076
C50	C	1.613451	0.886416	0.500076
C51	C	1.115494	0.488963	0.000070
C52	C	1.615494	0.988963	0.500070
N53	N	1.120070	0.218340	0.254944
N54	N	1.620070	0.718340	0.754944
N55	N	1.120109	0.218360	-0.254767
N56	N	1.620109	0.718360	0.245233
C57	C	1.120094	0.218360	0.656235
C58	C	1.620094	0.718360	1.156235
C59	C	1.120085	0.218357	0.544583
C60	C	1.620085	0.718357	1.044583
C61	C	1.120083	0.218351	0.455593
C62	C	1.620083	0.718351	0.955593
C63	C	1.120072	0.218347	0.343934
C64	C	1.620072	0.718347	0.843934
H65	H	0.622622	0.327127	0.000073
H66	H	1.122622	0.827127	0.500073
N67	N	0.609573	0.091360	0.000098
N68	N	1.109573	0.591360	0.500098
N69	N	0.521263	0.082722	0.000106
N70	N	1.021263	0.582722	0.500106
H71	H	0.493522	0.019275	0.000113
H72	H	0.993522	0.519275	0.500113
