data_functionalizedCrystal
_audit_creation_method	'MofGen! by Chris Wilmer'
_symmetry_space_group_name_H-M	'P1'
_symmetry_Int_Tables_number	1
_symmetry_cell_setting	triclinic
loop_
_symmetry_equiv_pos_as_xyz
  x,y,z
_cell_length_a	17.038278
_cell_length_b	17.038272
_cell_length_c	11.892095
_cell_angle_alpha	94.170821
_cell_angle_beta	85.819118
_cell_angle_gamma	91.111028
loop_
_atom_site_label
_atom_site_type_symbol
_atom_site_fract_x
_atom_site_fract_y
_atom_site_fract_z
O1	O	1.053442	0.165840	-0.094014
O2	O	1.553442	0.665840	0.405986
O3	O	0.825630	0.163134	-0.094015
O4	O	1.325630	0.663134	0.405985
O5	O	0.938182	0.050582	-0.094006
O6	O	1.438182	0.550582	0.405994
O7	O	0.940891	0.278392	-0.094023
O8	O	1.440891	0.778392	0.405977
O9	O	0.928796	0.059951	0.094001
O10	O	1.428796	0.559951	0.594001
O11	O	0.816245	0.172503	0.093992
O12	O	1.316245	0.672503	0.593992
O13	O	1.044057	0.175209	0.093992
O14	O	1.544057	0.675209	0.593992
Zn15	Zn	0.928661	0.175343	0.123842
Zn16	Zn	1.428661	0.675343	0.623842
Zn17	Zn	0.941026	0.162999	-0.123865
Zn18	Zn	1.441026	0.662999	0.376135
O19	O	0.931505	0.287761	0.093983
O20	O	1.431505	0.787761	0.593983
C21	C	0.791645	0.165356	-0.000011
C22	C	1.291645	0.665356	0.499989
C23	C	0.704362	0.158009	-0.000011
C24	C	1.204362	0.658009	0.499989
C25	C	0.210936	0.112871	-0.000012
C26	C	0.710936	0.612871	0.499988
C27	C	0.292947	0.119781	-0.000006
C28	C	0.792947	0.619781	0.499994
C29	C	0.329348	0.194154	-0.000017
C30	C	0.829348	0.694154	0.499983
C31	C	0.283731	0.261622	-0.000022
C32	C	0.783731	0.761622	0.499978
C33	C	0.201721	0.254712	-0.000020
C34	C	0.701721	0.754712	0.499980
C35	C	0.576735	0.218566	-0.000015
C36	C	1.076735	0.718566	0.499985
C37	C	0.658752	0.225471	-0.000020
C38	C	1.158752	0.725471	0.499980
C39	C	0.667962	0.083630	-0.000001
C40	C	1.167962	0.583630	0.499999
C41	C	0.585950	0.076726	-0.000006
C42	C	1.085950	0.576726	0.499994
C43	C	0.540340	0.144194	-0.000006
C44	C	1.040340	0.644194	0.499994
C45	C	0.413177	0.201218	-0.000014
C46	C	0.913177	0.701218	0.499986
C47	C	0.456513	0.137129	-0.000001
C48	C	0.956513	0.637129	0.499999
C49	C	0.931026	0.025973	-0.000002
C50	C	1.431026	0.525973	0.499998
C51	C	0.923678	-0.061310	-0.000003
C52	C	1.423678	0.438690	0.499997
C53	C	0.991142	-0.106920	-0.000001
C54	C	1.491142	0.393080	0.499999
C55	C	0.984233	-0.188932	-0.000012
C56	C	1.484233	0.311068	0.499988
C57	C	0.909860	-0.225333	-0.000016
C58	C	1.409860	0.274667	0.499984
C59	C	0.842392	-0.179717	-0.000021
C60	C	1.342392	0.320283	0.499979
C61	C	0.849301	-0.097707	-0.000018
C62	C	1.349301	0.402293	0.499982
C63	C	0.885450	-0.472721	-0.000032
C64	C	1.385450	0.027279	0.499968
C65	C	0.878546	-0.554738	-0.000031
C66	C	1.378546	-0.054738	0.499969
C67	C	1.020388	-0.563947	-0.000024
C68	C	1.520388	-0.063947	0.499976
C69	C	1.027291	-0.481934	-0.000015
C70	C	1.527291	0.018066	0.499985
C71	C	0.959823	-0.436326	-0.000025
C72	C	1.459823	0.063674	0.499975
C73	C	0.902797	-0.309162	-0.000023
C74	C	1.402797	0.190838	0.499977
C75	C	0.966887	-0.352499	-0.000026
C76	C	1.466887	0.147501	0.499974
C77	C	1.078042	0.172987	-0.000013
C78	C	1.578042	0.672987	0.499987
C79	C	1.165326	0.180334	-0.000021
C80	C	1.665326	0.680334	0.499979
C81	C	0.938661	0.312369	-0.000022
C82	C	1.438661	0.812369	0.499978
C83	C	0.946009	0.399653	-0.000030
C84	C	1.446009	0.899653	0.499970
N85	N	0.920227	0.183768	0.292896
N86	N	1.420227	0.683768	0.792896
N87	N	0.949466	0.154569	-0.292918
N88	N	1.449466	0.654569	0.207082
C89	C	1.008147	0.095904	0.529551
C90	C	1.508147	0.595904	1.029551
C91	C	1.002258	0.101799	0.647892
C92	C	1.502258	0.601799	1.147892
C93	C	0.902557	0.201447	0.647922
C94	C	1.402557	0.701447	1.147922
C95	C	0.908446	0.195553	0.529581
C96	C	1.408446	0.695553	1.029581
C97	C	0.961243	0.142780	0.470399
C98	C	1.461243	0.642780	0.970399
C99	C	0.967136	0.136890	0.352056
C100	C	1.467136	0.636890	0.852056
C101	C	0.867431	0.236534	0.352088
C102	C	1.367431	0.736534	0.852088
C103	C	0.861543	0.242429	0.470429
C104	C	1.361543	0.742429	0.970429
H105	H	0.442823	0.261773	-0.000026
H106	H	0.942823	0.761773	0.499974
H107	H	0.181305	0.052308	-0.000010
H108	H	0.681305	0.552308	0.499990
Cl109	Cl	0.144382	0.339526	-0.000024
Cl110	Cl	0.644382	0.839526	0.499976
H111	H	0.830513	-0.435597	-0.000040
H112	H	1.330513	0.064403	0.499960
H113	H	1.010128	0.093922	0.303871
H114	H	1.510128	0.593922	0.803871
H115	H	1.051704	-0.077289	0.000009
H116	H	1.551704	0.422711	0.500009
H117	H	0.829242	0.274706	0.303913
H118	H	1.329242	0.774706	0.803913
H119	H	1.039169	-0.226064	-0.000009
H120	H	1.539169	0.273936	0.499991
H121	H	0.330079	0.064845	0.000007
H122	H	0.830079	0.564845	0.500007
H123	H	1.027443	-0.322859	-0.000048
H124	H	1.527443	0.177141	0.499952
Cl125	Cl	1.061223	0.042864	0.722251
Cl126	Cl	1.561223	0.542864	1.222251
H127	H	0.556319	0.016164	0.000003
H128	H	1.056319	0.516164	0.500003
Cl129	Cl	0.410751	0.043635	0.000018
Cl130	Cl	0.910751	0.543635	0.500018
Cl131	Cl	0.836179	0.267777	0.722333
Cl132	Cl	1.336179	0.767777	1.222333
Cl133	Cl	1.120794	-0.436182	-0.000047
Cl134	Cl	1.620794	0.063818	0.499953
H135	H	0.781836	-0.209361	-0.000031
H136	H	1.281836	0.290639	0.499969
H137	H	0.313375	0.322178	-0.000024
H138	H	0.813375	0.822178	0.499976
H139	H	1.075317	-0.601090	-0.000018
H140	H	1.575317	-0.101090	0.499982
H141	H	0.817978	-0.584371	-0.000016
H142	H	1.317978	-0.084371	0.499984
Cl143	Cl	0.764486	-0.040368	-0.000024
Cl144	Cl	1.264486	0.459632	0.499976
Cl145	Cl	0.809302	-0.354930	-0.000034
Cl146	Cl	1.309302	0.145070	0.499966
H147	H	1.051142	0.052940	0.481364
H148	H	1.551142	0.552940	0.981364
H149	H	0.818554	0.285393	0.518628
H150	H	1.318554	0.785393	1.018628
H151	H	0.688385	0.286039	-0.000013
H152	H	1.188385	0.786039	0.499987
Cl153	Cl	0.519409	0.303384	-0.000031
Cl154	Cl	1.019409	0.803384	0.499969
H155	H	0.705105	0.028701	-0.000000
H156	H	1.205105	0.528701	0.500000
