data_functionalizedCrystal
_audit_creation_method	'MofGen! by Chris Wilmer'
_symmetry_space_group_name_H-M	'P1'
_symmetry_Int_Tables_number	1
_symmetry_cell_setting	triclinic
loop_
_symmetry_equiv_pos_as_xyz
  x,y,z
_cell_length_a	13.635800
_cell_length_b	19.453103
_cell_length_c	19.453114
_cell_angle_alpha	83.683594
_cell_angle_beta	101.709288
_cell_angle_gamma	78.290822
loop_
_atom_site_label
_atom_site_type_symbol
_atom_site_fract_x
_atom_site_fract_y
_atom_site_fract_z
V1	V	1.998999	-0.097914	0.219328
O2	O	1.997549	0.003953	0.214817
O3	O	1.970508	-0.193423	0.218151
O4	O	1.970509	-0.096738	0.314837
O5	O	1.997548	-0.093402	0.117462
V6	V	2.241924	-0.085690	0.207105
O7	O	2.127074	-0.124727	0.246141
O8	O	2.338948	-0.058877	0.180292
O9	O	2.158811	0.009819	0.208282
O10	O	2.302072	-0.187557	0.211616
O11	O	2.302073	-0.090202	0.308971
O12	O	2.158811	-0.086866	0.111596
V13	V	2.498999	-0.097914	0.219328
O14	O	2.497549	0.003953	0.214817
O15	O	2.470508	-0.193423	0.218151
O16	O	2.470509	-0.096738	0.314837
O17	O	2.497548	-0.093402	0.117462
V18	V	2.741924	-0.085690	0.207105
O19	O	2.627074	-0.124727	0.246141
O20	O	2.838948	-0.058877	0.180292
O21	O	2.658811	0.009819	0.208282
O22	O	2.802072	-0.187557	0.211616
O23	O	2.802073	-0.090202	0.308971
O24	O	2.658811	-0.086866	0.111596
C25	C	1.892104	-0.216695	0.214774
C26	C	1.909424	-0.294777	0.214449
C27	C	2.008291	-0.335044	0.217808
C28	C	2.024568	-0.408411	0.217509
C29	C	1.941968	-0.441507	0.213837
C30	C	1.843089	-0.401231	0.210481
C31	C	1.826817	-0.327867	0.210787
N32	N	1.889529	-0.547627	0.170551
N33	N	1.904992	-0.617320	0.170259
C34	C	1.990990	-0.662551	0.212916
N35	N	2.060953	-0.635454	0.255867
N36	N	2.045490	-0.565754	0.256156
C37	C	1.959602	-0.521058	0.213505
C38	C	2.107512	-0.782371	0.215953
C39	C	2.123786	-0.855741	0.215658
C40	C	1.942302	-0.848558	0.208622
C41	C	1.926033	-0.775191	0.208924
C42	C	2.008640	-0.742102	0.212586
C43	C	1.892104	-0.093363	0.338106
C44	C	1.909424	-0.093034	0.416187
C45	C	2.068887	0.033088	0.211656
C46	C	2.041185	0.111169	0.211986
C47	C	2.068887	-0.090243	0.088323
C48	C	2.041186	-0.090569	0.010241
C49	C	2.392104	-0.216695	0.214774
C50	C	2.409424	-0.294777	0.214449
C51	C	2.392104	-0.093363	0.338106
C52	C	2.409424	-0.093034	0.416187
C53	C	2.008294	-0.096405	0.456456
C54	C	2.024568	-0.096095	0.529822
C55	C	1.941970	-0.092429	0.562918
C56	C	1.843086	-0.089054	0.522640
C57	C	1.826813	-0.089356	0.449274
N58	N	1.910432	-0.129523	0.681832
N59	N	1.925898	-0.129237	0.751526
C60	C	1.990994	-0.091516	0.783963
N61	N	2.040059	-0.054100	0.744075
N62	N	2.024596	-0.054389	0.674375
C63	C	1.959606	-0.092100	0.642470
C64	C	2.107516	-0.094550	0.903783
C65	C	2.123786	-0.094236	0.977150
C66	C	1.942303	-0.087202	0.969967
C67	C	1.926034	-0.087509	0.896601
C68	C	2.008646	-0.091187	0.863515
C69	C	2.568887	0.033088	0.211656
C70	C	2.541185	0.111169	0.211986
C71	C	2.568887	-0.090243	0.088323
C72	C	2.541186	-0.090569	0.010241
C73	C	2.508303	-0.335038	0.217817
C74	C	2.524594	-0.408407	0.217522
C75	C	2.442005	-0.441512	0.213853
C76	C	2.343119	-0.401245	0.210487
C77	C	2.326830	-0.327879	0.210787
C78	C	2.508300	-0.096393	0.456447
C79	C	2.524586	-0.096074	0.529812
C80	C	2.441995	-0.092401	0.562916
C81	C	2.343111	-0.089040	0.522651
C82	C	2.326825	-0.089353	0.449286
C83	C	2.614800	0.151430	0.208620
C84	C	2.588781	0.224798	0.208918
C85	C	2.489147	0.257902	0.212589
C86	C	2.415526	0.217636	0.215954
C87	C	2.441544	0.144271	0.215650
C88	C	2.441546	-0.094234	-0.022845
C89	C	2.415501	-0.094532	-0.096213
C90	C	2.489100	-0.091170	-0.136491
C91	C	2.588748	-0.087502	-0.103401
C92	C	2.614789	-0.087199	-0.030036
H93	H	2.075559	-0.308108	0.220795
H94	H	1.875049	-0.875504	0.205636
C95	C	2.724406	-0.083173	0.006352
N96	N	2.806973	-0.080141	0.033755
H97	H	2.605109	-0.098815	0.562587
C98	C	2.099167	-0.100438	0.420063
N99	N	2.167613	-0.103472	0.392649
C100	C	2.198381	-0.745971	0.219983
N101	N	2.266824	-0.718556	0.223018
H102	H	2.455270	-0.092147	0.622654
C103	C	2.599166	-0.100429	0.420046
N104	N	2.667611	-0.103463	0.392632
H105	H	2.575562	-0.308094	0.220800
H106	H	2.275871	-0.086049	0.549615
C107	C	2.360555	0.099990	0.219363
N108	N	2.299549	0.066641	0.222162
H109	H	2.695933	0.124486	0.205632
H110	H	2.455282	-0.501252	0.213609
H111	H	2.648740	0.257572	0.206179
H112	H	1.845526	-0.084771	0.863815
C113	C	2.133332	-0.452712	0.221199
N114	N	2.215252	-0.486077	0.223975
C115	C	2.460539	0.338609	0.212914
N116	N	2.438996	0.399399	0.213157
C117	C	2.133339	-0.099811	0.574127
N118	N	2.215267	-0.102613	0.607496
H119	H	2.275880	-0.428211	0.207500
H120	H	2.334358	-0.097518	-0.123144
C121	C	2.360565	-0.097927	0.021447
N122	N	2.299562	-0.100705	0.054803
H123	H	2.467886	-0.091426	-0.196228
H124	H	2.648665	-0.084763	-0.136207
C125	C	2.218049	-0.283597	0.207070
N126	N	2.136111	-0.250248	0.204268
C127	C	1.752228	-0.437637	0.206436
N128	N	1.683789	-0.465058	0.203390
C129	C	1.718050	-0.283571	0.207085
N130	N	1.636125	-0.250205	0.204293
H131	H	2.204298	-0.888526	0.218398
H132	H	2.246309	-0.086619	0.416512
C133	C	1.817268	-0.730894	0.205217
N134	N	1.735341	-0.697530	0.202425
H135	H	2.334402	0.244602	0.218941
C136	C	1.752217	-0.084976	0.559040
N137	N	1.683767	-0.081887	0.586454
H138	H	2.174783	-0.097542	0.876842
H139	H	2.204298	-0.096976	1.009935
H140	H	1.746298	-0.086606	0.416487
H141	H	2.605118	-0.441182	0.220262
H142	H	1.875048	-0.084210	0.996913
