data_functionalizedCrystal
_audit_creation_method	'MofGen! by Chris Wilmer'
_symmetry_space_group_name_H-M	'P1'
_symmetry_Int_Tables_number	1
_symmetry_cell_setting	triclinic
loop_
_symmetry_equiv_pos_as_xyz
  x,y,z
_cell_length_a	12.759401
_cell_length_b	13.031981
_cell_length_c	12.759393
_cell_angle_alpha	97.216555
_cell_angle_beta	90.020938
_cell_angle_gamma	97.193318
loop_
_atom_site_label
_atom_site_type_symbol
_atom_site_fract_x
_atom_site_fract_y
_atom_site_fract_z
Zn1	Zn	1.553159	-0.416025	0.540846
Zn2	Zn	1.530734	-0.590838	0.342822
Zn3	Zn	1.377451	-0.416080	0.365174
Zn4	Zn	1.355143	-0.590765	0.518469
O5	O	1.454122	-0.503427	0.441828
O6	O	1.697204	-0.439221	0.514588
O7	O	1.510352	-0.567710	0.198759
O8	O	1.419479	-0.269807	0.407196
O9	O	1.680729	-0.567656	0.369101
O10	O	1.548571	-0.269766	0.536262
O11	O	1.397735	-0.439316	0.215181
O12	O	1.227471	-0.439245	0.385498
O13	O	1.381459	-0.567531	0.668465
O14	O	1.211082	-0.567585	0.498123
O15	O	1.526941	-0.439151	0.684905
O16	O	1.488721	-0.737094	0.347403
O17	O	1.359715	-0.737040	0.476450
C18	C	1.181156	-0.503414	0.441808
C19	C	1.064377	-0.503434	0.441822
C20	C	1.000996	-0.570362	0.500347
C21	C	0.891271	-0.570366	0.500367
C22	C	0.908319	-0.436511	0.383329
C23	C	1.018042	-0.436502	0.383315
C24	C	1.419393	-0.774992	0.407096
C25	C	1.404632	-0.891169	0.392272
C26	C	1.461881	-0.942861	0.449585
C27	C	1.446627	-1.062935	0.434266
C28	C	1.728153	-0.503440	0.441847
C29	C	1.844929	-0.503446	0.441856
C30	C	1.454213	-0.503327	0.715874
C31	C	1.454252	-0.503284	0.832656
C32	C	1.489015	-0.230801	0.476718
C33	C	1.503884	-0.114624	0.491587
C34	C	1.454101	-0.503451	0.168857
C35	C	1.454303	-0.503200	0.052113
C36	C	1.530011	-0.436425	0.896082
C37	C	1.530034	-0.436380	1.005812
C38	C	1.378537	-0.570061	0.988680
C39	C	1.378509	-0.570100	0.878952
H40	H	0.839670	-0.624864	0.548026
O41	O	1.050978	-0.642536	0.563461
H42	H	0.988468	-0.689067	0.604170
O43	O	0.858341	-0.364356	0.320187
H44	H	0.771393	-0.375622	0.330008
H45	H	1.069650	-0.381995	0.335658
H46	H	1.344319	-0.935809	0.331868
H47	H	1.522185	-0.898223	0.509999
H48	H	1.386310	-1.107571	0.373858
O49	O	1.583796	-1.055507	0.571592
H50	H	1.623414	-1.111640	0.611241
O51	O	1.611693	-0.364355	0.846143
H52	H	1.664369	-0.317850	0.908687
O53	O	1.296846	-0.642128	1.038612
H54	H	1.309595	-0.630876	1.125567
H55	H	1.591723	-0.381936	1.057449
H56	H	1.316810	-0.624544	0.827309
