data_functionalizedCrystal
_audit_creation_method	'MofGen! by Chris Wilmer'
_symmetry_space_group_name_H-M	'P1'
_symmetry_Int_Tables_number	1
_symmetry_cell_setting	triclinic
loop_
_symmetry_equiv_pos_as_xyz
  x,y,z
_cell_length_a	27.732048
_cell_length_b	27.732048
_cell_length_c	7.681481
_cell_angle_alpha	84.300807
_cell_angle_beta	95.681056
_cell_angle_gamma	82.642655
loop_
_atom_site_label
_atom_site_type_symbol
_atom_site_fract_x
_atom_site_fract_y
_atom_site_fract_z
O1	O	0.636329	0.062121	-0.146225
O2	O	0.969662	0.395455	0.187109
O3	O	1.302996	0.728788	0.520442
O4	O	0.495534	0.070868	-0.146280
O5	O	0.828867	0.404202	0.187053
O6	O	1.162200	0.737535	0.520386
O7	O	0.570305	-0.003903	-0.146217
O8	O	0.903638	0.329430	0.187116
O9	O	1.236972	0.662764	0.520449
O10	O	0.561557	0.136893	-0.146288
O11	O	0.894891	0.470226	0.187046
O12	O	1.228224	0.803559	0.520379
O13	O	0.579508	-0.013127	0.146648
O14	O	0.912842	0.320207	0.479982
O15	O	1.246175	0.653540	0.813315
O16	O	0.504737	0.061645	0.146585
O17	O	0.838070	0.394978	0.479918
O18	O	1.171404	0.728311	0.813252
O19	O	0.645532	0.052897	0.146641
O20	O	0.978865	0.386231	0.479974
O21	O	1.312199	0.719564	0.813308
Zn22	Zn	0.576596	0.055807	0.193112
Zn23	Zn	0.909929	0.389140	0.526445
Zn24	Zn	1.243262	0.722473	0.859778
Zn25	Zn	0.564470	0.067959	-0.192751
Zn26	Zn	0.897803	0.401293	0.140582
Zn27	Zn	1.231137	0.734626	0.473915
O28	O	0.570761	0.127669	0.146578
O29	O	0.904094	0.461002	0.479911
O30	O	1.237427	0.794336	0.813244
C31	C	0.482128	0.066073	0.000146
C32	C	0.815461	0.399407	0.333479
C33	C	1.148795	0.732740	0.666812
C34	C	0.428473	0.065521	0.000126
C35	C	0.761806	0.398854	0.333459
C36	C	1.095139	0.732188	0.666792
C37	C	0.089659	0.106223	0.000182
C38	C	0.422993	0.439556	0.333515
C39	C	0.756326	0.772890	0.666848
C40	C	-0.112000	0.104171	0.000198
C41	C	0.221334	0.437505	0.333532
C42	C	0.554667	0.770838	0.666865
O43	O	-0.143254	0.141390	0.000256
O44	O	0.190080	0.474724	0.333589
O45	O	0.523413	0.808057	0.666923
N46	N	-0.131123	0.059836	0.000217
N47	N	0.202210	0.393169	0.333551
N48	N	0.535544	0.726502	0.666884
C49	C	-0.099827	0.016009	0.000244
C50	C	0.233506	0.349343	0.333577
C51	C	0.566839	0.682676	0.666911
O52	O	-0.120719	-0.021749	0.000279
O53	O	0.212614	0.311585	0.333612
O54	O	0.545947	0.644918	0.666945
C55	C	0.101831	0.018061	0.000240
C56	C	0.435164	0.351394	0.333573
C57	C	0.768498	0.684728	0.666906
C58	C	0.120951	0.062400	0.000203
C59	C	0.454284	0.395733	0.333536
C60	C	0.787617	0.729067	0.666869
C61	C	0.108779	0.150559	0.000147
C62	C	0.442113	0.483892	0.333480
C63	C	0.775446	0.817225	0.666813
C64	C	0.159191	0.151071	0.000133
C65	C	0.492524	0.484405	0.333466
C66	C	0.825858	0.817738	0.666800
C67	C	0.190482	0.107248	0.000154
C68	C	0.523816	0.440582	0.333487
C69	C	0.857149	0.773915	0.666821
C70	C	0.171362	0.062913	0.000189
C71	C	0.504695	0.396246	0.333522
C72	C	0.838029	0.729580	0.666856
C73	C	0.133126	-0.025765	0.000279
C74	C	0.466459	0.307568	0.333612
C75	C	0.799793	0.640901	0.666945
C76	C	0.183543	-0.025249	0.000282
C77	C	0.516877	0.308085	0.333616
C78	C	0.850210	0.641418	0.666949
C79	C	0.202663	0.019091	0.000245
C80	C	0.535996	0.352424	0.333579
C81	C	0.869330	0.685757	0.666912
C82	C	0.253065	0.019603	0.000196
C83	C	0.586398	0.352936	0.333530
C84	C	0.919732	0.686269	0.666863
N85	N	0.272188	0.063939	0.000177
N86	N	0.605521	0.397272	0.333511
N87	N	0.938855	0.730605	0.666844
C88	C	0.240897	0.107761	0.000156
C89	C	0.574230	0.441095	0.333490
C90	C	0.907563	0.774428	0.666823
C91	C	-0.205702	0.014935	0.000243
C92	C	0.127632	0.348269	0.333576
C93	C	0.460965	0.681602	0.666909
C94	C	-0.256116	0.014422	0.000241
C95	C	0.077217	0.347756	0.333574
C96	C	0.410551	0.681089	0.666907
C97	C	-0.268285	0.102585	0.000198
C98	C	0.065048	0.435918	0.333532
C99	C	0.398382	0.769251	0.666865
C100	C	-0.217870	0.103098	0.000188
C101	C	0.115464	0.436431	0.333521
C102	C	0.448797	0.769764	0.666854
C103	C	-0.186578	0.059271	0.000224
C104	C	0.146755	0.392605	0.333557
C105	C	0.480088	0.725938	0.666890
C106	C	0.346765	0.108835	0.000126
C107	C	0.680098	0.442168	0.333459
C108	C	1.013432	0.775501	0.666792
C109	C	0.397181	0.109344	0.000105
C110	C	0.730515	0.442677	0.333438
C111	C	1.063848	0.776011	0.666771
C112	C	0.409346	0.021182	0.000156
C113	C	0.742679	0.354515	0.333489
C114	C	1.076013	0.687848	0.666823
C115	C	0.358934	0.020673	0.000168
C116	C	0.692267	0.354006	0.333501
C117	C	1.025600	0.687339	0.666835
C118	C	0.327644	0.064503	0.000159
C119	C	0.660978	0.397836	0.333492
C120	C	0.994311	0.731170	0.666825
O121	O	0.284348	-0.017597	0.000159
O122	O	0.617681	0.315736	0.333492
O123	O	0.951014	0.649070	0.666825
O124	O	0.261800	0.145513	0.000160
O125	O	0.595133	0.478846	0.333494
O126	O	0.928466	0.812179	0.666827
C127	C	0.039248	0.105710	0.000195
C128	C	0.372581	0.439044	0.333529
C129	C	0.705914	0.772377	0.666862
C130	C	0.020128	0.061375	0.000230
C131	C	0.353461	0.394708	0.333564
C132	C	0.686794	0.728041	0.666897
C133	C	0.051419	0.017552	0.000252
C134	C	0.384752	0.350885	0.333585
C135	C	0.718086	0.684219	0.666918
C136	C	-0.030287	0.060862	0.000228
C137	C	0.303046	0.394195	0.333562
C138	C	0.636380	0.727528	0.666895
C139	C	-0.061578	0.104685	0.000207
C140	C	0.271755	0.438018	0.333540
C141	C	0.605088	0.771351	0.666874
C142	C	-0.042455	0.149020	0.000188
C143	C	0.290878	0.482354	0.333521
C144	C	0.624212	0.815687	0.666855
C145	C	0.007956	0.149533	0.000174
C146	C	0.341290	0.482867	0.333508
C147	C	0.674623	0.816200	0.666841
C148	C	0.032296	-0.026784	0.000271
C149	C	0.365629	0.306549	0.333604
C150	C	0.698962	0.639883	0.666937
C151	C	-0.018116	-0.027293	0.000282
C152	C	0.315217	0.306040	0.333616
C153	C	0.648550	0.639374	0.666949
C154	C	-0.049408	0.016530	0.000261
C155	C	0.283926	0.349863	0.333595
C156	C	0.617259	0.683197	0.666928
C157	C	0.574723	-0.026522	0.000220
C158	C	0.908057	0.306811	0.333554
C159	C	1.241390	0.640145	0.666887
C160	C	0.574171	-0.080177	0.000235
C161	C	0.907504	0.253156	0.333568
C162	C	1.240838	0.586489	0.666901
C163	C	0.614872	-0.418990	0.000160
C164	C	0.948206	-0.085657	0.333494
C165	C	1.281539	0.247677	0.666827
C166	C	0.612821	-0.620649	0.000135
C167	C	0.946154	-0.287316	0.333468
C168	C	1.279487	0.046018	0.666802
O169	O	0.650039	-0.651903	0.000073
O170	O	0.983373	-0.318569	0.333406
O171	O	1.316706	0.014764	0.666739
N172	N	0.568485	-0.639772	0.000119
N173	N	0.901818	-0.306439	0.333452
N174	N	1.235152	0.026895	0.666786
C175	C	0.524659	-0.608477	0.000098
C176	C	0.857992	-0.275143	0.333431
C177	C	1.191325	0.058190	0.666765
O178	O	0.486901	-0.629369	0.000066
O179	O	0.820234	-0.296036	0.333399
O180	O	1.153567	0.037298	0.666732
C181	C	0.526711	-0.406819	0.000111
C182	C	0.860044	-0.073485	0.333444
C183	C	1.193377	0.259848	0.666777
C184	C	0.571050	-0.387699	0.000144
C185	C	0.904383	-0.054366	0.333478
C186	C	1.237716	0.278968	0.666811
C187	C	0.659208	-0.399870	0.000192
C188	C	0.992541	-0.066536	0.333526
C189	C	1.325875	0.266797	0.666859
C190	C	0.659721	-0.349458	0.000208
C191	C	0.993054	-0.016125	0.333541
C192	C	1.326387	0.317208	0.666875
C193	C	0.615898	-0.318167	0.000192
C194	C	0.949231	0.015166	0.333526
C195	C	1.282565	0.348499	0.666859
C196	C	0.571562	-0.337287	0.000160
C197	C	0.904896	-0.003954	0.333494
C198	C	1.238229	0.329379	0.666827
C199	C	0.482884	-0.375524	0.000077
C200	C	0.816218	-0.042190	0.333410
C201	C	1.149551	0.291143	0.666743
C202	C	0.483401	-0.325106	0.000076
C203	C	0.816735	0.008227	0.333409
C204	C	1.150068	0.341560	0.666742
C205	C	0.527740	-0.305987	0.000109
C206	C	0.861074	0.027347	0.333443
C207	C	1.194407	0.360680	0.666776
C208	C	0.528253	-0.255585	0.000160
C209	C	0.861586	0.077748	0.333494
C210	C	1.194919	0.411082	0.666827
N211	N	0.572588	-0.236462	0.000176
N212	N	0.905922	0.096872	0.333510
N213	N	1.239255	0.430205	0.666843
C214	C	0.616411	-0.267753	0.000192
C215	C	0.949744	0.065581	0.333526
C216	C	1.283078	0.398914	0.666859
C217	C	0.523585	-0.714351	0.000095
C218	C	0.856918	-0.381017	0.333428
C219	C	1.190251	-0.047684	0.666761
C220	C	0.523072	-0.764765	0.000095
C221	C	0.856405	-0.431432	0.333428
C222	C	1.189738	-0.098099	0.666761
C223	C	0.611234	-0.776934	0.000128
C224	C	0.944567	-0.443600	0.333462
C225	C	1.277900	-0.110267	0.666795
C226	C	0.611747	-0.726519	0.000141
C227	C	0.945080	-0.393185	0.333474
C228	C	1.278413	-0.059852	0.666808
C229	C	0.567920	-0.695228	0.000111
C230	C	0.901254	-0.361894	0.333444
C231	C	1.234587	-0.028561	0.666777
C232	C	0.617485	-0.161885	0.000227
C233	C	0.950818	0.171449	0.333561
C234	C	1.284151	0.504782	0.666894
C235	C	0.617994	-0.111468	0.000251
C236	C	0.951327	0.221865	0.333584
C237	C	1.284660	0.555198	0.666917
C238	C	0.529832	-0.099304	0.000207
C239	C	0.863165	0.234029	0.333541
C240	C	1.196498	0.567363	0.666874
C241	C	0.529322	-0.149716	0.000193
C242	C	0.862656	0.183617	0.333527
C243	C	1.195989	0.516951	0.666860
C244	C	0.573153	-0.181006	0.000197
C245	C	0.906486	0.152328	0.333531
C246	C	1.239819	0.485661	0.666864
O247	O	0.491053	-0.224302	0.000203
O248	O	0.824386	0.109031	0.333536
O249	O	1.157720	0.442364	0.666870
O250	O	0.654162	-0.246850	0.000186
O251	O	0.987495	0.086483	0.333519
O252	O	1.320829	0.419817	0.666852
C253	C	0.614360	-0.469402	0.000144
C254	C	0.947693	-0.136068	0.333478
C255	C	1.281026	0.197265	0.666811
C256	C	0.570024	-0.488522	0.000113
C257	C	0.903357	-0.155188	0.333446
C258	C	1.236691	0.178145	0.666779
C259	C	0.526201	-0.457231	0.000097
C260	C	0.859535	-0.123897	0.333430
C261	C	1.192868	0.209436	0.666763
C262	C	0.569511	-0.538936	0.000113
C263	C	0.902844	-0.205603	0.333446
C264	C	1.236178	0.127730	0.666779
C265	C	0.613334	-0.570227	0.000128
C266	C	0.946667	-0.236894	0.333462
C267	C	1.280001	0.096439	0.666795
C268	C	0.657670	-0.551104	0.000144
C269	C	0.991003	-0.217771	0.333478
C270	C	1.324336	0.115563	0.666811
C271	C	0.658182	-0.500693	0.000160
C272	C	0.991516	-0.167359	0.333494
C273	C	1.324849	0.165974	0.666827
C274	C	0.481866	-0.476354	0.000081
C275	C	0.815199	-0.143021	0.333414
C276	C	1.148532	0.190313	0.666747
C277	C	0.481357	-0.526766	0.000067
C278	C	0.814690	-0.193433	0.333400
C279	C	1.148023	0.139901	0.666733
C280	C	0.525179	-0.558057	0.000083
C281	C	0.858513	-0.224724	0.333416
C282	C	1.191846	0.108610	0.666749
C283	C	0.658937	0.057693	0.000211
C284	C	0.992271	0.391026	0.333544
C285	C	1.325604	0.724359	0.666878
C286	C	0.712593	0.058245	0.000219
C287	C	1.045926	0.391579	0.333553
C288	C	1.379259	0.724912	0.666886
C289	C	0.566342	0.150288	0.000136
C290	C	0.899676	0.483621	0.333470
C291	C	1.233009	0.816955	0.666803
C292	C	0.566894	0.203944	0.000111
C293	C	0.900228	0.537277	0.333444
C294	C	1.233561	0.870610	0.666777
N295	N	0.584875	0.047512	0.456453
N296	N	0.918208	0.380846	0.789786
N297	N	1.251541	0.714179	1.123120
N298	N	0.556195	0.076250	-0.456092
N299	N	0.889528	0.409583	-0.122759
N300	N	1.222862	0.742916	0.210574
H301	H	0.412745	0.145452	0.000073
H302	H	0.746079	0.478785	0.333407
H303	H	1.079412	0.812118	0.666740
N304	N	0.313023	0.156106	0.000158
N305	N	0.646356	0.489440	0.333491
N306	N	0.979689	0.822773	0.666824
H307	H	0.332792	0.184267	0.000144
H308	H	0.666125	0.517600	0.333477
H309	H	0.999459	0.850933	0.666810
H310	H	0.288419	0.161242	-0.108396
H311	H	0.621753	0.494576	0.224937
H312	H	0.955086	0.827909	0.558271
H313	H	0.614157	0.018182	0.531684
H314	H	0.947490	0.351515	0.865017
H315	H	1.280823	0.684848	1.198350
H316	H	-0.271679	-0.021682	0.000243
H317	H	0.061654	0.311651	0.333576
H318	H	0.394987	0.644985	0.666910
H319	H	0.647851	-0.710955	0.000167
H320	H	0.981185	-0.377622	0.333500
H321	H	1.314518	-0.044289	0.666834
H322	H	0.693352	-0.576591	0.000165
H323	H	1.026685	-0.243257	0.333498
H324	H	1.360018	0.090076	0.666832
N325	N	-0.171960	-0.032340	0.000260
N326	N	0.161373	0.300993	0.333594
N327	N	0.494706	0.634326	0.666927
H328	H	-0.154187	-0.030676	-0.108305
H329	H	0.179146	0.302658	0.225029
H330	H	0.512480	0.635991	0.558362
H331	H	-0.147386	-0.037494	0.108898
H332	H	0.185947	0.295840	0.442231
H333	H	0.519280	0.629173	0.775565
N334	N	0.476314	-0.680604	0.000089
N335	N	0.809647	-0.347270	0.333422
N336	N	1.142980	-0.013937	0.666755
H337	H	0.471143	-0.655991	-0.108476
H338	H	0.804477	-0.322658	0.224858
H339	H	1.137810	0.010675	0.558191
H340	H	0.448182	-0.700408	0.000152
H341	H	0.781516	-0.367075	0.333486
H342	H	1.114849	-0.033742	0.666819
N343	N	0.517408	0.115101	0.444291
N344	N	0.850741	0.448434	0.777624
N345	N	1.184074	0.781767	1.110957
H346	H	0.523762	0.148359	0.476262
H347	H	0.857095	0.481692	0.809596
H348	H	1.190428	0.815026	1.142929
H349	H	0.518363	0.114113	0.313586
H350	H	0.851696	0.447447	0.646919
H351	H	1.185030	0.780780	0.980253
N352	N	0.433528	-0.547380	0.000051
N353	N	0.766862	-0.214047	0.333385
N354	N	1.100195	0.119287	0.666718
H355	H	0.410938	-0.532517	-0.108522
H356	H	0.744271	-0.199183	0.224811
H357	H	1.077604	0.134150	0.558144
H358	H	0.439887	-0.584064	0.000111
H359	H	0.773220	-0.250731	0.333445
H360	H	1.106554	0.082602	0.666778
N361	N	0.434597	-0.442608	0.000062
N362	N	0.767931	-0.109274	0.333395
N363	N	1.101264	0.224059	0.666729
H364	H	0.406437	-0.462376	0.000050
H365	H	0.739770	-0.129043	0.333383
H366	H	1.073103	0.204290	0.666716
H367	H	0.436301	-0.424852	0.108639
H368	H	0.769634	-0.091519	0.441973
H369	H	1.102967	0.241814	0.775306
H370	H	0.174753	0.187177	0.000102
H371	H	0.508086	0.520510	0.333436
H372	H	0.841420	0.853844	0.666769
H373	H	0.446778	-0.391081	0.000039
H374	H	0.780112	-0.057748	0.333372
H375	H	1.113445	0.275585	0.666705
H376	H	0.117568	-0.061871	0.000310
H377	H	0.450901	0.271462	0.333644
H378	H	0.784235	0.604796	0.666977
H379	H	0.654102	-0.095905	0.000283
H380	H	0.987435	0.237429	0.333616
H381	H	1.320768	0.570762	0.666949
N382	N	0.075037	0.197826	0.000224
N383	N	0.408370	0.531159	0.333557
N384	N	0.741704	0.864492	0.666891
H385	H	0.094808	0.225984	0.000235
H386	H	0.428142	0.559317	0.333568
H387	H	0.761475	0.892651	0.666902
H388	H	0.050429	0.202972	-0.108319
H389	H	0.383762	0.536306	0.225015
H390	H	0.717096	0.869639	0.558348
N391	N	0.658501	-0.810688	0.000151
N392	N	0.991834	-0.477355	0.333484
N393	N	1.325167	-0.144022	0.666817
H394	H	0.651444	-0.845525	0.000145
H395	H	0.984777	-0.512192	0.333478
H396	H	1.318110	-0.178859	0.666812
H397	H	0.674425	-0.801112	-0.108417
H398	H	1.007759	-0.467779	0.224916
H399	H	1.341092	-0.134445	0.558249
H400	H	0.653175	-0.187355	0.000224
H401	H	0.986508	0.145978	0.333557
H402	H	1.319842	0.479312	0.666890
H403	H	-0.202306	0.139202	0.000168
H404	H	0.131027	0.472536	0.333501
H405	H	0.464361	0.805869	0.666834
H406	H	-0.293771	0.138267	0.000181
H407	H	0.039562	0.471600	0.333515
H408	H	0.372896	0.804934	0.666848
H409	H	0.343365	-0.015431	0.000172
H410	H	0.676699	0.317902	0.333506
H411	H	1.010032	0.651235	0.666839
N412	N	0.217294	-0.072520	0.000332
N413	N	0.550627	0.260813	0.333666
N414	N	0.883960	0.594147	0.666999
H415	H	0.197528	-0.100683	0.000357
H416	H	0.530861	0.232650	0.333691
H417	H	0.864195	0.565984	0.667024
H418	H	0.235061	-0.070813	-0.108238
H419	H	0.568394	0.262521	0.225096
H420	H	0.901727	0.595854	0.558429
H421	H	0.434832	-0.014498	0.000167
H422	H	0.768165	0.318836	0.333500
H423	H	1.101499	0.652169	0.666833
H424	H	0.023519	0.185639	0.000147
H425	H	0.356852	0.518972	0.333480
H426	H	0.690185	0.852305	0.666813
H427	H	-0.067942	0.184703	0.000164
H428	H	0.265392	0.518036	0.333497
H429	H	0.598725	0.851369	0.666830
N430	N	0.475251	-0.785386	0.000106
N431	N	0.808584	-0.452053	0.333439
N432	N	1.141917	-0.118719	0.666773
H433	H	0.447570	-0.757909	0.000097
H434	H	0.780903	-0.424576	0.333430
H435	H	1.114236	-0.091242	0.666763
H436	H	0.469701	-0.802615	-0.108460
H437	H	0.803034	-0.469282	0.224873
H438	H	1.136368	-0.135949	0.558206
H439	H	-0.033679	-0.063402	0.000299
H440	H	0.299655	0.269932	0.333632
H441	H	0.632988	0.603265	0.666965
H442	H	0.057769	-0.062471	0.000292
H443	H	0.391102	0.270863	0.333626
H444	H	0.724436	0.604196	0.666959
H445	H	0.695826	-0.333896	0.000228
H446	H	1.029159	-0.000563	0.333562
H447	H	1.362493	0.332771	0.666895
H448	H	0.694895	-0.425343	0.000199
H449	H	1.028229	-0.092009	0.333532
H450	H	1.361562	0.241324	0.666865
H451	H	0.447712	-0.299631	0.000048
H452	H	0.781045	0.033702	0.333381
H453	H	1.114378	0.367036	0.666715
N454	N	0.481502	-0.170343	0.000181
N455	N	0.814836	0.162991	0.333515
N456	N	1.148169	0.496324	0.666848
H457	H	0.453819	-0.142868	0.000180
H458	H	0.787152	0.190465	0.333513
H459	H	1.120486	0.523798	0.666846
H460	H	0.475957	-0.187566	-0.108402
H461	H	0.809291	0.145767	0.224931
H462	H	1.142624	0.479101	0.558264
N463	N	0.706004	-0.480072	0.000177
N464	N	1.039337	-0.146739	0.333510
N465	N	1.372671	0.186594	0.666843
H466	H	0.711598	-0.462852	0.108747
H467	H	1.044931	-0.129519	0.442080
H468	H	1.378264	0.203815	0.775413
H469	H	0.733654	-0.507574	0.000115
H470	H	1.066987	-0.174241	0.333448
H471	H	1.400321	0.159093	0.666782
H472	H	0.494153	-0.073818	0.000201
H473	H	0.827486	0.259515	0.333534
H474	H	1.160819	0.592849	0.666867
