data_functionalizedCrystal
_audit_creation_method	'MofGen! by Chris Wilmer'
_symmetry_space_group_name_H-M	'P1'
_symmetry_Int_Tables_number	1
_symmetry_cell_setting	triclinic
loop_
_symmetry_equiv_pos_as_xyz
  x,y,z
_cell_length_a	29.839134
_cell_length_b	29.839131
_cell_length_c	29.839126
_cell_angle_alpha	90.031806
_cell_angle_beta	90.029638
_cell_angle_gamma	90.030088
loop_
_atom_site_label
_atom_site_type_symbol
_atom_site_fract_x
_atom_site_fract_y
_atom_site_fract_z
Zn1	Zn	0.686773	-0.178949	0.254101
Zn2	Zn	0.686703	-0.254070	0.178961
Zn3	Zn	0.611646	-0.178948	0.178971
Zn4	Zn	0.611612	-0.254046	0.254049
O5	O	0.649183	-0.216503	0.216521
O6	O	0.749631	-0.188925	0.244151
O7	O	0.676732	-0.244114	0.116095
O8	O	0.621655	-0.116081	0.188963
O9	O	0.749579	-0.244115	0.188946
O10	O	0.676851	-0.116082	0.244161
O11	O	0.621587	-0.188922	0.116102
O12	O	0.548774	-0.188899	0.188912
O13	O	0.621597	-0.244075	0.316923
O14	O	0.548749	-0.244074	0.244073
O15	O	0.676818	-0.188902	0.316961
O16	O	0.676699	-0.316934	0.188896
O17	O	0.621529	-0.316917	0.244063
C18	C	0.532461	-0.216484	0.216488
C19	C	0.482526	-0.216487	0.216485
C20	C	0.172879	-0.245275	0.245207
C21	C	-0.014794	-0.245288	0.245227
O22	O	-0.039062	-0.269743	0.269629
N23	N	-0.038259	-0.216520	0.216554
C24	C	-0.014803	-0.187744	0.187877
O25	O	-0.039067	-0.163273	0.163492
C26	C	0.172870	-0.187730	0.187859
C27	C	0.196332	-0.216503	0.216531
C28	C	0.196342	-0.274046	0.273877
C29	C	0.243257	-0.274044	0.273870
C30	C	0.266710	-0.245272	0.245193
C31	C	0.243248	-0.216501	0.216524
C32	C	0.196325	-0.158953	0.159184
C33	C	0.243246	-0.158951	0.159183
C34	C	0.266708	-0.187724	0.187855
C35	C	0.313616	-0.187727	0.187840
N36	N	0.337081	-0.216495	0.216513
C37	C	0.313628	-0.245268	0.245189
C38	C	-0.113333	-0.187755	0.187887
C39	C	-0.160251	-0.187759	0.187891
C40	C	-0.160239	-0.245302	0.245242
C41	C	-0.113320	-0.245300	0.245236
C42	C	-0.089868	-0.216523	0.216560
C43	C	0.412154	-0.245262	0.245172
C44	C	0.459074	-0.245259	0.245161
C45	C	0.459057	-0.187715	0.187812
C46	C	0.412142	-0.187719	0.187821
C47	C	0.388691	-0.216494	0.216505
O48	O	0.337913	-0.163281	0.163455
O49	O	0.337901	-0.269729	0.269577
C50	C	0.125964	-0.245277	0.245214
C51	C	0.102501	-0.216506	0.216545
C52	C	0.125954	-0.187734	0.187868
C53	C	0.055583	-0.216511	0.216548
C54	C	0.032131	-0.245283	0.245225
C55	C	0.055596	-0.274051	0.273898
C56	C	0.102511	-0.274049	0.273891
C57	C	0.102489	-0.158966	0.159196
C58	C	0.055573	-0.158971	0.159205
C59	C	0.032121	-0.187743	0.187881
C60	C	0.649115	-0.333226	0.216483
C61	C	0.649127	-0.383160	0.216482
C62	C	0.677917	-0.692769	0.245303
C63	C	0.677966	-0.880442	0.245330
O64	O	0.702378	-0.904678	0.269807
N65	N	0.649260	-0.903945	0.216570
C66	C	0.620537	-0.880527	0.187804
O67	O	0.596118	-0.904824	0.163346
C68	C	0.620486	-0.692855	0.187780
C69	C	0.649198	-0.669354	0.216538
C70	C	0.706626	-0.669269	0.274060
C71	C	0.706616	-0.622353	0.274051
C72	C	0.677896	-0.598938	0.245286
C73	C	0.649187	-0.622439	0.216529
C74	C	0.591761	-0.669438	0.159016
C75	C	0.591750	-0.622517	0.159013
C76	C	0.620462	-0.599016	0.187771
C77	C	0.620456	-0.552109	0.187755
N78	N	0.649163	-0.528606	0.216515
C79	C	0.677883	-0.552021	0.245280
C80	C	0.620566	-0.979058	0.187818
C81	C	0.620579	-1.025976	0.187824
C82	C	0.678008	-1.025888	0.245351
C83	C	0.677997	-0.978969	0.245342
C84	C	0.649273	-0.955555	0.216578
C85	C	0.677858	-0.453495	0.245259
C86	C	0.677846	-0.406575	0.245247
C87	C	0.620416	-0.406667	0.187722
C88	C	0.620429	-0.453583	0.187732
C89	C	0.649152	-0.476995	0.216505
O90	O	0.596054	-0.527844	0.163295
O91	O	0.702291	-0.527716	0.269742
C92	C	0.677928	-0.739685	0.245312
C93	C	0.649219	-0.763185	0.216556
C94	C	0.620499	-0.739770	0.187790
C95	C	0.649232	-0.810103	0.216561
C96	C	0.677952	-0.833518	0.245326
C97	C	0.706659	-0.810015	0.274086
C98	C	0.706648	-0.763100	0.274077
C99	C	0.591793	-0.763273	0.159031
C100	C	0.591806	-0.810189	0.159041
C101	C	0.620526	-0.833604	0.187807
C102	C	0.766362	-0.216523	0.216553
C103	C	0.816296	-0.216531	0.216567
C104	C	0.649211	-0.216486	0.333699
C105	C	0.649223	-0.216479	0.383633
C106	C	0.649264	-0.099325	0.216568
C107	C	0.649299	-0.049390	0.216589
C108	C	0.649181	-0.216488	0.099798
C109	C	0.649257	-0.216369	0.049864
C110	C	0.620518	-0.187695	0.693284
C111	C	0.620531	-0.187664	0.880957
O112	O	0.596103	-0.163236	0.905227
N113	N	0.649244	-0.216394	0.904419
C114	C	0.677954	-0.245137	0.880960
O115	O	0.702374	-0.269576	0.905222
C116	C	0.677939	-0.245170	0.693287
C117	C	0.649227	-0.216434	0.669828
C118	C	0.591808	-0.158963	0.669824
C119	C	0.591807	-0.158969	0.622908
C120	C	0.620516	-0.187708	0.599453
C121	C	0.649226	-0.216441	0.622912
C122	C	0.706647	-0.273914	0.669829
C123	C	0.706639	-0.273920	0.622908
C124	C	0.677927	-0.245185	0.599448
C125	C	0.677934	-0.245186	0.552541
N126	N	0.649220	-0.216456	0.529079
C127	C	0.620511	-0.187717	0.552535
C128	C	0.677961	-0.245117	0.979490
C129	C	0.677965	-0.245108	1.026408
C130	C	0.620541	-0.187636	1.026402
C131	C	0.620540	-0.187643	0.979483
C132	C	0.649248	-0.216386	0.956028
C133	C	0.620511	-0.187732	0.454009
C134	C	0.620514	-0.187740	0.407089
C135	C	0.677936	-0.245213	0.407100
C136	C	0.677936	-0.245204	0.454015
C137	C	0.649219	-0.216462	0.477469
O138	O	0.702345	-0.269605	0.528242
O139	O	0.596089	-0.163288	0.528264
C140	C	0.620519	-0.187689	0.740199
C141	C	0.649229	-0.216422	0.763659
C142	C	0.677938	-0.245161	0.740203
C143	C	0.649234	-0.216413	0.810577
C144	C	0.620525	-0.187674	0.834032
C145	C	0.591812	-0.158944	0.810570
C146	C	0.591811	-0.158950	0.763655
C147	C	0.706652	-0.273891	0.763665
C148	C	0.706651	-0.273882	0.810580
C149	C	0.677942	-0.245143	0.834036
H150	H	0.262338	-0.135514	0.135834
H151	H	-0.179342	-0.268729	0.268592
H152	H	0.568381	-0.688564	0.135597
C153	C	-0.087516	-0.276949	0.276779
N154	N	-0.068082	-0.300788	0.300540
C155	C	0.029789	-0.305699	0.305443
N156	N	0.010348	-0.329534	0.329203
H157	H	0.121579	-0.135536	0.135843
H158	H	0.729994	-0.603222	0.297470
H159	H	0.568358	-0.603455	0.135590
C160	C	0.738238	-0.305495	0.836381
N161	N	0.762026	-0.329309	0.855812
H162	H	0.121610	-0.297479	0.297238
C163	C	0.738234	-0.737255	0.305713
N164	N	0.762026	-0.717792	0.329544
C165	C	0.709560	-0.276723	0.953696
N166	N	0.733367	-0.300523	0.934269
H167	H	0.597204	-1.045106	0.164401
C168	C	0.588952	-0.156035	0.953682
N169	N	0.565157	-0.132228	0.934251
C170	C	0.709523	-0.276811	0.479821
N171	N	0.733311	-0.300622	0.499256
C172	C	0.709434	-0.380727	0.276883
N173	N	0.733225	-0.361260	0.300711
H174	H	0.597128	-0.164327	0.473099
C175	C	0.560231	-0.127331	0.836381
N176	N	0.536445	-0.103524	0.855823
H177	H	0.568426	-0.829319	0.135619
C178	C	-0.186055	-0.156109	0.156347
N179	N	-0.205488	-0.132267	0.132590
H180	H	0.568430	-0.135551	0.744558
H181	H	0.568425	-0.135572	0.603812
C182	C	0.386365	-0.276919	0.276723
N183	N	0.366941	-0.300767	0.300484
C184	C	0.560227	-0.127342	0.695618
N185	N	0.536441	-0.103519	0.715043
H186	H	0.568405	-0.744213	0.135607
H187	H	0.701351	-0.268502	1.045505
C188	C	0.588926	-0.156129	0.381286
N189	N	0.565134	-0.132321	0.361853
H190	H	0.701244	-0.472552	0.268692
C191	C	-0.087542	-0.156099	0.156337
N192	N	-0.068118	-0.132257	0.132570
C193	C	0.029770	-0.127315	0.127663
N194	N	0.010336	-0.103468	0.103909
C195	C	0.588959	-0.156025	1.052212
N196	N	0.565170	-0.132220	1.071654
H197	H	0.478175	-0.268691	0.268510
H198	H	0.730027	-0.297314	0.688922
C199	C	0.588960	-0.953308	0.156177
N200	N	0.565154	-0.933916	0.132346
H201	H	0.262357	-0.297473	0.297218
H202	H	0.701312	-0.268610	0.387993
C203	C	0.170526	-0.127294	0.127648
N204	N	0.151096	-0.103445	0.103895
C205	C	0.386332	-0.156071	0.156278
N206	N	0.366895	-0.132230	0.132522
C207	C	0.709580	-0.953123	0.276980
N208	N	0.733369	-0.933658	0.300812
C209	C	0.709598	-1.051653	0.276995
N210	N	0.733387	-1.071061	0.300831
C211	C	0.738224	-0.305539	0.597111
N212	N	0.762016	-0.329352	0.577681
C213	C	0.484864	-0.156062	0.156275
N214	N	0.504304	-0.132216	0.132525
C215	C	0.588848	-0.479434	0.156095
N216	N	0.565057	-0.498902	0.132267
H217	H	0.730013	-0.688328	0.297486
C218	C	0.588824	-0.380902	0.156083
N219	N	0.565026	-0.361494	0.132256
H220	H	0.730045	-0.829088	0.297506
H221	H	0.730029	-0.297296	0.744572
C222	C	0.170551	-0.305705	0.305421
N223	N	0.151129	-0.329557	0.329178
