data_functionalizedCrystal
_audit_creation_method	'MofGen! by Chris Wilmer'
_symmetry_space_group_name_H-M	'P1'
_symmetry_Int_Tables_number	1
_symmetry_cell_setting	triclinic
loop_
_symmetry_equiv_pos_as_xyz
  x,y,z
_cell_length_a	31.640172
_cell_length_b	23.096457
_cell_length_c	23.096457
_cell_angle_alpha	60.007119
_cell_angle_beta	90.017156
_cell_angle_gamma	60.002549
loop_
_atom_site_label
_atom_site_type_symbol
_atom_site_fract_x
_atom_site_fract_y
_atom_site_fract_z
Zr1	Zr	0.407215	0.633639	-0.075885
O2	O	0.339718	0.754433	-0.168343
O3	O	0.427901	0.512853	-0.047545
O4	O	0.427888	0.633637	-0.168331
O5	O	0.339747	0.633648	0.047725
O6	O	0.497445	0.633625	-0.168319
O7	O	0.339730	0.633650	-0.047557
O8	O	0.497467	0.417564	0.047747
O9	O	0.339725	0.849708	-0.168340
O10	O	0.488640	0.562521	-0.035445
O11	O	0.436742	0.562529	0.035654
O12	O	0.436728	0.704736	-0.106557
O13	O	0.384831	0.704744	-0.035459
Zr14	Zr	0.518177	0.633617	0.076099
Zr15	Zr	0.518151	0.633619	-0.075865
Zr16	Zr	0.407242	0.633636	0.076079
Zr17	Zr	0.407226	0.785591	-0.075880
Zr18	Zr	0.518166	0.481665	0.076094
O19	O	0.497492	0.754403	0.047758
O20	O	0.497454	0.754406	-0.168314
O21	O	0.339756	0.754430	0.047730
O22	O	0.585674	0.512822	0.168557
O23	O	0.585636	0.512826	-0.047516
O24	O	0.427938	0.512849	0.168528
O25	O	0.585645	0.633607	-0.047512
O26	O	0.497504	0.633619	0.168545
O27	O	0.427947	0.633631	0.168532
O28	O	0.585662	0.633606	0.047770
O29	O	0.427904	0.849693	-0.168324
O30	O	0.497488	0.417562	0.168538
O31	O	0.585667	0.417547	0.168554
O32	O	0.585646	0.417549	0.047763
O33	O	0.339746	0.849706	-0.047549
O34	O	0.427925	0.849691	-0.047533
O35	O	0.488664	0.562519	0.106771
O36	O	0.540562	0.562511	0.035672
O37	O	0.488650	0.704726	-0.035440
O38	O	0.436753	0.704734	0.035659
C39	C	0.462682	0.443559	0.000100
C40	C	0.462677	0.379051	0.000098
C41	C	0.501007	0.296258	0.052592
C42	C	0.501010	0.235636	0.052599
C43	C	0.462688	0.257813	0.000100
C44	C	0.424353	0.340620	-0.052398
C45	C	0.424347	0.401239	-0.052399
N46	N	0.451086	0.201706	-0.062148
N47	N	0.451094	0.144116	-0.062145
C48	C	0.462702	0.075174	0.000101
N49	N	0.474311	0.065987	0.062347
N50	N	0.474305	0.123580	0.062343
C51	C	0.462690	0.192087	0.000096
C52	C	0.501037	-0.073356	0.052607
C53	C	0.501037	-0.133977	0.052614
C54	C	0.424382	-0.028991	-0.052388
C55	C	0.424380	0.031627	-0.052390
C56	C	0.462710	0.009440	0.000107
C57	C	0.323933	0.633652	0.000082
C58	C	0.276838	0.633660	0.000073
C59	C	0.011929	0.559385	0.037241
C60	C	-0.165056	0.559371	0.037255
O61	O	-0.164897	0.496237	0.068850
N62	N	-0.214283	0.633605	0.000134
C63	C	-0.219263	0.707848	-0.036989
O64	O	-0.265195	0.770989	-0.068556
C65	C	-0.042278	0.707862	-0.036998
C66	C	0.006948	0.633623	0.000119
C67	C	0.061153	0.485152	0.074356
C68	C	0.105397	0.485156	0.074349
C69	C	0.100416	0.559394	0.037227
C70	C	0.051191	0.633627	0.000112
C71	C	-0.047259	0.782104	-0.074117
C72	C	-0.003008	0.782101	-0.074115
C73	C	0.046219	0.707862	-0.036997
C74	C	0.090454	0.707868	-0.037017
N75	N	0.139681	0.633634	0.000104
C76	C	0.144662	0.559397	0.037226
C77	C	-0.312180	0.707836	-0.036982
C78	C	-0.356427	0.707833	-0.036981
C79	C	-0.302216	0.559355	0.037264
C80	C	-0.257970	0.559359	0.037258
C81	C	-0.262953	0.633602	0.000138
C82	C	0.237574	0.559412	0.037208
C83	C	0.281819	0.559422	0.037195
C84	C	0.227605	0.707900	-0.037047
C85	C	0.183364	0.707889	-0.037038
C86	C	0.188352	0.633639	0.000095
O87	O	0.090334	0.770970	-0.068589
O88	O	0.190598	0.496266	0.068801
C89	C	-0.032314	0.559381	0.037248
C90	C	-0.081539	0.633614	0.000133
C91	C	-0.086520	0.707851	-0.036989
C92	C	-0.125785	0.633611	0.000134
C93	C	-0.120804	0.559373	0.037256
C94	C	-0.071577	0.485139	0.074377
C95	C	-0.027333	0.485144	0.074370
C96	C	-0.135747	0.782086	-0.074110
C97	C	-0.179988	0.782075	-0.074100
C98	C	-0.175007	0.707838	-0.036978
C99	C	0.601459	0.633604	0.000132
C100	C	0.648554	0.633596	0.000141
C101	C	0.462663	0.633631	-0.189977
C102	C	0.462652	0.633632	-0.254489
C103	C	0.462710	0.823697	0.000114
C104	C	0.462715	0.888204	0.000116
C105	C	0.435557	0.707865	-0.321913
C106	C	0.435570	0.707866	-0.382529
C107	C	0.462671	0.633630	-0.375718
C108	C	0.489772	0.559388	-0.308282
C109	C	0.489762	0.559389	-0.247668
N110	N	0.458928	0.578377	-0.443276
N111	N	0.458934	0.578381	-0.500860
C112	C	0.462703	0.633623	-0.558343
N113	N	0.466455	0.688873	-0.556074
N114	N	0.466446	0.688871	-0.498486
C115	C	0.462685	0.633621	-0.441440
C116	C	0.435621	0.707862	-0.691497
C117	C	0.435638	0.707860	-0.752113
C118	C	0.489837	0.559380	-0.677864
C119	C	0.489823	0.559384	-0.617250
C120	C	0.462713	0.633627	-0.624071
C121	C	0.462729	0.633624	0.190190
C122	C	0.462740	0.633623	0.254703
C123	C	0.601446	0.443535	0.000125
C124	C	0.648536	0.379019	0.000132
C125	C	0.462715	0.443555	0.190184
C126	C	0.462722	0.379047	0.254694
C127	C	0.601479	0.443532	0.190209
C128	C	0.648580	0.379015	0.254728
C129	C	0.323914	0.823724	-0.189995
C130	C	0.276812	0.888241	-0.254514
C131	C	0.323947	0.823721	0.000088
C132	C	0.276856	0.888236	0.000082
C133	C	0.462677	0.823700	-0.189970
C134	C	0.462671	0.888209	-0.254480
C135	C	0.643547	0.348727	-0.036994
C136	C	0.687789	0.288116	-0.037002
C137	C	0.737019	0.257794	0.000120
C138	C	0.742007	0.288092	0.037247
C139	C	0.697766	0.348706	0.037251
C140	C	0.489827	0.348747	0.322118
C141	C	0.489832	0.288143	0.382738
C142	C	0.462733	0.257835	0.375933
C143	C	0.435623	0.288140	0.308502
C144	C	0.435617	0.348748	0.247883
C145	C	0.697794	0.348713	0.247914
C146	C	0.742055	0.288101	0.308531
C147	C	0.737101	0.257788	0.375960
C148	C	0.687882	0.288095	0.382773
C149	C	0.643622	0.348710	0.322157
C150	C	0.227598	0.918550	-0.247700
C151	C	0.183337	0.979181	-0.308317
C152	C	0.188291	1.009497	-0.375747
C153	C	0.237510	0.979186	-0.382559
C154	C	0.281770	0.918560	-0.321943
C155	C	0.281845	0.918535	0.037202
C156	C	0.237603	0.979163	0.037193
C157	C	0.188373	1.009487	0.000069
C158	C	0.183385	0.979186	-0.037056
C159	C	0.227627	0.918563	-0.037051
C160	C	0.489775	0.918498	-0.247652
C161	C	0.489779	0.979102	-0.308261
C162	C	0.462675	1.009421	-0.375697
C163	C	0.435570	0.979126	-0.382523
C164	C	0.435570	0.918519	-0.321915
H165	H	0.393133	0.468656	-0.095146
H166	H	-0.316247	0.768297	-0.067215
C167	C	0.368027	0.794011	-0.666437
C168	C	0.405829	0.789467	-0.698988
H169	H	0.349633	0.844393	-0.671068
H170	H	0.384160	0.749805	-0.617610
H171	H	0.344645	0.790932	-0.688569
H172	H	0.429213	0.792540	-0.676852
H173	H	0.389695	0.833686	-0.747825
H174	H	0.143265	1.003850	-0.302756
H175	H	0.683856	0.263405	0.437682
C176	C	0.219311	0.997809	0.129775
C177	C	0.243094	1.012450	0.078013
H178	H	0.222700	1.018361	0.154973
H179	H	0.235441	0.940589	0.161800
H180	H	0.183659	1.024560	0.107652
H181	H	0.278747	0.985694	0.100137
H182	H	0.226965	1.069681	0.045983
H183	H	0.223558	0.893896	-0.067276
H184	H	-0.298167	0.498908	0.067486
C185	C	0.381988	0.854629	-0.401397
C186	C	0.405765	0.789472	-0.329411
H187	H	0.363600	0.905009	-0.406024
H188	H	0.358604	0.851546	-0.423511
H189	H	0.407638	0.851528	-0.423474
H190	H	0.380115	0.792570	-0.307335
H191	H	0.429151	0.792557	-0.307288
C192	C	0.833960	0.195210	0.368471
C193	C	0.796153	0.254804	0.301032
H194	H	0.867356	0.174664	0.363838
H195	H	0.830094	0.151689	0.393656
H196	H	0.830076	0.218867	0.393649
H197	H	0.800035	0.231146	0.275855
H198	H	0.800021	0.298333	0.275836
H199	H	0.321901	0.498965	0.067423
H200	H	0.413546	0.373409	0.192986
H201	H	0.701837	0.373385	0.193015
C202	C	0.543391	0.342672	0.401598
C203	C	0.519608	0.382066	0.329611
H204	H	0.561771	0.363249	0.406226
H205	H	0.566783	0.285452	0.423701
H206	H	0.517745	0.352612	0.423684
H207	H	0.545254	0.372122	0.307526
H208	H	0.496214	0.439300	0.307498
C209	C	0.485099	0.473265	-0.506054
C210	C	0.519595	0.477781	-0.543134
H211	H	0.503481	0.422885	-0.460297
H212	H	0.459465	0.476364	-0.531272
H213	H	0.468964	0.517477	-0.501437
H214	H	0.535728	0.433571	-0.547756
H215	H	0.545238	0.474673	-0.517910
C216	C	0.411498	1.072065	-0.508400
C217	C	0.405774	1.012467	-0.456653
H218	H	0.393098	1.092655	-0.554164
H219	H	0.447143	1.048403	-0.503073
H220	H	0.398127	1.115564	-0.503062
H221	H	0.419148	0.968965	-0.461987
H222	H	0.370121	1.036128	-0.461982
C223	C	0.815152	0.220440	-0.029172
C224	C	0.785648	0.191159	0.000118
H225	H	0.845169	0.179301	-0.029176
H226	H	0.825171	0.234133	-0.001747
H227	H	0.795124	0.267738	-0.076463
H228	H	0.805675	0.143864	0.047411
H229	H	0.775629	0.177455	-0.027307
H230	H	0.773145	0.208431	0.425312
H231	H	0.511909	0.263476	0.437637
H232	H	0.413505	0.768317	-0.437436
C233	C	0.484127	0.121500	0.442573
C234	C	0.462745	0.191210	0.442569
H235	H	0.484133	0.080370	0.483712
H236	H	0.518643	0.101637	0.442571
H237	H	0.464099	0.135215	0.401443
H238	H	0.482775	0.177496	0.483697
H239	H	0.428224	0.211075	0.442578
H240	H	-0.067528	0.424692	0.104599
H241	H	0.152353	1.058850	0.000071
H242	H	0.511846	0.893821	-0.192748
C243	C	0.535035	0.342560	0.099220
C244	C	0.543133	0.271871	0.110303
H245	H	0.561044	0.327503	0.134849
H246	H	0.501959	0.374053	0.101392
H247	H	0.536620	0.374059	0.053907
H248	H	0.541544	0.240375	0.155615
H249	H	0.576218	0.240365	0.108138
H250	H	0.143296	1.003885	-0.067281
H251	H	0.223555	0.893870	-0.192801
H252	H	0.511850	1.003762	-0.302689
C253	C	-0.261178	0.868213	-0.067661
C254	C	-0.234098	0.863686	-0.114904
H255	H	-0.294582	0.918593	-0.092849
H256	H	-0.242778	0.865124	-0.032545
H257	H	-0.264545	0.823999	-0.045559
H258	H	-0.230728	0.907896	-0.137003
H259	H	-0.252503	0.866783	-0.150033
C260	C	0.373743	0.825601	0.070185
C261	C	0.335956	0.885213	0.078010
H262	H	0.407147	0.805032	0.095382
H263	H	0.369854	0.849244	0.021358
H264	H	0.369858	0.782090	0.088521
H265	H	0.339838	0.928727	0.059669
H266	H	0.339847	0.861570	0.126847
H267	H	0.413560	0.263454	0.302972
H268	H	0.603552	0.373374	0.327715
H269	H	0.603465	0.373415	-0.067232
C270	C	0.095396	1.096322	-0.422143
C271	C	0.139636	1.076132	-0.442373
H272	H	0.065358	1.137454	-0.463275
H273	H	0.095412	1.116186	-0.394726
H274	H	0.095411	1.049020	-0.394719
H275	H	0.139623	1.123433	-0.469793
H276	H	0.139620	1.056271	-0.469802
H277	H	0.462680	1.058772	-0.425042
C278	C	0.193705	1.072114	-0.508440
C279	C	0.242950	1.012508	-0.456682
H280	H	0.197064	1.092679	-0.554200
H281	H	0.175335	1.115620	-0.503118
H282	H	0.175323	1.048460	-0.503107
H283	H	0.261331	1.036163	-0.462011
H284	H	0.261328	0.968994	-0.462006
H285	H	0.683718	0.263455	-0.067236
H286	H	0.532249	-0.201393	0.095365
H287	H	0.413496	0.893864	-0.327484
C288	C	0.373675	0.825649	-0.262002
C289	C	0.335866	0.885258	-0.329440
H290	H	0.407070	0.805103	-0.266635
H291	H	0.369805	0.782131	-0.236825
H292	H	0.369795	0.849294	-0.236813
H293	H	0.339744	0.861612	-0.354626
H294	H	0.339738	0.928784	-0.354626
C295	C	0.576786	0.137945	0.156381
C296	C	0.543145	0.144617	0.110303
H297	H	0.602799	0.081755	0.192002
H298	H	0.557863	0.163764	0.177942
H299	H	0.592517	0.163781	0.130447
H300	H	0.527411	0.118787	0.136235
H301	H	0.562070	0.118787	0.088740
H302	H	0.532246	-0.091423	0.095357
C303	C	0.390317	0.294308	-0.099006
C304	C	0.382221	0.364999	-0.110095
H305	H	0.364303	0.309363	-0.134625
H306	H	0.388745	0.262806	-0.053691
H307	H	0.423392	0.262820	-0.101195
H308	H	0.349147	0.396485	-0.107901
H309	H	0.383788	0.396515	-0.155422
H310	H	0.782096	0.263395	0.067470
C311	C	0.755810	0.342564	0.110656
C312	C	0.703255	0.381989	0.078073
H313	H	0.759200	0.363106	0.135863
H314	H	0.771930	0.352509	0.075531
H315	H	0.771939	0.285337	0.142682
H316	H	0.687126	0.439215	0.046044
H317	H	0.687128	0.372050	0.113202
H318	H	0.393179	-0.010933	-0.095133
H319	H	0.393171	0.099043	-0.095140
H320	H	0.241643	0.498950	0.067445
H321	H	0.065218	0.424696	0.104589
C322	C	0.165223	0.358609	0.187138
C323	C	0.159504	0.403549	0.115159
H324	H	0.198626	0.308227	0.212335
H325	H	0.139582	0.347996	0.192440
H326	H	0.161347	0.389122	0.205455
H327	H	0.163376	0.373038	0.096841
H328	H	0.185152	0.414160	0.109853
C329	C	-0.208841	0.412599	0.110648
C330	C	-0.203862	0.477754	0.078067
H331	H	-0.175438	0.362218	0.135847
H332	H	-0.227231	0.415687	0.075522
H333	H	-0.227226	0.415698	0.142680
H334	H	-0.185480	0.474659	0.046031
H335	H	-0.185464	0.474664	0.113196
H336	H	-0.087334	0.842557	-0.104341
C337	C	-0.405555	0.854594	-0.110365
C338	C	-0.410534	0.789439	-0.077788
H339	H	-0.438958	0.904975	-0.135552
H340	H	-0.387178	0.851506	-0.142401
H341	H	-0.387157	0.851495	-0.075233
H342	H	-0.428929	0.792534	-0.112921
H343	H	-0.428918	0.792529	-0.045750
H344	H	0.511827	0.498938	-0.192767
H345	H	-0.007071	0.842559	-0.104333
C346	C	0.382054	0.854624	-0.819412
C347	C	0.405852	0.789463	-0.826231
H348	H	0.363662	0.905002	-0.865171
H349	H	0.407688	0.851539	-0.794210
H350	H	0.358665	0.851528	-0.794239
H351	H	0.429244	0.792556	-0.851399
H352	H	0.380215	0.792550	-0.851443
H353	H	0.143280	0.768341	-0.067271
C354	C	0.271370	0.773816	-0.070005
C355	C	0.222137	0.789499	-0.077847
H356	H	0.267994	0.824193	-0.095187
H357	H	0.289742	0.743324	-0.088340
H358	H	0.289762	0.743304	-0.021168
H359	H	0.203746	0.820005	-0.126685
H360	H	0.203758	0.820004	-0.059516
H361	H	0.012746	0.424690	0.104597
C362	C	-0.117438	0.868246	-0.067693
C363	C	-0.141231	0.863696	-0.114919
H364	H	-0.120831	0.918636	-0.092892
H365	H	-0.081791	0.824049	-0.045599
H366	H	-0.133565	0.865151	-0.032567
H367	H	-0.125102	0.866785	-0.150043
H368	H	-0.176885	0.907905	-0.137024
C369	C	0.513799	0.493457	-0.368231
C370	C	0.519560	0.477785	-0.300790
H371	H	0.532189	0.443075	-0.363602
H372	H	0.527157	0.523975	-0.393439
H373	H	0.478144	0.523938	-0.393385
H374	H	0.555216	0.447309	-0.275638
H375	H	0.506205	0.447254	-0.275572
C376	C	0.513865	0.493451	-0.737810
C377	C	0.519627	0.477777	-0.670369
H378	H	0.532255	0.443071	-0.733183
H379	H	0.527221	0.523972	-0.763019
H380	H	0.478209	0.523931	-0.762963
H381	H	0.555282	0.447303	-0.645218
H382	H	0.506273	0.447244	-0.645150
