data_functionalizedCrystal
_audit_creation_method	'MofGen! by Chris Wilmer'
_symmetry_space_group_name_H-M	'P1'
_symmetry_Int_Tables_number	1
_symmetry_cell_setting	triclinic
loop_
_symmetry_equiv_pos_as_xyz
  x,y,z
_cell_length_a	27.732048
_cell_length_b	10.723024
_cell_length_c	9.798715
_cell_angle_alpha	89.996609
_cell_angle_beta	89.995372
_cell_angle_gamma	96.444738
loop_
_atom_site_label
_atom_site_type_symbol
_atom_site_fract_x
_atom_site_fract_y
_atom_site_fract_z
O1	O	-0.067789	1.654382	-0.113456
O2	O	-0.074278	1.290961	-0.113458
O3	O	-0.000707	1.483959	-0.113475
O4	O	-0.141360	1.461384	-0.113439
O5	O	-0.000707	1.483944	0.113507
O6	O	-0.074278	1.290947	0.113524
O7	O	-0.067789	1.654368	0.113526
Zn8	Zn	-0.071033	1.472655	0.149563
Zn9	Zn	-0.071033	1.472674	-0.149496
O10	O	-0.141360	1.461370	0.113543
C11	C	-0.073806	1.244474	0.000032
C12	C	-0.072393	1.105978	0.000030
C13	C	-0.113559	1.029292	0.000040
C14	C	-0.112100	0.886149	0.000037
C15	C	-0.159370	1.461851	0.000056
C16	C	-0.213034	1.463278	0.000070
C17	C	-0.551196	1.358212	0.000003
C18	C	-0.752889	1.363506	-0.000013
O19	O	-0.783548	1.267431	-0.000073
N20	N	-0.772723	1.477946	-0.000010
C21	C	-0.742131	1.591070	-0.000012
O22	O	-0.763629	1.688529	-0.000025
C23	C	-0.540439	1.585774	-0.000006
C24	C	-0.520608	1.471327	0.000005
C25	C	-0.531364	1.243774	0.000013
C26	C	-0.480944	1.242452	0.000024
C27	C	-0.450356	1.355567	0.000026
C28	C	-0.470188	1.470005	0.000017
C29	C	-0.509848	1.698897	-0.000018
C30	C	-0.459423	1.697563	-0.000020
C31	C	-0.439591	1.583116	-0.000009
C32	C	-0.389179	1.581798	0.000030
N33	N	-0.369345	1.467359	0.000027
C34	C	-0.399933	1.354243	0.000026
C35	C	-0.848022	1.593842	-0.000013
C36	C	-0.898445	1.595166	-0.000012
C37	C	-0.909199	1.367602	-0.000015
C38	C	-0.858776	1.366279	-0.000006
C39	C	-0.828188	1.479402	-0.000016
C40	C	-0.294047	1.351475	0.000051
C41	C	-0.243622	1.350163	0.000068
C42	C	-0.232872	1.577726	0.000064
C43	C	-0.283293	1.579039	0.000054
C44	C	-0.313879	1.465903	0.000043
O45	O	-0.358492	1.677822	0.000075
O46	O	-0.378426	1.256798	0.000007
C47	C	-0.601616	1.359534	-0.000008
C48	C	-0.621448	1.473972	-0.000018
C49	C	-0.590860	1.587087	-0.000016
C50	C	-0.671871	1.475296	-0.000017
C51	C	-0.702459	1.362181	-0.000019
C52	C	-0.682625	1.247741	-0.000022
C53	C	-0.632205	1.246419	-0.000010
C54	C	-0.610694	1.701527	-0.000013
C55	C	-0.661115	1.702840	-0.000023
C56	C	-0.691703	1.589725	-0.000025
C57	C	0.017303	1.483478	0.000008
C58	C	0.070967	1.482051	-0.000014
C59	C	-0.068261	1.700855	0.000033
C60	C	-0.069674	1.839351	0.000026
N61	N	-0.071033	1.472651	0.353663
N62	N	-0.071030	1.472687	-0.353595
C63	C	-0.040006	1.553691	0.421433
C64	C	-0.040005	1.553711	0.578595
H65	H	-0.036068	1.065659	-0.000014
N66	N	-0.940443	1.252044	-0.000042
N67	N	-0.922735	1.149865	-0.000061
H68	H	-0.944801	1.068255	-0.000090
H69	H	-0.149884	1.069611	0.000057
H70	H	-0.147342	0.820258	0.000040
H71	H	-0.227478	1.256962	0.000083
H72	H	-0.318945	1.259349	0.000041
H73	H	-0.013443	1.623098	0.636875
N74	N	-0.025464	0.922011	0.000030
N75	N	-0.016430	0.998147	0.095708
H76	H	0.014794	1.056536	0.095714
H77	H	-0.013442	1.623054	0.363104
N78	N	-0.460699	1.125535	0.000027
N79	N	-0.488023	1.024557	0.000018
H80	H	-0.473729	0.941977	0.000013
N81	N	-0.104364	1.385658	0.573315
N82	N	-0.134430	1.424958	0.493562
H83	H	-0.157973	1.363495	0.441933
N84	N	-0.104362	1.385625	0.426805
N85	N	-0.133533	1.309436	0.363170
H86	H	-0.157073	1.247970	0.414822
N87	N	-0.713868	1.132184	-0.000046
N88	N	-0.696161	1.030004	-0.000055
H89	H	-0.718228	0.948395	-0.000082
H90	H	-0.525986	1.792092	-0.000028
H91	H	-0.556265	1.151657	0.000007
N92	N	-0.838529	1.249364	0.000014
N93	N	-0.865851	1.148383	0.000024
H94	H	-0.851554	1.065806	0.000039
H95	H	-0.914587	1.688360	0.000000
H96	H	-0.434520	1.789684	-0.000035
N97	N	-0.816789	1.709417	0.000003
N98	N	-0.818832	1.785732	0.095689
H99	H	-0.796776	1.867360	0.095708
N100	N	-0.303555	1.695938	0.000087
N101	N	-0.294331	1.771962	0.095775
H102	H	-0.308639	1.854524	0.095792
N103	N	-0.201628	1.693276	0.000077
N104	N	-0.203658	1.769612	0.095748
H105	H	-0.181592	1.851221	0.095751
H106	H	-0.616063	1.153225	0.000000
H107	H	-0.585794	1.793641	-0.000013
N108	N	-0.681369	1.819754	-0.000004
N109	N	-0.672140	1.895787	0.095673
H110	H	-0.686442	1.978356	0.095679
