data_functionalizedCrystal
_audit_creation_method	'MofGen! by Chris Wilmer'
_symmetry_space_group_name_H-M	'P1'
_symmetry_Int_Tables_number	1
_symmetry_cell_setting	triclinic
loop_
_symmetry_equiv_pos_as_xyz
  x,y,z
_cell_length_a	19.288840
_cell_length_b	16.974813
_cell_length_c	17.766277
_cell_angle_alpha	86.339073
_cell_angle_beta	89.983415
_cell_angle_gamma	83.260449
loop_
_atom_site_label
_atom_site_type_symbol
_atom_site_fract_x
_atom_site_fract_y
_atom_site_fract_z
O1	O	0.921541	0.098544	-0.068721
O2	O	0.719302	0.111871	-0.069507
O3	O	0.826059	-0.009917	-0.062099
O4	O	0.814785	0.220332	-0.076130
O5	O	0.826040	-0.009923	0.063090
O6	O	0.719284	0.111865	0.055682
O7	O	0.921523	0.098538	0.056467
Cu8	Cu	0.820401	0.105201	0.067505
Cu9	Cu	0.820424	0.105208	-0.080545
O10	O	0.814766	0.220326	0.049059
C11	C	0.693415	0.111442	-0.006883
C12	C	0.616309	0.110165	-0.006795
C13	C	0.580114	0.109555	-0.075000
C14	C	0.507665	0.108346	-0.074936
C15	C	0.471415	0.107731	-0.006662
C16	C	0.507618	0.108346	0.061552
C17	C	0.580064	0.109563	0.061485
C18	C	0.361993	0.059487	0.048547
C19	C	0.289548	0.058265	0.048611
C20	C	0.247965	0.103981	-0.006453
C21	C	0.278836	0.150909	-0.061593
C22	C	0.351283	0.152126	-0.061660
C23	C	0.392859	0.106412	-0.006582
C24	C	0.133213	0.102061	-0.074593
C25	C	0.060762	0.100857	-0.074526
C26	C	0.060717	0.100849	0.061965
C27	C	0.133165	0.102061	0.061895
C28	C	0.169409	0.102663	-0.006385
C29	C	0.825621	-0.039377	0.002289
C30	C	0.824334	-0.127149	0.007634
C31	C	0.823741	-0.168377	-0.058095
C32	C	0.822527	-0.250848	-0.053071
C33	C	0.821911	-0.292090	0.017683
C34	C	0.822502	-0.250856	0.083417
C35	C	0.823711	-0.168386	0.078392
C36	C	0.818291	-0.538738	0.040029
C37	C	0.817084	-0.621214	0.045049
C38	C	0.817108	-0.621200	-0.091440
C39	C	0.818321	-0.538729	-0.096458
C40	C	0.818908	-0.497502	-0.030724
N41	N	0.820673	-0.376388	0.022820
N42	N	0.820141	-0.413204	-0.035862
C43	C	0.947410	0.098966	-0.006158
C44	C	1.024516	0.100244	-0.006251
C45	C	0.815204	0.249786	-0.015331
C46	C	0.816491	0.337558	-0.020680
N47	N	0.820391	0.105195	0.171636
N48	N	0.820440	0.105207	-0.184675
C49	C	0.867678	0.051294	0.214302
C50	C	0.867682	0.051290	0.293104
C51	C	0.820406	0.105201	0.329236
C52	C	0.773109	0.159107	0.286561
C53	C	0.773102	0.159104	0.207761
C54	C	0.811236	0.177247	0.449685
C55	C	0.811248	0.177251	0.528483
C56	C	0.820424	0.105211	0.572282
C57	C	0.829602	0.033163	0.537273
C58	C	0.829595	0.033160	0.458473
C59	C	0.820408	0.105210	0.414681
C60	C	0.867718	0.051301	0.700394
C61	C	0.867717	0.051296	0.779198
C62	C	0.773148	0.159120	0.772653
C63	C	0.773146	0.159118	0.693851
C64	C	0.820434	0.105209	0.657727
H65	H	0.162723	0.102560	-0.130191
C66	C	0.467844	0.107669	-0.149969
N67	N	0.437853	0.107157	-0.206485
H68	H	0.376416	0.190338	-0.106555
C69	C	0.721175	0.218471	0.646914
N70	N	0.682044	0.263197	0.611559
C71	C	0.816404	-0.666579	0.122887
N72	N	0.815893	-0.700747	0.181512
C73	C	0.818998	-0.493369	-0.174293
N74	N	0.819511	-0.459204	-0.232920
C75	C	0.919711	-0.008000	0.340045
N76	N	0.958902	-0.052654	0.375398
C77	C	0.816454	-0.666556	-0.163742
N78	N	0.815958	-0.700717	-0.218203
H79	H	0.824246	-0.134804	-0.115711
C80	C	0.818940	-0.493400	0.112339
N81	N	0.819429	-0.459248	0.166807
C82	C	0.839682	-0.046091	0.419965
N83	N	0.847275	-0.105784	0.390962
C84	C	0.233099	0.201206	-0.122165
N85	N	0.198647	0.239089	-0.167785
H86	H	0.906222	0.007399	0.813937
H87	H	0.824184	-0.134818	0.131916
H88	H	0.609534	0.110060	0.117028
C89	C	0.821820	-0.296225	0.161247
N90	N	0.821307	-0.330396	0.219871
C91	C	0.919691	-0.008015	0.174570
N92	N	0.958865	-0.052689	0.144643
H93	H	0.837074	-0.025499	0.572932
C94	C	0.801145	0.256504	0.566986
N95	N	0.793531	0.316200	0.595984
H96	H	0.803752	0.235915	0.414029
H97	H	0.734615	0.203001	0.315984
H98	H	0.906222	0.007403	0.670981
H99	H	0.734594	0.202997	0.173021
C100	C	0.721144	0.218424	0.812394
N101	N	0.681972	0.263093	0.842331
C102	C	0.020948	0.100182	-0.149560
N103	N	-0.009039	0.099671	-0.206078
C104	C	0.619979	0.110215	-0.150111
N105	N	0.650006	0.110712	-0.206685
C106	C	0.255595	0.006651	0.109271
N107	N	0.230023	-0.032222	0.154966
C108	C	0.172982	0.102721	0.136928
N109	N	0.202971	0.103219	0.193446
C110	C	0.020846	0.100174	0.137068
N111	N	-0.009189	0.099667	0.193637
H112	H	0.395845	0.022257	0.093390
C113	C	0.467741	0.107669	0.136654
N114	N	0.437706	0.107160	0.193223
C115	C	0.821939	-0.296204	-0.125378
N116	N	0.821519	-0.330370	-0.179843
