data_functionalizedCrystal
_audit_creation_method	'MofGen! by Chris Wilmer'
_symmetry_space_group_name_H-M	'P1'
_symmetry_Int_Tables_number	1
_symmetry_cell_setting	triclinic
loop_
_symmetry_equiv_pos_as_xyz
  x,y,z
_cell_length_a	19.121308
_cell_length_b	18.215404
_cell_length_c	18.215399
_cell_angle_alpha	90.027515
_cell_angle_beta	87.580143
_cell_angle_gamma	87.587527
loop_
_atom_site_label
_atom_site_type_symbol
_atom_site_fract_x
_atom_site_fract_y
_atom_site_fract_z
Zn1	Zn	-1.073686	0.340925	-0.368118
Zn2	Zn	-0.823686	0.590925	-0.118118
Zn3	Zn	-0.573686	0.840925	0.131882
Zn4	Zn	-0.323686	1.090925	0.381882
Zn5	Zn	-1.073601	0.463993	-0.245056
Zn6	Zn	-0.823601	0.713993	0.004944
Zn7	Zn	-0.573601	0.963993	0.254944
Zn8	Zn	-0.323601	1.213993	0.504944
Zn9	Zn	-0.956240	0.335705	-0.250316
Zn10	Zn	-0.706240	0.585705	-0.000316
Zn11	Zn	-0.456240	0.835705	0.249684
Zn12	Zn	-0.206240	1.085705	0.499684
Zn13	Zn	-0.956209	0.458710	-0.373329
Zn14	Zn	-0.706209	0.708710	-0.123329
Zn15	Zn	-0.456209	0.958710	0.126671
Zn16	Zn	-0.206209	1.208710	0.376671
O17	O	-1.014934	0.399833	-0.309205
O18	O	-0.764934	0.649833	-0.059205
O19	O	-0.514934	0.899833	0.190795
O20	O	-0.264934	1.149833	0.440795
O21	O	-1.171955	0.361646	-0.347412
O22	O	-0.921955	0.611646	-0.097412
O23	O	-0.671955	0.861646	0.152588
O24	O	-0.421955	1.111646	0.402588
O25	O	-1.058009	0.447001	-0.142771
O26	O	-0.808009	0.697001	0.107229
O27	O	-0.558009	0.947001	0.357229
O28	O	-0.308009	1.197001	0.607229
O29	O	-0.971868	0.233415	-0.265963
O30	O	-0.721868	0.483415	-0.015963
O31	O	-0.471868	0.733415	0.234037
O32	O	-0.221868	0.983415	0.484037
O33	O	-1.171892	0.452063	-0.256999
O34	O	-0.921892	0.702063	-0.006999
O35	O	-0.671892	0.952063	0.243001
O36	O	-0.421892	1.202063	0.493001
O37	O	-1.058155	0.237251	-0.352511
O38	O	-0.808155	0.487251	-0.102511
O39	O	-0.558155	0.737251	0.147489
O40	O	-0.308155	0.987251	0.397489
O41	O	-0.971785	0.352749	-0.146635
O42	O	-0.721785	0.602749	0.103365
O43	O	-0.471785	0.852749	0.353365
O44	O	-0.221785	1.102749	0.603365
O45	O	-0.857956	0.347626	-0.271016
O46	O	-0.607956	0.597626	-0.021016
O47	O	-0.357956	0.847626	0.228984
O48	O	-0.107956	1.097626	0.478984
O49	O	-0.971816	0.443059	-0.475621
O50	O	-0.721816	0.693059	-0.225621
O51	O	-0.471816	0.943059	0.024379
O52	O	-0.221816	1.193059	0.274379
O53	O	-0.857933	0.437998	-0.361394
O54	O	-0.607933	0.687998	-0.111394
O55	O	-0.357933	0.937998	0.138606
O56	O	-0.107933	1.187998	0.388606
O57	O	-1.058125	0.356523	-0.471793
O58	O	-0.808125	0.606523	-0.221793
O59	O	-0.558125	0.856523	0.028207
O60	O	-0.308125	1.106523	0.278207
O61	O	-1.057980	0.566274	-0.262052
O62	O	-0.807980	0.816274	-0.012052
O63	O	-0.557980	1.066274	0.237948
O64	O	-0.307980	1.316274	0.487948
O65	O	-0.971733	0.562393	-0.356294
O66	O	-0.721733	0.812393	-0.106294
O67	O	-0.471733	1.062393	0.143706
O68	O	-0.221733	1.312393	0.393706
C69	C	-0.832462	0.391673	-0.317341
C70	C	-0.582462	0.641673	-0.067341
C71	C	-0.332462	0.891673	0.182659
C72	C	-0.082462	1.141673	0.432659
C73	C	-0.754399	0.388200	-0.320840
C74	C	-0.504399	0.638200	-0.070840
C75	C	-0.254399	0.888200	0.179160
C76	C	-0.004399	1.138200	0.429160
C77	C	-0.312895	0.366139	-0.343025
C78	C	-0.062895	0.616139	-0.093025
C79	C	0.187105	0.866139	0.156975
C80	C	0.437105	1.116139	0.406975
C81	C	-0.386243	0.369417	-0.339734
C82	C	-0.136243	0.619417	-0.089734
C83	C	0.113757	0.869417	0.160266
C84	C	0.363757	1.119417	0.410266
C85	C	-0.422876	0.418053	-0.290939
C86	C	-0.172876	0.668053	-0.040939
C87	C	0.077124	0.918053	0.209061
C88	C	0.327124	1.168053	0.459061
C89	C	-0.386156	0.463421	-0.245437
C90	C	-0.136156	0.713421	0.004563
C91	C	0.113844	0.963421	0.254563
C92	C	0.363844	1.213421	0.504563
C93	C	-0.312810	0.460147	-0.248733
C94	C	-0.062810	0.710147	0.001267
C95	C	0.187190	0.960147	0.251267
C96	C	0.437190	1.210147	0.501267
C97	C	-0.644333	0.430293	-0.278634
C98	C	-0.394333	0.680293	-0.028634
C99	C	-0.144333	0.930293	0.221366
C100	C	0.105667	1.180293	0.471366
C101	C	-0.717685	0.433562	-0.275340
C102	C	-0.467685	0.683562	-0.025340
C103	C	-0.217685	0.933562	0.224660
C104	C	0.032315	1.183562	0.474660
C105	C	-0.717767	0.339559	-0.369638
C106	C	-0.467767	0.589559	-0.119638
C107	C	-0.217767	0.839559	0.130362
C108	C	0.032233	1.089559	0.380362
C109	C	-0.644419	0.336286	-0.372926
C110	C	-0.394419	0.586286	-0.122926
C111	C	-0.144419	0.836286	0.127074
C112	C	0.105581	1.086286	0.377074
C113	C	-0.607706	0.381656	-0.327427
C114	C	-0.357706	0.631656	-0.077427
C115	C	-0.107706	0.881656	0.172573
C116	C	0.142294	1.131656	0.422573
C117	C	-0.497849	0.421402	-0.287572
C118	C	-0.247849	0.671402	-0.037572
C119	C	0.002151	0.921402	0.212428
C120	C	0.252151	1.171402	0.462428
C121	C	-0.532734	0.378310	-0.330798
C122	C	-0.282734	0.628310	-0.080798
C123	C	-0.032734	0.878310	0.169202
C124	C	0.217266	1.128310	0.419202
C125	C	-0.198119	0.408022	-0.301029
C126	C	0.051881	0.658022	-0.051029
C127	C	0.301881	0.908022	0.198971
C128	C	0.551881	1.158022	0.448971
C129	C	-0.276181	0.411502	-0.297525
C130	C	-0.026181	0.661502	-0.047525
C131	C	0.223819	0.911502	0.202475
C132	C	0.473819	1.161502	0.452475
C133	C	-1.014863	0.591036	-0.309183
C134	C	-0.764863	0.841036	-0.059183
C135	C	-0.514863	1.091036	0.190817
C136	C	-0.264863	1.341036	0.440817
C137	C	-1.014897	0.672837	-0.309195
C138	C	-0.764897	0.922837	-0.059195
C139	C	-0.514897	1.172837	0.190805
C140	C	-0.264897	1.422837	0.440805
C141	C	-1.014977	0.399784	-0.501156
C142	C	-0.764977	0.649784	-0.251156
C143	C	-0.514977	0.899784	-0.001156
C144	C	-0.264977	1.149784	0.248844
C145	C	-1.014995	0.399764	-0.582954
C146	C	-0.764995	0.649764	-0.332954
C147	C	-0.514995	0.899764	-0.082954
C148	C	-0.264995	1.149764	0.167046
C149	C	-1.059915	0.863032	-0.260215
C150	C	-0.809915	1.113032	-0.010215
C151	C	-0.559915	1.363032	0.239785
C152	C	-0.309915	1.613032	0.489785
C153	C	-1.059947	0.939892	-0.260236
C154	C	-0.809947	1.189892	-0.010236
C155	C	-0.559947	1.439892	0.239764
C156	C	-0.309947	1.689892	0.489764
C157	C	-0.970061	0.935887	-0.358296
C158	C	-0.720061	1.185887	-0.108296
C159	C	-0.470061	1.435887	0.141704
C160	C	-0.220061	1.685887	0.391704
C161	C	-0.970032	0.859029	-0.358278
C162	C	-0.720032	1.109029	-0.108278
C163	C	-0.470032	1.359029	0.141722
C164	C	-0.220032	1.609029	0.391722
C165	C	-1.014958	0.822603	-0.309234
C166	C	-0.764958	1.072603	-0.059234
C167	C	-0.514958	1.322603	0.190766
C168	C	-0.264958	1.572603	0.440766
C169	C	-1.015019	0.976322	-0.309272
C170	C	-0.765019	1.226322	-0.059272
C171	C	-0.515019	1.476322	0.190728
C172	C	-0.265019	1.726322	0.440728
C173	C	-1.015055	1.059657	-0.309294
C174	C	-0.765055	1.309657	-0.059294
C175	C	-0.515055	1.559657	0.190706
C176	C	-0.265055	1.809657	0.440706
C177	C	-1.014924	0.739262	-0.309212
C178	C	-0.764924	0.989262	-0.059212
C179	C	-0.514924	1.239262	0.190788
C180	C	-0.264924	1.489262	0.440788
C181	C	-1.015029	1.207884	-0.309256
C182	C	-0.765029	1.457884	-0.059256
C183	C	-0.515029	1.707884	0.190744
C184	C	-0.265029	1.957884	0.440744
C185	C	-1.015080	1.126088	-0.309311
C186	C	-0.765080	1.376088	-0.059311
C187	C	-0.515080	1.626088	0.190689
C188	C	-0.265080	1.876088	0.440689
C189	C	-1.059952	0.354661	-0.769155
C190	C	-0.809952	0.604661	-0.519155
C191	C	-0.559952	0.854661	-0.269155
C192	C	-0.309952	1.104661	-0.019155
C193	C	-1.059961	0.354640	-0.846013
C194	C	-0.809961	0.604640	-0.596013
C195	C	-0.559961	0.854640	-0.346013
C196	C	-0.309961	1.104640	-0.096013
C197	C	-0.970087	0.444755	-0.849989
C198	C	-0.720087	0.694755	-0.599989
C199	C	-0.470087	0.944755	-0.349989
C200	C	-0.220087	1.194755	-0.099989
C201	C	-0.970076	0.444771	-0.773132
C202	C	-0.720076	0.694771	-0.523132
C203	C	-0.470076	0.944771	-0.273132
C204	C	-0.220076	1.194771	-0.023132
C205	C	-1.015012	0.399726	-0.732717
C206	C	-0.765012	0.649726	-0.482717
C207	C	-0.515012	0.899726	-0.232717
C208	C	-0.265012	1.149726	0.017283
C209	C	-1.015032	0.399688	-0.886432
C210	C	-0.765032	0.649688	-0.636432
C211	C	-0.515032	0.899688	-0.386432
C212	C	-0.265032	1.149688	-0.136432
C213	C	-1.015041	0.399665	-0.969766
C214	C	-0.765041	0.649665	-0.719766
C215	C	-0.515041	0.899665	-0.469766
C216	C	-0.265041	1.149665	-0.219766
C217	C	-1.015003	0.399747	-0.649378
C218	C	-0.765003	0.649747	-0.399378
C219	C	-0.515003	0.899747	-0.149378
C220	C	-0.265003	1.149747	0.100622
C221	C	-1.014932	0.399831	-0.117999
C222	C	-0.764932	0.649831	0.132001
C223	C	-0.514932	0.899831	0.382001
C224	C	-0.264932	1.149831	0.632001
C225	C	-1.015050	0.399650	-0.036195
C226	C	-0.765050	0.649650	0.213805
C227	C	-0.515050	0.899650	0.463805
C228	C	-0.265050	1.149650	0.713805
H229	H	-0.416133	0.332480	-0.376787
H230	H	-0.166133	0.582480	-0.126787
H231	H	0.083867	0.832480	0.123213
H232	H	0.333867	1.082480	0.373213
H233	H	-0.933423	0.826109	-0.398199
H234	H	-0.683423	1.076109	-0.148199
H235	H	-0.433423	1.326109	0.101801
H236	H	-0.183423	1.576109	0.351801
F237	F	-0.922268	0.492695	-0.893008
F238	F	-0.672268	0.742695	-0.643008
F239	F	-0.422268	0.992695	-0.393008
F240	F	-0.172268	1.242695	-0.143008
F241	F	-1.107776	0.306718	-0.726145
F242	F	-0.857776	0.556718	-0.476145
F243	F	-0.607776	0.806718	-0.226145
F244	F	-0.357776	1.056718	0.023855
H245	H	-0.933483	0.965554	-0.398225
H246	H	-0.683483	1.215554	-0.148225
H247	H	-0.433483	1.465554	0.101775
H248	H	-0.183483	1.715554	0.351775
F249	F	-1.107797	0.306681	-0.884790
F250	F	-0.857797	0.556681	-0.634790
F251	F	-0.607797	0.806681	-0.384790
F252	F	-0.357797	1.056681	-0.134790
F253	F	-1.107798	0.982917	-0.208065
F254	F	-0.857798	1.232917	0.041935
F255	F	-0.607798	1.482917	0.291935
F256	F	-0.357798	1.732917	0.541935
F257	F	-0.605437	0.284522	-0.424862
F258	F	-0.355437	0.534522	-0.174862
F259	F	-0.105437	0.784522	0.075138
F260	F	0.144563	1.034522	0.325138
F261	F	-0.756845	0.291278	-0.418060
F262	F	-0.506845	0.541278	-0.168060
F263	F	-0.256845	0.791278	0.081940
F264	F	-0.006845	1.041278	0.331940
F265	F	-0.922239	0.492734	-0.734350
F266	F	-0.672239	0.742734	-0.484350
F267	F	-0.422239	0.992734	-0.234350
F268	F	-0.172239	1.242734	0.015650
H269	H	-0.614450	0.467235	-0.241583
H270	H	-0.364450	0.717235	0.008417
H271	H	-0.114450	0.967235	0.258417
H272	H	0.135550	1.217235	0.508417
H273	H	-0.747509	0.473171	-0.235604
H274	H	-0.497509	0.723171	0.014396
H275	H	-0.247509	0.973171	0.264396
H276	H	0.002491	1.223171	0.514396
F277	F	-0.273915	0.314369	-0.394955
F278	F	-0.023915	0.564369	-0.144955
F279	F	0.226085	0.814369	0.105045
F280	F	0.476085	1.064369	0.355045
H281	H	-0.415988	0.503024	-0.205710
H282	H	-0.165988	0.753024	0.044290
H283	H	0.084012	1.003024	0.294290
H284	H	0.334012	1.253024	0.544290
H285	H	-1.096497	0.833376	-0.220281
H286	H	-0.846497	1.083376	0.029719
H287	H	-0.596497	1.333376	0.279719
H288	H	-0.346497	1.583376	0.529719
F289	F	-0.273736	0.508433	-0.200310
F290	F	-0.023736	0.758433	0.049690
F291	F	0.226264	1.008433	0.299690
F292	F	0.476264	1.258433	0.549690
F293	F	-0.536842	0.473162	-0.235640
F294	F	-0.286842	0.723162	0.014360
F295	F	-0.036842	0.973162	0.264360
F296	F	0.213158	1.223162	0.514360
F297	F	-0.493746	0.326552	-0.382731
F298	F	-0.243746	0.576552	-0.132731
F299	F	0.006254	0.826552	0.117269
F300	F	0.256254	1.076552	0.367269
