data_functionalizedCrystal
_audit_creation_method	'MofGen! by Chris Wilmer'
_symmetry_space_group_name_H-M	'P1'
_symmetry_Int_Tables_number	1
_symmetry_cell_setting	triclinic
loop_
_symmetry_equiv_pos_as_xyz
  x,y,z
_cell_length_a	18.215407
_cell_length_b	25.639239
_cell_length_c	18.215399
_cell_angle_alpha	89.969546
_cell_angle_beta	89.980650
_cell_angle_gamma	90.039134
loop_
_atom_site_label
_atom_site_type_symbol
_atom_site_fract_x
_atom_site_fract_y
_atom_site_fract_z
Zn1	Zn	1.124998	-0.208148	-0.416105
Zn2	Zn	1.624998	0.291852	0.083895
Zn3	Zn	1.124878	-0.295584	-0.293034
Zn4	Zn	1.624878	0.204416	0.206966
Zn5	Zn	1.001931	-0.208165	-0.293053
Zn6	Zn	1.501931	0.291835	0.206947
Zn7	Zn	1.001867	-0.295555	-0.416059
Zn8	Zn	1.501867	0.204445	0.083941
O9	O	1.063418	-0.251863	-0.354563
O10	O	1.563418	0.248137	0.145437
O11	O	1.227966	-0.219751	-0.399791
O12	O	1.727966	0.280249	0.100209
O13	O	1.108545	-0.284008	-0.190052
O14	O	1.608545	0.215992	0.309948
O15	O	1.018334	-0.134998	-0.309403
O16	O	1.518334	0.365002	0.190597
O17	O	1.227878	-0.283991	-0.309372
O18	O	1.727878	0.216009	0.190628
O19	O	1.108750	-0.134985	-0.399809
O20	O	1.608750	0.365015	0.100191
O21	O	1.018217	-0.219782	-0.190066
O22	O	1.518217	0.280218	0.309934
O23	O	0.898939	-0.219753	-0.309358
O24	O	1.398939	0.280247	0.190642
O25	O	1.018223	-0.283940	-0.519050
O26	O	1.518223	0.216060	-0.019050
O27	O	0.898891	-0.283957	-0.399731
O28	O	1.398891	0.216043	0.100269
O29	O	1.108687	-0.219723	-0.519083
O30	O	1.608687	0.280277	-0.019083
O31	O	1.108483	-0.368746	-0.309327
O32	O	1.608483	0.131254	0.190673
O33	O	1.018107	-0.368724	-0.399713
O34	O	1.518107	0.131276	0.100287
C35	C	0.872212	-0.251854	-0.354542
C36	C	1.372212	0.248146	0.145458
C37	C	0.790413	-0.251863	-0.354550
C38	C	1.290413	0.248137	0.145450
C39	C	0.602214	-0.285347	-0.401548
C40	C	1.102214	0.214653	0.098452
C41	C	0.525355	-0.285348	-0.401557
C42	C	1.025355	0.214652	0.098443
C43	C	0.525375	-0.218389	-0.307594
C44	C	1.025375	0.281611	0.192406
C45	C	0.602232	-0.218385	-0.307589
C46	C	1.102232	0.281615	0.192411
C47	C	0.640650	-0.251867	-0.354565
C48	C	1.140650	0.248133	0.145435
C49	C	0.486934	-0.251872	-0.354579
C50	C	0.986934	0.248128	0.145421
C51	C	0.403600	-0.251874	-0.354589
C52	C	0.903600	0.248126	0.145411
C53	C	0.723989	-0.251865	-0.354556
C54	C	1.223989	0.248135	0.145444
C55	C	1.063295	-0.387706	-0.354529
C56	C	1.563295	0.112294	0.145471
C57	C	1.063309	-0.445820	-0.354539
C58	C	1.563309	0.054180	0.145461
C59	C	1.110600	-0.806182	-0.307579
C60	C	1.610600	-0.306182	0.192421
C61	C	1.110628	-0.860786	-0.307589
C62	C	1.610628	-0.360786	0.192411
O63	O	1.150708	-0.889022	-0.267625
O64	O	1.650708	-0.389022	0.232375
N65	N	1.063548	-0.888102	-0.354612
N66	N	1.563548	-0.388102	0.145388
C67	C	1.016441	-0.860811	-0.401633
C68	C	1.516441	-0.360811	0.098367
O69	O	0.976398	-0.889060	-0.441631
O70	O	1.476398	-0.389060	0.058369
C71	C	1.016417	-0.806208	-0.401626
C72	C	1.516417	-0.306208	0.098374
C73	C	1.063495	-0.778894	-0.354595
C74	C	1.563495	-0.278894	0.145405
C75	C	1.157675	-0.778868	-0.260553
C76	C	1.657675	-0.278868	0.239447
C77	C	1.157645	-0.724267	-0.260542
C78	C	1.657645	-0.224267	0.239458
C79	C	1.110540	-0.696980	-0.307558
C80	C	1.610540	-0.196980	0.192442
C81	C	1.063465	-0.724294	-0.354584
C82	C	1.563465	-0.224294	0.145416
C83	C	0.969314	-0.778918	-0.448650
C84	C	1.469314	-0.278918	0.051350
C85	C	0.969294	-0.724311	-0.448640
C86	C	1.469294	-0.224311	0.051360
C87	C	1.016373	-0.696998	-0.401609
C88	C	1.516373	-0.196998	0.098391
C89	C	1.016331	-0.642406	-0.401590
C90	C	1.516331	-0.142406	0.098410
N91	N	1.063411	-0.615090	-0.354567
N92	N	1.563411	-0.115090	0.145433
C93	C	1.110516	-0.642377	-0.307551
C94	C	1.610516	-0.142377	0.192449
C95	C	1.016496	-0.975482	-0.401644
C96	C	1.516496	-0.475482	0.098356
C97	C	1.016516	-1.030084	-0.401648
C98	C	1.516516	-0.530084	0.098352
C99	C	1.110705	-1.030055	-0.307605
C100	C	1.610705	-0.530055	0.192395
C101	C	1.110681	-0.975452	-0.307598
C102	C	1.610681	-0.475452	0.192402
C103	C	1.063577	-0.948166	-0.354621
C104	C	1.563577	-0.448166	0.145379
C105	C	1.110450	-0.527712	-0.307532
C106	C	1.610450	-0.027712	0.192468
C107	C	1.110414	-0.473107	-0.307523
C108	C	1.610414	0.026893	0.192477
C109	C	1.016228	-0.473141	-0.401569
C110	C	1.516228	0.026859	0.098431
C111	C	1.016261	-0.527741	-0.401575
C112	C	1.516261	-0.027741	0.098425
C113	C	1.063378	-0.555026	-0.354554
C114	C	1.563378	-0.055026	0.145446
O115	O	0.976273	-0.614136	-0.441536
O116	O	1.476273	-0.114136	0.058464
O117	O	1.150559	-0.614122	-0.267567
O118	O	1.650559	-0.114122	0.232433
C119	C	1.255371	-0.251872	-0.354584
C120	C	1.755371	0.248128	0.145416
C121	C	1.337170	-0.251876	-0.354594
C122	C	1.837170	0.248124	0.145406
C123	C	1.063462	-0.251826	-0.546516
C124	C	1.563462	0.248174	-0.046516
C125	C	1.063480	-0.251810	-0.628315
C126	C	1.563480	0.248190	-0.128315
C127	C	1.063563	-0.115490	-0.354613
C128	C	1.563563	0.384510	0.145387
C129	C	1.063624	-0.057376	-0.354634
C130	C	1.563624	0.442624	0.145366
C131	C	1.110612	-0.218327	-0.893391
C132	C	1.610612	0.281673	-0.393391
C133	C	1.110603	-0.218341	-0.816532
C134	C	1.610603	0.281659	-0.316532
C135	C	1.016408	-0.285218	-0.816487
C136	C	1.516408	0.214782	-0.316487
C137	C	1.016421	-0.285206	-0.893344
C138	C	1.516421	0.214794	-0.393344
C139	C	1.063522	-0.251757	-0.931795
C140	C	1.563522	0.248243	-0.431795
C141	C	1.063500	-0.251784	-0.778078
C142	C	1.563500	0.248216	-0.278078
C143	C	1.063490	-0.251799	-0.694745
C144	C	1.563490	0.248201	-0.194745
C145	C	1.063533	-0.251742	-1.015134
C146	C	1.563533	0.248258	-0.515134
C147	C	1.063418	-0.251862	-0.163357
C148	C	1.563418	0.248138	0.336643
C149	C	1.063542	-0.251731	-0.081558
C150	C	1.563542	0.248269	0.418442
H151	H	0.633528	-0.191118	-0.269329
H152	H	1.133528	0.308882	0.230671
N153	N	0.486132	-0.184200	-0.259596
N154	N	0.986132	0.315800	0.240404
N155	N	0.494687	-0.187610	-0.191680
N156	N	0.994687	0.312390	0.308320
H157	H	0.466973	-0.163464	-0.157778
H158	H	0.966973	0.336536	0.342222
H159	H	0.494064	-0.312610	-0.439817
H160	H	0.994064	0.187390	0.060183
N161	N	0.921224	-0.806816	-0.496685
N162	N	1.421224	-0.306816	0.003315
N163	N	0.874350	-0.837330	-0.470766
N164	N	1.374350	-0.337330	0.029234
H165	H	0.840384	-0.857032	-0.504693
H166	H	1.340384	-0.357032	-0.004693
H167	H	0.633491	-0.312609	-0.439801
H168	H	1.133491	0.187391	0.060199
N169	N	1.158506	-0.445216	-0.259471
N170	N	1.658506	0.054784	0.240529
N171	N	1.200560	-0.469590	-0.217498
N172	N	1.700560	0.030410	0.282502
H173	H	1.234525	-0.449894	-0.183562
H174	H	1.734525	0.050106	0.316438
N175	N	0.968305	-0.319348	-0.932577
N176	N	1.468305	0.180652	-0.432577
N177	N	0.921435	-0.300943	-0.975464
N178	N	1.421435	0.199057	-0.475464
H179	H	0.887455	-0.325055	-1.003173
H180	H	1.387455	0.174945	-0.503173
H181	H	1.148818	-0.549921	-0.269245
H182	H	1.648818	-0.049921	0.230755
H183	H	1.196037	-0.801079	-0.222266
H184	H	1.696037	-0.301079	0.277734
H185	H	1.195983	-0.702032	-0.222248
H186	H	1.695983	-0.202032	0.277752
H187	H	1.148964	-0.191091	-0.924695
H188	H	1.648964	0.308909	-0.424695
H189	H	1.148949	-0.191119	-0.785268
H190	H	1.648949	0.308881	-0.285268
H191	H	0.978059	-0.312449	-0.785172
H192	H	1.478059	0.187551	-0.285172
N193	N	1.158773	-0.947562	-0.259551
N194	N	1.658773	-0.447562	0.240449
N195	N	1.200821	-0.971939	-0.217575
N196	N	1.700821	-0.471939	0.282425
H197	H	1.234789	-0.952245	-0.183639
H198	H	1.734789	-0.452245	0.316361
N199	N	1.158817	-1.057942	-0.259580
N200	N	1.658817	-0.557942	0.240420
N201	N	1.158828	-1.106694	-0.259600
N202	N	1.658828	-0.606694	0.240400
H203	H	1.192803	-1.126392	-0.225684
H204	H	1.692803	-0.626392	0.274316
H205	H	0.930937	-0.702097	-0.486935
H206	H	1.430937	-0.202097	0.013065
N207	N	0.968410	-1.057973	-0.449681
N208	N	1.468410	-0.557973	0.050319
N209	N	0.926355	-1.033596	-0.491651
N210	N	1.426355	-0.533596	0.008349
H211	H	0.892380	-1.053290	-0.525579
H212	H	1.392380	-0.553290	-0.025579
H213	H	0.978133	-0.953268	-0.439934
H214	H	1.478133	-0.453268	0.060066
H215	H	0.977874	-0.450915	-0.439847
H216	H	1.477874	0.049085	0.060153
N217	N	0.968156	-0.555636	-0.449607
N218	N	1.468156	-0.055636	0.050393
N219	N	0.926096	-0.531264	-0.491576
N220	N	1.426096	-0.031264	0.008424
H221	H	0.892123	-0.550961	-0.525502
H222	H	1.392123	-0.050961	-0.025502
