data_functionalizedCrystal
_audit_creation_method	'MofGen! by Chris Wilmer'
_symmetry_space_group_name_H-M	'P1'
_symmetry_Int_Tables_number	1
_symmetry_cell_setting	triclinic
loop_
_symmetry_equiv_pos_as_xyz
  x,y,z
_cell_length_a	12.827893
_cell_length_b	12.827892
_cell_length_c	12.827885
_cell_angle_alpha	89.970214
_cell_angle_beta	89.980538
_cell_angle_gamma	90.015362
loop_
_atom_site_label
_atom_site_type_symbol
_atom_site_fract_x
_atom_site_fract_y
_atom_site_fract_z
Zn1	Zn	1.597672	-0.415983	-0.590849
Zn2	Zn	1.597565	-0.590761	-0.416109
Zn3	Zn	1.422912	-0.416034	-0.416122
Zn4	Zn	1.422898	-0.590683	-0.590809
O5	O	1.510262	-0.503365	-0.503472
O6	O	1.743893	-0.439179	-0.567680
O7	O	1.574358	-0.567637	-0.269875
O8	O	1.446145	-0.269791	-0.439322
O9	O	1.743815	-0.567587	-0.439300
O10	O	1.574540	-0.269754	-0.567693
O11	O	1.446042	-0.439266	-0.269884
O12	O	1.276674	-0.439190	-0.439284
O13	O	1.446121	-0.567455	-0.737050
O14	O	1.276664	-0.567504	-0.567625
O15	O	1.574526	-0.439104	-0.737080
O16	O	1.574345	-0.736986	-0.439261
O17	O	1.446018	-0.736929	-0.567612
C18	C	1.238752	-0.503345	-0.503452
C19	C	1.122599	-0.503362	-0.503469
C20	C	1.070837	-0.566954	-0.566878
C21	C	0.950786	-0.566973	-0.566896
C22	C	1.510196	-0.774875	-0.503454
C23	C	1.510264	-0.891028	-0.503481
C24	C	1.573840	-0.942807	-0.440039
C25	C	1.573911	-1.062857	-0.440066
C26	C	1.782832	-0.503386	-0.503493
C27	C	1.898985	-0.503395	-0.503502
C28	C	1.510334	-0.503265	-0.776043
C29	C	1.510365	-0.503222	-0.892196
C30	C	1.510356	-0.230795	-0.503514
C31	C	1.510396	-0.114642	-0.503531
C32	C	1.446890	-0.439688	-0.943985
C33	C	1.446920	-0.439642	-1.064036
C34	C	1.510250	-0.503390	-0.231962
C35	C	1.510422	-0.503138	-0.115810
H36	H	0.906272	-0.621420	-0.621181
O37	O	0.952190	-0.438583	-0.438679
C38	C	1.015264	-0.498050	-0.371112
H39	H	1.031516	-0.577301	-0.407846
H40	H	1.092060	-0.455528	-0.357237
H41	H	0.973223	-0.509407	-0.293619
O42	O	1.124104	-0.631748	-0.631681
C43	C	1.187259	-0.572262	-0.699228
H44	H	1.203491	-0.493006	-0.662491
H45	H	1.264058	-0.614761	-0.713078
H46	H	1.145297	-0.560920	-0.776735
O47	O	1.638990	-1.115999	-0.375431
C48	C	1.706413	-1.179031	-0.435084
H49	H	1.712785	-1.146008	-0.517361
H50	H	1.786872	-1.180304	-0.397396
H51	H	1.674103	-1.261748	-0.438730
O52	O	1.575373	-0.568026	-0.945202
C53	C	1.679552	-0.545209	-0.918638
H54	H	1.681781	-0.505136	-0.839371
H55	H	1.726388	-0.620635	-0.915006
H56	H	1.714727	-0.491407	-0.980057
O57	O	1.069609	-0.438324	-0.438683
C58	C	1.141046	-0.379213	-0.379701
H59	H	1.218900	-0.375562	-0.422426
H60	H	1.109433	-0.296897	-0.368725
H61	H	1.152571	-0.417376	-0.300257
O62	O	1.381970	-0.374898	-1.117205
C63	C	1.314547	-0.434423	-1.180345
H64	H	1.308031	-0.516711	-1.147377
H65	H	1.234137	-0.396627	-1.181686
H66	H	1.346950	-0.438065	-1.263028
O67	O	1.575356	-0.568073	-1.062854
C68	C	1.634383	-0.627123	-1.134311
H69	H	1.638109	-0.584361	-1.212148
H70	H	1.716677	-0.638265	-1.102698
H71	H	1.596096	-0.706490	-1.145866
O72	O	1.638563	-0.889624	-0.375104
C73	C	1.579009	-0.826568	-0.307620
H74	H	1.496757	-0.859602	-0.301069
H75	H	1.616845	-0.825245	-0.227232
H76	H	1.575266	-0.743869	-0.339987
O77	O	1.445509	-1.061649	-0.568482
C78	C	1.468303	-1.088126	-0.672686
H79	H	1.508448	-1.167365	-0.674976
H80	H	1.392859	-1.091778	-0.719485
H81	H	1.522032	-1.026648	-0.707859
O82	O	1.445356	-0.944001	-0.568404
C83	C	1.386210	-0.872549	-0.627368
H84	H	1.428893	-0.794677	-0.631076
H85	H	1.375065	-0.904114	-0.709672
H86	H	1.306847	-0.861079	-0.589036
O87	O	1.382127	-0.374866	-0.890701
C88	C	1.396502	-0.389355	-0.782698
H89	H	1.477146	-0.423607	-0.767898
H90	H	1.389468	-0.311133	-0.741153
H91	H	1.334516	-0.445040	-0.751711
