data_functionalizedCrystal
_audit_creation_method	'MofGen! by Chris Wilmer'
_symmetry_space_group_name_H-M	'P1'
_symmetry_Int_Tables_number	1
_symmetry_cell_setting	triclinic
loop_
_symmetry_equiv_pos_as_xyz
  x,y,z
_cell_length_a	26.455835
_cell_length_b	26.455273
_cell_length_c	26.451828
_cell_angle_alpha	60.005170
_cell_angle_beta	60.010757
_cell_angle_gamma	59.993435
loop_
_atom_site_label
_atom_site_type_symbol
_atom_site_fract_x
_atom_site_fract_y
_atom_site_fract_z
O1	O	0.069940	-0.738516	0.617604
O2	O	0.026299	-0.574986	0.497618
O3	O	0.129847	-0.678463	0.497546
O4	O	-0.033607	-0.635040	0.617676
O5	O	0.164197	-0.644116	0.531822
O6	O	0.060649	-0.540639	0.531894
O7	O	0.104290	-0.704170	0.651880
Cu8	Cu	0.085606	-0.619268	0.595016
Cu9	Cu	0.044984	-0.659887	0.554481
O10	O	0.000742	-0.600693	0.651952
N11	N	0.114179	-0.590703	0.623530
N12	N	0.016416	-0.688458	0.525968
C13	C	0.157553	-0.547535	0.933368
C14	C	0.424104	-0.547506	0.666656
C15	C	0.157413	-0.547503	0.666729
C16	C	0.157397	-0.280846	0.666749
C17	C	0.200330	-0.409550	0.709625
C18	C	0.200339	-0.504608	0.709615
C19	C	0.224118	-0.480848	0.733375
C20	C	0.327800	-0.462984	0.678792
C21	C	0.392611	-0.484588	0.657175
C22	C	0.392630	-0.589450	0.697162
C23	C	0.327821	-0.567844	0.718781
C24	C	0.215955	-0.377135	0.645910
C25	C	0.194327	-0.312320	0.624323
C26	C	0.141457	-0.312339	0.730169
C27	C	0.163084	-0.377154	0.751756
C28	C	0.136618	-0.488954	0.725292
C29	C	0.115007	-0.510553	0.703686
C30	C	0.220833	-0.563461	0.650740
C31	C	0.242447	-0.541861	0.672339
C32	C	0.136680	-0.488971	0.837094
C33	C	0.115112	-0.510589	0.901907
C34	C	0.220969	-0.563508	0.901868
C35	C	0.242535	-0.541892	0.837053
C36	C	0.200389	-0.504622	0.804668
C37	C	0.295409	-0.504610	0.709593
C38	C	0.132990	-0.570876	1.004655
C39	C	0.495389	-0.570440	0.642547
C40	C	0.132802	-0.570856	0.643399
C41	C	0.133212	-0.209553	0.643833
C42	C	-0.097217	-0.706972	0.506986
C43	C	-0.002040	-0.707108	0.412067
C44	C	-0.002230	-0.802124	0.507163
C45	C	-0.002214	-0.707101	0.507221
C46	C	-0.025925	-0.730827	0.483360
N47	N	0.553723	-0.590712	0.623415
O48	O	0.751638	-0.596429	0.475603
O49	O	0.751819	-0.716773	0.638980
O50	O	0.751753	-0.716500	0.535361
O51	O	0.751705	-0.596703	0.579222
O52	O	0.648791	-0.682239	0.569747
O53	O	0.648858	-0.682512	0.673366
O54	O	0.648676	-0.562169	0.509989
Cu55	Cu	0.639366	-0.619212	0.594817
Cu56	Cu	0.761130	-0.659729	0.554152
O57	O	0.648743	-0.562442	0.613609
N58	N	0.846773	-0.688230	0.525548
N59	N	0.114157	-0.151217	0.623565
O60	O	-0.033591	0.046803	0.617717
O61	O	0.129795	0.046806	0.497390
O62	O	0.026157	0.046789	0.497680
O63	O	0.070046	0.046819	0.617427
O64	O	0.060509	-0.056181	0.532004
O65	O	0.164146	-0.056164	0.531714
O66	O	0.000760	-0.056167	0.652041
Cu67	Cu	0.085590	-0.065568	0.595012
Cu68	Cu	0.044965	0.056206	0.554419
O69	O	0.104397	-0.056151	0.651751
N70	N	0.016390	0.141855	0.525867
N71	N	0.114410	-0.590756	1.062992
O72	O	0.108565	-0.738494	1.260998
O73	O	-0.011747	-0.575059	1.261012
O74	O	-0.011470	-0.678679	1.260970
O75	O	0.108287	-0.634874	1.261040
O76	O	0.022849	-0.644347	1.158004
O77	O	0.022572	-0.540726	1.158046
O78	O	0.142884	-0.704162	1.158033
Cu79	Cu	0.085861	-0.619309	1.148638
Cu80	Cu	0.045275	-0.659911	1.270406
O81	O	0.142606	-0.600541	1.158074
N82	N	0.016726	-0.688471	1.356052
C83	C	0.039385	-0.537207	0.498225
C84	C	0.167616	-0.665350	0.498136
C85	C	0.091204	-0.741950	0.651272
C86	C	-0.037027	-0.613806	0.651361
C87	C	0.700360	-0.716215	0.676756
C88	C	0.700279	-0.715877	0.548436
C89	C	0.700133	-0.562725	0.472214
C90	C	0.700218	-0.563065	0.600533
C91	C	0.167511	-0.004552	0.497940
C92	C	0.039211	-0.004699	0.498341
C93	C	-0.036999	-0.004682	0.651449
C94	C	0.091344	-0.004663	0.651090
C95	C	-0.011156	-0.537302	1.209530
C96	C	-0.010806	-0.665617	1.209458
C97	C	0.142293	-0.741918	1.209514
C98	C	0.141950	-0.613596	1.209563
H99	H	0.102355	-0.458618	0.810728
H100	H	-0.048928	-0.490363	1.209534
C101	C	-0.100449	-0.601308	0.702327
C102	C	-0.140369	-0.641490	0.728994
C103	C	-0.203791	-0.628992	0.779959
C104	C	-0.227293	-0.576312	0.804258
C105	C	-0.187373	-0.536127	0.777591
C106	C	-0.123950	-0.548625	0.726625
H107	H	-0.122972	-0.680489	0.711006
H108	H	-0.233343	-0.658740	0.799700
H109	H	-0.274242	-0.567061	0.841986
H110	H	-0.204770	-0.497128	0.795578
H111	H	-0.094399	-0.518877	0.706885
H112	H	0.100739	-0.004653	0.688708
C113	C	0.192781	-0.600941	1.209582
C114	C	0.181337	-0.583857	1.263061
C115	C	0.232167	-0.571202	1.263080
C116	C	0.294442	-0.575631	1.209619
C117	C	0.305889	-0.592717	1.156135
C118	C	0.255058	-0.605372	1.156117
H119	H	0.135235	-0.580577	1.302640
H120	H	0.223693	-0.558554	1.302672
H121	H	0.332070	-0.566263	1.209632
H122	H	0.351991	-0.595997	1.116556
H123	H	0.263532	-0.618019	1.116524
C124	C	0.045026	-0.493360	0.937569
C125	C	-0.001328	-0.452361	0.901942
C126	C	-0.071412	-0.435132	0.937606
C127	C	-0.095142	-0.458903	1.008896
C128	C	-0.048787	-0.499905	1.044527
C129	C	0.021297	-0.517133	1.008863
H130	H	0.016238	-0.434762	0.849165
H131	H	-0.105727	-0.404780	0.911229
H132	H	-0.147023	-0.446149	1.035297
H133	H	-0.066353	-0.517503	1.097304
H134	H	0.055612	-0.547485	1.035240
H135	H	0.700298	-0.753510	0.539047
C136	C	0.026525	-0.004710	0.447517
C137	C	-0.036972	-0.004717	0.460197
C138	C	-0.049658	-0.004727	0.409372
C139	C	0.001151	-0.004731	0.345868
C140	C	0.064652	-0.004723	0.333185
C141	C	0.077338	-0.004713	0.384010
H142	H	-0.074588	-0.004714	0.507209
H143	H	-0.096666	-0.004733	0.418761
H144	H	-0.008240	-0.004738	0.308245
H145	H	0.102268	-0.004726	0.286173
H146	H	0.124346	-0.004708	0.374621
H147	H	0.700405	-0.753994	0.723681
H148	H	0.700208	-0.525435	0.609919
H149	H	0.255291	-0.593843	0.928229
H150	H	0.214562	-0.674609	0.460411
C151	C	0.312548	-0.559042	0.655018
C152	C	0.341886	-0.507765	0.618894
C153	C	0.411990	-0.524930	0.601535
C154	C	0.452756	-0.593372	0.620301
C155	C	0.423419	-0.644654	0.656427
C156	C	0.353314	-0.627489	0.673785
H157	H	0.311708	-0.457096	0.605001
H158	H	0.433708	-0.486968	0.574792
H159	H	0.504652	-0.606079	0.607451
H160	H	0.453596	-0.695323	0.670320
H161	H	0.331597	-0.665452	0.700528
H162	H	0.214338	-0.004265	0.460069
H163	H	0.294416	-0.554643	0.810656
H164	H	-0.083922	-0.004684	0.689225
C165	C	-0.061613	-0.678248	1.209369
C166	C	-0.048930	-0.741732	1.209318
C167	C	-0.099737	-0.754363	1.209229
C168	C	-0.163227	-0.703511	1.209191
C169	C	-0.175913	-0.640023	1.209242
C170	C	-0.125106	-0.627392	1.209331
H171	H	-0.001928	-0.779379	1.209346
H172	H	-0.090345	-0.801361	1.209191
H173	H	-0.200837	-0.712862	1.209125
H174	H	-0.222915	-0.602376	1.209214
H175	H	-0.134497	-0.580394	1.209369
H176	H	0.102328	-0.458621	0.755642
C177	C	0.026799	-0.473748	0.447312
C178	C	0.009757	-0.414592	0.458663
C179	C	-0.002829	-0.351134	0.407750
C180	C	0.001626	-0.346832	0.345486
C181	C	0.018668	-0.405990	0.334132
C182	C	0.031254	-0.469448	0.385045
H183	H	0.006459	-0.417775	0.504757
H184	H	-0.015445	-0.307341	0.416155
H185	H	-0.007692	-0.299856	0.307797
H186	H	0.021966	-0.402807	0.288038
H187	H	0.043870	-0.513241	0.376640
H188	H	0.180068	-0.788855	1.209502
C189	C	0.044915	-0.493336	0.720919
C190	C	0.015532	-0.544573	0.756987
C191	C	-0.054560	-0.527355	0.774217
C192	C	-0.095268	-0.458898	0.755377
C193	C	-0.065885	-0.407656	0.719306
C194	C	0.004206	-0.424875	0.702077
H195	H	0.045667	-0.595253	0.770935
H196	H	-0.076310	-0.565288	0.800919
H197	H	-0.147153	-0.446152	0.768131
H198	H	-0.096020	-0.356976	0.705359
H199	H	0.025957	-0.386942	0.675375
C200	C	0.267156	-0.604438	0.609737
C201	C	0.313810	-0.666953	0.634512
C202	C	0.360137	-0.707928	0.593505
C203	C	0.359808	-0.686388	0.527723
C204	C	0.313152	-0.623870	0.502944
C205	C	0.266826	-0.582895	0.543951
H206	H	0.314055	-0.682901	0.683212
H207	H	0.394674	-0.754208	0.611849
H208	H	0.394102	-0.716720	0.497367
H209	H	0.312908	-0.607921	0.454244
H210	H	0.232288	-0.536614	0.525607
C211	C	0.292188	-0.613637	0.752663
C212	C	0.327844	-0.683191	0.762763
C213	C	0.292212	-0.728984	0.796648
C214	C	0.220923	-0.705223	0.820433
C215	C	0.185264	-0.635665	0.810334
C216	C	0.220896	-0.589872	0.776449
H217	H	0.380619	-0.700784	0.745156
H218	H	0.318610	-0.780475	0.804124
H219	H	0.194546	-0.739122	0.845516
H220	H	0.132488	-0.618073	0.827941
H221	H	0.194498	-0.538381	0.768973
H222	H	0.100526	-0.788925	0.688956
C223	C	0.700057	-0.511679	0.408830
C224	C	0.700030	-0.524051	0.357808
C225	C	0.699954	-0.473005	0.294424
C226	C	0.699905	-0.409587	0.282061
C227	C	0.699931	-0.397213	0.333084
C228	C	0.700007	-0.448259	0.396468
H229	H	0.700067	-0.570999	0.366959
H230	H	0.699934	-0.482165	0.256654
H231	H	0.699848	-0.371800	0.235140
H232	H	0.699894	-0.350265	0.323933
H233	H	0.700027	-0.439098	0.434239
H234	H	0.418982	-0.450689	0.632093
C235	C	0.292148	-0.393427	0.668687
C236	C	0.301029	-0.346300	0.602551
C237	C	0.265374	-0.276742	0.592446
C238	C	0.220839	-0.254310	0.648476
C239	C	0.211956	-0.301437	0.714617
C240	C	0.247611	-0.370996	0.724722
H241	H	0.333998	-0.362904	0.561070
H242	H	0.271950	-0.241855	0.543484
H243	H	0.194446	-0.202819	0.640995
H244	H	0.178987	-0.284833	0.756098
H245	H	0.241035	-0.405883	0.773684
H246	H	0.246280	-0.403511	0.611604
C247	C	0.211514	-0.276659	0.554232
C248	C	0.252487	-0.312293	0.507889
C249	C	0.269675	-0.276633	0.437799
C250	C	0.245891	-0.205339	0.414052
C251	C	0.204915	-0.169701	0.460396
C252	C	0.187727	-0.205361	0.530486
H253	H	0.270095	-0.365072	0.525468
H254	H	0.300008	-0.303015	0.403493
H255	H	0.258615	-0.178942	0.362167
H256	H	0.187306	-0.116922	0.442817
H257	H	0.157394	-0.178980	0.564792
H258	H	0.111138	-0.285961	0.764475
C259	C	0.145899	-0.412815	0.821847
C260	C	0.197155	-0.457378	0.851234
C261	C	0.179969	-0.493039	0.921324
C262	C	0.111527	-0.484138	0.962026
C263	C	0.060267	-0.439574	0.932639
C264	C	0.077453	-0.403913	0.862550
H265	H	0.247824	-0.463968	0.821103
H266	H	0.217915	-0.526028	0.943077
H267	H	0.098805	-0.510536	1.013911
H268	H	0.009598	-0.432983	0.962770
H269	H	0.039507	-0.370923	0.840796
H270	H	0.419022	-0.640939	0.704632
