data_functionalizedCrystal
_audit_creation_method	'MofGen! by Chris Wilmer'
_symmetry_space_group_name_H-M	'P1'
_symmetry_Int_Tables_number	1
_symmetry_cell_setting	triclinic
loop_
_symmetry_equiv_pos_as_xyz
  x,y,z
_cell_length_a	19.121215
_cell_length_b	29.839131
_cell_length_c	19.120904
_cell_angle_alpha	87.598232
_cell_angle_beta	90.126793
_cell_angle_gamma	92.468360
loop_
_atom_site_label
_atom_site_type_symbol
_atom_site_fract_x
_atom_site_fract_y
_atom_site_fract_z
Zn1	Zn	1.054826	-0.162214	0.442187
Zn2	Zn	1.059727	-0.234009	0.324928
Zn3	Zn	0.942593	-0.161946	0.319952
Zn4	Zn	0.937534	-0.240372	0.437108
O5	O	0.998670	-0.199635	0.381044
O6	O	1.153585	-0.169187	0.430840
O7	O	1.048357	-0.221674	0.226165
O8	O	0.957547	-0.099114	0.336210
O9	O	1.157185	-0.221934	0.344691
O10	O	1.040005	-0.099311	0.426015
O11	O	0.962299	-0.168730	0.222509
O12	O	0.843814	-0.174901	0.331285
O13	O	0.948925	-0.232779	0.535885
O14	O	0.840097	-0.232520	0.417359
O15	O	1.035099	-0.175357	0.539616
O16	O	1.043452	-0.297721	0.339766
O17	O	0.953677	-0.302396	0.422184
C18	C	0.816517	-0.204372	0.373231
C19	C	0.738590	-0.206410	0.369906
C20	C	0.297945	-0.219311	0.348867
C21	C	0.371166	-0.217394	0.351986
C22	C	0.405901	-0.189021	0.398472
C23	C	0.367411	-0.162561	0.441837
C24	C	0.294192	-0.164477	0.438713
C25	C	0.626881	-0.181865	0.410147
C26	C	0.700106	-0.179953	0.413269
C27	C	0.703856	-0.234785	0.323417
C28	C	0.630635	-0.236700	0.320300
C29	C	0.592152	-0.210238	0.363662
C30	C	0.480744	-0.187062	0.401663
C31	C	0.517310	-0.212195	0.360467
C32	C	0.998566	-0.316359	0.380980
C33	C	0.998584	-0.366293	0.380979
C34	C	1.041593	-0.676005	0.427869
C35	C	1.041668	-0.863677	0.427914
O36	O	1.078133	-0.888002	0.467733
N37	N	0.998786	-0.887076	0.381127
C38	C	0.955879	-0.863555	0.334327
O39	O	0.919402	-0.887763	0.294538
C40	C	0.955802	-0.675883	0.334286
C41	C	0.998692	-0.652487	0.381072
C42	C	1.084479	-0.652608	0.474651
C43	C	1.084463	-0.605693	0.474637
C44	C	1.041561	-0.582174	0.427840
C45	C	0.998675	-0.605571	0.381058
C46	C	0.912892	-0.652363	0.287491
C47	C	0.912875	-0.605442	0.287486
C48	C	0.955765	-0.582045	0.334272
C49	C	0.955757	-0.535137	0.334246
N50	N	0.998639	-0.511738	0.381034
C51	C	1.041541	-0.535257	0.427831
C52	C	0.955924	-0.962085	0.334352
C53	C	0.955944	-1.009002	0.334361
C54	C	1.041732	-1.009122	0.427949
C55	C	1.041715	-0.962203	0.427936
C56	C	0.998806	-0.938686	0.381139
C57	C	1.041504	-0.436731	0.427797
C58	C	1.041486	-0.389811	0.427776
C59	C	0.955696	-0.389696	0.334191
C60	C	0.955716	-0.436612	0.334209
C61	C	0.998622	-0.460128	0.381017
O62	O	0.919306	-0.510784	0.294453
O63	O	1.078001	-0.511041	0.467625
C64	C	1.041610	-0.722921	0.427883
C65	C	0.998724	-0.746317	0.381101
C66	C	0.955822	-0.722799	0.334304
C67	C	0.998744	-0.793235	0.381110
C68	C	1.041646	-0.816754	0.427907
C69	C	1.084528	-0.793355	0.474695
C70	C	1.084511	-0.746439	0.474680
C71	C	0.912940	-0.746198	0.287516
C72	C	0.912961	-0.793113	0.287534
C73	C	0.955863	-0.816632	0.334331
C74	C	1.181535	-0.194880	0.388887
C75	C	1.259461	-0.192854	0.392229
C76	C	0.990901	-0.204808	0.563899
C77	C	0.987591	-0.207012	0.641821
C78	C	0.998793	-0.082456	0.381124
C79	C	0.998846	-0.032521	0.381158
C80	C	1.006449	-0.194449	0.198902
C81	C	1.009896	-0.192115	0.120986
C82	C	1.030899	-0.178152	0.680373
C83	C	1.027780	-0.180222	0.753589
C84	C	0.981355	-0.211154	0.788251
C85	C	0.938042	-0.240015	0.749694
C86	C	0.941158	-0.237943	0.676480
C87	C	0.969699	-0.218904	1.009214
C88	C	0.966587	-0.220975	1.082434
C89	C	1.056325	-0.161181	1.086323
C90	C	1.059440	-0.159113	1.013107
C91	C	1.016124	-0.187973	0.974557
C92	C	0.978167	-0.213271	0.863090
C93	C	1.019309	-0.185853	0.899720
H94	H	0.602359	-0.259803	0.282445
C95	C	0.584559	-0.152760	0.457852
N96	N	0.552679	-0.130837	0.493787
C97	C	0.886967	-0.274036	0.787826
N98	N	0.848496	-0.299662	0.816545
C99	C	0.922047	-0.250649	0.966818
N100	N	0.886153	-0.274561	0.934882
H101	H	0.940371	-0.238458	0.891320
H102	H	1.076665	-1.028279	0.466052
C103	C	1.075424	-0.148474	0.795992
N104	N	1.111312	-0.124560	0.827930
H105	H	1.119414	-0.671752	0.512763
H106	H	1.119385	-0.586646	0.512736
C107	C	1.088893	-0.936471	0.479406
N108	N	1.124429	-0.917092	0.518177
H109	H	0.920768	-0.370540	0.296087
H110	H	0.905885	-0.261439	0.645091
H111	H	1.119462	-0.812511	0.512796
H112	H	1.119436	-0.727393	0.512778
H113	H	0.269670	-0.242417	0.311016
H114	H	1.057105	-0.160667	0.871494
H115	H	0.921027	-1.028048	0.296256
C116	C	0.479100	-0.243404	0.309334
N117	N	0.450313	-0.266912	0.270823
H118	H	0.402497	-0.238937	0.316674
C119	C	0.908540	-0.462348	0.282738
N120	N	0.873000	-0.481731	0.243975
C121	C	1.110504	-0.125081	0.974984
N122	N	1.148965	-0.099448	0.946269
H123	H	0.920981	-0.942940	0.296243
C124	C	1.081970	-0.144124	0.642251
N125	N	1.120436	-0.118491	0.613539
C126	C	0.865704	-0.678089	0.236026
N127	N	0.830157	-0.697465	0.197262
H128	H	0.395698	-0.139458	0.479684
C129	C	0.746193	-0.263886	0.275714
N130	N	0.778082	-0.285803	0.239779
H131	H	0.509033	-0.163962	0.439514
H132	H	1.076415	-0.370763	0.465875
C133	C	0.738312	-0.148739	0.464408
N134	N	0.767089	-0.125230	0.502925
H135	H	0.877931	-0.586296	0.249379
H136	H	1.091589	-0.137685	1.117719
H137	H	0.262858	-0.142931	0.474022
H138	H	0.878036	-0.812159	0.249429
C139	C	1.088708	-0.462592	0.479284
N140	N	1.124266	-0.482070	0.518060
C141	C	0.915512	-0.255003	1.120561
N142	N	0.877044	-0.280631	1.149279
H143	H	0.878004	-0.727053	0.249409
