data_functionalizedCrystal
_audit_creation_method	'MofGen! by Chris Wilmer'
_symmetry_space_group_name_H-M	'P1'
_symmetry_Int_Tables_number	1
_symmetry_cell_setting	triclinic
loop_
_symmetry_equiv_pos_as_xyz
  x,y,z
_cell_length_a	18.101398
_cell_length_b	12.594516
_cell_length_c	18.101390
_cell_angle_alpha	89.972985
_cell_angle_beta	89.975319
_cell_angle_gamma	90.011320
loop_
_atom_site_label
_atom_site_type_symbol
_atom_site_fract_x
_atom_site_fract_y
_atom_site_fract_z
Zn1	Zn	1.132201	-0.423836	-0.418869
Zn2	Zn	1.632201	0.076164	0.081131
Zn3	Zn	1.132129	-0.601849	-0.295040
Zn4	Zn	1.632129	-0.101849	0.204960
Zn5	Zn	1.008359	-0.423870	-0.295030
Zn6	Zn	1.508359	0.076130	0.204970
Zn7	Zn	1.008343	-0.601758	-0.418829
Zn8	Zn	1.508343	-0.101758	0.081171
O9	O	1.070258	-0.512828	-0.356942
O10	O	1.570258	-0.012828	0.143058
O11	O	1.235824	-0.447473	-0.402464
O12	O	1.735824	0.052527	0.097536
O13	O	1.115687	-0.578291	-0.191406
O14	O	1.615687	-0.078291	0.308594
O15	O	1.024824	-0.274919	-0.311470
O16	O	1.524824	0.225081	0.188530
O17	O	1.235771	-0.578258	-0.311488
O18	O	1.735771	-0.078258	0.188512
O19	O	1.115810	-0.274895	-0.402454
O20	O	1.615810	0.225105	0.097546
O21	O	1.024754	-0.447531	-0.191399
O22	O	1.524754	0.052469	0.308601
O23	O	0.904724	-0.447443	-0.311431
O24	O	1.404724	0.052557	0.188569
O25	O	1.024797	-0.578104	-0.522467
O26	O	1.524797	-0.078104	-0.022467
O27	O	0.904713	-0.578137	-0.402386
O28	O	1.404713	-0.078137	0.097614
O29	O	1.115795	-0.447385	-0.522497
O30	O	1.615795	0.052615	-0.022497
O31	O	1.115671	-0.750782	-0.311449
O32	O	1.615671	-0.250782	0.188551
O33	O	1.024727	-0.750716	-0.402396
O34	O	1.524727	-0.250716	0.097604
C35	C	0.877848	-0.512785	-0.356904
C36	C	1.377848	-0.012785	0.143096
C37	C	0.795533	-0.512792	-0.356905
C38	C	1.295533	-0.012792	0.143095
C39	C	0.496443	-0.512858	-0.356967
C40	C	0.996443	-0.012858	0.143033
C41	C	0.527750	-0.430218	-0.300020
C42	C	1.027750	0.069782	0.199980
C43	C	0.613368	-0.430440	-0.299777
C44	C	1.113368	0.069560	0.200223
C45	C	0.644825	-0.512825	-0.356936
C46	C	1.144825	-0.012825	0.143064
C47	C	0.613727	-0.624949	-0.335619
C48	C	1.113727	-0.124949	0.164381
C49	C	0.528082	-0.624490	-0.335224
C50	C	1.028082	-0.124490	0.164776
C51	C	0.528052	-0.484349	-0.435364
C52	C	1.028052	0.015651	0.064636
C53	C	0.613703	-0.481852	-0.434936
C54	C	1.113703	0.018148	0.065064
C55	C	0.728685	-0.512812	-0.356920
C56	C	1.228685	-0.012812	0.143080
C57	C	0.412583	-0.512878	-0.356981
C58	C	0.912583	-0.012878	0.143019
C59	C	1.070210	-0.789369	-0.356935
C60	C	1.570210	-0.289369	0.143065
C61	C	1.070257	-0.907674	-0.356957
C62	C	1.570257	-0.407674	0.143043
C63	C	1.020787	-0.976930	-0.406388
C64	C	1.520787	-0.476930	0.093612
C65	C	1.002745	-1.047795	-0.338810
C66	C	1.502745	-0.547795	0.161190
C67	C	1.088366	-1.047609	-0.424546
C68	C	1.588366	-0.547609	0.075454
C69	C	1.052179	-0.976981	-0.289343
C70	C	1.552179	-0.476981	0.210657
C71	C	1.137831	-0.976789	-0.375124
C72	C	1.637831	-0.476789	0.124876
C73	C	1.119815	-1.047621	-0.307500
C74	C	1.619815	-0.547621	0.192500
C75	C	1.263420	-0.512872	-0.356981
C76	C	1.763420	-0.012872	0.143019
C77	C	1.345734	-0.512891	-0.356998
C78	C	1.845734	-0.012891	0.143002
C79	C	1.070302	-0.512731	-0.550104
C80	C	1.570302	-0.012731	-0.050104
C81	C	1.070321	-0.512689	-0.632418
C82	C	1.570321	-0.012689	-0.132418
C83	C	1.070327	-0.235207	-0.356966
C84	C	1.570327	0.264793	0.143034
C85	C	1.070356	-0.116902	-0.356976
C86	C	1.570356	0.383098	0.143024
C87	C	1.070361	-0.512623	-0.931509
C88	C	1.570361	-0.012623	-0.431509
C89	C	1.127803	-0.430668	-0.900203
C90	C	1.627803	0.069332	-0.400203
C91	C	1.127624	-0.430364	-0.814585
C92	C	1.627624	0.069636	-0.314585
C93	C	1.070342	-0.512656	-0.783127
C94	C	1.570342	-0.012656	-0.283127
C95	C	0.992319	-0.482173	-0.814191
C96	C	1.492319	0.017827	-0.314191
C97	C	0.992663	-0.481558	-0.899836
C98	C	1.492663	0.018442	-0.399836
C99	C	1.090254	-0.625273	-0.899931
C100	C	1.590254	-0.125273	-0.399931
C101	C	1.091966	-0.624698	-0.814282
C102	C	1.591966	-0.124698	-0.314282
C103	C	1.070326	-0.512676	-0.699267
C104	C	1.570326	-0.012676	-0.199267
C105	C	1.070371	-0.512600	-1.015369
C106	C	1.570371	-0.012600	-0.515369
C107	C	1.070257	-0.512848	-0.164532
C108	C	1.570257	-0.012848	0.335468
C109	C	1.070382	-0.512590	-0.082218
C110	C	1.570382	-0.012590	0.417782
H111	H	0.508074	-0.648666	-0.277911
H112	H	1.008074	-0.148666	0.222089
Br113	Br	1.189618	-1.099031	-0.237765
Br114	Br	1.689618	-0.599031	0.262235
H115	H	1.146151	-0.653028	-0.921583
H116	H	1.646151	-0.153028	-0.421583
Br117	Br	1.232982	-0.924766	-0.400763
Br118	Br	1.732982	-0.424766	0.099237
H119	H	1.048420	-0.686338	-0.920182
H120	H	1.548420	-0.186338	-0.420182
Br121	Br	0.907570	-1.099774	-0.313201
Br122	Br	1.407570	-0.599774	0.186799
Br123	Br	1.026610	-0.925494	-0.194058
Br124	Br	1.526610	-0.425494	0.305942
Br125	Br	0.493559	-0.730593	-0.401335
Br126	Br	0.993559	-0.230593	0.098665
Br127	Br	1.105674	-0.291269	-0.780443
Br128	Br	1.605674	0.208731	-0.280443
H129	H	0.975801	-0.399212	-0.919820
H130	H	1.475801	0.100788	-0.419820
H131	H	0.634394	-0.347296	-0.313138
H132	H	1.134394	0.152704	0.186862
Br133	Br	0.491822	-0.461251	-0.203761
Br134	Br	0.991822	0.038749	0.296239
Br135	Br	0.492077	-0.350444	-0.467669
Br136	Br	0.992077	0.149556	0.032331
Br137	Br	0.493443	-0.291208	-0.322040
Br138	Br	0.993443	0.208792	0.177960
H139	H	1.103643	-1.078633	-0.481697
H140	H	1.603643	-0.578633	0.018303
H141	H	0.633825	-0.449288	-0.241685
H142	H	1.133825	0.050712	0.258315
H143	H	0.634032	-0.399341	-0.451010
H144	H	1.134032	0.100659	0.048990
H145	H	1.053172	-0.689043	-0.792865
H146	H	1.553172	-0.189043	-0.292865
Br147	Br	0.494311	-0.584671	-0.506085
Br148	Br	0.994311	-0.084671	-0.006085
Br149	Br	0.649391	-0.574865	-0.509447
Br150	Br	1.149391	-0.074865	-0.009447
H151	H	1.114800	-0.347681	-0.921733
H152	H	1.614800	0.152319	-0.421733
H153	H	0.634104	-0.688172	-0.375799
H154	H	1.134104	-0.188172	0.124201
Br155	Br	0.918893	-0.576701	-0.934356
Br156	Br	1.418893	-0.076701	-0.434356
H157	H	1.185847	-0.449523	-0.920811
H158	H	1.685847	0.050477	-0.420811
Br159	Br	0.649423	-0.665949	-0.241127
Br160	Br	1.149423	-0.165949	0.258873
H161	H	0.948358	-0.540026	-0.793812
H162	H	1.448358	-0.040026	-0.293812
H163	H	0.978877	-0.945890	-0.448129
H164	H	1.478877	-0.445890	0.051871
Br165	Br	1.224054	-0.462167	-0.779576
Br166	Br	1.724054	0.037833	-0.279576
Br167	Br	0.963703	-0.346444	-0.778456
Br168	Br	1.463703	0.153556	-0.278456
H169	H	1.149384	-0.647685	-0.793978
H170	H	1.649384	-0.147685	-0.293978
