data_functionalizedCrystal
_audit_creation_method	'MofGen! by Chris Wilmer'
_symmetry_space_group_name_H-M	'P1'
_symmetry_Int_Tables_number	1
_symmetry_cell_setting	triclinic
loop_
_symmetry_equiv_pos_as_xyz
  x,y,z
_cell_length_a	21.395362
_cell_length_b	16.959454
_cell_length_c	21.395356
_cell_angle_alpha	89.977834
_cell_angle_beta	89.957023
_cell_angle_gamma	90.035955
loop_
_atom_site_label
_atom_site_type_symbol
_atom_site_fract_x
_atom_site_fract_y
_atom_site_fract_z
Zn1	Zn	0.957900	-0.314366	-0.354610
Zn2	Zn	0.957824	-0.446548	-0.249842
Zn3	Zn	0.853117	-0.314424	-0.249811
Zn4	Zn	0.853103	-0.446544	-0.354547
O5	O	0.905486	-0.380471	-0.302202
O6	O	1.045568	-0.331878	-0.340751
O7	O	0.943907	-0.429048	-0.162160
O8	O	0.867054	-0.203806	-0.263726
O9	O	1.045512	-0.428992	-0.263779
O10	O	0.944038	-0.203763	-0.340721
O11	O	0.866980	-0.331977	-0.162137
O12	O	0.765437	-0.331973	-0.263665
O13	O	0.867031	-0.428984	-0.442233
O14	O	0.765427	-0.429040	-0.340614
O15	O	0.944025	-0.331874	-0.442279
O16	O	0.943895	-0.557159	-0.263718
O17	O	0.866957	-0.557155	-0.340645
C18	C	0.742698	-0.380513	-0.302130
C19	C	0.673057	-0.380549	-0.302114
C20	C	0.905433	-0.585837	-0.302192
C21	C	0.905468	-0.673694	-0.302208
C22	C	0.640355	-0.431159	-0.342121
C23	C	0.574920	-0.431140	-0.342149
C24	C	0.542189	-0.380519	-0.302158
C25	C	0.574898	-0.329899	-0.262148
C26	C	0.640332	-0.329914	-0.262126
C27	C	0.438464	-0.374163	-0.245752
C28	C	0.373031	-0.374153	-0.245774
C29	C	0.340368	-0.380467	-0.302227
C30	C	0.373146	-0.386808	-0.358661
C31	C	0.438580	-0.386823	-0.358639
C32	C	0.471236	-0.380496	-0.302178
C33	C	0.236714	-0.431059	-0.342268
C34	C	0.171277	-0.431034	-0.342297
C35	C	0.171257	-0.329797	-0.262291
C36	C	0.236692	-0.329818	-0.262267
C37	C	0.269417	-0.380453	-0.302255
C38	C	0.865483	-1.045197	-0.342254
C39	C	0.945664	-1.045141	-0.262215
C40	C	0.945642	-0.962595	-0.262209
C41	C	0.905539	-0.921346	-0.302226
C42	C	0.865458	-0.962644	-0.342248
C43	C	0.985717	-0.921292	-0.222184
C44	C	0.985696	-0.838741	-0.222176
C45	C	0.945596	-0.797491	-0.262196
C46	C	0.905515	-0.838793	-0.302220
C47	C	0.865412	-0.797544	-0.342236
C48	C	0.825333	-0.838845	-0.382264
C49	C	0.825358	-0.921394	-0.382268
C50	C	0.945571	-0.714942	-0.262192
C51	C	0.865387	-0.714991	-0.342230
C52	C	1.068909	-0.380429	-0.302276
C53	C	1.138550	-0.380412	-0.302307
C54	C	0.905535	-0.380422	-0.465626
C55	C	0.905556	-0.380401	-0.535267
C56	C	0.905556	-0.174302	-0.302227
C57	C	0.905585	-0.086446	-0.302237
C58	C	0.865511	-0.329850	-0.567958
C59	C	0.865508	-0.329836	-0.633394
C60	C	0.905563	-0.380363	-0.666135
C61	C	0.945611	-0.430924	-0.633436
C62	C	0.945608	-0.430942	-0.568002
C63	C	0.962016	-0.386558	-0.769841
C64	C	0.962020	-0.386533	-0.835274
C65	C	0.905573	-0.380310	-0.867956
C66	C	0.849120	-0.374094	-0.835197
C67	C	0.849117	-0.374113	-0.769763
C68	C	0.905571	-0.380349	-0.737088
C69	C	0.865522	-0.329741	-0.971600
C70	C	0.865519	-0.329732	-1.037037
C71	C	0.945627	-0.430815	-1.037078
C72	C	0.945625	-0.430829	-0.971643
C73	C	0.905573	-0.380287	-0.938908
C74	C	0.905473	-0.380462	-0.139415
C75	C	0.905573	-0.380261	-0.069774
H76	H	0.666995	-0.472389	-0.374683
N77	N	0.539598	-0.275311	-0.219007
H78	H	0.512494	-0.238718	-0.244523
H79	H	0.512439	-0.307447	-0.189949
H80	H	0.792727	-0.955028	-0.414855
N81	N	0.822308	-0.275323	-0.668667
H82	H	0.847782	-0.238684	-0.695844
H83	H	0.793277	-0.307516	-0.695751
H84	H	0.978221	-0.472106	-0.541385
H85	H	0.832853	-1.078828	-0.374845
H86	H	0.548289	-0.472352	-0.374730
N87	N	0.822136	-0.670503	-0.385394
H88	H	0.796752	-0.709194	-0.410750
H89	H	0.793141	-0.636308	-0.359851
H90	H	0.263359	-0.472285	-0.374832
H91	H	0.465053	-0.369017	-0.199778
H92	H	0.792678	-0.805251	-0.414843
N93	N	1.028963	-0.965792	-0.179029
H94	H	1.073722	-0.951367	-0.188811
H95	H	1.019196	-0.951457	-0.134264
N96	N	0.988905	-1.089626	-0.219046
H97	H	0.982835	-1.148187	-0.225120
H98	H	1.033646	-1.075142	-0.228848
H99	H	0.666958	-0.288699	-0.229547
H100	H	0.263318	-0.288610	-0.229686
H101	H	0.978224	-0.472064	-0.660099
N102	N	1.028928	-0.794198	-0.179012
H103	H	1.054337	-0.832856	-0.153665
H104	H	1.057899	-0.759903	-0.204557
H105	H	1.007986	-0.391619	-0.743237
H106	H	0.978200	-0.681319	-0.229599
H107	H	0.465265	-0.391984	-0.404590
H108	H	0.803150	-0.369053	-0.743093
N109	N	0.822320	-0.275213	-1.072300
H110	H	0.796949	-0.243200	-1.041631
H111	H	0.847838	-0.238623	-1.099475
N112	N	0.337927	-0.393624	-0.419556
H113	H	0.291502	-0.392648	-0.411010
H114	H	0.349428	-0.347964	-0.447626
H115	H	0.144652	-0.472245	-0.374880
N116	N	0.988826	-0.485321	-1.072383
H117	H	0.982750	-0.477641	-1.118796
H118	H	1.033578	-0.473012	-1.060979
N119	N	0.788232	-0.367391	-0.870438
H120	H	0.752472	-0.363457	-0.839757
H121	H	0.789148	-0.318683	-0.897598
H122	H	0.832895	-0.288698	-0.541310
H123	H	0.832909	-0.288587	-0.944946
H124	H	0.978236	-0.471991	-0.945025
N125	N	1.022904	-0.393240	-0.870606
H126	H	1.050965	-0.347537	-0.859242
H127	H	1.044147	-0.444424	-0.859213
N128	N	0.135964	-0.275192	-0.219161
H129	H	0.089549	-0.282859	-0.225247
H130	H	0.147343	-0.287421	-0.174393
H131	H	0.346348	-0.368995	-0.199822
