data_functionalizedCrystal
_audit_creation_method	'MofGen! by Chris Wilmer'
_symmetry_space_group_name_H-M	'P1'
_symmetry_Int_Tables_number	1
_symmetry_cell_setting	triclinic
loop_
_symmetry_equiv_pos_as_xyz
  x,y,z
_cell_length_a	16.109317
_cell_length_b	14.586319
_cell_length_c	16.109301
_cell_angle_alpha	89.995022
_cell_angle_beta	96.535152
_cell_angle_gamma	89.999094
loop_
_atom_site_label
_atom_site_type_symbol
_atom_site_fract_x
_atom_site_fract_y
_atom_site_fract_z
O1	O	-1.103122	-0.076146	0.106931
O2	O	-0.853122	0.173854	0.356931
O3	O	-0.603122	0.423854	0.606931
O4	O	-0.353122	0.673854	0.856931
O5	O	-0.861062	-0.076169	0.120216
O6	O	-0.611062	0.173831	0.370216
O7	O	-0.361062	0.423831	0.620216
O8	O	-0.111062	0.673831	0.870216
O9	O	-0.988742	-0.076147	-0.007457
O10	O	-0.738742	0.173853	0.242543
O11	O	-0.488742	0.423853	0.492543
O12	O	-0.238742	0.673853	0.742543
O13	O	-0.975443	-0.076167	0.234604
O14	O	-0.725443	0.173833	0.484604
O15	O	-0.475443	0.423833	0.734604
O16	O	-0.225443	0.673833	0.984604
O17	O	-0.988733	0.076333	-0.007458
O18	O	-0.738733	0.326333	0.242542
O19	O	-0.488733	0.576333	0.492542
O20	O	-0.238733	0.826333	0.742542
O21	O	-0.861053	0.076312	0.120215
O22	O	-0.611053	0.326312	0.370215
O23	O	-0.361053	0.576312	0.620215
O24	O	-0.111053	0.826312	0.870215
O25	O	-1.103113	0.076335	0.106930
O26	O	-0.853113	0.326335	0.356930
O27	O	-0.603113	0.576335	0.606930
O28	O	-0.353113	0.826335	0.856930
Cu29	Cu	-0.982082	0.090246	0.113572
Cu30	Cu	-0.732082	0.340246	0.363572
Cu31	Cu	-0.482082	0.590246	0.613572
Cu32	Cu	-0.232082	0.840246	0.863572
Cu33	Cu	-0.982093	-0.090080	0.113574
Cu34	Cu	-0.732093	0.159920	0.363574
Cu35	Cu	-0.482093	0.409920	0.613574
Cu36	Cu	-0.232093	0.659920	0.863574
O37	O	-0.975433	0.076313	0.234603
O38	O	-0.725433	0.326313	0.484603
O39	O	-0.475433	0.576313	0.734603
O40	O	-0.225433	0.826313	0.984603
C41	C	-0.830083	0.000068	0.119675
C42	C	-0.580083	0.250068	0.369675
C43	C	-0.330083	0.500068	0.619675
C44	C	-0.080083	0.750068	0.869675
C45	C	-0.737788	0.000060	0.118054
C46	C	-0.487788	0.250060	0.368054
C47	C	-0.237788	0.500060	0.618054
C48	C	0.012212	0.750060	0.868054
N49	N	-0.982081	0.217078	0.113571
N50	N	-0.732081	0.467078	0.363571
N51	N	-0.482081	0.717078	0.613571
N52	N	-0.232081	0.967078	0.863571
C53	C	-0.988199	0.000093	-0.038433
C54	C	-0.738199	0.250093	0.211567
C55	C	-0.488199	0.500093	0.461567
C56	C	-0.238199	0.750093	0.711567
C57	C	-0.986584	0.000095	-0.130728
C58	C	-0.736584	0.250095	0.119272
C59	C	-0.486584	0.500095	0.369272
C60	C	-0.236584	0.750095	0.619272
C61	C	-0.438720	-0.083047	0.112821
C62	C	-0.188720	0.166953	0.362821
C63	C	0.061280	0.416953	0.612821
C64	C	0.311280	0.666953	0.862821
C65	C	-0.525441	-0.083051	0.114338
C66	C	-0.275441	0.166949	0.364338
C67	C	-0.025441	0.416949	0.614338
C68	C	0.224559	0.666949	0.864338
C69	C	-0.525450	0.083192	0.114325
C70	C	-0.275450	0.333192	0.364325
C71	C	-0.025450	0.583192	0.614325
C72	C	0.224550	0.833192	0.864325
C73	C	-0.438731	0.083195	0.112802
C74	C	-0.188731	0.333195	0.362802
C75	C	0.061269	0.583195	0.612802
C76	C	0.311269	0.833195	0.862802
C77	C	-0.395367	0.000073	0.112054
C78	C	-0.145367	0.250073	0.362054
C79	C	0.104633	0.500073	0.612054
C80	C	0.354633	0.750073	0.862054
C81	C	-0.568808	0.000066	0.115095
C82	C	-0.318808	0.250066	0.365095
C83	C	-0.068808	0.500066	0.615095
C84	C	0.181192	0.750066	0.865095
C85	C	-0.662835	0.000062	0.116740
C86	C	-0.412835	0.250062	0.366740
C87	C	-0.162835	0.500062	0.616740
C88	C	0.087165	0.750062	0.866740
C89	C	-0.301335	0.000076	0.110408
C90	C	-0.051335	0.250076	0.360408
C91	C	0.198665	0.500076	0.610408
C92	C	0.448665	0.750076	0.860408
C93	C	-0.134092	0.000091	0.107472
C94	C	0.115908	0.250091	0.357472
C95	C	0.365908	0.500091	0.607472
C96	C	0.615908	0.750091	0.857472
C97	C	-0.226387	0.000079	0.109095
C98	C	0.023613	0.250079	0.359095
C99	C	0.273613	0.500079	0.609095
C100	C	0.523613	0.750079	0.859095
C101	C	-1.038635	0.452094	0.057057
C102	C	-0.788635	0.702094	0.307057
C103	C	-0.538635	0.952094	0.557057
C104	C	-0.288635	1.202094	0.807057
C105	C	-1.038637	0.548075	0.057055
C106	C	-0.788637	0.798075	0.307055
C107	C	-0.538637	1.048075	0.557055
C108	C	-0.288637	1.298075	0.807055
C109	C	-0.925538	0.548065	0.170089
C110	C	-0.675538	0.798065	0.420089
C111	C	-0.425538	1.048065	0.670089
C112	C	-0.175538	1.298065	0.920089
C113	C	-0.925532	0.452086	0.170086
C114	C	-0.675532	0.702086	0.420086
C115	C	-0.425532	0.952086	0.670086
C116	C	-0.175532	1.202086	0.920086
C117	C	-0.982086	0.404103	0.113571
C118	C	-0.732086	0.654103	0.363571
C119	C	-0.482086	0.904103	0.613571
C120	C	-0.232086	1.154103	0.863571
C121	C	-0.982093	0.596063	0.113572
C122	C	-0.732093	0.846063	0.363572
C123	C	-0.482093	1.096063	0.613572
C124	C	-0.232093	1.346063	0.863572
C125	C	-0.982095	0.700131	0.113571
C126	C	-0.732095	0.950131	0.363571
C127	C	-0.482095	1.200131	0.613571
C128	C	-0.232095	1.450131	0.863571
C129	C	-0.982083	0.300029	0.113571
C130	C	-0.732083	0.550029	0.363571
C131	C	-0.482083	0.800029	0.613571
C132	C	-0.232083	1.050029	0.863571
N133	N	-0.982098	0.783088	0.113573
N134	N	-0.732098	1.033088	0.363573
N135	N	-0.482098	1.283088	0.613573
N136	N	-0.232098	1.533088	0.863573
C137	C	-1.058591	0.000087	-0.352996
C138	C	-0.808591	0.250087	-0.102996
C139	C	-0.558591	0.500087	0.147004
C140	C	-0.308591	0.750087	0.397004
C141	C	-1.057067	0.000079	-0.439717
C142	C	-0.807067	0.250079	-0.189717
C143	C	-0.557067	0.500079	0.060283
C144	C	-0.307067	0.750079	0.310283
C145	C	-0.905579	0.000068	-0.419851
C146	C	-0.655579	0.250068	-0.169851
C147	C	-0.405579	0.500068	0.080149
C148	C	-0.155579	0.750068	0.330149
C149	C	-0.907104	0.000069	-0.333132
C150	C	-0.657104	0.250069	-0.083132
C151	C	-0.407104	0.500069	0.166868
C152	C	-0.157104	0.750069	0.416868
C153	C	-0.983612	0.000083	-0.299707
C154	C	-0.733612	0.250083	-0.049707
C155	C	-0.483612	0.500083	0.200293
C156	C	-0.233612	0.750083	0.450293
C157	C	-0.980563	0.000075	-0.473147
C158	C	-0.730563	0.250075	-0.223147
C159	C	-0.480563	0.500075	0.026853
C160	C	-0.230563	0.750075	0.276853
C161	C	-0.978910	0.000066	-0.567173
C162	C	-0.728910	0.250066	-0.317173
C163	C	-0.478910	0.500066	-0.067173
C164	C	-0.228910	0.750066	0.182827
C165	C	-0.985266	0.000090	-0.205675
C166	C	-0.735266	0.250090	0.044325
C167	C	-0.485266	0.500090	0.294325
C168	C	-0.235266	0.750090	0.544325
C169	C	-0.975977	0.000071	0.265578
C170	C	-0.725977	0.250071	0.515578
C171	C	-0.475977	0.500071	0.765578
C172	C	-0.225977	0.750071	1.015578
C173	C	-0.977592	0.000063	0.357874
C174	C	-0.727592	0.250063	0.607874
C175	C	-0.477592	0.500063	0.857874
C176	C	-0.227592	0.750063	1.107874
H177	H	-0.403416	-0.150730	0.112211
H178	H	-0.153416	0.099270	0.362211
H179	H	0.096584	0.349270	0.612211
H180	H	0.346584	0.599270	0.862211
H181	H	-0.843289	0.000059	-0.447077
H182	H	-0.593289	0.250059	-0.197077
H183	H	-0.343289	0.500059	0.052923
H184	H	-0.093289	0.750059	0.302923
H185	H	-0.879495	0.587143	0.216104
H186	H	-0.629495	0.837143	0.466104
H187	H	-0.379495	1.087143	0.716104
H188	H	-0.129495	1.337143	0.966104
H189	H	-0.846044	0.000064	-0.289742
H190	H	-0.596044	0.250064	-0.039742
H191	H	-0.346044	0.500064	0.210258
H192	H	-0.096044	0.750064	0.460258
O193	O	-0.572202	-0.172701	0.115170
O194	O	-0.322202	0.077299	0.365170
O195	O	-0.072202	0.327299	0.615170
O196	O	0.177798	0.577299	0.865170
H197	H	-0.527476	-0.230496	0.114400
H198	H	-0.277476	0.019504	0.364400
H199	H	-0.027476	0.269504	0.614400
H200	H	0.222524	0.519504	0.864400
H201	H	-1.084684	0.587147	0.011035
H202	H	-0.834684	0.837147	0.261035
H203	H	-0.584684	1.087147	0.511035
H204	H	-0.334684	1.337147	0.761035
H205	H	-1.084683	0.413028	0.011038
H206	H	-0.834683	0.663028	0.261038
H207	H	-0.584683	0.913028	0.511038
H208	H	-0.334683	1.163028	0.761038
H209	H	-0.560766	0.150867	0.114936
H210	H	-0.310766	0.400867	0.364936
H211	H	-0.060766	0.650867	0.614936
H212	H	0.189234	0.900867	0.864936
O213	O	-0.864540	0.400313	0.231046
O214	O	-0.614540	0.650313	0.481046
O215	O	-0.364540	0.900313	0.731046
O216	O	-0.114540	1.150313	0.981046
H217	H	-0.825225	0.449801	0.270354
H218	H	-0.575225	0.699801	0.520354
H219	H	-0.325225	0.949801	0.770354
H220	H	-0.075225	1.199801	1.020354
H221	H	-1.120889	0.000097	-0.325785
H222	H	-0.870889	0.250097	-0.075785
H223	H	-0.620889	0.500097	0.174215
H224	H	-0.370889	0.750097	0.424215
O225	O	-1.137938	0.000097	-0.497191
O226	O	-0.887938	0.250097	-0.247191
O227	O	-0.637938	0.500097	0.002809
O228	O	-0.387938	0.750097	0.252809
H229	H	-1.174561	-0.062041	-0.485299
H230	H	-0.924561	0.187959	-0.235299
H231	H	-0.674561	0.437959	0.014701
H232	H	-0.424561	0.687959	0.264701
O233	O	-0.391961	0.172849	0.111981
O234	O	-0.141961	0.422849	0.361981
O235	O	0.108039	0.672849	0.611981
O236	O	0.358039	0.922849	0.861981
H237	H	-0.436680	0.230649	0.112771
H238	H	-0.186680	0.480649	0.362771
H239	H	0.063320	0.730649	0.612771
H240	H	0.313320	0.980649	0.862771
