data_functionalizedCrystal
_audit_creation_method	'MofGen! by Chris Wilmer'
_symmetry_space_group_name_H-M	'P1'
_symmetry_Int_Tables_number	1
_symmetry_cell_setting	triclinic
loop_
_symmetry_equiv_pos_as_xyz
  x,y,z
_cell_length_a	18.426585
_cell_length_b	21.606444
_cell_length_c	21.606444
_cell_angle_alpha	60.000398
_cell_angle_beta	89.998723
_cell_angle_gamma	60.000201
loop_
_atom_site_label
_atom_site_type_symbol
_atom_site_fract_x
_atom_site_fract_y
_atom_site_fract_z
Zr1	Zr	0.699103	0.677475	-0.081215
O2	O	0.583226	0.806591	-0.180034
O3	O	0.734627	0.548357	-0.050925
O4	O	0.734626	0.677478	-0.180042
O5	O	0.583226	0.677467	0.050936
O6	O	0.854052	0.677483	-0.180044
O7	O	0.583226	0.677470	-0.050917
O8	O	0.854053	0.446508	0.050923
O9	O	0.583224	0.908442	-0.180031
O10	O	0.838902	0.601469	-0.038005
O11	O	0.749775	0.601464	0.038009
O12	O	0.749774	0.753487	-0.114010
O13	O	0.660648	0.753482	-0.037996
Zr14	Zr	0.889572	0.677478	0.081225
Zr15	Zr	0.889573	0.677482	-0.081219
Zr16	Zr	0.699102	0.677471	0.081229
Zr17	Zr	0.699101	0.839915	-0.081210
Zr18	Zr	0.889574	0.515037	0.081219
O19	O	0.854049	0.806596	0.050934
O20	O	0.854050	0.806601	-0.180040
O21	O	0.583224	0.806586	0.050940
O22	O	1.005449	0.548361	0.180044
O23	O	1.005451	0.548367	-0.050931
O24	O	0.734625	0.548351	0.180050
O25	O	1.005450	0.677485	-0.050926
O26	O	0.854049	0.677474	0.180051
O27	O	0.734623	0.677470	0.180054
O28	O	1.005449	0.677483	0.050927
O29	O	0.734623	0.908448	-0.180034
O30	O	0.854052	0.446505	0.180044
O31	O	1.005451	0.446510	0.180041
O32	O	1.005452	0.446513	0.050919
O33	O	0.583224	0.908439	-0.050910
O34	O	0.734622	0.908444	-0.050913
O35	O	0.838901	0.601465	0.114019
O36	O	0.928028	0.601470	0.038005
O37	O	0.838900	0.753489	-0.038000
O38	O	0.749773	0.753484	0.038014
C39	C	0.794340	0.474288	-0.000002
C40	C	0.794341	0.405328	-0.000004
C41	C	0.840862	0.372933	-0.039684
C42	C	0.840865	0.308133	-0.039678
C43	C	0.794342	0.275734	0.000002
C44	C	0.747819	0.308131	0.039687
C45	C	0.747821	0.372926	0.039685
C46	C	0.747808	0.046822	0.039693
C47	C	0.747807	-0.017975	0.039689
C48	C	0.840852	-0.017971	-0.039671
C49	C	0.840855	0.046824	-0.039672
C50	C	0.794336	0.079213	0.000015
C51	C	0.794335	0.149475	0.000010
C52	C	0.794337	0.205477	0.000003
C53	C	0.556088	0.677468	0.000010
C54	C	0.475228	0.677465	0.000012
C55	C	0.179114	0.677491	-0.000002
C56	C	0.261500	0.677487	0.000000
C57	C	0.327168	0.677478	0.000004
C58	C	0.409560	0.677474	0.000007
C59	C	1.032587	0.677485	-0.000000
C60	C	1.113447	0.677488	-0.000002
C61	C	0.794339	0.677481	-0.203188
C62	C	0.794340	0.677483	-0.272150
C63	C	0.794335	0.880664	0.000011
C64	C	0.794334	0.949624	0.000014
C65	C	0.860132	0.677487	-0.304549
C66	C	0.860135	0.677481	-0.369342
C67	C	0.794341	0.677477	-0.401738
C68	C	0.728545	0.677470	-0.369332
C69	C	0.728546	0.677470	-0.304537
C70	C	0.728537	0.677469	-0.630642
C71	C	0.728539	0.677472	-0.695443
C72	C	0.860125	0.677480	-0.695448
C73	C	0.860127	0.677480	-0.630653
C74	C	0.794334	0.677469	-0.598250
C75	C	0.794333	0.677474	-0.527994
C76	C	0.794337	0.677478	-0.471996
C77	C	0.794336	0.677471	0.203197
C78	C	0.794336	0.677470	0.272159
C79	C	1.032590	0.474297	-0.000007
C80	C	1.113450	0.405340	-0.000011
C81	C	0.794339	0.474283	0.203191
C82	C	0.794339	0.405322	0.272150
C83	C	1.032588	0.474292	0.203186
C84	C	1.113448	0.405333	0.272143
C85	C	0.556087	0.880661	-0.203176
C86	C	0.475227	0.949619	-0.272134
C87	C	0.556086	0.880656	0.000017
C88	C	0.475225	0.949613	0.000021
C89	C	0.794337	0.880669	-0.203181
C90	C	0.794336	0.949631	-0.272141
C91	C	1.104901	0.372956	-0.039696
C92	C	1.180870	0.308172	-0.039715
C93	C	1.265389	0.275769	-0.000044
C94	C	1.273937	0.308159	0.039642
C95	C	1.197968	0.372946	0.039656
C96	C	0.840862	0.372937	0.344218
C97	C	0.840859	0.308149	0.409019
C98	C	0.794338	0.275743	0.401751
C99	C	0.747809	0.308133	0.329676
C100	C	0.747807	0.372925	0.264876
C101	C	1.197952	0.372952	0.264848
C102	C	1.273936	0.308167	0.329635
C103	C	1.265414	0.275760	0.401717
C104	C	1.180901	0.308147	0.409010
C105	C	1.104919	0.372936	0.344224
C106	C	0.390723	0.982008	-0.264839
C107	C	0.314739	1.046814	-0.329626
C108	C	0.323261	1.079224	-0.401707
C109	C	0.407774	1.046833	-0.409001
C110	C	0.483756	0.982033	-0.344214
C111	C	0.483775	0.982003	0.039699
C112	C	0.407805	1.046805	0.039700
C113	C	0.323286	1.079210	0.000027
C114	C	0.314738	1.046817	-0.039657
C115	C	0.390707	0.982021	-0.039662
C116	C	0.840866	0.982017	-0.264849
C117	C	0.840883	1.046805	-0.329637
C118	C	0.794364	1.079211	-0.401717
C119	C	0.747833	1.046818	-0.409008
C120	C	0.747822	0.982027	-0.344220
H121	H	0.709920	-0.044353	0.072004
O122	O	0.657567	0.677472	-0.595709
H123	H	0.689199	0.618135	-0.536525
H124	H	0.878748	0.955643	-0.206163
H125	H	1.327241	0.223015	-0.000061
H126	H	0.878735	0.073205	-0.071987
H127	H	1.173893	0.281808	-0.072032
H128	H	0.261384	1.131988	-0.454454
O129	O	0.657574	0.677471	-0.404271
H130	H	0.668618	0.677483	-0.454776
H131	H	0.261435	1.131971	0.000037
H132	H	0.878745	0.399315	0.350150
O133	O	0.697635	0.273190	0.082481
H134	H	0.626133	0.327587	0.059553
H135	H	1.342762	0.281767	0.071941
H136	H	1.036115	0.399292	0.350174
O137	O	0.223596	1.081734	-0.321744
H138	H	0.172185	1.132247	-0.378899
O139	O	0.657582	0.677472	-0.269590
H140	H	0.611824	0.677478	-0.303005
H141	H	0.414702	1.073230	-0.467697
H142	H	0.878751	0.281784	0.467699
O143	O	1.013745	0.407907	-0.082495
H144	H	1.020578	0.374505	-0.110099
H145	H	0.878734	-0.044351	-0.071984
H146	H	0.245913	1.073212	-0.071958
H147	H	0.709934	0.073182	0.072012
O148	O	0.574900	0.947089	-0.352086
H149	H	0.568051	0.980509	-0.413095
O150	O	1.207194	0.407860	0.082475
H151	H	1.278730	0.374430	0.110063
O152	O	0.931094	0.677477	-0.595707
H153	H	0.976852	0.677468	-0.629117
O154	O	0.574930	0.947071	0.082479
H155	H	0.568097	0.980501	0.110055
O156	O	0.794359	0.205845	0.471644
H157	H	0.834540	0.188766	0.522976
O158	O	1.171726	0.273175	0.486761
H159	H	1.134843	0.327549	0.493375
H160	H	0.709933	0.281738	0.323769
H161	H	0.878774	1.073173	-0.323686
H162	H	0.878743	0.399312	-0.072000
O163	O	0.381482	0.947082	-0.082455
H164	H	0.344589	0.917565	-0.059516
O165	O	0.697640	0.407876	0.082477
H166	H	0.665280	0.374469	0.110064
O167	O	0.381521	0.947063	-0.187098
H168	H	0.309989	0.980489	-0.192922
H169	H	0.794381	1.131969	-0.454465
O170	O	0.697650	1.081781	-0.486753
H171	H	0.705470	1.132284	-0.530572
O172	O	0.697628	0.947100	-0.352085
H173	H	0.626125	1.001499	-0.383544
O174	O	0.891031	0.273199	-0.082484
H175	H	0.923369	0.306625	-0.110087
O176	O	0.931099	0.677486	-0.269607
H177	H	0.976855	0.677478	-0.303019
H178	H	0.913700	0.677485	-0.721834
O179	O	0.931082	0.677509	-0.404302
H180	H	0.976821	0.677530	-0.370900
H181	H	0.709926	0.399283	0.206198
O182	O	0.657561	0.677487	-0.730398
H183	H	0.611810	0.677481	-0.696982
O184	O	1.207155	0.407909	0.187107
H185	H	1.278686	0.374509	0.192931
O186	O	1.365083	0.273231	0.321761
H187	H	1.358236	0.306641	0.260753
O188	O	1.347370	0.205871	0.471592
H189	H	1.407559	0.188795	0.454402
H190	H	0.414782	1.073169	0.072018
