data_functionalizedCrystal
_audit_creation_method	'MofGen! by Chris Wilmer'
_symmetry_space_group_name_H-M	'P1'
_symmetry_Int_Tables_number	1
_symmetry_cell_setting	triclinic
loop_
_symmetry_equiv_pos_as_xyz
  x,y,z
_cell_length_a	16.992694
_cell_length_b	11.026607
_cell_length_c	15.455313
_cell_angle_alpha	93.255562
_cell_angle_beta	87.142206
_cell_angle_gamma	99.627120
loop_
_atom_site_label
_atom_site_type_symbol
_atom_site_fract_x
_atom_site_fract_y
_atom_site_fract_z
O1	O	1.079936	0.255850	-0.072014
O2	O	0.851247	0.252986	-0.072040
O3	O	0.946638	0.075927	-0.072026
O4	O	0.984545	0.432909	-0.072028
O5	O	0.941177	0.086007	0.072235
O6	O	0.845786	0.263067	0.072221
O7	O	1.074474	0.265931	0.072247
Cu8	Cu	0.959632	0.265419	0.085406
Cu9	Cu	0.966090	0.253498	-0.085199
O10	O	0.979084	0.442990	0.072233
C11	C	0.818785	0.254344	0.000087
C12	C	0.730190	0.243358	0.000077
C13	C	0.694911	0.349355	0.000078
C14	C	0.611666	0.339026	0.000090
C15	C	0.563702	0.222699	0.000095
C16	C	0.598986	0.116694	0.000098
C17	C	0.682229	0.127024	0.000092
C18	C	0.314060	0.179884	0.000119
C19	C	0.230811	0.169561	0.000122
C20	C	0.243497	0.391895	0.000115
C21	C	0.326741	0.402215	0.000104
C22	C	0.362018	0.296210	0.000111
N23	N	0.478612	0.212138	0.000105
N24	N	0.447106	0.306772	0.000108
C25	C	0.936914	0.035078	0.000103
C26	C	0.916067	-0.101658	0.000097
C27	C	0.973629	-0.169881	0.000103
C28	C	0.952084	-0.311205	0.000097
C29	C	1.106937	0.264572	0.000118
C30	C	1.195532	0.275558	0.000122
C31	C	0.988808	0.483838	0.000102
C32	C	1.009655	0.620574	0.000102
N33	N	0.955095	0.273804	0.205401
N34	N	0.970632	0.245104	-0.205194
C35	C	0.995642	0.198614	0.250801
C36	C	0.992220	0.204967	0.341609
C37	C	0.948255	0.286517	0.387014
C38	C	0.907702	0.361709	0.341608
C39	C	0.911120	0.355349	0.250802
C40	C	0.933497	0.313936	0.658594
C41	C	0.930084	0.320293	0.749406
C42	C	1.014601	0.163549	0.749400
C43	C	1.018019	0.157201	0.658593
C44	C	0.977463	0.232389	0.613194
N45	N	0.944758	0.293015	0.479834
N46	N	0.980956	0.225883	0.520376
H47	H	0.365789	0.496940	0.000090
H48	H	1.074893	-0.333219	0.000044
H49	H	0.214765	0.478198	0.000111
O50	O	0.552367	0.003709	-0.000050
C51	C	0.506641	-0.014128	-0.074751
H52	H	0.537296	0.048417	-0.126974
H53	H	0.501034	-0.114317	-0.099828
H54	H	0.444619	0.009091	-0.057858
O55	O	0.577443	0.442021	-0.000068
C56	C	0.604475	0.506955	-0.074778
H57	H	0.625611	0.441092	-0.126997
H58	H	0.553554	0.548839	-0.099853
H59	H	0.656115	0.583441	-0.057896
O60	O	1.038243	0.119198	0.206756
C61	C	1.007288	-0.002286	0.229004
H62	H	0.942608	-0.007335	0.253961
H63	H	1.009966	-0.067355	0.169309
H64	H	1.044257	-0.030403	0.281729
H65	H	0.733959	0.444082	0.000072
H66	H	0.850837	-0.147876	0.000084
O67	O	1.031486	0.131801	0.385744
C68	C	0.976230	0.055414	0.438297
H69	H	0.914264	0.045276	0.410945
H70	H	0.994836	-0.039129	0.439323
H71	H	0.974907	0.098323	0.507117
H72	H	0.886850	-0.357418	0.000084
O73	O	0.716374	0.023930	0.000049
C74	C	0.656191	-0.080959	0.000075
H75	H	0.599740	-0.057643	-0.027234
H76	H	0.677388	-0.158649	-0.041809
H77	H	0.642779	-0.111401	0.069285
H78	H	0.191760	0.074828	0.000126
O79	O	1.051477	-0.114892	0.000225
C80	C	1.086697	-0.145607	0.074952
H81	H	1.051598	-0.235023	0.099860
H82	H	1.151045	-0.158039	0.058152
H83	H	1.085930	-0.068597	0.127269
H84	H	0.342772	0.093566	0.000125
H85	H	1.053819	0.090797	0.621625
O86	O	1.053931	0.090326	0.793408
C87	C	1.024633	-0.034285	0.771244
H88	H	0.996494	-0.041742	0.705316
H89	H	1.075955	-0.089257	0.768137
H90	H	0.977760	-0.072622	0.822357
O91	O	0.887298	0.399531	0.793380
C92	C	0.852247	0.464547	0.733840
H93	H	0.846672	0.409488	0.669112
H94	H	0.790412	0.478917	0.760087
H95	H	0.891311	0.557808	0.724174
O96	O	0.894233	0.387046	0.614411
C97	C	0.949506	0.463462	0.561893
H98	H	1.005309	0.419583	0.548274
H99	H	0.921470	0.475229	0.498046
H100	H	0.966432	0.557365	0.596890
H101	H	0.871900	0.428105	0.378583
H102	H	0.878101	0.416575	0.213838
