data_functionalizedCrystal
_audit_creation_method	'MofGen! by Chris Wilmer'
_symmetry_space_group_name_H-M	'P1'
_symmetry_Int_Tables_number	1
_symmetry_cell_setting	triclinic
loop_
_symmetry_equiv_pos_as_xyz
  x,y,z
_cell_length_a	14.044220
_cell_length_b	14.044220
_cell_length_c	14.750779
_cell_angle_alpha	76.182253
_cell_angle_beta	103.820493
_cell_angle_gamma	93.188878
loop_
_atom_site_label
_atom_site_type_symbol
_atom_site_fract_x
_atom_site_fract_y
_atom_site_fract_z
O1	O	1.258218	0.249106	-0.079730
O2	O	0.981541	0.240806	-0.079754
O3	O	1.115729	0.106618	-0.079733
O4	O	1.124030	0.383294	-0.079751
O5	O	1.153662	0.068689	0.079924
O6	O	1.019474	0.202877	0.079902
O7	O	1.296152	0.211177	0.079926
Zn8	Zn	1.163836	0.201005	0.105263
Zn9	Zn	1.113857	0.250978	-0.105091
O10	O	1.161964	0.345365	0.079905
C11	C	0.964885	0.218206	0.000071
C12	C	0.858740	0.207364	0.000062
C13	C	1.131060	0.052032	0.000095
C14	C	1.120215	-0.054111	0.000096
C15	C	0.664407	0.187533	0.000083
C16	C	0.613277	0.264448	0.000082
C17	C	0.505144	0.253413	0.000093
C18	C	0.772551	0.198566	0.000071
C19	C	1.100385	-0.248445	0.000080
C20	C	1.177301	-0.299576	0.000084
C21	C	1.166267	-0.407710	0.000075
C22	C	1.111418	-0.140301	0.000089
C23	C	1.312807	0.233777	0.000099
C24	C	1.418950	0.244621	0.000102
C25	C	1.146632	0.399952	0.000075
C26	C	1.157475	0.506096	0.000068
N27	N	1.197952	0.166900	0.248824
N28	N	1.079747	0.285076	-0.248652
C29	C	0.984461	0.380284	0.600609
C30	C	1.008375	0.356393	0.701112
C31	C	1.127229	0.237619	0.701093
C32	C	1.103322	0.261498	0.600588
C33	C	1.031938	0.332832	0.550354
C34	C	1.150798	0.214045	0.550333
C35	C	1.126896	0.237926	0.449837
C36	C	1.055517	0.309259	0.399596
C37	C	1.008035	0.356712	0.449858
C38	C	1.222187	0.142716	0.600570
C39	C	1.269664	0.095264	0.550315
C40	C	1.245757	0.119139	0.449817
C41	C	1.174378	0.190472	0.399575
C42	C	1.293239	0.071685	0.399555
C43	C	1.269336	0.095566	0.299059
C44	C	1.150476	0.214352	0.299079
H45	H	0.650714	0.338583	0.000072
H46	H	1.092340	0.272433	0.258177
Cl47	Cl	1.252237	0.112703	0.726909
Cl48	Cl	0.985932	-0.306242	0.000065
Cl49	Cl	1.025472	0.339285	0.273256
Cl50	Cl	0.918282	0.446381	0.386702
Cl51	Cl	0.606609	0.073081	0.000092
Cl52	Cl	1.291763	-0.241782	0.000104
Cl53	Cl	0.894708	0.469953	0.537453
Cl54	Cl	0.948681	0.416061	0.764282
Cl55	Cl	1.216969	0.147947	0.764252
H56	H	1.327788	0.037185	0.591227
H57	H	1.351367	0.013611	0.440469
Cl58	Cl	1.329027	0.035912	0.235879
