data_functionalizedCrystal
_audit_creation_method	'MofGen! by Chris Wilmer'
_symmetry_space_group_name_H-M	'P1'
_symmetry_Int_Tables_number	1
_symmetry_cell_setting	triclinic
loop_
_symmetry_equiv_pos_as_xyz
  x,y,z
_cell_length_a	17.077404
_cell_length_b	13.897441
_cell_length_c	17.077402
_cell_angle_alpha	90.033015
_cell_angle_beta	89.981731
_cell_angle_gamma	89.977930
loop_
_atom_site_label
_atom_site_type_symbol
_atom_site_fract_x
_atom_site_fract_y
_atom_site_fract_z
Zn1	Zn	1.200072	-0.545399	0.312580
Zn2	Zn	1.199974	-0.384094	0.443862
Zn3	Zn	1.068799	-0.384114	0.312604
Zn4	Zn	1.068772	-0.545343	0.443797
O5	O	1.134404	-0.464737	0.378211
O6	O	1.309906	-0.524017	0.330012
O7	O	1.182544	-0.249115	0.426488
O8	O	1.086265	-0.405541	0.202754
O9	O	1.309834	-0.405507	0.426464
O10	O	1.182711	-0.524036	0.202736
O11	O	1.086170	-0.249130	0.330053
O12	O	0.958948	-0.405486	0.329989
O13	O	1.086219	-0.680332	0.426353
O14	O	0.958929	-0.523940	0.426377
O15	O	1.182685	-0.680373	0.329949
O16	O	1.182518	-0.405452	0.553700
O17	O	1.086124	-0.523921	0.553652
C18	C	0.930457	-0.464710	0.378179
C19	C	0.843207	-0.464721	0.378185
C20	C	0.467403	-0.526347	0.428512
C21	C	0.549383	-0.526333	0.428501
C22	C	0.590358	-0.464753	0.378231
C23	C	0.549348	-0.403177	0.327974
C24	C	0.467369	-0.403187	0.327989
C25	C	0.720218	-0.403161	0.327945
C26	C	0.802203	-0.403151	0.327929
C27	C	0.802232	-0.526306	0.428458
C28	C	0.720253	-0.526317	0.428473
C29	C	0.679249	-0.464742	0.378214
C30	C	1.134460	-0.716331	0.378141
C31	C	1.134484	-0.823545	0.378112
C32	C	1.134505	-1.019840	0.378059
C33	C	1.134491	-0.910607	0.378090
C34	C	1.339149	-0.464766	0.378243
C35	C	1.426398	-0.464778	0.378256
C36	C	1.134329	-0.464699	0.582158
C37	C	1.134368	-0.464715	0.669408
C38	C	1.134394	-0.214123	0.378223
C39	C	1.134522	-0.106910	0.378031
C40	C	1.134502	-0.464797	0.173466
C41	C	1.134543	-0.464823	0.086216
C42	C	1.184611	-0.403094	0.710397
C43	C	1.184650	-0.403119	0.792378
C44	C	1.134440	-0.464760	0.833368
C45	C	1.084195	-0.526387	0.792373
C46	C	1.084161	-0.526367	0.710394
C47	C	1.084267	-0.526424	0.963243
C48	C	1.084300	-0.526443	1.045227
C49	C	1.184756	-0.403176	1.045227
C50	C	1.184723	-0.403155	0.963248
C51	C	1.134476	-0.464782	0.922259
H52	H	0.686894	-0.576465	0.469404
H53	H	0.686835	-0.353022	0.287018
C54	C	0.422338	-0.594089	0.483815
N55	N	0.388398	-0.645110	0.525475
H56	H	0.835622	-0.576445	0.469379
C57	C	1.028986	-0.594208	0.918157
N58	N	0.987344	-0.645256	0.884198
C59	C	1.028890	-0.594155	0.665307
N60	N	0.987260	-0.645217	0.631348
C61	C	0.594423	-0.335446	0.272670
N62	N	0.628373	-0.284435	0.231010
C63	C	1.239917	-0.335325	0.837462
N64	N	1.281545	-0.284258	0.871419
H65	H	0.582765	-0.576466	0.469426
H66	H	0.433984	-0.353054	0.287064
H67	H	0.835562	-0.353017	0.286987
C68	C	1.239845	-0.335281	0.665316
N69	N	1.281451	-0.284204	0.631363
H70	H	1.225603	-0.352958	0.929874
C71	C	1.240035	-0.335394	1.090316
N72	N	1.281669	-0.284343	1.124281
C73	C	1.029075	-0.594261	1.090315
N74	N	0.987481	-0.645346	1.124275
H75	H	1.043317	-0.576580	0.825753
