data_functionalizedCrystal
_audit_creation_method	'MofGen! by Chris Wilmer'
_symmetry_space_group_name_H-M	'P1'
_symmetry_Int_Tables_number	1
_symmetry_cell_setting	triclinic
loop_
_symmetry_equiv_pos_as_xyz
  x,y,z
_cell_length_a	12.811457
_cell_length_b	12.837942
_cell_length_c	11.295483
_cell_angle_alpha	85.469583
_cell_angle_beta	91.289320
_cell_angle_gamma	90.588063
loop_
_atom_site_label
_atom_site_type_symbol
_atom_site_fract_x
_atom_site_fract_y
_atom_site_fract_z
O1	O	1.403247	-0.143361	0.052516
O2	O	1.101285	-0.156262	0.019904
O3	O	1.245570	0.001170	0.035494
O4	O	1.258962	-0.300794	0.036926
O5	O	1.232895	-0.012636	0.232175
O6	O	1.088610	-0.170068	0.216585
O7	O	1.390572	-0.157167	0.249197
Cu8	Cu	1.238434	-0.164878	0.250850
Cu9	Cu	1.253424	-0.148551	0.018251
O10	O	1.246287	-0.314600	0.233607
C11	C	1.056030	-0.162019	0.114041
C12	C	0.940064	-0.158592	0.101517
C13	C	0.708333	-0.167186	0.292429
C14	C	0.599373	-0.163965	0.280667
C15	C	0.613183	-0.148924	0.066234
C16	C	0.722143	-0.152145	0.077995
C17	C	0.769714	-0.161277	0.191097
C18	C	0.878675	-0.164504	0.202857
C19	C	0.892483	-0.149456	-0.011575
C20	C	0.783524	-0.146236	-0.023337
C21	C	1.234709	0.032942	0.133346
C22	C	1.221217	0.148180	0.131886
C23	C	1.435828	-0.151410	0.155057
C24	C	1.551794	-0.154837	0.167573
C25	C	1.257149	-0.346371	0.135753
C26	C	1.270641	-0.461609	0.137204
N27	N	1.227899	-0.176362	0.414448
C28	C	1.383418	0.387207	0.149379
C29	C	1.370746	0.495484	0.148009
C30	C	1.183202	0.473014	0.127766
C31	C	1.195874	0.364737	0.129137
C32	C	1.295985	0.321837	0.139946
C33	C	1.308656	0.213558	0.141324
C34	C	1.121113	0.191090	0.121074
C35	C	1.108441	0.299367	0.119703
N36	N	1.263966	-0.137060	-0.145346
C37	C	1.339800	-0.054339	0.675828
C38	C	1.331847	-0.063025	0.799633
C39	C	1.204033	-0.202412	0.785862
C40	C	1.211987	-0.193727	0.662058
C41	C	1.279873	-0.119689	0.607046
C42	C	1.287832	-0.111009	0.483240
C43	C	1.160014	-0.250391	0.469471
C44	C	1.152060	-0.259076	0.593275
H45	H	0.744776	-0.138796	-0.115421
H46	H	1.390171	0.178631	0.150130
H47	H	1.464932	0.352277	0.158192
H48	H	1.026933	0.334311	0.110898
H49	H	1.101697	0.507963	0.118954
F50	F	1.463805	0.565052	0.158046
H51	H	1.380643	-0.009809	0.855632
F52	F	1.028054	0.121510	0.111045
F53	F	0.562539	-0.139126	-0.054126
F54	F	1.360085	-0.032216	0.424694
H55	H	0.942472	-0.144651	-0.094088
H56	H	1.395084	0.005938	0.631038
F57	F	1.131777	-0.281195	0.844423
F58	F	1.079810	-0.337866	0.651834
F59	F	1.096238	-0.319949	0.396256
F60	F	0.929302	-0.174227	0.323228
F61	F	0.758963	-0.176917	0.412797
H62	H	0.549400	-0.168783	0.363183
