data_functionalizedCrystal
_audit_creation_method	'MofGen! by Chris Wilmer'
_symmetry_space_group_name_H-M	'P1'
_symmetry_Int_Tables_number	1
_symmetry_cell_setting	triclinic
loop_
_symmetry_equiv_pos_as_xyz
  x,y,z
_cell_length_a	15.944551
_cell_length_b	16.992694
_cell_length_c	16.053802
_cell_angle_alpha	87.249047
_cell_angle_beta	87.429376
_cell_angle_gamma	92.916520
loop_
_atom_site_label
_atom_site_type_symbol
_atom_site_fract_x
_atom_site_fract_y
_atom_site_fract_z
O1	O	-0.174799	1.043703	-0.069310
O2	O	-0.172844	0.815418	-0.069334
O3	O	-0.051964	0.935795	-0.069326
O4	O	-0.295678	0.923326	-0.069318
O5	O	-0.058589	0.929169	0.069532
O6	O	-0.179468	0.808793	0.069524
O7	O	-0.181423	1.037077	0.069549
Zn8	Zn	-0.181497	0.921883	0.091583
Zn9	Zn	-0.172770	0.930613	-0.091369
O10	O	-0.302303	0.916701	0.069541
C11	C	-0.173642	0.782893	0.000091
C12	C	-0.166142	0.695849	0.000082
C13	C	-0.238507	0.645612	0.000085
C14	C	-0.231455	0.563825	0.000096
C15	C	-0.152038	0.532276	0.000098
C16	C	-0.079667	0.582519	0.000098
C17	C	-0.086720	0.664305	0.000092
C18	C	-0.122807	0.288675	0.000119
C19	C	-0.115760	0.206884	0.000122
C20	C	-0.267549	0.188195	0.000122
C21	C	-0.274594	0.269983	0.000112
C22	C	-0.202224	0.320219	0.000116
N23	N	-0.144828	0.448676	0.000107
N24	N	-0.209435	0.403817	0.000113
C25	C	-0.330319	0.920531	0.000113
C26	C	-0.423669	0.922083	0.000116
C27	C	-0.643779	1.000407	0.000112
C28	C	-0.705622	0.960769	0.068573
C29	C	-0.594583	0.924890	0.000109
C30	C	-0.699075	0.967284	-0.068330
C31	C	-0.759678	0.927608	0.000099
C32	C	-0.655199	0.885229	0.068627
C33	C	-0.648644	0.891757	-0.068338
C34	C	-0.710466	0.852064	0.000140
C35	C	-0.499476	0.923327	0.000116
C36	C	-0.854783	0.929165	0.000098
C37	C	-0.023948	0.931964	0.000100
C38	C	0.069403	0.930413	0.000091
C39	C	-0.180625	1.069602	0.000121
C40	C	-0.188125	1.156647	0.000125
N41	N	-0.187454	0.915931	0.216443
N42	N	-0.166807	0.936571	-0.216229
C43	C	-0.136040	0.967170	0.260141
C44	C	-0.140215	0.963013	0.347547
C45	C	-0.195809	0.907621	0.391254
C46	C	-0.247224	0.856377	0.347551
C47	C	-0.243044	0.860530	0.260146
C48	C	-0.214043	0.889480	0.652663
C49	C	-0.218221	0.885332	0.740074
C50	C	-0.111210	0.991968	0.740064
C51	C	-0.107039	0.996119	0.652657
C52	C	-0.158451	0.944872	0.608961
N53	N	-0.200079	0.903373	0.480598
N54	N	-0.154176	0.949117	0.519620
H55	H	-0.063878	0.329568	0.000123
C56	C	-0.007118	0.719565	0.000080
H57	H	0.041191	0.689065	0.000073
H58	H	-0.009022	0.749558	0.048500
H59	H	-0.004406	0.754159	-0.048352
H60	H	-0.614681	1.063087	0.000186
H61	H	-0.290383	0.522924	0.000098
H62	H	-0.730632	0.989947	0.126459
C63	C	-0.361954	0.304681	0.000122
H64	H	-0.404044	0.263046	0.000134
H65	H	-0.365555	0.338502	-0.048300
H66	H	-0.370164	0.333890	0.048552
C67	C	-0.347149	0.132935	0.000129
H68	H	-0.331578	0.079707	0.000140
H69	H	-0.377181	0.144800	-0.048292
H70	H	-0.381793	0.140197	0.048560
C71	C	-0.028397	0.172181	0.000126
H72	H	0.013694	0.213813	0.000134
H73	H	-0.020180	0.142971	-0.048296
H74	H	-0.024808	0.138359	0.048556
H75	H	-0.739419	0.789324	0.000171
H76	H	-0.098350	1.004735	0.383125
C77	C	-0.614824	0.852376	-0.146538
H78	H	-0.629655	0.881602	-0.195136
H79	H	-0.638584	0.799999	-0.147033
H80	H	-0.555358	0.851250	-0.145698
C81	C	-0.308377	0.795448	0.395627
H82	H	-0.303511	0.800318	0.453941
H83	H	-0.295027	0.743799	0.381312
H84	H	-0.364331	0.804651	0.381294
C85	C	-0.045881	1.057046	0.604585
H86	H	-0.015852	1.086963	0.643129
H87	H	-0.076676	1.091304	0.570480
H88	H	-0.007371	1.030454	0.570498
C89	C	-0.629042	0.838383	0.146903
H90	H	-0.569481	0.837709	0.146444
H91	H	-0.652459	0.785837	0.147094
H92	H	-0.649039	0.862716	0.195466
C93	C	-0.725379	1.014177	-0.146516
H94	H	-0.702402	1.066864	-0.146419
H95	H	-0.784954	1.014421	-0.146226
H96	H	-0.704989	0.990184	-0.195139
H97	H	-0.015004	0.556825	0.000111
H98	H	-0.090774	1.012279	0.224560
H99	H	-0.263495	0.840223	0.775657
H100	H	-0.069351	1.033690	0.775649
C101	C	-0.270602	0.833117	0.604608
H102	H	-0.304316	0.799541	0.643159
H103	H	-0.236548	0.802095	0.570518
H104	H	-0.305852	0.862946	0.570506
H105	H	-0.284910	0.818805	0.224568
H106	H	-0.303177	0.671292	0.000082
