data_functionalizedCrystal
_audit_creation_method	'MofGen! by Chris Wilmer'
_symmetry_space_group_name_H-M	'P1'
_symmetry_Int_Tables_number	1
_symmetry_cell_setting	triclinic
loop_
_symmetry_equiv_pos_as_xyz
  x,y,z
_cell_length_a	15.995350
_cell_length_b	15.995350
_cell_length_c	13.101039
_cell_angle_alpha	93.364563
_cell_angle_beta	86.645958
_cell_angle_gamma	83.492375
loop_
_atom_site_label
_atom_site_type_symbol
_atom_site_fract_x
_atom_site_fract_y
_atom_site_fract_z
O1	O	1.115587	0.103310	-0.085122
O2	O	1.615587	0.603310	0.414878
O3	O	0.871813	0.116637	-0.085143
O4	O	1.371813	0.616637	0.414857
O5	O	1.000363	-0.011914	-0.085131
O6	O	1.500363	0.488086	0.414869
O7	O	0.987036	0.231861	-0.085134
O8	O	1.487036	0.731861	0.414866
O9	O	0.991140	-0.002675	0.085298
O10	O	1.491140	0.497325	0.585298
O11	O	0.862589	0.125875	0.085286
O12	O	1.362589	0.625875	0.585286
O13	O	1.106363	0.112549	0.085307
O14	O	1.606363	0.612549	0.585307
Zn15	Zn	0.983012	0.120679	0.112356
Zn16	Zn	1.483012	0.620679	0.612356
Zn17	Zn	0.995164	0.108507	-0.112192
Zn18	Zn	1.495164	0.608507	0.387808
O19	O	0.977813	0.241100	0.085295
O20	O	1.477813	0.741100	0.585295
C21	C	0.836006	0.120705	0.000069
C22	C	1.336006	0.620705	0.500069
C23	C	0.743056	0.119053	0.000061
C24	C	1.243056	0.619053	0.500061
C25	C	0.405308	0.113122	0.000082
C26	C	0.905308	0.613122	0.500082
C27	C	0.452721	0.021590	0.000464
C28	C	0.952721	0.521590	0.500464
C29	C	0.549432	0.023221	0.000072
C30	C	1.049432	0.523221	0.500072
C31	C	0.572869	0.116064	0.000072
C32	C	1.072869	0.616064	0.500072
C33	C	0.537048	0.155945	-0.097248
C34	C	1.037048	0.655945	0.402752
C35	C	0.440417	0.153641	-0.097322
C36	C	0.940417	0.653641	0.402678
C37	C	0.429589	0.166038	0.096488
C38	C	0.929589	0.666038	0.596488
C39	C	0.526465	0.166086	0.097767
C40	C	1.026465	0.666086	0.597767
C41	C	0.667567	0.117731	0.000063
C42	C	1.167567	0.617731	0.500063
C43	C	0.310610	0.111457	0.000085
C44	C	0.810610	0.611457	0.500085
C45	C	0.995201	-0.038490	0.000081
C46	C	1.495201	0.461510	0.500081
C47	C	0.993549	-0.131440	0.000075
C48	C	1.493549	0.368560	0.500075
C49	C	0.987617	-0.469188	0.000078
C50	C	1.487617	0.030812	0.500078
C51	C	0.896086	-0.421775	-0.000312
C52	C	1.396086	0.078225	0.499688
C53	C	0.897717	-0.325064	0.000073
C54	C	1.397717	0.174936	0.500073
C55	C	0.990559	-0.301627	0.000076
C56	C	1.490559	0.198373	0.500076
C57	C	1.030449	-0.337429	0.097402
C58	C	1.530449	0.162571	0.597402
C59	C	1.028145	-0.434060	0.097483
C60	C	1.528145	0.065940	0.597483
C61	C	1.040525	-0.444924	-0.096327
C62	C	1.540525	0.055076	0.403673
C63	C	1.040573	-0.348049	-0.097613
C64	C	1.540573	0.151951	0.402387
C65	C	0.992227	-0.206930	0.000079
C66	C	1.492227	0.293070	0.500079
C67	C	0.985952	-0.563885	0.000083
C68	C	1.485952	-0.063885	0.500083
C69	C	1.142170	0.108481	0.000092
C70	C	1.642170	0.608481	0.500092
C71	C	1.235120	0.110132	0.000094
C72	C	1.735120	0.610132	0.500094
C73	C	0.982975	0.267675	0.000080
C74	C	1.482975	0.767675	0.500080
C75	C	0.984627	0.360625	0.000079
C76	C	1.484627	0.860625	0.500079
N77	N	0.974724	0.128986	0.265603
N78	N	1.474724	0.628986	0.765603
N79	N	1.003458	0.100193	-0.265440
N80	N	1.503458	0.600193	0.234560
C81	C	0.963449	0.140295	0.474645
C82	C	1.463449	0.640295	0.974645
C83	C	1.014731	0.088887	0.525525
C84	C	1.514731	0.588887	1.025525
C85	C	1.008457	0.095179	0.641843
C86	C	1.508457	0.595179	1.141843
C87	C	0.969722	0.134003	0.358316
C88	C	1.469722	0.634003	0.858316
H89	H	0.430422	-0.011222	0.070256
H90	H	0.930422	0.488778	0.570256
H91	H	1.063347	0.040149	0.481727
H92	H	1.563347	0.540149	0.981727
O93	O	0.431740	-0.031659	-0.091460
O94	O	0.931740	0.468341	0.408540
H95	H	0.387692	0.006785	-0.137421
H96	H	0.887692	0.506785	0.362579
O97	O	0.591355	-0.029123	-0.092499
O98	O	1.091355	0.470877	0.407501
H99	H	0.542550	-0.055694	-0.137167
H100	H	1.042550	0.444306	0.362833
H101	H	0.914837	0.189030	0.518438
H102	H	1.414837	0.689030	1.018438
H103	H	0.991279	-0.448418	0.170232
H104	H	1.491279	0.051582	0.670232
H105	H	0.574086	-0.008492	0.069835
H106	H	1.074086	0.491508	0.569835
H107	H	0.426045	0.116767	-0.170071
H108	H	0.926045	0.616767	0.329929
H109	H	0.408407	0.220617	-0.101739
H110	H	0.908407	0.720617	0.398261
O111	O	1.116855	-0.476468	0.103361
O112	O	1.616855	0.023532	0.603361
H113	H	1.161209	-0.427930	0.106140
H114	H	1.661209	0.072070	0.606140
H115	H	0.551369	0.223957	-0.100866
H116	H	1.051369	0.723957	0.399134
O117	O	0.397121	0.131684	0.194207
O118	O	0.897121	0.631684	0.694207
H119	H	0.363310	0.076504	0.175147
H120	H	0.863310	0.576504	0.675147
O121	O	1.120537	-0.318453	0.102221
O122	O	1.620537	0.181547	0.602221
H123	H	1.137875	-0.283216	0.035140
H124	H	1.637875	0.216784	0.535140
O125	O	0.842856	-0.442730	0.091624
O126	O	1.342856	0.057270	0.591624
H127	H	0.839440	-0.511740	0.088899
H128	H	1.339440	-0.011740	0.588899
H129	H	0.569342	0.120655	-0.169675
H130	H	1.069342	0.620655	0.330325
O131	O	0.852604	-0.451327	-0.092755
O132	O	1.352604	0.048673	0.407245
H133	H	0.794665	-0.478464	-0.067115
H134	H	1.294665	0.021536	0.432885
O135	O	0.557482	0.127600	0.193144
O136	O	1.057482	0.627600	0.693144
H137	H	0.605749	0.073074	0.171072
H138	H	1.105749	0.573074	0.671072
H139	H	0.541512	0.234108	0.103645
H140	H	1.041512	0.734108	0.603645
O141	O	0.387463	0.255495	0.097380
O142	O	0.887463	0.755495	0.597380
H143	H	0.349410	0.262279	0.029534
H144	H	0.849410	0.762279	0.529534
O145	O	1.130680	-0.328132	-0.105393
O146	O	1.630680	0.171868	0.394607
H147	H	1.142835	-0.297777	-0.177985
H148	H	1.642835	0.202223	0.322015
O149	O	1.002064	-0.317060	-0.192991
O150	O	1.502064	0.182940	0.307009
H151	H	1.049949	-0.288840	-0.240411
H152	H	1.549949	0.211160	0.259589
O153	O	0.845392	-0.283125	0.092647
O154	O	1.345392	0.216875	0.592647
H155	H	0.818829	-0.331922	0.137321
H156	H	1.318829	0.168078	0.637321
H157	H	0.865997	-0.300424	-0.069694
H158	H	1.365997	0.199576	0.430306
H159	H	0.995166	-0.305122	0.169825
H160	H	1.495166	0.194878	0.669825
O161	O	1.006166	-0.477417	-0.194046
O162	O	1.506166	0.022583	0.305954
H163	H	0.950989	-0.511226	-0.174987
H164	H	1.450989	-0.011226	0.325013
O165	O	1.129983	-0.487045	-0.097206
O166	O	1.629983	0.012955	0.402794
H167	H	1.136773	-0.525083	-0.029355
H168	H	1.636773	-0.025083	0.470645
