data_functionalizedCrystal
_audit_creation_method	'MofGen! by Chris Wilmer'
_symmetry_space_group_name_H-M	'P1'
_symmetry_Int_Tables_number	1
_symmetry_cell_setting	triclinic
loop_
_symmetry_equiv_pos_as_xyz
  x,y,z
_cell_length_a	10.685904
_cell_length_b	10.686285
_cell_length_c	18.215399
_cell_angle_alpha	85.606976
_cell_angle_beta	85.608965
_cell_angle_gamma	89.665902
loop_
_atom_site_label
_atom_site_type_symbol
_atom_site_fract_x
_atom_site_fract_y
_atom_site_fract_z
Zn1	Zn	1.956281	-0.352428	-0.487970
Zn2	Zn	2.456281	0.147572	0.012030
Zn3	Zn	1.972297	-0.562226	-0.356261
Zn4	Zn	2.472297	-0.062226	0.143739
Zn5	Zn	1.746510	-0.368550	-0.354807
Zn6	Zn	2.246510	0.131450	0.145193
Zn7	Zn	1.762591	-0.578214	-0.469184
Zn8	Zn	2.262591	-0.078214	0.030816
O9	O	1.859420	-0.465355	-0.417056
O10	O	2.359420	0.034645	0.082944
O11	O	2.133958	-0.366819	-0.478969
O12	O	2.633958	0.133181	0.021031
O13	O	1.942318	-0.536591	-0.253080
O14	O	2.442318	-0.036591	0.246920
O15	O	1.760903	-0.190865	-0.379725
O16	O	2.260903	0.309135	0.120275
O17	O	2.145725	-0.520957	-0.382202
O18	O	2.645725	-0.020957	0.117798
O19	O	1.915021	-0.179020	-0.477559
O20	O	2.415021	0.320980	0.022441
O21	O	1.776433	-0.394298	-0.252012
O22	O	2.276433	0.105702	0.247988
O23	O	1.573090	-0.409801	-0.361509
O24	O	2.073090	0.090199	0.138491
O25	O	1.788312	-0.548207	-0.574664
O26	O	2.288312	-0.048207	-0.074664
O27	O	1.584905	-0.563840	-0.445542
O28	O	2.084905	-0.063840	0.054458
O29	O	1.930615	-0.382323	-0.588466
O30	O	2.430615	0.117677	-0.088466
O31	O	1.957912	-0.739893	-0.363987
O32	O	2.457912	-0.239893	0.136013
O33	O	1.803842	-0.751640	-0.446951
O34	O	2.303842	-0.251640	0.053049
C35	C	1.533479	-0.490306	-0.401330
C36	C	2.033479	0.009694	0.098670
C37	C	1.394043	-0.501011	-0.394618
C38	C	1.894043	-0.001011	0.105382
C39	C	1.884394	-0.791281	-0.403606
C40	C	2.384394	-0.291281	0.096394
C41	C	1.895193	-0.930705	-0.397882
C42	C	2.395193	-0.430705	0.102118
C43	C	2.186633	-0.440307	-0.432843
C44	C	2.686633	0.059693	0.067157
C45	C	2.326072	-0.429633	-0.439571
C46	C	2.826072	0.070367	0.060429
C47	C	1.859471	-0.465250	-0.609016
C48	C	2.359471	0.034750	-0.109016
C49	C	1.859493	-0.465205	-0.690818
C50	C	2.359493	0.034795	-0.190818
C51	C	1.834382	-0.138153	-0.430576
C52	C	2.334382	0.361847	0.069424
C53	C	1.823712	0.001281	-0.436337
C54	C	2.323712	0.501281	0.063663
C55	C	1.773181	-0.391054	-0.878462
C56	C	2.273181	0.108946	-0.378462
C57	C	1.773200	-0.391027	-0.955323
C58	C	2.273200	0.108973	-0.455323
C59	C	1.945944	-0.539195	-0.956424
C60	C	2.445944	-0.039195	-0.456424
C61	C	1.945918	-0.539228	-0.879564
C62	C	2.445918	-0.039228	-0.379564
C63	C	1.859537	-0.465150	-0.840586
C64	C	2.359537	0.034850	-0.340586
C65	C	1.859584	-0.465090	-0.994306
C66	C	2.359584	0.034910	-0.494306
C67	C	1.859606	-0.465062	-1.077642
C68	C	2.359606	0.034938	-0.577642
C69	C	1.859513	-0.465180	-0.757244
C70	C	2.359513	0.034820	-0.257244
C71	C	1.859434	-0.465363	-0.225850
C72	C	2.359434	0.034637	0.274150
C73	C	1.859628	-0.465036	-0.144074
C74	C	2.359628	0.034964	0.355926
H75	H	1.754254	-0.950286	-0.473640
H76	H	2.254254	-0.450286	0.026360
H77	H	2.016243	-0.599571	-0.848725
H78	H	2.516243	-0.099571	-0.348725
Br79	Br	2.010953	-1.011432	-0.335691
Br80	Br	2.510953	-0.511432	0.164309
H81	H	1.374559	-0.360327	-0.483190
H82	H	1.874559	0.139673	0.016810
H83	H	2.016273	-0.599506	-0.988171
H84	H	2.516273	-0.099506	-0.488171
H85	H	1.702879	-0.330692	-0.986158
H86	H	2.202879	0.169308	-0.486158
Br87	Br	1.313242	-0.616503	-0.321908
Br88	Br	1.813242	-0.116503	0.178092
Br89	Br	1.655948	-0.290523	-0.825564
Br90	Br	2.155948	0.209477	-0.325564
