data_functionalizedCrystal
_audit_creation_method	'MofGen! by Chris Wilmer'
_symmetry_space_group_name_H-M	'P1'
_symmetry_Int_Tables_number	1
_symmetry_cell_setting	triclinic
loop_
_symmetry_equiv_pos_as_xyz
  x,y,z
_cell_length_a	16.974800
_cell_length_b	10.723024
_cell_length_c	9.198806
_cell_angle_alpha	89.997736
_cell_angle_beta	93.653122
_cell_angle_gamma	83.927745
loop_
_atom_site_label
_atom_site_type_symbol
_atom_site_fract_x
_atom_site_fract_y
_atom_site_fract_z
O1	O	1.050011	0.158949	0.002693
O2	O	0.819914	0.179225	-0.024391
O3	O	0.940270	-0.012570	-0.010219
O4	O	0.929655	0.350745	-0.011479
O5	O	0.940261	-0.012572	0.231565
O6	O	0.819905	0.179224	0.217393
O7	O	1.050002	0.158948	0.244477
Cu8	Cu	0.934952	0.169086	0.253012
Cu9	Cu	0.934963	0.169087	-0.032926
O10	O	0.929646	0.350743	0.230305
C11	C	0.790447	0.178457	0.093033
C12	C	0.702657	0.176153	0.082700
C13	C	0.661413	0.175067	0.209645
C14	C	0.578928	0.172882	0.199940
C15	C	0.537686	0.171793	0.063288
C16	C	0.578936	0.172876	-0.063667
C17	C	0.661421	0.175051	-0.053960
C18	C	0.290993	0.165278	0.020125
C19	C	0.208502	0.163106	0.010428
C20	C	0.208499	0.163111	0.274036
C21	C	0.290985	0.165294	0.283730
C22	C	0.332229	0.166370	0.156776
N23	N	0.453372	0.169564	0.053365
N24	N	0.416542	0.168590	0.166701
C25	C	0.939493	-0.059059	0.110580
C26	C	0.937181	-0.197577	0.110303
C27	C	1.004526	-0.273591	0.118228
C28	C	1.002139	-0.416758	0.117942
C29	C	1.079469	0.159717	0.127050
C30	C	1.167258	0.162020	0.137373
C31	C	0.930423	0.397232	0.109502
C32	C	0.932734	0.535751	0.109770
N33	N	0.934951	0.169084	0.454125
N34	N	0.934971	0.169080	-0.234039
C35	C	0.985609	0.088379	0.699691
C36	C	0.985599	0.088381	0.532278
H37	H	0.174910	0.162233	0.377395
F38	F	0.334871	0.166460	0.429174
H39	H	1.028974	0.019291	0.766894
F40	F	1.082200	-0.220123	0.127362
F41	F	1.042264	-0.001935	0.457763
F42	F	0.878276	0.259391	0.528630
H43	H	0.891612	0.238176	0.698758
H44	H	0.875078	-0.398941	0.102995
H45	H	0.694985	0.175964	0.320921
H46	H	0.174925	0.162223	-0.100856
F47	F	0.535035	0.171744	0.335053
H48	H	0.324564	0.166150	-0.083250
H49	H	0.545351	0.171980	-0.174931
H50	H	0.695000	0.175938	-0.157333
H51	H	1.059792	-0.482073	0.124733
F52	F	0.859508	-0.251046	0.101147
