data_functionalizedCrystal
_audit_creation_method	'MofGen! by Chris Wilmer'
_symmetry_space_group_name_H-M	'P1'
_symmetry_Int_Tables_number	1
_symmetry_cell_setting	triclinic
loop_
_symmetry_equiv_pos_as_xyz
  x,y,z
_cell_length_a	11.792254
_cell_length_b	15.944551
_cell_length_c	10.868271
_cell_angle_alpha	89.993912
_cell_angle_beta	89.995741
_cell_angle_gamma	83.848668
loop_
_atom_site_label
_atom_site_type_symbol
_atom_site_fract_x
_atom_site_fract_y
_atom_site_fract_z
O1	O	1.505951	0.115179	-0.102324
O2	O	1.755951	0.365179	0.147676
O3	O	2.005951	0.615179	0.397676
O4	O	2.255951	0.865179	0.647676
O5	O	1.175514	0.127033	-0.102327
O6	O	1.425514	0.377033	0.147673
O7	O	1.675514	0.627033	0.397673
O8	O	1.925514	0.877033	0.647673
O9	O	1.349756	-0.001128	-0.102314
O10	O	1.599756	0.248872	0.147686
O11	O	1.849756	0.498872	0.397686
O12	O	2.099756	0.748872	0.647686
O13	O	1.331709	0.243340	-0.102337
O14	O	1.581709	0.493340	0.147663
O15	O	1.831709	0.743340	0.397663
O16	O	2.081709	0.993340	0.647663
O17	O	1.349742	-0.001133	0.102330
O18	O	1.599742	0.248867	0.352330
O19	O	1.849742	0.498867	0.602330
O20	O	2.099742	0.748867	0.852330
O21	O	1.175500	0.127028	0.102318
O22	O	1.425500	0.377028	0.352318
O23	O	1.675500	0.627028	0.602318
O24	O	1.925500	0.877028	0.852318
O25	O	1.505937	0.115174	0.102321
O26	O	1.755937	0.365174	0.352321
O27	O	2.005937	0.615174	0.602321
O28	O	2.255937	0.865174	0.852321
Zn29	Zn	1.340716	0.121100	0.134811
Zn30	Zn	1.590716	0.371100	0.384811
Zn31	Zn	1.840716	0.621100	0.634811
Zn32	Zn	2.090716	0.871100	0.884811
Zn33	Zn	1.340735	0.121107	-0.134817
Zn34	Zn	1.590735	0.371107	0.115183
Zn35	Zn	1.840735	0.621107	0.365183
Zn36	Zn	2.090735	0.871107	0.615183
O37	O	1.331695	0.243335	0.102308
O38	O	1.581695	0.493335	0.352308
O39	O	1.831695	0.743335	0.602308
O40	O	2.081695	0.993335	0.852308
C41	C	1.133222	0.126284	-0.000005
C42	C	1.383222	0.376284	0.249995
C43	C	1.633222	0.626284	0.499995
C44	C	1.883222	0.876284	0.749995
C45	C	1.007228	0.124049	-0.000006
C46	C	1.257228	0.374049	0.249994
C47	C	1.507228	0.624049	0.499994
C48	C	1.757228	0.874049	0.749994
C49	C	0.904906	0.122233	-0.000011
C50	C	1.154906	0.372233	0.249989
C51	C	1.404906	0.622233	0.499989
C52	C	1.654906	0.872233	0.749989
C53	C	0.776538	0.119962	-0.000011
C54	C	1.026538	0.369962	0.249989
C55	C	1.276538	0.619962	0.499989
C56	C	1.526538	0.869962	0.749989
C57	C	1.349000	-0.032428	0.000008
C58	C	1.599000	0.217572	0.250008
C59	C	1.849000	0.467572	0.500008
C60	C	2.099000	0.717572	0.750008
C61	C	1.346753	-0.125684	0.000009
C62	C	1.596753	0.124316	0.250009
C63	C	1.846753	0.374316	0.500009
C64	C	2.096753	0.624316	0.750009
C65	C	1.233381	-0.341056	-0.000009
C66	C	1.483381	-0.091056	0.249991
C67	C	1.733381	0.158944	0.499991
C68	C	1.983381	0.408944	0.749991
C69	C	1.286021	-0.401837	0.100894
C70	C	1.536021	-0.151837	0.350894
C71	C	1.786021	0.098163	0.600894
C72	C	2.036021	0.348163	0.850894
C73	C	1.342690	-0.296428	-0.000001
C74	C	1.592690	-0.046428	0.249999
C75	C	1.842690	0.203572	0.499999
C76	C	2.092690	0.453572	0.749999
C77	C	1.286060	-0.401815	-0.100870
C78	C	1.536060	-0.151815	0.149130
C79	C	1.786060	0.098185	0.399130
C80	C	2.036060	0.348185	0.649130
C81	C	1.338757	-0.461359	-0.000015
C82	C	1.588757	-0.211359	0.249985
C83	C	1.838757	0.038641	0.499985
C84	C	2.088757	0.288641	0.749985
C85	C	1.395359	-0.355981	0.100985
C86	C	1.645359	-0.105981	0.350985
C87	C	1.895359	0.144019	0.600985
C88	C	2.145359	0.394019	0.850985
C89	C	1.395384	-0.355953	-0.100869
C90	C	1.645384	-0.105953	0.149131
C91	C	1.895384	0.144047	0.399131
C92	C	2.145384	0.394047	0.649131
C93	C	1.448102	-0.416715	0.000058
C94	C	1.698102	-0.166715	0.250058
C95	C	1.948102	0.083285	0.500058
C96	C	2.198102	0.333285	0.750058
C97	C	1.344953	-0.201416	0.000009
C98	C	1.594953	0.048584	0.250009
C99	C	1.844953	0.298584	0.500009
C100	C	2.094953	0.548584	0.750009
C101	C	1.336503	-0.556370	-0.000016
C102	C	1.586503	-0.306370	0.249984
C103	C	1.836503	-0.056370	0.499984
C104	C	2.086503	0.193630	0.749984
C105	C	1.548228	0.115923	-0.000004
C106	C	1.798228	0.365923	0.249996
C107	C	2.048228	0.615923	0.499996
C108	C	2.298228	0.865923	0.749996
C109	C	1.674223	0.118158	-0.000011
C110	C	1.924223	0.368158	0.249989
C111	C	2.174223	0.618158	0.499989
C112	C	2.424223	0.868158	0.749989
C113	C	1.332451	0.274634	-0.000017
C114	C	1.582451	0.524634	0.249983
C115	C	1.832451	0.774634	0.499983
C116	C	2.082451	1.024634	0.749983
C117	C	1.334697	0.367891	-0.000026
C118	C	1.584697	0.617891	0.249974
C119	C	1.834697	0.867891	0.499974
C120	C	2.084697	1.117891	0.749974
N121	N	1.340711	0.121095	0.318825
N122	N	1.590711	0.371095	0.568825
N123	N	1.840711	0.621095	0.818825
N124	N	2.090711	0.871095	1.068825
N125	N	1.340748	0.121105	-0.318831
N126	N	1.590748	0.371105	-0.068831
N127	N	1.840748	0.621105	0.181169
N128	N	2.090748	0.871105	0.431169
C129	C	1.340729	0.121105	0.569831
C130	C	1.590729	0.371105	0.819831
C131	C	1.840729	0.621105	1.069831
C132	C	2.090729	0.871105	1.319831
C133	C	1.340715	0.121102	0.430153
C134	C	1.590715	0.371102	0.680153
C135	C	1.840715	0.621102	0.930153
C136	C	2.090715	0.871102	1.180153
H137	H	1.142650	-0.308161	0.000091
H138	H	1.392650	-0.058161	0.250091
H139	H	1.642650	0.191839	0.500091
H140	H	1.892650	0.441839	0.750091
Cl141	Cl	1.214660	-0.433155	-0.232565
Cl142	Cl	1.464660	-0.183155	0.017435
Cl143	Cl	1.714660	0.066845	0.267435
Cl144	Cl	1.964660	0.316845	0.517435
Cl145	Cl	1.214635	-0.433211	0.232598
Cl146	Cl	1.464635	-0.183211	0.482598
Cl147	Cl	1.714635	0.066789	0.732598
Cl148	Cl	1.964635	0.316789	0.982598
H149	H	1.441547	-0.335782	0.186384
H150	H	1.691547	-0.085782	0.436384
H151	H	1.941547	0.164218	0.686384
H152	H	2.191547	0.414218	0.936384
H153	H	1.538913	-0.449461	0.000116
H154	H	1.788913	-0.199461	0.250116
H155	H	2.038913	0.050539	0.500116
H156	H	2.288913	0.300539	0.750116
Cl157	Cl	1.466713	-0.324541	-0.232580
Cl158	Cl	1.716713	-0.074541	0.017420
Cl159	Cl	1.966713	0.175459	0.267420
Cl160	Cl	2.216713	0.425459	0.517420
