data_functionalizedCrystal
_audit_creation_method	'MofGen! by Chris Wilmer'
_symmetry_space_group_name_H-M	'P1'
_symmetry_Int_Tables_number	1
_symmetry_cell_setting	triclinic
loop_
_symmetry_equiv_pos_as_xyz
  x,y,z
_cell_length_a	23.532355
_cell_length_b	11.026607
_cell_length_c	10.065875
_cell_angle_alpha	100.731764
_cell_angle_beta	81.316254
_cell_angle_gamma	95.706757
loop_
_atom_site_label
_atom_site_type_symbol
_atom_site_fract_x
_atom_site_fract_y
_atom_site_fract_z
O1	O	0.777206	0.128935	-0.113300
O2	O	0.613587	0.150281	-0.113342
O3	O	0.681836	-0.036876	-0.113319
O4	O	0.708957	0.316092	-0.113322
O5	O	0.668836	-0.001045	0.113665
O6	O	0.600587	0.186112	0.113643
O7	O	0.764207	0.164765	0.113685
Zn8	Zn	0.680333	0.181127	0.149702
Zn9	Zn	0.697460	0.133919	-0.149359
O10	O	0.695958	0.351923	0.113662
C11	C	0.585815	0.167662	0.000145
C12	C	0.522428	0.166055	0.000128
C13	C	0.670333	-0.064110	0.000170
C14	C	0.655418	-0.198639	0.000161
C15	C	0.696601	-0.272957	0.000170
C16	C	0.681187	-0.412000	0.000161
C17	C	0.122265	0.175512	0.123915
C18	C	0.062704	0.173986	0.123920
O19	O	0.025872	0.189766	0.229146
N20	N	0.040002	0.153698	0.000191
C21	C	0.076863	0.134922	-0.123551
O22	O	0.052084	0.117524	-0.228791
C23	C	0.136422	0.136439	-0.123555
C24	C	0.159121	0.156741	0.000182
C25	C	0.144964	0.195811	0.247642
C26	C	0.204520	0.197339	0.247636
C27	C	0.241377	0.178568	0.123903
C28	C	0.218678	0.158269	0.000176
C29	C	0.173282	0.117655	-0.247295
C30	C	0.232844	0.119173	-0.247289
C31	C	0.255543	0.139475	-0.123552
C32	C	0.315091	0.141026	-0.123562
N33	N	0.337793	0.161315	0.000167
C34	C	0.300936	0.180085	0.123899
C35	C	-0.048215	0.131734	-0.123533
C36	C	-0.107772	0.130226	-0.123531
C37	C	-0.121927	0.169288	0.123941
C38	C	-0.062368	0.170805	0.123937
C39	C	-0.025513	0.152023	0.000196
C40	C	0.426009	0.183294	0.123878
C41	C	0.485572	0.184825	0.123861
C42	C	0.499721	0.145757	-0.123610
C43	C	0.440164	0.144232	-0.123594
C44	C	0.403309	0.162998	0.000161
O45	O	0.351957	0.125251	-0.228734
O46	O	0.325723	0.197465	0.229122
C47	C	0.791979	0.147384	0.000195
C48	C	0.855366	0.148990	0.000203
C49	C	0.707461	0.379156	0.000170
C50	C	0.722377	0.513684	0.000170
N51	N	0.668648	0.213345	0.353804
N52	N	0.709149	0.101692	-0.353461
C53	C	0.693390	0.145121	0.421591
C54	C	0.684403	0.169926	0.578755
H55	H	0.743271	-0.233643	0.000191
C56	C	0.746761	-0.002029	0.567768
N57	N	0.775092	-0.080146	0.508437
C58	C	0.229480	0.219655	0.383757
N59	N	0.248276	0.236457	0.486292
H60	H	0.721225	0.068343	0.363276
H61	H	0.640809	0.290114	0.412121
H62	H	0.114960	0.211095	0.348405
H63	H	0.608747	-0.237953	0.000140
H64	H	0.634514	-0.451308	0.000140
H65	H	0.769056	-0.447027	0.000079
H66	H	0.504049	0.201362	0.224627
H67	H	-0.043891	0.187338	0.224694
C68	C	0.385477	0.203950	0.260014
N69	N	0.354949	0.219519	0.362552
C70	C	-0.162482	0.189923	0.260050
N71	N	-0.193029	0.205463	0.362561
H72	H	-0.126247	0.113713	-0.224290
C73	C	-0.007677	0.111086	-0.259667
N74	N	0.022853	0.095532	-0.362204
H75	H	0.154811	0.101121	-0.348055
H76	H	0.421683	0.127720	-0.224350
H77	H	0.262850	0.103878	-0.348056
C78	C	0.540274	0.125102	-0.259709
N79	N	0.570820	0.109533	-0.362220
H80	H	0.656562	0.246700	0.637067
