data_functionalizedCrystal
_audit_creation_method	'MofGen! by Chris Wilmer'
_symmetry_space_group_name_H-M	'P1'
_symmetry_Int_Tables_number	1
_symmetry_cell_setting	triclinic
loop_
_symmetry_equiv_pos_as_xyz
  x,y,z
_cell_length_a	16.992694
_cell_length_b	15.021413
_cell_length_c	16.992700
_cell_angle_alpha	90.006426
_cell_angle_beta	90.667698
_cell_angle_gamma	89.987832
loop_
_atom_site_label
_atom_site_type_symbol
_atom_site_fract_x
_atom_site_fract_y
_atom_site_fract_z
O1	O	1.050836	0.073944	0.166910
O2	O	0.822436	0.073970	0.165079
O3	O	0.935722	0.073935	0.051795
O4	O	0.937551	0.073980	0.280195
O5	O	0.935736	-0.074130	0.051803
O6	O	0.822451	-0.074094	0.165087
O7	O	1.050851	-0.074120	0.166919
Zn8	Zn	0.936653	-0.097616	0.166004
Zn9	Zn	0.936634	0.097465	0.165993
O10	O	0.937566	-0.074085	0.280203
C11	C	0.793084	-0.000059	0.162727
C12	C	0.705599	-0.000050	0.155699
C13	C	0.659608	-0.000038	0.223517
C14	C	0.577407	-0.000051	0.216908
C15	C	0.541199	-0.000071	0.142480
C16	C	0.587197	-0.000086	0.074657
C17	C	0.669396	-0.000079	0.081267
C18	C	0.295885	-0.000100	0.115086
C19	C	0.213680	-0.000105	0.108481
C20	C	0.203896	-0.000071	0.250732
C21	C	0.286097	-0.000059	0.257335
C22	C	0.332087	-0.000079	0.189512
N23	N	0.457177	-0.000082	0.135723
N24	N	0.416108	-0.000074	0.196270
N25	N	0.936672	-0.230753	0.166012
C26	C	0.989066	-0.470429	0.113617
C27	C	0.916978	-0.529754	0.093872
C28	C	0.936653	-0.412360	0.166001
C29	C	1.008721	-0.529777	0.185698
C30	C	0.936641	-0.587784	0.165989
C31	C	0.864527	-0.470378	0.146218
C32	C	0.956319	-0.470397	0.238079
C33	C	0.884182	-0.529694	0.218360
C34	C	0.936661	-0.311303	0.166006
C35	C	0.936625	-0.688839	0.165984
C36	C	1.080204	-0.000089	0.169270
C37	C	1.167688	-0.000092	0.176299
C38	C	0.933374	-0.000101	0.022439
C39	C	0.926346	-0.000112	-0.065046
N40	N	0.936621	0.230603	0.165980
C41	C	0.879124	-0.000026	-0.556965
C42	C	0.885734	-0.000035	-0.474764
C43	C	0.960162	-0.000056	-0.438557
C44	C	1.027984	-0.000058	-0.484555
C45	C	1.021374	-0.000042	-0.566754
C46	C	0.987558	-0.000098	-0.193243
C47	C	0.994163	-0.000117	-0.111038
C48	C	0.851912	-0.000093	-0.101253
C49	C	0.845308	-0.000082	-0.183454
C50	C	0.913131	-0.000079	-0.229445
N51	N	0.966919	-0.000068	-0.354535
N52	N	0.906372	-0.000061	-0.313465
C53	C	0.939914	-0.000047	0.309559
C54	C	0.946942	-0.000030	0.397043
H55	H	0.689081	-0.000021	0.284123
H56	H	0.830509	-0.000028	-0.437320
N57	N	1.044615	-0.437790	0.058016
N58	N	1.083835	-0.491216	0.017930
H59	H	1.123065	-0.468165	-0.021338
H60	H	0.557710	-0.000115	0.014056
H61	H	0.539964	-0.000040	0.272132
H62	H	0.900334	-0.555827	0.032912
N63	N	0.323067	-0.000027	0.333368
N64	N	0.281993	-0.000010	0.393915
H65	H	0.308102	0.000018	0.447615
H66	H	0.818517	-0.000019	-0.586438
N67	N	0.342844	-0.000117	0.045800
N68	N	0.310503	-0.000130	-0.020646
H69	H	0.343670	-0.000139	-0.069583
H70	H	0.803557	-0.444397	0.129484
H71	H	0.706842	-0.000089	0.026042
H72	H	0.784701	-0.000055	-0.212927
N73	N	0.828503	-0.562133	0.273921
N74	N	0.757253	-0.542905	0.266260
H75	H	0.717927	-0.565816	0.305496
N76	N	0.977231	-0.437671	0.314532
N77	N	1.042713	-0.456674	0.344309
H78	H	1.057490	-0.433561	0.398306
N79	N	1.085185	-0.562510	0.206596
N80	N	1.143061	-0.543521	0.165086
H81	H	1.197066	-0.566637	0.179838
H82	H	0.796695	-0.000094	-0.063798
H83	H	1.054774	-0.000134	-0.081561
H84	H	1.088585	-0.000076	-0.455069
N85	N	0.156917	-0.000079	0.320007
N86	N	0.162837	-0.062487	0.368367
H87	H	0.129658	-0.062497	0.417295
N88	N	0.176706	-0.000123	0.032445
N89	N	0.217777	-0.000141	-0.028105
H90	H	0.191664	-0.000152	-0.081804
N91	N	1.056843	-0.000091	-0.240203
N92	N	1.123290	-0.000109	-0.207862
H93	H	1.172226	-0.000103	-0.241030
N94	N	1.090656	-0.000041	-0.613725
N95	N	1.157106	-0.000058	-0.581390
H96	H	1.206039	-0.000054	-0.614562
