data_functionalizedCrystal
_audit_creation_method	'MofGen! by Chris Wilmer'
_symmetry_space_group_name_H-M	'P1'
_symmetry_Int_Tables_number	1
_symmetry_cell_setting	triclinic
loop_
_symmetry_equiv_pos_as_xyz
  x,y,z
_cell_length_a	16.974800
_cell_length_b	11.792254
_cell_length_c	15.455313
_cell_angle_alpha	92.683372
_cell_angle_beta	90.973911
_cell_angle_gamma	83.793472
loop_
_atom_site_label
_atom_site_type_symbol
_atom_site_fract_x
_atom_site_fract_y
_atom_site_fract_z
O1	O	1.049697	0.144683	0.001582
O2	O	0.820339	0.162015	-0.014526
O3	O	0.940579	-0.011852	-0.006075
O4	O	0.929458	0.318550	-0.006869
O5	O	0.933703	-0.001950	0.137704
O6	O	0.813463	0.171917	0.129253
O7	O	1.042821	0.154584	0.145361
Cu8	Cu	0.927514	0.164155	0.150435
Cu9	Cu	0.935646	0.152445	-0.019600
O10	O	0.922582	0.328451	0.136910
C11	C	0.787538	0.166126	0.055301
C12	C	0.700046	0.163607	0.049157
C13	C	0.655198	0.167818	0.124646
C14	C	0.572991	0.165434	0.118875
C15	C	0.535633	0.158846	0.037614
C16	C	0.580487	0.154631	-0.037881
C17	C	0.662693	0.157008	-0.032109
C18	C	0.290175	0.151153	0.011948
C19	C	0.207963	0.148781	0.006181
C20	C	0.200473	0.159581	0.162938
C21	C	0.282681	0.161964	0.168703
C22	C	0.327528	0.157743	0.093208
N23	N	0.451604	0.156413	0.031713
N24	N	0.411556	0.160168	0.099110
C25	C	0.936440	-0.049188	0.065765
C26	C	0.934343	-0.175189	0.065617
C27	C	0.932640	-0.277516	0.065494
C28	C	0.930510	-0.405891	0.065336
C29	C	1.075622	0.150474	0.075532
C30	C	1.163115	0.152992	0.081671
C31	C	0.926720	0.365787	0.065068
C32	C	0.928818	0.491788	0.065211
N33	N	0.921801	0.172390	0.270029
N34	N	0.941366	0.144201	-0.139194
C35	C	0.972901	0.098552	0.319015
C36	C	0.968587	0.104791	0.409519
C37	C	0.913177	0.184873	0.451037
C38	C	0.862071	0.258714	0.402045
C39	C	0.866382	0.252469	0.311541
C40	C	0.894571	0.211797	0.721311
C41	C	0.890266	0.218038	0.811821
C42	C	0.996781	0.064113	0.819289
C43	C	1.001090	0.057880	0.728784
C44	C	0.949982	0.131717	0.679799
N45	N	0.908768	0.191254	0.543547
N46	N	0.954388	0.125330	0.587290
H47	H	0.326680	0.147712	-0.049526
C48	C	0.801112	0.346795	0.447717
N49	N	0.755195	0.413139	0.482116
H50	H	0.163950	0.163016	0.224401
C51	C	1.024782	0.023536	0.463398
N52	N	1.067104	-0.037680	0.503979
H53	H	0.685608	0.173192	0.190817
C54	C	0.523660	0.170093	0.201919
N55	N	0.486503	0.173612	0.264472
H56	H	1.038390	0.003997	0.859180
C57	C	0.323769	0.169205	0.258096
N58	N	0.354717	0.174660	0.325428
H59	H	0.550063	0.149259	-0.104045
C60	C	0.166870	0.141532	-0.083216
N61	N	0.135919	0.136075	-0.150546
H62	H	0.699207	0.153580	-0.093580
C63	C	1.033857	0.010454	0.273354
N64	N	1.079768	-0.055908	0.238964
H65	H	1.046209	-0.007329	0.694982
H66	H	0.824770	0.312594	0.271658
C67	C	0.829305	0.306135	0.857488
N68	N	0.783392	0.372487	0.891885
H69	H	0.852958	0.271920	0.681435
