data_functionalizedCrystal
_audit_creation_method	'MofGen! by Chris Wilmer'
_symmetry_space_group_name_H-M	'P1'
_symmetry_Int_Tables_number	1
_symmetry_cell_setting	triclinic
loop_
_symmetry_equiv_pos_as_xyz
  x,y,z
_cell_length_a	10.723024
_cell_length_b	19.188930
_cell_length_c	9.798715
_cell_angle_alpha	89.991738
_cell_angle_beta	89.996609
_cell_angle_gamma	83.806325
loop_
_atom_site_label
_atom_site_type_symbol
_atom_site_fract_x
_atom_site_fract_y
_atom_site_fract_z
O1	O	1.655155	0.097922	-0.113499
O2	O	1.291808	0.107295	-0.113506
O3	O	1.483967	0.001021	-0.113476
O4	O	1.462996	0.204196	-0.113529
O5	O	1.483952	0.001021	0.113507
O6	O	1.291793	0.107295	0.113477
O7	O	1.655140	0.097922	0.113483
Zn8	Zn	1.473465	0.102608	0.149518
Zn9	Zn	1.473483	0.102609	-0.149541
O10	O	1.462982	0.204196	0.113453
C11	C	1.245315	0.106613	-0.000015
C12	C	1.106803	0.104572	-0.000016
C13	C	1.030586	0.164037	-0.000033
C14	C	0.887427	0.161930	-0.000034
C15	C	1.483280	-0.024995	0.000019
C16	C	1.481242	-0.102512	0.000031
C17	C	1.593994	-0.146704	0.000040
C18	C	1.592079	-0.219540	0.000018
C19	C	1.477405	-0.248182	0.000015
C20	C	1.364638	-0.203981	-0.000001
C21	C	1.366556	-0.131146	0.000007
N22	N	1.389745	-0.356756	0.077260
N23	N	1.387931	-0.425947	0.077255
C24	C	1.471618	-0.467628	-0.000013
N25	N	1.557208	-0.437506	-0.077259
N26	N	1.559026	-0.368310	-0.077248
C27	C	1.475312	-0.327158	0.000005
C28	C	1.582302	-0.590797	-0.000030
C29	C	1.580382	-0.663634	-0.000061
C30	C	1.352937	-0.648073	-0.000066
C31	C	1.354860	-0.575238	-0.000049
C32	C	1.469546	-0.546604	-0.000025
C33	C	1.701633	0.098604	-0.000011
C34	C	1.840145	0.100645	-0.000019
C35	C	1.463668	0.230211	-0.000045
C36	C	1.465706	0.307729	-0.000066
N37	N	1.473461	0.102608	0.353618
N38	N	1.473497	0.102604	-0.353640
C39	C	1.554147	0.057789	0.421407
C40	C	1.554167	0.057787	0.578570
H41	H	1.687380	-0.123395	0.000055
H42	H	0.821937	0.212836	-0.000054
H43	H	1.274736	-0.095165	0.000000
H44	H	0.905627	0.049735	-0.000013
H45	H	1.683899	-0.255527	0.000019
H46	H	1.675686	-0.567482	-0.000017
O47	O	1.245414	-0.532234	0.000139
C48	C	1.115545	-0.441012	0.117776
C49	C	1.239556	-0.489662	0.117725
H50	H	1.110757	-0.406590	0.212849
H51	H	1.110749	-0.406466	0.022853
H52	H	1.033271	-0.474004	0.117704
H53	H	1.321900	-0.456724	0.117846
H54	H	1.244243	-0.524210	0.212640
O55	O	1.079022	0.226680	-0.000230
C56	C	1.093160	0.335826	-0.117892
C57	C	1.038204	0.264913	-0.117823
H58	H	1.060202	0.366751	-0.212971
H59	H	1.060091	0.366848	-0.022974
H60	H	1.199960	0.326354	-0.117820
H61	H	0.931403	0.274322	-0.117944
H62	H	1.071371	0.233914	-0.212733
H63	H	1.623251	0.019419	0.636866
O64	O	1.390891	0.148313	0.423114
C65	C	1.173887	0.188447	0.467073
C66	C	1.267263	0.136634	0.388313
H67	H	1.073915	0.179032	0.438944
H68	H	1.188474	0.180288	0.581448
H69	H	1.190157	0.244418	0.439062
H70	H	1.251050	0.080643	0.416210
H71	H	1.252654	0.144854	0.273958
H72	H	1.066070	0.052101	-0.000037
O73	O	1.391251	0.148415	0.576683
C74	C	1.364756	0.243600	0.415241
C75	C	1.458035	0.191748	0.494052
H76	H	1.418714	0.278658	0.348437
H77	H	1.302487	0.213251	0.348268
H78	H	1.303997	0.277310	0.490761
H79	H	1.518876	0.158024	0.418631
H80	H	1.520216	0.222139	0.561045
O81	O	1.253321	-0.231882	-0.000184
C82	C	1.119139	-0.305043	-0.117830
C83	C	1.245264	-0.273505	-0.117769
H84	H	1.112572	-0.338689	-0.212902
H85	H	1.112527	-0.338806	-0.022905
H86	H	1.038898	-0.260932	-0.117769
H87	H	1.325578	-0.317571	-0.117879
H88	H	1.251767	-0.239723	-0.212685
H89	H	1.672202	-0.699615	-0.000061
H90	H	1.623208	0.019418	0.363095
H91	H	1.259567	-0.671393	-0.000075
