data_functionalizedCrystal
_audit_creation_method	'MofGen! by Chris Wilmer'
_symmetry_space_group_name_H-M	'P1'
_symmetry_Int_Tables_number	1
_symmetry_cell_setting	triclinic
loop_
_symmetry_equiv_pos_as_xyz
  x,y,z
_cell_length_a	12.759401
_cell_length_b	16.625545
_cell_length_c	12.759393
_cell_angle_alpha	90.032830
_cell_angle_beta	90.020787
_cell_angle_gamma	90.026040
loop_
_atom_site_label
_atom_site_type_symbol
_atom_site_fract_x
_atom_site_fract_y
_atom_site_fract_z
Zn1	Zn	1.606187	-0.320952	0.593999
Zn2	Zn	1.606045	-0.455806	0.418312
Zn3	Zn	1.430486	-0.320993	0.418334
Zn4	Zn	1.430444	-0.455748	0.593949
O5	O	1.518291	-0.388375	0.506149
O6	O	1.753189	-0.338849	0.570705
O7	O	1.582714	-0.437965	0.271294
O8	O	1.453870	-0.208155	0.441667
O9	O	1.753085	-0.437925	0.441628
O10	O	1.582957	-0.208125	0.570727
O11	O	1.453732	-0.338918	0.271310
O12	O	1.283459	-0.338861	0.441619
O13	O	1.453799	-0.437825	0.740977
O14	O	1.283429	-0.437864	0.570643
O15	O	1.582917	-0.338792	0.741013
O16	O	1.582674	-0.568631	0.441580
O17	O	1.453661	-0.568588	0.570621
C18	C	1.245323	-0.388361	0.506128
C19	C	1.128547	-0.388375	0.506145
C20	C	0.963901	-0.439894	0.438864
C21	C	1.073625	-0.439882	0.438844
C22	C	1.073738	-0.336870	0.573462
C23	C	0.964016	-0.336879	0.573476
C24	C	1.223502	-0.468565	0.314853
C25	C	1.278306	-0.520076	0.247548
C26	C	1.242651	-0.598740	0.231241
C27	C	1.152193	-0.625908	0.282254
C28	C	1.097395	-0.574401	0.349567
C29	C	1.133048	-0.495726	0.365855
C30	C	0.814138	-0.308204	0.697468
C31	C	0.759337	-0.256700	0.764787
C32	C	0.794990	-0.178036	0.781105
C33	C	0.885451	-0.150870	0.730110
C34	C	0.940252	-0.202374	0.662791
C35	C	0.904591	-0.281038	0.646472
C36	C	1.518176	-0.597866	0.506116
C37	C	1.518224	-0.687487	0.506137
C38	C	1.518264	-0.760269	0.506157
C39	C	1.518326	-0.851578	0.506181
C40	C	1.518380	-0.924354	0.506194
C41	C	1.518440	-1.015668	0.506215
C42	C	1.792324	-0.388389	0.506169
C43	C	1.909100	-0.388395	0.506178
C44	C	1.518369	-0.388297	0.780182
C45	C	1.518403	-0.388264	0.896959
C46	C	1.518434	-0.178066	0.506205
C47	C	1.518495	-0.088445	0.506229
C48	C	1.518273	-0.388394	0.233181
C49	C	1.518443	-0.388200	0.116405
C50	C	1.585639	-0.336689	0.951841
C51	C	1.585657	-0.336655	1.061566
C52	C	1.451199	-0.439777	1.061515
C53	C	1.451177	-0.439807	0.951793
C54	C	1.623292	-0.241524	1.211549
C55	C	1.690545	-0.189956	1.266435
C56	C	1.793061	-0.177593	1.230844
C57	C	1.828345	-0.216810	1.140368
C58	C	1.761098	-0.268384	1.085488
C59	C	1.658567	-0.280731	1.121077
C60	C	1.413552	-0.534939	0.801808
C61	C	1.346309	-0.586518	0.746925
C62	C	1.243792	-0.598889	0.782514
C63	C	1.208511	-0.559686	0.872993
C64	C	1.275754	-0.508107	0.927876
C65	C	1.378271	-0.495735	0.892279
H66	H	0.785101	-0.372260	0.684188
H67	H	1.189047	-0.640896	0.737824
H68	H	1.396468	-0.481743	1.106174
H69	H	1.014049	-0.180310	0.621460
F70	F	1.374575	-0.491160	0.193258
F71	F	1.383865	-0.628248	0.650634
F72	F	1.238203	-0.466383	1.024172
F73	F	1.657184	-0.281831	0.893487
F74	F	1.798643	-0.310121	0.989204
H75	H	1.497028	-0.524864	0.772817
F76	F	1.864635	-0.122711	1.289263
F77	F	1.261450	-0.384839	0.332195
F78	F	0.905459	-0.494722	0.367240
H79	H	0.750365	-0.136105	0.835931
F80	F	1.001129	-0.603310	0.403857
F81	F	1.132193	-0.282050	0.645086
F82	F	1.114281	-0.709646	0.264934
F83	F	1.937464	-0.203659	1.102505
F84	F	1.099401	-0.572853	0.910875
F85	F	1.300983	-0.653561	0.159611
H86	H	0.914483	-0.086816	0.743400
F87	F	1.652991	-0.148220	1.362723
H88	H	1.539814	-0.251579	1.240530
H89	H	0.685682	-0.278827	0.806315
