data_functionalizedCrystal
_audit_creation_method	'MofGen! by Chris Wilmer'
_symmetry_space_group_name_H-M	'P1'
_symmetry_Int_Tables_number	1
_symmetry_cell_setting	triclinic
loop_
_symmetry_equiv_pos_as_xyz
  x,y,z
_cell_length_a	19.902436
_cell_length_b	14.560438
_cell_length_c	19.902436
_cell_angle_alpha	60.006729
_cell_angle_beta	90.004623
_cell_angle_gamma	59.996626
loop_
_atom_site_label
_atom_site_type_symbol
_atom_site_fract_x
_atom_site_fract_y
_atom_site_fract_z
Zr1	Zr	0.647322	1.005156	-0.088103
O2	O	0.540030	1.196757	-0.195389
O3	O	0.680213	0.813556	-0.055216
O4	O	0.680213	1.005134	-0.195380
O5	O	0.540030	1.005197	0.055341
O6	O	0.790792	1.005116	-0.195371
O7	O	0.540030	1.005179	-0.055225
O8	O	0.790791	0.662418	0.055356
O9	O	0.540030	1.347895	-0.195387
O10	O	0.776764	0.892350	-0.041182
O11	O	0.694240	0.892377	0.041326
O12	O	0.694241	1.117936	-0.123699
O13	O	0.611717	1.117962	-0.041192
Zr14	Zr	0.823682	1.005156	0.088251
Zr15	Zr	0.823682	1.005128	-0.088089
Zr16	Zr	0.647322	1.005185	0.088236
Zr17	Zr	0.647322	1.246204	-0.088100
Zr18	Zr	0.823682	0.764109	0.088247
O19	O	0.790792	1.196757	0.055364
O20	O	0.790792	1.196717	-0.195369
O21	O	0.540030	1.196797	0.055343
O22	O	0.930974	0.813556	0.195536
O23	O	0.930974	0.813515	-0.055196
O24	O	0.680212	0.813596	0.195516
O25	O	0.930975	1.005116	-0.055193
O26	O	0.790791	1.005179	0.195527
O27	O	0.680213	1.005197	0.195518
O28	O	0.930975	1.005134	0.055372
O29	O	0.680213	1.347872	-0.195376
O30	O	0.790791	0.662440	0.195523
O31	O	0.930974	0.662418	0.195534
O32	O	0.930974	0.662395	0.055368
O33	O	0.540030	1.347918	-0.055221
O34	O	0.680213	1.347895	-0.055209
O35	O	0.776764	0.892377	0.123846
O36	O	0.859288	0.892350	0.041339
O37	O	0.776764	1.117936	-0.041179
O38	O	0.694240	1.117962	0.041329
C39	C	0.735502	0.703643	0.000069
C40	C	0.735502	0.601311	0.000068
C41	C	0.514902	1.005192	0.000056
C42	C	0.440033	1.005204	0.000050
C43	C	0.778576	0.553222	-0.043000
C44	C	0.778580	0.457062	-0.042992
C45	C	0.692427	0.457095	0.043153
C46	C	0.692429	0.553246	0.043149
C47	C	0.168031	1.005140	0.000081
C48	C	0.144464	1.147444	-0.051723
C49	C	0.222302	1.147533	-0.052010
C50	C	0.302974	1.005173	0.000066
C51	C	0.300562	0.934492	-0.037893
C52	C	0.222335	0.935401	-0.038276
C53	C	0.223322	0.932499	0.089868
C54	C	0.300243	0.935174	0.089730
C55	C	0.379240	1.005183	0.000057
C56	C	0.091765	1.005125	0.000087
C57	C	0.956102	1.005121	0.000091
C58	C	1.030972	1.005109	0.000098
C59	C	0.735502	1.005121	-0.220500
C60	C	0.735502	1.005109	-0.295361
C61	C	0.735503	1.306670	0.000078
C62	C	0.735503	1.409001	0.000079
C63	C	0.735502	1.005173	-0.567410
C64	C	0.787807	0.862869	-0.486866
C65	C	0.787581	0.862780	-0.408963
C66	C	0.735503	1.005140	-0.432443
C67	C	0.645834	1.075821	-0.486569
C68	C	0.646121	1.074911	-0.564131
C69	C	0.772142	1.077814	-0.565260
C70	C	0.773956	1.075139	-0.486382
C71	C	0.735498	1.005129	-0.356168
C72	C	0.735500	1.005188	-0.643686
C73	C	0.735502	1.005192	0.220648
C74	C	0.735502	1.005204	0.295508
C75	C	0.956102	0.703607	0.000087
C76	C	1.030971	0.601264	0.000092
C77	C	0.735502	0.703678	0.220643
C78	C	0.735501	0.601359	0.295503
C79	C	0.956102	0.703643	0.220661
C80	C	1.030971	0.601311	0.295527
C81	C	0.514903	1.306670	-0.220514
C82	C	0.440033	1.409001	-0.295380
C83	C	0.514903	1.306706	0.000060
C84	C	0.440033	1.409049	0.000055
C85	C	0.735503	1.306635	-0.220496
C86	C	0.735503	1.408954	-0.295356
C87	C	1.023054	0.553202	-0.042988
C88	C	1.093395	0.457054	-0.043000
C89	C	1.171653	0.408961	0.000073
C90	C	1.179568	0.457032	0.043155
C91	C	1.109228	0.553186	0.043161
C92	C	0.778578	0.553309	0.373740
C93	C	0.778575	0.457183	0.444085
C94	C	0.735499	0.409102	0.436191
C95	C	0.692417	0.457162	0.357946
C96	C	0.692416	0.553293	0.287603
C97	C	1.109214	0.553242	0.287616
C98	C	1.179569	0.457104	0.357954
C99	C	1.171678	0.409032	0.436201
C100	C	1.093427	0.457111	0.444109
C101	C	1.023074	0.553253	0.373773
C102	C	0.361790	1.457082	-0.287469
C103	C	0.291435	1.553250	-0.357807
C104	C	0.299326	1.601328	-0.436054
C105	C	0.377578	1.553242	-0.443962
C106	C	0.447930	1.457083	-0.373626
C107	C	0.447950	1.457120	0.043128
C108	C	0.377609	1.553296	0.043121
C109	C	0.299352	1.601391	0.000045
C110	C	0.291436	1.553316	-0.043033
C111	C	0.361777	1.457149	-0.043030
C112	C	0.778587	1.457004	-0.287436
C113	C	0.778603	1.553131	-0.357767
C114	C	0.735530	1.601212	-0.436018
C115	C	0.692445	1.553152	-0.443937
C116	C	0.692434	1.457020	-0.373606
H117	H	0.813650	0.592352	-0.078078
C118	C	0.377881	0.794889	0.146280
H119	H	0.374566	0.755003	0.200009
H120	H	0.381816	0.747236	0.125131
H121	H	0.425170	0.795890	0.148598
C122	C	0.386331	1.606149	0.090517
H123	H	0.443013	1.563709	0.116182
H124	H	0.360692	1.696920	0.053349
H125	H	0.360678	1.590395	0.131277
H126	H	0.657357	0.417950	0.078227
C127	C	0.735507	0.303355	0.513571
H128	H	0.703680	0.281601	0.497670
H129	H	0.790392	0.228342	0.545393
H130	H	0.712440	0.334900	0.545383
C131	C	0.825952	0.606197	0.382439
H132	H	0.851592	0.563816	0.439114
H133	H	0.866722	0.590433	0.356801
H134	H	0.788756	0.696980	0.356785
H135	H	0.605028	1.179318	-0.621169
C136	C	1.265653	0.404111	0.090539
H137	H	1.306405	0.339952	0.084368
H138	H	1.271841	0.473113	0.069283
H139	H	1.271827	0.366587	0.147211
H140	H	0.355319	1.418012	-0.078103
C141	C	1.117946	0.606028	0.090564
H142	H	1.174629	0.563598	0.116220
H143	H	1.092299	0.696803	0.053401
H144	H	1.092304	0.590254	0.131331
H145	H	0.657347	1.417909	-0.380066
C146	C	0.825975	0.404323	0.530144
H147	H	0.851638	0.446715	0.524764
H148	H	0.788802	0.420099	0.559378
H149	H	0.866742	0.313540	0.559376
H150	H	0.813687	1.592251	-0.351304
C151	C	0.205353	1.606217	-0.090407
H152	H	0.210704	1.563824	-0.116067
H153	H	0.176129	1.590469	-0.053223
H154	H	0.176122	1.696996	-0.131169
C155	C	0.248460	0.794367	0.009390
H156	H	0.200872	0.793968	0.009481
H157	H	0.278877	0.755083	-0.016337
H158	H	0.281741	0.747049	0.064436
H159	H	0.383993	1.592400	-0.507679
C160	C	0.735541	1.706964	-0.513375
H161	H	0.767365	1.728698	-0.497443
H162	H	0.758604	1.675455	-0.545201
H163	H	0.680656	1.781999	-0.545196
H164	H	0.657351	0.592400	0.078224
H165	H	1.243279	0.417968	0.351500
C166	C	0.377309	0.793089	0.010618
H167	H	0.374590	0.752164	-0.013369
H168	H	0.425310	0.792234	0.009017
H169	H	0.379363	0.747623	0.066139
C170	C	0.605926	1.009528	-0.435983
H171	H	0.643769	0.938786	-0.381891
H172	H	0.557829	1.070426	-0.433377
H173	H	0.591575	0.978444	-0.461470
H174	H	0.657347	0.418000	0.351531
C175	C	0.825974	1.404127	-0.201369
H176	H	0.851639	1.446513	-0.206736
H177	H	0.788797	1.419899	-0.172138
H178	H	0.866739	1.313344	-0.172140
C179	C	0.302649	1.000786	-0.126301
H180	H	0.304985	1.071528	-0.140212
H181	H	0.349810	0.939889	-0.129845
H182	H	0.254421	1.031869	-0.163394
C183	C	0.353098	1.404215	-0.201405
H184	H	0.406199	1.340050	-0.160640
H185	H	0.323874	1.473247	-0.195237
H186	H	0.323863	1.366714	-0.195240
C187	C	0.205369	1.606115	-0.349093
H188	H	0.210753	1.563688	-0.292417
H189	H	0.176131	1.696888	-0.374728
H190	H	0.176134	1.590355	-0.374746
C191	C	0.645061	1.606061	-0.530015
H192	H	0.651235	1.670206	-0.570760
H193	H	0.666321	1.537051	-0.536202
H194	H	0.588383	1.643601	-0.536192
C195	C	1.249071	0.303267	0.513563
H196	H	1.296798	0.281521	0.497638
H197	H	1.249087	0.334772	0.545391
H198	H	1.249082	0.228241	0.545380
H199	H	0.657341	0.592402	0.223901
C200	C	1.117906	0.606113	0.201552
H201	H	1.064805	0.670252	0.160787
H202	H	1.147131	0.643622	0.195387
H203	H	1.147139	0.537075	0.195385
H204	H	0.813656	0.417908	-0.078061
C205	C	0.863196	1.005536	-0.435959
H206	H	0.886122	1.048331	-0.468924
H207	H	0.863691	1.007389	-0.388931
H208	H	0.894835	0.917944	-0.418922
C209	C	0.220717	1.222452	-0.017624
H210	H	0.172384	1.253113	-0.003356
H211	H	0.267838	1.166396	0.029880
H212	H	0.220932	1.294095	-0.058195
H213	H	1.228921	0.330666	0.000062
H214	H	0.511638	1.417936	-0.380076
C215	C	0.250232	0.790887	0.142259
H216	H	0.227899	0.776051	0.109617
H217	H	0.308586	0.733759	0.161756
H218	H	0.230792	0.775499	0.187717
H219	H	0.511665	1.417968	0.078211
H220	H	1.087014	0.417956	0.507827
C221	C	0.936979	0.606095	-0.090374
H222	H	0.896212	0.670239	-0.084201
H223	H	0.930809	0.643601	-0.147040
H224	H	0.930809	0.537067	-0.069105
C225	C	0.606487	1.007093	-0.563882
H226	H	0.590368	0.980349	-0.516470
H227	H	0.559519	1.065765	-0.611923
H228	H	0.645130	0.933309	-0.563083
C229	C	0.091541	1.222923	-0.017516
H230	H	0.083337	1.168334	0.028662
H231	H	0.118836	1.250183	-0.001211
H232	H	0.039784	1.296813	-0.058898
H233	H	0.853610	0.807326	-0.369563
C234	C	0.090564	1.222512	-0.140663
H235	H	0.082363	1.167506	-0.146363
H236	H	0.038860	1.296085	-0.152907
H237	H	0.117232	1.250234	-0.177590
C238	C	0.937009	0.606115	0.382480
H239	H	0.896232	0.670265	0.329388
H240	H	0.930852	0.537080	0.411711
H241	H	0.930841	0.643633	0.411707
H242	H	0.220527	1.203307	-0.118241
H243	H	0.734212	1.182655	-0.622021
H244	H	0.242083	1.679697	0.000049
H245	H	0.762169	0.806984	-0.369926
H246	H	1.086934	0.417926	-0.078082
C247	C	0.221936	1.707094	-0.513419
H248	H	0.237836	1.728853	-0.561157
H249	H	0.190113	1.675579	-0.513418
H250	H	0.190119	1.782115	-0.513415
C251	C	0.172965	1.003224	-0.127527
H252	H	0.124820	1.004367	-0.128547
H253	H	0.157777	1.089789	-0.160193
H254	H	0.205845	0.957333	-0.148898
C255	C	0.174277	0.994040	0.132699
H256	H	0.119615	1.064620	0.096218
H257	H	0.173134	0.930860	0.180732
H258	H	0.199817	1.024644	0.147551
H259	H	0.299866	0.986710	0.118087
H260	H	0.762626	0.807302	-0.486119
C261	C	0.877237	0.787390	-0.484564
H262	H	0.883479	0.841979	-0.532704
H263	H	0.913484	0.760130	-0.437323
H264	H	0.889915	0.713499	-0.482263
H265	H	0.605170	1.180494	-0.506336
H266	H	0.837175	1.032262	-0.568242
H267	H	0.739821	1.178996	-0.504904
