data_functionalizedCrystal
_audit_creation_method	'MofGen! by Chris Wilmer'
_symmetry_space_group_name_H-M	'P1'
_symmetry_Int_Tables_number	1
_symmetry_cell_setting	triclinic
loop_
_symmetry_equiv_pos_as_xyz
  x,y,z
_cell_length_a	15.944551
_cell_length_b	8.559649
_cell_length_c	14.421503
_cell_angle_alpha	89.996363
_cell_angle_beta	90.002997
_cell_angle_gamma	76.638701
loop_
_atom_site_label
_atom_site_type_symbol
_atom_site_fract_x
_atom_site_fract_y
_atom_site_fract_z
O1	O	-1.101230	-0.206059	-0.077012
O2	O	-0.855041	-0.231466	-0.077034
O3	O	-0.999825	0.013837	-0.077020
O4	O	-0.956446	-0.451362	-0.077026
O5	O	-0.999803	0.013809	0.077203
O6	O	-0.855019	-0.231494	0.077189
O7	O	-1.101208	-0.206087	0.077212
Cu8	Cu	-0.978111	-0.218793	0.091282
Cu9	Cu	-0.978138	-0.218760	-0.091105
O10	O	-0.956424	-0.451390	0.077198
C11	C	-0.823804	-0.230425	0.000075
C12	C	-0.730762	-0.227263	0.000066
C13	C	-1.003101	0.073353	0.000090
C14	C	-1.012887	0.250732	0.000086
C15	C	-1.132445	-0.207128	0.000101
C16	C	-1.225487	-0.210290	0.000104
C17	C	-0.526206	-0.067655	0.000086
C18	C	-0.460414	-0.141758	-0.075955
C19	C	-0.560405	-0.221543	0.000077
C20	C	-0.460411	-0.141822	0.076097
C21	C	-0.395850	-0.216005	0.000092
C22	C	-0.495838	-0.295688	-0.076027
C23	C	-0.495844	-0.295730	0.076093
C24	C	-0.430062	-0.369945	0.000034
C25	C	-0.655202	-0.224728	0.000068
C26	C	-0.301054	-0.212832	0.000094
C27	C	-0.953148	-0.510906	0.000085
C28	C	-0.943362	-0.688285	0.000083
N29	N	-0.978099	-0.218815	0.219564
N30	N	-0.978158	-0.218725	-0.219386
C31	C	-0.911586	-0.333132	0.531010
C32	C	-0.903879	-0.189189	0.469182
C33	C	-0.978138	-0.218752	0.591453
C34	C	-0.985786	-0.362722	0.469187
C35	C	-0.978116	-0.218791	0.408731
C36	C	-0.970398	-0.074737	0.530985
C37	C	-1.052332	-0.248364	0.530995
C38	C	-1.044664	-0.104317	0.469195
C39	C	-0.978148	-0.218732	0.696714
C40	C	-0.978107	-0.218795	0.303472
H41	H	-0.567781	0.060060	-0.000007
Cl42	Cl	-1.149182	-0.287098	0.572953
H43	H	-1.079900	0.334230	0.000100
Cl44	Cl	-0.520226	-0.396085	-0.175392
H45	H	-0.841127	-0.164154	0.442024
H46	H	-0.444518	-0.076716	0.140381
H47	H	-0.855287	-0.429733	0.558152
Cl48	Cl	-0.960283	0.113259	0.572714
Cl49	Cl	-1.131558	0.045151	0.427551
H50	H	-0.388653	-0.497792	-0.000011
Cl51	Cl	-0.995791	-0.550672	0.427275
Cl52	Cl	-0.839902	0.182817	0.000076
Cl53	Cl	-0.435865	-0.041255	-0.175210
H54	H	-0.511769	-0.360777	0.140382
