data_functionalizedCrystal
_audit_creation_method	'MofGen! by Chris Wilmer'
_symmetry_space_group_name_H-M	'P1'
_symmetry_Int_Tables_number	1
_symmetry_cell_setting	triclinic
loop_
_symmetry_equiv_pos_as_xyz
  x,y,z
_cell_length_a	6.817900
_cell_length_b	17.078472
_cell_length_c	14.858340
_cell_angle_alpha	96.032736
_cell_angle_beta	104.519754
_cell_angle_gamma	99.306020
loop_
_atom_site_label
_atom_site_type_symbol
_atom_site_fract_x
_atom_site_fract_y
_atom_site_fract_z
V1	V	-4.017344	-0.110273	-0.289867
V2	V	-3.517344	0.389727	0.210133
O3	O	-4.026477	0.004778	-0.284445
O4	O	-3.526477	0.504778	0.215555
O5	O	-3.948306	-0.218152	-0.287792
O6	O	-3.448306	0.281848	0.212208
O7	O	-3.974244	-0.108805	-0.416329
O8	O	-3.474244	0.391195	0.083671
O9	O	-4.000359	-0.105325	-0.155017
O10	O	-3.500359	0.394675	0.344983
V11	V	-4.502960	-0.096485	-0.273749
V12	V	-4.002960	0.403515	0.226251
O13	O	-4.274012	-0.140519	-0.325222
O14	O	-3.774012	0.359481	0.174778
O15	O	-4.696489	-0.066238	-0.238393
O16	O	-4.196489	0.433762	0.261607
O17	O	-4.348792	0.011395	-0.275824
O18	O	-3.848792	0.511395	0.224176
O19	O	-4.611224	-0.211536	-0.279170
O20	O	-4.111224	0.288464	0.220830
O21	O	-4.637342	-0.101432	-0.408598
O22	O	-4.137342	0.398568	0.091402
O23	O	-4.322854	-0.097952	-0.147286
O24	O	-3.822854	0.402048	0.352714
C25	C	-3.788114	-0.244444	-0.283195
C26	C	-3.288114	0.255556	0.216805
C27	C	-3.812989	-0.332638	-0.282341
C28	C	-3.312989	0.167362	0.217659
C29	C	-3.821200	-0.104960	-0.447157
C30	C	-3.321200	0.395040	0.052843
C31	C	-3.867107	-0.104474	-0.550540
C32	C	-3.367107	0.395526	-0.050540
C33	C	-4.006199	-0.378120	-0.286576
C34	C	-3.506199	0.121880	0.213424
C35	C	-4.029562	-0.460989	-0.285779
C36	C	-3.529562	0.039011	0.214221
C37	C	-3.859711	-0.498372	-0.280742
C38	C	-3.359711	0.001628	0.219258
C39	C	-3.666487	-0.452883	-0.276510
C40	C	-3.166487	0.047117	0.223490
C41	C	-3.643129	-0.370018	-0.277313
C42	C	-3.143129	0.129982	0.222687
C43	C	-3.910106	-0.745771	-0.277849
C44	C	-3.410106	-0.245771	0.222151
C45	C	-3.933478	-0.828642	-0.277043
C46	C	-3.433478	-0.328642	0.222957
C47	C	-4.296553	-0.836742	-0.286314
C48	C	-3.796553	-0.336742	0.213686
C49	C	-4.273175	-0.753874	-0.287111
C50	C	-3.773175	-0.253874	0.212889
C51	C	-4.079958	-0.708393	-0.282884
C52	C	-3.579958	-0.208393	0.217116
N53	N	-3.883586	-0.583076	-0.279925
N54	N	-3.383586	-0.083076	0.220075
N55	N	-4.056088	-0.623691	-0.283708
N56	N	-3.556088	-0.123691	0.216292
C57	C	-3.904387	-0.104078	-0.634499
C58	C	-3.404387	0.395922	-0.134499
C59	C	-3.951172	-0.103578	-0.739829
C60	C	-3.451172	0.396422	-0.239829
C61	C	-3.988477	-0.103179	-0.823781
C62	C	-3.488477	0.396821	-0.323781
C63	C	-4.035266	-0.102681	-0.929117
C64	C	-3.535266	0.397319	-0.429117
C65	C	-4.172324	0.037682	-0.280418
C66	C	-3.672324	0.537682	0.219582
C67	C	-4.126687	0.125875	-0.281277
C68	C	-3.626687	0.625875	0.218723
C69	C	-4.139239	-0.101800	-0.116454
C70	C	-3.639239	0.398200	0.383546
C71	C	-4.072571	-0.102283	-0.013069
C72	C	-3.572571	0.397717	0.486931
H73	H	-4.186891	-0.498018	-0.289229
H74	H	-3.686891	0.001982	0.210771
H75	H	-3.752777	-0.708749	-0.274401
H76	H	-3.252777	-0.208749	0.225599
H77	H	-3.528195	-0.483328	-0.272414
H78	H	-3.028195	0.016672	0.227586
H79	H	-4.144511	-0.347688	-0.290669
H80	H	-3.644511	0.152312	0.209331
N81	N	-4.446727	-0.715716	-0.292278
N82	N	-3.946727	-0.215716	0.207722
N83	N	-4.602929	-0.736575	-0.361149
N84	N	-4.102929	-0.236575	0.138851
H85	H	-4.725512	-0.709631	-0.364799
H86	H	-4.225512	-0.209631	0.135201
N87	N	-3.445748	-0.323563	-0.272970
N88	N	-2.945748	0.176437	0.227030
N89	N	-3.294758	-0.321229	-0.203922
N90	N	-2.794758	0.178771	0.296078
H91	H	-3.155351	-0.288422	-0.200855
H92	H	-2.655351	0.211578	0.299145
N93	N	-4.493928	-0.883186	-0.290635
N94	N	-3.993928	-0.383186	0.209365
N95	N	-4.580826	-0.867765	-0.227984
N96	N	-4.080826	-0.367765	0.272016
H97	H	-4.720235	-0.900565	-0.231039
H98	H	-4.220235	-0.400565	0.268961
H99	H	-3.795164	-0.859079	-0.272963
H100	H	-3.295164	-0.359079	0.227037
