data_functionalizedCrystal
_audit_creation_method	'MofGen! by Chris Wilmer'
_symmetry_space_group_name_H-M	'P1'
_symmetry_Int_Tables_number	1
_symmetry_cell_setting	triclinic
loop_
_symmetry_equiv_pos_as_xyz
  x,y,z
_cell_length_a	14.971486
_cell_length_b	14.971487
_cell_length_c	13.448316
_cell_angle_alpha	90.000586
_cell_angle_beta	89.993189
_cell_angle_gamma	96.385734
loop_
_atom_site_label
_atom_site_type_symbol
_atom_site_fract_x
_atom_site_fract_y
_atom_site_fract_z
O1	O	0.116568	-1.186947	-0.082550
O2	O	0.616568	-0.686947	0.417450
O3	O	0.130526	-0.926547	-0.082583
O4	O	0.630526	-0.426547	0.417417
O5	O	-0.006653	-1.063726	-0.082559
O6	O	0.493347	-0.563726	0.417441
O7	O	0.253747	-1.049768	-0.082575
O8	O	0.753747	-0.549768	0.417425
O9	O	-0.006662	-1.063709	0.082825
O10	O	0.493338	-0.563709	0.582825
O11	O	0.130517	-0.926530	0.082801
O12	O	0.630517	-0.426530	0.582801
O13	O	0.116559	-1.186930	0.082834
O14	O	0.616559	-0.686930	0.582834
Cu15	Cu	0.123537	-1.056728	0.097918
Cu16	Cu	0.623537	-0.556728	0.597918
Cu17	Cu	0.123547	-1.056749	-0.097667
Cu18	Cu	0.623547	-0.556749	0.402333
O19	O	0.253738	-1.049750	0.082809
O20	O	0.753738	-0.549750	0.582809
C21	C	0.129897	-0.893214	0.000104
C22	C	0.629897	-0.393214	0.500104
C23	C	0.128026	-0.793917	0.000092
C24	C	0.628026	-0.293917	0.500092
C25	C	0.208615	-0.736691	0.000087
C26	C	0.708615	-0.236691	0.500087
C27	C	0.206852	-0.643392	0.000100
C28	C	0.706852	-0.143392	0.500100
C29	C	0.124499	-0.607320	0.000110
C30	C	0.624499	-0.107320	0.500110
C31	C	0.043903	-0.664552	0.000118
C32	C	0.543903	-0.164552	0.500118
C33	C	0.045668	-0.757850	0.000112
C34	C	0.545668	-0.257850	0.500112
C35	C	0.040232	-0.470090	0.000127
C36	C	0.540232	0.029910	0.500127
C37	C	0.038467	-0.376786	0.000131
C38	C	0.538467	0.123214	0.500131
C39	C	0.201416	-0.355632	0.000115
C40	C	0.701416	0.144368	0.500115
C41	C	0.203181	-0.448929	0.000109
C42	C	0.703181	0.051071	0.500109
C43	C	0.122585	-0.506156	0.000115
C44	C	0.622585	-0.006156	0.500115
C45	C	-0.039982	-1.063094	0.000133
C46	C	0.460018	-0.563094	0.500133
C47	C	-0.139279	-1.061223	0.000132
C48	C	0.360721	-0.561223	0.500132
C49	C	-0.196504	-1.141812	0.000143
C50	C	0.303496	-0.641812	0.500143
C51	C	-0.289804	-1.140049	0.000133
C52	C	0.210196	-0.640049	0.500133
C53	C	-0.325876	-1.057696	0.000118
C54	C	0.174124	-0.557696	0.500118
C55	C	-0.268644	-0.977100	0.000104
C56	C	0.231356	-0.477100	0.500104
C57	C	-0.175346	-0.978864	0.000108
C58	C	0.324654	-0.478864	0.500108
C59	C	-0.463107	-0.973429	0.000100
C60	C	0.036893	-0.473429	0.500100
C61	C	-0.556411	-0.971665	0.000099
C62	C	-0.056411	-0.471665	0.500099
C63	C	-0.577564	-1.134614	0.000125
C64	C	-0.077564	-0.634614	0.500125
C65	C	-0.484266	-1.136378	0.000128
C66	C	0.015734	-0.636378	0.500128
C67	C	-0.427040	-1.055782	0.000116
C68	C	0.072960	-0.555782	0.500116
C69	C	0.287067	-1.050383	0.000116
C70	C	0.787067	-0.550383	0.500116
C71	C	0.386364	-1.052254	0.000110
C72	C	0.886364	-0.552254	0.500110
N73	N	0.123530	-1.056720	0.235482
N74	N	0.623530	-0.556720	0.735482
C75	C	0.117187	-0.220263	0.000138
C76	C	0.617187	0.279737	0.500138
C77	C	0.119056	-0.319560	0.000126
C78	C	0.619056	0.180440	0.500126
N79	N	0.123548	-1.056763	-0.235232
N80	N	0.623548	-0.556763	0.264768
C81	C	0.062812	-1.117482	0.287534
C82	C	0.562812	-0.617482	0.787534
C83	C	0.062811	-1.117488	0.391637
C84	C	0.562811	-0.617488	0.891637
C85	C	0.123533	-1.056735	0.443687
C86	C	0.623533	-0.556735	0.943687
C87	C	0.184254	-0.995967	0.391628
C88	C	0.684254	-0.495967	0.891628
C89	C	0.184250	-0.995957	0.287527
C90	C	0.684250	-0.495957	0.787527
C91	C	0.184260	-0.995992	0.608608
C92	C	0.684260	-0.495992	1.108608
C93	C	0.184266	-0.996002	0.712717
C94	C	0.684266	-0.496002	1.212717
C95	C	0.062822	-1.117522	0.712718
C96	C	0.562822	-0.617522	1.212718
C97	C	0.062817	-1.117513	0.608617
C98	C	0.562817	-0.617513	1.108617
C99	C	0.123539	-1.056745	0.556566
C100	C	0.623539	-0.556745	1.056566
H101	H	-0.028592	-0.347419	0.000141
H102	H	0.471408	0.152581	0.500141
Cl103	Cl	0.306712	-0.494276	0.000085
Cl104	Cl	0.806712	0.005724	0.500085
H105	H	-0.336394	-1.205673	0.000144
H106	H	0.163606	-0.705673	0.500144
Cl107	Cl	-0.013522	-1.193875	0.457075
Cl108	Cl	0.486478	-0.693875	0.957075
Cl109	Cl	-0.391166	-0.872107	0.000085
Cl110	Cl	0.108834	-0.372107	0.500085
Cl111	Cl	-0.438919	-1.239909	0.000141
Cl112	Cl	0.061081	-0.739909	0.500141
H113	H	-0.019956	-0.804443	0.000116
H114	H	0.480044	-0.304443	0.500116
Cl115	Cl	-0.013525	-1.193866	0.222110
Cl116	Cl	0.486475	-0.693866	0.722110
H117	H	0.233692	-0.946496	0.434014
H118	H	0.733692	-0.446496	0.934014
Cl119	Cl	0.260582	-0.919564	0.222092
Cl120	Cl	0.760582	-0.419564	0.722092
H121	H	-0.167142	-1.208873	0.000160
H122	H	0.332858	-0.708873	0.500160
H123	H	0.013380	-1.167000	0.755105
H124	H	0.513380	-0.667000	1.255105
Cl125	Cl	-0.649505	-1.235934	0.000135
Cl126	Cl	-0.149505	-0.735934	0.500135
Cl127	Cl	0.260604	-0.919621	0.778144
Cl128	Cl	0.760604	-0.419621	1.278144
H129	H	-0.585777	-0.904606	0.000104
H130	H	-0.085777	-0.404606	0.500104
Cl131	Cl	-0.103405	-0.877548	0.000090
Cl132	Cl	0.396595	-0.377548	0.500090
H133	H	0.275677	-0.766053	0.000078
H134	H	0.775677	-0.266053	0.500078
Cl135	Cl	-0.061090	-0.542030	0.000137
Cl136	Cl	0.438910	-0.042030	0.500137
H137	H	0.267040	-0.309033	0.000114
H138	H	0.767040	0.190967	0.500114
H139	H	-0.023150	-0.635175	0.000141
H140	H	0.476850	-0.135175	0.500141
Cl141	Cl	-0.013514	-1.193893	0.543181
Cl142	Cl	0.486486	-0.693893	1.043181
Cl143	Cl	0.260597	-0.919594	0.543177
Cl144	Cl	0.760597	-0.419594	1.043177
H145	H	0.272476	-0.596802	0.000095
H146	H	0.772476	-0.096802	0.500095
H147	H	-0.298021	-0.910047	0.000087
H148	H	0.201979	-0.410047	0.500087
