data_functionalizedCrystal
_audit_creation_method	'MofGen! by Chris Wilmer'
_symmetry_space_group_name_H-M	'P1'
_symmetry_Int_Tables_number	1
_symmetry_cell_setting	triclinic
loop_
_symmetry_equiv_pos_as_xyz
  x,y,z
_cell_length_a	15.944557
_cell_length_b	10.723023
_cell_length_c	9.198806
_cell_angle_alpha	89.997562
_cell_angle_beta	90.002110
_cell_angle_gamma	96.015542
loop_
_atom_site_label
_atom_site_type_symbol
_atom_site_fract_x
_atom_site_fract_y
_atom_site_fract_z
O1	O	-1.115441	0.160971	-0.120827
O2	O	-0.871006	0.180804	-0.120843
O3	O	-0.998862	-0.010760	-0.120828
O4	O	-0.987585	0.352534	-0.120841
O5	O	-0.998852	-0.010762	0.120957
O6	O	-0.870996	0.180802	0.120942
O7	O	-1.115431	0.160969	0.120958
Cu8	Cu	-0.993213	0.170886	0.143027
Cu9	Cu	-0.993225	0.170887	-0.142912
O10	O	-0.987575	0.352533	0.120944
C11	C	-0.839702	0.179978	0.000048
C12	C	-0.746442	0.177506	0.000041
C13	C	-0.998037	-0.057250	0.000062
C14	C	-0.995582	-0.195773	0.000058
C15	C	-0.475090	0.051372	0.000069
C16	C	-0.526014	0.112177	0.119282
C17	C	-0.410750	0.168687	0.000076
C18	C	-0.526005	0.112210	-0.119100
C19	C	-0.575687	0.173014	0.000057
C20	C	-0.460446	0.229461	0.119387
C21	C	-0.460433	0.229477	-0.119101
C22	C	-0.511325	0.290368	0.000141
C23	C	-0.315734	0.166192	0.000089
C24	C	-0.670701	0.175519	0.000055
C25	C	-0.146736	0.161778	0.000072
C26	C	-0.240000	0.164200	0.000090
C27	C	-0.991945	-0.400702	0.125299
C28	C	-0.994482	-0.257531	0.125307
C29	C	-0.988401	0.399023	0.000050
C30	C	-0.990856	0.537546	0.000045
N31	N	-0.993210	0.170884	0.344141
N32	N	-0.993234	0.170879	-0.344026
C33	C	-1.042188	0.242628	0.416340
C34	C	-1.042201	0.242626	0.583752
H35	H	-0.458858	-0.049666	0.000189
Cl36	Cl	-0.928484	0.076046	0.560131
H37	H	-0.431775	0.278979	-0.219893
H38	H	-0.951291	0.109456	0.406269
H39	H	-0.431916	0.278969	0.220282
H40	H	-0.990994	-0.453828	0.232528
H41	H	-0.554657	0.062632	0.220070
Cl42	Cl	-0.995935	-0.175550	0.290878
H43	H	-0.994649	-0.248871	-0.107182
H44	H	-0.991795	-0.409326	-0.107183
H45	H	-1.084113	0.304046	0.354212
Cl46	Cl	-1.106938	0.337471	0.679605
H47	H	-0.554642	0.062646	-0.219880
Cl48	Cl	-0.536137	0.446483	0.000232
