data_functionalizedCrystal
_audit_creation_method	'MofGen! by Chris Wilmer'
_symmetry_space_group_name_H-M	'P1'
_symmetry_Int_Tables_number	1
_symmetry_cell_setting	triclinic
loop_
_symmetry_equiv_pos_as_xyz
  x,y,z
_cell_length_a	14.971486
_cell_length_b	13.448316
_cell_length_c	14.971506
_cell_angle_alpha	90.005023
_cell_angle_beta	83.618258
_cell_angle_gamma	90.001801
loop_
_atom_site_label
_atom_site_type_symbol
_atom_site_fract_x
_atom_site_fract_y
_atom_site_fract_z
O1	O	1.186956	0.082574	0.116564
O2	O	0.926557	0.082601	0.130522
O3	O	1.063726	0.082584	-0.006656
O4	O	1.049786	0.082591	0.253742
O5	O	1.063709	-0.082800	-0.006664
O6	O	0.926539	-0.082783	0.130514
O7	O	1.186939	-0.082810	0.116555
Cu8	Cu	1.056737	-0.097897	0.123534
Cu9	Cu	1.056758	0.097688	0.123544
O10	O	1.049769	-0.082793	0.253733
C11	C	0.893223	-0.000088	0.129894
C12	C	0.793926	-0.000078	0.128023
C13	C	0.736707	-0.000077	0.208612
C14	C	0.643407	-0.000092	0.206849
C15	C	0.607329	-0.000100	0.124496
C16	C	0.664556	-0.000104	0.043901
C17	C	0.757853	-0.000096	0.045665
C18	C	0.470093	-0.000118	0.040230
C19	C	0.376789	-0.000124	0.038466
C20	C	0.355647	-0.000113	0.201414
C21	C	0.448944	-0.000106	0.203178
C22	C	0.506165	-0.000107	0.122582
N23	N	1.056730	-0.235462	0.123526
C24	C	1.117487	-0.287509	0.062809
C25	C	1.117493	-0.391613	0.062808
C26	C	1.056744	-0.443666	0.123530
C27	C	0.995980	-0.391611	0.184250
C28	C	0.995971	-0.287510	0.184246
C29	C	0.996005	-0.608591	0.184256
C30	C	0.996015	-0.712700	0.184262
C31	C	1.117527	-0.712694	0.062818
C32	C	1.117518	-0.608593	0.062814
C33	C	1.056754	-0.556545	0.123536
C34	C	1.220272	-0.000119	0.117184
C35	C	1.319569	-0.000123	0.119054
C36	C	1.063091	-0.000106	-0.039984
C37	C	1.061213	-0.000102	-0.139281
N38	N	1.056773	0.235252	0.123544
C39	C	1.134631	-0.000110	-0.577563
C40	C	1.136389	-0.000117	-0.484263
C41	C	1.055796	-0.000105	-0.427043
C42	C	0.973441	-0.000097	-0.463127
C43	C	0.971685	-0.000097	-0.556426
C44	C	0.977108	-0.000093	-0.268664
C45	C	0.978864	-0.000091	-0.175359
C46	C	1.141812	-0.000113	-0.196501
C47	C	1.140055	-0.000113	-0.289800
C48	C	1.057700	-0.000103	-0.325878
C49	C	1.050404	-0.000101	0.287062
C50	C	1.052282	-0.000099	0.386358
H51	H	0.309053	-0.000116	0.267037
H52	H	1.200259	-0.000111	-0.624146
C53	C	0.533034	-0.000116	-0.048429
N54	N	0.580441	-0.000108	-0.115206
H55	H	0.347417	-0.000132	-0.028593
C56	C	0.488628	-0.000100	0.293769
N57	N	0.518518	-0.000102	0.362005
C58	C	1.226979	-0.000129	-0.444581
N59	N	1.295215	-0.000139	-0.414694
C60	C	0.929153	-0.551341	0.251044
N61	N	0.878800	-0.508220	0.301348
H62	H	0.635173	-0.000125	-0.023152
H63	H	0.904628	-0.000096	-0.585799
H64	H	1.166988	-0.566211	0.013374
C65	C	1.184364	-0.769949	-0.003980
N66	N	1.234705	-0.813077	-0.054289
H67	H	1.208869	-0.000029	-0.167123
H68	H	0.946513	-0.433999	0.233688
H69	H	0.804441	-0.000096	-0.019958
H70	H	0.946547	-0.755077	0.233707
C71	C	1.184316	-0.230260	-0.003992
N72	N	1.234651	-0.187143	-0.054311
C73	C	0.929140	-0.230258	0.251047
N74	N	0.878801	-0.187137	0.301364
H75	H	1.166965	-0.433989	0.013367
H76	H	1.205681	-0.000116	-0.336387
C77	C	0.886512	-0.000078	-0.308347
N78	N	0.818277	-0.000061	-0.338237
H79	H	0.766074	-0.000069	0.275673
H80	H	0.907821	-0.000093	-0.416531
H81	H	0.596822	-0.000090	0.272472
H82	H	0.913239	-0.000087	-0.128772
