data_functionalizedCrystal
_audit_creation_method	'MofGen! by Chris Wilmer'
_symmetry_space_group_name_H-M	'P1'
_symmetry_Int_Tables_number	1
_symmetry_cell_setting	triclinic
loop_
_symmetry_equiv_pos_as_xyz
  x,y,z
_cell_length_a	15.995350
_cell_length_b	15.995350
_cell_length_c	14.472310
_cell_angle_alpha	90.009379
_cell_angle_beta	90.001162
_cell_angle_gamma	96.507625
loop_
_atom_site_label
_atom_site_type_symbol
_atom_site_fract_x
_atom_site_fract_y
_atom_site_fract_z
O1	O	0.107921	-1.110997	-0.076758
O2	O	0.121248	-0.867221	-0.076776
O3	O	-0.007303	-0.995773	-0.076766
O4	O	0.236472	-0.982445	-0.076769
O5	O	-0.007296	-0.995740	0.076916
O6	O	0.121256	-0.867188	0.076906
O7	O	0.107928	-1.110963	0.076924
Cu8	Cu	0.114593	-0.989073	0.090947
Cu9	Cu	0.114584	-0.989112	-0.090800
O10	O	0.236480	-0.982412	0.076913
C11	C	0.120701	-0.836010	0.000062
C12	C	0.119049	-0.743060	0.000055
C13	C	-0.038494	-0.995205	0.000073
C14	C	-0.131444	-0.993553	0.000068
C15	C	0.108476	-1.142175	0.000083
C16	C	0.110127	-1.235125	0.000084
C17	C	-0.469192	-0.987621	0.000071
C18	C	-0.421758	-0.896069	-0.000281
C19	C	-0.325068	-0.897721	0.000066
C20	C	-0.301631	-0.990564	0.000069
C21	C	-0.342705	-1.035701	0.087831
C22	C	-0.439340	-1.033401	0.087904
C23	C	-0.439707	-1.035330	-0.086861
C24	C	-0.342762	-1.035309	-0.088021
C25	C	-0.206934	-0.992231	0.000071
C26	C	-0.563890	-0.985956	0.000075
C27	C	0.267671	-0.982980	0.000072
C28	C	0.360621	-0.984631	0.000071
N29	N	0.114598	-0.989051	0.218778
C30	C	0.113117	-0.405312	0.000074
C31	C	0.021565	-0.452746	0.000418
C32	C	0.023217	-0.549436	0.000065
C33	C	0.116060	-0.572873	0.000065
C34	C	0.161212	-0.531804	-0.087692
C35	C	0.158912	-0.435169	-0.087759
C36	C	0.160812	-0.434792	0.087007
C37	C	0.160790	-0.531737	0.088160
C38	C	0.117727	-0.667570	0.000057
C39	C	0.111452	-0.310614	0.000076
N40	N	0.114572	-0.989140	-0.218631
C41	C	0.114581	-0.989111	0.592869
C42	C	0.183135	-0.920095	0.553698
C43	C	0.183385	-0.920254	0.446610
C44	C	0.114590	-0.989081	0.407278
C45	C	0.133671	-1.076445	0.446122
C46	C	0.134159	-1.076057	0.553243
C47	C	0.026741	-0.971542	0.553398
C48	C	0.027327	-0.969538	0.446270
C49	C	0.114593	-0.989069	0.302390
C50	C	0.114579	-0.989128	0.697757
H51	H	-0.296649	-0.862239	-0.062846
H52	H	-0.471468	-1.102831	-0.087449
H53	H	-0.327400	-1.103014	-0.093317
C54	C	-0.467451	-0.994912	-0.176722
H55	H	-0.497278	-0.948557	-0.162060
H56	H	-0.502927	-1.035317	-0.210988
H57	H	-0.419254	-0.975906	-0.212547
H58	H	-0.014865	-0.433166	-0.062168
H59	H	-0.026079	-1.016541	0.419500
C60	C	-0.304375	-0.993308	0.176057
H61	H	-0.263351	-0.948108	0.159596
H62	H	-0.278634	-1.033287	0.211568
H63	H	-0.347498	-0.972355	0.211427
C64	C	-0.446804	-0.846645	-0.085292
H65	H	-0.486417	-0.881396	-0.121331
H66	H	-0.398230	-0.829814	-0.121433
H67	H	-0.471238	-0.798234	-0.065552
H68	H	-0.441349	-0.859626	0.062299
C69	C	0.120385	-0.407042	0.176870
H70	H	0.150107	-0.425457	0.228484
H71	H	0.063349	-0.431105	0.179564
H72	H	0.122766	-0.347435	0.178002
H73	H	0.229421	-0.545930	-0.090955
H74	H	-0.457639	-1.000459	0.153505
H75	H	-0.012275	-0.577852	0.062973
C76	C	0.007761	-0.882720	0.411981
H77	H	0.052577	-0.858480	0.374055
H78	H	0.001592	-0.847103	0.463479
H79	H	-0.042954	-0.889020	0.377234
C80	C	-0.025047	-0.587097	-0.085070
H81	H	-0.024206	-0.646388	-0.085574
H82	H	0.000922	-0.563617	-0.139654
H83	H	-0.081640	-0.574529	-0.082498
C84	C	-0.042180	-1.039524	0.587623
H85	H	-0.017589	-1.078430	0.625782
H86	H	-0.068619	-1.068308	0.536109
H87	H	-0.082841	-1.013773	0.622114
H88	H	-0.015027	-0.434210	0.063352
C89	C	-0.287416	-0.849442	0.085197
H90	H	-0.331224	-0.828748	0.119708
H91	H	-0.248446	-0.803624	0.065631
H92	H	-0.259362	-0.886179	0.122788
C93	C	0.118837	-0.570144	-0.175922
H94	H	0.073635	-0.611167	-0.159467
H95	H	0.158825	-0.595886	-0.211430
H96	H	0.097889	-0.527026	-0.211295
H97	H	0.171953	-0.854945	0.579481
C98	C	-0.482909	-1.124198	0.093304
H99	H	-0.441525	-1.162324	0.095451
H100	H	-0.517429	-1.135760	0.040388
H101	H	-0.516639	-1.130526	0.147426
H102	H	0.198219	-1.091540	0.578220
H103	H	0.228494	-0.547101	0.093461
H104	H	-0.328579	-1.103909	0.091097
H105	H	0.125979	-0.416874	-0.153359
C106	C	0.001964	-0.887334	0.589920
H107	H	-0.051223	-0.877936	0.565274
H108	H	0.043096	-0.842907	0.571581
H109	H	-0.001276	-0.889213	0.655445
H110	H	-0.315516	-1.002307	-0.152945
H111	H	0.247952	-0.931159	0.580608
C112	C	0.249708	-0.391597	-0.093147
H113	H	0.248919	-0.332297	-0.093219
H114	H	0.275505	-0.408198	-0.148287
H115	H	0.280710	-0.407407	-0.041248
H116	H	0.197002	-1.092297	0.419285
H117	H	0.228313	-0.403031	0.087600
H118	H	0.127830	-0.559040	0.153082
H119	H	0.172016	-0.855314	0.420349
C120	C	0.271440	-0.935414	0.411974
H121	H	0.307196	-0.941508	0.463372
H122	H	0.294188	-0.888916	0.375542
H123	H	0.267260	-0.985189	0.375650
C124	C	0.069272	-1.147514	0.588252
H125	H	0.042737	-1.176656	0.537003
H126	H	0.028127	-1.124492	0.624732
H127	H	0.096931	-1.185490	0.624604
H128	H	0.085068	-1.129029	0.420643
