data_functionalizedCrystal
_audit_creation_method	'MofGen! by Chris Wilmer'
_symmetry_space_group_name_H-M	'P1'
_symmetry_Int_Tables_number	1
_symmetry_cell_setting	triclinic
loop_
_symmetry_equiv_pos_as_xyz
  x,y,z
_cell_length_a	12.594517
_cell_length_b	12.594516
_cell_length_c	18.101390
_cell_angle_alpha	89.971310
_cell_angle_beta	89.980332
_cell_angle_gamma	90.011616
loop_
_atom_site_label
_atom_site_type_symbol
_atom_site_fract_x
_atom_site_fract_y
_atom_site_fract_z
Zn1	Zn	1.627281	-0.423707	-0.418761
Zn2	Zn	1.627190	-0.601720	-0.294929
Zn3	Zn	1.449290	-0.423755	-0.294933
Zn4	Zn	1.449280	-0.601643	-0.418729
O5	O	1.538260	-0.512706	-0.356838
O6	O	1.776215	-0.447333	-0.402347
O7	O	1.603557	-0.578165	-0.191297
O8	O	1.472943	-0.274803	-0.311375
O9	O	1.776148	-0.578118	-0.311368
O10	O	1.603712	-0.274768	-0.402351
O11	O	1.472855	-0.447415	-0.191300
O12	O	1.300343	-0.447341	-0.311343
O13	O	1.472926	-0.577988	-0.522366
O14	O	1.300336	-0.578034	-0.402295
O15	O	1.603703	-0.447259	-0.522390
O16	O	1.603548	-0.750656	-0.311336
O17	O	1.472838	-0.750599	-0.402291
C18	C	1.261719	-0.512685	-0.356816
C19	C	1.143414	-0.512702	-0.356825
C20	C	1.074134	-0.441520	-0.307450
C21	C	1.003331	-0.538609	-0.289235
C22	C	1.003418	-0.415660	-0.375052
C23	C	1.074169	-0.609842	-0.338574
C24	C	1.074262	-0.486827	-0.424423
C25	C	1.003491	-0.583983	-0.406233
C26	C	1.538211	-0.789247	-0.356825
C27	C	1.538287	-0.907553	-0.356845
C28	C	1.609463	-0.976798	-0.307427
C29	C	1.635471	-1.047493	-0.375021
C30	C	1.512413	-1.047656	-0.289293
C31	C	1.564345	-0.976690	-0.424474
C32	C	1.441242	-0.976847	-0.338701
C33	C	1.467212	-1.047510	-0.406342
C34	C	1.815881	-0.512729	-0.356860
C35	C	1.934186	-0.512738	-0.356870
C36	C	1.538323	-0.512609	-0.550000
C37	C	1.538350	-0.512568	-0.632314
C38	C	1.538339	-0.235086	-0.356867
C39	C	1.538372	-0.116780	-0.356880
C40	C	1.538408	-0.512501	-0.931405
C41	C	1.620960	-0.430540	-0.900095
C42	C	1.620702	-0.430236	-0.814477
C43	C	1.538380	-0.512534	-0.783023
C44	C	1.426241	-0.482060	-0.814095
C45	C	1.426735	-0.481445	-0.899740
C46	C	1.567008	-0.625149	-0.899823
C47	C	1.569468	-0.624574	-0.814173
C48	C	1.538358	-0.512555	-0.699163
C49	C	1.538423	-0.512478	-1.015265
C50	C	1.538258	-0.512726	-0.164428
C51	C	1.538438	-0.512468	-0.082114
H52	H	1.105443	-0.464889	-0.481552
Cl53	Cl	1.702402	-0.928854	-0.242962
H54	H	1.105152	-0.381383	-0.265645
Cl55	Cl	1.374339	-1.095152	-0.470958
H56	H	1.704384	-0.449388	-0.920699
Cl57	Cl	1.328695	-0.571394	-0.782645
Cl58	Cl	1.328526	-0.569584	-0.931719
H59	H	0.972284	-0.333589	-0.390425
Cl60	Cl	1.762239	-1.095385	-0.398759
Cl61	Cl	1.314507	-0.928900	-0.314949
H62	H	1.401560	-0.400630	-0.792652
Cl63	Cl	1.691097	-0.667945	-0.933182
Cl64	Cl	1.474176	-0.719433	-0.931080
Cl65	Cl	0.955226	-0.572435	-0.201007
H66	H	1.513717	-0.688923	-0.792759
H67	H	1.601768	-0.346784	-0.794000
H68	H	1.105117	-0.691948	-0.323113
Cl69	Cl	1.598351	-0.928774	-0.512720
Cl70	Cl	1.478568	-1.095784	-0.201072
H71	H	1.703855	-0.449320	-0.793470
H72	H	1.602266	-0.347554	-0.921629
Cl73	Cl	1.389261	-0.354328	-0.930601
H74	H	1.651993	-0.647554	-0.793865
H75	H	0.972668	-0.644264	-0.448007
