data_functionalizedCrystal
_audit_creation_method	'MofGen! by Chris Wilmer'
_symmetry_space_group_name_H-M	'P1'
_symmetry_Int_Tables_number	1
_symmetry_cell_setting	triclinic
loop_
_symmetry_equiv_pos_as_xyz
  x,y,z
_cell_length_a	15.995343
_cell_length_b	15.995350
_cell_length_c	9.130313
_cell_angle_alpha	89.997713
_cell_angle_beta	90.000797
_cell_angle_gamma	83.490779
loop_
_atom_site_label
_atom_site_type_symbol
_atom_site_fract_x
_atom_site_fract_y
_atom_site_fract_z
O1	O	1.110988	0.107895	-0.121645
O2	O	0.867212	0.121230	-0.121679
O3	O	0.995764	-0.007325	-0.121660
O4	O	0.982437	0.236450	-0.121664
O5	O	0.995755	-0.007329	0.121939
O6	O	0.867204	0.121226	0.121920
O7	O	1.110980	0.107892	0.121954
Cu8	Cu	0.989091	0.114558	0.144179
Cu9	Cu	0.989101	0.114563	-0.143905
O10	O	0.982428	0.236447	0.121934
C11	C	0.836013	0.120678	0.000116
C12	C	0.743062	0.119028	0.000102
C13	C	0.572876	0.116035	0.000122
C14	C	0.549530	0.023238	0.000123
C15	C	0.452852	0.021492	0.000685
C16	C	0.405316	0.113086	0.000140
C17	C	0.434403	0.159744	0.138969
C18	C	0.531195	0.160845	0.139077
C19	C	0.531116	0.162208	-0.137950
C20	C	0.434621	0.158782	-0.139766
C21	C	0.310618	0.111425	0.000155
C22	C	0.667574	0.117699	0.000117
C23	C	0.995209	-0.038522	0.000137
C24	C	0.993557	-0.131472	0.000128
C25	C	0.987625	-0.469220	0.000132
C26	C	0.896072	-0.421783	-0.000427
C27	C	0.897725	-0.325093	0.000122
C28	C	0.990567	-0.301659	0.000129
C29	C	1.035719	-0.342740	0.139240
C30	C	1.033419	-0.439376	0.139356
C31	C	1.035320	-0.439730	-0.137661
C32	C	1.035299	-0.342784	-0.139499
C33	C	0.992235	-0.206962	0.000133
C34	C	0.985960	-0.563917	0.000139
C35	C	1.142179	0.108444	0.000156
C36	C	1.235130	0.110093	0.000159
C37	C	0.982983	0.267643	0.000135
C38	C	0.984635	0.360594	0.000133
N39	N	0.989090	0.114555	0.346802
N40	N	0.989109	0.114560	-0.346527
C41	C	1.046031	0.057655	0.423462
C42	C	1.046039	0.057655	0.576799
C43	C	0.932161	0.171463	0.576802
C44	C	0.932150	0.171458	0.423467
H45	H	0.416067	0.124804	-0.242474
H46	H	0.557977	0.128907	0.243250
O47	O	0.876917	0.226852	0.349058
C48	C	0.890508	0.309750	0.386531
H49	H	0.957544	0.310201	0.428669
H50	H	0.880868	0.351761	0.285684
H51	H	0.844105	0.334320	0.475538
H52	H	0.545129	0.230512	-0.139290
H53	H	0.433836	-0.015032	-0.098813
H54	H	1.005391	-0.460267	-0.243098
H55	H	1.103004	-0.327424	-0.147893
H56	H	1.092394	0.011319	0.361045
H57	H	1.092406	0.011320	0.639212
H58	H	0.577541	-0.012729	-0.099417
H59	H	0.578511	-0.012147	0.099532
H60	H	0.402556	0.227155	0.143741
O61	O	0.876741	0.226655	0.651216
C62	C	0.793858	0.213005	0.613744
H63	H	0.793453	0.145965	0.571602
H64	H	0.751848	0.222611	0.714592
H65	H	0.769253	0.259399	0.524739
H66	H	0.434412	-0.014863	0.100787
H67	H	0.545768	0.228895	0.145012
H68	H	0.414307	0.127728	0.242679
O69	O	0.564903	0.127160	-0.263392
C70	C	0.626894	0.060349	-0.228251
H71	H	0.614489	0.035932	-0.113897
H72	H	0.624690	0.007413	-0.311273
H73	H	0.691629	0.083675	-0.231167
H74	H	0.401664	0.225615	-0.148580
O75	O	0.998420	-0.308813	0.262784
C76	C	1.057888	-0.270675	0.346151
H77	H	1.110846	-0.254226	0.271686
H78	H	1.026023	-0.210870	0.399270
H79	H	1.084883	-0.316089	0.434911
H80	H	0.862232	-0.296668	-0.099598
H81	H	0.859483	-0.440312	-0.100186
H82	H	0.859639	-0.441378	0.098767
H83	H	1.000487	-0.457678	0.243338
O84	O	0.854985	-0.291933	0.119235
C85	C	0.771018	-0.310648	0.112936
H86	H	0.767353	-0.368410	0.041102
H87	H	0.748286	-0.323880	0.228076
H88	H	0.729518	-0.254789	0.064539
H89	H	1.002287	-0.315533	-0.242410
H90	H	1.100635	-0.471626	0.145673
O91	O	1.117061	-0.325782	0.145245
C92	C	1.134413	-0.276429	0.023376
H93	H	1.073172	-0.241922	-0.020151
H94	H	1.178400	-0.228656	0.057795
H95	H	1.165700	-0.318799	-0.066059
O96	O	1.115810	-0.477724	-0.138598
C97	C	1.129029	-0.530673	-0.015336
H98	H	1.066077	-0.548914	0.024742
H99	H	1.171863	-0.589829	-0.046665
H100	H	1.159836	-0.496096	0.075587
