data_functionalizedCrystal
_audit_creation_method	'MofGen! by Chris Wilmer'
_symmetry_space_group_name_H-M	'P1'
_symmetry_Int_Tables_number	1
_symmetry_cell_setting	triclinic
loop_
_symmetry_equiv_pos_as_xyz
  x,y,z
_cell_length_a	19.288864
_cell_length_b	14.853559
_cell_length_c	18.366186
_cell_angle_alpha	89.995958
_cell_angle_beta	89.977106
_cell_angle_gamma	83.383851
loop_
_atom_site_label
_atom_site_type_symbol
_atom_site_fract_x
_atom_site_fract_y
_atom_site_fract_z
O1	O	0.921730	0.112465	-0.060780
O2	O	1.421730	0.612465	0.439220
O3	O	0.719520	0.127636	-0.060730
O4	O	1.219520	0.627636	0.439270
O5	O	0.826029	-0.011211	-0.060755
O6	O	1.326029	0.488789	0.439245
O7	O	0.815220	0.251311	-0.060754
O8	O	1.315220	0.751311	0.439246
O9	O	0.826011	-0.011217	0.060344
O10	O	1.326011	0.488783	0.560344
O11	O	0.719502	0.127629	0.060370
O12	O	1.219502	0.627629	0.560370
O13	O	0.921712	0.112458	0.060320
O14	O	1.421712	0.612458	0.560320
Zn15	Zn	0.820604	0.120042	0.079572
Zn16	Zn	1.320604	0.620042	0.579572
Zn17	Zn	0.820628	0.120051	-0.079982
Zn18	Zn	1.320628	0.620051	0.420018
O19	O	0.815202	0.251305	0.060345
O20	O	1.315202	0.751305	0.560345
C21	C	0.693633	0.127144	-0.000173
C22	C	1.193633	0.627144	0.499827
C23	C	0.616524	0.125679	-0.000154
C24	C	1.116524	0.625679	0.499846
C25	C	0.572101	0.207148	-0.000165
C26	C	1.072101	0.707148	0.499835
C27	C	0.499649	0.205771	-0.000174
C28	C	0.999649	0.705771	0.499826
C29	C	0.471624	0.122921	-0.000185
C30	C	0.971624	0.622921	0.499815
C31	C	0.516057	0.041441	-0.000170
C32	C	1.016057	0.541441	0.499830
C33	C	0.588507	0.042820	-0.000155
C34	C	1.088507	0.542820	0.499845
C35	C	0.363150	0.057794	-0.042636
C36	C	0.863150	0.557794	0.457364
C37	C	0.290701	0.056418	-0.042656
C38	C	0.790701	0.556418	0.457344
C39	C	0.248164	0.118664	-0.000229
C40	C	0.748164	0.618664	0.499771
C41	C	0.278084	0.182301	0.042208
C42	C	0.778084	0.682301	0.542208
C43	C	0.350534	0.183680	0.042224
C44	C	0.850534	0.683680	0.542224
C45	C	0.393065	0.121416	-0.000201
C46	C	0.893065	0.621416	0.499799
C47	C	0.125180	0.198646	-0.000248
C48	C	0.625180	0.698646	0.499752
C49	C	0.052727	0.197266	-0.000252
C50	C	0.552727	0.697266	0.499748
C51	C	0.069137	0.032934	-0.000255
C52	C	0.569137	0.532934	0.499745
C53	C	0.141588	0.034316	-0.000244
C54	C	0.641588	0.534316	0.499756
C55	C	0.169605	0.117175	-0.000244
C56	C	0.669605	0.617175	0.499756
C57	C	0.825531	-0.044800	-0.000207
C58	C	1.325531	0.455200	0.499793
C59	C	0.824067	-0.144876	-0.000210
C60	C	1.324067	0.355124	0.499790
C61	C	0.817864	-0.568012	-0.066220
C62	C	1.317864	-0.068012	0.433780
C63	C	0.817844	-0.568014	0.065807
C64	C	1.317844	-0.068014	0.565807
C65	C	0.819226	-0.473989	0.065807
C66	C	1.319226	0.026011	0.565807
C67	C	0.819926	-0.426970	-0.000207
C68	C	1.319926	0.073030	0.499793
C69	C	0.819244	-0.473977	-0.066222
C70	C	1.319244	0.026023	0.433778
C71	C	0.819901	-0.426973	0.131821
C72	C	1.319901	0.073027	0.631821
C73	C	0.821282	-0.332942	0.131824
C74	C	1.321282	0.167058	0.631824
C75	C	0.821987	-0.285923	0.065808
C76	C	1.321987	0.214077	0.565808
C77	C	0.821306	-0.332936	-0.000209
C78	C	1.321306	0.167064	0.499791
C79	C	0.822005	-0.285918	-0.066223
C80	C	1.322005	0.214082	0.433777
C81	C	0.821329	-0.332930	-0.132242
C82	C	1.321329	0.167070	0.367758
C83	C	0.819949	-0.426958	-0.132237
C84	C	1.319949	0.073042	0.367763
C85	C	0.823367	-0.191894	0.065804
C86	C	1.323367	0.308106	0.565804
C87	C	0.823385	-0.191883	-0.066225
C88	C	1.323385	0.308117	0.433775
C89	C	0.947599	0.112949	-0.000238
C90	C	1.447599	0.612949	0.499762
C91	C	1.024707	0.114415	-0.000262
C92	C	1.524707	0.614415	0.499738
C93	C	0.815700	0.284894	-0.000205
C94	C	1.315700	0.784894	0.499795
C95	C	0.817164	0.384970	-0.000206
C96	C	1.317164	0.884970	0.499794
N97	N	0.820593	0.120036	0.188463
N98	N	1.320593	0.620036	0.688463
N99	N	0.820644	0.120051	-0.188873
N100	N	1.320644	0.620051	0.311127
C101	C	0.867770	0.058585	0.226552
C102	C	1.367770	0.558585	0.726552
C103	C	0.867775	0.058581	0.302780
C104	C	1.367775	0.558581	0.802780
C105	C	0.820608	0.120043	0.340916
C106	C	1.320608	0.620043	0.840916
C107	C	0.773421	0.181499	0.302818
C108	C	1.273421	0.681499	0.802818
C109	C	0.773414	0.181495	0.226591
C110	C	1.273414	0.681495	0.726591
C111	C	0.811585	0.202187	0.461678
C112	C	1.311585	0.702187	0.961678
C113	C	0.811598	0.202192	0.537903
C114	C	1.311598	0.702192	1.037903
C115	C	0.820628	0.120055	0.576023
C116	C	1.320628	0.620055	1.076023
C117	C	0.829660	0.037909	0.537909
C118	C	1.329660	0.537909	1.037909
C119	C	0.829652	0.037905	0.461683
C120	C	1.329652	0.537905	0.961683
C121	C	0.820611	0.120054	0.423570
C122	C	1.320611	0.620054	0.923570
C123	C	0.867813	0.058594	0.696767
C124	C	1.367813	0.558594	1.196767
C125	C	0.867813	0.058589	0.772996
C126	C	1.367813	0.558589	1.272996
C127	C	0.773462	0.181515	0.773033
C128	C	1.273462	0.681515	1.273033
C129	C	0.773459	0.181512	0.696805
C130	C	1.273459	0.681512	1.196805
C131	C	0.820638	0.120053	0.658677
C132	C	1.320638	0.620053	1.158677
H133	H	0.594907	0.274618	-0.000167
H134	H	1.094907	0.774618	0.499833
Br135	Br	0.709432	0.264917	0.645107
Br136	Br	1.209432	0.764917	1.145107
H137	H	0.266346	0.004605	-0.077214
H138	H	0.766346	0.504605	0.422786
H139	H	0.735056	0.231556	0.804082
H140	H	1.235056	0.731556	1.304082
Br141	Br	0.031111	-0.079508	-0.000259
Br142	Br	0.531111	0.420492	0.499741
Br143	Br	0.201881	-0.076255	-0.000231
Br144	Br	0.701881	0.423745	0.499769
H145	H	0.374892	0.235493	0.076780
H146	H	0.874892	0.735493	0.576780
Br147	Br	0.822280	-0.269108	-0.221829
Br148	Br	1.322280	0.230892	0.278171
H149	H	0.823902	-0.153618	0.119555
H150	H	1.323902	0.346382	0.619555
H151	H	0.821835	-0.294673	0.185580
H152	H	1.321835	0.205327	0.685580
H153	H	0.837005	-0.028981	0.430654
H154	H	1.337005	0.471019	0.930654
H155	H	0.804248	0.269080	0.568929
H156	H	1.304248	0.769080	1.068929
Br157	Br	0.819037	-0.490766	-0.221825
Br158	Br	1.319037	0.009234	0.278175
Br159	Br	0.420872	-0.026693	-0.100219
Br160	Br	0.920872	0.473307	0.399781
H161	H	0.817316	-0.606294	-0.119971
H162	H	1.317316	-0.106294	0.380029
Br163	Br	0.439349	0.316344	-0.000184
Br164	Br	0.939349	0.816344	0.499816
Br165	Br	0.816879	-0.631822	0.155394
Br166	Br	1.316879	-0.131822	0.655394
Br167	Br	0.220364	0.266787	0.099790
Br168	Br	0.720364	0.766787	0.599790
H169	H	0.147993	0.266114	-0.000237
H170	H	0.647993	0.766114	0.499763
H171	H	0.823958	-0.153608	-0.119983
H172	H	1.323958	0.346392	0.380017
H173	H	0.016558	0.263610	-0.000256
H174	H	0.516558	0.763610	0.499744
Br175	Br	0.478025	-0.070999	-0.000178
Br176	Br	0.978025	0.429001	0.499822
H177	H	0.906228	0.008543	0.804009
H178	H	1.406228	0.508543	1.304009
H179	H	0.804220	0.269078	0.430646
H180	H	1.304220	0.769078	0.930646
Br181	Br	0.648800	-0.067753	-0.000138
Br182	Br	1.148800	0.432247	0.499862
Br183	Br	0.818931	-0.490783	0.221406
Br184	Br	1.318931	0.009217	0.721406
H185	H	0.906185	0.008539	0.195510
H186	H	1.406185	0.508539	0.695510
Br187	Br	0.931806	-0.024826	0.354481
Br188	Br	1.431806	0.475174	0.854481
H189	H	0.837013	-0.028976	0.568945
H190	H	1.337013	0.471024	1.068945
Br191	Br	0.931838	-0.024818	0.645020
Br192	Br	1.431838	0.475182	1.145020
H193	H	0.735016	0.231542	0.333872
H194	H	1.235016	0.731542	0.833872
Br195	Br	0.709381	0.264899	0.174894
Br196	Br	1.209381	0.764899	0.674894
