data_functionalizedCrystal
_audit_creation_method	'MofGen! by Chris Wilmer'
_symmetry_space_group_name_H-M	'P1'
_symmetry_Int_Tables_number	1
_symmetry_cell_setting	triclinic
loop_
_symmetry_equiv_pos_as_xyz
  x,y,z
_cell_length_a	18.101398
_cell_length_b	18.101397
_cell_length_c	18.101389
_cell_angle_alpha	90.021047
_cell_angle_beta	90.024802
_cell_angle_gamma	90.018196
loop_
_atom_site_label
_atom_site_type_symbol
_atom_site_fract_x
_atom_site_fract_y
_atom_site_fract_z
Zn1	Zn	1.132176	-0.294952	0.418835
Zn2	Zn	1.632176	0.205048	0.918835
Zn3	Zn	1.132095	-0.418778	0.294987
Zn4	Zn	1.632095	0.081222	0.794987
Zn5	Zn	1.008335	-0.294950	0.294995
Zn6	Zn	1.508335	0.205050	0.794995
Zn7	Zn	1.008308	-0.418751	0.418775
Zn8	Zn	1.508308	0.081249	0.918775
O9	O	1.070228	-0.356858	0.356898
O10	O	1.570228	0.143142	0.856898
O11	O	1.235798	-0.311390	0.402428
O12	O	1.735798	0.188610	0.902428
O13	O	1.115655	-0.402362	0.191355
O14	O	1.615655	0.097638	0.691355
O15	O	1.024807	-0.191317	0.311450
O16	O	1.524807	0.308683	0.811450
O17	O	1.235738	-0.402364	0.311438
O18	O	1.735738	0.097636	0.811438
O19	O	1.115793	-0.191319	0.402435
O20	O	1.615793	0.308681	0.902435
O21	O	1.024729	-0.311386	0.191361
O22	O	1.524729	0.188614	0.691361
O23	O	0.904698	-0.311360	0.311393
O24	O	1.404698	0.188640	0.811393
O25	O	1.024763	-0.402319	0.522416
O26	O	1.524763	0.097681	1.022416
O27	O	0.904679	-0.402317	0.402333
O28	O	1.404679	0.097683	0.902333
O29	O	1.115767	-0.311364	0.522460
O30	O	1.615767	0.188636	1.022460
O31	O	1.115629	-0.522407	0.311380
O32	O	1.615629	-0.022407	0.811380
O33	O	1.024684	-0.522388	0.402326
O34	O	1.524684	-0.022388	0.902326
C35	C	0.877818	-0.356836	0.356858
C36	C	1.377818	0.143164	0.856858
C37	C	0.795504	-0.356844	0.356858
C38	C	1.295504	0.143156	0.856858
C39	C	1.070165	-0.549268	0.356862
C40	C	1.570165	-0.049268	0.856862
C41	C	1.070206	-0.631582	0.356871
C42	C	1.570206	-0.131582	0.856871
C43	C	0.644795	-0.356860	0.356891
C44	C	1.144795	0.143140	0.856891
C45	C	0.613429	-0.299550	0.299769
C46	C	1.113429	0.200450	0.799769
C47	C	0.527811	-0.299335	0.299957
C48	C	1.027811	0.200665	0.799957
C49	C	0.496413	-0.356874	0.356923
C50	C	0.996413	0.143126	0.856923
C51	C	0.527549	-0.336055	0.435059
C52	C	1.027549	0.163945	0.935059
C53	C	0.613194	-0.335631	0.434710
C54	C	1.113194	0.164369	0.934710
C55	C	0.613206	-0.435137	0.336566
C56	C	1.113206	0.064863	0.836566
C57	C	0.527555	-0.434724	0.334864
C58	C	1.027555	0.065276	0.834864
C59	C	0.412553	-0.356884	0.356945
C60	C	0.912553	0.143116	0.856945
C61	C	0.728655	-0.356848	0.356874
C62	C	1.228655	0.143152	0.856874
C63	C	1.070300	-0.930673	0.356939
C64	C	1.570300	-0.430673	0.856939
C65	C	1.127361	-0.899329	0.299565
C66	C	1.627361	-0.399329	0.799565
C67	C	1.127559	-0.813711	0.299714
C68	C	1.627559	-0.313711	0.799714
C69	C	1.070253	-0.782291	0.356905
C70	C	1.570253	-0.282291	0.856905
C71	C	1.091409	-0.813312	0.434968
C72	C	1.591409	-0.313312	0.934968
C73	C	1.091851	-0.898957	0.434655
C74	C	1.591851	-0.398957	0.934655
C75	C	0.991931	-0.899176	0.336926
C76	C	1.491931	-0.399176	0.836926
C77	C	0.992318	-0.813526	0.335184
C78	C	1.492318	-0.313526	0.835184
C79	C	1.070226	-0.698431	0.356890
C80	C	1.570226	-0.198431	0.856890
C81	C	1.070330	-1.014533	0.356959
C82	C	1.570330	-0.514533	0.856959
C83	C	1.263390	-0.356880	0.356939
C84	C	1.763390	0.143120	0.856939
C85	C	1.345704	-0.356890	0.356956
C86	C	1.845704	0.143110	0.856956
C87	C	1.070271	-0.356839	0.550060
C88	C	1.570271	0.143161	1.050060
C89	C	1.070289	-0.356831	0.632374
C90	C	1.570289	0.143169	1.132374
C91	C	1.070312	-0.163696	0.356950
C92	C	1.570312	0.336304	0.856950
C93	C	1.070348	-0.081382	0.356972
C94	C	1.570348	0.418618	0.856972
C95	C	1.070228	-0.356823	0.164487
C96	C	1.570228	0.143177	0.664487
C97	C	1.070354	-0.356622	0.082174
C98	C	1.570354	0.143378	0.582174
C99	C	1.070333	-0.356692	0.931465
C100	C	1.570333	0.143308	1.431465
C101	C	1.012878	-0.413736	0.900112
C102	C	1.512878	0.086264	1.400112
C103	C	1.013033	-0.414001	0.814494
C104	C	1.513033	0.085999	1.314494
C105	C	1.070311	-0.356761	0.783083
C106	C	1.570311	0.143239	1.283083
C107	C	1.148340	-0.377948	0.814188
C108	C	1.648340	0.122052	1.314188
C109	C	1.148020	-0.378323	0.899833
C110	C	1.648020	0.121677	1.399833
C111	C	1.050437	-0.278334	0.899893
C112	C	1.550437	0.221666	1.399893
C113	C	1.048701	-0.278786	0.814242
C114	C	1.548701	0.221214	1.314242
C115	C	1.070303	-0.356799	0.699223
C116	C	1.570303	0.143201	1.199223
C117	C	1.070345	-0.356656	1.015325
C118	C	1.570345	0.143344	1.515325
H119	H	0.633972	-0.312389	0.241649
H120	H	1.133972	0.187611	0.741649
O121	O	1.100100	-0.219501	0.785940
O122	O	1.600100	0.280499	1.285940
H123	H	1.083299	-0.165218	0.808984
H124	H	1.583299	0.334782	1.308984
O125	O	0.936394	-0.396436	0.786620
O126	O	1.436394	0.103564	1.286620
H127	H	0.938297	-0.345570	0.752449
H128	H	1.438297	0.154430	1.252449
O129	O	1.105860	-0.222029	0.926754
O130	O	1.605860	0.277971	1.426754
H131	H	1.147378	-0.249672	0.962417
H132	H	1.647378	0.250328	1.462417
H133	H	1.114323	-0.792739	0.241831
H134	H	1.614323	-0.292739	0.741831
H135	H	1.025884	-0.471464	0.921635
H136	H	1.525884	0.028536	1.421635
H137	H	1.051120	-0.792958	0.478866
H138	H	1.551120	-0.292958	0.978866
O139	O	0.935996	-0.396356	0.927368
O140	O	1.435996	0.103644	1.427368
H141	H	0.937911	-0.346878	0.963557
H142	H	1.437911	0.153122	1.463557
O143	O	1.110133	-0.927268	0.222861
O144	O	1.610133	-0.427268	0.722861
H145	H	1.053816	-0.909248	0.206626
H146	H	1.553816	-0.409248	0.706626
H147	H	0.506756	-0.312322	0.242030
H148	H	1.006756	0.187678	0.742030
H149	H	0.634966	-0.241876	0.313090
H150	H	1.134966	0.258124	0.813090
O151	O	0.966439	-0.927838	0.262825
O152	O	1.466439	-0.427838	0.762825
H153	H	0.963256	-0.989048	0.264608
H154	H	1.463256	-0.489048	0.764608
O155	O	1.203842	-0.927755	0.316904
O156	O	1.703842	-0.427755	0.816904
H157	H	1.201392	-0.964109	0.366208
H158	H	1.701392	-0.464109	0.866208
O159	O	1.166443	-0.784845	0.457805
O160	O	1.666443	-0.284845	0.957805
H161	H	1.188788	-0.748612	0.413689
H162	H	1.688788	-0.248612	0.913689
H163	H	0.976366	-0.793257	0.277736
H164	H	1.476366	-0.293257	0.777736
H165	H	0.507338	-0.241336	0.313451
H166	H	1.007338	0.258664	0.813451
H167	H	1.026170	-0.472083	0.794009
H168	H	1.526170	0.027917	1.294009
H169	H	0.633947	-0.375576	0.478745
H170	H	1.133947	0.124424	0.978745
O171	O	0.639688	-0.259851	0.457452
O172	O	1.139688	0.240149	0.957452
H173	H	0.591329	-0.223852	0.468592
H174	H	1.091329	0.276148	0.968592
H175	H	0.947517	-0.792145	0.373911
H176	H	1.447517	-0.292145	0.873911
O177	O	0.935548	-0.926023	0.392211
O178	O	1.435548	-0.426023	0.892211
H179	H	0.892212	-0.958234	0.363108
H180	H	1.392212	-0.458234	0.863108
H181	H	0.507216	-0.376526	0.478798
H182	H	1.007216	0.123474	0.978798
H183	H	1.052111	-0.919689	0.478877
H184	H	1.552111	-0.419689	0.978877
O185	O	1.167731	-0.925349	0.457105
O186	O	1.667731	-0.425349	0.957105
H187	H	1.163273	-0.959461	0.507850
H188	H	1.663273	-0.459461	1.007850
H189	H	0.634771	-0.454151	0.280540
H190	H	1.134771	0.045849	0.780540
O191	O	0.499175	-0.261112	0.458221
O192	O	0.999175	0.238888	0.958221
H193	H	0.462907	-0.238573	0.414213
H194	H	0.962907	0.261427	0.914213
H195	H	1.185610	-0.793172	0.312956
H196	H	1.685610	-0.293172	0.812956
O197	O	1.206578	-0.324657	0.787233
O198	O	1.706578	0.175343	1.287233
H199	H	1.180463	-0.282405	0.751293
H200	H	1.680463	0.217595	1.251293
O201	O	1.170346	-0.454198	0.926310
O202	O	1.670346	0.045802	1.426310
H203	H	1.181267	-0.490279	0.877942
H204	H	1.681267	0.009721	1.377942
H205	H	0.507201	-0.450428	0.277359
H206	H	1.007201	0.049572	0.777359
H207	H	0.633488	-0.477831	0.378171
H208	H	1.133488	0.022169	0.878171
O209	O	0.972644	-0.257614	0.787298
O210	O	1.472644	0.242386	1.287298
H211	H	0.931872	-0.299162	0.806561
H212	H	1.431872	0.200838	1.306561
O213	O	1.171070	-0.453015	0.785782
O214	O	1.671070	0.046985	1.285782
H215	H	1.226328	-0.467380	0.808152
H216	H	1.726328	0.032620	1.308152
H217	H	0.994526	-0.259031	0.921479
H218	H	1.494526	0.240969	1.421479
O219	O	0.499253	-0.494286	0.385924
O220	O	0.999253	0.005714	0.885924
H221	H	0.462388	-0.469220	0.428012
H222	H	0.962388	0.030780	0.928012
O223	O	1.206656	-0.325693	0.927319
O224	O	1.706656	0.174307	1.427319
H225	H	1.235119	-0.300091	0.879437
H226	H	1.735119	0.199909	1.379437
