data_functionalizedCrystal
_audit_creation_method	'MofGen! by Chris Wilmer'
_symmetry_space_group_name_H-M	'P1'
_symmetry_Int_Tables_number	1
_symmetry_cell_setting	triclinic
loop_
_symmetry_equiv_pos_as_xyz
  x,y,z
_cell_length_a	6.817900
_cell_length_b	12.908906
_cell_length_c	11.102193
_cell_angle_alpha	94.414013
_cell_angle_beta	108.604059
_cell_angle_gamma	100.860157
loop_
_atom_site_label
_atom_site_type_symbol
_atom_site_fract_x
_atom_site_fract_y
_atom_site_fract_z
V1	V	-4.071821	-0.145861	-0.395553
O2	O	-4.072453	0.007001	-0.388748
O3	O	-4.009588	-0.289209	-0.392151
O4	O	-4.049205	-0.143620	-0.568385
O5	O	-4.032562	-0.139596	-0.211293
V6	V	-4.553900	-0.127576	-0.373599
O7	O	-4.336246	-0.185969	-0.443711
O8	O	-4.739673	-0.087468	-0.325440
O9	O	-4.392927	0.015773	-0.377001
O10	O	-4.670666	-0.280438	-0.380404
O11	O	-4.710557	-0.133841	-0.557858
O12	O	-4.353310	-0.129816	-0.200766
C13	C	-3.850389	-0.324155	-0.385731
C14	C	-3.880965	-0.441344	-0.384101
C15	C	-3.741528	-0.601152	-0.375491
C16	C	-3.712786	-0.491041	-0.377021
C17	C	-4.077905	-0.501766	-0.389655
C18	C	-4.106647	-0.611877	-0.388125
C19	C	-3.938450	-0.661565	-0.381041
C20	C	-3.967190	-0.771677	-0.379501
C21	C	-4.332311	-0.782401	-0.392145
C22	C	-4.303568	-0.672291	-0.393675
C23	C	-3.900923	-0.138440	-0.610534
C24	C	-3.963624	-0.137557	-0.751821
C25	C	-4.031409	-0.330639	-0.787216
C26	C	-4.094750	-0.426761	-0.871287
C27	C	-4.153664	-0.425925	-1.004037
C28	C	-4.149240	-0.328957	-1.052717
C29	C	-4.085898	-0.232835	-0.968645
C30	C	-4.026981	-0.233681	-0.835894
C31	C	-4.018129	-0.039756	-0.933251
C32	C	-3.959200	-0.040589	-0.800500
C33	C	-4.013705	0.057212	-0.981931
C34	C	-3.950348	0.153336	-0.897858
C35	C	-3.891430	0.152497	-0.765101
C36	C	-3.895858	0.055533	-0.716429
C37	C	-4.215466	0.050713	-0.383418
C38	C	-4.164130	0.167901	-0.385056
C39	C	-4.164932	-0.135000	-0.158611
C40	C	-4.081470	-0.135878	-0.017323
H41	H	-4.492651	-0.831599	-0.396642
O42	O	-3.945566	0.257915	-0.950356
H43	H	-3.997171	0.242348	-1.056789
H44	H	-3.839866	0.230771	-0.696655
H45	H	-3.830237	-0.812132	-0.373739
H46	H	-3.847876	0.054840	-0.608338
O47	O	-3.967844	-0.331536	-0.644034
H48	H	-3.981567	-0.415108	-0.624308
H49	H	-4.098352	-0.505710	-0.831638
H50	H	-3.604577	-0.641609	-0.369726
H51	H	-3.552438	-0.441857	-0.372505
O52	O	-4.259305	-0.448168	-0.397301
H53	H	-4.206224	-0.361451	-0.397430
H54	H	-4.061694	0.057885	-1.090025
O55	O	-4.221959	-0.529594	-1.094726
H56	H	-4.215122	-0.597162	-1.038580
H57	H	-4.197239	-0.328286	-1.160811
H58	H	-4.440505	-0.631820	-0.399448
