data_functionalizedCrystal
_audit_creation_method	'MofGen! by Chris Wilmer'
_symmetry_space_group_name_H-M	'P1'
_symmetry_Int_Tables_number	1
_symmetry_cell_setting	triclinic
loop_
_symmetry_equiv_pos_as_xyz
  x,y,z
_cell_length_a	21.295419
_cell_length_b	25.639240
_cell_length_c	21.295411
_cell_angle_alpha	90.026709
_cell_angle_beta	90.024539
_cell_angle_gamma	90.047559
loop_
_atom_site_label
_atom_site_type_symbol
_atom_site_fract_x
_atom_site_fract_y
_atom_site_fract_z
Zn1	Zn	0.962346	-0.208004	0.355889
Zn2	Zn	0.962244	-0.295424	0.250605
Zn3	Zn	0.857069	-0.208027	0.250634
Zn4	Zn	0.857034	-0.295433	0.355837
O5	O	0.909673	-0.251722	0.303241
O6	O	1.050422	-0.219587	0.341933
O7	O	0.948264	-0.283836	0.162520
O8	O	0.871091	-0.134859	0.264630
O9	O	1.050347	-0.283814	0.264581
O10	O	0.948438	-0.134842	0.341961
O11	O	0.870993	-0.219626	0.162541
O12	O	0.768975	-0.219635	0.264580
O13	O	0.871032	-0.283829	0.443933
O14	O	0.768949	-0.283851	0.341872
O15	O	0.948404	-0.219596	0.443971
O16	O	0.948231	-0.368590	0.264530
O17	O	0.870933	-0.368597	0.341844
C18	C	0.746122	-0.251747	0.303224
C19	C	0.676153	-0.251770	0.303231
C20	C	0.643348	-0.218382	0.343570
C21	C	0.577606	-0.218368	0.343573
C22	C	0.544671	-0.251751	0.303242
C23	C	0.577484	-0.285142	0.262895
C24	C	0.643225	-0.285152	0.262890
N25	N	0.441393	-0.297498	0.298318
N26	N	0.378942	-0.297487	0.298327
C27	C	0.346596	-0.251724	0.303256
N28	N	0.379061	-0.205972	0.308189
N29	N	0.441518	-0.205983	0.308183
C30	C	0.473386	-0.251745	0.303244
C31	C	0.242505	-0.218318	0.343600
C32	C	0.176762	-0.218303	0.343598
C33	C	0.176641	-0.285082	0.262924
C34	C	0.242384	-0.285092	0.262923
C35	C	0.275312	-0.251711	0.303264
C36	C	0.909584	-0.387564	0.303192
C37	C	0.909604	-0.445678	0.303192
C38	C	0.949967	-0.805994	0.343580
C39	C	0.949986	-0.860599	0.343593
O40	O	0.984199	-0.888795	0.377881
N41	N	0.909761	-0.887961	0.303302
C42	C	0.869509	-0.860716	0.263001
O43	O	0.835296	-0.889004	0.228732
C44	C	0.869488	-0.806113	0.262992
C45	C	0.909721	-0.778753	0.303280
C46	C	0.990196	-0.778635	0.383866
C47	C	0.990178	-0.724034	0.383852
C48	C	0.949932	-0.696793	0.343552
C49	C	0.909703	-0.724153	0.303266
C50	C	0.829234	-0.778869	0.222694
C51	C	0.829216	-0.724262	0.222688
C52	C	0.869449	-0.696902	0.262977
C53	C	0.869438	-0.642311	0.262953
N54	N	0.909664	-0.614949	0.303243
C55	C	0.949910	-0.642190	0.343543
C56	C	0.869556	-0.975387	0.263024
C57	C	0.869580	-1.029989	0.263029
C58	C	0.950056	-1.029868	0.343622
C59	C	0.950035	-0.975264	0.343613
C60	C	0.909782	-0.948024	0.303314
C61	C	0.949870	-0.527525	0.343511
C62	C	0.949850	-0.472919	0.343492
C63	C	0.869372	-0.473046	0.262901
C64	C	0.869394	-0.527646	0.262918
C65	C	0.909645	-0.554884	0.303228
O66	O	0.835241	-0.614080	0.228684
O67	O	0.984112	-0.613895	0.377812
C68	C	1.073863	-0.251697	0.303259
C69	C	1.143832	-0.251686	0.303267
C70	C	0.909725	-0.251711	0.467432
C71	C	0.909748	-0.251706	0.537400
C72	C	0.909780	-0.115349	0.303305
C73	C	0.909825	-0.057235	0.303331
C74	C	0.909657	-0.251695	0.139690
C75	C	0.909757	-0.251552	0.069722
C76	C	0.950033	-0.218258	0.570287
C77	C	0.950033	-0.218235	0.636030
C78	C	0.909753	-0.251670	0.668882
C79	C	0.869459	-0.285120	0.635987
C80	C	0.869456	-0.285138	0.570245
N81	N	0.904894	-0.297409	0.772093
N82	N	0.904900	-0.297391	0.834544
C83	C	0.909757	-0.251617	0.866957
N84	N	0.914619	-0.205862	0.834559
N85	N	0.914617	-0.205881	0.772102
C86	C	0.909750	-0.251654	0.740168
C87	C	0.950044	-0.218142	0.971130
C88	C	0.950038	-0.218118	1.036874
C89	C	0.869468	-0.285008	1.036830
C90	C	0.869470	-0.285027	0.971087
C91	C	0.909761	-0.251594	0.938241
H92	H	0.670154	-0.191200	0.376419
H93	H	0.150053	-0.191111	0.376446
H94	H	0.982795	-0.952991	0.376420
H95	H	0.836779	-0.953210	0.230202
F96	F	0.786371	-0.695274	0.179796
F97	F	0.992890	-1.058869	0.386514
H98	H	0.982642	-0.549696	0.376339
H99	H	0.149827	-0.312264	0.230087
F100	F	0.826588	-0.320702	0.670951
F101	F	0.277299	-0.320628	0.219986
H102	H	1.022937	-0.701761	0.416660
H103	H	0.669935	-0.312341	0.230040
H104	H	0.269317	-0.191134	0.376445
H105	H	0.836648	-0.312375	0.543469
H106	H	0.982837	-0.190995	0.662812
F107	F	0.992675	-0.443804	0.386373
H108	H	0.836638	-0.549923	0.230107
H109	H	0.982848	-0.190916	0.944386
H110	H	0.982843	-0.190878	1.063650
F111	F	0.542685	-0.182829	0.386508
F112	F	0.826594	-0.320588	1.071789
H113	H	0.836668	-0.312267	0.944310
H114	H	1.022970	-0.800808	0.416686
F115	F	0.786411	-0.807975	0.179814
F116	F	0.542432	-0.320670	0.219971
H117	H	0.836826	-1.052260	0.230215
F118	F	0.992913	-0.182674	0.535334
H119	H	0.836606	-0.450857	0.230088
