data_functionalizedCrystal
_audit_creation_method	'MofGen! by Chris Wilmer'
_symmetry_space_group_name_H-M	'P1'
_symmetry_Int_Tables_number	1
_symmetry_cell_setting	triclinic
loop_
_symmetry_equiv_pos_as_xyz
  x,y,z
_cell_length_a	12.759401
_cell_length_b	18.215405
_cell_length_c	12.759393
_cell_angle_alpha	89.966515
_cell_angle_beta	89.980404
_cell_angle_gamma	90.023009
loop_
_atom_site_label
_atom_site_type_symbol
_atom_site_fract_x
_atom_site_fract_y
_atom_site_fract_z
Zn1	Zn	1.606208	-0.292943	-0.593961
Zn2	Zn	1.606074	-0.416027	-0.418272
Zn3	Zn	1.430506	-0.292980	-0.418300
Zn4	Zn	1.430474	-0.415973	-0.593913
O5	O	1.518316	-0.354481	-0.506111
O6	O	1.753211	-0.309278	-0.570663
O7	O	1.582743	-0.399743	-0.271254
O8	O	1.453883	-0.189991	-0.441634
O9	O	1.753113	-0.399707	-0.441585
O10	O	1.582970	-0.189964	-0.570691
O11	O	1.453754	-0.309340	-0.271275
O12	O	1.283481	-0.309288	-0.441587
O13	O	1.453827	-0.399615	-0.740940
O14	O	1.283457	-0.399650	-0.570609
O15	O	1.582938	-0.309226	-0.740975
O16	O	1.582711	-0.519004	-0.441539
O17	O	1.453698	-0.518965	-0.570582
C18	C	1.245348	-0.354468	-0.506097
C19	C	1.128572	-0.354480	-0.506116
C20	C	0.963993	-0.401614	-0.573199
C21	C	1.073717	-0.401606	-0.573188
C22	C	1.073696	-0.307364	-0.439042
C23	C	0.963974	-0.307376	-0.439049
C24	C	1.518215	-0.545687	-0.506075
C25	C	1.518268	-0.627486	-0.506095
C26	C	1.585515	-0.815605	-0.573386
C27	C	1.585554	-0.892464	-0.573405
C28	C	1.451245	-0.892605	-0.438902
C29	C	1.451203	-0.815747	-0.438888
C30	C	1.518344	-0.777249	-0.506129
C31	C	1.518425	-0.930966	-0.506162
C32	C	1.518465	-1.014299	-0.506183
C33	C	1.518302	-0.693911	-0.506109
C34	C	1.792349	-0.354495	-0.506126
C35	C	1.909125	-0.354500	-0.506133
C36	C	1.518394	-0.354410	-0.780145
C37	C	1.518428	-0.354380	-0.896921
C38	C	1.518445	-0.162528	-0.506171
C39	C	1.518500	-0.080729	-0.506196
C40	C	1.585661	-0.307307	-0.951803
C41	C	1.585679	-0.307275	-1.061528
C42	C	1.451227	-0.401396	-1.061478
C43	C	1.451205	-0.401424	-0.951756
C44	C	1.518298	-0.354498	-0.233144
C45	C	1.518468	-0.354321	-0.116368
H46	H	1.118367	-0.268996	-0.384426
H47	H	1.118386	-0.439972	-0.627799
H48	H	1.640425	-0.268942	-1.106208
H49	H	1.396499	-0.439699	-1.106138
N50	N	1.657917	-0.774076	-0.645910
H51	H	1.733001	-0.787418	-0.629669
H52	H	1.641471	-0.787438	-0.720935
H53	H	1.396584	-0.923959	-0.384155
N54	N	0.904842	-0.452449	-0.645542
H55	H	0.859290	-0.486521	-0.602758
H56	H	0.859408	-0.422540	-0.694299
H57	H	0.919299	-0.269009	-0.384430
N58	N	1.657975	-0.933834	-0.645974
H59	H	1.700491	-0.897781	-0.688573
H60	H	1.706645	-0.965729	-0.603284
H61	H	1.396499	-0.784516	-0.384119
N62	N	1.378664	-0.452192	-0.892569
H63	H	1.394935	-0.504773	-0.911643
H64	H	1.388868	-0.445008	-0.814757
N65	N	1.658160	-0.256569	-0.892658
H66	H	1.700753	-0.226743	-0.944079
H67	H	1.615410	-0.222520	-0.847137
