data_functionalizedCrystal
_audit_creation_method	'MofGen! by Chris Wilmer'
_symmetry_space_group_name_H-M	'P1'
_symmetry_Int_Tables_number	1
_symmetry_cell_setting	triclinic
loop_
_symmetry_equiv_pos_as_xyz
  x,y,z
_cell_length_a	15.944499
_cell_length_b	15.944551
_cell_length_c	14.472310
_cell_angle_alpha	89.997979
_cell_angle_beta	89.984384
_cell_angle_gamma	83.488174
loop_
_atom_site_label
_atom_site_type_symbol
_atom_site_fract_x
_atom_site_fract_y
_atom_site_fract_z
O1	O	1.114562	0.108119	-0.076898
O2	O	1.614562	0.608119	0.423102
O3	O	0.870007	0.121521	-0.076888
O4	O	1.370007	0.621521	0.423112
O5	O	0.998963	-0.007456	-0.076885
O6	O	1.498963	0.492544	0.423115
O7	O	0.985606	0.237096	-0.076901
O8	O	1.485606	0.737096	0.423099
O9	O	0.998930	-0.007448	0.076797
O10	O	1.498930	0.492552	0.576797
O11	O	0.869973	0.121529	0.076794
O12	O	1.369973	0.621529	0.576794
O13	O	1.114529	0.108127	0.076784
O14	O	1.614529	0.608127	0.576784
Cu15	Cu	0.992248	0.114828	0.090821
Cu16	Cu	1.492248	0.614828	0.590821
Cu17	Cu	0.992287	0.114820	-0.090926
Cu18	Cu	1.492287	0.614820	0.409074
O19	O	0.985573	0.237104	0.076781
O20	O	1.485573	0.737104	0.576781
C21	C	0.838695	0.120976	-0.000046
C22	C	1.338695	0.620976	0.499954
C23	C	0.745447	0.119331	-0.000042
C24	C	1.245447	0.619331	0.499958
C25	C	0.453911	0.194263	-0.000061
C26	C	0.953911	0.694263	0.499939
C27	C	0.514957	0.155308	-0.075833
C28	C	1.014957	0.655308	0.424167
C29	C	0.409810	0.113355	-0.000063
C30	C	0.909810	0.613355	0.499937
C31	C	0.514910	0.155294	0.075686
C32	C	1.014910	0.655294	0.575686
C33	C	0.574719	0.116296	-0.000051
C34	C	1.074719	0.616296	0.499949
C35	C	0.469628	0.074377	-0.075898
C36	C	0.969628	0.574377	0.424102
C37	C	0.469575	0.074374	0.075689
C38	C	0.969575	0.574374	0.575689
C39	C	0.530603	0.035360	-0.000102
C40	C	1.030603	0.535360	0.499898
C41	C	0.314810	0.111663	-0.000070
C42	C	0.814810	0.611663	0.499930
C43	C	0.669718	0.117981	-0.000050
C44	C	1.169718	0.617981	0.499950
C45	C	0.998392	-0.038746	-0.000044
C46	C	1.498392	0.461254	0.499956
C47	C	0.996729	-0.131992	-0.000043
C48	C	1.496729	0.368008	0.499957
C49	C	0.912823	-0.346833	-0.000053
C50	C	1.412823	0.153167	0.499947
C51	C	0.951770	-0.407854	0.075720
C52	C	1.451770	0.092146	0.575720
C53	C	0.993722	-0.302717	-0.000050
C54	C	1.493722	0.197283	0.499950
C55	C	0.951822	-0.407844	-0.075798
C56	C	1.451822	0.092156	0.424202
C57	C	0.990811	-0.467629	-0.000061
C58	C	1.490811	0.032371	0.499939
C59	C	1.032691	-0.362510	0.075785
C60	C	1.532691	0.137490	0.575785
C61	C	1.032732	-0.362494	-0.075801
C62	C	1.532732	0.137506	0.424199
C63	C	1.071737	-0.423497	-0.000010
C64	C	1.571737	0.076503	0.499990
C65	C	0.995397	-0.207715	-0.000043
C66	C	1.495397	0.292285	0.499957
C67	C	0.989143	-0.562630	-0.000062
C68	C	1.489143	-0.062630	0.499938
C69	C	1.145840	0.108672	-0.000061
C70	C	1.645840	0.608672	0.499939
C71	C	1.239089	0.110317	-0.000071
C72	C	1.739089	0.610317	0.499929
N73	N	0.992227	0.114834	0.218652
N74	N	1.492227	0.614834	0.718652
C75	C	0.986144	0.268394	-0.000063
C76	C	1.486144	0.768394	0.499937
C77	C	0.987806	0.361640	-0.000069
C78	C	1.487806	0.861640	0.499931
N79	N	0.992316	0.114807	-0.218757
N80	N	1.492316	0.614807	0.281243
C81	C	0.992286	0.114816	0.592743
C82	C	1.492286	0.614816	1.092743
C83	C	0.923053	0.183598	0.553576
C84	C	1.423053	0.683598	1.053576
C85	C	0.923213	0.183849	0.446488
C86	C	1.423213	0.683849	0.946488
C87	C	0.992256	0.114825	0.407152
C88	C	1.492256	0.614825	0.907152
C89	C	1.079902	0.133956	0.445984
C90	C	1.579902	0.633956	0.945984
C91	C	1.079513	0.134445	0.553106
C92	C	1.579513	0.634445	1.053106
C93	C	0.974656	0.026700	0.553279
C94	C	1.474656	0.526700	1.053279
C95	C	0.972646	0.027287	0.446152
C96	C	1.472646	0.527287	0.946152
C97	C	0.992244	0.114828	0.302264
C98	C	1.492244	0.614828	0.802264
C99	C	0.992304	0.114815	0.697631
C100	C	1.492304	0.614815	1.197631
H101	H	0.449663	0.040185	-0.140029
H102	H	0.949663	0.540185	0.359971
O103	O	1.035116	-0.043685	0.410706
O104	O	1.535116	0.456315	0.910706
H105	H	1.031939	-0.045729	0.334137
H106	H	1.531939	0.454271	0.834137
H107	H	0.534971	0.189531	0.139743
H108	H	1.034971	0.689531	0.639743
O109	O	0.541593	0.200632	-0.160692
O110	O	1.041593	0.700632	0.339308
H111	H	0.585626	0.156855	-0.202333
H112	H	1.085626	0.656855	0.297667
H113	H	1.132652	0.085191	0.420502
H114	H	1.632652	0.585191	0.920502
O115	O	1.160759	-0.467447	-0.000014
O116	O	1.660759	0.032553	0.499986
H117	H	1.170529	-0.507944	0.062309
H118	H	1.670529	-0.007944	0.562309
O119	O	0.409761	0.283204	-0.000148
O120	O	0.909761	0.783204	0.499852
H121	H	0.427814	0.316589	-0.063144
H122	H	0.927814	0.816589	0.436856
O123	O	0.442901	0.029076	0.160542
O124	O	0.942901	0.529076	0.660542
H125	H	0.397905	0.072506	0.201457
H126	H	0.897905	0.572506	0.701457
O127	O	1.077959	-0.336036	0.160733
O128	O	1.577959	0.163964	0.660733
H129	H	1.143712	-0.367537	0.160919
H130	H	1.643712	0.132463	0.660919
O131	O	0.823881	-0.302684	0.000044
O132	O	1.323881	0.197316	0.500044
H133	H	0.790487	-0.320723	0.063043
H134	H	1.290487	0.179277	0.563043
O135	O	1.078037	-0.335827	-0.160658
O136	O	1.578037	0.164173	0.339342
H137	H	1.044338	-0.353770	-0.223467
H138	H	1.544338	0.146230	0.276533
O139	O	0.891825	0.002331	0.589110
O140	O	1.391825	0.502331	1.089110
H141	H	0.849070	-0.005808	0.530072
H142	H	1.349070	0.494192	1.030072
O143	O	0.887238	0.008058	0.412550
O144	O	1.387238	0.508058	0.912550
H145	H	0.887182	0.005864	0.335894
H146	H	1.387182	0.505864	0.835894
O147	O	0.836474	0.168755	0.587740
O148	O	1.336474	0.668755	1.087740
H149	H	0.788756	0.218048	0.559180
H150	H	1.288756	0.718048	1.059180
H151	H	0.917608	-0.427918	-0.139863
H152	H	1.417608	0.072082	0.360137
H153	H	0.858064	0.172452	0.420235
H154	H	1.358064	0.672452	0.920235
O155	O	1.041522	-0.041109	0.586833
O156	O	1.541522	0.458891	1.086833
H157	H	1.087097	-0.012247	0.631401
H158	H	1.587097	0.487753	1.131401
O159	O	0.906438	-0.434479	0.160585
O160	O	1.406438	0.065521	0.660585
H161	H	0.840495	-0.403478	0.160435
H162	H	1.340495	0.096522	0.660435
H163	H	0.934157	0.248620	0.580480
H164	H	1.434157	0.748620	1.080480
H165	H	0.563780	-0.031846	-0.000138
H166	H	1.063780	0.468154	0.499862
H167	H	0.934472	0.249239	0.420848
H168	H	1.434472	0.749239	0.920848
O169	O	1.100969	0.218113	0.410440
O170	O	1.600969	0.718113	0.910440
H171	H	1.160703	0.208797	0.370436
H172	H	1.660703	0.708797	0.870436
H173	H	1.095048	0.198708	0.578076
H174	H	1.595048	0.698708	1.078076
H175	H	1.132640	0.086323	0.579012
H176	H	1.632640	0.586323	1.079012
