data_functionalizedCrystal
_audit_creation_method	'MofGen! by Chris Wilmer'
_symmetry_space_group_name_H-M	'P1'
_symmetry_Int_Tables_number	1
_symmetry_cell_setting	triclinic
loop_
_symmetry_equiv_pos_as_xyz
  x,y,z
_cell_length_a	16.974800
_cell_length_b	15.944551
_cell_length_c	16.053802
_cell_angle_alpha	92.564789
_cell_angle_beta	91.074188
_cell_angle_gamma	83.444312
loop_
_atom_site_label
_atom_site_type_symbol
_atom_site_fract_x
_atom_site_fract_y
_atom_site_fract_z
O1	O	1.049083	0.107072	0.001480
O2	O	1.549083	0.607072	0.501480
O3	O	0.819622	0.119930	-0.014032
O4	O	1.319622	0.619930	0.485968
O5	O	0.940618	-0.008760	-0.005845
O6	O	1.440618	0.491240	0.494155
O7	O	0.928087	0.235762	-0.006707
O8	O	1.428087	0.735762	0.493293
O9	O	0.933958	-0.001705	0.132563
O10	O	1.433958	0.498295	0.632563
O11	O	0.812962	0.126985	0.124376
O12	O	1.312962	0.626985	0.624376
O13	O	1.042423	0.114126	0.139888
O14	O	1.542423	0.614126	0.639888
Zn15	Zn	0.926635	0.121676	0.154108
Zn16	Zn	1.426635	0.621676	0.654108
Zn17	Zn	0.935410	0.112381	-0.028251
Zn18	Zn	1.435410	0.612381	0.471749
O19	O	0.921427	0.242816	0.131701
O20	O	1.421427	0.742816	0.631701
C21	C	0.786929	0.122839	0.053187
C22	C	1.286929	0.622839	0.553187
C23	C	0.699436	0.120987	0.047273
C24	C	1.199436	0.620987	0.547273
C25	C	0.654706	0.123960	0.119942
C26	C	1.154706	0.623960	0.619942
C27	C	0.572499	0.122207	0.114388
C28	C	1.072499	0.622207	0.614388
C29	C	0.535023	0.117486	0.036162
C30	C	1.035023	0.617486	0.536162
C31	C	0.579759	0.114510	-0.036513
C32	C	1.079759	0.614510	0.463487
C33	C	0.661965	0.116258	-0.030957
C34	C	1.161965	0.616258	0.469043
C35	C	0.289552	0.111841	0.011457
C36	C	0.789552	0.611841	0.511457
C37	C	0.207339	0.110096	0.005906
C38	C	0.707339	0.610096	0.505906
C39	C	0.200085	0.117791	0.156807
C40	C	0.700085	0.617791	0.656807
C41	C	0.282293	0.119544	0.162356
C42	C	0.782293	0.619544	0.662356
C43	C	0.327023	0.116563	0.089681
C44	C	0.827023	0.616563	0.589681
N45	N	0.450993	0.115696	0.030483
N46	N	0.950993	0.615696	0.530483
N47	N	0.411051	0.118347	0.095362
N48	N	0.911051	0.618347	0.595362
C49	C	0.936768	-0.036527	0.063324
C50	C	1.436768	0.463473	0.563324
C51	C	0.935208	-0.129777	0.063219
C52	C	1.435208	0.370223	0.563219
C53	C	0.856481	-0.344805	0.057886
C54	C	1.356481	0.155195	0.557886
C55	C	0.889756	-0.402265	0.128601
C56	C	1.389756	0.097735	0.628601
C57	C	0.932387	-0.300509	0.063022
C58	C	1.432387	0.199491	0.563022
C59	C	0.896340	-0.409203	-0.007858
C60	C	1.396340	0.090797	0.492142
C61	C	0.929656	-0.465428	0.062828
C62	C	1.429656	0.034572	0.562828
C63	C	0.965680	-0.356738	0.133795
C64	C	1.465680	0.143262	0.633795
C65	C	0.972256	-0.363673	-0.002726
C66	C	1.472256	0.136327	0.497274
C67	C	1.005585	-0.421114	0.068010
C68	C	1.505585	0.078886	0.568010
C69	C	0.933958	-0.205503	0.063135
C70	C	1.433958	0.294497	0.563135
C71	C	0.928091	-0.560433	0.062721
C72	C	1.428091	-0.060433	0.562721
C73	C	1.075116	0.111217	0.072667
C74	C	1.575116	0.611217	0.572667
C75	C	1.162609	0.113069	0.078576
C76	C	1.662609	0.613069	0.578576
C77	C	0.925277	0.270584	0.062530
C78	C	1.425277	0.770584	0.562530
C79	C	0.926837	0.363833	0.062630
C80	C	1.426837	0.863833	0.562630
N81	N	0.920652	0.128018	0.278563
N82	N	1.420652	0.628018	0.778563
N83	N	0.941399	0.106032	-0.152706
N84	N	1.441399	0.606032	0.347294
C85	C	0.972155	0.073280	0.325742
C86	C	1.472155	0.573280	0.825742
C87	C	0.967977	0.077725	0.412866
C88	C	1.467977	0.577725	0.912866
C89	C	0.912300	0.136912	0.452810
C90	C	1.412300	0.636912	0.952810
C91	C	0.860792	0.191653	0.405625
C92	C	1.360792	0.691653	0.905625
C93	C	0.864966	0.187203	0.318502
C94	C	1.364966	0.687203	0.818502
C95	C	0.894065	0.156323	0.712986
C96	C	1.394065	0.656323	1.212986
C97	C	0.889896	0.160770	0.800115
C98	C	1.389896	0.660770	1.300115
C99	C	0.997081	0.046841	0.807350
C100	C	1.497081	0.546841	1.307350
C101	C	1.001254	0.042400	0.720226
C102	C	1.501254	0.542400	1.220226
C103	C	0.949743	0.097138	0.673048
C104	C	1.449743	0.597138	1.173048
N105	N	0.908030	0.141458	0.541865
N106	N	1.408030	0.641458	1.041865
N107	N	0.954010	0.092587	0.583994
N108	N	1.454010	0.592587	1.083994
H109	H	0.312801	0.123384	0.226056
H110	H	0.812801	0.623384	0.726056
Cl111	Cl	0.800214	0.256018	0.259192
Cl112	Cl	1.300214	0.756018	0.759192
H113	H	1.007110	-0.346414	-0.058255
H114	H	1.507110	0.153586	0.441745
Cl115	Cl	0.851038	-0.444869	-0.100279
Cl116	Cl	1.351038	0.055131	0.399721
Cl117	Cl	0.516269	0.125960	0.205749
Cl118	Cl	1.016269	0.625960	0.705749
Cl119	Cl	0.143850	0.121534	0.248164
Cl120	Cl	0.643850	0.621534	0.748164
Cl121	Cl	0.345772	0.108096	-0.079907
Cl122	Cl	0.845772	0.608096	0.420093
Cl123	Cl	0.718198	0.112516	-0.122317
Cl124	Cl	1.218198	0.612516	0.377683
Cl125	Cl	1.042157	-0.001128	0.275536
Cl126	Cl	1.542157	0.498872	0.775536
Cl127	Cl	1.010917	-0.321228	0.226317
Cl128	Cl	1.510917	0.178772	0.726317
Cl129	Cl	0.701811	0.129900	0.218288
Cl130	Cl	1.201811	0.629900	0.718288
Cl131	Cl	1.102941	-0.472099	0.074647
Cl132	Cl	1.602941	0.027901	0.574647
Cl133	Cl	0.160227	0.104164	-0.092442
Cl134	Cl	0.660227	0.604164	0.407558
Cl135	Cl	0.532649	0.108544	-0.134854
Cl136	Cl	1.032649	0.608544	0.365146
Cl137	Cl	1.061831	-0.021971	0.866663
Cl138	Cl	1.561831	0.478029	1.366663
H139	H	0.793473	-0.311631	0.053695
H140	H	1.293473	0.188369	0.553695
H141	H	0.854875	-0.419502	0.184125
H142	H	1.354875	0.080498	0.684125
Cl143	Cl	1.032724	0.008909	0.472178
Cl144	Cl	1.532724	0.508909	0.972178
Cl145	Cl	1.071250	-0.032007	0.670010
Cl146	Cl	1.571250	0.467993	1.170010
Cl147	Cl	0.790793	0.266057	0.455837
Cl148	Cl	1.290793	0.766057	0.955837
H149	H	0.844555	0.208971	0.832633
H150	H	1.344555	0.708971	1.332633
H151	H	0.852124	0.200895	0.674580
H152	H	1.352124	0.700895	1.174580
