data_functionalizedCrystal
_audit_creation_method	'MofGen! by Chris Wilmer'
_symmetry_space_group_name_H-M	'P1'
_symmetry_Int_Tables_number	1
_symmetry_cell_setting	triclinic
loop_
_symmetry_equiv_pos_as_xyz
  x,y,z
_cell_length_a	6.817900
_cell_length_b	8.749630
_cell_length_c	9.514088
_cell_angle_alpha	89.907095
_cell_angle_beta	118.843545
_cell_angle_gamma	105.181985
loop_
_atom_site_label
_atom_site_type_symbol
_atom_site_fract_x
_atom_site_fract_y
_atom_site_fract_z
V1	V	-4.224450	-0.221596	-0.498631
O2	O	-4.201118	0.007764	-0.491285
O3	O	-4.181426	-0.436614	-0.493158
O4	O	-4.259160	-0.219454	-0.717043
O5	O	-4.122845	-0.210900	-0.265850
V6	V	-4.696612	-0.194013	-0.471039
O7	O	-4.510629	-0.282103	-0.559156
O8	O	-4.860630	-0.133506	-0.410514
O9	O	-4.516429	0.021005	-0.476513
O10	O	-4.837341	-0.423373	-0.478386
O11	O	-4.915613	-0.204709	-0.703821
O12	O	-4.438695	-0.196155	-0.252628
C13	C	-4.025046	-0.488991	-0.484759
C14	C	-4.071709	-0.664779	-0.481739
C15	C	-4.124201	-0.211979	-0.770345
C16	C	-4.233900	-0.211650	-0.948884
C17	C	-4.336150	0.073374	-0.484907
C18	C	-4.268728	0.249160	-0.487937
C19	C	-4.236993	-0.203635	-0.199317
C20	C	-4.106532	-0.203956	-0.020776
H21	H	-4.401711	-0.690040	-0.495561
H22	H	-3.938731	-0.725589	-0.474132
O23	O	-4.464239	-0.219495	-1.038377
C24	C	-4.602846	-0.362102	-1.022878
H25	H	-4.501510	-0.453795	-0.986230
H26	H	-4.647414	-0.336106	-0.926050
C27	C	-4.955399	-0.316512	-1.231266
C28	C	-4.830944	-0.429136	-1.186267
H29	H	-5.096106	-0.357859	-1.332048
H30	H	-4.862020	-0.220431	-1.241704
H31	H	-4.992516	-0.294858	-1.150562
H32	H	-4.793804	-0.450772	-1.266959
H33	H	-4.924323	-0.525222	-1.175846
O34	O	-3.876228	-0.196198	-0.931395
C35	C	-3.737562	-0.053559	-0.946794
H36	H	-3.847988	-0.009649	-1.064111
H37	H	-3.669851	0.041583	-0.839187
C38	C	-3.392762	-0.139513	-0.806409
C39	C	-3.528384	-0.085590	-0.950507
H40	H	-3.263724	-0.159267	-0.808692
H41	H	-3.486180	-0.235609	-0.796028
H42	H	-3.336359	-0.060219	-0.716752
H43	H	-3.584808	-0.164891	-1.040159
H44	H	-3.434969	0.010493	-0.960903
