data_functionalizedCrystal
_audit_creation_method	'MofGen! by Chris Wilmer'
_symmetry_space_group_name_H-M	'P1'
_symmetry_Int_Tables_number	1
_symmetry_cell_setting	triclinic
loop_
_symmetry_equiv_pos_as_xyz
  x,y,z
_cell_length_a	15.995292
_cell_length_b	15.944493
_cell_length_c	15.072220
_cell_angle_alpha	90.004743
_cell_angle_beta	89.986330
_cell_angle_gamma	83.471830
loop_
_atom_site_label
_atom_site_type_symbol
_atom_site_fract_x
_atom_site_fract_y
_atom_site_fract_z
O1	O	1.111010	0.108035	-0.073795
O2	O	1.611010	0.608035	0.426205
O3	O	0.867226	0.121456	-0.073790
O4	O	1.367226	0.621456	0.426210
O5	O	0.995800	-0.007535	-0.073800
O6	O	1.495800	0.492465	0.426200
O7	O	0.982435	0.237025	-0.073785
O8	O	1.482435	0.737025	0.426215
O9	O	0.995769	-0.007528	0.073765
O10	O	1.495769	0.492472	0.573765
O11	O	0.867194	0.121463	0.073775
O12	O	1.367194	0.621463	0.573775
O13	O	1.110978	0.108042	0.073770
O14	O	1.610978	0.608042	0.573770
Zn15	Zn	0.989081	0.114754	0.097202
Zn16	Zn	1.489081	0.614754	0.597202
Zn17	Zn	0.989123	0.114744	-0.097221
Zn18	Zn	1.489123	0.614744	0.402779
O19	O	0.982404	0.237032	0.073780
O20	O	1.482404	0.737032	0.573780
C21	C	0.836014	0.120913	-0.000007
C22	C	1.336014	0.620913	0.499993
C23	C	0.743062	0.119276	-0.000006
C24	C	1.243062	0.619276	0.499994
C25	C	0.405324	0.113255	-0.000016
C26	C	0.905324	0.613255	0.499984
C27	C	0.428623	0.206357	-0.000340
C28	C	0.928623	0.706357	0.499660
C29	C	0.525298	0.208127	-0.000003
C30	C	1.025298	0.708127	0.499997
C31	C	0.572880	0.116242	-0.000011
C32	C	1.072880	0.616242	0.499989
C33	C	0.543767	0.069700	0.084250
C34	C	1.043767	0.569700	0.584250
C35	C	0.446976	0.068579	0.084316
C36	C	0.946976	0.568579	0.584316
C37	C	0.447157	0.066670	-0.083493
C38	C	0.947157	0.566670	0.416507
C39	C	0.543650	0.070120	-0.084602
C40	C	1.043650	0.570120	0.415398
C41	C	0.667576	0.117926	-0.000006
C42	C	1.167576	0.617926	0.499994
C43	C	0.310629	0.111569	-0.000016
C44	C	0.810629	0.611569	0.499984
C45	C	0.995238	-0.038826	-0.000021
C46	C	1.495238	0.461174	0.499979
C47	C	0.993600	-0.132074	-0.000032
C48	C	1.493600	0.367926	0.499968
C49	C	1.069282	-0.367854	-0.000017
C50	C	1.569282	0.132146	0.499983
C51	C	1.028486	-0.418415	-0.072773
C52	C	1.528486	0.081585	0.427227
C53	C	0.990566	-0.302794	-0.000021
C54	C	1.490566	0.197206	0.499979
C55	C	1.028436	-0.418384	0.072715
C56	C	1.528436	0.081616	0.572715
C57	C	0.987641	-0.467703	-0.000007
C58	C	1.487641	0.032297	0.499993
C59	C	0.949791	-0.352127	-0.072837
C60	C	1.449791	0.147873	0.427163
C61	C	0.949752	-0.352092	0.072716
C62	C	1.449752	0.147908	0.572716
C63	C	0.908898	-0.402620	-0.000058
C64	C	1.408898	0.097380	0.499942
C65	C	0.992253	-0.207795	-0.000030
C66	C	1.492253	0.292205	0.499970
C67	C	0.985947	-0.562700	-0.000004
C68	C	1.485947	-0.062700	0.499996
C69	C	1.142189	0.108584	-0.000015
C70	C	1.642189	0.608584	0.499985
C71	C	1.235142	0.110222	-0.000022
C72	C	1.735142	0.610222	0.499978
C73	C	0.982966	0.268323	-0.000000
C74	C	1.482966	0.768323	0.500000
C75	C	0.984603	0.361572	0.000005
C76	C	1.484603	0.861572	0.500005
N77	N	0.989059	0.114759	0.229891
N78	N	1.489059	0.614759	0.729891
N79	N	0.989152	0.114731	-0.229910
N80	N	1.489152	0.614731	0.270090
C81	C	0.989121	0.114741	0.589092
C82	C	1.489121	0.614741	1.089092
C83	C	0.920093	0.183530	0.551491
C84	C	1.420093	0.683530	1.051491
C85	C	0.920251	0.183781	0.448665
C86	C	1.420251	0.683781	0.948665
C87	C	0.989089	0.114750	0.410888
C88	C	1.489089	0.614750	0.910888
C89	C	1.076454	0.133875	0.448179
C90	C	1.576454	0.633875	0.948179
C91	C	1.076067	0.134364	0.551037
C92	C	1.576067	0.634364	1.051037
C93	C	0.971565	0.026623	0.551188
C94	C	1.471565	0.526623	1.051188
C95	C	0.969560	0.027211	0.448324
C96	C	1.469560	0.527211	0.948324
C97	C	0.989077	0.114754	0.310175
C98	C	1.489077	0.614754	0.810175
C99	C	0.989139	0.114739	0.689806
C100	C	1.489139	0.614739	1.189806
H101	H	0.420141	0.100819	0.147309
H102	H	0.920141	0.600819	0.647309
H103	H	1.061742	-0.447372	-0.134285
H104	H	1.561742	0.052628	0.365715
H105	H	0.432436	0.000317	0.088138
H106	H	0.932436	0.500317	0.588138
H107	H	0.433175	-0.001859	-0.084068
H108	H	0.933175	0.498141	0.415932
H109	H	0.931460	0.249172	0.424055
H110	H	1.431460	0.749172	0.924055
Br111	Br	0.596885	-0.043001	0.089461
Br112	Br	1.096885	0.456999	0.589461
H113	H	0.418840	0.095767	-0.147358
H114	H	0.918840	0.595767	0.352642
H115	H	0.562227	0.104008	-0.146938
H116	H	1.062227	0.604008	0.353062
H117	H	1.137087	-0.352243	-0.000092
H118	H	1.637087	0.147757	0.499908
Br119	Br	0.380223	0.265849	0.099813
Br120	Br	0.880223	0.765849	0.599813
H121	H	1.092297	0.197405	0.422414
H122	H	1.592297	0.697405	0.922414
H123	H	0.916580	-0.323301	-0.134413
H124	H	1.416580	0.176699	0.365587
Br125	Br	0.555949	0.269251	0.100853
Br126	Br	1.055949	0.769251	0.600853
Br127	Br	0.811496	0.164843	0.592735
Br128	Br	1.311496	0.664843	1.092735
H129	H	0.841041	-0.418068	-0.000097
H130	H	1.341041	0.081932	0.499903
H131	H	0.544332	0.244572	-0.060407
H132	H	1.044332	0.744572	0.439593
H133	H	0.576631	0.003054	-0.089698
H134	H	1.076631	0.503054	0.410302
Br135	Br	1.164116	0.052587	0.407399
Br136	Br	1.664116	0.552587	0.907399
H137	H	0.916525	-0.323120	0.134230
H138	H	1.416525	0.176880	0.634230
H139	H	0.909243	0.008229	0.577178
H140	H	1.409243	0.508229	1.077178
H141	H	0.400634	0.242240	-0.060767
H142	H	0.900634	0.742240	0.439233
Br143	Br	1.083846	-0.466614	0.175228
Br144	Br	1.583846	0.033386	0.675228
H145	H	0.855311	0.172389	0.423454
H146	H	1.355311	0.672389	0.923454
Br147	Br	1.047924	-0.062106	0.405483
Br148	Br	1.547924	0.437894	0.905483
H149	H	0.931148	0.248553	0.577333
H150	H	1.431148	0.748553	1.077333
H151	H	0.563807	0.102027	0.146962
H152	H	1.063807	0.602027	0.646962
H153	H	1.091540	0.198626	0.575022
H154	H	1.591540	0.698626	1.075022
H155	H	1.129037	0.086235	0.575908
H156	H	1.629037	0.586235	1.075908
Br157	Br	0.862444	0.003016	0.407707
Br158	Br	1.362444	0.503016	0.907707
Br159	Br	1.055466	-0.058698	0.591711
Br160	Br	1.555466	0.441302	1.091711
