data_functionalizedCrystal
_audit_creation_method	'MofGen! by Chris Wilmer'
_symmetry_space_group_name_H-M	'P1'
_symmetry_Int_Tables_number	1
_symmetry_cell_setting	triclinic
loop_
_symmetry_equiv_pos_as_xyz
  x,y,z
_cell_length_a	10.686220
_cell_length_b	15.299816
_cell_length_c	10.685910
_cell_angle_alpha	85.396606
_cell_angle_beta	89.675252
_cell_angle_gamma	83.959204
loop_
_atom_site_label
_atom_site_type_symbol
_atom_site_fract_x
_atom_site_fract_y
_atom_site_fract_z
Zn1	Zn	2.027607	-0.214429	0.610099
Zn2	Zn	2.052597	-0.373408	0.435699
Zn3	Zn	1.807590	-0.236842	0.421397
Zn4	Zn	1.858512	-0.371705	0.661103
O5	O	1.936577	-0.299096	0.532075
O6	O	2.204225	-0.226851	0.571604
O7	O	2.009244	-0.365385	0.260497
O8	O	1.805006	-0.110895	0.419097
O9	O	2.222585	-0.343652	0.443474
O10	O	1.966651	-0.094428	0.557736
O11	O	1.829238	-0.265050	0.249990
O12	O	1.641042	-0.263399	0.468555
O13	O	1.891796	-0.340750	0.827642
O14	O	1.678455	-0.362482	0.644666
O15	O	2.016029	-0.225200	0.790169
O16	O	2.058621	-0.496156	0.492931
O17	O	1.916028	-0.494905	0.658534
C18	C	1.614813	-0.315188	0.560594
C19	C	1.477169	-0.322092	0.572829
C20	C	1.995597	-0.527413	0.582843
C21	C	2.020963	-0.625080	0.604594
C22	C	1.756126	-0.934973	0.376970
C23	C	1.732288	-0.843210	0.356538
C24	C	1.804455	-0.788673	0.418549
C25	C	1.900463	-0.825908	0.500998
C26	C	1.924297	-0.917680	0.521439
C27	C	1.972626	-0.771380	0.563019
C28	C	2.068635	-0.808615	0.645467
C29	C	2.092465	-0.900378	0.665904
C30	C	2.020298	-0.954915	0.603893
C31	C	1.948792	-0.679608	0.542577
C32	C	2.116963	-0.662315	0.687047
C33	C	2.140801	-0.754078	0.707479
C34	C	2.259597	-0.282942	0.503445
C35	C	2.397249	-0.276058	0.491244
C36	C	1.956805	-0.280285	0.855098
C37	C	1.965425	-0.272269	0.992752
C38	C	1.877361	-0.069884	0.481132
C39	C	1.852127	0.027792	0.459423
C40	C	1.916422	-0.317854	1.210313
C41	C	1.907799	-0.325868	1.072659
H42	H	1.434128	-0.231365	0.412035
N43	N	1.678305	-0.993795	0.310090
H44	H	1.613871	-0.956286	0.254753
H45	H	1.634004	-1.031825	0.374030
H46	H	1.440285	-0.366794	0.652036
H47	H	2.039706	-1.029636	0.620519
N48	N	1.845255	-0.639462	0.453644
H49	H	1.882146	-0.602194	0.383342
H50	H	1.781119	-0.601399	0.500632
N51	N	2.195996	-0.940562	0.754835
H52	H	2.159081	-0.977830	0.825122
H53	H	2.238080	-0.892058	0.790943
H54	H	1.785041	-0.713956	0.401907
N55	N	2.039506	-0.203348	1.041603
H56	H	2.130129	-0.213859	1.014340
H57	H	2.035273	-0.207226	1.136302
N58	N	1.628754	-0.803049	0.267610
H59	H	1.545613	-0.822383	0.298182
H60	H	1.646788	-0.823232	0.181018
H61	H	2.175726	-0.617911	0.737545
N62	N	2.244347	-0.794233	0.796412
H63	H	2.308510	-0.832341	0.749514
H64	H	2.207354	-0.831457	0.866693
N65	N	1.833712	-0.394789	1.023795
H66	H	1.837847	-0.390942	0.929088
H67	H	1.743126	-0.384237	1.051145
