data_functionalizedCrystal
_audit_creation_method	'MofGen! by Chris Wilmer'
_symmetry_space_group_name_H-M	'P1'
_symmetry_Int_Tables_number	1
_symmetry_cell_setting	triclinic
loop_
_symmetry_equiv_pos_as_xyz
  x,y,z
_cell_length_a	16.109302
_cell_length_b	14.519709
_cell_length_c	15.186229
_cell_angle_alpha	90.002449
_cell_angle_beta	90.005299
_cell_angle_gamma	96.429037
loop_
_atom_site_label
_atom_site_type_symbol
_atom_site_fract_x
_atom_site_fract_y
_atom_site_fract_z
O1	O	1.103335	-0.118543	0.073256
O2	O	1.603335	0.381457	0.573256
O3	O	0.861299	-0.133294	0.073247
O4	O	1.361299	0.366706	0.573247
O5	O	0.988735	0.008333	0.073260
O6	O	1.488735	0.508333	0.573260
O7	O	0.975900	-0.260171	0.073243
O8	O	1.475900	0.239829	0.573243
O9	O	0.988726	0.008335	-0.073197
O10	O	1.488726	0.508335	0.426803
O11	O	0.861291	-0.133292	-0.073210
O12	O	1.361291	0.366708	0.426790
O13	O	1.103327	-0.118541	-0.073201
O14	O	1.603327	0.381459	0.426799
Zn15	Zn	0.982307	-0.125916	-0.096459
Zn16	Zn	1.482307	0.374084	0.403541
Zn17	Zn	0.982319	-0.125919	0.096505
Zn18	Zn	1.482319	0.374081	0.596505
O19	O	0.975892	-0.260169	-0.073214
O20	O	1.475892	0.239831	0.426786
C21	C	0.830319	-0.132696	0.000018
C22	C	1.330319	0.367304	0.500018
C23	C	0.738021	-0.130904	0.000015
C24	C	1.238021	0.369096	0.500015
C25	C	0.525668	-0.126760	-0.079809
C26	C	1.025668	0.373240	0.420191
C27	C	0.438945	-0.125066	-0.079806
C28	C	0.938945	0.374934	0.420194
C29	C	0.438965	-0.125073	0.079869
C30	C	0.938965	0.374927	0.579869
C31	C	0.525687	-0.126760	0.079865
C32	C	1.025687	0.373240	0.579865
C33	C	0.569036	-0.127608	0.000023
C34	C	1.069036	0.372392	0.500023
C35	C	0.395590	-0.124228	0.000031
C36	C	0.895590	0.375772	0.500031
C37	C	0.301562	-0.122391	0.000035
C38	C	0.801562	0.377609	0.500035
C39	C	0.663071	-0.129442	0.000019
C40	C	1.163071	0.370558	0.500019
C41	C	0.976494	-0.294528	0.000013
C42	C	1.476494	0.205472	0.500013
C43	C	0.978286	-0.396906	0.000007
C44	C	1.478286	0.103094	0.500007
C45	C	0.984885	-0.771788	0.000042
C46	C	1.484885	-0.271788	0.500042
C47	C	0.983053	-0.667484	0.000032
C48	C	1.483053	-0.167484	0.500032
C49	C	0.981586	-0.584350	0.000024
C50	C	1.481586	-0.084350	0.500024
C51	C	0.979753	-0.480039	0.000015
C52	C	1.479753	0.019961	0.500015
C53	C	1.134307	-0.119140	0.000030
C54	C	1.634307	0.380860	0.500030
C55	C	1.226605	-0.120932	0.000038
C56	C	1.726605	0.379068	0.500038
C57	C	0.988132	0.042693	0.000035
C58	C	1.488132	0.542693	0.500035
C59	C	0.986340	0.145070	0.000047
C60	C	1.486340	0.645070	0.500047
N61	N	0.982306	-0.125914	-0.228152
N62	N	1.482306	0.374086	0.271848
C63	C	1.038753	-0.063222	-0.453869
C64	C	1.538753	0.436778	0.046131
C65	C	1.038756	-0.063220	-0.546059
C66	C	1.538756	0.436780	-0.046059
C67	C	0.925873	-0.188609	-0.546079
C68	C	1.425873	0.311391	-0.046079
C69	C	0.925867	-0.188606	-0.453891
C70	C	1.425867	0.311394	0.046109
C71	C	0.982312	-0.125914	-0.407788
C72	C	1.482312	0.374086	0.092212
C73	C	0.982321	-0.125915	-0.592166
C74	C	1.482321	0.374085	-0.092166
C75	C	0.982323	-0.125913	-0.692122
C76	C	1.482323	0.374087	-0.192122
C77	C	0.982309	-0.125914	-0.307826
C78	C	1.482309	0.374086	0.192174
N79	N	0.982327	-0.125914	0.228198
N80	N	1.482327	0.374086	0.728198
H81	H	0.560960	-0.127450	-0.144822
H82	H	1.060960	0.372550	0.355178
H83	H	0.879902	-0.239657	-0.416369
H84	H	1.379902	0.260343	0.083631
H85	H	0.560998	-0.127448	0.144879
H86	H	1.060998	0.372552	0.644879
H87	H	0.403639	-0.124376	-0.144814
H88	H	0.903639	0.375624	0.355186
N89	N	1.096352	0.000861	-0.406760
N90	N	1.596352	0.500861	0.093240
N91	N	1.095026	0.086094	-0.417060
N92	N	1.595026	0.586094	0.082940
H93	H	1.135686	0.131369	-0.383781
H94	H	1.635686	0.631369	0.116219
N95	N	0.394670	-0.124206	0.161414
N96	N	0.894670	0.375794	0.661414
N97	N	0.317241	-0.122701	0.161408
N98	N	0.817241	0.377299	0.661408
H99	H	0.285958	-0.122090	0.219001
H100	H	0.785958	0.377910	0.719001
H101	H	1.084715	-0.012170	-0.583575
H102	H	1.584715	0.487830	-0.083575
H103	H	0.879918	-0.239653	-0.583624
H104	H	1.379918	0.260347	-0.083624
