data_functionalizedCrystal
_audit_creation_method	'MofGen! by Chris Wilmer'
_symmetry_space_group_name_H-M	'P1'
_symmetry_Int_Tables_number	1
_symmetry_cell_setting	triclinic
loop_
_symmetry_equiv_pos_as_xyz
  x,y,z
_cell_length_a	27.732048
_cell_length_b	14.519731
_cell_length_c	26.210047
_cell_angle_alpha	89.979052
_cell_angle_beta	89.975290
_cell_angle_gamma	83.165754
loop_
_atom_site_label
_atom_site_type_symbol
_atom_site_fract_x
_atom_site_fract_y
_atom_site_fract_z
O1	O	0.063420	1.222772	-0.042436
O2	O	0.563420	1.722772	0.457564
O3	O	0.070870	0.954168	-0.042437
O4	O	0.570870	1.454168	0.457563
O5	O	-0.003211	1.096812	-0.042427
O6	O	0.496789	1.596812	0.457573
O7	O	0.137502	1.080128	-0.042446
O8	O	0.637502	1.580128	0.457554
O9	O	-0.003232	1.096761	0.042431
O10	O	0.496768	1.596761	0.542431
O11	O	0.070850	0.954116	0.042421
O12	O	0.570850	1.454116	0.542421
O13	O	0.063399	1.222720	0.042422
O14	O	0.563399	1.722720	0.542422
Cu15	Cu	0.067122	1.088414	0.050170
Cu16	Cu	0.567122	1.588414	0.550170
Cu17	Cu	0.067147	1.088475	-0.050185
Cu18	Cu	0.567147	1.588475	0.449815
O19	O	0.137481	1.080076	0.042412
O20	O	0.637481	1.580076	0.542412
C21	C	0.070511	0.919789	-0.000008
C22	C	0.570511	1.419789	0.499992
C23	C	0.069465	0.817427	-0.000008
C24	C	0.569465	1.317427	0.499992
C25	C	0.068615	0.734297	-0.000010
C26	C	0.568615	1.234297	0.499990
C27	C	0.067553	0.630007	-0.000010
C28	C	0.567553	1.130007	0.499990
C29	C	0.066710	0.546883	-0.000010
C30	C	0.566710	1.046883	0.499990
C31	C	0.065647	0.442586	-0.000011
C32	C	0.565647	0.942586	0.499989
C33	C	-0.021231	1.096436	0.000004
C34	C	0.478769	1.596436	0.500004
C35	C	-0.074890	1.095382	0.000008
C36	C	0.425110	1.595382	0.500008
C37	C	-0.413331	1.173036	-0.000018
C38	C	0.086669	1.673036	0.499982
C39	C	-0.615010	1.169123	-0.000025
C40	C	-0.115010	1.669123	0.499975
O41	O	-0.645923	1.240132	-0.000047
O42	O	-0.145923	1.740132	0.499953
N43	N	-0.634541	1.084541	-0.000025
N44	N	-0.134541	1.584541	0.499975
C45	C	-0.603649	1.000931	-0.000027
C46	C	-0.103649	1.500931	0.499973
O47	O	-0.624890	0.928899	-0.000032
O48	O	-0.124890	1.428899	0.499968
C49	C	-0.401972	1.004845	-0.000023
C50	C	0.098028	1.504845	0.499977
C51	C	-0.382444	1.089432	-0.000018
C52	C	0.117556	1.589432	0.499982
C53	C	-0.393802	1.257616	-0.000013
C54	C	0.106198	1.757616	0.499987
C55	C	-0.343386	1.258594	-0.000009
C56	C	0.156614	1.758594	0.499991
C57	C	-0.312498	1.174990	-0.000009
C58	C	0.187502	1.674990	0.499991
C59	C	-0.332027	1.090410	-0.000013
C60	C	0.167973	1.590410	0.499987
C61	C	-0.371081	0.921236	-0.000028
C62	C	0.128919	1.421236	0.499972
C63	C	-0.320659	0.922222	-0.000029
C64	C	0.179341	1.422222	0.499971
C65	C	-0.301131	1.006809	-0.000024
C66	C	0.198869	1.506809	0.499976
C67	C	-0.250723	1.007784	-0.000009
C68	C	0.249277	1.507784	0.499991
N69	N	-0.231191	1.092366	-0.000009
N70	N	0.268809	1.592366	0.499991
C71	C	-0.262079	1.175969	-0.000009
C72	C	0.237921	1.675969	0.499991
C73	C	-0.709533	0.998882	-0.000027
C74	C	-0.209533	1.498882	0.499973
C75	C	-0.759953	0.997903	-0.000027
C76	C	-0.259953	1.497903	0.499973
C77	C	-0.771309	1.166096	-0.000027
C78	C	-0.271309	1.666096	0.499973
C79	C	-0.720889	1.167073	-0.000023
C80	C	-0.220889	1.667073	0.499977
C81	C	-0.690002	1.083464	-0.000027
C82	C	-0.190002	1.583464	0.499973
C83	C	-0.156200	1.178015	0.000001
C84	C	0.343800	1.678015	0.500001
C85	C	-0.105778	1.178985	0.000008
C86	C	0.394222	1.678985	0.500008
C87	C	-0.094426	1.010793	0.000005
C88	C	0.405574	1.510793	0.500005
C89	C	-0.144843	1.009823	0.000001
C90	C	0.355157	1.509823	0.500001
C91	C	-0.175729	1.093441	-0.000003
C92	C	0.324271	1.593441	0.499997
O93	O	-0.219781	0.936812	0.000007
O94	O	0.280219	1.436812	0.500007
O95	O	-0.240829	1.247991	-0.000015
O96	O	0.259171	1.747991	0.499985
C97	C	-0.463748	1.172058	-0.000023
C98	C	0.036252	1.672058	0.499977
C99	C	-0.483277	1.087478	-0.000027
C100	C	0.016723	1.587478	0.499973
C101	C	-0.452389	1.003874	-0.000027
C102	C	0.047611	1.503874	0.499973
C103	C	-0.533696	1.086499	-0.000027
C104	C	-0.033696	1.586499	0.499973
C105	C	-0.564584	1.170102	-0.000027
C106	C	-0.064584	1.670102	0.499973
C107	C	-0.545052	1.254685	-0.000027
C108	C	-0.045052	1.754685	0.499973
C109	C	-0.494636	1.255662	-0.000023
C110	C	0.005364	1.755662	0.499977
C111	C	-0.471921	0.919292	-0.000027
C112	C	0.028079	1.419292	0.499973
C113	C	-0.522338	0.918322	-0.000031
C114	C	-0.022338	1.418322	0.499969
C115	C	-0.553225	1.001925	-0.000031
C116	C	-0.053225	1.501925	0.499969
C117	C	0.155500	1.080452	-0.000020
C118	C	0.655500	1.580452	0.499980
C119	C	0.209160	1.081507	-0.000027
C120	C	0.709160	1.581507	0.499973
C121	C	0.063758	1.257099	-0.000008
C122	C	0.563758	1.757099	0.499992
C123	C	0.064804	1.359462	-0.000011
C124	C	0.564804	1.859462	0.499989
N125	N	0.067105	1.088377	0.120754
N126	N	0.567105	1.588377	0.620754
N127	N	0.067161	1.088518	-0.120769
N128	N	0.567161	1.588518	0.379231
C129	C	0.037741	1.032951	0.526735
C130	C	0.537741	1.532951	1.026735
C131	C	0.037729	1.032910	0.313076
C132	C	0.537729	1.532910	0.813076
O133	O	0.012724	0.985727	0.285470
O134	O	0.512724	1.485727	0.785470
N135	N	0.067111	1.088412	0.286337
N136	N	0.567111	1.588412	0.786337
C137	C	0.096497	1.143933	0.313016
C138	C	0.596497	1.643933	0.813016
O139	O	0.121484	1.191147	0.285370
O140	O	0.621484	1.691147	0.785370
C141	C	0.096506	1.143978	0.526674
C142	C	0.596506	1.643978	1.026674
C143	C	0.067125	1.088465	0.553410
C144	C	0.567125	1.588465	1.053410
C145	C	0.008362	0.977443	0.553471
C146	C	0.508362	1.477443	1.053471
C147	C	0.008367	0.977450	0.606883
C148	C	0.508367	1.477450	1.106883
C149	C	0.037752	1.032964	0.633558
C150	C	0.537752	1.532964	1.133558
C151	C	0.067131	1.088472	0.606822
C152	C	0.567131	1.588472	1.106822
C153	C	0.125889	1.199503	0.553352
C154	C	0.625889	1.699503	1.053352
C155	C	0.125887	1.199512	0.606769
C156	C	0.625887	1.699512	1.106769
C157	C	0.096507	1.143999	0.633506
C158	C	0.596507	1.643999	1.133506
C159	C	0.096520	1.143994	0.686908
C160	C	0.596520	1.643994	1.186908
N161	N	0.067138	1.088491	0.713647
N162	N	0.567138	1.588491	1.213647
C163	C	0.037753	1.032977	0.686972
C164	C	0.537753	1.532977	1.186972
C165	C	0.096490	1.143904	0.200843
C166	C	0.596490	1.643904	0.700843
C167	C	0.096489	1.143892	0.147429
C168	C	0.596489	1.643892	0.647429
C169	C	0.037720	1.032870	0.147493
C170	C	0.537720	1.532870	0.647493
C171	C	0.037725	1.032878	0.200908
C172	C	0.537725	1.532878	0.700908
C173	C	0.067108	1.088402	0.227582
C174	C	0.567108	1.588402	0.727582
C175	C	0.037767	1.032995	0.799140
C176	C	0.537767	1.532995	1.299140
C177	C	0.037777	1.033004	0.852556
C178	C	0.537777	1.533004	1.352556
C179	C	0.096543	1.144029	0.852488
C180	C	0.596543	1.644029	1.352488
C181	C	0.096536	1.144017	0.799076
C182	C	0.596536	1.644017	1.299076
C183	C	0.067144	1.088497	0.772404
C184	C	0.567144	1.588497	1.272404
O185	O	0.121508	1.191159	0.714548
O186	O	0.621508	1.691159	1.214548
O187	O	0.012761	0.985785	0.714627
O188	O	0.512761	1.485785	1.214627
C189	C	0.037736	1.032944	0.473324
C190	C	0.537736	1.532944	0.973324
C191	C	0.067115	1.088451	0.446587
C192	C	0.567115	1.588451	0.946587
C193	C	0.096499	1.143966	0.473262
C194	C	0.596499	1.643966	0.973262
C195	C	0.067113	1.088439	0.393173
C196	C	0.567113	1.588439	0.893173
C197	C	0.037729	1.032924	0.366498
C198	C	0.537729	1.532924	0.866498
C199	C	0.008346	0.977422	0.393237
C200	C	0.508346	1.477422	0.893237
C201	C	0.008351	0.977429	0.446649
C202	C	0.508351	1.477429	0.946649
C203	C	0.125881	1.199468	0.446523
C204	C	0.625881	1.699468	0.946523
C205	C	0.125874	1.199456	0.393112
C206	C	0.625874	1.699456	0.893112
C207	C	0.096490	1.143941	0.366437
C208	C	0.596490	1.643941	0.866437
H209	H	-0.089881	1.247869	0.000013
H210	H	0.410119	1.747869	0.500013
Cl211	Cl	0.162838	1.269275	0.519753
Cl212	Cl	0.662838	1.769275	1.019753
H213	H	0.149809	1.244677	0.468237
H214	H	0.649809	1.744677	0.968237
Cl215	Cl	0.162828	1.269320	0.640299
Cl216	Cl	0.662828	1.769320	1.140299
Cl217	Cl	-0.784496	0.891560	-0.000024
Cl218	Cl	-0.284496	1.391560	0.499976
Cl219	Cl	0.000839	0.963209	0.886164
Cl220	Cl	0.500839	1.463209	1.386164
Cl221	Cl	0.000815	0.963200	0.765617
Cl222	Cl	0.500815	1.463200	1.265617
H223	H	-0.015569	0.932236	0.531758
H224	H	0.484431	1.432236	1.031758
Cl225	Cl	0.133466	1.213818	0.765464
Cl226	Cl	0.633466	1.713818	1.265464
Cl227	Cl	-0.318844	1.364938	-0.000017
Cl228	Cl	0.181156	1.864938	0.499983
H229	H	-0.478741	1.324542	-0.000018
H230	H	0.021259	1.824542	0.499982
H231	H	0.120468	1.189226	0.874216
H232	H	0.620468	1.689226	1.374216
Cl233	Cl	-0.028587	0.907638	0.480252
Cl234	Cl	0.471413	1.407638	0.980252
H235	H	0.149804	1.244659	0.371348
H236	H	0.649804	1.744659	0.871348
Cl237	Cl	-0.195021	1.283137	-0.000002
Cl238	Cl	0.304979	1.783137	0.499998
Cl239	Cl	-0.432625	1.362733	-0.000012
Cl240	Cl	0.067375	1.862733	0.499988
Cl241	Cl	-0.583892	1.359785	-0.000025
Cl242	Cl	-0.083892	1.859785	0.499975
Cl243	Cl	-0.028573	0.907663	0.640486
Cl244	Cl	0.471427	1.407663	1.140486
H245	H	0.120420	1.189085	0.125664
H246	H	0.620420	1.689085	0.625664
H247	H	-0.704993	1.235952	-0.000019
H248	H	-0.204993	1.735952	0.499981
H249	H	-0.796467	1.234169	-0.000027
H250	H	-0.296467	1.734169	0.499973
Cl251	Cl	-0.670710	0.893762	-0.000032
Cl252	Cl	-0.170710	1.393762	0.499968
Cl253	Cl	0.000786	0.963090	0.234514
Cl254	Cl	0.500786	1.463090	0.734514
H255	H	0.013796	0.987665	0.125765
H256	H	0.513796	1.487665	0.625765
Cl257	Cl	-0.281832	0.817106	-0.000035
Cl258	Cl	0.218168	1.317106	0.499965
Cl259	Cl	-0.395618	0.814890	-0.000038
Cl260	Cl	0.104382	1.314890	0.499962
H261	H	-0.160744	0.940945	0.000011
H262	H	0.339256	1.440945	0.500011
H263	H	0.120419	1.189121	0.222556
H264	H	0.620419	1.689121	0.722556
H265	H	-0.015578	0.932216	0.371509
H266	H	0.484422	1.432216	0.871509
Cl267	Cl	-0.546881	0.811972	-0.000035
Cl268	Cl	-0.046881	1.311972	0.499965
Cl269	Cl	-0.055587	0.905698	0.000003
Cl270	Cl	0.444413	1.405698	0.500003
Cl271	Cl	-0.433097	0.814179	-0.000028
Cl272	Cl	0.066903	1.314179	0.499972
