data_functionalizedCrystal
_audit_creation_method	'MofGen! by Chris Wilmer'
_symmetry_space_group_name_H-M	'P1'
_symmetry_Int_Tables_number	1
_symmetry_cell_setting	triclinic
loop_
_symmetry_equiv_pos_as_xyz
  x,y,z
_cell_length_a	15.538191
_cell_length_b	17.019294
_cell_length_c	14.185569
_cell_angle_alpha	73.120776
_cell_angle_beta	97.875798
_cell_angle_gamma	65.378207
loop_
_atom_site_label
_atom_site_type_symbol
_atom_site_fract_x
_atom_site_fract_y
_atom_site_fract_z
O1	O	1.234131	-0.238210	-0.062856
O2	O	0.957679	-0.144768	-0.070926
O3	O	1.106220	-0.311499	-0.056520
O4	O	1.085590	-0.071479	-0.077262
O5	O	1.150100	-0.360748	0.114570
O6	O	1.001559	-0.194018	0.100164
O7	O	1.278011	-0.287460	0.108234
Cu8	Cu	1.143792	-0.245235	0.119821
Cu9	Cu	1.091898	-0.186992	-0.082513
O10	O	1.129470	-0.120729	0.093828
C11	C	0.944294	-0.159616	0.013775
C12	C	0.839037	-0.130495	0.011260
C13	C	0.558036	-0.419805	0.036246
C14	C	0.459127	-0.392420	0.033879
C15	C	0.433067	-0.238389	0.020568
C16	C	0.531977	-0.265762	0.022939
C17	C	0.594454	-0.356471	0.030777
C18	C	0.568396	-0.202428	0.017470
C19	C	0.667296	-0.229798	0.019836
C20	C	0.729777	-0.320502	0.027671
C21	C	0.693354	-0.383841	0.033143
C22	C	0.505915	-0.111718	0.009625
C23	C	0.542333	-0.048384	0.004156
C24	C	0.641237	-0.075756	0.006529
C25	C	0.703719	-0.166459	0.014363
C26	C	0.677660	-0.012417	0.001056
C27	C	0.776561	-0.039787	0.003422
C28	C	0.802619	-0.193829	0.016729
C29	C	1.128243	-0.366091	0.031613
C30	C	1.128480	-0.455383	0.039323
C31	C	1.104674	-0.470482	-0.050315
C32	C	1.104891	-0.554379	-0.043067
C33	C	1.128921	-0.623178	0.053819
C34	C	1.152725	-0.608074	0.143464
C35	C	1.152501	-0.524175	0.136215
C36	C	1.130788	-0.877839	0.080372
C37	C	1.131013	-0.961743	0.087614
C38	C	1.083177	-0.908041	-0.098919
C39	C	1.082961	-0.824146	-0.106159
C40	C	1.106760	-0.809046	-0.016514
C41	C	1.129146	-0.708937	0.061230
C42	C	1.106528	-0.723287	-0.023926
C43	C	1.291395	-0.272610	0.023531
C44	C	1.396650	-0.301730	0.026039
C45	C	1.107446	-0.066135	0.005693
C46	C	1.107208	0.023158	-0.002024
N47	N	1.180297	-0.286203	0.262132
N48	N	1.055400	-0.146033	-0.224823
C49	C	0.948146	-0.025704	0.607274
C50	C	0.975806	-0.056733	0.714976
C51	C	1.107364	-0.204340	0.727691
C52	C	1.079712	-0.173325	0.619987
C53	C	1.000104	-0.084006	0.559787
C54	C	1.131670	-0.231627	0.572501
C55	C	1.104024	-0.200612	0.464806
C56	C	1.024420	-0.111295	0.404599
C57	C	0.972458	-0.052991	0.452093
C58	C	1.211282	-0.320943	0.632703
C59	C	1.263240	-0.379245	0.585216
C60	C	1.235590	-0.348233	0.477520
C61	C	1.155986	-0.258916	0.417313
C62	C	1.287552	-0.406537	0.430026
C63	C	1.259906	-0.375522	0.322332
C64	C	1.128340	-0.227902	0.309618
H65	H	0.810304	-0.342781	0.029583
F66	F	1.057387	-0.750930	-0.209279
H67	H	1.085112	-0.414471	-0.129211
F68	F	0.863408	0.069356	0.543201
H69	H	1.085510	-0.566669	-0.116060
H70	H	1.302216	-0.422998	0.283668
H71	H	1.352376	-0.479258	0.479055
F72	F	0.869120	-0.290376	0.025083
H73	H	1.063508	-0.155173	0.260601
F74	F	1.178289	-0.681293	0.246579
H75	H	1.150577	-1.017759	0.166515
F76	F	0.611153	0.084123	-0.007301
H77	H	1.063799	-0.920345	-0.171902
F78	F	0.366564	-0.141851	0.012220
H79	H	0.429481	-0.444001	0.038332
F80	F	1.156106	-0.861775	0.175780
H81	H	0.744229	-0.457706	0.039532
F82	F	0.920498	0.005331	0.765507
F83	F	1.080957	-0.650066	-0.127037
H84	H	1.171873	-0.511880	0.209208
H85	H	0.491451	0.025472	-0.002230
F86	F	0.887720	0.042069	0.388020
F87	F	1.192089	-0.299396	0.791769
F88	F	1.154716	-0.782163	0.164342
H89	H	1.001915	-0.086043	0.316907
F90	F	1.240706	-0.353945	0.747321
F91	F	1.347965	-0.474301	0.649294
H92	H	0.608910	-0.493671	0.042635
H93	H	0.806215	0.011784	-0.001022
F94	F	0.400656	-0.082590	0.007106
