data_functionalizedCrystal
_audit_creation_method	'MofGen! by Chris Wilmer'
_symmetry_space_group_name_H-M	'P1'
_symmetry_Int_Tables_number	1
_symmetry_cell_setting	triclinic
loop_
_symmetry_equiv_pos_as_xyz
  x,y,z
_cell_length_a	21.395362
_cell_length_b	16.959453
_cell_length_c	21.395364
_cell_angle_alpha	90.010943
_cell_angle_beta	90.027061
_cell_angle_gamma	90.035866
loop_
_atom_site_label
_atom_site_type_symbol
_atom_site_fract_x
_atom_site_fract_y
_atom_site_fract_z
Zn1	Zn	0.957802	-0.314488	0.354591
Zn2	Zn	1.457802	0.185512	0.854591
Zn3	Zn	0.957755	-0.446634	0.249815
Zn4	Zn	1.457755	0.053366	0.749815
Zn5	Zn	0.853047	-0.314510	0.249792
Zn6	Zn	1.353047	0.185490	0.749792
Zn7	Zn	0.853005	-0.446665	0.354520
Zn8	Zn	1.353005	0.053335	0.854520
O9	O	0.905402	-0.380574	0.302179
O10	O	1.405402	0.119426	0.802179
O11	O	1.045473	-0.331995	0.340731
O12	O	1.545473	0.168005	0.840731
O13	O	0.943863	-0.429104	0.162134
O14	O	1.443863	0.070896	0.662134
O15	O	0.866981	-0.203896	0.263713
O16	O	1.366981	0.296104	0.763713
O17	O	1.045439	-0.429082	0.263753
O18	O	1.545439	0.070918	0.763753
O19	O	0.943943	-0.203880	0.340709
O20	O	1.443943	0.296120	0.840709
O21	O	0.866935	-0.332033	0.162117
O22	O	1.366935	0.167967	0.662117
O23	O	0.765364	-0.332063	0.263645
O24	O	1.265364	0.167937	0.763645
O25	O	0.866909	-0.429135	0.442207
O26	O	1.366909	0.070865	0.942207
O27	O	0.765333	-0.429157	0.340588
O28	O	1.265333	0.070843	0.840588
O29	O	0.943902	-0.332025	0.442259
O30	O	1.443902	0.167975	0.942259
O31	O	0.943822	-0.557249	0.263685
O32	O	1.443822	-0.057249	0.763685
O33	O	0.866863	-0.557272	0.340611
O34	O	1.366863	-0.057272	0.840611
C35	C	0.742615	-0.380616	0.302107
C36	C	1.242615	0.119384	0.802107
C37	C	0.672973	-0.380653	0.302091
C38	C	1.172973	0.119347	0.802091
C39	C	0.640261	-0.431277	0.342095
C40	C	1.140261	0.068723	0.842095
C41	C	0.574825	-0.431257	0.342123
C42	C	1.074825	0.068743	0.842123
C43	C	0.542105	-0.380623	0.302135
C44	C	1.042105	0.119377	0.802135
C45	C	0.574826	-0.329989	0.262128
C46	C	1.074826	0.170011	0.762128
C47	C	0.640260	-0.330004	0.262106
C48	C	1.140260	0.169996	0.762106
C49	C	0.438396	-0.374247	0.245730
C50	C	0.938396	0.125753	0.745730
C51	C	0.372963	-0.374237	0.245751
C52	C	0.872963	0.125763	0.745751
C53	C	0.340284	-0.380571	0.302204
C54	C	0.840284	0.119429	0.802204
C55	C	0.373047	-0.386931	0.358638
C56	C	0.873047	0.113069	0.858638
C57	C	0.438481	-0.386946	0.358616
C58	C	0.938481	0.113054	0.858616
C59	C	0.471153	-0.380600	0.302155
C60	C	0.971153	0.119400	0.802155
C61	C	0.236619	-0.431176	0.342242
C62	C	0.736619	0.068824	0.842242
C63	C	0.171182	-0.431151	0.342271
C64	C	0.671182	0.068849	0.842271
C65	C	0.171184	-0.329887	0.262271
C66	C	0.671184	0.170113	0.762271
C67	C	0.236620	-0.329908	0.262248
C68	C	0.736620	0.170092	0.762248
C69	C	0.269333	-0.380557	0.302232
C70	C	0.769333	0.119443	0.802232
C71	C	0.905350	-0.585941	0.302156
C72	C	1.405350	-0.085941	0.802156
C73	C	0.905385	-0.673797	0.302168
C74	C	1.405385	-0.173797	0.802168
C75	C	0.945528	-1.045206	0.342346
C76	C	1.445528	-0.545206	0.842346
C77	C	0.865452	-1.045340	0.262106
C78	C	1.365452	-0.545340	0.762106
C79	C	0.865428	-0.962794	0.262091
C80	C	1.365428	-0.462794	0.762091
C81	C	0.905455	-0.921450	0.302206
C82	C	1.405455	-0.421450	0.802206
C83	C	0.945505	-0.962652	0.342335
C84	C	1.445505	-0.462652	0.842335
C85	C	0.825375	-0.921585	0.221967
C86	C	1.325375	-0.421585	0.721967
C87	C	0.825350	-0.839034	0.221952
C88	C	1.325350	-0.339034	0.721952
C89	C	0.865380	-0.797689	0.262064
C90	C	1.365380	-0.297689	0.762064
C91	C	0.905432	-0.838897	0.302194
C92	C	1.405432	-0.338897	0.802194
C93	C	0.945458	-0.797553	0.342308
C94	C	1.445458	-0.297553	0.842308
C95	C	0.985514	-0.838759	0.382436
C96	C	1.485514	-0.338759	0.882436
C97	C	0.985535	-0.921307	0.382447
C98	C	1.485535	-0.421307	0.882447
C99	C	0.865359	-0.715141	0.262053
C100	C	1.365359	-0.215141	0.762053
C101	C	0.945435	-0.714999	0.342297
C102	C	1.445435	-0.214999	0.842297
C103	C	1.068826	-0.380533	0.302253
C104	C	1.568826	0.119467	0.802253
C105	C	1.138467	-0.380515	0.302284
C106	C	1.638467	0.119485	0.802284
C107	C	0.905406	-0.380581	0.465603
C108	C	1.405406	0.119419	0.965603
C109	C	0.905408	-0.380584	0.535244
C110	C	1.405408	0.119416	1.035244
C111	C	0.905472	-0.174406	0.302216
C112	C	1.405472	0.325594	0.802216
C113	C	0.905501	-0.086549	0.302232
C114	C	1.405501	0.413451	0.802232
C115	C	0.945458	-0.431112	1.037050
C116	C	1.445458	0.068888	1.537050
C117	C	0.945457	-0.431118	0.971614
C118	C	1.445457	0.068882	1.471614
C119	C	0.905406	-0.380579	0.938882
C120	C	1.405406	0.119421	1.438882
C121	C	0.865342	-0.330044	0.971591
C122	C	1.365342	0.169956	1.471591
C123	C	0.865340	-0.330046	1.037025
C124	C	1.365340	0.169954	1.537025
C125	C	0.900486	-0.309364	0.835224
C126	C	1.400486	0.190636	1.335224
C127	C	0.900492	-0.309361	0.769791
C128	C	1.400492	0.190639	1.269791
C129	C	0.905409	-0.380575	0.737062
C130	C	1.405409	0.119425	1.237062
C131	C	0.910332	-0.451794	0.769773
C132	C	1.410332	0.048206	1.269773
C133	C	0.910330	-0.451795	0.835207
C134	C	1.410330	0.048205	1.335207
C135	C	0.905404	-0.380572	0.867930
C136	C	1.405404	0.119428	1.367930
C137	C	0.945465	-0.431116	0.633408
C138	C	1.445465	0.068884	1.133408
C139	C	0.945460	-0.431123	0.567971
C140	C	1.445460	0.068877	1.067971
C141	C	0.865348	-0.330042	0.567950
C142	C	1.365348	0.169958	1.067950
C143	C	0.865351	-0.330043	0.633385
C144	C	1.365351	0.169957	1.133385
C145	C	0.905413	-0.380578	0.666110
C146	C	1.405413	0.119422	1.166110
C147	C	0.905396	-0.380585	1.139392
C148	C	1.405396	0.119415	1.639392
C149	C	0.905402	-0.380582	1.069751
C150	C	1.405402	0.119418	1.569751
H151	H	0.144544	-0.288656	0.229715
H152	H	0.644544	0.211344	0.729715
H153	H	0.832735	-0.288892	0.660010
H154	H	1.332735	0.211108	1.160010
H155	H	0.832861	-1.079006	0.229449
H156	H	1.332861	-0.579006	0.729449
H157	H	0.263255	-0.288689	0.229668
H158	H	0.763255	0.211311	0.729668
H159	H	0.896523	-0.251364	0.861868
H160	H	1.396523	0.248636	1.361868
H161	H	1.018101	-0.805087	0.415100
H162	H	1.518101	-0.305087	0.915100
H163	H	0.832732	-0.288896	0.944937
H164	H	1.332732	0.211104	1.444937
H165	H	0.346293	-0.369063	0.199799
H166	H	0.846293	0.130937	0.699799
O167	O	0.822145	-0.275529	1.072300
O168	O	1.322145	0.224471	1.572300
H169	H	0.790254	-0.310910	1.102093
H170	H	1.290254	0.189090	1.602093
O171	O	0.782212	-0.966187	0.178705
O172	O	1.282212	-0.466187	0.678705
H173	H	0.733021	-0.950417	0.189389
H174	H	1.233021	-0.450417	0.689389
O175	O	1.028724	-0.965747	0.425735
O176	O	1.528724	-0.465747	0.925735
H177	H	1.022007	-1.030094	0.419011
H178	H	1.522007	-0.530094	0.919011
H179	H	0.978078	-0.472265	1.063690
H180	H	1.478078	0.027735	1.563690
H181	H	0.263256	-0.472413	0.374804
H182	H	0.763256	0.027587	0.874804
O183	O	0.988724	-1.089640	0.385632
O184	O	1.488724	-0.589640	0.885632
H185	H	0.982015	-1.153988	0.378908
H186	H	1.482015	-0.653988	0.878908
O187	O	0.473636	-0.367413	0.184835
O188	O	0.973636	0.132587	0.684835
H189	H	0.524640	-0.368483	0.194299
H190	H	1.024640	0.131517	0.694299
H191	H	0.144549	-0.472374	0.374852
H192	H	0.644549	0.027626	0.874852
O193	O	0.539532	-0.275394	0.218989
O194	O	1.039532	0.224606	0.718989
H195	H	0.509757	-0.235234	0.247091
H196	H	1.009757	0.264766	0.747091
H197	H	0.896487	-0.251370	0.743163
H198	H	1.396487	0.248630	1.243163
H199	H	0.666894	-0.288778	0.229529
H200	H	1.166894	0.211222	0.729529
H201	H	0.792735	-0.805490	0.189278
H202	H	1.292735	-0.305490	0.689278
O203	O	0.915633	-0.528603	0.870490
O204	O	1.415633	-0.028603	1.370490
H205	H	0.873658	-0.536672	0.900282
H206	H	1.373658	-0.036672	1.400282
O207	O	0.675546	-0.485891	0.385228
O208	O	1.175546	0.014109	0.885228
H209	H	0.641801	-0.521084	0.413055
H210	H	1.141801	-0.021084	0.913055
O211	O	0.822165	-0.670694	0.218776
O212	O	1.322165	-0.170694	0.718776
H213	H	0.794338	-0.713312	0.190883
H214	H	1.294338	-0.213312	0.690883
O215	O	0.988609	-0.670409	0.385562
O216	O	1.488609	-0.170409	0.885562
H217	H	1.020497	-0.632777	0.357549
H218	H	1.520497	-0.132777	0.857549
O219	O	0.988668	-0.485612	0.936331
O220	O	1.488668	0.014388	1.436331
H221	H	1.016528	-0.520747	0.970080
H222	H	1.516528	-0.020747	1.470080
O223	O	0.915630	-0.528613	0.734483
O224	O	1.415630	-0.028613	1.234483
H225	H	0.914795	-0.516652	0.683488
H226	H	1.414795	-0.016652	1.183488
O227	O	0.988662	-0.485631	0.668712
O228	O	1.488662	0.014369	1.168712
H229	H	1.016508	-0.520781	0.634977
H230	H	1.516508	-0.020781	1.134977
H231	H	0.832737	-0.288894	0.541300
H232	H	1.332737	0.211106	1.041300
O233	O	0.539529	-0.485891	0.385247
O234	O	1.039529	0.014109	0.885247
H235	H	0.573270	-0.521124	0.413036
H236	H	1.073270	-0.021124	0.913036
O237	O	0.473820	-0.393789	0.419478
O238	O	0.973820	0.106211	0.919478
H239	H	0.440109	-0.398183	0.458741
H240	H	0.940109	0.101817	0.958741
O241	O	0.988672	-0.485617	0.532696
O242	O	1.488672	0.014383	1.032696
H243	H	1.016534	-0.520746	0.566448
H244	H	1.516534	-0.020746	1.066448
H245	H	0.346441	-0.392087	0.404608
H246	H	0.846441	0.107913	0.904608
