data_functionalizedCrystal
_audit_creation_method	'MofGen! by Chris Wilmer'
_symmetry_space_group_name_H-M	'P1'
_symmetry_Int_Tables_number	1
_symmetry_cell_setting	triclinic
loop_
_symmetry_equiv_pos_as_xyz
  x,y,z
_cell_length_a	17.077404
_cell_length_b	13.897447
_cell_length_c	17.077396
_cell_angle_alpha	90.026095
_cell_angle_beta	90.018362
_cell_angle_gamma	90.017500
loop_
_atom_site_label
_atom_site_type_symbol
_atom_site_fract_x
_atom_site_fract_y
_atom_site_fract_z
Zn1	Zn	1.200073	-0.384067	0.443832
Zn2	Zn	1.199988	-0.545380	0.312571
Zn3	Zn	1.068805	-0.384095	0.312582
Zn4	Zn	1.068780	-0.545316	0.443798
O5	O	1.134411	-0.464714	0.378196
O6	O	1.309909	-0.405481	0.426430
O7	O	1.182561	-0.524023	0.202726
O8	O	1.086264	-0.249109	0.330012
O9	O	1.309846	-0.523996	0.329993
O10	O	1.182706	-0.249089	0.426440
O11	O	1.086181	-0.405528	0.202734
O12	O	0.958955	-0.405466	0.329979
O13	O	1.086222	-0.523888	0.553649
O14	O	0.958937	-0.523915	0.426382
O15	O	1.182682	-0.405419	0.553674
O16	O	1.182537	-0.680353	0.329960
O17	O	1.086139	-0.680306	0.426371
C18	C	0.930464	-0.464687	0.378178
C19	C	0.843214	-0.464699	0.378189
C20	C	0.802257	-0.403097	0.428480
C21	C	0.720277	-0.403103	0.428484
C22	C	0.679254	-0.464717	0.378200
C23	C	0.720217	-0.526321	0.327903
C24	C	0.802196	-0.526309	0.327896
C25	C	0.549347	-0.526343	0.327923
C26	C	0.467362	-0.526356	0.327930
C27	C	0.467428	-0.403137	0.428511
C28	C	0.549406	-0.403125	0.428504
C29	C	0.590363	-0.464731	0.378208
C30	C	1.134348	-0.715329	0.378178
C31	C	1.134392	-0.822543	0.378196
C32	C	1.134430	-0.909612	0.378214
C33	C	1.134485	-1.018845	0.378234
C34	C	1.339156	-0.464743	0.378214
C35	C	1.426405	-0.464755	0.378222
C36	C	1.134459	-0.464643	0.582940
C37	C	1.134479	-0.464613	0.670190
C38	C	1.134497	-0.213121	0.378231
C39	C	1.134533	-0.105907	0.378246
C40	C	1.134409	-0.464716	0.174248
C41	C	1.134541	-0.464474	0.086999
C42	C	1.184708	-0.402921	0.711195
C43	C	1.184717	-0.402889	0.793175
C44	C	1.134501	-0.464554	0.834149
C45	C	1.084267	-0.526249	0.793139
C46	C	1.084255	-0.526276	0.711160
C47	C	1.084299	-0.526191	0.964009
C48	C	1.084313	-0.526166	1.045994
C49	C	1.184762	-0.402805	1.046024
C50	C	1.184749	-0.402831	0.964045
C51	C	1.134516	-0.464527	0.923041
H52	H	0.582805	-0.352960	0.469454
H53	H	0.686933	-0.352943	0.469438
Br54	Br	0.664545	-0.609932	0.259653
H55	H	1.043421	-0.576377	1.079353
Br56	Br	1.252924	-0.319206	0.848821
Br57	Br	0.411845	-0.319529	0.496769
H58	H	0.582691	-0.576506	0.286964
H59	H	0.433964	-0.576528	0.286985
Br60	Br	0.857781	-0.609912	0.259640
H61	H	1.225602	-0.352709	0.677839
Br62	Br	1.252906	-0.319150	0.908437
Br63	Br	1.252939	-0.319078	1.101672
H64	H	1.043381	-0.576416	0.930626
H65	H	1.043378	-0.576455	0.826507
H66	H	1.043345	-0.576502	0.677775
Br67	Br	0.857922	-0.319481	0.496733
