data_functionalizedCrystal
_audit_creation_method	'MofGen! by Chris Wilmer'
_symmetry_space_group_name_H-M	'P1'
_symmetry_Int_Tables_number	1
_symmetry_cell_setting	triclinic
loop_
_symmetry_equiv_pos_as_xyz
  x,y,z
_cell_length_a	29.839131
_cell_length_b	21.395362
_cell_length_c	21.395355
_cell_angle_alpha	89.956060
_cell_angle_beta	90.020172
_cell_angle_gamma	89.942703
loop_
_atom_site_label
_atom_site_type_symbol
_atom_site_fract_x
_atom_site_fract_y
_atom_site_fract_z
Zn1	Zn	-0.178715	-0.957813	0.354578
Zn2	Zn	-0.253830	-0.957696	0.249798
Zn3	Zn	-0.178736	-0.853028	0.249780
Zn4	Zn	-0.253840	-0.852977	0.354503
O5	O	-0.216280	-0.905378	0.302165
O6	O	-0.188667	-1.045475	0.340718
O7	O	-0.243874	-0.943783	0.162117
O8	O	-0.115866	-0.866998	0.263706
O9	O	-0.243853	-1.045389	0.263737
O10	O	-0.115851	-0.943983	0.340701
O11	O	-0.188702	-0.866884	0.162104
O12	O	-0.188711	-0.765343	0.263632
O13	O	-0.243869	-0.866912	0.442191
O14	O	-0.243889	-0.765306	0.340571
O15	O	-0.188676	-0.943934	0.442246
O16	O	-0.316699	-0.943735	0.263663
O17	O	-0.316705	-0.866798	0.340589
C18	C	-0.216304	-0.742591	0.302092
C19	C	-0.216325	-0.672950	0.302076
C20	C	-0.333003	-0.905265	0.302133
C21	C	-0.382937	-0.905274	0.302141
C22	C	-0.216271	-0.905431	0.465588
C23	C	-0.216267	-0.905453	0.535229
C24	C	-0.692564	-0.945512	0.262168
C25	C	-0.880237	-0.945589	0.262192
O26	O	-0.904488	-0.979711	0.228181
N27	N	-0.903722	-0.905508	0.302212
C28	C	-0.880286	-0.865408	0.342231
O29	O	-0.904567	-0.831323	0.376276
C30	C	-0.692614	-0.865334	0.342210
C31	C	-0.669131	-0.905414	0.302183
C32	C	-0.669082	-0.985588	0.222145
C33	C	-0.622166	-0.985566	0.222136
C34	C	-0.598733	-0.945468	0.262152
C35	C	-0.622216	-0.905391	0.302175
C36	C	-0.669178	-0.825238	0.382232
C37	C	-0.622257	-0.825224	0.382224
C38	C	-0.598775	-0.865303	0.342197
C39	C	-0.551867	-0.865271	0.342182
N40	N	-0.528383	-0.905352	0.302162
C41	C	-0.551816	-0.945450	0.262147
C42	C	-0.978816	-0.865449	0.342239
C43	C	-1.025734	-0.865466	0.342244
C44	C	-1.025683	-0.945649	0.262205
C45	C	-0.978764	-0.945627	0.262198
C46	C	-0.955332	-0.905530	0.302219
C47	C	-0.453290	-0.945400	0.262132
C48	C	-0.406370	-0.945373	0.262126
C49	C	-0.406426	-0.865193	0.342167
C50	C	-0.453342	-0.865218	0.342171
C51	C	-0.476772	-0.905327	0.302152
O52	O	-0.527587	-0.831172	0.376180
O53	O	-0.527526	-0.979540	0.228117
C54	C	-0.739480	-0.945534	0.262176
C55	C	-0.762962	-0.905458	0.302199
C56	C	-0.739529	-0.865359	0.342214
C57	C	-0.809880	-0.905475	0.302204
C58	C	-0.833313	-0.945574	0.262189
C59	C	-0.809828	-0.985655	0.222169
C60	C	-0.762913	-0.985633	0.222161
C61	C	-0.763014	-0.825278	0.382234
C62	C	-0.809929	-0.825303	0.382238
C63	C	-0.833362	-0.865402	0.342223
C64	C	-0.099102	-0.905509	0.302210
C65	C	-0.049167	-0.905565	0.302229
C66	C	-0.216257	-1.068802	0.302238
C67	C	-0.216247	-1.138443	0.302269
C68	C	-0.245094	-0.640233	0.342078
C69	C	-0.245083	-0.574798	0.342106
C70	C	-0.216308	-0.542081	0.302120
C71	C	-0.187533	-0.574805	0.262115
C72	C	-0.187541	-0.640239	0.262093
C73	C	-0.212688	-0.438357	0.245715
C74	C	-0.212683	-0.372925	0.245736
C75	C	-0.216278	-0.340261	0.302189
C76	C	-0.219889	-0.373038	0.358623
C77	C	-0.219897	-0.438472	0.358601
C78	C	-0.216295	-0.471129	0.302140
C79	C	-0.245037	-0.236592	0.342226
C80	C	-0.245023	-0.171155	0.342254
C81	C	-0.187475	-0.171164	0.262258
C82	C	-0.187487	-0.236599	0.262235
C83	C	-0.216270	-0.269309	0.302218
C84	C	-0.216257	-0.905363	0.139377
C85	C	-0.216134	-0.905462	0.069736
C86	C	-0.187527	-0.945556	0.567972
C87	C	-0.187507	-0.945556	0.633408
C88	C	-0.216237	-0.905458	0.666098
C89	C	-0.244979	-0.865346	0.633347
C90	C	-0.244994	-0.865344	0.567912
C91	C	-0.256689	-0.900471	0.769760
C92	C	-0.256674	-0.900478	0.835193
C93	C	-0.216189	-0.905461	0.867918
C94	C	-0.175717	-0.910451	0.835203
C95	C	-0.175733	-0.910449	0.769769
C96	C	-0.216223	-0.905455	0.737050
C97	C	-0.187425	-0.945566	0.971614
C98	C	-0.187405	-0.945561	1.037051
C99	C	-0.244881	-0.865355	1.036988
C100	C	-0.244897	-0.865357	0.971553
C101	C	-0.216170	-0.905466	0.938870
H102	H	-0.472362	-0.978062	0.229546
H103	H	-0.743797	-1.018269	0.189567
O104	O	-0.832610	-1.024689	0.183396
C105	C	-0.859699	-1.065133	0.219143
H106	H	-0.845535	-1.068949	0.268492
H107	H	-0.895277	-1.045785	0.221280
C108	C	-0.877758	-1.125609	0.128030
C109	C	-0.860359	-1.130300	0.188640
H110	H	-0.878167	-1.165806	0.109214
H111	H	-0.859509	-1.098360	0.103946
H112	H	-0.907405	-1.109483	0.129819
H113	H	-0.830711	-1.146418	0.186850
H114	H	-0.878603	-1.157554	0.212724
H115	H	-0.209746	-0.346242	0.199785
O116	O	-0.272741	-0.826316	1.068710
C117	C	-0.262945	-0.763879	1.052666
H118	H	-0.227061	-0.760753	1.034674
H119	H	-0.287044	-0.747473	1.014674
C120	C	-0.312237	-0.725903	1.132863
C121	C	-0.268162	-0.722062	1.110770
H122	H	-0.315458	-0.700107	1.168702
H123	H	-0.318839	-0.767968	1.143671
H124	H	-0.332315	-0.712232	1.101197
H125	H	-0.248086	-0.735741	1.142432
H126	H	-0.261558	-0.679999	1.099968
O127	O	-0.273071	-0.543106	0.380989
C128	C	-0.298467	-0.586008	0.416289
H129	H	-0.300005	-0.632621	0.390606
H130	H	-0.282066	-0.593048	0.463913
C131	C	-0.344396	-0.503145	0.456751
C132	C	-0.346288	-0.560394	0.425205
H133	H	-0.373894	-0.487345	0.462255
H134	H	-0.327286	-0.474240	0.432971
H135	H	-0.330726	-0.509019	0.496435
H136	H	-0.359952	-0.554518	0.385520
H137	H	-0.363402	-0.589298	0.448979
H138	H	-0.268369	-0.832696	0.659967
H139	H	-1.044850	-0.832824	0.374832
O140	O	-0.832786	-0.786455	0.421155
C141	C	-0.859866	-0.822123	0.461684
H142	H	-0.866861	-0.869616	0.439643
H143	H	-0.841756	-0.828984	0.508116
C144	C	-0.895868	-0.729332	0.500080
C145	C	-0.904463	-0.787662	0.473005
H146	H	-0.923377	-0.708075	0.507066
H147	H	-0.877623	-0.705301	0.472776
H148	H	-0.880776	-0.735058	0.538770
H149	H	-0.919549	-0.781936	0.434312
H150	H	-0.922711	-0.811692	0.500302
H151	H	-0.209759	-0.464947	0.199741
O152	O	-1.048387	-0.984707	0.223368
C153	C	-1.036852	-1.047130	0.237178
H154	H	-1.002780	-1.048374	0.261269
H155	H	-1.063226	-1.068229	0.269424
C156	C	-1.076499	-1.083610	0.146573
C157	C	-1.034649	-1.085138	0.176157
H158	H	-1.075142	-1.107056	0.108933
H159	H	-1.084271	-1.041554	0.137270
H160	H	-1.098472	-1.101191	0.173451
H161	H	-1.012677	-1.067550	0.149282
H162	H	-1.026873	-1.127191	0.185454
H163	H	-0.289629	-0.896419	0.861825
O164	O	-0.223394	-0.341414	0.413521
C165	C	-0.226565	-0.384374	0.463324
H166	H	-0.239583	-0.430971	0.445013
H167	H	-0.192052	-0.391426	0.485101
C168	C	-0.243078	-0.301599	0.535534
C169	C	-0.259070	-0.358828	0.513045
H170	H	-0.263127	-0.285840	0.566206
H171	H	-0.240941	-0.272655	0.501982
H172	H	-0.214317	-0.307483	0.553678
H173	H	-0.287828	-0.352942	0.494895
H174	H	-0.261214	-0.387771	0.546595
H175	H	-0.959741	-0.832795	0.374830
H176	H	-0.289648	-0.896245	0.743120
H177	H	-0.472462	-0.832584	0.374766
O178	O	-0.272755	-0.826339	0.939713
C179	C	-0.247193	-0.785910	0.901822
H180	H	-0.211806	-0.782078	0.921541
H181	H	-0.245653	-0.805284	0.852246
C182	C	-0.312614	-0.725458	0.876547
C183	C	-0.269152	-0.720747	0.900768
H184	H	-0.326160	-0.685263	0.875894
H185	H	-0.329836	-0.752697	0.902073
H186	H	-0.311325	-0.741605	0.835235
H187	H	-0.270442	-0.704608	0.942081
H188	H	-0.251931	-0.693504	0.875249
O189	O	-0.272987	-0.672074	0.380955
C190	C	-0.247456	-0.709995	0.421487
H191	H	-0.213389	-0.719833	0.399471
H192	H	-0.242563	-0.684831	0.467937
C193	C	-0.314036	-0.760038	0.459797
C194	C	-0.272195	-0.772125	0.432754
H195	H	-0.329296	-0.798361	0.466750
H196	H	-0.331237	-0.734488	0.432491
H197	H	-0.309953	-0.739066	0.498502
H198	H	-0.276279	-0.793089	0.394047
H199	H	-0.254995	-0.797679	0.460054
H200	H	-0.268398	-0.832683	0.541253
O201	O	-0.223335	-0.470378	0.413385
C202	C	-0.185095	-0.508284	0.421540
H203	H	-0.169154	-0.518058	0.374126
H204	H	-0.159942	-0.483140	0.452753
C205	C	-0.218415	-0.558450	0.510570
C206	C	-0.198838	-0.570458	0.452334
H207	H	-0.226892	-0.596801	0.529567
H208	H	-0.244178	-0.532911	0.505077
H209	H	-0.197452	-0.537495	0.536573
H210	H	-0.219804	-0.591406	0.426329
H211	H	-0.173080	-0.596003	0.457823
O212	O	-0.599448	-0.786240	0.421015
C213	C	-0.572367	-0.745762	0.385294
H214	H	-0.565329	-0.767876	0.337838
H215	H	-0.590498	-0.699343	0.378355
C216	C	-0.536447	-0.707217	0.478038
C217	C	-0.527799	-0.734380	0.419753
H218	H	-0.508956	-0.700193	0.499295
H219	H	-0.554692	-0.734486	0.502105
H220	H	-0.551556	-0.668537	0.472247
H221	H	-0.512695	-0.773062	0.425545
H222	H	-0.509550	-0.707117	0.395688
O223	O	-0.159475	-0.984541	0.939958
C224	C	-0.134107	-1.019945	0.982894
H225	H	-0.132544	-0.994283	1.029518
H226	H	-0.150549	-1.067513	0.989889
C227	C	-0.088218	-1.060544	0.900097
C228	C	-0.086295	-1.029023	0.957361
H229	H	-0.058726	-1.066147	0.884347
H230	H	-0.105310	-1.036694	0.871170
H231	H	-0.101922	-1.100181	0.905935
H232	H	-0.072597	-0.989385	0.951521
H233	H	-0.069200	-1.052868	0.986286
O234	O	-0.273006	-0.268274	0.381128
C235	C	-0.298401	-0.225363	0.416437
H236	H	-0.279995	-0.178753	0.418669
H237	H	-0.332497	-0.218320	0.393412
C238	C	-0.327554	-0.308213	0.480355
C239	C	-0.304945	-0.250966	0.483100
H240	H	-0.331592	-0.324007	0.521475
H241	H	-0.310446	-0.337124	0.456565
H242	H	-0.355964	-0.302336	0.461165
H243	H	-0.276533	-0.256845	0.502283
H244	H	-0.322049	-0.222057	0.506895
H245	H	-0.268450	-0.144519	0.374833
H246	H	-0.164101	-0.978211	0.660072
H247	H	-0.688290	-0.792598	0.414823
H248	H	-0.164043	-0.144526	0.229704
H249	H	-0.387252	-0.978010	0.229529
O250	O	-0.740324	-0.786262	0.421123
C251	C	-0.771119	-0.750906	0.456453
H252	H	-0.804573	-0.748776	0.430790
H253	H	-0.776070	-0.773824	0.504071
C254	C	-0.711787	-0.686821	0.496911
C255	C	-0.752875	-0.684200	0.465387
H256	H	-0.700533	-0.645674	0.502425
H257	H	-0.691040	-0.710642	0.473110
H258	H	-0.715919	-0.705922	0.536589
H259	H	-0.748742	-0.665106	0.425708
H260	H	-0.773621	-0.660373	0.489182
O261	O	-0.599428	-1.024565	0.183241
C262	C	-0.630180	-1.059948	0.147920
H263	H	-0.663613	-1.062106	0.173594
H264	H	-0.635206	-1.037034	0.100304
C265	C	-0.570755	-1.123983	0.107445
C266	C	-0.611818	-1.126639	0.138981
H267	H	-0.559428	-1.165120	0.101928
H268	H	-0.550037	-1.100144	0.131239
H269	H	-0.574949	-1.104886	0.067768
H270	H	-0.607622	-1.145728	0.178660
H271	H	-0.632535	-1.150483	0.115194
O272	O	-0.159529	-0.268286	0.223312
C273	C	-0.134119	-0.225381	0.188036
H274	H	-0.152511	-0.178704	0.185835
H275	H	-0.100022	-0.218504	0.211070
C276	C	-0.104986	-0.308185	0.124064
C277	C	-0.127578	-0.250857	0.121356
H278	H	-0.100950	-0.323900	0.082933
H279	H	-0.122104	-0.337092	0.147831
H280	H	-0.076575	-0.302446	0.143262
H281	H	-0.155991	-0.256598	0.102166
H282	H	-0.110465	-0.221952	0.097584
O283	O	-0.159539	-0.543124	0.223252
C284	C	-0.134155	-0.586035	0.187926
H285	H	-0.132632	-0.632709	0.213579
H286	H	-0.150557	-0.592917	0.140296
C287	C	-0.088200	-0.503239	0.147519
C288	C	-0.086326	-0.560564	0.179028
H289	H	-0.058697	-0.487527	0.142027
H290	H	-0.105302	-0.474328	0.171316
H291	H	-0.101870	-0.508981	0.107831
H292	H	-0.072661	-0.554819	0.218718
H293	H	-0.069220	-0.589473	0.155237
H294	H	-0.959647	-0.978263	0.229605
H295	H	-0.164112	-0.666876	0.229518
H296	H	-0.164134	-0.978216	0.541366
O297	O	-0.136380	-0.915267	0.738086
C298	C	-0.100642	-0.919683	0.780995
H299	H	-0.111268	-0.898622	0.827625
H300	H	-0.091302	-0.970894	0.787988
C301	C	-0.046814	-0.909647	0.698157
C302	C	-0.059864	-0.883774	0.755428
H303	H	-0.021660	-0.887499	0.682386
H304	H	-0.070892	-0.906674	0.669248
H305	H	-0.039034	-0.952322	0.703993
H306	H	-0.067650	-0.841102	0.749590
H307	H	-0.035787	-0.886739	0.784336
H308	H	-0.387340	-0.832544	0.374745
H309	H	-0.142751	-0.914510	0.861847
H310	H	-0.163998	-0.978217	1.063709
H311	H	-0.688156	-1.018245	0.189559
