data_functionalizedCrystal
_audit_creation_method	'MofGen! by Chris Wilmer'
_symmetry_space_group_name_H-M	'P1'
_symmetry_Int_Tables_number	1
_symmetry_cell_setting	triclinic
loop_
_symmetry_equiv_pos_as_xyz
  x,y,z
_cell_length_a	21.295416
_cell_length_b	18.215407
_cell_length_c	21.295120
_cell_angle_alpha	89.938081
_cell_angle_beta	90.359211
_cell_angle_gamma	89.963524
loop_
_atom_site_label
_atom_site_type_symbol
_atom_site_fract_x
_atom_site_fract_y
_atom_site_fract_z
Zn1	Zn	0.248466	1.125389	-0.355848
Zn2	Zn	0.748466	1.625389	0.144152
Zn3	Zn	0.354342	1.125184	-0.250575
Zn4	Zn	0.854342	1.625184	0.249425
Zn5	Zn	0.249102	1.002220	-0.250599
Zn6	Zn	0.749102	1.502220	0.249401
Zn7	Zn	0.353712	1.002276	-0.355820
Zn8	Zn	0.853712	1.502276	0.144180
O9	O	0.301406	1.063767	-0.303211
O10	O	0.801406	1.563767	0.196789
O11	O	0.262508	1.228346	-0.341886
O12	O	0.762508	1.728346	0.158114
O13	O	0.340912	1.108763	-0.162486
O14	O	0.840912	1.608763	0.337514
O15	O	0.160928	1.018621	-0.264583
O16	O	0.660928	1.518621	0.235417
O17	O	0.340295	1.228195	-0.264542
O18	O	0.840295	1.728195	0.235458
O19	O	0.160461	1.109113	-0.341909
O20	O	0.660461	1.609113	0.158091
O21	O	0.263592	1.018422	-0.162504
O22	O	0.763592	1.518422	0.337496
O23	O	0.262982	0.899243	-0.264555
O24	O	0.762982	1.399243	0.235445
O25	O	0.339221	1.018717	-0.443916
O26	O	0.839221	1.518717	0.056084
O27	O	0.339838	0.899284	-0.341860
O28	O	0.839838	1.399284	0.158140
O29	O	0.261897	1.109167	-0.443937
O30	O	0.761897	1.609167	0.056063
O31	O	0.442348	1.108817	-0.264513
O32	O	0.942348	1.608817	0.235487
O33	O	0.441886	1.018518	-0.341836
O34	O	0.941886	1.518518	0.158164
C35	C	0.464958	1.063671	-0.303183
C36	C	0.964958	1.563671	0.196817
C37	C	0.534926	1.063698	-0.303192
C38	C	1.034926	1.563698	0.196808
C39	C	0.301411	0.872561	-0.303207
C40	C	0.801411	1.372561	0.196793
C41	C	0.301429	0.790762	-0.303221
C42	C	0.801429	1.290762	0.196779
C43	C	0.300418	1.063971	-0.467406
C44	C	0.800418	1.563971	0.032594
C45	C	0.299997	1.064058	-0.537377
C46	C	0.799997	1.564058	-0.037377
C47	C	0.568012	1.110759	-0.262973
C48	C	1.068012	1.610759	0.237027
C49	C	0.633754	1.110793	-0.262990
C50	C	1.133754	1.610793	0.237010
C51	C	0.666408	1.063754	-0.303219
C52	C	1.166408	1.563754	0.196781
C53	C	0.633313	1.016690	-0.343446
C54	C	1.133313	1.516690	0.156554
C55	C	0.567572	1.016661	-0.343433
C56	C	1.067572	1.516661	0.156567
N57	N	0.769652	0.999380	-0.308022
N58	N	1.269652	1.499380	0.191978
N59	N	0.832103	0.999409	-0.308031
N60	N	1.332103	1.499409	0.191969
C61	C	0.864482	1.063837	-0.303264
C62	C	1.364482	1.563837	0.196736
N63	N	0.832051	1.128237	-0.298475
N64	N	1.332051	1.628237	0.201525
N65	N	0.769594	1.128207	-0.298462
N66	N	1.269594	1.628207	0.201538
C67	C	0.737693	1.063780	-0.303239
C68	C	1.237693	1.563780	0.196761
C69	C	0.968854	1.110940	-0.263061
C70	C	1.468854	1.610940	0.236939
C71	C	1.034598	1.110976	-0.263082
C72	C	1.534598	1.610976	0.236918
C73	C	1.034156	1.016865	-0.343536
C74	C	1.534156	1.516865	0.156464
C75	C	0.968413	1.016836	-0.343518
C76	C	1.468413	1.516836	0.156482
C77	C	0.935766	1.063872	-0.303277
C78	C	1.435766	1.563872	0.196723
C79	C	1.137215	1.063884	-0.303263
C80	C	1.637215	1.563884	0.196737
C81	C	1.067247	1.063937	-0.303313
C82	C	1.567247	1.563937	0.196687
C83	C	0.301401	1.255720	-0.303214
C84	C	0.801401	1.755720	0.196786
C85	C	0.301398	1.337519	-0.303216
C86	C	0.801398	1.837519	0.196784
C87	C	0.260913	1.525793	-0.343487
C88	C	0.760913	2.025793	0.156513
C89	C	0.260919	1.602651	-0.343490
C90	C	0.760919	2.102651	0.156510
C91	C	0.341918	1.602483	-0.262947
C92	C	0.841918	2.102483	0.237053
C93	C	0.341915	1.525626	-0.262949
C94	C	0.841915	2.025626	0.237051
C95	C	0.301409	1.487282	-0.303218
C96	C	0.801409	1.987282	0.196782
C97	C	0.301418	1.640999	-0.303219
C98	C	0.801418	2.140999	0.196781
C99	C	0.301425	1.724332	-0.303221
C100	C	0.801425	2.224332	0.196779
C101	C	0.301403	1.403944	-0.303216
C102	C	0.801403	1.903944	0.196784
C103	C	0.302344	1.063606	-0.139653
C104	C	0.802344	1.563606	0.360347
C105	C	0.302588	1.063662	-0.069683
C106	C	0.802588	1.563662	0.430317
C107	C	0.261875	1.110429	-0.037338
C108	C	0.761875	1.610429	0.462662
C109	C	0.261557	1.110483	0.028402
C110	C	0.761557	1.610483	0.528402
C111	C	0.301945	1.063757	0.061795
C112	C	0.801945	1.563757	0.561795
C113	C	0.342666	1.016987	0.029442
C114	C	0.842666	1.516987	0.529442
C115	C	0.342987	1.016939	-0.036297
C116	C	0.842987	1.516939	0.463703
N117	N	0.306671	0.999452	0.165164
N118	N	0.806671	1.499452	0.665164
N119	N	0.306362	0.999499	0.227613
N120	N	0.806362	1.499499	0.727613
C121	C	0.300981	1.063899	0.259864
C122	C	0.800981	1.563899	0.759864
N123	N	0.295908	1.128251	0.227306
N124	N	0.795908	1.628251	0.727306
N125	N	0.296213	1.128203	0.164851
N126	N	0.796213	1.628203	0.664851
C127	C	0.301602	1.063804	0.133079
C128	C	0.801602	1.563804	0.633079
C129	C	0.259921	1.110729	0.363493
C130	C	0.759921	1.610729	0.863493
C131	C	0.259607	1.110784	0.429235
C132	C	0.759607	1.610784	0.929235
C133	C	0.340713	1.017281	0.430273
C134	C	0.840713	1.517281	0.930273
C135	C	0.341030	1.017232	0.364533
C136	C	0.841030	1.517232	0.864533
C137	C	0.300631	1.063955	0.331146
C138	C	0.800631	1.563955	0.831146
H139	H	0.541433	1.149060	-0.230208
H140	H	1.041433	1.649060	0.269792
H141	H	1.060741	0.978568	-0.376294
H142	H	1.560741	1.478568	0.123706
C143	C	0.214816	1.162233	0.464814
C144	C	0.714816	1.662233	0.964814
N145	N	0.181077	1.200983	0.491613
N146	N	0.681077	1.700983	0.991613
H147	H	0.540633	0.978338	-0.376185
H148	H	1.040633	1.478338	0.123815
H149	H	0.374895	1.494270	-0.230156
H150	H	0.874895	1.994270	0.269844
C151	C	0.215488	1.162132	0.326766
C152	C	0.715488	1.662132	0.826766
N153	N	0.182021	1.200851	0.299105
N154	N	0.682021	1.700851	0.799105
C155	C	0.385142	0.965882	0.467002
C156	C	0.885142	1.465882	0.967002
N157	N	0.418608	0.927169	0.494669
N158	N	0.918608	1.427169	0.994669
H159	H	0.660699	1.149119	-0.230238
H160	H	1.160699	1.649119	0.269762
H161	H	0.659904	0.978391	-0.376203
H162	H	1.159904	1.478391	0.123797
H163	H	0.374180	0.979146	0.338197
H164	H	0.874180	1.479146	0.838197
C165	C	0.932941	1.162691	-0.218805
C166	C	1.432941	1.662691	0.281195
N167	N	0.905892	1.201673	-0.185473
N168	N	1.405892	1.701673	0.314527
C169	C	0.387092	0.965586	0.066176
C170	C	0.887092	1.465586	0.566176
N171	N	0.420556	0.926870	0.093843
N172	N	0.920556	1.426870	0.593843
C173	C	1.070993	1.162749	-0.218835
C174	C	1.570993	1.662749	0.281165
N175	N	1.098406	1.201744	-0.185506
N176	N	1.598406	1.701744	0.314494
C177	C	0.217439	1.161831	-0.074059
C178	C	0.717439	1.661831	0.425941
N179	N	0.183971	1.200550	-0.101719
N180	N	0.683971	1.700550	0.398281
H181	H	0.227930	1.494576	-0.376277
H182	H	0.727930	1.994576	0.123723
C183	C	0.932017	0.965079	-0.387776
C184	C	1.432017	1.465079	0.112224
N185	N	0.904603	0.926102	-0.421120
N186	N	1.404603	1.426102	0.078880
H187	H	0.376142	0.978854	-0.062632
H188	H	0.876142	1.478854	0.437368
C189	C	0.216367	1.645009	-0.387787
C190	C	0.716367	2.145009	0.112213
N191	N	0.182808	1.676912	-0.421153
N192	N	0.682808	2.176912	0.078847
C193	C	0.386465	1.644668	-0.218646
C194	C	0.886465	2.144668	0.281354
N195	N	0.420016	1.676440	-0.185275
N196	N	0.920016	2.176440	0.314725
H197	H	0.228401	1.148566	0.054743
H198	H	0.728401	1.648566	0.554743
