data_functionalizedCrystal
_audit_creation_method	'MofGen! by Chris Wilmer'
_symmetry_space_group_name_H-M	'P1'
_symmetry_Int_Tables_number	1
_symmetry_cell_setting	triclinic
loop_
_symmetry_equiv_pos_as_xyz
  x,y,z
_cell_length_a	17.699077
_cell_length_b	16.776229
_cell_length_c	14.971486
_cell_angle_alpha	90.011612
_cell_angle_beta	96.552648
_cell_angle_gamma	90.003019
loop_
_atom_site_label
_atom_site_type_symbol
_atom_site_fract_x
_atom_site_fract_y
_atom_site_fract_z
O1	O	1.004357	0.066268	-0.113071
O2	O	1.504357	0.566268	0.386929
O3	O	0.784015	0.066271	-0.127793
O4	O	1.284015	0.566271	0.372207
O5	O	0.900092	0.066275	0.009789
O6	O	1.400092	0.566275	0.509789
O7	O	0.888280	0.066263	-0.250652
O8	O	1.388280	0.566263	0.249348
O9	O	0.900081	-0.066301	0.009765
O10	O	1.400081	0.433699	0.509765
O11	O	0.784004	-0.066306	-0.127817
O12	O	1.284004	0.433694	0.372183
O13	O	1.004347	-0.066309	-0.113095
O14	O	1.504347	0.433691	0.386905
Zn15	Zn	0.894173	-0.087357	-0.120460
Zn16	Zn	1.394173	0.412643	0.379540
Zn17	Zn	0.894188	0.087319	-0.120428
Zn18	Zn	1.394188	0.587319	0.379572
O19	O	0.888269	-0.066313	-0.250676
O20	O	1.388269	0.433687	0.249324
C21	C	0.755811	-0.000017	-0.127278
C22	C	1.255811	0.499983	0.372722
C23	C	0.671789	-0.000016	-0.125698
C24	C	1.171789	0.499984	0.374302
C25	C	0.632314	-0.072284	-0.124967
C26	C	1.132314	0.427716	0.375033
C27	C	0.553367	-0.072285	-0.123468
C28	C	1.053367	0.427715	0.376532
C29	C	0.513897	-0.000016	-0.122707
C30	C	1.013897	0.499984	0.377293
C31	C	0.553378	0.072257	-0.123436
C32	C	1.053378	0.572257	0.376564
C33	C	0.632323	0.072257	-0.124928
C34	C	1.132323	0.572257	0.375072
C35	C	0.235000	0.072259	-0.117417
C36	C	0.735000	0.572259	0.382583
C37	C	0.156048	0.072254	-0.115927
C38	C	0.656048	0.572254	0.384073
C39	C	0.156044	-0.072283	-0.115957
C40	C	0.656044	0.427717	0.384043
C41	C	0.234989	-0.072283	-0.117449
C42	C	0.734989	0.427717	0.382551
C43	C	0.274464	-0.000010	-0.118173
C44	C	0.774464	0.499990	0.381827
C45	C	0.360066	-0.000010	-0.119796
C46	C	0.860066	0.499990	0.380204
C47	C	0.428295	-0.000016	-0.121090
C48	C	0.928295	0.499984	0.378910
N49	N	0.894169	-0.206568	-0.120481
N50	N	1.394169	0.293432	0.379519
C51	C	0.848246	-0.751737	-0.066227
C52	C	1.348246	-0.251737	0.433773
C53	C	0.848245	-0.668284	-0.066234
C54	C	1.348245	-0.168284	0.433766
C55	C	0.894191	-0.626567	-0.120420
C56	C	1.394191	-0.126567	0.379580
C57	C	0.940147	-0.668307	-0.174596
C58	C	1.440147	-0.168307	0.325404
C59	C	0.940153	-0.751757	-0.174583
C60	C	1.440153	-0.251757	0.325417
C61	C	0.940128	-0.331759	-0.174648
C62	C	1.440128	0.168241	0.325352
C63	C	0.940117	-0.248303	-0.174659
C64	C	1.440117	0.251697	0.325341
C65	C	0.848220	-0.248286	-0.066300
C66	C	1.348220	0.251714	0.433700
C67	C	0.848225	-0.331737	-0.066287
C68	C	1.348225	0.168263	0.433713
C69	C	0.894184	-0.373469	-0.120458
C70	C	1.394184	0.126531	0.379542
C71	C	0.894187	-0.463958	-0.120448
C72	C	1.394187	0.036042	0.379552
C73	C	0.894185	-0.536080	-0.120436
C74	C	1.394185	-0.036080	0.379564
C75	C	1.032550	-0.000019	-0.113609
C76	C	1.532550	0.499981	0.386391
C77	C	1.116573	-0.000015	-0.115189
C78	C	1.616573	0.499985	0.384811
C79	C	0.888803	-0.000026	-0.283987
C80	C	1.388803	0.499974	0.216013
C81	C	0.890386	-0.000031	-0.383279
C82	C	1.390386	0.499969	0.116721
N83	N	0.894198	0.206530	-0.120400
N84	N	1.394198	0.706530	0.379600
C85	C	0.822194	-0.000029	-0.440740
C86	C	1.322194	0.499971	0.059260
C87	C	0.823686	-0.000018	-0.534035
C88	C	1.323686	0.499982	-0.034035
C89	C	0.893371	-0.000015	-0.569866
C90	C	1.393371	0.499985	-0.069866
C91	C	0.961568	-0.000014	-0.512397
C92	C	1.461568	0.499986	-0.012397
C93	C	0.960075	-0.000019	-0.419104
C94	C	1.460075	0.499981	0.080896
C95	C	0.964674	-0.000006	-0.706848
C96	C	1.464674	0.499994	-0.206848
C97	C	0.966167	-0.000002	-0.800147
C98	C	1.466167	0.499998	-0.300147
C99	C	0.828285	-0.000005	-0.821779
C100	C	1.328285	0.499995	-0.321779
C101	C	0.826792	-0.000010	-0.728486
C102	C	1.326792	0.499990	-0.228486
C103	C	0.894990	-0.000010	-0.671024
C104	C	1.394990	0.499990	-0.171024
C105	C	0.899558	-0.000010	0.043100
C106	C	1.399558	0.499990	0.543100
C107	C	0.897975	-0.000000	0.142391
C108	C	1.397975	0.500000	0.642391
H109	H	0.267122	-0.131131	-0.118073
H110	H	0.767122	0.368869	0.381927
N111	N	0.989708	-0.796780	-0.233013
N112	N	1.489708	-0.296780	0.266987
H113	H	1.026718	-0.831386	-0.194004
H114	H	1.526718	-0.331386	0.305996
H115	H	1.018765	-0.757646	-0.267338
H116	H	1.518765	-0.257646	0.232662
H117	H	1.018307	-0.000013	-0.541578
H118	H	1.518307	0.499987	-0.041578
H119	H	0.123894	-0.131131	-0.115363
H120	H	0.623894	0.368869	0.384637
H121	H	0.765448	-0.000041	-0.411575
H122	H	1.265448	0.499959	0.088425
H123	H	0.664444	-0.131133	-0.125594
H124	H	1.164444	0.368867	0.374406
H125	H	0.770049	-0.000016	-0.699316
H126	H	1.270049	0.499984	-0.199316
N127	N	1.041323	-0.000002	-0.838803
N128	N	1.541323	0.499998	-0.338803
H129	H	1.071208	0.049146	-0.817837
H130	H	1.571208	0.549146	-0.317837
H131	H	1.031845	-0.000035	-0.906616
H132	H	1.531845	0.499965	-0.406616
H133	H	0.977550	-0.365728	-0.218758
H134	H	1.477550	0.134272	0.281242
N135	N	1.038226	-0.000016	-0.644864
N136	N	1.538226	0.499984	-0.144864
H137	H	1.040687	0.049127	-0.605657
H138	H	1.540687	0.549127	-0.105657
H139	H	1.082558	-0.000048	-0.681776
H140	H	1.582558	0.499952	-0.181776
N141	N	0.113474	0.150204	-0.115103
N142	N	0.613474	0.650204	0.384897
H143	H	0.150460	0.195989	-0.115785
H144	H	0.650460	0.695989	0.384215
H145	H	0.086806	0.153345	-0.059057
H146	H	0.586806	0.653345	0.440943
H147	H	0.267131	0.131109	-0.118003
H148	H	0.767131	0.631109	0.381997
N149	N	0.510812	0.150206	-0.122604
N150	N	1.010812	0.650206	0.377396
H151	H	0.454809	0.139242	-0.121549
H152	H	0.954809	0.639242	0.378451
H153	H	0.518525	0.181766	-0.178284
H154	H	1.018525	0.681766	0.321716
N155	N	0.674905	0.150203	-0.125710
N156	N	1.174905	0.650203	0.374290
H157	H	0.637923	0.195986	-0.125002
H158	H	1.137923	0.695986	0.374998
H159	H	0.701574	0.153353	-0.181754
H160	H	1.201574	0.653353	0.318246
H161	H	0.810800	-0.214298	-0.022189
H162	H	1.310800	0.285702	0.477811
N163	N	0.750136	-0.000015	-0.596012
N164	N	1.250136	0.499985	-0.096012
H165	H	0.705765	-0.000023	-0.559157
H166	H	1.205765	0.499977	-0.059157
H167	H	0.747751	-0.049160	-0.635208
H168	H	1.247751	0.450840	-0.135208
H169	H	0.810828	-0.785697	-0.022107
H170	H	1.310828	-0.285697	0.477893
N171	N	0.989679	-0.203301	-0.233097
N172	N	1.489679	0.296699	0.266903
H173	H	0.974817	-0.217844	-0.298199
H174	H	1.474817	0.282156	0.201801
H175	H	1.044713	-0.217826	-0.215283
H176	H	1.544713	0.282174	0.284717
N177	N	0.798687	-0.623271	-0.007801
N178	N	1.298687	-0.123271	0.492199
H179	H	0.769578	-0.662361	0.026523
H180	H	1.269578	-0.162361	0.526523
H181	H	0.761722	-0.588659	-0.046861
H182	H	1.261722	-0.088659	0.453139
H183	H	0.810808	-0.365699	-0.022167
H184	H	1.310808	0.134301	0.477833
H185	H	0.772756	-0.000007	-0.868569
H186	H	1.272756	0.499993	-0.368569
N187	N	0.989711	-0.623316	-0.233032
N188	N	1.489711	-0.123316	0.266968
H189	H	0.982735	-0.564118	-0.224823
H190	H	1.482735	-0.064118	0.275177
H191	H	0.974818	-0.637925	-0.298107
H192	H	1.474818	-0.137925	0.201893
N193	N	1.033625	-0.000017	-0.357123
N194	N	1.533625	0.499983	0.142877
H195	H	1.077997	-0.000015	-0.393977
H196	H	1.577997	0.499985	0.106023
H197	H	1.036007	-0.049165	-0.317957
H198	H	1.536007	0.450835	0.182043
H199	H	0.521232	-0.131133	-0.122858
H200	H	1.021232	0.368867	0.377142
