data_functionalizedCrystal
_audit_creation_method	'MofGen! by Chris Wilmer'
_symmetry_space_group_name_H-M	'P1'
_symmetry_Int_Tables_number	1
_symmetry_cell_setting	triclinic
loop_
_symmetry_equiv_pos_as_xyz
  x,y,z
_cell_length_a	11.026607
_cell_length_b	14.853567
_cell_length_c	10.065875
_cell_angle_alpha	98.805381
_cell_angle_beta	79.302338
_cell_angle_gamma	96.110474
loop_
_atom_site_label
_atom_site_type_symbol
_atom_site_fract_x
_atom_site_fract_y
_atom_site_fract_z
O1	O	1.628533	0.367252	-0.113466
O2	O	1.275155	0.324252	-0.113471
O3	O	1.461284	0.216045	-0.113472
O4	O	1.442404	0.475459	-0.113464
O5	O	1.425792	0.236785	0.113517
O6	O	1.239663	0.344992	0.113518
O7	O	1.593041	0.387992	0.113524
Zn8	Zn	1.410717	0.369785	0.149560
Zn9	Zn	1.457479	0.342459	-0.149507
O10	O	1.406912	0.496199	0.113525
C11	C	1.212185	0.326689	0.000023
C12	C	1.077432	0.303041	0.000021
C13	C	1.003736	0.368337	0.000022
C14	C	0.864461	0.343897	0.000019
C15	C	1.442683	0.192688	0.000018
C16	C	1.440122	0.092190	0.000007
C17	C	1.318718	-0.339931	0.000031
C18	C	1.539843	-0.325531	0.000034
C19	C	1.542254	-0.231109	0.000026
C20	C	1.432895	-0.191094	0.000022
C21	C	1.321126	-0.245500	0.000027
C22	C	1.654020	-0.176694	0.000035
C23	C	1.656436	-0.082266	0.000029
C24	C	1.547077	-0.042250	0.000016
C25	C	1.435303	-0.096663	0.000019
C26	C	1.325944	-0.056648	0.000015
C27	C	1.214170	-0.111060	0.000008
C28	C	1.211767	-0.205484	0.000014
C29	C	1.549480	0.052174	0.000010
C30	C	1.328352	0.037783	0.000011
C31	C	1.656012	0.385555	0.000027
C32	C	1.790767	0.409202	0.000020
C33	C	1.425514	0.519556	0.000031
C34	C	1.428077	0.620053	0.000034
N35	N	1.378812	0.388434	0.353666
N36	N	1.489394	0.323804	-0.353613
C37	C	1.446371	0.348941	0.421444
C38	C	1.421825	0.363303	0.578612
H39	H	1.043751	0.442332	0.000032
H40	H	1.302796	0.432874	0.411993
H41	H	1.037421	0.229043	-0.000017
C42	C	0.682944	0.239122	0.000003
C43	C	0.810461	0.243997	0.000009
H44	H	0.649611	0.177448	-0.000013
H45	H	0.643993	0.275525	0.079158
H46	H	0.668751	0.261074	-0.079155
H47	H	0.824654	0.222052	0.079173
H48	H	0.849424	0.207581	-0.079154
H49	H	1.345804	0.407746	0.636933
C50	C	1.539679	0.190451	0.485883
C51	C	1.591853	0.263598	0.567835
H52	H	1.602887	0.153227	0.437434
H53	H	1.480148	0.155146	0.541757
H54	H	1.500637	0.213374	0.422863
H55	H	1.630888	0.240675	0.630862
H56	H	1.651406	0.298909	0.511956
C57	C	0.972290	0.513975	-0.000023
C58	C	0.844770	0.509099	-0.000009
H59	H	1.005629	0.575645	-0.000058
H60	H	0.986494	0.492051	0.079139
H61	H	1.011231	0.477547	-0.079174
H62	H	0.805827	0.545522	0.079148
H63	H	0.830555	0.531035	-0.079178
C64	C	1.758657	-0.301815	0.000033
C65	C	1.660046	-0.369513	0.000039
H66	H	1.832867	-0.328972	0.000041
H67	H	1.767372	-0.272524	-0.079122
H68	H	1.742616	-0.258046	0.079191
H69	H	1.676083	-0.413278	-0.079125
H70	H	1.651332	-0.398818	0.079202
H71	H	1.239298	0.070355	0.000002
H72	H	1.747449	-0.037972	0.000032
H73	H	1.522379	0.304493	0.363120
C74	C	1.119693	0.027302	0.000005
C75	C	1.093966	-0.067068	0.000002
H76	H	1.045486	0.054460	-0.000007
H77	H	1.153129	0.052955	0.079161
H78	H	1.177900	0.038490	-0.079152
H79	H	1.035765	-0.078256	0.079165
H80	H	1.060512	-0.092729	-0.079161
C81	C	1.099026	-0.330702	-0.116653
C82	C	1.088915	-0.265297	0.000021
H83	H	1.023185	-0.367634	-0.116638
H84	H	1.116921	-0.300805	-0.195800
H85	H	1.163821	-0.368036	-0.116635
H86	H	1.024126	-0.227959	-0.000003
H87	H	1.071004	-0.295197	0.079189
H88	H	1.227715	-0.384238	0.000020
H89	H	1.743051	-0.209281	0.000051
H90	H	1.640484	0.096473	0.000025
