data_functionalizedCrystal
_audit_creation_method	'MofGen! by Chris Wilmer'
_symmetry_space_group_name_H-M	'P1'
_symmetry_Int_Tables_number	1
_symmetry_cell_setting	triclinic
loop_
_symmetry_equiv_pos_as_xyz
  x,y,z
_cell_length_a	16.992694
_cell_length_b	9.130313
_cell_length_c	16.992695
_cell_angle_alpha	90.001745
_cell_angle_beta	90.668223
_cell_angle_gamma	89.994745
loop_
_atom_site_label
_atom_site_type_symbol
_atom_site_fract_x
_atom_site_fract_y
_atom_site_fract_z
O1	O	1.050846	0.121617	0.166913
O2	O	1.550846	0.621617	0.666913
O3	O	0.822446	0.121660	0.165082
O4	O	1.322446	0.621660	0.665082
O5	O	0.935730	0.121627	0.051797
O6	O	1.435730	0.621627	0.551797
O7	O	0.937562	0.121650	0.280197
O8	O	1.437562	0.621650	0.780197
O9	O	0.935729	-0.121972	0.051800
O10	O	1.435729	0.378028	0.551800
O11	O	0.822445	-0.121939	0.165085
O12	O	1.322445	0.378061	0.665085
O13	O	1.050845	-0.121982	0.166916
O14	O	1.550845	0.378018	0.666916
Cu15	Cu	0.936644	-0.144203	0.166001
Cu16	Cu	1.436644	0.355797	0.666001
Cu17	Cu	0.936646	0.143881	0.165997
Cu18	Cu	1.436646	0.643881	0.665997
O19	O	0.937560	-0.121949	0.280200
O20	O	1.437560	0.378051	0.780200
C21	C	0.793085	-0.000134	0.162727
C22	C	1.293085	0.499866	0.662727
C23	C	0.705600	-0.000118	0.155699
C24	C	1.205600	0.499882	0.655699
N25	N	0.936649	-0.346825	0.166003
N26	N	1.436649	0.153175	0.666003
C27	C	0.659610	-0.000112	0.223517
C28	C	1.159610	0.499888	0.723517
C29	C	0.577409	-0.000133	0.216908
C30	C	1.077409	0.499867	0.716908
C31	C	0.541201	-0.000149	0.142480
C32	C	1.041201	0.499851	0.642480
C33	C	0.587198	-0.000159	0.074657
C34	C	1.087198	0.499841	0.574657
C35	C	0.669397	-0.000148	0.081267
C36	C	1.169397	0.499852	0.581267
C37	C	0.295886	-0.000191	0.115086
C38	C	0.795886	0.499809	0.615086
C39	C	0.213681	-0.000197	0.108481
C40	C	0.713681	0.499803	0.608481
C41	C	0.203898	-0.000173	0.250732
C42	C	0.703898	0.499827	0.750732
C43	C	0.286099	-0.000154	0.257336
C44	C	0.786099	0.499846	0.757336
C45	C	0.332089	-0.000172	0.189512
C46	C	0.832089	0.499828	0.689512
N47	N	0.457178	-0.000166	0.135723
N48	N	0.957178	0.499834	0.635723
N49	N	0.416110	-0.000166	0.196270
N50	N	0.916110	0.499834	0.696270
C51	C	0.986826	-0.423492	0.115860
C52	C	1.486826	0.076508	0.615860
C53	C	0.986823	-0.576829	0.115850
C54	C	1.486823	-0.076829	0.615850
C55	C	0.886465	-0.576819	0.216134
C56	C	1.386465	-0.076819	0.716134
C57	C	0.886464	-0.423485	0.216139
C58	C	1.386464	0.076515	0.716139
C59	C	1.037011	-0.346832	0.065724
C60	C	1.537011	0.153168	0.565724
C61	C	1.087193	-0.423499	0.015577
C62	C	1.587193	0.076501	0.515577
C63	C	1.087191	-0.576836	0.015567
C64	C	1.587191	-0.076836	0.515567
C65	C	1.037006	-0.653506	0.065705
C66	C	1.537006	-0.153506	0.565705
C67	C	1.080205	-0.000184	0.169270
C68	C	1.580205	0.499816	0.669270
C69	C	1.167690	-0.000191	0.176299
C70	C	1.667690	0.499809	0.676299
C71	C	0.933374	-0.000172	0.022439
C72	C	1.433374	0.499828	0.522439
C73	C	0.926345	-0.000170	-0.065046
C74	C	1.426345	0.499830	0.434954
N75	N	0.936647	0.346504	0.165989
N76	N	1.436647	0.846504	0.665989
C77	C	0.994163	-0.000184	-0.111037
C78	C	1.494163	0.499816	0.388963
C79	C	0.987554	-0.000169	-0.193238
C80	C	1.487554	0.499831	0.306762
C81	C	0.913127	-0.000150	-0.229446
C82	C	1.413127	0.499850	0.270554
C83	C	0.845303	-0.000131	-0.183449
C84	C	1.345303	0.499869	0.316551
C85	C	0.851913	-0.000136	-0.101250
C86	C	1.351913	0.499864	0.398750
C87	C	0.885732	-0.000125	-0.474760
C88	C	1.385732	0.499875	0.025240
C89	C	0.879127	-0.000124	-0.556966
C90	C	1.379127	0.499876	-0.056966
C91	C	1.021379	-0.000159	-0.566749
C92	C	1.521379	0.499841	-0.066749
C93	C	1.027982	-0.000173	-0.484547
C94	C	1.527982	0.499827	0.015453
C95	C	0.960159	-0.000146	-0.438558
C96	C	1.460159	0.499854	0.061442
N97	N	0.906369	-0.000139	-0.313468
N98	N	1.406369	0.499861	0.186532
N99	N	0.966917	-0.000147	-0.354537
N100	N	1.466917	0.499853	0.145463
C101	C	0.939917	-0.000147	0.309559
C102	C	1.439917	0.499853	0.809559
C103	C	0.946945	-0.000139	0.397044
C104	C	1.446945	0.499861	0.897044
H105	H	0.539966	-0.000126	0.272133
H106	H	1.039966	0.499874	0.772133
H107	H	1.088589	-0.000189	-0.455073
H108	H	1.588589	0.499811	0.044927
H109	H	1.037003	-0.778363	0.065687
H110	H	1.537003	-0.278363	0.565687
N111	N	1.141300	-0.340816	-0.038515
N112	N	1.641300	0.159184	0.461485
H113	H	1.133687	-0.232045	-0.030905
H114	H	1.633687	0.267955	0.469095
H115	H	1.197716	-0.367622	-0.025902
H116	H	1.697716	0.132378	0.474098
N117	N	1.141319	-0.659526	-0.038510
N118	N	1.641319	-0.159526	0.461490
H119	H	1.128770	-0.632833	-0.094955
H120	H	1.628770	-0.132833	0.405045
H121	H	1.197728	-0.632804	-0.025825
H122	H	1.697728	-0.132804	0.474175
N123	N	0.154303	-0.000196	0.323886
N124	N	0.654303	0.499804	0.823886
H125	H	0.166460	0.090104	0.356135
H126	H	0.666460	0.590104	0.856135
H127	H	0.096753	-0.000270	0.308352
H128	H	0.596753	0.499730	0.808352
N129	N	1.094525	-0.000161	-0.616353
N130	N	1.594525	0.499839	-0.116353
H131	H	1.142677	-0.000171	-0.580942
H132	H	1.642677	0.499829	-0.080942
H133	H	1.094884	-0.090463	-0.650675
H134	H	1.594884	0.409537	-0.150675
N135	N	0.325151	-0.000109	0.337611
N136	N	0.825151	0.499891	0.837611
H137	H	0.283542	-0.000102	0.379572
H138	H	0.783542	0.499898	0.879572
H139	H	0.359056	-0.090401	0.343463
H140	H	0.859056	0.409599	0.843463
N141	N	0.798848	-0.000102	-0.596022
N142	N	1.298848	0.499898	-0.096022
H143	H	0.756885	-0.000081	-0.554415
H144	H	1.256885	0.499919	-0.054415
H145	H	0.793016	0.090204	-0.629914
H146	H	1.293016	0.590204	-0.129914
H147	H	0.184203	-0.000208	0.047870
H148	H	0.684203	0.499792	0.547870
H149	H	0.845604	-0.361062	0.256970
H150	H	1.345604	0.138938	0.756970
N151	N	0.345483	-0.000219	0.041937
N152	N	0.845483	0.499781	0.541937
H153	H	0.310070	-0.000229	-0.006213
H154	H	0.810070	0.499771	0.493787
H155	H	0.379799	0.090083	0.041572
H156	H	0.879799	0.590083	0.541572
N157	N	0.548149	-0.000200	-0.005620
N158	N	1.048149	0.499800	0.494380
H159	H	0.489097	-0.000205	0.000482
H160	H	0.989097	0.499795	0.500482
H161	H	0.564646	0.090098	-0.035531
H162	H	1.064646	0.590098	0.464469
N163	N	0.698652	-0.000096	0.303797
N164	N	1.198652	0.499904	0.803797
H165	H	0.732547	-0.090392	0.309713
H166	H	1.232547	0.409608	0.809713
H167	H	0.732487	0.090272	0.309661
H168	H	1.232487	0.590272	0.809661
N169	N	0.719005	-0.000166	0.008121
N170	N	1.219005	0.499834	0.508121
H171	H	0.683596	-0.000176	-0.040032
H172	H	1.183596	0.499824	0.459968
H173	H	0.753319	0.090139	0.007760
H174	H	1.253319	0.590139	0.507760
H175	H	0.845607	-0.639254	0.256955
H176	H	1.345607	-0.139254	0.756955
N177	N	1.037009	-0.181450	0.065738
N178	N	1.537009	0.318550	0.565738
H179	H	1.091207	-0.144527	0.080580
H180	H	1.591207	0.355473	0.580580
H181	H	1.022180	-0.144618	0.011519
H182	H	1.522180	0.355382	0.511519
N183	N	1.074439	-0.000219	-0.071986
N184	N	1.574439	0.499781	0.428014
H185	H	1.116398	-0.000223	-0.113598
H186	H	1.616398	0.499777	0.386402
H187	H	1.080282	0.090082	-0.038091
H188	H	1.580282	0.590082	0.461909
H189	H	1.042779	-0.000184	-0.230680
H190	H	1.542779	0.499816	0.269320
H191	H	0.830505	-0.000104	-0.437325
H192	H	1.330505	0.499896	0.062675
H193	H	0.784703	-0.000107	-0.212936
H194	H	1.284703	0.499893	0.287064
H195	H	0.796688	-0.000124	-0.063804
H196	H	1.296688	0.499876	0.436196
