data_functionalizedCrystal
_audit_creation_method	'MofGen! by Chris Wilmer'
_symmetry_space_group_name_H-M	'P1'
_symmetry_Int_Tables_number	1
_symmetry_cell_setting	triclinic
loop_
_symmetry_equiv_pos_as_xyz
  x,y,z
_cell_length_a	12.784905
_cell_length_b	12.837932
_cell_length_c	7.540329
_cell_angle_alpha	89.999620
_cell_angle_beta	89.996504
_cell_angle_gamma	83.968511
loop_
_atom_site_label
_atom_site_type_symbol
_atom_site_fract_x
_atom_site_fract_y
_atom_site_fract_z
O1	O	1.410964	0.006435	-0.147492
O2	O	1.910964	0.506435	0.352508
O3	O	1.105966	0.050427	-0.147490
O4	O	1.605966	0.550427	0.352510
O5	O	1.251701	-0.121862	-0.147492
O6	O	1.751701	0.378138	0.352508
O7	O	1.265229	0.178724	-0.147490
O8	O	1.765229	0.678724	0.352510
O9	O	1.251691	-0.121863	0.147473
O10	O	1.751691	0.378137	0.647473
O11	O	1.105956	0.050426	0.147475
O12	O	1.605956	0.550426	0.647475
O13	O	1.410955	0.006434	0.147473
O14	O	1.910955	0.506434	0.647473
Cu15	Cu	1.258454	0.028430	0.174407
Cu16	Cu	1.758454	0.528430	0.674407
Cu17	Cu	1.258466	0.028431	-0.174424
Cu18	Cu	1.758466	0.528431	0.325576
O19	O	1.265219	0.178723	0.147475
O20	O	1.765219	0.678723	0.647475
C21	C	1.066651	0.053288	-0.000007
C22	C	1.566651	0.553288	0.499993
C23	C	0.949520	0.061801	-0.000006
C24	C	1.449520	0.561801	0.499994
C25	C	0.735567	-0.111642	-0.000040
C26	C	1.235567	0.388358	0.499960
C27	C	0.625512	-0.103648	-0.000039
C28	C	1.125512	0.396352	0.499961
C29	C	0.619352	0.085781	-0.000018
C30	C	1.119352	0.585781	0.499982
C31	C	0.729407	0.077787	-0.000018
C32	C	1.229407	0.577787	0.499982
C33	C	0.787511	-0.020928	-0.000027
C34	C	1.287511	0.479072	0.499973
C35	C	0.897568	-0.028921	-0.000014
C36	C	1.397568	0.471079	0.499986
C37	C	0.891406	0.160508	-0.000006
C38	C	1.391406	0.660508	0.499994
C39	C	0.781351	0.168502	-0.000005
C40	C	1.281351	0.668502	0.499995
C41	C	1.247126	-0.160072	-0.000014
C42	C	1.747126	0.339928	0.499986
C43	C	1.233498	-0.273920	-0.000026
C44	C	1.733498	0.226080	0.499974
C45	C	1.119588	-0.413496	-0.000023
C46	C	1.619588	0.086504	0.499977
C47	C	1.132387	-0.306523	-0.000026
C48	C	1.632387	0.193477	0.499974
C49	C	1.321817	-0.348299	-0.000028
C50	C	1.821817	0.151701	0.499972
C51	C	1.309018	-0.455272	-0.000025
C52	C	1.809018	0.044728	0.499975
C53	C	1.207901	-0.487865	-0.000020
C54	C	1.707901	0.012135	0.499980
C55	C	1.195103	-0.594840	-0.000004
C56	C	1.695103	-0.094840	0.499996
C57	C	1.384532	-0.636614	-0.000019
C58	C	1.884532	-0.136614	0.499981
C59	C	1.397331	-0.529642	-0.000022
C60	C	1.897331	-0.029642	0.499978
C61	C	1.450269	0.003573	-0.000014
C62	C	1.950269	0.503573	0.499986
C63	C	1.567401	-0.004940	-0.000026
C64	C	2.067401	0.495060	0.499974
C65	C	1.269794	0.216932	-0.000007
C66	C	1.769794	0.716932	0.499993
C67	C	1.283422	0.330781	-0.000006
C68	C	1.783422	0.830781	0.499994
N69	N	1.258454	0.028427	0.419755
N70	N	1.758454	0.528427	0.919755
N71	N	1.258474	0.028424	-0.419772
N72	N	1.758474	0.528424	0.080228
H73	H	0.583224	-0.177517	-0.000053
H74	H	1.083224	0.322483	0.499947
Br75	Br	0.814428	-0.245607	-0.000018
Br76	Br	1.314428	0.254393	0.499982
Br77	Br	1.057875	-0.639075	0.000017
Br78	Br	1.557875	-0.139075	0.500017
H79	H	1.479658	-0.503089	-0.000020
H80	H	1.979658	-0.003089	0.499980
H81	H	0.572025	0.166150	-0.000035
H82	H	1.072025	0.666150	0.499965
H83	H	0.734027	0.248872	-0.000006
H84	H	1.234027	0.748872	0.499994
Br85	Br	0.961906	0.283628	0.000051
Br86	Br	1.461906	0.783628	0.500051
Br87	Br	0.982363	-0.457736	0.000023
Br88	Br	1.482363	0.042264	0.500023
Br89	Br	1.012529	-0.205593	-0.000042
Br90	Br	1.512529	0.294407	0.499958
Br91	Br	1.459037	-0.304045	-0.000076
Br92	Br	1.959037	0.195955	0.499924
H93	H	1.456443	-0.697179	-0.000014
H94	H	1.956443	-0.197179	0.499986
H95	H	0.944875	-0.109300	-0.000018
H96	H	1.444875	0.390700	0.499982
