data_functionalizedCrystal
_audit_creation_method	'MofGen! by Chris Wilmer'
_symmetry_space_group_name_H-M	'P1'
_symmetry_Int_Tables_number	1
_symmetry_cell_setting	triclinic
loop_
_symmetry_equiv_pos_as_xyz
  x,y,z
_cell_length_a	18.050591
_cell_length_b	18.050590
_cell_length_c	18.050582
_cell_angle_alpha	90.013008
_cell_angle_beta	90.020922
_cell_angle_gamma	90.004047
loop_
_atom_site_label
_atom_site_type_symbol
_atom_site_fract_x
_atom_site_fract_y
_atom_site_fract_z
Zn1	Zn	1.135397	-0.295786	0.420081
Zn2	Zn	1.385397	-0.045786	0.670081
Zn3	Zn	1.635397	0.204214	0.920081
Zn4	Zn	1.885397	0.454214	1.170081
Zn5	Zn	1.135351	-0.419969	0.295912
Zn6	Zn	1.385351	-0.169969	0.545912
Zn7	Zn	1.635351	0.080031	0.795912
Zn8	Zn	1.885351	0.330031	1.045912
Zn9	Zn	1.011216	-0.295789	0.295892
Zn10	Zn	1.261216	-0.045789	0.545892
Zn11	Zn	1.511216	0.204211	0.795892
Zn12	Zn	1.761216	0.454211	1.045892
Zn13	Zn	1.011208	-0.419930	0.420047
Zn14	Zn	1.261208	-0.169930	0.670047
Zn15	Zn	1.511208	0.080070	0.920047
Zn16	Zn	1.761208	0.330070	1.170047
O17	O	1.073293	-0.357868	0.357983
O18	O	1.323293	-0.107868	0.607983
O19	O	1.573293	0.142132	0.857983
O20	O	1.823293	0.392132	1.107983
O21	O	1.239315	-0.312274	0.403632
O22	O	1.489315	-0.062274	0.653632
O23	O	1.739315	0.187726	0.903632
O24	O	1.989315	0.437726	1.153632
O25	O	1.118869	-0.403514	0.191984
O26	O	1.368869	-0.153514	0.441984
O27	O	1.618869	0.096486	0.691984
O28	O	1.868869	0.346486	0.941984
O29	O	1.027711	-0.191864	0.312372
O30	O	1.277711	0.058136	0.562372
O31	O	1.527711	0.308136	0.812372
O32	O	1.777711	0.558136	1.062372
O33	O	1.239282	-0.403511	0.312405
O34	O	1.489282	-0.153511	0.562405
O35	O	1.739282	0.096489	0.812405
O36	O	1.989282	0.346489	1.062405
O37	O	1.118946	-0.191861	0.403613
O38	O	1.368946	0.058139	0.653613
O39	O	1.618946	0.308139	0.903613
O40	O	1.868946	0.558139	1.153613
O41	O	1.027667	-0.312279	0.191970
O42	O	1.277667	-0.062279	0.441970
O43	O	1.527667	0.187721	0.691970
O44	O	1.777667	0.437721	0.941970
O45	O	0.907290	-0.312241	0.312339
O46	O	1.157290	-0.062241	0.562339
O47	O	1.407290	0.187759	0.812339
O48	O	1.657290	0.437759	1.062339
O49	O	1.027697	-0.403444	0.523976
O50	O	1.277697	-0.153444	0.773976
O51	O	1.527697	0.096556	1.023976
O52	O	1.777697	0.346556	1.273976
O53	O	0.907284	-0.403447	0.403555
O54	O	1.157284	-0.153447	0.653555
O55	O	1.407284	0.096553	0.903555
O56	O	1.657284	0.346553	1.153555
O57	O	1.118938	-0.312236	0.524001
O58	O	1.368938	-0.062236	0.774001
O59	O	1.618938	0.187764	1.024001
O60	O	1.868938	0.437764	1.274001
O61	O	1.118861	-0.523888	0.312372
O62	O	1.368861	-0.273888	0.562372
O63	O	1.618861	-0.023888	0.812372
O64	O	1.868861	0.226112	1.062372
O65	O	1.027653	-0.523859	0.403574
O66	O	1.277653	-0.273859	0.653574
O67	O	1.527653	-0.023859	0.903574
O68	O	1.777653	0.226141	1.153574
C69	C	0.880341	-0.357841	0.357942
C70	C	1.130341	-0.107841	0.607942
C71	C	1.380341	0.142159	0.857942
C72	C	1.630341	0.392159	1.107942
C73	C	0.797795	-0.357847	0.357942
C74	C	1.047795	-0.107847	0.607942
C75	C	1.297795	0.142153	0.857942
C76	C	1.547795	0.392153	1.107942
C77	C	1.073271	-0.550820	0.357988
C78	C	1.323271	-0.300820	0.607988
C79	C	1.573271	-0.050820	0.857988
C80	C	1.823271	0.199180	1.107988
C81	C	1.073330	-0.633366	0.358015
C82	C	1.323330	-0.383366	0.608015
C83	C	1.573330	-0.133366	0.858015
C84	C	1.823330	0.116634	1.108015
C85	C	1.073322	-0.357835	0.551689
C86	C	1.323322	-0.107835	0.801689
C87	C	1.573322	0.142165	1.051689
C88	C	1.823322	0.392165	1.301689
C89	C	1.073334	-0.357821	0.634234
C90	C	1.323334	-0.107821	0.884234
C91	C	1.573334	0.142179	1.134234
C92	C	1.823334	0.392179	1.384234
C93	C	0.598326	-0.308191	0.308453
C94	C	0.848326	-0.058191	0.558453
C95	C	1.098326	0.191809	0.808453
C96	C	1.348326	0.441809	1.058453
C97	C	0.548930	-0.375927	0.290188
C98	C	0.798930	-0.125927	0.540188
C99	C	1.048930	0.124073	0.790188
C100	C	1.298930	0.374073	1.040188
C101	C	0.646665	-0.357869	0.357975
C102	C	0.896665	-0.107869	0.607975
C103	C	1.146665	0.142131	0.857975
C104	C	1.396665	0.392131	1.107975
C105	C	0.548979	-0.290157	0.376238
C106	C	0.798979	-0.040157	0.626238
C107	C	1.048979	0.209843	0.876238
C108	C	1.298979	0.459843	1.126238
C109	C	0.500679	-0.357885	0.358006
C110	C	0.750679	-0.107885	0.608006
C111	C	1.000679	0.142115	0.858006
C112	C	1.250679	0.392115	1.108006
C113	C	0.598356	-0.425641	0.339675
C114	C	0.848356	-0.175641	0.589675
C115	C	1.098356	0.074359	0.839675
C116	C	1.348356	0.324359	1.089675
C117	C	0.598409	-0.339825	0.425757
C118	C	0.848409	-0.089825	0.675757
C119	C	1.098409	0.160175	0.925757
C120	C	1.348409	0.410175	1.175757
C121	C	0.549035	-0.407607	0.407518
C122	C	0.799035	-0.157607	0.657518
C123	C	1.049035	0.092393	0.907518
C124	C	1.299035	0.342393	1.157518
C125	C	0.730763	-0.357859	0.357956
C126	C	0.980763	-0.107859	0.607956
C127	C	1.230763	0.142141	0.857956
C128	C	1.480763	0.392141	1.107956
C129	C	0.416583	-0.357903	0.358026
C130	C	0.666583	-0.107903	0.608026
C131	C	0.916583	0.142097	0.858026
C132	C	1.166583	0.392097	1.108026
C133	C	1.266998	-0.357897	0.358024
C134	C	1.516998	-0.107897	0.608024
C135	C	1.766998	0.142103	0.858024
C136	C	2.016998	0.392103	1.108024
C137	C	1.349544	-0.357909	0.358042
C138	C	1.599544	-0.107909	0.608042
C139	C	1.849544	0.142091	0.858042
C140	C	2.099544	0.392091	1.108042
C141	C	1.073335	-0.164163	0.357994
C142	C	1.323335	0.085837	0.607994
C143	C	1.573335	0.335837	0.857994
C144	C	1.823335	0.585837	1.107994
C145	C	1.073353	-0.081617	0.357999
C146	C	1.323353	0.168383	0.607999
C147	C	1.573353	0.418383	0.857999
C148	C	1.823353	0.668383	1.107999
C149	C	1.122964	0.117835	0.407631
C150	C	1.372964	0.367835	0.657631
C151	C	1.622964	0.617835	0.907631
C152	C	1.872964	0.867835	1.157631
C153	C	1.141118	0.167214	0.339883
C154	C	1.391118	0.417214	0.589883
C155	C	1.641118	0.667214	0.839883
C156	C	1.891118	0.917214	1.089883
C157	C	1.073345	0.069513	0.358003
C158	C	1.323345	0.319513	0.608003
C159	C	1.573345	0.569513	0.858003
C160	C	1.823345	0.819513	1.108003
C161	C	1.055218	0.167216	0.425753
C162	C	1.305218	0.417216	0.675753
C163	C	1.555218	0.667216	0.925753
C164	C	1.805218	0.917216	1.175753
C165	C	1.073340	0.215499	0.358012
C166	C	1.323340	0.465499	0.608012
C167	C	1.573340	0.715499	0.858012
C168	C	1.823340	0.965499	1.108012
C169	C	1.091535	0.117805	0.290218
C170	C	1.341535	0.367805	0.540218
C171	C	1.591535	0.617805	0.790218
C172	C	1.841535	0.867805	1.040218
C173	C	1.005604	0.117803	0.376135
C174	C	1.255604	0.367803	0.626135
C175	C	1.505604	0.617803	0.876135
C176	C	1.755604	0.867803	1.126135
C177	C	1.023732	0.167160	0.308339
C178	C	1.273732	0.417160	0.558339
C179	C	1.523732	0.667160	0.808339
C180	C	1.773732	0.917160	1.058339
C181	C	1.073351	-0.014585	0.357998
C182	C	1.323351	0.235415	0.607998
C183	C	1.573351	0.485415	0.857998
C184	C	1.823351	0.735415	1.107998
C185	C	1.073334	0.299595	0.358009
C186	C	1.323334	0.549595	0.608009
C187	C	1.573334	0.799595	0.858009
C188	C	1.823334	1.049595	1.108009
C189	C	1.073307	-0.357847	0.165031
C190	C	1.323307	-0.107847	0.415031
C191	C	1.573307	0.142153	0.665031
C192	C	1.823307	0.392153	0.915031
C193	C	1.073438	-0.357652	0.082485
C194	C	1.323438	-0.107652	0.332485
C195	C	1.573438	0.142348	0.582485
C196	C	1.823438	0.392348	0.832485
C197	C	1.023755	-0.407352	0.833672
C198	C	1.273755	-0.157352	1.083672
C199	C	1.523755	0.092648	1.333672
C200	C	1.773755	0.342648	1.583672
C201	C	1.091517	-0.425511	0.883073
C202	C	1.341517	-0.175511	1.133073
C203	C	1.591517	0.074489	1.383073
C204	C	1.841517	0.324489	1.633073
C205	C	1.073371	-0.357765	0.785365
C206	C	1.323371	-0.107765	1.035365
C207	C	1.573371	0.142235	1.285365
C208	C	1.823371	0.392235	1.535365
C209	C	1.005647	-0.339586	0.883045
C210	C	1.255647	-0.089586	1.133045
C211	C	1.505647	0.160414	1.383045
C212	C	1.755647	0.410414	1.633045
C213	C	1.073400	-0.357711	0.931350
C214	C	1.323400	-0.107711	1.181350
C215	C	1.573400	0.142289	1.431350
C216	C	1.823400	0.392289	1.681350
C217	C	1.141168	-0.375958	0.833679
C218	C	1.391168	-0.125958	1.083679
C219	C	1.641168	0.124042	1.333679
C220	C	1.891168	0.374042	1.583679
C221	C	1.055252	-0.290002	0.833647
C222	C	1.305252	-0.040002	1.083647
C223	C	1.555252	0.209998	1.333647
C224	C	1.805252	0.459998	1.583647
C225	C	1.123060	-0.308134	0.883026
C226	C	1.373060	-0.058134	1.133026
C227	C	1.623060	0.191866	1.383026
C228	C	1.873060	0.441866	1.633026
C229	C	1.073353	-0.357797	0.701266
C230	C	1.323353	-0.107797	0.951266
C231	C	1.573353	0.142203	1.201266
C232	C	1.823353	0.392203	1.451266
C233	C	1.073426	-0.357679	1.015447
C234	C	1.323426	-0.107679	1.265447
C235	C	1.573426	0.142321	1.515447
C236	C	1.823426	0.392321	1.765447
H237	H	0.619969	-0.266226	0.266528
H238	H	0.869969	-0.016226	0.516528
H239	H	1.119969	0.233774	0.766528
H240	H	1.369969	0.483774	1.016528
Cl241	Cl	0.631989	-0.316212	0.514213
Cl242	Cl	0.881989	-0.066212	0.764213
Cl243	Cl	1.131989	0.183788	1.014213
Cl244	Cl	1.381989	0.433788	1.264213
Cl245	Cl	0.631698	-0.514087	0.315743
Cl246	Cl	0.881698	-0.264087	0.565743
Cl247	Cl	1.131698	-0.014087	0.815743
Cl248	Cl	1.381698	0.235913	1.065743
Cl249	Cl	0.958952	0.200403	0.243475
Cl250	Cl	1.208952	0.450403	0.493475
Cl251	Cl	1.458952	0.700403	0.743475
Cl252	Cl	1.708952	0.950403	0.993475
Cl253	Cl	1.031533	-0.201586	0.800099
Cl254	Cl	1.281533	0.048414	1.050099
Cl255	Cl	1.531533	0.298414	1.300099
Cl256	Cl	1.781533	0.548414	1.550099
Cl257	Cl	0.515374	-0.399510	0.201710
Cl258	Cl	0.765374	-0.149510	0.451710
Cl259	Cl	1.015374	0.100490	0.701710
Cl260	Cl	1.265374	0.350490	0.951710
H261	H	0.948334	0.096085	0.391491
H262	H	1.198334	0.346085	0.641491
H263	H	1.448334	0.596085	0.891491
H264	H	1.698334	0.846085	1.141491
Cl265	Cl	1.187797	0.084391	0.472340
Cl266	Cl	1.437797	0.334391	0.722340
Cl267	Cl	1.687797	0.584391	0.972340
Cl268	Cl	1.937797	0.834391	1.222340
Cl269	Cl	1.229560	0.200725	0.316202
Cl270	Cl	1.479560	0.450725	0.566202
Cl271	Cl	1.729560	0.700725	0.816202
Cl272	Cl	1.979560	0.950725	1.066202
H273	H	0.948361	-0.324232	0.904730
H274	H	1.198361	-0.074232	1.154730
H275	H	1.448361	0.175768	1.404730
H276	H	1.698361	0.425768	1.654730
Cl277	Cl	0.515827	-0.472551	0.472199
Cl278	Cl	0.765827	-0.222551	0.722199
Cl279	Cl	1.015827	0.027449	0.972199
Cl280	Cl	1.265827	0.277449	1.222199
H281	H	0.527251	-0.232894	0.391646
H282	H	0.777251	0.017106	0.641646
H283	H	1.027251	0.267106	0.891646
H284	H	1.277251	0.517106	1.141646
Cl285	Cl	1.115207	-0.513949	0.916594
Cl286	Cl	1.365207	-0.263949	1.166594
Cl287	Cl	1.615207	-0.013949	1.416594
Cl288	Cl	1.865207	0.236051	1.666594
H289	H	1.039890	0.188921	0.483045
H290	H	1.289890	0.438921	0.733045
H291	H	1.539890	0.688921	0.983045
H292	H	1.789890	0.938921	1.233045
Cl293	Cl	1.115295	0.084441	0.201735
Cl294	Cl	1.365295	0.334441	0.451735
Cl295	Cl	1.615295	0.584441	0.701735
Cl296	Cl	1.865295	0.834441	0.951735
H297	H	0.981836	-0.449342	0.812002
H298	H	1.231836	-0.199342	1.062002
H299	H	1.481836	0.050658	1.312002
H300	H	1.731836	0.300658	1.562002
H301	H	1.198471	-0.391377	0.812085
H302	H	1.448471	-0.141377	1.062085
H303	H	1.698471	0.108623	1.312085
H304	H	1.948471	0.358623	1.562085
Cl305	Cl	1.187932	-0.243356	0.916279
Cl306	Cl	1.437932	0.006644	1.166279
Cl307	Cl	1.687932	0.256644	1.416279
Cl308	Cl	1.937932	0.506644	1.666279
