data_functionalizedCrystal
_audit_creation_method	'MofGen! by Chris Wilmer'
_symmetry_space_group_name_H-M	'P1'
_symmetry_Int_Tables_number	1
_symmetry_cell_setting	triclinic
loop_
_symmetry_equiv_pos_as_xyz
  x,y,z
_cell_length_a	10.654559
_cell_length_b	16.109301
_cell_length_c	14.586319
_cell_angle_alpha	90.005214
_cell_angle_beta	89.996766
_cell_angle_gamma	96.024855
loop_
_atom_site_label
_atom_site_type_symbol
_atom_site_fract_x
_atom_site_fract_y
_atom_site_fract_z
O1	O	1.666248	-0.116811	-0.076238
O2	O	1.300620	-0.127928	-0.076242
O3	O	1.493478	-0.001398	-0.076231
O4	O	1.473390	-0.243340	-0.076249
O5	O	1.493465	-0.001396	0.076250
O6	O	1.300607	-0.127926	0.076239
O7	O	1.666235	-0.116809	0.076243
Cu8	Cu	1.483419	-0.122367	0.090164
Cu9	Cu	1.483435	-0.122369	-0.090163
O10	O	1.473377	-0.243338	0.076231
C11	C	1.253827	-0.127109	-0.000002
C12	C	1.114417	-0.124662	-0.000002
C13	C	0.932920	-0.045569	0.000001
C14	C	1.063911	-0.047863	0.000006
C15	C	1.033925	-0.199173	-0.000006
C16	C	0.902936	-0.196879	-0.000003
C17	C	1.260935	0.039892	0.053433
C18	C	1.341422	0.114401	0.053423
C19	C	1.312149	0.181941	-0.000002
C20	C	1.202391	0.174974	-0.053439
C21	C	1.121910	0.100463	-0.053438
C22	C	1.151182	0.032927	0.000009
C23	C	0.705911	-0.284628	-0.053439
C24	C	0.625427	-0.359140	-0.053444
C25	C	0.654696	-0.426686	-0.000024
C26	C	0.764457	-0.419728	0.053400
C27	C	0.844941	-0.345216	0.053405
C28	C	0.815662	-0.277669	-0.000013
C29	C	1.492658	0.029583	0.000010
C30	C	1.490218	0.121892	0.000012
C31	C	1.713028	-0.117628	0.000000
C32	C	1.852437	-0.120075	-0.000005
C33	C	1.474197	-0.274319	-0.000011
C34	C	1.476637	-0.366629	-0.000019
N35	N	1.483417	-0.122365	0.216995
C36	C	1.598984	0.343516	-0.000002
C37	C	1.596682	0.430250	-0.000009
C38	C	1.367862	0.411741	-0.000008
C39	C	1.370166	0.325009	-0.000007
C40	C	1.485730	0.290898	0.000001
C41	C	1.481125	0.464365	-0.000008
C42	C	1.478628	0.558406	-0.000016
C43	C	1.488228	0.196852	0.000007
N44	N	1.483447	-0.122365	-0.216994
C45	C	1.568843	-0.066357	0.452007
C46	C	1.568847	-0.066355	0.547988
C47	C	1.398012	-0.178376	0.547988
C48	C	1.398004	-0.178373	0.452008
C49	C	1.483426	-0.122365	0.404020
C50	C	1.483438	-0.122365	0.595981
C51	C	1.483442	-0.122364	0.700048
C52	C	1.483422	-0.122365	0.299946
H53	H	0.788290	-0.474730	0.096898
C54	C	1.304025	-0.239963	0.600773
H55	H	1.253134	-0.273306	0.558445
H56	H	1.349148	-0.274861	0.638220
H57	H	1.251779	-0.209705	0.638208
H58	H	1.273774	0.439524	-0.000012
H59	H	1.328441	-0.223982	0.412935
H60	H	0.891809	0.016969	0.000002
H61	H	1.284772	-0.015096	0.096949
H62	H	1.688904	0.473088	-0.000014
C63	C	1.662810	-0.004749	0.600769
H64	H	1.713686	0.028601	0.558440
H65	H	1.617661	0.030140	0.638219
H66	H	1.715076	-0.034987	0.638202
H67	H	1.277935	0.282165	-0.000008
H68	H	1.638398	-0.020750	0.412937
H69	H	1.032549	0.094791	-0.096947
H70	H	1.178575	0.229971	-0.096950
H71	H	1.430787	0.120068	0.096938
C72	C	1.089478	-0.283650	-0.000017
H73	H	1.179017	-0.274347	-0.000027
H74	H	1.061851	-0.314362	0.053153
H75	H	1.061850	-0.314355	-0.053201
H76	H	1.377692	0.242607	-0.000009
H77	H	0.589158	-0.487359	-0.000039
C78	C	0.504697	-0.366797	-0.112215
H79	H	0.498780	-0.315894	-0.144023
H80	H	0.507730	-0.410863	-0.155175
H81	H	0.433091	-0.378343	-0.073696
C82	C	0.965675	-0.337555	0.112172
H83	H	1.009418	-0.283508	0.104517
H84	H	0.943737	-0.345953	0.174858
H85	H	1.018369	-0.378474	0.093378
C86	C	0.673714	-0.210323	-0.112198
H87	H	0.737357	-0.164947	-0.104534
H88	H	0.669281	-0.226345	-0.174886
H89	H	0.594639	-0.193827	-0.093408
C90	C	1.726098	0.305997	-0.000004
H91	H	1.793217	0.349759	-0.000015
H92	H	1.731757	0.272551	0.053169
H93	H	1.731751	0.272544	-0.053184
