data_functionalizedCrystal
_audit_creation_method	'MofGen! by Chris Wilmer'
_symmetry_space_group_name_H-M	'P1'
_symmetry_Int_Tables_number	1
_symmetry_cell_setting	triclinic
loop_
_symmetry_equiv_pos_as_xyz
  x,y,z
_cell_length_a	12.759401
_cell_length_b	19.805405
_cell_length_c	12.759393
_cell_angle_alpha	89.965008
_cell_angle_beta	89.980163
_cell_angle_gamma	90.028251
loop_
_atom_site_label
_atom_site_type_symbol
_atom_site_fract_x
_atom_site_fract_y
_atom_site_fract_z
Zn1	Zn	1.606167	-0.269395	-0.593995
Zn2	Zn	1.606025	-0.382600	-0.418305
Zn3	Zn	1.430469	-0.269434	-0.418331
Zn4	Zn	1.430421	-0.382551	-0.593942
O5	O	1.518271	-0.325995	-0.506143
O6	O	1.753169	-0.284417	-0.570701
O7	O	1.582698	-0.367625	-0.271287
O8	O	1.453856	-0.174712	-0.441666
O9	O	1.753065	-0.367588	-0.441623
O10	O	1.582940	-0.174684	-0.570726
O11	O	1.453718	-0.284482	-0.271306
O12	O	1.283442	-0.284434	-0.441614
O13	O	1.453773	-0.367504	-0.740971
O14	O	1.283406	-0.367541	-0.570636
O15	O	1.582893	-0.284369	-0.741010
O16	O	1.582651	-0.477310	-0.441571
O17	O	1.453635	-0.477274	-0.570611
C18	C	1.245303	-0.325987	-0.506123
C19	C	1.128527	-0.326000	-0.506139
C20	C	1.518151	-0.501851	-0.506105
C21	C	1.518196	-0.577083	-0.506124
C22	C	1.073674	-0.369339	-0.573214
C23	C	0.963950	-0.369342	-0.573235
C24	C	0.963941	-0.282663	-0.439096
C25	C	1.073663	-0.282658	-0.439081
C26	C	1.585370	-0.612354	-0.573379
C27	C	1.585408	-0.683043	-0.573398
C28	C	1.518276	-0.718459	-0.506157
C29	C	1.451094	-0.683182	-0.438900
C30	C	1.451052	-0.612495	-0.438887
C31	C	1.451263	-0.968256	-0.438954
C32	C	1.451313	-1.038948	-0.438970
C33	C	1.585619	-1.038803	-0.573465
C34	C	1.585577	-0.968116	-0.573452
C35	C	1.518392	-0.932846	-0.506199
C36	C	1.518350	-0.856198	-0.506180
C37	C	1.518322	-0.795106	-0.506170
C38	C	1.792304	-0.326004	-0.506165
C39	C	1.909080	-0.326008	-0.506174
C40	C	1.518344	-0.325927	-0.780177
C41	C	1.518375	-0.325897	-0.896954
C42	C	1.518419	-0.149452	-0.506205
C43	C	1.518483	-0.074220	-0.506231
C44	C	1.451240	-0.282597	-0.951825
C45	C	1.451264	-0.282576	-1.061549
C46	C	1.585569	-0.369158	-1.061521
C47	C	1.585538	-0.369182	-0.951799
C48	C	1.518258	-0.326014	-0.233176
C49	C	1.518430	-0.325853	-0.116400
H50	H	0.919293	-0.404632	-0.627856
N51	N	1.378787	-0.235922	-0.892672
H52	H	1.388954	-0.242505	-0.814836
H53	H	1.395183	-0.187578	-0.911873
N54	N	0.904767	-0.235936	-0.366744
H55	H	0.826934	-0.242522	-0.376920
H56	H	0.923920	-0.246429	-0.291688
N57	N	1.378896	-1.077150	-0.366452
H58	H	1.421637	-1.106475	-0.317806
H59	H	1.336339	-1.044040	-0.323917
N60	N	1.657844	-0.721106	-0.645927
H61	H	1.615117	-0.750431	-0.694570
H62	H	1.700368	-0.687919	-0.688465
H63	H	1.640246	-0.939283	-0.628202
H64	H	1.396430	-0.712024	-0.384156
H65	H	1.118326	-0.247361	-0.384460
H66	H	1.640041	-0.583523	-0.628129
N67	N	1.658084	-1.076844	-0.646008
H68	H	1.647926	-1.126998	-0.635820
H69	H	1.641689	-1.064460	-0.721026
N70	N	1.657960	-0.415886	-0.892615
H71	H	1.706655	-0.388390	-0.847105
H72	H	1.615148	-0.447251	-0.847136
H73	H	1.396560	-0.939544	-0.384192
N74	N	1.378848	-0.235874	-1.120727
H75	H	1.395205	-0.187518	-1.101659
H76	H	1.389085	-0.242485	-1.198540
N77	N	1.132850	-0.416083	-0.645538
H78	H	1.081447	-0.443538	-0.688033
H79	H	1.178417	-0.388567	-0.694228
N80	N	1.378604	-0.574445	-0.366350
H81	H	1.303536	-0.586782	-0.382602
H82	H	1.395057	-0.586785	-0.291327
N83	N	1.658002	-0.415844	-1.120676
H84	H	1.647836	-0.409260	-1.198511
H85	H	1.733042	-0.405321	-1.101508
