data_functionalizedCrystal
_audit_creation_method	'MofGen! by Chris Wilmer'
_symmetry_space_group_name_H-M	'P1'
_symmetry_Int_Tables_number	1
_symmetry_cell_setting	triclinic
loop_
_symmetry_equiv_pos_as_xyz
  x,y,z
_cell_length_a	19.121102
_cell_length_b	16.120484
_cell_length_c	16.120297
_cell_angle_alpha	95.614431
_cell_angle_beta	89.436287
_cell_angle_gamma	89.396489
loop_
_atom_site_label
_atom_site_type_symbol
_atom_site_fract_x
_atom_site_fract_y
_atom_site_fract_z
Zn1	Zn	1.032868	0.411927	0.544488
Zn2	Zn	1.032780	0.544612	0.411794
Zn3	Zn	0.922193	0.398951	0.398837
Zn4	Zn	0.909675	0.545077	0.544957
O5	O	0.974379	0.475142	0.475019
O6	O	1.130693	0.434765	0.532112
O7	O	1.023312	0.519665	0.293391
O8	O	0.942150	0.283989	0.412539
O9	O	1.130629	0.532248	0.434622
O10	O	1.023462	0.293523	0.519549
O11	O	0.942065	0.412648	0.283871
O12	O	0.822695	0.413098	0.412994
O13	O	0.920815	0.533039	0.661580
O14	O	0.813498	0.520456	0.520348
O15	O	1.011324	0.435215	0.661235
O16	O	1.011174	0.661357	0.435077
O17	O	0.920729	0.661699	0.532911
C18	C	0.792728	0.465420	0.465316
C19	C	0.715016	0.461282	0.461186
C20	C	0.964602	0.691785	0.485470
C21	C	0.960482	0.784470	0.489973
C22	C	0.964683	0.485627	0.692508
C23	C	0.960551	0.490095	0.785189
C24	C	0.673736	0.515310	0.515059
C25	C	0.600717	0.511412	0.511182
C26	C	0.568979	0.453488	0.453427
C27	C	0.610264	0.399454	0.399552
C28	C	0.683282	0.403350	0.403433
C29	C	0.348752	0.438923	0.438918
C30	C	0.275729	0.435033	0.435038
C31	C	0.266187	0.546990	0.546670
C32	C	0.339207	0.550883	0.550544
C33	C	0.380485	0.496847	0.496671
C34	C	0.494342	0.449503	0.449461
C35	C	0.455121	0.500828	0.500642
C36	C	1.156739	0.484902	0.484760
C37	C	1.234449	0.489061	0.488911
C38	C	0.984212	0.257655	0.464546
C39	C	0.988403	0.164975	0.460084
C40	C	0.952963	0.954168	0.498210
C41	C	0.995919	0.995282	0.451848
C42	C	0.991736	1.089708	0.456432
C43	C	0.957146	0.859734	0.493628
C44	C	0.984080	0.464640	0.258375
C45	C	0.988358	0.459944	0.165691
C46	C	0.952982	0.498232	0.954876
C47	C	0.995924	0.451809	0.996009
C48	C	0.991713	0.456337	1.090429
C49	C	0.957193	0.493705	0.860448
H50	H	0.699572	0.562481	0.562087
C51	C	0.899791	0.555896	1.002369
C52	C	0.912203	0.638216	0.986044
C53	C	0.863215	0.691360	1.029782
H54	H	0.903955	0.551442	1.060439
H55	H	0.853973	0.540566	0.985029
H56	H	0.958009	0.653542	1.003388
H57	H	0.908033	0.642697	0.927982
H58	H	0.817396	0.676029	1.012442
H59	H	0.867382	0.686898	1.087850
H60	H	0.871625	0.747218	1.018705
H61	H	1.035850	0.408664	0.960313
C62	C	0.489445	0.563745	0.563432
C63	C	0.437669	0.610221	0.609798
C64	C	0.469269	0.668182	0.667653
H65	H	0.517709	0.600078	0.534832
H66	H	0.517731	0.535197	0.599839
H67	H	0.409395	0.638767	0.573397
H68	H	0.409402	0.573911	0.638417
H69	H	0.497555	0.639633	0.704060
H70	H	0.497532	0.704509	0.639046
H71	H	0.434145	0.699717	0.699125
C72	C	0.241219	0.372258	0.372255
C73	C	0.199556	0.414555	0.318759
C74	C	0.167757	0.356754	0.260919
H75	H	0.212903	0.335992	0.400873
H76	H	0.276231	0.340631	0.340676
H77	H	0.164549	0.446168	0.350335
H78	H	0.227856	0.450816	0.290122
H79	H	0.202770	0.325127	0.229339
H80	H	0.139445	0.320492	0.289544
H81	H	0.139491	0.385445	0.224610
C82	C	0.393442	0.380212	0.380330
C83	C	0.350015	0.328669	0.328908
C84	C	0.391162	0.274578	0.274919
H85	H	0.422149	0.346912	0.411958
H86	H	0.422097	0.411789	0.346947
H87	H	0.321372	0.297095	0.362287
H88	H	0.321308	0.361947	0.297262
H89	H	0.419818	0.306155	0.241536
H90	H	0.419868	0.241283	0.306553
H91	H	0.361704	0.239605	0.240017
H92	H	0.365042	0.598053	0.597572
C93	C	0.221249	0.605550	0.605121
C94	C	0.150510	0.589730	0.589378
C95	C	0.109094	0.643652	0.643219
H96	H	0.231148	0.661634	0.596216
H97	H	0.231235	0.596762	0.661232
H98	H	0.140529	0.598525	0.533280
H99	H	0.140590	0.533656	0.598288
H100	H	0.119079	0.634864	0.699331
H101	H	0.118998	0.699733	0.634310
H102	H	0.061093	0.632920	0.632551
C103	C	0.899842	1.001902	0.555775
C104	C	0.934835	1.056548	0.613733
C105	C	0.885921	1.100553	0.666764
H106	H	0.873411	0.963791	0.584345
H107	H	0.869359	1.032809	0.523859
H108	H	0.965305	1.025644	0.645646
H109	H	0.961262	1.094676	0.585187
H110	H	0.855439	1.131460	0.634848
H111	H	0.859494	1.062435	0.695328
H112	H	0.909657	1.137641	0.706090
C113	C	0.575767	0.336694	0.336751
C114	C	0.534113	0.379006	0.283258
C115	C	0.502332	0.321219	0.225387
H116	H	0.547448	0.300413	0.365345
H117	H	0.610789	0.305083	0.305173
H118	H	0.499095	0.410603	0.314832
H119	H	0.562416	0.415283	0.254644
H120	H	0.537354	0.289607	0.193810
H121	H	0.474016	0.284941	0.253989
H122	H	0.474071	0.349919	0.189081
H123	H	1.035836	0.959564	0.408714
H124	H	0.567110	0.555408	0.555050
H125	H	0.716891	0.359350	0.359568
H126	H	0.468493	0.402344	0.402435
