data_functionalizedCrystal
_audit_creation_method	'MofGen! by Chris Wilmer'
_symmetry_space_group_name_H-M	'P1'
_symmetry_Int_Tables_number	1
_symmetry_cell_setting	triclinic
loop_
_symmetry_equiv_pos_as_xyz
  x,y,z
_cell_length_a	19.188930
_cell_length_b	9.065218
_cell_length_c	7.540329
_cell_angle_alpha	90.003038
_cell_angle_beta	89.991297
_cell_angle_gamma	95.919667
loop_
_atom_site_label
_atom_site_type_symbol
_atom_site_fract_x
_atom_site_fract_y
_atom_site_fract_z
O1	O	0.102369	-1.956847	-0.147510
O2	O	0.602369	-1.456847	0.352490
O3	O	0.110766	-1.527271	-0.147515
O4	O	0.610766	-1.027271	0.352485
O5	O	0.005009	-1.754456	-0.147478
O6	O	0.505009	-1.254456	0.352522
O7	O	0.208127	-1.729662	-0.147547
O8	O	0.708127	-1.229662	0.352453
O9	O	0.005007	-1.754442	0.147487
O10	O	0.505007	-1.254442	0.647487
O11	O	0.110765	-1.527257	0.147450
O12	O	0.610765	-1.027257	0.647450
O13	O	0.102368	-1.956833	0.147455
O14	O	0.602368	-1.456833	0.647455
Cu15	Cu	0.106566	-1.742044	0.174385
Cu16	Cu	0.606566	-1.242044	0.674385
Cu17	Cu	0.106568	-1.742060	-0.174445
Cu18	Cu	0.606568	-1.242060	0.325555
O19	O	0.208126	-1.729649	0.147418
O20	O	0.708126	-1.229649	0.647418
C21	C	0.109959	-1.472305	-0.000032
C22	C	0.609959	-0.972305	0.499968
C23	C	0.107546	-1.308546	-0.000033
C24	C	0.607546	-0.808546	0.499967
N25	N	0.106565	-1.742044	0.419734
N26	N	0.606565	-1.242044	0.919734
C27	C	-0.021009	-1.753646	0.000010
C28	C	0.478991	-1.253646	0.500010
C29	C	-0.098533	-1.751236	0.000025
C30	C	0.401467	-1.251236	0.500025
C31	C	-0.142421	-1.884540	0.000035
C32	C	0.357579	-1.384540	0.500035
C33	C	-0.215262	-1.882276	0.000006
C34	C	0.284738	-1.382276	0.500006
C35	C	-0.244212	-1.746699	0.000004
C36	C	0.255788	-1.246699	0.500004
C37	C	-0.200314	-1.613377	-0.000016
C38	C	0.299686	-1.113377	0.499984
C39	C	-0.127474	-1.615646	-0.000006
C40	C	0.372526	-1.115646	0.499994
N41	N	-0.353023	-1.643063	0.100385
N42	N	0.146977	-1.143063	0.600385
N43	N	-0.422218	-1.640917	0.100379
N44	N	0.077782	-1.140917	0.600379
C45	C	-0.463674	-1.739858	-0.000032
C46	C	0.036326	-1.239858	0.499968
N47	N	-0.433322	-1.841047	-0.100414
N48	N	0.066678	-1.341047	0.399586
N49	N	-0.364120	-1.843197	-0.100400
N50	N	0.135880	-1.343197	0.399600
C51	C	-0.323194	-1.744225	-0.000009
C52	C	0.176806	-1.244225	0.499991
C53	C	-0.586546	-1.870716	-0.000056
C54	C	-0.086546	-1.370716	0.499944
C55	C	-0.659388	-1.868446	-0.000095
C56	C	-0.159388	-1.368446	0.499905
C57	C	-0.644438	-1.599544	-0.000100
C58	C	-0.144438	-1.099544	0.499900
C59	C	-0.571598	-1.601818	-0.000078
C60	C	-0.071598	-1.101818	0.499922
C61	C	-0.542656	-1.737408	-0.000048
C62	C	-0.042656	-1.237408	0.499952
C63	C	0.234144	-1.730458	-0.000074
C64	C	0.734144	-1.230458	0.499926
C65	C	0.311667	-1.732869	-0.000101
C66	C	0.811667	-1.232869	0.499899
C67	C	0.103176	-2.011799	-0.000032
C68	C	0.603176	-1.511799	0.499968
C69	C	0.105589	-2.175558	-0.000043
C70	C	0.605589	-1.675558	0.499957
N71	N	0.106564	-1.742072	-0.419794
N72	N	0.606564	-1.242072	0.080206
H73	H	-0.118862	-1.994948	0.000054
H74	H	0.381138	-1.494948	0.500054
H75	H	-0.562980	-1.981122	-0.000039
H76	H	-0.062980	-1.481122	0.499961
H77	H	-0.668009	-1.489155	-0.000111
H78	H	-0.168009	-0.989155	0.499889
Cl79	Cl	-0.516421	-1.434225	-0.000082
Cl80	Cl	-0.016421	-0.934225	0.499918
Cl81	Cl	-0.072297	-1.448048	-0.000017
Cl82	Cl	0.427703	-0.948048	0.499983
H83	H	-0.695122	-1.977004	-0.000097
H84	H	-0.195122	-1.477004	0.499903
Cl85	Cl	-0.270447	-2.049872	0.000017
Cl86	Cl	0.229553	-1.549872	0.500017
H87	H	-0.223890	-1.502990	-0.000022
H88	H	0.276110	-1.002990	0.499978
