data_functionalizedCrystal
_audit_creation_method	'MofGen! by Chris Wilmer'
_symmetry_space_group_name_H-M	'P1'
_symmetry_Int_Tables_number	1
_symmetry_cell_setting	triclinic
loop_
_symmetry_equiv_pos_as_xyz
  x,y,z
_cell_length_a	25.639242
_cell_length_b	25.639239
_cell_length_c	16.120297
_cell_angle_alpha	92.868703
_cell_angle_beta	92.869733
_cell_angle_gamma	90.034213
loop_
_atom_site_label
_atom_site_type_symbol
_atom_site_fract_x
_atom_site_fract_y
_atom_site_fract_z
Zn1	Zn	0.784258	-0.223221	-0.471560
Zn2	Zn	1.284258	0.276779	0.028440
Zn3	Zn	0.788606	-0.306221	-0.332144
Zn4	Zn	1.288606	0.193779	0.167856
Zn5	Zn	0.701259	-0.218795	-0.332144
Zn6	Zn	1.201259	0.281205	0.167856
Zn7	Zn	0.696782	-0.310618	-0.471487
Zn8	Zn	1.196782	0.189382	0.028513
O9	O	0.742726	-0.264714	-0.401834
O10	O	1.242726	0.235286	0.098166
O11	O	0.857999	-0.234243	-0.453097
O12	O	1.357999	0.265757	0.046903
O13	O	0.780713	-0.290932	-0.215482
O14	O	1.280713	0.209068	0.284518
O15	O	0.712323	-0.146218	-0.350668
O16	O	1.212323	0.353782	0.149332
O17	O	0.861194	-0.295224	-0.350669
O18	O	1.361194	0.204776	0.149331
O19	O	0.773302	-0.149470	-0.453096
O20	O	1.273302	0.350530	0.046904
O21	O	0.716540	-0.226700	-0.215482
O22	O	1.216540	0.273300	0.284518
O23	O	0.627501	-0.230963	-0.350597
O24	O	1.127501	0.269037	0.149403
O25	O	0.704692	-0.302717	-0.588158
O26	O	1.204692	0.197283	-0.088158
O27	O	0.624211	-0.298425	-0.452972
O28	O	1.124211	0.201575	0.047028
O29	O	0.768960	-0.238506	-0.588212
O30	O	1.268960	0.261494	-0.088212
O31	O	0.776372	-0.379969	-0.350598
O32	O	1.276372	0.120031	0.149402
O33	O	0.708908	-0.383199	-0.452972
O34	O	1.208908	0.116801	0.047028
C35	C	0.606886	-0.264691	-0.401777
C36	C	1.106886	0.235309	0.098223
C37	C	0.548772	-0.264695	-0.401773
C38	C	1.048772	0.235305	0.098227
C39	C	0.186704	-0.299896	-0.455090
C40	C	0.686704	0.200104	0.044910
C41	C	0.132100	-0.299899	-0.455103
C42	C	0.632100	0.200101	0.044897
O43	O	0.102415	-0.329801	-0.500387
O44	O	0.602415	0.170199	-0.000387
N45	N	0.106486	-0.264730	-0.401888
N46	N	0.606486	0.235270	0.098112
C47	C	0.135479	-0.229551	-0.348662
C48	C	0.635479	0.270449	0.151338
O49	O	0.108678	-0.199637	-0.303401
O50	O	0.608678	0.300363	0.196599
C51	C	0.190083	-0.229546	-0.348654
C52	C	0.690083	0.270454	0.151346
C53	C	0.215694	-0.264721	-0.401867
C54	C	0.715694	0.235279	0.098133
C55	C	0.212316	-0.335067	-0.508298
C56	C	0.712316	0.164933	-0.008298
C57	C	0.266917	-0.335064	-0.508284
C58	C	0.766917	0.164936	-0.008284
C59	C	0.295906	-0.299889	-0.455061
C60	C	0.795906	0.200111	0.044939
C61	C	0.270295	-0.264718	-0.401852
C62	C	0.770295	0.235282	0.098148
C63	C	0.219075	-0.194365	-0.295434
C64	C	0.719075	0.305635	0.204566
C65	C	0.273682	-0.194362	-0.295430
C66	C	0.773682	0.305638	0.204570
C67	C	0.299293	-0.229537	-0.348643
C68	C	0.799293	0.270463	0.151357
C69	C	0.353886	-0.229540	-0.348614
C70	C	0.853886	0.270460	0.151386
N71	N	0.379499	-0.264709	-0.401829
N72	N	0.879499	0.235291	0.098171
C73	C	0.350510	-0.299884	-0.455052
C74	C	0.850510	0.200116	0.044948
C75	C	0.020808	-0.229565	-0.348685
C76	C	0.520808	0.270435	0.151315
C77	C	-0.033795	-0.229573	-0.348689
C78	C	0.466205	0.270427	0.151311
C79	C	-0.037170	-0.299920	-0.455130
C80	C	0.462830	0.200080	0.044870
C81	C	0.017433	-0.299915	-0.455122
C82	C	0.517433	0.200085	0.044878
C83	C	0.046422	-0.264735	-0.401900
C84	C	0.546422	0.235265	0.098100
C85	C	0.465176	-0.299875	-0.455018
C86	C	0.965176	0.200125	0.044982
C87	C	0.519782	-0.299870	-0.454996
C88	C	1.019782	0.200130	0.045004
C89	C	0.523153	-0.229521	-0.348558
C90	C	1.023153	0.270479	0.151442
C91	C	0.468552	-0.229527	-0.348576
C92	C	0.968552	0.270473	0.151424
C93	C	0.439565	-0.264706	-0.401813
C94	C	0.939565	0.235294	0.098187
O95	O	0.383604	-0.199652	-0.303356
O96	O	0.883604	0.300348	0.196644
O97	O	0.377317	-0.329788	-0.500314
O98	O	0.877317	0.170212	-0.000314
C99	C	0.742640	-0.400555	-0.401795
C100	C	1.242640	0.099445	0.098205
C101	C	0.742650	-0.458670	-0.401807
C102	C	1.242650	0.041330	0.098193
C103	C	0.777939	-0.817342	-0.348618
C104	C	1.277939	-0.317342	0.151382
C105	C	0.777959	-0.871947	-0.348629
C106	C	1.277959	-0.371947	0.151371
O107	O	0.807873	-0.898744	-0.303364
O108	O	1.307873	-0.398744	0.196636
N109	N	0.742817	-0.900955	-0.401889
N110	N	1.242817	-0.400955	0.098111
C111	C	0.707656	-0.875355	-0.455147
C112	C	1.207656	-0.375355	0.044853
O113	O	0.677767	-0.905043	-0.500450
O114	O	1.177767	-0.405043	-0.000450
C115	C	0.707639	-0.820752	-0.455139
C116	C	1.207639	-0.320752	0.044861
C117	C	0.742780	-0.791746	-0.401870
C118	C	1.242780	-0.291746	0.098130
C119	C	0.813077	-0.788336	-0.295354
C120	C	1.313077	-0.288336	0.204646
C121	C	0.813057	-0.733735	-0.295342
C122	C	1.313057	-0.233735	0.204658
C123	C	0.777897	-0.708140	-0.348594
C124	C	1.277897	-0.208140	0.151406
C125	C	0.742759	-0.737145	-0.401858
C126	C	1.242759	-0.237145	0.098142
C127	C	0.672481	-0.795154	-0.508401
C128	C	1.172481	-0.295154	-0.008401
C129	C	0.672467	-0.740547	-0.508389
C130	C	1.172467	-0.240547	-0.008389
C131	C	0.707608	-0.711541	-0.455120
C132	C	1.207608	-0.211541	0.044880
C133	C	0.707579	-0.656949	-0.455098
C134	C	1.207579	-0.156949	0.044902
N135	N	0.742721	-0.627941	-0.401838
N136	N	1.242721	-0.127941	0.098162
C137	C	0.777880	-0.653536	-0.348586
C138	C	1.277880	-0.153536	0.151414
C139	C	0.707695	-0.990027	-0.455160
C140	C	1.207695	-0.490027	0.044840
C141	C	0.707709	-1.044629	-0.455164
C142	C	1.207709	-0.544629	0.044836
C143	C	0.778013	-1.041216	-0.348647
C144	C	1.278013	-0.541216	0.151353
C145	C	0.777996	-0.986613	-0.348639
C146	C	1.277996	-0.486613	0.151361
C147	C	0.742837	-0.961018	-0.401900
C148	C	1.242837	-0.461018	0.098100
C149	C	0.777834	-0.538871	-0.348565
C150	C	1.277834	-0.038871	0.151435
C151	C	0.777809	-0.484265	-0.348555
C152	C	1.277809	0.015735	0.151445
C153	C	0.707507	-0.487683	-0.455074
C154	C	1.207507	0.012317	0.044926
C155	C	0.707530	-0.542283	-0.455081
C156	C	1.207530	-0.042283	0.044919
C157	C	0.742698	-0.567876	-0.401824
C158	C	1.242698	-0.067876	0.098176
O159	O	0.677681	-0.630116	-0.500343
O160	O	1.177681	-0.130116	-0.000343
O161	O	0.807769	-0.623843	-0.303299
O162	O	1.307769	-0.123843	0.196701
C163	C	0.879098	-0.264737	-0.401891
C164	C	1.379098	0.235263	0.098109
C165	C	0.937211	-0.264746	-0.401915
C166	C	1.437211	0.235254	0.098085
C167	C	0.735842	-0.271596	-0.619280
C168	C	1.235842	0.228404	-0.119280
C169	C	0.732908	-0.274528	-0.711943
C170	C	1.232908	0.225472	-0.211943
C171	C	0.742827	-0.128343	-0.401890
C172	C	1.242827	0.371657	0.098110
C173	C	0.742870	-0.070229	-0.401914
C174	C	1.242870	0.429771	0.098086
C175	C	0.727532	-0.279871	-0.881598
C176	C	1.227532	0.220129	-0.381598
C177	C	0.758024	-0.249400	-0.922921
C178	C	1.258024	0.250600	-0.422921
C179	C	0.755033	-0.252373	-1.017323
C180	C	1.255033	0.247627	-0.517323
C181	C	0.730522	-0.276899	-0.787188
C182	C	1.230522	0.223101	-0.287188
C183	C	0.749614	-0.257821	-0.185233
C184	C	1.249614	0.242179	0.314767
C185	C	0.752650	-0.254741	-0.092571
C186	C	1.252650	0.245259	0.407429
H187	H	0.038282	-0.328557	-0.498453
H188	H	0.538282	0.171443	0.001547
H189	H	0.679089	-1.068241	-0.498533
H190	H	1.179089	-0.568241	0.001467
C191	C	0.816655	-0.954712	-0.290042
C192	C	1.316655	-0.454712	0.209958
N193	N	0.845775	-0.930686	-0.245906
N194	N	1.345775	-0.430686	0.254094
C195	C	0.547951	-0.338566	-0.513537
C196	C	1.047951	0.161434	-0.013537
N197	N	0.569166	-0.367711	-0.557630
N198	N	1.069166	0.132289	-0.057630
H199	H	0.786374	-0.221080	-0.887400
H200	H	1.286374	0.278920	-0.387400
H201	H	-0.054642	-0.200935	-0.305349
H202	H	0.445358	0.299065	0.194651
H203	H	0.806425	-0.460650	-0.305174
H204	H	1.306425	0.039350	0.194826
H205	H	0.287764	-0.363706	-0.551617
H206	H	0.787764	0.136294	-0.051617
H207	H	0.643863	-0.818761	-0.551774
H208	H	1.143863	-0.318761	-0.051774
H209	H	0.546766	-0.200884	-0.305222
H210	H	1.046766	0.299116	0.194778
C211	C	0.689233	-0.318126	-0.929584
C212	C	1.189233	0.181874	-0.429584
N213	N	0.660386	-0.346940	-0.965736
N214	N	1.160386	0.153060	-0.465736
C215	C	0.433298	-0.338577	-0.513574
C216	C	0.933298	0.161423	-0.013574
N217	N	0.409288	-0.367730	-0.557674
N218	N	0.909288	0.132270	-0.057674
H219	H	0.188718	-0.363711	-0.551644
H220	H	0.688718	0.136289	-0.051644
H221	H	-0.060784	-0.328560	-0.498470
H222	H	0.439216	0.171440	0.001530
H223	H	0.044407	-0.200918	-0.305339
H224	H	0.544407	0.299082	0.194661
H225	H	0.297282	-0.165710	-0.252094
H226	H	0.797282	0.334290	0.247906
C227	C	0.440379	-0.190837	-0.290034
C228	C	0.940379	0.309163	0.209966
N229	N	0.419163	-0.161692	-0.245944
N230	N	0.919163	0.338308	0.254056
C231	C	0.190915	-0.155663	-0.236904
C232	C	0.690915	0.344337	0.263096
N233	N	0.169705	-0.126509	-0.192819
N234	N	0.669705	0.373491	0.307181
C235	C	0.816517	-0.567014	-0.289973
C236	C	1.316517	-0.067014	0.210027
N237	N	0.845651	-0.588212	-0.245838
N238	N	1.345651	-0.088212	0.254162
H239	H	0.841711	-0.809170	-0.251989
H240	H	1.341711	-0.309170	0.248011
C241	C	0.851711	-0.701836	-0.236734
C242	C	1.351711	-0.201836	0.263266
N243	N	0.880826	-0.677813	-0.192586
N244	N	1.380826	-0.177813	0.307414
H245	H	0.806643	-1.062066	-0.305289
H246	H	1.306643	-0.562066	0.194711
H247	H	0.643837	-0.719711	-0.551763
H248	H	1.143837	-0.219711	-0.051763
C249	C	0.669017	-0.961878	-0.513758
C250	C	1.169017	-0.461878	-0.013758
N251	N	0.639887	-0.940680	-0.557899
N252	N	1.139887	-0.440680	-0.057899
H253	H	0.678917	-0.565901	-0.498460
H254	H	1.178917	-0.065901	0.001540
C255	C	0.668836	-0.459517	-0.513652
C256	C	1.168836	0.040483	-0.013652
N257	N	0.639711	-0.438302	-0.557779
N258	N	1.139711	0.061698	-0.057779
