data_functionalizedCrystal
_audit_creation_method	'MofGen! by Chris Wilmer'
_symmetry_space_group_name_H-M	'P1'
_symmetry_Int_Tables_number	1
_symmetry_cell_setting	triclinic
loop_
_symmetry_equiv_pos_as_xyz
  x,y,z
_cell_length_a	17.699083
_cell_length_b	10.654550
_cell_length_c	9.730223
_cell_angle_alpha	90.002556
_cell_angle_beta	90.000912
_cell_angle_gamma	83.883959
loop_
_atom_site_label
_atom_site_type_symbol
_atom_site_fract_x
_atom_site_fract_y
_atom_site_fract_z
O1	O	0.106297	1.665978	0.114284
O2	O	0.116425	1.300323	0.114289
O3	O	0.001238	1.493481	0.114274
O4	O	0.221485	1.472820	0.114299
O5	O	0.001244	1.493469	-0.114306
O6	O	0.116432	1.300310	-0.114291
O7	O	0.106304	1.665966	-0.114296
Zn8	Zn	0.111369	1.483136	-0.150585
Zn9	Zn	0.111360	1.483152	0.150579
O10	O	0.221491	1.472807	-0.114281
C11	C	-0.026961	1.492735	-0.000016
C12	C	-0.110993	1.490514	-0.000016
C13	C	0.115685	1.253531	-0.000000
C14	C	0.113460	1.114127	0.000001
C15	C	0.107044	1.712757	-0.000003
C16	C	0.109269	1.852161	0.000004
C17	C	-0.158893	1.603894	-0.000020
C18	C	-0.237850	1.601799	-0.000008
C19	C	-0.268905	1.486324	-0.000002
C20	C	-0.220998	1.372935	0.000006
C21	C	-0.142043	1.375031	0.000004
C22	C	-0.539415	1.364481	0.000017
C23	C	-0.618376	1.362394	0.000015
C24	C	-0.635222	1.591249	0.000006
C25	C	-0.556266	1.593345	0.000004
C26	C	-0.508367	1.479957	0.000019
C27	C	-0.422753	1.482229	0.000008
C28	C	-0.354517	1.484050	-0.000001
C29	C	0.249690	1.473554	0.000012
C30	C	0.333722	1.475775	0.000022
N31	N	0.111374	1.483134	-0.356122
C32	C	0.041449	1.932834	0.000002
C33	C	0.043544	2.063818	-0.000004
C34	C	0.181286	2.033444	-0.000001
C35	C	0.179190	1.902462	-0.000004
C36	C	-0.038076	1.950372	0.000006
C37	C	-0.035981	2.081356	-0.000001
C38	C	0.157701	1.559153	-0.428057
C39	C	0.157687	1.559172	-0.571939
C40	C	0.065017	1.407143	-0.571940
C41	C	0.065028	1.407131	-0.428060
C42	C	0.211205	1.646922	-0.428057
C43	C	0.211191	1.646941	-0.571940
N44	N	0.111349	1.483165	0.356115
H45	H	-0.133615	1.697927	-0.000033
H46	H	0.268195	1.606394	-0.383447
Cl47	Cl	0.269181	2.096689	-0.000009
H48	H	0.027296	1.345243	-0.369496
Cl49	Cl	0.303329	1.597573	-0.632267
Cl50	Cl	0.174478	1.793628	-0.640821
H51	H	-0.276847	1.694125	-0.000013
H52	H	-0.063402	1.915189	0.098699
H53	H	0.192610	1.746298	-0.388995
H54	H	-0.530986	1.687377	-0.000008
Cl55	Cl	-0.081825	1.232489	0.000013
H56	H	-0.069178	1.921558	-0.095653
Cl57	Cl	-0.073073	2.152483	-0.152380
H58	H	-0.674231	1.683575	0.000001
Cl59	Cl	-0.082226	2.146646	0.147697
H60	H	0.234416	1.836782	-0.000018
H61	H	-0.643658	1.268354	0.000017
H62	H	-0.500424	1.272153	0.000029
H63	H	0.027284	1.345264	-0.630529
H64	H	-0.246289	1.278912	0.000019
