data_functionalizedCrystal
_audit_creation_method	'MofGen! by Chris Wilmer'
_symmetry_space_group_name_H-M	'P1'
_symmetry_Int_Tables_number	1
_symmetry_cell_setting	triclinic
loop_
_symmetry_equiv_pos_as_xyz
  x,y,z
_cell_length_a	21.395362
_cell_length_b	16.625546
_cell_length_c	21.395355
_cell_angle_alpha	89.981524
_cell_angle_beta	89.956060
_cell_angle_gamma	90.038346
loop_
_atom_site_label
_atom_site_type_symbol
_atom_site_fract_x
_atom_site_fract_y
_atom_site_fract_z
Zn1	Zn	0.957895	-0.320753	-0.354586
Zn2	Zn	0.957813	-0.455568	-0.249808
Zn3	Zn	0.853110	-0.320791	-0.249787
Zn4	Zn	0.853095	-0.455585	-0.354513
O5	O	0.905478	-0.388174	-0.302174
O6	O	1.045562	-0.338614	-0.340726
O7	O	0.943896	-0.437699	-0.162128
O8	O	0.867051	-0.207953	-0.263710
O9	O	1.045502	-0.437662	-0.263747
O10	O	0.944036	-0.207926	-0.340706
O11	O	0.866971	-0.338678	-0.162112
O12	O	0.765430	-0.338694	-0.263640
O13	O	0.867024	-0.437690	-0.442201
O14	O	0.765419	-0.437727	-0.340582
O15	O	0.944021	-0.338630	-0.442254
O16	O	0.943881	-0.568403	-0.263676
O17	O	0.866945	-0.568415	-0.340602
C18	C	0.742691	-0.388217	-0.302101
C19	C	0.673049	-0.388255	-0.302085
C20	C	0.640347	-0.439889	-0.342088
C21	C	0.574911	-0.439870	-0.342116
C22	C	0.542181	-0.388224	-0.302129
C23	C	0.574892	-0.336579	-0.262123
C24	C	0.640326	-0.336594	-0.262101
C25	C	0.438456	-0.381728	-0.245724
C26	C	0.373023	-0.381718	-0.245745
C27	C	0.340360	-0.388171	-0.302198
C28	C	0.373139	-0.394651	-0.358632
C29	C	0.438573	-0.394666	-0.358610
C30	C	0.471229	-0.388201	-0.302149
C31	C	0.236705	-0.439787	-0.342236
C32	C	0.171268	-0.439762	-0.342265
C33	C	0.171250	-0.336475	-0.262266
C34	C	0.236686	-0.336496	-0.262242
C35	C	0.269409	-0.388157	-0.302227
C36	C	0.905419	-0.597665	-0.302147
C37	C	0.905451	-0.687286	-0.302157
C38	C	0.905560	-1.015462	-0.302222
C39	C	0.905528	-0.924153	-0.302206
C40	C	0.905505	-0.851377	-0.302189
C41	C	0.905474	-0.760063	-0.302174
C42	C	1.068902	-0.388132	-0.302247
C43	C	1.138543	-0.388114	-0.302278
C44	C	0.905530	-0.388158	-0.465597
C45	C	0.905552	-0.388151	-0.535238
C46	C	0.905555	-0.177865	-0.302214
C47	C	0.905588	-0.088244	-0.302231
C48	C	0.945643	-0.336568	-0.567980
C49	C	0.945642	-0.336534	-0.633416
C50	C	0.905557	-0.388096	-0.666107
C51	C	0.865459	-0.439683	-0.633357
C52	C	0.865457	-0.439710	-0.567923
C53	C	0.900589	-0.460699	-0.769771
C54	C	0.900596	-0.460672	-0.835204
C55	C	0.905561	-0.388011	-0.867927
C56	C	0.910532	-0.315373	-0.835210
C57	C	0.910530	-0.315401	-0.769776
C58	C	0.905555	-0.388072	-0.737059
C59	C	0.945653	-0.336386	-0.971622
C60	C	0.945648	-0.336350	-1.037059
C61	C	0.865468	-0.439506	-1.036999
C62	C	0.865470	-0.439535	-0.971563
C63	C	0.905566	-0.387976	-0.938879
C64	C	0.905463	-0.388132	-0.139386
C65	C	0.905562	-0.387912	-0.069745
H66	H	0.465259	-0.399940	-0.404560
C67	C	0.829854	-0.485554	-0.467591
C68	C	0.821389	-0.496417	-0.531928
H69	H	0.802645	-0.520560	-0.445370
H70	H	0.871942	-0.497351	-0.456905
H71	H	0.820704	-0.431383	-0.456866
H72	H	0.830543	-0.550587	-0.542654
H73	H	0.779291	-0.484625	-0.542618
H74	H	0.548279	-0.481916	-0.374694
C75	C	0.633787	-0.541981	-0.421165
C76	C	0.676315	-0.496666	-0.386044
H77	H	0.655995	-0.577027	-0.448304
H78	H	0.608218	-0.572764	-0.393831
H79	H	0.608312	-0.506882	-0.445186
H80	H	0.701787	-0.531765	-0.362019
H81	H	0.701895	-0.465881	-0.413382
H82	H	0.978291	-0.294584	-0.541373
H83	H	0.914576	-0.256257	-0.743141
C84	C	0.759362	-0.478803	-1.057072
C85	C	0.821407	-0.496183	-1.072929
H86	H	0.732160	-0.513790	-1.079261
H87	H	0.753625	-0.486210	-1.013421
H88	H	0.750220	-0.424623	-1.067790
H89	H	0.830550	-0.550362	-1.062207
H90	H	0.827146	-0.488783	-1.116589
H91	H	0.978293	-0.294340	-1.063716
H92	H	0.666952	-0.294545	-0.229525
H93	H	0.896379	-0.519853	-0.743132
H94	H	0.832820	-0.481663	-0.659978
H95	H	0.978287	-0.294524	-0.660079
H96	H	0.144602	-0.294420	-0.229711
C97	C	0.256742	-0.297032	-0.156194
C98	C	0.272637	-0.279746	-0.218262
H99	H	0.278941	-0.261996	-0.129044
H100	H	0.213094	-0.289627	-0.150490
H101	H	0.267423	-0.351194	-0.146954
H102	H	0.261952	-0.225585	-0.227504
H103	H	0.316295	-0.287144	-0.223970
H104	H	0.914576	-0.256205	-0.861853
C105	C	0.379480	-0.368916	-0.134161
C106	C	0.336996	-0.374593	-0.183716
H107	H	0.357239	-0.364512	-0.095867
H108	H	0.404969	-0.415656	-0.133270
H109	H	0.405040	-0.322721	-0.139736
H110	H	0.311439	-0.420792	-0.178143
H111	H	0.311496	-0.327849	-0.184606
C112	C	0.511929	-0.442751	-0.175462
C113	C	0.474360	-0.374637	-0.183668
H114	H	0.534098	-0.438370	-0.137155
H115	H	0.486369	-0.489472	-0.174589
H116	H	0.540808	-0.446598	-0.209073
H117	H	0.445477	-0.370794	-0.150058
H118	H	0.499922	-0.327904	-0.184535
H119	H	0.346547	-0.399904	-0.404602
C120	C	1.024900	-0.234411	-0.978251
C121	C	0.989717	-0.279705	-0.935690
H122	H	1.052100	-0.199415	-0.956068
H123	H	1.048855	-0.269521	-1.003790
H124	H	0.997605	-0.203568	-1.003753
H125	H	1.017013	-0.310552	-0.910192
H126	H	0.965761	-0.244590	-0.910140
H127	H	0.144643	-0.481807	-0.374844
H128	H	0.832828	-0.481544	-0.944904
H129	H	0.896552	-0.519818	-0.861837
H130	H	0.263350	-0.481848	-0.374796
H131	H	0.548239	-0.294527	-0.229567
