data_functionalizedCrystal
_audit_creation_method	'MofGen! by Chris Wilmer'
_symmetry_space_group_name_H-M	'P1'
_symmetry_Int_Tables_number	1
_symmetry_cell_setting	triclinic
loop_
_symmetry_equiv_pos_as_xyz
  x,y,z
_cell_length_a	10.489741
_cell_length_b	10.489741
_cell_length_c	8.965430
_cell_angle_alpha	90.000707
_cell_angle_beta	89.998843
_cell_angle_gamma	84.539174
loop_
_atom_site_label
_atom_site_type_symbol
_atom_site_fract_x
_atom_site_fract_y
_atom_site_fract_z
O1	O	1.694053	0.179958	-0.123946
O2	O	1.322858	0.196851	-0.123969
O3	O	1.516902	0.002807	-0.123948
O4	O	1.500009	0.374003	-0.123967
O5	O	1.516886	0.002820	0.124130
O6	O	1.322841	0.196864	0.124110
O7	O	1.694037	0.179971	0.124133
Cu8	Cu	1.508438	0.188419	0.146773
Cu9	Cu	1.508457	0.188404	-0.146609
O10	O	1.499993	0.374016	0.124112
C11	C	1.275318	0.195582	0.000067
C12	C	1.133688	0.191765	0.000059
C13	C	1.515618	-0.044718	0.000090
C14	C	1.511801	-0.186348	0.000087
C15	C	1.065548	0.068300	0.000079
C16	C	0.973430	0.126617	-0.122237
C17	C	0.973447	0.126659	0.122349
C18	C	1.043435	0.250133	-0.122358
C19	C	1.043462	0.250158	0.122338
C20	C	0.951371	0.308564	-0.000007
C21	C	1.388336	-0.254488	0.000069
C22	C	1.446652	-0.346604	0.122388
C23	C	1.446697	-0.346591	-0.122198
C24	C	1.570167	-0.276599	0.122508
C25	C	1.570195	-0.276576	-0.122189
C26	C	1.628600	-0.368665	0.000161
C27	C	1.741577	0.181241	0.000093
C28	C	1.883206	0.185058	0.000092
C29	C	1.501277	0.421541	0.000070
C30	C	1.505094	0.563170	0.000063
N31	N	1.508433	0.188429	0.353122
N32	N	1.508471	0.188384	-0.352958
C33	C	1.418666	0.278138	0.450418
C34	C	1.534163	0.303949	0.549838
C35	C	1.392986	0.162629	0.549830
C36	C	1.623988	0.214298	0.450352
C37	C	1.482735	0.072927	0.450336
C38	C	1.598314	0.098690	0.549711
H39	H	1.115238	-0.033196	-0.000069
N40	N	1.082439	0.315631	0.252059
N41	N	1.198146	0.329849	0.272193
H42	H	1.225679	0.376081	0.363820
H43	H	0.901947	0.410168	-0.000079
N44	N	1.455383	-0.049530	0.395426
N45	N	1.451939	-0.069352	0.258070
H46	H	1.432608	-0.155837	0.219284
N47	N	1.693642	0.003474	0.604085
N48	N	1.688532	-0.111536	0.570289
H49	H	1.755857	-0.178779	0.608697
N50	N	0.934550	0.061071	-0.251962
N51	N	0.975676	-0.053191	-0.273759
H52	H	0.948227	-0.099490	-0.365376
H53	H	1.295338	0.140828	0.593530
N54	N	1.381160	-0.385442	-0.251944
N55	N	1.422090	-0.361628	-0.378889
H56	H	1.375797	-0.389060	-0.470518
N57	N	1.082123	0.315636	-0.252206
N58	N	1.197878	0.329116	-0.273191
H59	H	1.225204	0.375385	-0.364889
H60	H	1.394404	-0.377610	0.225794
N61	N	1.323525	0.373402	0.395738
N62	N	1.329754	0.488638	0.427673
H63	H	1.262564	0.555921	0.389057
N64	N	0.934579	0.061091	0.252065
N65	N	0.975709	-0.053173	0.273828
H66	H	0.948262	-0.099491	0.365433
H67	H	1.286824	-0.204837	0.000185
H68	H	1.622355	-0.245761	0.226035
H69	H	1.730204	-0.418089	0.000235
H70	H	1.555925	0.401606	0.593543
H71	H	1.721659	0.236216	0.406840
N72	N	1.635678	-0.237647	-0.251926
N73	N	1.593617	-0.259716	-0.378843
H74	H	1.639855	-0.232220	-0.470483
