data_functionalizedCrystal
_audit_creation_method	'MofGen! by Chris Wilmer'
_symmetry_space_group_name_H-M	'P1'
_symmetry_Int_Tables_number	1
_symmetry_cell_setting	triclinic
loop_
_symmetry_equiv_pos_as_xyz
  x,y,z
_cell_length_a	11.026607
_cell_length_b	16.109302
_cell_length_c	14.586319
_cell_angle_alpha	89.994552
_cell_angle_beta	89.998207
_cell_angle_gamma	96.023899
loop_
_atom_site_label
_atom_site_type_symbol
_atom_site_fract_x
_atom_site_fract_y
_atom_site_fract_z
O1	O	0.155976	1.126504	-0.076280
O2	O	0.655976	1.626504	0.423720
O3	O	0.175385	0.887350	-0.076272
O4	O	0.675385	1.387350	0.423728
O5	O	-0.010965	0.987106	-0.076272
O6	O	0.489035	1.487106	0.423728
O7	O	0.342326	1.026748	-0.076280
O8	O	0.842326	1.526748	0.423720
O9	O	-0.010967	0.987097	0.076209
O10	O	0.489033	1.487097	0.576209
O11	O	0.175383	0.887341	0.076208
O12	O	0.675383	1.387341	0.576208
O13	O	0.155973	1.126494	0.076201
O14	O	0.655973	1.626494	0.576201
Cu15	Cu	0.165678	1.006917	0.090127
Cu16	Cu	0.665678	1.506917	0.590127
Cu17	Cu	0.165681	1.006928	-0.090199
Cu18	Cu	0.665681	1.506928	0.409801
O19	O	0.342323	1.026738	0.076201
O20	O	0.842323	1.526738	0.576201
C21	C	0.174598	0.856253	-0.000031
C22	C	0.674598	1.356253	0.499969
C23	C	0.172240	0.763604	-0.000028
C24	C	0.672240	1.263604	0.499972
C25	C	0.166787	0.550441	0.083080
C26	C	0.666787	1.050441	0.583080
C27	C	0.164559	0.463387	0.083077
C28	C	0.664559	0.963387	0.583077
C29	C	0.164568	0.463409	-0.083166
C30	C	0.664568	0.963409	0.416834
C31	C	0.166787	0.550461	-0.083162
C32	C	0.666787	1.050461	0.416838
C33	C	0.167903	0.593975	-0.000036
C34	C	0.667903	1.093975	0.499964
C35	C	0.163455	0.419869	-0.000043
C36	C	0.663455	0.919869	0.499957
C37	C	0.161039	0.325482	-0.000047
C38	C	0.661039	0.825482	0.499953
C39	C	0.170317	0.688369	-0.000032
C40	C	0.670317	1.188369	0.499968
C41	C	-0.056174	0.979788	-0.000033
C42	C	0.443826	1.479788	0.499967
C43	C	-0.190880	0.957987	-0.000035
C44	C	0.309120	1.457987	0.499965
C45	C	-0.264709	1.018183	-0.000038
C46	C	0.235291	1.518183	0.499962
C47	C	-0.403934	0.995652	-0.000041
C48	C	0.096066	1.495652	0.499959
C49	C	0.387533	1.034056	-0.000041
C50	C	0.887533	1.534056	0.499959
C51	C	0.522238	1.055857	-0.000044
C52	C	1.022238	1.555857	0.499956
C53	C	0.156761	1.157592	-0.000042
C54	C	0.656761	1.657592	0.499958
C55	C	0.159118	1.250240	-0.000051
C56	C	0.659118	1.750240	0.499949
N57	N	0.165675	1.006915	0.216959
N58	N	0.665675	1.506915	0.716959
N59	N	0.165674	1.006935	-0.217031
N60	N	0.665674	1.506935	0.282969
C61	C	0.083186	1.051110	0.451966
C62	C	0.583186	1.551110	0.951966
C63	C	0.083183	1.051112	0.547947
C64	C	0.583183	1.551112	1.047947
C65	C	0.248166	0.962734	0.547956
C66	C	0.748166	1.462734	1.047956
C67	C	0.248163	0.962728	0.451977
C68	C	0.748163	1.462728	0.951977
C69	C	0.165674	1.006921	0.403984
C70	C	0.665674	1.506921	0.903984
C71	C	0.165675	1.006929	0.595945
C72	C	0.665675	1.506929	1.095945
C73	C	0.165672	1.006931	0.700012
C74	C	0.665672	1.506931	1.200012
C75	C	0.165675	1.006918	0.299910
C76	C	0.665675	1.506918	0.799910
H77	H	0.167693	0.585907	-0.150849
H78	H	0.667693	1.085907	0.349151
H79	H	-0.224844	1.086399	-0.000035
H80	H	0.275156	1.586399	0.499965
H81	H	-0.230744	0.889772	-0.000039
H82	H	0.269256	1.389772	0.499961
H83	H	0.163661	0.427969	-0.150844
H84	H	0.663661	0.927969	0.349156
H85	H	-0.443793	0.927432	-0.000045
H86	H	0.056207	1.427432	0.499955
O87	O	0.337123	0.915056	0.400213
O88	O	0.837123	1.415056	0.900213
H89	H	0.396103	0.958872	0.356462
H90	H	0.896103	1.458872	0.856462
H91	H	-0.437905	1.124078	-0.000115
H92	H	0.062095	1.624078	0.499885
O93	O	-0.005792	1.098760	0.400197
O94	O	0.494208	1.598760	0.900197
H95	H	-0.063160	1.129480	0.449691
H96	H	0.436840	1.629480	0.949691
H97	H	0.016013	1.087093	0.587011
H98	H	0.516013	1.587093	1.087011
O99	O	0.337148	0.915082	0.599718
O100	O	0.837148	1.415082	1.099718
H101	H	0.323305	0.922518	0.674520
H102	H	0.823305	1.422518	1.174520
O103	O	0.163366	0.416430	0.172723
O104	O	0.663366	0.916430	0.672723
H105	H	0.164525	0.461317	0.230522
H106	H	0.664525	0.961317	0.730522
H107	H	0.167695	0.585868	0.150766
H108	H	0.667695	1.085868	0.650766
