data_functionalizedCrystal
_audit_creation_method	'MofGen! by Chris Wilmer'
_symmetry_space_group_name_H-M	'P1'
_symmetry_Int_Tables_number	1
_symmetry_cell_setting	triclinic
loop_
_symmetry_equiv_pos_as_xyz
  x,y,z
_cell_length_a	13.033304
_cell_length_b	13.032721
_cell_length_c	13.032268
_cell_angle_alpha	76.710373
_cell_angle_beta	90.922231
_cell_angle_gamma	105.183092
loop_
_atom_site_label
_atom_site_type_symbol
_atom_site_fract_x
_atom_site_fract_y
_atom_site_fract_z
Zn1	Zn	-1.451133	0.335813	-0.818131
Zn2	Zn	-1.451019	0.490910	-0.663066
Zn3	Zn	-1.301797	0.330110	-0.623681
Zn4	Zn	-1.250931	0.535896	-0.818005
O5	O	-1.363720	0.423183	-0.730721
O6	O	-1.597353	0.339947	-0.814097
O7	O	-1.452464	0.448366	-0.511621
O8	O	-1.342943	0.179836	-0.633046
O9	O	-1.597269	0.453897	-0.700172
O10	O	-1.452659	0.184026	-0.775907
O11	O	-1.342832	0.330227	-0.482685
O12	O	-1.148815	0.373848	-0.632923
O13	O	-1.256248	0.530569	-0.964242
O14	O	-1.111443	0.525038	-0.775692
O15	O	-1.403335	0.383568	-0.964335
O16	O	-1.403141	0.647909	-0.700049
O17	O	-1.256137	0.680960	-0.813882
C18	C	-1.092212	0.453707	-0.700021
C19	C	-0.976052	0.466795	-0.686914
C20	C	-0.924277	0.416366	-0.737549
C21	C	-0.804220	0.429892	-0.724004
C22	C	-1.324132	0.703595	-0.761252
C23	C	-1.307287	0.823551	-0.774359
C24	C	-0.636290	0.392534	-0.761534
C25	C	-0.752448	0.379456	-0.774646
C26	C	-1.324130	0.462723	-1.003262
C27	C	-1.307259	0.479572	-1.119403
C28	C	-1.403488	0.141675	-0.700097
C29	C	-1.420434	0.021713	-0.687047
C30	C	-1.372560	0.860644	-0.723934
C31	C	-1.355151	0.984625	-0.737479
C32	C	-1.372514	0.414352	-1.171228
C33	C	-1.355079	0.431765	-1.291266
C34	C	-1.403227	0.383712	-0.459238
C35	C	-1.420343	0.366535	-0.343088
H36	H	-0.796999	0.326258	-0.828021
O37	O	-0.917040	0.537248	-0.616206
H38	H	-0.952446	0.504370	-0.534535
H39	H	-1.489117	0.297795	-1.298594
H40	H	-1.238479	0.548295	-1.163899
O41	O	-1.463680	0.781144	-0.653486
H42	H	-1.463061	0.696240	-0.653910
H43	H	-1.489214	0.961688	-0.633849
O44	O	-0.983280	0.345907	-0.808256
H45	H	-1.068318	0.346345	-0.807803
H46	H	-1.441285	0.345619	-1.126729
O47	O	-0.745221	0.500351	-0.653291
H48	H	-0.660181	0.499924	-0.653753
O49	O	-1.264038	1.064123	-0.807945
H50	H	-1.264654	1.149026	-0.807516
O51	O	-1.216178	0.903052	-0.844820
H52	H	-1.216794	0.987955	-0.844392
O53	O	-1.263966	0.522812	-1.350188
H54	H	-1.264572	0.522205	-1.435224
