data_functionalizedCrystal
_audit_creation_method	'MofGen! by Chris Wilmer'
_symmetry_space_group_name_H-M	'P1'
_symmetry_Int_Tables_number	1
_symmetry_cell_setting	triclinic
loop_
_symmetry_equiv_pos_as_xyz
  x,y,z
_cell_length_a	10.540539
_cell_length_b	16.992695
_cell_length_c	15.455313
_cell_angle_alpha	87.138508
_cell_angle_beta	92.694186
_cell_angle_gamma	87.596857
loop_
_atom_site_label
_atom_site_type_symbol
_atom_site_fract_x
_atom_site_fract_y
_atom_site_fract_z
O1	O	0.264106	1.045305	-0.072090
O2	O	0.764106	1.545305	0.427910
O3	O	0.261151	0.817004	-0.072099
O4	O	0.761151	1.317004	0.427901
O5	O	0.078374	0.936363	-0.072093
O6	O	0.578374	1.436363	0.427907
O7	O	0.446883	0.925946	-0.072096
O8	O	0.946883	1.425946	0.427904
O9	O	0.088780	0.929537	0.072169
O10	O	0.588780	1.429537	0.572169
O11	O	0.271557	0.810178	0.072163
O12	O	0.771557	1.310178	0.572163
O13	O	0.274512	1.038479	0.072172
O14	O	0.774512	1.538479	0.572172
Cu15	Cu	0.273984	0.923705	0.085340
Cu16	Cu	0.773984	1.423705	0.585340
Cu17	Cu	0.261678	0.931778	-0.085267
Cu18	Cu	0.761678	1.431778	0.414733
O19	O	0.457289	0.919120	0.072166
O20	O	0.957289	1.419120	0.572166
C21	C	0.036206	0.932169	0.000036
C22	C	0.536206	1.432169	0.500036
C23	C	-0.104945	0.929832	0.000031
C24	C	0.395055	1.429832	0.500031
C25	C	0.273110	1.071126	0.000041
C26	C	0.773110	1.571126	0.500041
C27	C	0.284450	1.158234	0.000039
C28	C	0.784450	1.658234	0.500039
C29	C	0.262553	0.784357	0.000031
C30	C	0.762553	1.284357	0.500031
C31	C	0.251212	0.697250	0.000027
C32	C	0.751212	1.197250	0.500027
C33	C	-0.296167	0.840287	-0.000296
C34	C	0.203833	1.340287	0.499704
C35	C	-0.149320	0.842641	0.000029
C36	C	0.350680	1.342641	0.500029
C37	C	-0.157019	0.967894	0.082414
C38	C	0.342981	1.467894	0.582414
C39	C	-0.303817	0.964915	0.082483
C40	C	0.196183	1.464915	0.582483
C41	C	-0.316015	0.974451	-0.081570
C42	C	0.183985	1.474451	0.418430
C43	C	-0.169042	0.975305	-0.082659
C44	C	0.330958	1.475305	0.417341
C45	C	0.499456	0.923314	0.000035
C46	C	0.999456	1.423314	0.500035
C47	C	0.640607	0.925652	0.000034
C48	C	1.140607	1.425652	0.500034
N49	N	0.282640	0.918034	0.205335
N50	N	0.782640	1.418034	0.705335
C51	C	0.175030	1.207862	0.000036
C52	C	0.675030	1.707862	0.500036
C53	C	0.185693	1.289708	0.000039
C54	C	0.685693	1.789708	0.500039
C55	C	0.305777	1.321925	0.000038
C56	C	0.805777	1.821925	0.500038
C57	C	0.415206	1.272291	0.000043
C58	C	0.915206	1.772291	0.500043
C59	C	0.404542	1.190446	0.000046
C60	C	0.904542	1.690446	0.500046
C61	C	0.349976	1.565770	0.000035
C62	C	0.849976	2.065770	0.500035
C63	C	0.360632	1.647622	0.000029
C64	C	0.860632	2.147622	0.500029
C65	C	0.131118	1.665033	0.000027
C66	C	0.631118	2.165033	0.500027
C67	C	0.120464	1.583186	0.000025
C68	C	0.620464	2.083186	0.500025
C69	C	0.229893	1.533559	0.000034
C70	C	0.729893	2.033559	0.500034
N71	N	0.316680	1.405585	0.000039
N72	N	0.816680	1.905585	0.500039
N73	N	0.218990	1.449900	0.000040
N74	N	0.718990	1.949900	0.500040
N75	N	0.253013	0.937456	-0.205262
N76	N	0.753013	1.437456	0.294738
C77	C	0.205022	0.968759	0.250732
C78	C	0.705022	1.468759	0.750732
C79	C	0.211580	0.964477	0.341539
C80	C	0.711580	1.464477	0.841539
C81	C	0.295764	0.909473	0.386949
C82	C	0.795764	1.409473	0.886949
C83	C	0.373384	0.858741	0.341546
C84	C	0.873384	1.358741	0.841546
C85	C	0.366819	0.863020	0.250740
C86	C	0.866819	1.363020	0.750740
C87	C	0.324068	0.891003	0.658529
C88	C	0.824068	1.391003	1.158529
C89	C	0.330631	0.886730	0.749341
C90	C	0.830631	1.386730	1.249341
C91	C	0.168824	0.992465	0.749329
C92	C	0.668824	1.492465	1.249329
C93	C	0.162272	0.996743	0.658521
C94	C	0.662272	1.496743	1.158521
C95	C	0.239888	0.946008	0.613126
C96	C	0.739888	1.446008	1.113126
N97	N	0.302472	0.905096	0.479769
N98	N	0.802472	1.405096	0.979769
N99	N	0.233172	0.950382	0.520308
N100	N	0.733172	1.450382	1.020308
H101	H	-0.113842	0.812418	-0.059026
H102	H	0.386158	1.312418	0.440974
Br103	Br	0.037188	1.357057	0.000045
Br104	Br	0.537188	1.857057	0.500045
H105	H	0.512982	1.298528	0.000048
H106	H	1.012982	1.798528	0.500048
H107	H	0.493644	1.150039	0.000051
H108	H	0.993644	1.650039	0.500051
Br109	Br	-0.374256	1.069131	0.088727
Br110	Br	0.125744	1.569131	0.588727
Br111	Br	-0.110140	1.074376	0.087529
Br112	Br	0.389860	1.574376	0.587529
Br113	Br	-0.082868	0.914481	0.184594
Br114	Br	0.417132	1.414481	0.684594
Br115	Br	-0.380175	0.932334	-0.185642
Br116	Br	0.119825	1.432334	0.314358
Br117	Br	-0.355913	0.787534	-0.098766
Br118	Br	0.144087	1.287534	0.401234
Br119	Br	0.048028	1.071395	0.596893
Br120	Br	0.548028	1.571395	1.096893
Br121	Br	-0.042516	1.539471	-0.000012
Br122	Br	0.457484	2.039471	0.499988
H123	H	0.441924	0.813951	0.378523
H124	H	0.941924	1.313951	0.878523
Br125	Br	-0.077409	0.782555	0.098614
Br126	Br	0.422591	1.282555	0.598614
Br127	Br	0.090777	1.043419	0.189114
Br128	Br	0.590777	1.543419	0.689114
Br129	Br	0.472153	0.794169	0.189130
Br130	Br	0.972153	1.294169	0.689130
H131	H	0.439081	1.525373	0.000038
H132	H	0.939081	2.025373	0.500038
Br133	Br	0.429404	0.822153	0.596926
Br134	Br	0.929404	1.322153	1.096926
H135	H	0.148377	1.005782	0.378501
H136	H	0.648377	1.505782	0.878501
Br137	Br	0.063491	1.061314	0.810939
Br138	Br	0.563491	1.561314	1.310939
Br139	Br	0.444896	0.812077	0.810963
Br140	Br	0.944896	1.312077	1.310963
H141	H	-0.330266	0.930991	0.144063
H142	H	0.169734	1.430991	0.644063
Br143	Br	-0.345056	0.778326	0.097315
Br144	Br	0.154944	1.278326	0.597315
H145	H	-0.135244	0.947487	-0.143603
H146	H	0.364756	1.447487	0.356397
Br147	Br	-0.017383	1.732388	0.000019
Br148	Br	0.482617	2.232388	0.500019
Br149	Br	-0.120069	1.081651	-0.090955
Br150	Br	0.379931	1.581651	0.409045
H151	H	0.077244	1.181638	0.000032
H152	H	0.577244	1.681638	0.500032
H153	H	-0.357816	1.037455	-0.082121
H154	H	0.142184	1.537455	0.417879
H155	H	0.458425	1.673848	0.000041
H156	H	0.958425	2.173848	0.500041
