data_functionalizedCrystal
_audit_creation_method	'MofGen! by Chris Wilmer'
_symmetry_space_group_name_H-M	'P1'
_symmetry_Int_Tables_number	1
_symmetry_cell_setting	triclinic
loop_
_symmetry_equiv_pos_as_xyz
  x,y,z
_cell_length_a	18.215407
_cell_length_b	13.897448
_cell_length_c	13.897441
_cell_angle_alpha	90.029627
_cell_angle_beta	90.019897
_cell_angle_gamma	90.018140
loop_
_atom_site_label
_atom_site_type_symbol
_atom_site_fract_x
_atom_site_fract_y
_atom_site_fract_z
Zn1	Zn	1.125109	-0.383982	0.545415
Zn2	Zn	1.458443	-0.050649	0.878748
Zn3	Zn	1.791776	0.282685	1.212081
Zn4	Zn	1.125033	-0.545301	0.384116
Zn5	Zn	1.458366	-0.211967	0.717449
Zn6	Zn	1.791700	0.121366	1.050783
Zn7	Zn	1.002042	-0.384023	0.384129
Zn8	Zn	1.335375	-0.050689	0.717463
Zn9	Zn	1.668708	0.282644	1.050796
Zn10	Zn	1.002023	-0.545238	0.545365
Zn11	Zn	1.335356	-0.211904	0.878698
Zn12	Zn	1.668690	0.121429	1.212032
O13	O	1.063552	-0.464636	0.464756
O14	O	1.396885	-0.131302	0.798090
O15	O	1.730218	0.202031	1.131423
O16	O	1.228083	-0.405390	0.524033
O17	O	1.561417	-0.072057	0.857367
O18	O	1.894750	0.261276	1.190700
O19	O	1.108694	-0.523950	0.249136
O20	O	1.442027	-0.190617	0.582469
O21	O	1.775360	0.142716	0.915803
O22	O	1.018406	-0.249036	0.405551
O23	O	1.351740	0.084298	0.738884
O24	O	1.685073	0.417631	1.072217
O25	O	1.228027	-0.523911	0.405528
O26	O	1.561361	-0.190577	0.738861
O27	O	1.894694	0.142756	1.072195
O28	O	1.108824	-0.249006	0.524046
O29	O	1.442157	0.084328	0.857379
O30	O	1.775490	0.417661	1.190713
O31	O	1.018333	-0.405460	0.249146
O32	O	1.351666	-0.072127	0.582479
O33	O	1.684999	0.261207	0.915813
O34	O	0.899055	-0.405399	0.405502
O35	O	1.232388	-0.072066	0.738836
O36	O	1.565722	0.261268	1.072169
O37	O	1.018375	-0.523803	0.680353
O38	O	1.351708	-0.190470	1.013687
O39	O	1.685042	0.142863	1.347020
O40	O	0.899041	-0.523843	0.523962
O41	O	1.232375	-0.190510	0.857295
O42	O	1.565708	0.142824	1.190628
O43	O	1.108806	-0.405329	0.680390
O44	O	1.442139	-0.071996	1.013723
O45	O	1.775472	0.261337	1.347056
O46	O	1.108676	-0.680274	0.405480
O47	O	1.442009	-0.346941	0.738813
O48	O	1.775342	-0.013607	1.072146
O49	O	1.018301	-0.680228	0.523949
O50	O	1.351634	-0.346894	0.857282
O51	O	1.684968	-0.013561	1.190615
C52	C	0.872345	-0.464619	0.464729
C53	C	1.205679	-0.131286	0.798062
C54	C	1.539012	0.202047	1.131395
C55	C	0.790547	-0.464635	0.464740
C56	C	1.123880	-0.131302	0.798073
C57	C	1.457213	0.202031	1.131406
C58	C	0.602365	-0.526406	0.526344
C59	C	0.935698	-0.193073	0.859677
C60	C	1.269031	0.140260	1.193011
C61	C	0.525506	-0.526409	0.526356
C62	C	0.858839	-0.193076	0.859689
C63	C	1.192173	0.140257	1.193023
C64	C	0.525491	-0.402883	0.403190
C65	C	0.858824	-0.069549	0.736523
C66	C	1.192157	0.263784	1.069856
C67	C	0.602348	-0.402876	0.403183
C68	C	0.935681	-0.069542	0.736517
C69	C	1.269015	0.263791	1.069850
C70	C	0.640783	-0.464643	0.464759
C71	C	0.974116	-0.131310	0.798092
C72	C	1.307450	0.202024	1.131426
C73	C	0.487067	-0.464653	0.464777
C74	C	0.820400	-0.131320	0.798111
C75	C	1.153734	0.202014	1.131444
C76	C	0.403733	-0.464656	0.464790
C77	C	0.737067	-0.131323	0.798123
C78	C	1.070400	0.202011	1.131457
C79	C	0.724122	-0.464639	0.464748
C80	C	1.057455	-0.131306	0.798081
C81	C	1.390789	0.202028	1.131415
C82	C	1.063498	-0.715250	0.464728
C83	C	1.396831	-0.381917	0.798062
C84	C	1.730165	-0.048583	1.131395
C85	C	1.063542	-0.822464	0.464749
C86	C	1.396876	-0.489131	0.798082
C87	C	1.730209	-0.155797	1.131415
C88	C	1.063620	-1.018759	0.464809
C89	C	1.396953	-0.685426	0.798142
C90	C	1.730286	-0.352092	1.131476
C91	C	1.063575	-0.909527	0.464778
C92	C	1.396908	-0.576193	0.798112
C93	C	1.730241	-0.242860	1.131445
C94	C	1.255505	-0.464653	0.464785
C95	C	1.588838	-0.131320	0.798118
C96	C	1.922171	0.202014	1.131451
C97	C	1.337303	-0.464660	0.464797
C98	C	1.670637	-0.131327	0.798130
C99	C	2.003970	0.202006	1.131463
C100	C	1.063597	-0.464555	0.716349
C101	C	1.396930	-0.131221	1.049683
C102	C	1.730263	0.202112	1.383016
C103	C	1.063616	-0.464520	0.823563
C104	C	1.396949	-0.131187	1.156897
C105	C	1.730283	0.202146	1.490230
C106	C	1.063626	-0.213043	0.464805
C107	C	1.396959	0.120291	0.798139
C108	C	1.730292	0.453624	1.131472
C109	C	1.063657	-0.105829	0.464826
C110	C	1.396991	0.227504	0.798160
C111	C	1.730324	0.560838	1.131493
C112	C	1.063549	-0.464647	0.214142
C113	C	1.396883	-0.131314	0.547475
C114	C	1.730216	0.202020	0.880809
C115	C	1.063673	-0.464410	0.106928
C116	C	1.397006	-0.131076	0.440262
C117	C	1.730339	0.202257	0.773595
C118	C	1.063631	-0.464493	0.910633
C119	C	1.396964	-0.131160	1.243967
C120	C	1.730298	0.202174	1.577300
C121	C	1.063652	-0.464450	1.019866
C122	C	1.396985	-0.131116	1.353199
C123	C	1.730319	0.202217	1.686532
H124	H	0.633656	-0.576699	0.576485
H125	H	0.966990	-0.243365	0.909819
H126	H	1.300323	0.089968	1.243152
C127	C	0.594619	-0.280778	0.281426
C128	C	0.927952	0.052555	0.614759
C129	C	1.261286	0.385888	0.948092
C130	C	0.644583	-0.334983	0.335480
C131	C	0.977917	-0.001650	0.668814
C132	C	1.311250	0.331684	1.002147
H133	H	0.620695	-0.238870	0.239630
H134	H	0.954028	0.094463	0.572963
H135	H	1.287362	0.427797	0.906296
H136	H	0.564663	-0.243934	0.323515
H137	H	0.897997	0.089399	0.656849
H138	H	1.231330	0.422732	0.990182
H139	H	0.564621	-0.322773	0.244461
H140	H	0.897954	0.010560	0.577794
H141	H	1.231287	0.343894	0.911127
H142	H	0.674578	-0.292988	0.372451
H143	H	1.007911	0.040345	0.705785
H144	H	1.341245	0.373678	1.039118
H145	H	0.674551	-0.371830	0.293386
H146	H	1.007885	-0.038497	0.626719
H147	H	1.341218	0.294837	0.960052
H148	H	0.494187	-0.352596	0.353056
H149	H	0.827521	-0.019262	0.686389
H150	H	1.160854	0.314071	1.019722
C151	C	0.533246	-0.648517	0.648088
C152	C	0.866580	-0.315183	0.981421
C153	C	1.199913	0.018150	1.314755
C154	C	0.483277	-0.594306	0.594048
C155	C	0.816610	-0.260973	0.927381
C156	C	1.149943	0.072361	1.260715
H157	H	0.507174	-0.690438	0.689876
H158	H	0.840508	-0.357105	1.023209
H159	H	1.173841	-0.023771	1.356542
H160	H	0.563243	-0.606534	0.685053
H161	H	0.896576	-0.273201	1.018386
H162	H	1.229909	0.060133	1.351719
H163	H	0.563203	-0.685356	0.605982
H164	H	0.896537	-0.352023	0.939315
H165	H	1.229870	-0.018690	1.272648
H166	H	0.453323	-0.557461	0.636154
H167	H	0.786657	-0.224128	0.969488
H168	H	1.119990	0.109206	1.302821
H169	H	0.453268	-0.636294	0.557081
H170	H	0.786601	-0.302961	0.890414
H171	H	1.119935	0.030372	1.223747
