data_functionalizedCrystal
_audit_creation_method	'MofGen! by Chris Wilmer'
_symmetry_space_group_name_H-M	'P1'
_symmetry_Int_Tables_number	1
_symmetry_cell_setting	triclinic
loop_
_symmetry_equiv_pos_as_xyz
  x,y,z
_cell_length_a	20.016444
_cell_length_b	23.196402
_cell_length_c	23.196402
_cell_angle_alpha	60.001115
_cell_angle_beta	90.003223
_cell_angle_gamma	60.000966
loop_
_atom_site_label
_atom_site_type_symbol
_atom_site_fract_x
_atom_site_fract_y
_atom_site_fract_z
Zr1	Zr	0.643624	0.630987	-0.075617
O2	O	0.536949	0.751257	-0.167670
O3	O	0.676324	0.510719	-0.047399
O4	O	0.676324	0.630986	-0.167666
O5	O	0.536951	0.630990	0.047468
O6	O	0.786268	0.630983	-0.167662
O7	O	0.536949	0.630990	-0.047403
O8	O	0.786268	0.415847	0.047475
O9	O	0.536952	0.846126	-0.167669
O10	O	0.772323	0.560184	-0.035359
O11	O	0.690275	0.560186	0.035438
O12	O	0.690275	0.701785	-0.106161
O13	O	0.608227	0.701788	-0.035364
Zr14	Zr	0.818978	0.630982	0.075698
Zr15	Zr	0.818973	0.630982	-0.075609
Zr16	Zr	0.643629	0.630987	0.075691
Zr17	Zr	0.643629	0.782292	-0.075614
Zr18	Zr	0.818973	0.479677	0.075696
O19	O	0.786278	0.751250	0.047480
O20	O	0.786272	0.751250	-0.167660
O21	O	0.536955	0.751257	0.047470
O22	O	0.925653	0.510711	0.167752
O23	O	0.925647	0.510712	-0.047388
O24	O	0.676330	0.510719	0.167741
O25	O	0.925651	0.630979	-0.047386
O26	O	0.786278	0.630983	0.167748
O27	O	0.676334	0.630986	0.167743
O28	O	0.925653	0.630978	0.047484
O29	O	0.676331	0.846122	-0.167663
O30	O	0.786271	0.415847	0.167745
O31	O	0.925650	0.415843	0.167751
O32	O	0.925647	0.415843	0.047481
O33	O	0.536955	0.846126	-0.047399
O34	O	0.676334	0.846122	-0.047394
O35	O	0.772327	0.560184	0.106243
O36	O	0.854375	0.560181	0.035445
O37	O	0.772327	0.701783	-0.035357
O38	O	0.690279	0.701785	0.035441
C39	C	0.731295	0.441725	0.000038
C40	C	0.731293	0.377493	0.000037
C41	C	0.670745	-0.033088	-0.052227
C42	C	0.670738	0.027270	-0.052226
C43	C	0.731308	0.005186	0.000040
C44	C	0.791877	-0.077265	0.052321
C45	C	0.791878	-0.137620	0.052323
C46	C	0.805238	0.060763	0.016331
C47	C	0.805237	0.121119	0.016324
C48	C	0.731307	0.191338	0.000038
C49	C	0.657371	0.201204	-0.016257
C50	C	0.657372	0.140850	-0.016255
C51	C	0.731314	0.070625	0.000044
C52	C	0.670731	0.339225	-0.052236
C53	C	0.670724	0.399582	-0.052231
C54	C	0.791869	0.295044	0.052314
C55	C	0.791870	0.234690	0.052311
C56	C	0.731301	0.256786	0.000033
C57	C	0.511967	0.630991	0.000032
C58	C	0.437526	0.630993	0.000028
C59	C	0.266269	0.630984	-0.052226
C60	C	0.196329	0.630979	-0.052221
C61	C	0.196339	0.630983	0.052313
C62	C	0.266282	0.630982	0.052311
C63	C	0.301242	0.630987	0.000037
C64	C	0.161360	0.630982	0.000044
C65	C	0.085528	0.630977	0.000050
C66	C	0.377080	0.630991	0.000032
C67	C	0.950635	0.630978	0.000050
C68	C	1.025076	0.630975	0.000053
C69	C	0.731296	0.630985	-0.189222
C70	C	0.731294	0.630985	-0.253456
C71	C	0.731307	0.820243	0.000044
C72	C	0.731309	0.884476	0.000045
C73	C	0.670733	0.630996	-0.716299
C74	C	0.670733	0.630990	-0.655942
C75	C	0.731302	0.630989	-0.625757
C76	C	0.791888	0.630973	-0.655925
C77	C	0.791891	0.630970	-0.716277
C78	C	0.750178	0.678495	-0.553890
C79	C	0.750169	0.678502	-0.493541
C80	C	0.731297	0.630993	-0.439608
C81	C	0.712415	0.583487	-0.446037
C82	C	0.712419	0.583485	-0.506390
C83	C	0.731306	0.630991	-0.560315
C84	C	0.670718	0.630998	-0.343998
C85	C	0.670723	0.630987	-0.283637
C86	C	0.791875	0.630978	-0.283626
C87	C	0.791873	0.630980	-0.343982
C88	C	0.731290	0.630994	-0.374167
C89	C	0.731307	0.630984	0.189304
C90	C	0.731308	0.630984	0.253538
C91	C	0.950630	0.441719	0.000047
C92	C	1.025068	0.377484	0.000049
C93	C	0.731301	0.441725	0.189301
C94	C	0.731300	0.377493	0.253534
C95	C	0.950635	0.441719	0.189310
C96	C	1.025075	0.377484	0.253546
C97	C	0.511967	0.820250	-0.189229
C98	C	0.437527	0.884485	-0.253465
C99	C	0.511973	0.820250	0.000034
C100	C	0.437534	0.884485	0.000032
C101	C	0.731301	0.820243	-0.189219
C102	C	0.731302	0.884476	-0.253452
C103	C	1.017194	0.347320	-0.036915
C104	C	1.087130	0.286972	-0.036927
C105	C	1.164938	0.256786	0.000030
C106	C	1.172810	0.286956	0.036995
C107	C	1.102875	0.347307	0.037003
C108	C	0.774131	0.347327	0.320664
C109	C	0.774128	0.286982	0.381024
C110	C	0.731298	0.256799	0.374252
C111	C	0.688463	0.286971	0.307115
C112	C	0.688462	0.347319	0.246756
C113	C	1.102868	0.347317	0.246757
C114	C	1.172819	0.286970	0.307108
C115	C	1.164975	0.256786	0.374248
C116	C	1.087173	0.286959	0.381036
C117	C	1.017224	0.347309	0.320686
C118	C	0.359734	0.914659	-0.246675
C119	C	0.289783	0.975025	-0.307026
C120	C	0.297627	1.005212	-0.374166
C121	C	0.375429	0.975035	-0.380954
C122	C	0.445378	0.914675	-0.320604
C123	C	0.445408	0.914655	0.036991
C124	C	0.375472	0.975019	0.036986
C125	C	0.297664	1.005207	0.000027
C126	C	0.289792	0.975035	-0.036936
C127	C	0.359727	0.914676	-0.036935
C128	C	0.774139	0.914639	-0.246658
C129	C	0.774155	0.974985	-0.307006
C130	C	0.731329	1.005170	-0.374148
C131	C	0.688490	0.975001	-0.380941
C132	C	0.688479	0.914653	-0.320594
H133	H	0.597171	0.148885	-0.029521
O134	O	0.731331	1.070271	-0.439236
H135	H	0.768307	1.086177	-0.423224
H136	H	0.653592	0.262388	0.301611
O137	O	0.642395	0.379740	0.174351
H138	H	0.612669	0.348564	0.179790
H139	H	0.809012	0.262423	0.435684
O140	O	1.111348	0.379868	0.174349
H141	H	1.081545	0.368279	0.145078
O142	O	0.605392	0.630989	-0.251095
H143	H	0.570480	0.686251	-0.251222
O144	O	0.731305	0.191706	0.439355
H145	H	0.758102	0.136711	0.439316
O146	O	0.933279	0.379874	-0.076786
H147	H	0.899368	0.446452	-0.117627
O148	O	0.529326	0.882103	0.076854
H149	H	0.563239	0.893678	0.039540
O150	O	0.857222	0.630967	-0.623374
H151	H	0.918284	0.575689	-0.607316
O152	O	0.383971	1.007546	0.076864
H153	H	0.449827	0.976398	0.102575
H154	H	0.765545	0.717187	-0.597803
O155	O	1.256725	0.254461	0.299773
H156	H	1.304054	0.207442	0.353013
H157	H	0.167857	0.630975	-0.094778
H158	H	1.221939	0.207645	0.423383
O159	O	0.857217	0.630975	-0.748825
H160	H	0.899333	0.630981	-0.717702
O161	O	1.078718	0.254397	0.453453
H162	H	1.044758	0.226899	0.459591
O163	O	0.605404	0.488503	-0.108617
H164	H	0.563298	0.493722	-0.144972
H165	H	0.621404	0.630999	-0.631378
O166	O	0.383882	1.007598	-0.453372
H167	H	0.417838	0.956939	-0.459517
O168	O	0.933318	0.379828	0.328012
H169	H	0.939624	0.348686	0.384839
H170	H	0.167866	0.630980	0.094872
H171	H	0.240725	1.054355	0.000032
O172	O	0.205868	1.007598	-0.076798
H173	H	0.158568	1.054631	-0.070579
H174	H	0.841197	-0.204747	0.094890
O175	O	0.857204	0.630984	-0.376521
H176	H	0.892134	0.575713	-0.376378
H177	H	0.353304	0.890113	-0.067029
H178	H	0.294733	0.630986	-0.094790
O179	O	0.857207	0.145770	0.108677
H180	H	0.899332	0.140551	0.145017
H181	H	1.221877	0.207645	0.000018
H182	H	0.697047	0.544802	-0.511620
H183	H	1.236171	0.262370	0.067084
O184	O	0.351255	0.882110	-0.174266
H185	H	0.412959	0.835060	-0.133433
O186	O	0.304006	0.630984	0.108685
H187	H	0.367893	0.575710	0.138822
O188	O	1.111374	0.379824	0.076889
H189	H	1.145346	0.407310	0.055542
H190	H	0.508719	0.890107	-0.326141
H191	H	0.809008	0.371895	0.326192
O192	O	0.222172	1.070319	-0.439251
H193	H	0.222199	1.047171	-0.471131
O194	O	0.820344	0.882080	-0.174244
H195	H	0.850141	0.913191	-0.179669
O196	O	0.205874	1.007552	-0.299698
H197	H	0.212178	0.976402	-0.242871
O198	O	0.820359	1.007521	-0.299672
H199	H	0.850123	0.976399	-0.242844
H200	H	0.653621	0.999587	-0.435616
H201	H	0.653592	0.890100	-0.326136
H202	H	0.621423	-0.015089	-0.094794
H203	H	0.597170	0.258381	-0.029521
O204	O	0.605421	0.116197	-0.108612
H205	H	0.563309	0.121420	-0.144967
O206	O	1.078631	0.254432	-0.076792
H207	H	1.012775	0.285553	-0.102476
H208	H	0.621411	0.357217	-0.094803
H209	H	0.865439	0.113082	0.029588
O210	O	0.857203	0.271217	0.108685
H211	H	0.828076	0.296222	0.138813
O212	O	0.884982	-0.014971	0.033891
H213	H	0.925018	-0.047705	0.087987
O214	O	0.857213	-0.101083	0.108687
H215	H	0.828089	-0.076075	0.138813
O216	O	0.605370	0.631052	-0.748877
H217	H	0.563242	0.631070	-0.717765
H218	H	0.697045	0.544803	-0.402125
H219	H	0.621390	0.631005	-0.368574
H220	H	0.765540	0.717188	-0.488315
O221	O	0.857212	0.630968	-0.251075
H222	H	0.847034	0.630972	-0.204041
