data_functionalizedCrystal
_audit_creation_method	'MofGen! by Chris Wilmer'
_symmetry_space_group_name_H-M	'P1'
_symmetry_Int_Tables_number	1
_symmetry_cell_setting	triclinic
loop_
_symmetry_equiv_pos_as_xyz
  x,y,z
_cell_length_a	14.560438
_cell_length_b	18.878441
_cell_length_c	14.560438
_cell_angle_alpha	60.000536
_cell_angle_beta	90.000977
_cell_angle_gamma	60.000373
loop_
_atom_site_label
_atom_site_type_symbol
_atom_site_fract_x
_atom_site_fract_y
_atom_site_fract_z
Zr1	Zr	0.884740	0.775359	-0.120489
O2	O	0.738091	0.923136	-0.267135
O3	O	0.929697	0.627582	-0.075537
O4	O	0.929695	0.775361	-0.267137
O5	O	0.738094	0.775354	0.075605
O6	O	1.080833	0.775363	-0.267134
O7	O	0.738094	0.775356	-0.075535
O8	O	1.080837	0.511012	0.075603
O9	O	0.738089	1.039705	-0.267132
O10	O	1.061662	0.688366	-0.056360
O11	O	0.948869	0.688363	0.056433
O12	O	0.948866	0.862355	-0.169151
O13	O	0.836073	0.862352	-0.056358
Zr14	Zr	1.125788	0.775359	0.120567
Zr15	Zr	1.125788	0.775362	-0.120485
Zr16	Zr	0.884740	0.775356	0.120563
Zr17	Zr	0.884737	0.961273	-0.120483
Zr18	Zr	1.125791	0.589444	0.120562
O19	O	1.080831	0.923136	0.075615
O20	O	1.080830	0.923141	-0.267130
O21	O	0.738091	0.923132	0.075610
O22	O	1.272437	0.627582	0.267214
O23	O	1.272436	0.627586	-0.075531
O24	O	0.929698	0.627577	0.267208
O25	O	1.272434	0.775363	-0.075527
O26	O	1.080833	0.775356	0.267215
O27	O	0.929695	0.775354	0.267213
O28	O	1.272434	0.775361	0.075614
O29	O	0.929690	1.039708	-0.267129
O30	O	1.080838	0.511010	0.267207
O31	O	1.272439	0.511012	0.267210
O32	O	1.272439	0.511015	0.075606
O33	O	0.738089	1.039703	-0.075527
O34	O	0.929690	1.039705	-0.075524
O35	O	1.061662	0.688363	0.169230
O36	O	1.174455	0.688366	0.056437
O37	O	1.061659	0.862355	-0.056355
O38	O	0.948866	0.862352	0.056438
C39	C	1.005268	0.542808	0.000032
C40	C	1.005269	0.463883	0.000030
C41	C	1.064143	0.426805	-0.058848
C42	C	1.064147	0.352640	-0.058839
C43	C	1.005270	0.315560	0.000041
C44	C	0.946394	0.352641	0.058926
C45	C	0.946397	0.426799	0.058924
C46	C	0.946390	0.198075	0.058925
C47	C	0.946385	0.123913	0.058927
C48	C	1.064140	0.123916	-0.058838
C49	C	1.064143	0.198074	-0.058840
C50	C	1.005265	0.235151	0.000043
C51	C	0.703750	0.775355	0.000034
C52	C	0.601418	0.775354	0.000033
C53	C	0.612218	0.684535	0.058908
C54	C	0.516063	0.684540	0.058919
C55	C	0.398312	0.866190	-0.058832
C56	C	0.494466	0.866184	-0.058834
C57	C	0.680200	0.579661	0.126887
C58	C	0.584045	0.579665	0.126897
C59	C	1.306778	0.775363	0.000044
C60	C	1.409110	0.775364	0.000046
C61	C	1.005264	0.775363	-0.301480
C62	C	1.005264	0.775364	-0.403813
C63	C	1.005260	1.007910	0.000046
C64	C	1.005259	1.086835	0.000049
C65	C	0.946381	0.866183	-0.510765
C66	C	0.946384	0.866178	-0.606914
C67	C	1.064154	0.684528	-0.489145
C68	C	1.064157	0.684534	-0.392998
C69	C	0.878383	0.971057	-0.578759
C70	C	0.878386	0.971052	-0.674908
C71	C	1.005264	0.775355	0.301559
C72	C	1.005264	0.775354	0.403892
C73	C	1.306782	0.542812	0.000037
C74	C	1.409115	0.463888	0.000037
C75	C	1.005268	0.542804	0.301552
C76	C	1.005269	0.463877	0.403882
C77	C	1.306782	0.542808	0.301557
C78	C	1.409115	0.463883	0.403889
C79	C	0.703746	1.007910	-0.301478
C80	C	0.601413	1.086835	-0.403810
C81	C	0.703746	1.007906	0.000041
C82	C	0.601413	1.086830	0.000042
C83	C	1.005260	1.007914	-0.301473
C84	C	1.005258	1.086841	-0.403804
C85	C	1.398294	0.426824	-0.058853
C86	C	1.494437	0.352677	-0.058876
C87	C	1.601400	0.315589	-0.000003
C88	C	1.612218	0.352660	0.058888
C89	C	1.516076	0.426811	0.058904
C90	C	1.064147	0.426812	0.510827
C91	C	1.064144	0.352662	0.606986
C92	C	1.005269	0.315574	0.596199
C93	C	0.946385	0.352646	0.489244
C94	C	0.946382	0.426800	0.393087
C95	C	1.516058	0.426820	0.393069
C96	C	1.612220	0.352671	0.489211
C97	C	1.601436	0.315581	0.596174
C98	C	1.494481	0.352652	0.606992
C99	C	1.398322	0.426804	0.510850
C100	C	0.494470	1.123907	-0.392990
C101	C	0.398308	1.198079	-0.489133
C102	C	0.409092	1.235172	-0.596095
C103	C	0.516047	1.198097	-0.606913
C104	C	0.612206	1.123932	-0.510771
C105	C	0.612234	1.123901	0.058921
C106	C	0.516091	1.198069	0.058918
C107	C	0.409128	1.235159	0.000041
C108	C	0.398310	1.198085	-0.058845
C109	C	0.494452	1.123923	-0.058848
C110	C	1.064144	1.123906	-0.392981
C111	C	1.064165	1.198056	-0.489122
C112	C	1.005293	1.235145	-0.596085
C113	C	0.946405	1.198073	-0.606906
C114	C	0.946391	1.123918	-0.510766
H115	H	1.112080	0.093723	-0.106782
O116	O	0.882876	1.083942	-0.522444
H117	H	0.817798	1.098171	-0.481458
O118	O	1.005304	0.235577	0.699923
H119	H	0.968479	0.264036	0.750702
O120	O	1.127661	1.083899	-0.277619
H121	H	1.168620	1.122129	-0.286263
O122	O	0.572493	0.536554	0.242210
H123	H	0.495203	0.538345	0.237460
O124	O	0.282963	1.238047	-0.477442
H125	H	0.217899	1.295861	-0.562259
O126	O	0.882914	0.083892	0.122461
H127	H	0.841995	0.122114	0.163428
H128	H	1.485607	0.322503	-0.106831
O129	O	1.705161	0.235591	0.699861
H130	H	1.679705	0.216022	0.776063
O131	O	1.727555	0.312732	0.477496
H132	H	1.774157	0.327002	0.518449
O133	O	1.127686	0.586581	-0.277639
H134	H	1.068259	0.582228	-0.230998
O135	O	1.127647	0.466797	-0.122355
H136	H	1.168595	0.428545	-0.163285
H137	H	0.923245	1.003595	-0.725830
H138	H	1.112117	1.228233	-0.480289
H139	H	0.485663	0.940137	-0.106773
H140	H	0.898441	0.456968	0.306011
H141	H	1.112103	0.610577	-0.480353
H142	H	0.898462	0.322440	0.106874
O143	O	0.928499	1.024380	-0.578772
H144	H	1.003861	0.972067	-0.502516
H145	H	1.112088	0.322451	-0.106781
O146	O	1.127639	0.238076	-0.122350
H147	H	1.168587	0.199831	-0.163288
H148	H	1.112090	0.457002	0.519631
H149	H	0.311209	1.228295	-0.106781
H150	H	0.791334	1.003601	-0.570032
O151	O	1.005294	1.315139	-0.699777
H152	H	1.056123	1.334685	-0.674270
O153	O	0.584017	0.526351	0.076784
H154	H	0.660253	0.500254	0.052231
O155	O	1.482855	0.312631	0.722361
H156	H	1.567694	0.254831	0.787386
O157	O	0.882895	1.238089	-0.722276
H158	H	0.892792	1.295889	-0.787300
O159	O	1.705094	0.235604	-0.000014
H160	H	1.679588	0.216060	-0.050847
O161	O	1.282975	0.466756	0.522526
H162	H	1.291644	0.428490	0.613058
O163	O	1.127678	0.312669	0.722338
H164	H	1.168635	0.350904	0.713674
O165	O	0.282959	0.964155	-0.122339
H166	H	0.217909	0.948904	-0.112454
O167	O	0.882881	0.238075	0.122427
H168	H	0.841926	0.199843	0.163359
O169	O	0.759142	1.024373	-0.744055
H170	H	0.700761	1.050471	-0.701649
H171	H	0.732358	0.539459	0.216906
O172	O	0.882891	0.466801	0.122420
H173	H	0.841939	0.428568	0.163355
H174	H	0.898451	0.322437	0.480478
H175	H	0.485668	1.093709	-0.305905
O176	O	0.305367	1.315176	-0.699782
H177	H	0.254593	1.286715	-0.699718
O178	O	0.747645	0.536556	0.067466
H179	H	0.753258	0.594053	-0.004348
O180	O	1.282933	0.466828	-0.122368
H181	H	1.291580	0.428599	-0.163329
O182	O	0.482776	1.083932	-0.122344
H183	H	0.392244	1.122180	-0.163269
H184	H	1.699319	0.322453	0.106820
O185	O	0.527673	1.238105	-0.722282
H186	H	0.486677	1.223869	-0.768892
O187	O	1.527761	0.466764	0.122448
H188	H	1.486787	0.548568	0.063032
O189	O	0.727553	1.083936	-0.522447
H190	H	0.718884	1.122186	-0.612979
H191	H	1.524860	0.457007	0.305983
H192	H	0.699319	1.093708	0.106873
H193	H	0.524921	1.228243	0.106874
O194	O	0.305434	1.315120	0.000084
H195	H	0.330940	1.334645	0.050942
