data_functionalizedCrystal
_audit_creation_method	'MofGen! by Chris Wilmer'
_symmetry_space_group_name_H-M	'P1'
_symmetry_Int_Tables_number	1
_symmetry_cell_setting	triclinic
loop_
_symmetry_equiv_pos_as_xyz
  x,y,z
_cell_length_a	16.109301
_cell_length_b	17.038272
_cell_length_c	14.586319
_cell_angle_alpha	89.995924
_cell_angle_beta	89.999213
_cell_angle_gamma	87.286518
loop_
_atom_site_label
_atom_site_type_symbol
_atom_site_fract_x
_atom_site_fract_y
_atom_site_fract_z
O1	O	1.110268	0.100495	-0.076183
O2	O	1.610268	0.600495	0.423817
O3	O	0.869094	0.113001	-0.076198
O4	O	1.369094	0.613001	0.423802
O5	O	0.988248	-0.007067	-0.076183
O6	O	1.488248	0.492933	0.423817
O7	O	0.991114	0.220564	-0.076198
O8	O	1.491114	0.720564	0.423802
O9	O	0.988239	-0.007069	0.076298
O10	O	1.488239	0.492931	0.576298
O11	O	0.869085	0.113000	0.076283
O12	O	1.369085	0.613000	0.576283
O13	O	1.110259	0.100493	0.076298
O14	O	1.610259	0.600493	0.576298
Cu15	Cu	0.989671	0.106746	0.090213
Cu16	Cu	1.489671	0.606746	0.590213
Cu17	Cu	0.989682	0.106748	-0.090113
Cu18	Cu	1.489682	0.606748	0.409887
O19	O	0.991105	0.220562	0.076283
O20	O	1.491105	0.720562	0.576283
C21	C	0.838079	0.112494	0.000041
C22	C	1.338079	0.612494	0.500041
C23	C	0.745676	0.110975	0.000035
C24	C	1.245676	0.610975	0.500035
C25	C	0.528212	0.178690	0.000042
C26	C	1.028212	0.678690	0.500042
C27	C	0.441390	0.177257	0.000048
C28	C	0.941390	0.677257	0.500048
C29	C	0.451147	0.034799	0.000053
C30	C	0.951147	0.534799	0.500053
C31	C	0.537968	0.036233	0.000054
C32	C	1.037968	0.536233	0.500054
C33	C	0.576498	0.108181	0.000043
C34	C	1.076498	0.608181	0.500043
C35	C	0.402855	0.105314	0.000049
C36	C	0.902855	0.605314	0.500049
C37	C	0.308719	0.103759	0.000055
C38	C	0.808719	0.603759	0.500055
C39	C	0.670640	0.109736	0.000039
C40	C	1.170640	0.609736	0.500039
C41	C	0.985636	-0.036196	0.000057
C42	C	1.485636	0.463804	0.500057
C43	C	0.977857	-0.122989	0.000056
C44	C	1.477857	0.377011	0.500056
C45	C	1.049277	-0.173104	0.000062
C46	C	1.549277	0.326896	0.500062
C47	C	1.041963	-0.254654	0.000052
C48	C	1.541963	0.245346	0.500052
C49	C	0.963228	-0.286089	0.000044
C50	C	1.463228	0.213911	0.500044
C51	C	0.891802	-0.235967	0.000036
C52	C	1.391802	0.264033	0.500036
C53	C	0.899116	-0.154418	0.000039
C54	C	1.399116	0.345582	0.500039
C55	C	0.937385	-0.531846	0.000030
C56	C	1.437385	-0.031846	0.500030
C57	C	0.930076	-0.613402	0.000031
C58	C	1.430076	-0.113402	0.500031
C59	C	1.080238	-0.632083	0.000045
C60	C	1.580238	-0.132083	0.500045
C61	C	1.087546	-0.550532	0.000053
C62	C	1.587546	-0.050532	0.500053
C63	C	1.016120	-0.500418	0.000040
C64	C	1.516120	-0.000418	0.500040
C65	C	0.955749	-0.369446	0.000038
C66	C	1.455749	0.130554	0.500038
C67	C	1.023599	-0.417062	0.000040
C68	C	1.523599	0.082938	0.500040
C69	C	1.141274	0.101001	0.000057
C70	C	1.641274	0.601001	0.500057
C71	C	1.233677	0.102519	0.000057
C72	C	1.733677	0.602519	0.500057
C73	C	0.993717	0.249691	0.000041
C74	C	1.493717	0.749691	0.500041
C75	C	1.001496	0.336484	0.000036
C76	C	1.501496	0.836484	0.500036
N77	N	0.989670	0.106744	0.217045
N78	N	1.489670	0.606744	0.717045
N79	N	0.989689	0.106744	-0.216945
N80	N	1.489689	0.606744	0.283055
C81	C	1.042451	0.053596	0.452058
C82	C	1.542451	0.553596	0.952058
C83	C	1.042453	0.053594	0.548039
C84	C	1.542453	0.553594	1.048039
C85	C	0.936902	0.159895	0.548036
C86	C	1.436902	0.659895	1.048036
C87	C	0.936896	0.159893	0.452056
C88	C	1.436896	0.659893	0.952056
C89	C	0.989675	0.106744	0.404070
C90	C	1.489675	0.606744	0.904070
C91	C	0.989684	0.106744	0.596030
C92	C	1.489684	0.606744	1.096030
C93	C	0.989686	0.106743	0.700098
C94	C	1.489686	0.606743	1.200098
C95	C	0.989672	0.106744	0.299996
C96	C	1.489672	0.606744	0.799996
H97	H	0.402079	0.234672	0.000048
H98	H	0.902079	0.734672	0.500048
N99	N	0.411774	-0.038683	0.000063
N100	N	0.911774	0.461317	0.500063
N101	N	0.334256	-0.039955	0.000062
N102	N	0.834256	0.460045	0.500062
H103	H	0.306449	-0.091853	0.000068
H104	H	0.806449	0.408147	0.500068
H105	H	1.085426	0.010315	0.587108
H106	H	1.585426	0.510315	1.087108
H107	H	0.879224	-0.491053	0.000020
H108	H	1.379224	0.008947	0.500020
N109	N	1.104016	-0.384942	0.000059
N110	N	1.604016	0.115058	0.500059
N111	N	1.124831	-0.341522	0.064338
N112	N	1.624831	0.158478	0.564338
H113	H	1.181626	-0.318829	0.064356
H114	H	1.681626	0.181171	0.564356
N115	N	0.587309	-0.035787	0.000045
N116	N	1.087309	0.464213	0.500045
N117	N	0.664825	-0.034493	0.000046
N118	N	1.164825	0.465507	0.500046
H119	H	0.699674	-0.085355	0.000043
H120	H	1.199674	0.414645	0.500043
N121	N	0.826163	-0.103223	0.000014
N122	N	1.326163	0.396777	0.500014
N123	N	0.775086	-0.106071	-0.064271
N124	N	1.275086	0.393929	0.435729
H125	H	0.723561	-0.069914	-0.064295
H126	H	1.223561	0.430086	0.435705
H127	H	0.891642	-0.395049	0.000034
H128	H	1.391642	0.104951	0.500034
H129	H	0.893932	0.203169	0.587116
H130	H	1.393932	0.703169	1.087116
N131	N	0.882986	0.214198	0.403047
N132	N	1.382986	0.714198	0.903047
N133	N	0.889235	0.286465	0.413757
N134	N	1.389235	0.786465	0.913757
H135	H	0.851160	0.324816	0.379145
H136	H	1.351160	0.824816	0.879145
H137	H	0.559580	0.237274	0.000040
H138	H	1.059580	0.737274	0.500040
H139	H	1.113392	-0.147517	0.000074
H140	H	1.613392	0.352483	0.500074
N141	N	1.114927	-0.305834	0.000049
N142	N	1.614927	0.194166	0.500049
N143	N	1.185221	-0.277758	0.000057
N144	N	1.685221	0.222242	0.500057
H145	H	1.236756	-0.313903	0.000051
H146	H	1.736756	0.186097	0.500051
H147	H	1.151661	-0.524945	0.000059
H148	H	1.651661	-0.024945	0.500059
H149	H	1.138389	-0.672894	0.000053
H150	H	1.638389	-0.172894	0.500053
N151	N	0.811382	-0.268090	0.000039
N152	N	1.311382	0.231910	0.500039
N153	N	0.790550	-0.311515	0.064314
N154	N	1.290550	0.188485	0.564314
H155	H	0.733753	-0.334202	0.064319
H156	H	1.233753	0.165798	0.564319
N157	N	0.849638	-0.645499	0.000040
N158	N	1.349638	-0.145499	0.500040
N159	N	0.785872	-0.600747	0.000039
N160	N	1.285872	-0.100747	0.500039
H161	H	0.729065	-0.623415	0.000053
H162	H	1.229065	-0.123415	0.500053
N163	N	1.096312	-0.000745	0.403054
N164	N	1.596312	0.499255	0.903054
N165	N	1.143393	-0.048226	0.445917
N166	N	1.643393	0.451774	0.945917
H167	H	1.181413	-0.086625	0.411312
H168	H	1.681413	0.413375	0.911312
