data_functionalizedCrystal
_audit_creation_method	'MofGen! by Chris Wilmer'
_symmetry_space_group_name_H-M	'P1'
_symmetry_Int_Tables_number	1
_symmetry_cell_setting	triclinic
loop_
_symmetry_equiv_pos_as_xyz
  x,y,z
_cell_length_a	15.995350
_cell_length_b	17.699083
_cell_length_c	16.176319
_cell_angle_alpha	89.992304
_cell_angle_beta	89.996232
_cell_angle_gamma	83.387695
loop_
_atom_site_label
_atom_site_type_symbol
_atom_site_fract_x
_atom_site_fract_y
_atom_site_fract_z
O1	O	1.110790	0.097560	-0.068678
O2	O	0.866991	0.109607	-0.068695
O3	O	0.995778	-0.006594	-0.068679
O4	O	0.982003	0.213761	-0.068695
O5	O	0.995761	-0.006602	0.068814
O6	O	0.866973	0.109600	0.068798
O7	O	1.110773	0.097552	0.068815
Cu8	Cu	0.988871	0.103575	0.081361
Cu9	Cu	0.988892	0.103584	-0.081241
O10	O	0.981985	0.213754	0.068799
C11	C	0.835788	0.109105	0.000049
C12	C	0.742841	0.107612	0.000043
C13	C	0.995276	-0.034796	0.000068
C14	C	0.993795	-0.118816	0.000068
C15	C	1.069391	-0.167312	0.000074
C16	C	1.067994	-0.246257	0.000067
C17	C	0.991001	-0.276706	0.000059
C18	C	0.915400	-0.228205	0.000050
C19	C	0.916797	-0.149261	0.000051
C20	C	0.909763	-0.546577	0.000043
C21	C	0.908372	-0.625527	0.000044
C22	C	1.060960	-0.643574	0.000058
C23	C	1.062358	-0.564630	0.000060
C24	C	0.986757	-0.516135	0.000047
C25	C	0.988272	-0.430533	0.000053
C26	C	0.989485	-0.362306	0.000058
C27	C	0.405104	0.102250	0.000060
C28	C	0.452706	0.019493	0.000373
C29	C	0.549394	0.020987	0.000057
C30	C	0.572659	0.104910	0.000052
C31	C	0.531499	0.145732	-0.078463
C32	C	0.434868	0.143653	-0.078523
C33	C	0.434505	0.145355	0.077833
C34	C	0.531450	0.145335	0.078865
C35	C	0.667354	0.106417	0.000045
C36	C	0.310409	0.100745	0.000062
C37	C	1.141975	0.098054	0.000069
C38	C	1.234923	0.099547	0.000070
C39	C	0.982487	0.241955	0.000050
C40	C	0.983968	0.325976	0.000044
N41	N	0.988863	0.103569	0.195726
N42	N	0.988907	0.103585	-0.195606
C43	C	1.045907	0.052136	0.238997
C44	C	1.045911	0.052135	0.325544
C45	C	0.988874	0.103571	0.368818
C46	C	0.931824	0.155007	0.325541
C47	C	0.931816	0.155003	0.238995
C48	C	0.931853	0.155021	0.674569
C49	C	0.931866	0.155022	0.761121
C50	C	1.045947	0.052153	0.761118
C51	C	1.045940	0.052149	0.674573
C52	C	0.988887	0.103582	0.631303
C53	C	0.988882	0.103581	0.537459
C54	C	0.988883	0.103576	0.462661
H55	H	1.132087	-0.142527	0.000086
H56	H	1.129552	-0.285740	0.000074
N57	N	0.873568	0.207558	0.630390
N58	N	0.822648	0.253477	0.669041
H59	H	0.781481	0.290584	0.637837
H60	H	1.125053	-0.539843	0.000070
N61	N	0.873549	0.207553	0.194805
N62	N	0.874550	0.277513	0.204457
H63	H	0.833395	0.314627	0.173249
H64	H	0.558820	0.115535	0.136950
N65	N	1.138188	-0.693111	0.000081
N66	N	1.154423	-0.739182	0.058041
H67	H	1.208964	-0.774166	0.058061
N68	N	0.394233	0.219864	-0.083004
N69	N	0.345603	0.245379	-0.026538
H70	H	0.316905	0.299200	-0.029709
N71	N	0.428208	-0.021829	-0.069848
N72	N	0.394495	-0.081480	-0.059893
H73	H	0.377186	-0.110663	-0.109485
N74	N	0.839570	-0.099732	0.000034
N75	N	0.770831	-0.126926	0.000022
H76	H	0.716286	-0.091947	0.000005
N77	N	0.585124	-0.019276	0.070661
N78	N	0.538659	-0.048679	0.120515
H79	H	0.563891	-0.077121	0.170379
N80	N	0.584427	-0.019532	-0.070669
N81	N	0.537459	-0.048999	-0.119955
H82	H	0.562199	-0.077616	-0.169910
N83	N	0.829721	-0.656632	0.000048
N84	N	0.778780	-0.641781	0.057999
H85	H	0.723237	-0.663750	0.058005
H86	H	0.885417	0.196909	0.796353
H87	H	0.848204	-0.507102	0.000032
N88	N	0.567151	0.110175	-0.151773
N89	N	0.542586	0.134497	-0.221214
H90	H	0.567762	0.109381	-0.272989
N91	N	0.836743	-0.259289	0.000038
N92	N	0.785819	-0.244420	-0.057921
H93	H	0.730264	-0.266370	-0.057926
H94	H	0.434244	-0.013590	0.056679
N95	N	0.411992	0.106317	-0.152149
N96	N	0.467367	0.081972	-0.203131
H97	H	0.451217	0.055601	-0.255132
H98	H	0.414017	0.118296	0.137345
N99	N	0.549062	0.223079	-0.082123
N100	N	0.592215	0.249040	-0.026774
H101	H	0.604621	0.303666	-0.029356
N102	N	0.550602	0.222099	0.084806
N103	N	0.625461	0.235542	0.089778
H104	H	0.638998	0.289757	0.093963
N105	N	1.104133	-0.000418	0.194770
N106	N	1.077619	-0.047394	0.146494
H107	H	1.118731	-0.084514	0.115250
N108	N	0.394491	0.221892	0.078495
N109	N	0.316019	0.234494	0.081047
H110	H	0.287754	0.288546	0.081510
N111	N	1.104183	-0.000411	0.369732
N112	N	1.155107	-0.046330	0.331085
H113	H	1.196263	-0.083444	0.362291
H114	H	1.092387	0.010268	0.639342
H115	H	1.092401	0.010271	0.796358
N116	N	0.873561	0.207538	0.369754
N117	N	0.873575	0.207535	0.447026
H118	H	0.832426	0.244637	0.478252
