data_functionalizedCrystal
_audit_creation_method	'MofGen! by Chris Wilmer'
_symmetry_space_group_name_H-M	'P1'
_symmetry_Int_Tables_number	1
_symmetry_cell_setting	triclinic
loop_
_symmetry_equiv_pos_as_xyz
  x,y,z
_cell_length_a	18.101395
_cell_length_b	18.215407
_cell_length_c	18.215399
_cell_angle_alpha	90.019833
_cell_angle_beta	89.973573
_cell_angle_gamma	89.968448
loop_
_atom_site_label
_atom_site_type_symbol
_atom_site_fract_x
_atom_site_fract_y
_atom_site_fract_z
Zn1	Zn	-0.294828	-1.125040	-0.416124
Zn2	Zn	0.205172	-0.625040	0.083876
Zn3	Zn	-0.418675	-1.124935	-0.293061
Zn4	Zn	0.081325	-0.624935	0.206939
Zn5	Zn	-0.294853	-1.001973	-0.293071
Zn6	Zn	0.205147	-0.501973	0.206929
Zn7	Zn	-0.418634	-1.001925	-0.416086
Zn8	Zn	0.081366	-0.501925	0.083914
O9	O	-0.356747	-1.063468	-0.354585
O10	O	0.143253	-0.563468	0.145415
O11	O	-0.311264	-1.228010	-0.399811
O12	O	0.188736	-0.728010	0.100189
O13	O	-0.402277	-1.108600	-0.190078
O14	O	0.097723	-0.608600	0.309922
O15	O	-0.191216	-1.018362	-0.309415
O16	O	0.308784	-0.518362	0.190585
O17	O	-0.402253	-1.227933	-0.309397
O18	O	0.097747	-0.727933	0.190603
O19	O	-0.191199	-1.108779	-0.399821
O20	O	0.308801	-0.608779	0.100179
O21	O	-0.311305	-1.018260	-0.190085
O22	O	0.188695	-0.518260	0.309915
O23	O	-0.311265	-0.898982	-0.309378
O24	O	0.188735	-0.398982	0.190622
O25	O	-0.402183	-1.018281	-0.519075
O26	O	0.097817	-0.518281	-0.019075
O27	O	-0.402207	-0.898947	-0.399756
O28	O	0.097793	-0.398947	0.100244
O29	O	-0.311224	-1.108733	-0.519103
O30	O	0.188776	-0.608733	-0.019103
O31	O	-0.522302	-1.108554	-0.309360
O32	O	-0.022302	-0.608554	0.190640
O33	O	-0.522272	-1.018179	-0.399746
O34	O	-0.022272	-0.518179	0.100254
C35	C	-0.356735	-0.872262	-0.354564
C36	C	0.143265	-0.372262	0.145436
C37	C	-0.356747	-0.790463	-0.354572
C38	C	0.143253	-0.290463	0.145428
C39	C	-0.549158	-1.063370	-0.354564
C40	C	-0.049158	-0.563370	0.145436
C41	C	-0.631472	-1.063395	-0.354579
C42	C	-0.131472	-0.563395	0.145421
C43	C	-0.356696	-1.063513	-0.546538
C44	C	0.143304	-0.563513	-0.046538
C45	C	-0.356675	-1.063532	-0.628337
C46	C	0.143325	-0.563532	-0.128337
C47	C	-0.930563	-1.063557	-0.354619
C48	C	-0.430563	-0.563557	0.145381
C49	C	-0.899249	-1.006827	-0.411628
C50	C	-0.399249	-0.506827	0.088372
C51	C	-0.813632	-1.006557	-0.411450
C52	C	-0.313632	-0.506557	0.088550
C53	C	-0.782180	-1.063476	-0.354600
C54	C	-0.282180	-0.563476	0.145400
C55	C	-0.813331	-1.042479	-0.277038
C56	C	-0.313331	-0.542479	0.222962
C57	C	-0.898976	-1.042113	-0.277380
C58	C	-0.398976	-0.542113	0.222620
C59	C	-0.898906	-1.141408	-0.374487
C60	C	-0.398906	-0.641408	0.125513
C61	C	-0.813255	-1.140950	-0.376188
C62	C	-0.313255	-0.640950	0.123812
C63	C	-0.698321	-1.063432	-0.354584
C64	C	-0.198321	-0.563432	0.145416
C65	C	-1.014422	-1.063599	-0.354629
C66	C	-0.514422	-0.563599	0.145371
C67	C	-0.163585	-1.063587	-0.354623
C68	C	0.336415	-0.563587	0.145377
C69	C	-0.081271	-1.063638	-0.354639
C70	C	0.418729	-0.563638	0.145361
C71	C	-0.356761	-1.255421	-0.354607
C72	C	0.143239	-0.755421	0.145393
C73	C	-0.356766	-1.337220	-0.354616
C74	C	0.143234	-0.837220	0.145384
C75	C	-0.404175	-0.602270	-0.401573
C76	C	0.095825	-0.102270	0.098427
C77	C	-0.404177	-0.525412	-0.401583
C78	C	0.095823	-0.025412	0.098417
C79	C	-0.309333	-0.525418	-0.307613
C80	C	0.190667	-0.025418	0.192387
C81	C	-0.309328	-0.602276	-0.307608
C82	C	0.190672	-0.102276	0.192392
C83	C	-0.356753	-0.640700	-0.354587
C84	C	0.143247	-0.140700	0.145413
C85	C	-0.356761	-0.486984	-0.354601
C86	C	0.143239	0.013016	0.145399
C87	C	-0.356763	-0.403650	-0.354611
C88	C	0.143237	0.096350	0.145389
C89	C	-0.356750	-0.724039	-0.354579
C90	C	0.143250	-0.224039	0.145421
C91	C	-0.309268	-1.110648	-0.816547
C92	C	0.190732	-0.610648	-0.316547
C93	C	-0.309246	-1.110656	-0.893406
C94	C	0.190754	-0.610656	-0.393406
C95	C	-0.403967	-1.016469	-0.893365
C96	C	0.096033	-0.516469	-0.393365
C97	C	-0.403984	-1.016457	-0.816508
C98	C	0.096016	-0.516457	-0.316508
C99	C	-0.356636	-1.063551	-0.778101
C100	C	0.143364	-0.563551	-0.278101
C101	C	-0.356597	-1.063571	-0.931817
C102	C	0.143403	-0.563571	-0.431817
C103	C	-0.356574	-1.063580	-1.015151
C104	C	0.143426	-0.563580	-0.515151
C105	C	-0.356657	-1.063541	-0.694762
C106	C	0.143343	-0.563541	-0.194762
C107	C	-0.356745	-1.063466	-0.163379
C108	C	0.143255	-0.563466	0.336621
C109	C	-0.356558	-1.063590	-0.081580
C110	C	0.143442	-0.563590	0.418420
H111	H	-0.919798	-1.019834	-0.469325
H112	H	-0.419798	-0.519834	0.030675
C113	C	-0.257151	-1.162470	-0.935697
C114	C	0.242849	-0.662470	-0.435697
H115	H	-0.263917	-1.155731	-0.986972
H116	H	0.236083	-0.655731	-0.486972
H117	H	-0.268001	-1.211906	-0.923106
H118	H	0.231999	-0.711906	-0.423106
H119	H	-0.207391	-1.151729	-0.923111
H120	H	0.292609	-0.651729	-0.423111
H121	H	-0.442792	-0.494126	-0.439845
H122	H	0.057208	0.005874	0.060155
C123	C	-0.456053	-0.964675	-0.935612
C124	C	0.043947	-0.464675	-0.435612
H125	H	-0.484261	-0.936619	-0.901705
H126	H	0.015739	-0.436619	-0.401705
H127	H	-0.488314	-0.992813	-0.965591
H128	H	0.011686	-0.492813	-0.465591
H129	H	-0.427712	-0.932628	-0.965595
H130	H	0.072288	-0.432628	-0.465595
H131	H	-0.920455	-1.160552	-0.430081
H132	H	-0.420455	-0.660552	0.069919
H133	H	-0.270712	-1.148992	-0.785278
H134	H	0.229288	-0.648992	-0.285278
C135	C	-0.784454	-0.966412	-0.253890
C136	C	-0.284454	-0.466412	0.246110
H137	H	-0.803610	-0.954193	-0.206879
H138	H	-0.303610	-0.454193	0.293121
H139	H	-0.799910	-0.930715	-0.288657
H140	H	-0.299910	-0.430715	0.211343
H141	H	-0.732022	-0.967404	-0.251843
H142	H	-0.232022	-0.467404	0.248157
C143	C	-0.785173	-1.024278	-0.489145
C144	C	-0.285173	-0.524278	0.010855
H145	H	-0.825954	-1.031706	-0.521103
H146	H	-0.325954	-0.531706	-0.021103
H147	H	-0.755868	-1.067529	-0.487650
H148	H	-0.255868	-0.567529	0.012350
H149	H	-0.756149	-0.984513	-0.506626
H150	H	-0.256149	-0.484513	-0.006626
C151	C	-0.928401	-0.929344	-0.394072
C152	C	-0.428401	-0.429344	0.105928
H153	H	-0.959570	-0.931416	-0.352149
H154	H	-0.459570	-0.431416	0.147851
H155	H	-0.955646	-0.911263	-0.434799
H156	H	-0.455646	-0.411263	0.065201
H157	H	-0.887966	-0.897552	-0.384421
H158	H	-0.387966	-0.397552	0.115579
H159	H	-0.270707	-0.633566	-0.269346
H160	H	0.229293	-0.133566	0.230654
C161	C	-0.926186	-1.198490	-0.318347
C162	C	-0.426186	-0.698490	0.181653
H163	H	-0.956729	-1.175035	-0.282975
H164	H	-0.456729	-0.675035	0.217025
H165	H	-0.884954	-1.220183	-0.294476
H166	H	-0.384954	-0.720183	0.205524
H167	H	-0.953701	-1.235456	-0.342941
H168	H	-0.453701	-0.735456	0.157059
C169	C	-0.257179	-0.483150	-0.255932
C170	C	0.242821	0.016850	0.244068
H171	H	-0.263979	-0.431872	-0.262658
H172	H	0.236021	0.068128	0.237342
H173	H	-0.207432	-0.495771	-0.266782
H174	H	0.292568	0.004229	0.233218
H175	H	-0.267962	-0.495723	-0.206465
H176	H	0.232038	0.004277	0.293535
H177	H	-0.792893	-1.156785	-0.433269
H178	H	-0.292893	-0.656785	0.066731
H179	H	-0.442556	-0.978100	-0.785204
H180	H	0.057444	-0.478100	-0.285204
H181	H	-0.793209	-0.948852	-0.398289
H182	H	-0.293209	-0.448852	0.101711
H183	H	-0.919019	-0.985204	-0.260549
H184	H	-0.419019	-0.485204	0.239451
C185	C	-0.926966	-1.095495	-0.218033
C186	C	-0.426966	-0.595495	0.281967
H187	H	-0.885992	-1.117304	-0.193818
H188	H	-0.385992	-0.617304	0.306182
H189	H	-0.956078	-1.132712	-0.240312
H190	H	-0.456078	-0.632712	0.259688
H191	H	-0.956086	-1.069389	-0.183341
H192	H	-0.456086	-0.569389	0.316659
H193	H	-0.792959	-1.082498	-0.233404
H194	H	-0.292959	-0.582498	0.266596
H195	H	-0.791842	-1.185453	-0.337692
H196	H	-0.291842	-0.685453	0.162308
H197	H	-0.442789	-0.633553	-0.439829
H198	H	0.057211	-0.133553	0.060171
