data_functionalizedCrystal
_audit_creation_method	'MofGen! by Chris Wilmer'
_symmetry_space_group_name_H-M	'P1'
_symmetry_Int_Tables_number	1
_symmetry_cell_setting	triclinic
loop_
_symmetry_equiv_pos_as_xyz
  x,y,z
_cell_length_a	12.759401
_cell_length_b	19.077068
_cell_length_c	12.759393
_cell_angle_alpha	92.262348
_cell_angle_beta	89.980324
_cell_angle_gamma	92.327351
loop_
_atom_site_label
_atom_site_type_symbol
_atom_site_fract_x
_atom_site_fract_y
_atom_site_fract_z
Zn1	Zn	1.589372	-0.280158	-0.610737
Zn2	Zn	1.582165	-0.397872	-0.442095
Zn3	Zn	1.413669	-0.280194	-0.435078
Zn4	Zn	1.406568	-0.397820	-0.617733
O5	O	1.497944	-0.339011	-0.526411
O6	O	1.735437	-0.295780	-0.588375
O7	O	1.559770	-0.382298	-0.294146
O8	O	1.442965	-0.181698	-0.452514
O9	O	1.730142	-0.382264	-0.464475
O10	O	1.572053	-0.181672	-0.581570
O11	O	1.435976	-0.295840	-0.288990
O12	O	1.265707	-0.295790	-0.459299
O13	O	1.430862	-0.382176	-0.763824
O14	O	1.260489	-0.382210	-0.593495
O15	O	1.565167	-0.295730	-0.758684
O16	O	1.552884	-0.496356	-0.471259
O17	O	1.423873	-0.496318	-0.600300
C18	C	1.224977	-0.338999	-0.526395
C19	C	1.108200	-0.339011	-0.526415
C20	C	1.056091	-0.294060	-0.591038
C21	C	0.946366	-0.294067	-0.591045
C22	C	0.940869	-0.383982	-0.461804
C23	C	1.050592	-0.383970	-0.461791
C24	C	1.486854	-0.521874	-0.537323
C25	C	1.482207	-0.600104	-0.542027
C26	C	1.547244	-0.636853	-0.477108
C27	C	1.542879	-0.710358	-0.481538
C28	C	1.473470	-0.747113	-0.550882
C29	C	1.408430	-0.710359	-0.615808
C30	C	1.412801	-0.636855	-0.611383
C31	C	1.453192	-0.966946	-0.571321
C32	C	1.448824	-1.040455	-0.575739
C33	C	1.583275	-1.040449	-0.441470
C34	C	1.587635	-0.966944	-0.437046
C35	C	1.522599	-0.930196	-0.501976
N36	N	1.469004	-0.822247	-0.555410
N37	N	1.527071	-0.855064	-0.497453
C38	C	1.771976	-0.339024	-0.526427
C39	C	1.888753	-0.339029	-0.526434
C40	C	1.498026	-0.338943	-0.800440
C41	C	1.498062	-0.338915	-0.917215
C42	C	1.509105	-0.155434	-0.515479
C43	C	1.513861	-0.077204	-0.510820
C44	C	1.568000	-0.293895	-0.969402
C45	C	1.568020	-0.293865	-1.079124
C46	C	1.428159	-0.383880	-1.084464
C47	C	1.428135	-0.383906	-0.974744
C48	C	1.497925	-0.339028	-0.253444
C49	C	1.498105	-0.338858	-0.136658
H50	H	1.102992	-0.257449	-0.643655
C51	C	0.878508	-0.432827	-0.391542
C52	C	0.947633	-0.472178	-0.334925
C53	C	0.890227	-0.517178	-0.270182
H54	H	0.833863	-0.463592	-0.433383
H55	H	0.837334	-0.405889	-0.344171
H56	H	0.988790	-0.499114	-0.382290
H57	H	0.992280	-0.441431	-0.293064
H58	H	0.849053	-0.490240	-0.222811
H59	H	0.845584	-0.547938	-0.312031
H60	H	0.937120	-0.543878	-0.231752
H61	H	1.359842	-0.606935	-0.664248
C62	C	1.107307	-0.432820	-0.391799
C63	C	1.167618	-0.477958	-0.453862
C64	C	1.219888	-0.522957	-0.389421
H65	H	1.057401	-0.459668	-0.353299
H66	H	1.151778	-0.405872	-0.344494
H67	H	1.123150	-0.504903	-0.501148
H68	H	1.217542	-0.451129	-0.492361
H69	H	1.264360	-0.496010	-0.342117
H70	H	1.169975	-0.549801	-0.350924
H71	H	1.260823	-0.553584	-0.431521
C72	C	1.643903	-0.244872	-1.135639
C73	C	1.625277	-0.175242	-1.104771
C74	C	1.695172	-0.130087	-1.156798
H75	H	1.633979	-0.251198	-1.209235
H76	H	1.713883	-0.255141	-1.118256
H77	H	1.555315	-0.164976	-1.122161
H78	H	1.635209	-0.168893	-1.031183
H79	H	1.765151	-0.140357	-1.139415
H80	H	1.685242	-0.136420	-1.230392
H81	H	1.682550	-0.082839	-1.135854
C82	C	0.889842	-0.245352	-0.661393
C83	C	0.915624	-0.260776	-0.766223
C84	C	0.863563	-0.215918	-0.831060
H85	H	0.910637	-0.198024	-0.643452
H86	H	0.816233	-0.251800	-0.652218
H87	H	0.989216	-0.254322	-0.775393
H88	H	0.894826	-0.308097	-0.784196
H89	H	0.789955	-0.222366	-0.821884
H90	H	0.884363	-0.168592	-0.813109
H91	H	0.881041	-0.226381	-0.902194
H92	H	1.624936	-0.257258	-0.922565
C93	C	1.622497	-0.596824	-0.401849
C94	C	1.612388	-0.524586	-0.411844
C95	C	1.681689	-0.487692	-0.342524
H96	H	1.692414	-0.608738	-0.417938
H97	H	1.606431	-0.608877	-0.331948
H98	H	1.628461	-0.512538	-0.481730
H99	H	1.542487	-0.512651	-0.395747
H100	H	1.665623	-0.499745	-0.272623
H101	H	1.751600	-0.499612	-0.358619
H102	H	1.674832	-0.438675	-0.349289
H103	H	1.595838	-0.740276	-0.428673
C104	C	1.352304	-0.432844	-1.146800
C105	C	1.370922	-0.502488	-1.124237
C106	C	1.301058	-0.547615	-1.181629
H107	H	1.362264	-0.426478	-1.219642
H108	H	1.282315	-0.422586	-1.128178
H109	H	1.440894	-0.512742	-1.142867
H110	H	1.360955	-0.508876	-1.051406
H111	H	1.231069	-0.537357	-1.163006
H112	H	1.311023	-0.541243	-1.254468
H113	H	1.313674	-0.594873	-1.166321
H114	H	1.371176	-0.420566	-0.932252
C115	C	1.662939	-0.927134	-0.361597
C116	C	1.639072	-0.945097	-0.258709
C117	C	1.708428	-0.908447	-0.189177
H118	H	1.656300	-0.878083	-0.368112
H119	H	1.732823	-0.939151	-0.377700
H120	H	1.569206	-0.933075	-0.242611
H121	H	1.645718	-0.994141	-0.252161
H122	H	1.778312	-0.920464	-0.205280
H123	H	1.701784	-0.859398	-0.195701
H124	H	1.692250	-0.920634	-0.119361
C125	C	1.654026	-1.080381	-0.371168
C126	C	1.718847	-1.122492	-0.433258
C127	C	1.784056	-1.159278	-0.368534
H128	H	1.612282	-1.109162	-0.327061
H129	H	1.696050	-1.047983	-0.329260
H130	H	1.676828	-1.154886	-0.475147
H131	H	1.760612	-1.093729	-0.477362
H132	H	1.826080	-1.126880	-0.326627
H133	H	1.742304	-1.188055	-0.324431
H134	H	1.828051	-1.187850	-0.410653
H135	H	1.392315	-1.070379	-0.632226
H136	H	1.400235	-0.937032	-0.624188
H137	H	1.351920	-0.740291	-0.672275
