data_functionalizedCrystal
_audit_creation_method	'MofGen! by Chris Wilmer'
_symmetry_space_group_name_H-M	'P1'
_symmetry_Int_Tables_number	1
_symmetry_cell_setting	triclinic
loop_
_symmetry_equiv_pos_as_xyz
  x,y,z
_cell_length_a	6.817900
_cell_length_b	27.923497
_cell_length_c	27.923559
_cell_angle_alpha	97.590127
_cell_angle_beta	98.965071
_cell_angle_gamma	98.964248
loop_
_atom_site_label
_atom_site_type_symbol
_atom_site_fract_x
_atom_site_fract_y
_atom_site_fract_z
V1	V	-3.954328	-0.067819	-0.151591
O2	O	-3.966068	0.002549	-0.148377
O3	O	-3.884366	-0.133791	-0.150871
O4	O	-3.884362	-0.067087	-0.217561
O5	O	-3.966072	-0.064616	-0.081225
V6	V	-4.443544	-0.059365	-0.143136
O7	O	-4.203097	-0.086363	-0.170137
O8	O	-4.644972	-0.040822	-0.124590
O9	O	-4.290300	0.006606	-0.143857
O10	O	-4.549201	-0.129733	-0.146351
O11	O	-4.549197	-0.062568	-0.213503
O12	O	-4.290304	-0.060097	-0.077166
C13	C	-3.724819	-0.149864	-0.148561
C14	C	-3.748760	-0.203798	-0.148411
C15	C	-3.874196	-0.531114	-0.102970
C16	C	-3.964250	-0.733818	-0.102382
O17	O	-3.956249	-0.753966	-0.064493
N18	N	-3.998704	-0.766295	-0.146773
C19	C	-4.010659	-0.748093	-0.191313
O20	O	-4.042051	-0.780367	-0.229057
C21	C	-3.920618	-0.545389	-0.191901
C22	C	-3.886143	-0.512914	-0.147507
C23	C	-3.839725	-0.498640	-0.058579
C24	C	-3.817202	-0.447966	-0.058727
C25	C	-3.829150	-0.429767	-0.103264
C26	C	-3.863620	-0.462241	-0.147654
C27	C	-3.932587	-0.527188	-0.236441
C28	C	-3.910078	-0.476508	-0.236584
C29	C	-3.875603	-0.444034	-0.192190
C30	C	-3.853045	-0.393369	-0.192339
N31	N	-3.818591	-0.360892	-0.147948
C32	C	-3.806643	-0.379092	-0.103411
C33	C	-4.057925	-0.854514	-0.191002
C34	C	-4.080432	-0.905190	-0.190855
C35	C	-4.034026	-0.890912	-0.101924
C36	C	-4.011505	-0.840236	-0.102071
C37	C	-4.023471	-0.822038	-0.146611
C38	C	-3.759343	-0.272675	-0.103723
C39	C	-3.736812	-0.221997	-0.103874
C40	C	-3.783231	-0.236280	-0.192806
C41	C	-3.805750	-0.286952	-0.192655
C42	C	-3.793810	-0.305148	-0.148110
O43	O	-3.861045	-0.373187	-0.230208
O44	O	-3.775294	-0.346810	-0.065673
C45	C	-3.896718	-0.581787	-0.102822
C46	C	-3.931189	-0.614261	-0.147212
C47	C	-3.943137	-0.596062	-0.191750
C48	C	-3.953696	-0.664936	-0.147066
C49	C	-3.941748	-0.683136	-0.102528
C50	C	-3.907294	-0.650659	-0.058138
C51	C	-3.884771	-0.599986	-0.058285
C52	C	-3.977591	-0.628538	-0.236140
C53	C	-4.000110	-0.679211	-0.235989
C54	C	-3.988162	-0.697410	-0.191452
C55	C	-3.724813	-0.064776	-0.233630
C56	C	-3.748749	-0.064614	-0.287563
C57	C	-3.920608	-0.108134	-0.629156
C58	C	-4.010668	-0.107555	-0.831862
O59	O	-4.042132	-0.145295	-0.864147
N60	N	-3.998716	-0.063018	-0.850066
C61	C	-3.964260	-0.018624	-0.817590
O62	O	-3.956181	0.019271	-0.837726
C63	C	-3.874215	-0.019203	-0.614886
C64	C	-3.886149	-0.063742	-0.596684
C65	C	-3.932543	-0.152669	-0.610954
C66	C	-3.910018	-0.152813	-0.560280
C67	C	-3.875559	-0.108422	-0.527809
C68	C	-3.863625	-0.063886	-0.546011
C69	C	-3.839774	0.025191	-0.582411
C70	C	-3.817268	0.025042	-0.531732
C71	C	-3.829202	-0.019497	-0.513531
C72	C	-3.806641	-0.019639	-0.462865
N73	N	-3.818593	-0.064175	-0.444661
C74	C	-3.853052	-0.108567	-0.477133
C75	C	-4.011532	-0.018322	-0.924014
C76	C	-4.034040	-0.018177	-0.974690
C77	C	-4.080450	-0.107109	-0.988958
C78	C	-4.057928	-0.107254	-0.938281
C79	C	-4.023484	-0.062859	-0.905810
C80	C	-3.805745	-0.108866	-0.370714
C81	C	-3.783208	-0.109006	-0.320035
C82	C	-3.736810	-0.020075	-0.305771
C83	C	-3.759335	-0.019934	-0.356446
C84	C	-3.793810	-0.064334	-0.388916
O85	O	-3.775195	0.018081	-0.430552
O86	O	-3.861168	-0.146456	-0.456988
C87	C	-3.943133	-0.107990	-0.679830
C88	C	-3.931198	-0.063454	-0.698032
C89	C	-3.896739	-0.019062	-0.665560
C90	C	-3.953706	-0.063309	-0.748707
C91	C	-3.988165	-0.107701	-0.781179
C92	C	-4.000117	-0.152237	-0.762975
C93	C	-3.977592	-0.152381	-0.712301
C94	C	-3.884788	0.025474	-0.683764
C95	C	-3.907312	0.025615	-0.734438
C96	C	-3.941771	-0.018777	-0.766910
C97	C	-4.113188	0.022677	-0.146165
C98	C	-4.068484	0.076611	-0.146318
C99	C	-4.113195	-0.062410	-0.061095
C100	C	-4.068499	-0.062569	-0.007161
H101	H	-3.792945	-0.221453	-0.229067
C102	C	-4.070394	-0.155576	-0.918462
C103	C	-3.888420	-0.155933	-0.887456
C104	C	-3.899791	-0.200438	-0.869186
H105	H	-4.177897	-0.159081	-0.900536
H106	H	-4.094010	-0.182020	-0.945032
H107	H	-3.864827	-0.129497	-0.860890
H108	H	-3.780889	-0.152436	-0.905371
H109	H	-3.923407	-0.226882	-0.895756
H110	H	-4.007300	-0.203939	-0.851262
H111	H	-3.776320	-0.200688	-0.848150
H112	H	-4.024292	-0.905738	-0.065659
H113	H	-3.792923	-0.145277	-0.305218
H114	H	-3.856700	-0.573549	-0.022135
H115	H	-3.789145	-0.421529	-0.022577
H116	H	-3.960658	-0.553621	-0.272591
C117	C	-3.973817	0.029847	-0.888700
C118	C	-3.789217	0.034657	-0.856840
C119	C	-3.754420	0.079021	-0.824299
H120	H	-3.969777	0.056433	-0.906738
H121	H	-4.079470	0.030089	-0.870193
H122	H	-3.683591	0.034420	-0.875345
H123	H	-3.793212	0.008082	-0.838790
H124	H	-3.860073	0.079262	-0.805792
H125	H	-3.750389	0.105603	-0.842342
H126	H	-3.629176	0.082288	-0.802676
C127	C	-3.990701	-0.200791	-0.692641
C128	C	-4.025739	-0.239632	-0.731933
C129	C	-4.037846	-0.284237	-0.713845
H130	H	-3.867475	-0.201209	-0.671596
H131	H	-4.098408	-0.204288	-0.674768
H132	H	-3.918040	-0.236137	-0.749798
H133	H	-4.148965	-0.239230	-0.752981
H134	H	-4.145553	-0.287733	-0.695973
H135	H	-3.914616	-0.284650	-0.692801
H136	H	-4.061639	-0.310595	-0.740502
H137	H	-3.830037	0.061460	-0.597221
C138	C	-4.117927	-0.940367	-0.239107
C139	C	-4.123626	-0.913576	-0.278140
C140	C	-4.158202	-0.945963	-0.322599
H141	H	-4.012279	-0.958861	-0.239416
H142	H	-4.243197	-0.962011	-0.242483
H143	H	-3.998372	-0.891940	-0.274765
H144	H	-4.229273	-0.895083	-0.277847
H145	H	-4.283472	-0.967607	-0.325975
H146	H	-4.052549	-0.964456	-0.322902
H147	H	-4.162091	-0.927790	-0.349088
C148	C	-3.826570	-0.518295	-0.010167
C149	C	-3.791515	-0.479000	0.028670
C150	C	-3.779338	-0.497082	0.073279
H151	H	-3.949776	-0.539343	-0.009740
H152	H	-3.718846	-0.536164	-0.006676
H153	H	-3.899231	-0.461139	0.025181
H154	H	-3.668309	-0.457949	0.028259
H155	H	-3.671614	-0.514951	0.076770
H156	H	-3.902548	-0.518130	0.073701
H157	H	-3.755533	-0.470424	0.099635
H158	H	-3.789226	0.061195	-0.505296
C159	C	-4.071307	-0.834741	-0.239356
C160	C	-4.230133	-0.808418	-0.244348
C161	C	-4.242535	-0.790205	-0.288888
H162	H	-3.948173	-0.813654	-0.239760
H163	H	-4.095157	-0.861334	-0.265783
H164	H	-4.206270	-0.781829	-0.217928
H165	H	-4.353294	-0.829495	-0.243953
H166	H	-4.266384	-0.816798	-0.315315
H167	H	-4.119392	-0.769120	-0.289288
H168	H	-4.350308	-0.772347	-0.292283
H169	H	-3.960607	-0.188820	-0.637388
C170	C	-3.746799	-0.292458	-0.055380
C171	C	-3.928735	-0.323458	-0.054981
C172	C	-3.917251	-0.341685	-0.010453
H173	H	-3.639280	-0.310379	-0.051869
H174	H	-3.723148	-0.265868	-0.028955
H175	H	-3.952363	-0.350044	-0.081398
H176	H	-4.036282	-0.305548	-0.058483
H177	H	-3.893600	-0.315096	0.015972
H178	H	-3.809725	-0.359604	-0.006946
H179	H	-4.040696	-0.362717	-0.010174
C180	C	-3.698999	0.028141	-0.270529
C181	C	-3.520107	0.057300	-0.276199
C182	C	-3.485213	0.101717	-0.243737
H183	H	-3.808455	0.044936	-0.277454
H184	H	-3.687184	0.021695	-0.237733
H185	H	-3.531936	0.063747	-0.308987
H186	H	-3.410615	0.040520	-0.269269
H187	H	-3.473399	0.095271	-0.210941
H188	H	-3.594680	0.118507	-0.250665
H189	H	-3.363825	0.121504	-0.247576
H190	H	-3.897576	0.061887	-0.749252
H191	H	-3.919848	-0.461696	-0.272856
H192	H	-3.749627	0.016333	-0.371266
C193	C	-3.990209	-0.608710	-0.284457
C194	C	-3.808306	-0.577689	-0.284841
C195	C	-3.819860	-0.559411	-0.329342
H196	H	-4.013853	-0.635261	-0.310912
H197	H	-4.097785	-0.590794	-0.287926
H198	H	-3.700761	-0.595604	-0.281378
H199	H	-3.784628	-0.551130	-0.258397
H200	H	-3.927436	-0.541495	-0.332810
H201	H	-3.843508	-0.585965	-0.355793
H202	H	-3.696450	-0.538358	-0.329607
H203	H	-3.856734	0.061624	-0.657330
C204	C	-3.843268	-0.322136	-0.240906
C205	C	-3.848954	-0.295349	-0.279941
C206	C	-3.883564	-0.327739	-0.324398
H207	H	-3.737639	-0.340636	-0.241214
H208	H	-3.968550	-0.343774	-0.244278
H209	H	-3.723688	-0.273719	-0.276569
H210	H	-3.954583	-0.276850	-0.279648
H211	H	-4.008846	-0.349378	-0.327771
H212	H	-3.777930	-0.346238	-0.324702
H213	H	-3.887445	-0.309570	-0.350889
C214	C	-3.973685	-0.804952	-0.053881
C215	C	-3.789036	-0.773109	-0.049059
C216	C	-3.754125	-0.740607	-0.004667
H217	H	-4.079233	-0.786425	-0.053594
H218	H	-3.969672	-0.823036	-0.027322
H219	H	-3.793065	-0.755027	-0.075610
H220	H	-3.683450	-0.791622	-0.049336
H221	H	-3.750112	-0.758690	0.021891
H222	H	-3.859684	-0.722083	-0.004385
H223	H	-3.628831	-0.719000	-0.001388
H224	H	-3.897556	-0.665485	-0.021874
H225	H	-3.708733	-0.195558	-0.067722
C226	C	-4.037629	-0.714388	-0.284246
C227	C	-4.043324	-0.687597	-0.323278
C228	C	-4.077928	-0.719985	-0.367737
H229	H	-3.931994	-0.732887	-0.284556
H230	H	-4.162907	-0.736029	-0.287620
H231	H	-3.918063	-0.665965	-0.319905
H232	H	-4.148959	-0.669100	-0.322983
H233	H	-4.203205	-0.741625	-0.371111
H234	H	-3.972288	-0.738481	-0.368043
H235	H	-4.081815	-0.701812	-0.394226
H236	H	-4.028166	-0.188382	-0.789422
H237	H	-3.833813	-0.145020	-0.397146
H238	H	-3.919750	-0.189082	-0.545466
C239	C	-4.117997	-0.155257	-1.024300
C240	C	-4.135205	-0.145592	-1.072574
C241	C	-4.169839	-0.189931	-1.105146
H242	H	-4.008470	-0.172038	-1.017411
H243	H	-4.239380	-0.175108	-1.020542
H244	H	-4.013836	-0.125749	-1.076329
H245	H	-4.244734	-0.128818	-1.079477
H246	H	-4.291222	-0.209782	-1.101388
H247	H	-4.060306	-0.206709	-1.098253
H248	H	-4.181537	-0.183380	-1.137904
H249	H	-4.024293	0.018091	-0.989504
