data_functionalizedCrystal
_audit_creation_method	'MofGen! by Chris Wilmer'
_symmetry_space_group_name_H-M	'P1'
_symmetry_Int_Tables_number	1
_symmetry_cell_setting	triclinic
loop_
_symmetry_equiv_pos_as_xyz
  x,y,z
_cell_length_a	25.639242
_cell_length_b	25.639240
_cell_length_c	25.639233
_cell_angle_alpha	89.974071
_cell_angle_beta	89.977834
_cell_angle_gamma	90.028283
loop_
_atom_site_label
_atom_site_type_symbol
_atom_site_fract_x
_atom_site_fract_y
_atom_site_fract_z
Zn1	Zn	0.799247	-0.208277	-0.295716
Zn2	Zn	1.132580	0.125057	0.037617
Zn3	Zn	1.465913	0.458390	0.370951
Zn4	Zn	0.799179	-0.295696	-0.208270
Zn5	Zn	1.132512	0.037638	0.125064
Zn6	Zn	1.465846	0.370971	0.458397
Zn7	Zn	0.711823	-0.208269	-0.208280
Zn8	Zn	1.045156	0.125064	0.125053
Zn9	Zn	1.378490	0.458398	0.458386
Zn10	Zn	0.711777	-0.295676	-0.295659
Zn11	Zn	1.045110	0.037657	0.037674
Zn12	Zn	1.378444	0.370990	0.371007
O13	O	0.755506	-0.251979	-0.251981
O14	O	1.088840	0.081354	0.081352
O15	O	1.422173	0.414687	0.414685
O16	O	0.872403	-0.219884	-0.284135
O17	O	1.205736	0.113449	0.049198
O18	O	1.539069	0.446782	0.382531
O19	O	0.787582	-0.284103	-0.135106
O20	O	1.120915	0.049230	0.198228
O21	O	1.454249	0.382563	0.531561
O22	O	0.723467	-0.135105	-0.219907
O23	O	1.056801	0.198228	0.113426
O24	O	1.390134	0.531562	0.446760
O25	O	0.872353	-0.284111	-0.219889
O26	O	1.205687	0.049223	0.113445
O27	O	1.539020	0.382556	0.446778
O28	O	0.787697	-0.135111	-0.284146
O29	O	1.121030	0.198223	0.049188
O30	O	1.454364	0.531556	0.382521
O31	O	0.723402	-0.219871	-0.135114
O32	O	1.056735	0.113462	0.198220
O33	O	1.390069	0.446795	0.531553
O34	O	0.638652	-0.219853	-0.219852
O35	O	0.971985	0.113481	0.113481
O36	O	1.305318	0.446814	0.446815
O37	O	0.723389	-0.284078	-0.368832
O38	O	1.056722	0.049256	-0.035499
O39	O	1.390056	0.382589	0.297834
O40	O	0.638618	-0.284070	-0.284049
O41	O	0.971951	0.049263	0.049284
O42	O	1.305285	0.382597	0.382618
O43	O	0.787653	-0.219866	-0.368874
O44	O	1.120986	0.113468	-0.035540
O45	O	1.454319	0.446801	0.297793
O46	O	0.787538	-0.368858	-0.219834
O47	O	1.120871	-0.035525	0.113500
O48	O	1.454204	0.297808	0.446833
O49	O	0.723324	-0.368844	-0.284039
O50	O	1.056657	-0.035511	0.049295
O51	O	1.389990	0.297823	0.382628
C52	C	0.619664	-0.251959	-0.251946
C53	C	0.952997	0.081375	0.081387
C54	C	1.286331	0.414708	0.414721
C55	C	0.561550	-0.251963	-0.251943
C56	C	0.894883	0.081371	0.081390
C57	C	1.228216	0.414704	0.414724
C58	C	0.201178	-0.285473	-0.285377
C59	C	0.534511	0.047860	0.047956
C60	C	0.867845	0.381193	0.381290
C61	C	0.146574	-0.285477	-0.285385
C62	C	0.479907	0.047857	0.047948
C63	C	0.813240	0.381190	0.381281
O64	O	0.118330	-0.313943	-0.313782
O65	O	0.451663	0.019390	0.019551
O66	O	0.784996	0.352724	0.352885
N67	N	0.119267	-0.251994	-0.252015
N68	N	0.452601	0.081340	0.081318
N69	N	0.785934	0.414673	0.414651
C70	C	0.146568	-0.218502	-0.218639
C71	C	0.479901	0.114831	0.114694
C72	C	0.813235	0.448165	0.448028
O73	O	0.118328	-0.190022	-0.190256
O74	O	0.451661	0.143311	0.143077
O75	O	0.784994	0.476645	0.476410
C76	C	0.201171	-0.218496	-0.218634
C77	C	0.534505	0.114837	0.114700
C78	C	0.867838	0.448170	0.448033
C79	C	0.228475	-0.251985	-0.252002
C80	C	0.561808	0.081348	0.081331
C81	C	0.895142	0.414681	0.414665
C82	C	0.228482	-0.318959	-0.318743
C83	C	0.561815	0.014374	0.014590
C84	C	0.895148	0.347708	0.347924
C85	C	0.283082	-0.318956	-0.318734
C86	C	0.616416	0.014377	0.014599
C87	C	0.949749	0.347710	0.347933
C88	C	0.310379	-0.285468	-0.285359
C89	C	0.643713	0.047865	0.047974
C90	C	0.977046	0.381199	0.381308
C91	C	0.283076	-0.251983	-0.251993
C92	C	0.616409	0.081351	0.081340
C93	C	0.949742	0.414684	0.414674
C94	C	0.228471	-0.185002	-0.185260
C95	C	0.561804	0.148331	0.148073
C96	C	0.895138	0.481664	0.481407
C97	C	0.283078	-0.184999	-0.185258
C98	C	0.616411	0.148334	0.148075
C99	C	0.949745	0.481667	0.481409
C100	C	0.310382	-0.218488	-0.218626
C101	C	0.643715	0.114845	0.114707
C102	C	0.977048	0.448178	0.448040
C103	C	0.364973	-0.218492	-0.218609
C104	C	0.698306	0.114842	0.114725
C105	C	1.031640	0.448175	0.448058
N106	N	0.392279	-0.251974	-0.251979
N107	N	0.725613	0.081359	0.081355
N108	N	1.058946	0.414692	0.414688
C109	C	0.364983	-0.285463	-0.285354
C110	C	0.698316	0.047871	0.047980
C111	C	1.031649	0.381204	0.381313
C112	C	0.031897	-0.218515	-0.218653
C113	C	0.365231	0.114818	0.114680
C114	C	0.698564	0.448151	0.448014
C115	C	-0.022705	-0.218523	-0.218655
C116	C	0.310628	0.114810	0.114678
C117	C	0.643962	0.448144	0.448011
C118	C	-0.022695	-0.285497	-0.285402
C119	C	0.310638	0.047836	0.047931
C120	C	0.643971	0.381170	0.381264
C121	C	0.031908	-0.285492	-0.285397
C122	C	0.365241	0.047842	0.047936
C123	C	0.698575	0.381175	0.381269
C124	C	0.059204	-0.251998	-0.252023
C125	C	0.392537	0.081335	0.081310
C126	C	0.725871	0.414669	0.414644
C127	C	0.479648	-0.285455	-0.285332
C128	C	0.812981	0.047878	0.048002
C129	C	1.146314	0.381212	0.381335
C130	C	0.534253	-0.285451	-0.285318
C131	C	0.867586	0.047883	0.048015
C132	C	1.200920	0.381216	0.381348
C133	C	0.534239	-0.218475	-0.218573
C134	C	0.867572	0.114858	0.114760
C135	C	1.200905	0.448192	0.448094
C136	C	0.479638	-0.218481	-0.218585
C137	C	0.812971	0.114853	0.114749
C138	C	1.146305	0.448186	0.448082
C139	C	0.452344	-0.251972	-0.251968
C140	C	0.785677	0.081361	0.081365
C141	C	1.119011	0.414694	0.414699
O142	O	0.393252	-0.190038	-0.190228
O143	O	0.726585	0.143295	0.143105
O144	O	1.059918	0.476628	0.476439
O145	O	0.393229	-0.313933	-0.313736
O146	O	0.726563	0.019401	0.019597
O147	O	1.059896	0.352734	0.352930
C148	C	0.755433	-0.387822	-0.251940
C149	C	1.088766	-0.054489	0.081393
C150	C	1.422099	0.278845	0.414726
C151	C	0.755449	-0.445936	-0.251940
C152	C	1.088782	-0.112603	0.081393
C153	C	1.422115	0.220731	0.414726
C154	C	0.788967	-0.806264	-0.285491
C155	C	1.122301	-0.472930	0.047843
C156	C	1.455634	-0.139597	0.381176
C157	C	0.788983	-0.860868	-0.285501
C158	C	1.122316	-0.527534	0.047832
C159	C	1.455650	-0.194201	0.381165
O160	O	0.817394	-0.889074	-0.313985
O161	O	1.150727	-0.555741	0.019348
O162	O	1.484060	-0.222408	0.352682
N163	N	0.755579	-0.888218	-0.252032
N164	N	1.088912	-0.554885	0.081301
N165	N	1.422246	-0.221552	0.414635
C166	C	0.722154	-0.860962	-0.218553
C167	C	1.055487	-0.527629	0.114780
C168	C	1.388820	-0.194295	0.448113
O169	O	0.693742	-0.889240	-0.190086
O170	O	1.027075	-0.555906	0.143247
O171	O	1.360409	-0.222573	0.476581
C172	C	0.722136	-0.806359	-0.218546
C173	C	1.055469	-0.473025	0.114788
C174	C	1.388803	-0.139692	0.448121
C175	C	0.755546	-0.779011	-0.252014
C176	C	1.088879	-0.445678	0.081320
C177	C	1.422213	-0.112344	0.414653
C178	C	0.822374	-0.778916	-0.318956
C179	C	1.155708	-0.445582	0.014377
C180	C	1.489041	-0.112249	0.347710
C181	C	0.822359	-0.724315	-0.318945
C182	C	1.155693	-0.390982	0.014388
C183	C	1.489026	-0.057648	0.347722
C184	C	0.788938	-0.697062	-0.285468
C185	C	1.122271	-0.363729	0.047865
C186	C	1.455604	-0.030396	0.381199
C187	C	0.755531	-0.724410	-0.252002
C188	C	1.088864	-0.391077	0.081331
C189	C	1.422198	-0.057744	0.414664
C190	C	0.688708	-0.779103	-0.185070
C191	C	1.022042	-0.445770	0.148263
C192	C	1.355375	-0.112436	0.481597
C193	C	0.688693	-0.724496	-0.185066
C194	C	1.022027	-0.391163	0.148268
C195	C	1.355360	-0.057829	0.481601
C196	C	0.722103	-0.697148	-0.218534
C197	C	1.055437	-0.363815	0.114800
C198	C	1.388770	-0.030482	0.448133
C199	C	0.722095	-0.642557	-0.218514
C200	C	1.055428	-0.309224	0.114820
C201	C	1.388761	0.024110	0.448153
N202	N	0.755498	-0.615206	-0.251983
N203	N	1.088832	-0.281873	0.081350
N204	N	1.422165	0.051460	0.414684
C205	C	0.788920	-0.642459	-0.285460
C206	C	1.122253	-0.309126	0.047873
C207	C	1.455587	0.024208	0.381206
C208	C	0.722193	-0.975633	-0.218572
C209	C	1.055526	-0.642299	0.114761
C210	C	1.388859	-0.308966	0.448094
C211	C	0.722213	-1.030235	-0.218577
C212	C	1.055546	-0.696902	0.114756
C213	C	1.388879	-0.363568	0.448090
C214	C	0.789041	-1.030137	-0.285526
C215	C	1.122375	-0.696804	0.047807
C216	C	1.455708	-0.363470	0.381141
C217	C	0.789024	-0.975534	-0.285518
C218	C	1.122357	-0.642200	0.047815
C219	C	1.455690	-0.308867	0.381148
C220	C	0.755597	-0.948282	-0.252042
C221	C	1.088930	-0.614949	0.081291
C222	C	1.422263	-0.281615	0.414625
C223	C	0.788887	-0.527794	-0.285433
C224	C	1.122220	-0.194461	0.047900
C225	C	1.455553	0.138873	0.381233
C226	C	0.788870	-0.473189	-0.285417
C227	C	1.122204	-0.139855	0.047916
C228	C	1.455537	0.193478	0.381249
C229	C	0.722040	-0.473291	-0.218471
C230	C	1.055373	-0.139958	0.114863
C231	C	1.388707	0.193375	0.448196
C232	C	0.722058	-0.527892	-0.218484
C233	C	1.055391	-0.194559	0.114849
C234	C	1.388725	0.138775	0.448182
C235	C	0.755483	-0.555142	-0.251970
C236	C	1.088816	-0.221809	0.081363
C237	C	1.422150	0.111525	0.414697
O238	O	0.693697	-0.614316	-0.190046
O239	O	1.027030	-0.280983	0.143287
O240	O	1.360363	0.052351	0.476621
O241	O	0.817322	-0.614175	-0.313927
O242	O	1.150655	-0.280841	0.019406
O243	O	1.483989	0.052492	0.352739
C244	C	0.891879	-0.252000	-0.252017
C245	C	1.225213	0.081333	0.081316
C246	C	1.558546	0.414666	0.414649
C247	C	0.949993	-0.252009	-0.252032
C248	C	1.283327	0.081324	0.081301
C249	C	1.616660	0.414657	0.414634
C250	C	0.755523	-0.251970	-0.388354
C251	C	1.088857	0.081363	-0.055021
C252	C	1.422190	0.414696	0.278312
C253	C	0.755530	-0.251966	-0.446468
C254	C	1.088864	0.081367	-0.113135
C255	C	1.422197	0.414700	0.220198
C256	C	0.755595	-0.115606	-0.252034
C257	C	1.088928	0.217727	0.081299
C258	C	1.422261	0.551060	0.414633
C259	C	0.755632	-0.057492	-0.252056
C260	C	1.088966	0.275841	0.081277
C261	C	1.422299	0.609174	0.414610
C262	C	0.789035	-0.218432	-0.806859
C263	C	1.122368	0.114902	-0.473526
C264	C	1.455702	0.448235	-0.140192
C265	C	0.789041	-0.218417	-0.861463
C266	C	1.122375	0.114916	-0.528130
C267	C	1.455708	0.448249	-0.194797
O268	O	0.817486	-0.189967	-0.889723
O269	O	1.150819	0.143367	-0.556390
O270	O	1.484152	0.476700	-0.223057
N271	N	0.755588	-0.251844	-0.888751
N272	N	1.088921	0.081490	-0.555418
N273	N	1.422255	0.414823	-0.222084
C274	C	0.722122	-0.285283	-0.861432
C275	C	1.055456	0.048050	-0.528098
C276	C	1.388789	0.381384	-0.194765
O277	O	0.693668	-0.313713	-0.889656
O278	O	1.027001	0.019620	-0.556323
O279	O	1.360335	0.352954	-0.222989
C280	C	0.722114	-0.285294	-0.806828
C281	C	1.055447	0.048039	-0.473495
C282	C	1.388780	0.381372	-0.140162
C283	C	0.755573	-0.251870	-0.779543
C284	C	1.088906	0.081464	-0.446210
C285	C	1.422240	0.414797	-0.112877
C286	C	0.822491	-0.185009	-0.779574
C287	C	1.155824	0.148324	-0.446241
C288	C	1.489158	0.481657	-0.112907
C289	C	0.822485	-0.185025	-0.724973
C290	C	1.155818	0.148309	-0.391640
C291	C	1.489152	0.481642	-0.058307
C292	C	0.789023	-0.218462	-0.697658
C293	C	1.122356	0.114871	-0.364325
C294	C	1.455690	0.448204	-0.030991
C295	C	0.755567	-0.251885	-0.724943
C296	C	1.088900	0.081448	-0.391610
C297	C	1.422234	0.414782	-0.058276
C298	C	0.688646	-0.318731	-0.779510
C299	C	1.021979	0.014603	-0.446177
C300	C	1.355313	0.347936	-0.112843
C301	C	0.688640	-0.318739	-0.724903
C302	C	1.021973	0.014594	-0.391570
C303	C	1.355306	0.347928	-0.058236
C304	C	0.722099	-0.285314	-0.697618
C305	C	1.055432	0.048019	-0.364285
C306	C	1.388766	0.381353	-0.030951
C307	C	0.722099	-0.285338	-0.643027
C308	C	1.055433	0.047995	-0.309693
C309	C	1.388766	0.381329	0.023640
N310	N	0.755552	-0.251912	-0.615739
N311	N	1.088886	0.081422	-0.282406
N312	N	1.422219	0.414755	0.050928
C313	C	0.789014	-0.218474	-0.643055
C314	C	1.122348	0.114860	-0.309721
C315	C	1.455681	0.448193	0.023612
C316	C	0.722143	-0.285256	-0.976102
C317	C	1.055476	0.048077	-0.642769
C318	C	1.388809	0.381411	-0.309436
C319	C	0.722154	-0.285247	-1.030705
C320	C	1.055487	0.048086	-0.697371
C321	C	1.388820	0.381419	-0.364038
C322	C	0.789072	-0.218381	-1.030733
C323	C	1.122405	0.114952	-0.697399
C324	C	1.455739	0.448286	-0.364066
C325	C	0.789063	-0.218392	-0.976129
C326	C	1.122397	0.114941	-0.642796
C327	C	1.455730	0.448274	-0.309463
C328	C	0.755596	-0.251829	-0.948815
C329	C	1.088929	0.081504	-0.615481
C330	C	1.422263	0.414837	-0.282148
C331	C	0.789000	-0.218509	-0.528389
C332	C	1.122333	0.114825	-0.195056
C333	C	1.455666	0.448158	0.138277
C334	C	0.788992	-0.218529	-0.473784
C335	C	1.122326	0.114805	-0.140451
C336	C	1.455659	0.448138	0.192883
C337	C	0.722072	-0.285393	-0.473761
C338	C	1.055406	0.047940	-0.140428
C339	C	1.388739	0.381274	0.192906
C340	C	0.722081	-0.285375	-0.528362
C341	C	1.055415	0.047958	-0.195028
C342	C	1.388748	0.381291	0.138305
C343	C	0.755547	-0.251929	-0.555674
C344	C	1.088880	0.081404	-0.222341
C345	C	1.422214	0.414738	0.110992
O346	O	0.693668	-0.313773	-0.614732
O347	O	1.027001	0.019561	-0.281399
O348	O	1.360334	0.352894	0.051935
O349	O	0.817459	-0.190044	-0.614823
O350	O	1.150792	0.143290	-0.281490
O351	O	1.484126	0.476623	0.051843
C352	C	0.755520	-0.251951	-0.116139
C353	C	1.088853	0.081383	0.217195
C354	C	1.422186	0.414716	0.550528
C355	C	0.755614	-0.251807	-0.058025
C356	C	1.088947	0.081526	0.275308
C357	C	1.422281	0.414859	0.608642
H358	H	0.054118	-0.191241	-0.191472
H359	H	0.387452	0.142092	0.141862
H360	H	0.720785	0.475425	0.475195
C361	C	0.656142	-0.981223	-0.152391
C362	C	0.989476	-0.647889	0.180942
C363	C	1.322809	-0.314556	0.514276
C364	C	0.685453	-0.945680	-0.181765
C365	C	1.018786	-0.612347	0.151569
C366	C	1.352120	-0.279013	0.484902
H367	H	0.633463	-0.962732	-0.129666
H368	H	0.966797	-0.629399	0.203667
H369	H	1.300130	-0.296065	0.537000
H370	H	0.636135	-1.002520	-0.175154
H371	H	0.969468	-0.669187	0.158180
H372	H	1.302802	-0.335853	0.491513
H373	H	0.678952	-1.002515	-0.132425
H374	H	1.012285	-0.669182	0.200909
H375	H	1.345618	-0.335848	0.534242
H376	H	0.662643	-0.924390	-0.201734
H377	H	0.995977	-0.591057	0.131599
H378	H	1.329310	-0.257723	0.464933
H379	H	0.705461	-0.924374	-0.158999
H380	H	1.038795	-0.591040	0.174334
H381	H	1.372128	-0.257707	0.507668
C382	C	0.818728	-1.113802	-0.315269
C383	C	1.152062	-0.780468	0.018064
C384	C	1.485395	-0.447135	0.351398
C385	C	0.825775	-1.060101	-0.322331
C386	C	1.159108	-0.726767	0.011003
C387	C	1.492442	-0.393434	0.344336
H388	H	0.841403	-1.132300	-0.337992
H389	H	1.174736	-0.798966	-0.004659
H390	H	1.508069	-0.465633	0.328675
H391	H	0.826411	-1.122762	-0.280154
H392	H	1.159744	-0.789428	0.053180
H393	H	1.493077	-0.456095	0.386513
H394	H	0.783593	-1.122764	-0.322881
H395	H	1.116926	-0.789430	0.010452
H396	H	1.450259	-0.456097	0.343785
H397	H	0.860910	-1.051138	-0.314714
H398	H	1.194243	-0.717804	0.018619
H399	H	1.527577	-0.384471	0.351952
H400	H	0.818096	-1.051137	-0.357454
H401	H	1.151430	-0.717804	-0.024121
H402	H	1.484763	-0.384470	0.309213
H403	H	0.694841	-0.312597	-0.550578
H404	H	1.028174	0.020736	-0.217245
H405	H	1.361508	0.354069	0.116089
H406	H	0.694913	-0.312471	-1.052916
H407	H	1.028247	0.020862	-0.719582
H408	H	1.361580	0.354196	-0.386249
C409	C	0.551078	-0.129904	-0.193272
C410	C	0.884411	0.203429	0.140061
C411	C	1.217744	0.536762	0.473394
C412	C	0.564247	-0.181666	-0.181885
C413	C	0.897580	0.151667	0.151448
C414	C	1.230913	0.485001	0.484782
H415	H	0.569602	-0.107180	-0.170620
H416	H	0.902935	0.226154	0.162713
H417	H	1.236268	0.559487	0.496046
H418	H	0.560050	-0.122309	-0.228411
H419	H	0.893384	0.211024	0.104922
H420	H	1.226717	0.544357	0.438256
H421	H	0.514650	-0.125119	-0.188499
H422	H	0.847983	0.208214	0.144834
H423	H	1.181316	0.541547	0.478168
H424	H	0.600674	-0.186452	-0.186662
H425	H	0.934008	0.146881	0.146671
H426	H	1.267341	0.480215	0.480005
H427	H	0.555278	-0.189264	-0.146738
H428	H	0.888611	0.144070	0.186596
H429	H	1.221944	0.477403	0.519929
C430	C	0.855138	-0.152428	-0.479305
C431	C	1.188472	0.180905	-0.145971
C432	C	1.521805	0.514238	0.187362
C433	C	0.825771	-0.181783	-0.443793
C434	C	1.159104	0.151551	-0.110460
C435	C	1.492437	0.484884	0.222874
H436	H	0.877839	-0.129742	-0.460790
H437	H	1.211173	0.203592	-0.127456
H438	H	1.544506	0.536925	0.205877
H439	H	0.875124	-0.175206	-0.500601
H440	H	1.208458	0.158127	-0.167268
H441	H	1.541791	0.491461	0.166065
H442	H	0.832366	-0.132423	-0.500600
H443	H	1.165700	0.200910	-0.167267
H444	H	1.499033	0.534244	0.166066
H445	H	0.848543	-0.201791	-0.422500
H446	H	1.181876	0.131542	-0.089166
H447	H	1.515209	0.464876	0.244167
H448	H	0.805783	-0.159002	-0.422487
H449	H	1.139116	0.174331	-0.089154
H450	H	1.472450	0.507665	0.244179
H451	H	0.457406	-0.191213	-0.191412
H452	H	0.790740	0.142121	0.141921
H453	H	1.124073	0.475454	0.475254
C454	C	-0.084094	-0.148196	-0.211515
C455	C	0.249240	0.185137	0.121818
C456	C	0.582573	0.518471	0.455151
C457	C	-0.052721	-0.181727	-0.181966
C458	C	0.280613	0.151606	0.151367
C459	C	0.613946	0.484940	0.484701
H460	H	-0.102626	-0.125483	-0.188863
H461	H	0.230707	0.207850	0.144471
H462	H	0.564040	0.541183	0.477804
H463	H	-0.062775	-0.128222	-0.234321
H464	H	0.270559	0.205112	0.099012
H465	H	0.603892	0.538445	0.432345
H466	H	-0.108163	-0.168145	-0.231395
H467	H	0.225171	0.165189	0.101938
H468	H	0.558504	0.498522	0.435271
H469	H	-0.028649	-0.161778	-0.162089
H470	H	0.304684	0.171555	0.171245
H471	H	0.638018	0.504888	0.504578
H472	H	-0.074041	-0.201703	-0.159151
H473	H	0.259292	0.131630	0.174183
H474	H	0.592625	0.464963	0.507516
C475	C	0.622640	-0.773692	-0.118908
C476	C	0.955973	-0.440358	0.214425
C477	C	1.289307	-0.107025	0.547759
C478	C	0.651978	-0.809154	-0.148284
C479	C	0.985312	-0.475821	0.185049
C480	C	1.318645	-0.142487	0.518382
H481	H	0.599960	-0.792245	-0.096200
H482	H	0.933294	-0.458911	0.237133
H483	H	1.266627	-0.125578	0.570467
H484	H	0.645428	-0.752393	-0.098929
H485	H	0.978761	-0.419059	0.234404
H486	H	1.312095	-0.085726	0.567738
H487	H	0.602628	-0.752394	-0.141674
H488	H	0.935961	-0.419060	0.191659
H489	H	1.269294	-0.085727	0.524992
H490	H	0.671994	-0.830450	-0.125518
H491	H	1.005327	-0.497117	0.207815
H492	H	1.338660	-0.163783	0.541149
H493	H	0.629187	-0.830462	-0.168265
H494	H	0.962521	-0.497129	0.165068
H495	H	1.295854	-0.163796	0.498402
C496	C	0.622501	-0.384840	-0.730364
C497	C	0.955834	-0.051507	-0.397031
C498	C	1.289168	0.281826	-0.063698
C499	C	0.651860	-0.355505	-0.694880
C500	C	0.985193	-0.022171	-0.361546
C501	C	1.318526	0.311162	-0.028213
H502	H	0.599800	-0.407542	-0.711829
H503	H	0.933134	-0.074209	-0.378496
H504	H	1.266467	0.259125	-0.045162
H505	H	0.602515	-0.362052	-0.751655
H506	H	0.935848	-0.028719	-0.418322
H507	H	1.269182	0.304614	-0.084988
H508	H	0.645279	-0.404829	-0.751669
H509	H	0.978612	-0.071496	-0.418336
H510	H	1.311946	0.261837	-0.085003
H511	H	0.629082	-0.335513	-0.673577
H512	H	0.962415	-0.002179	-0.340244
H513	H	1.295748	0.331154	-0.006911
H514	H	0.671847	-0.378296	-0.673580
H515	H	1.005181	-0.044962	-0.340247
H516	H	1.338514	0.288371	-0.006914
H517	H	0.661471	-0.702310	-0.157806
H518	H	0.994805	-0.368977	0.175528
H519	H	1.328138	-0.035644	0.508861
C520	C	0.859236	-0.589130	-0.292796
C521	C	1.192569	-0.255797	0.040537
C522	C	1.525902	0.077536	0.373871
C523	C	0.825629	-0.557741	-0.322240
C524	C	1.158963	-0.224408	0.011093
C525	C	1.492296	0.108926	0.344427
H526	H	0.881918	-0.607619	-0.315519
H527	H	1.215251	-0.274286	0.017815
H528	H	1.548584	0.059048	0.351148
H529	H	0.879239	-0.567828	-0.270034
H530	H	1.212572	-0.234495	0.063299
H531	H	1.545906	0.098839	0.396632
H532	H	0.839340	-0.613238	-0.272873
H533	H	1.172673	-0.279904	0.060461
H534	H	1.506006	0.053429	0.393794
H535	H	0.845525	-0.533631	-0.342161
H536	H	1.178859	-0.200297	-0.008827
H537	H	1.512192	0.133036	0.324506
H538	H	0.805624	-0.579045	-0.345011
H539	H	1.138957	-0.245712	-0.011677
H540	H	1.472291	0.087622	0.321656
H541	H	0.849563	-0.702052	-0.346199
H542	H	1.182896	-0.368718	-0.012866
H543	H	1.516230	-0.035385	0.320468
H544	H	0.849740	-0.157777	-0.801809
H545	H	1.183073	0.175556	-0.468475
H546	H	1.516406	0.508889	-0.135142
H547	H	0.206250	-0.157734	-0.158087
H548	H	0.539583	0.175600	0.175247
H549	H	0.872916	0.508933	0.508580
C550	C	0.888433	-0.773320	-0.385122
C551	C	1.221767	-0.439986	-0.051789
C552	C	1.555100	-0.106653	0.281544
C553	C	0.859119	-0.808866	-0.355756
C554	C	1.192452	-0.475532	-0.022423
C555	C	1.525786	-0.142199	0.310911
H556	H	0.911124	-0.791808	-0.407837
H557	H	1.244457	-0.458475	-0.074504
H558	H	1.577790	-0.125141	0.258829
H559	H	0.865631	-0.752033	-0.405093
H560	H	1.198964	-0.418700	-0.071760
H561	H	1.532297	-0.085367	0.261573
H562	H	0.908433	-0.752017	-0.362350
H563	H	1.241766	-0.418684	-0.029017
H564	H	1.575100	-0.085350	0.304316
H565	H	0.839116	-0.830166	-0.378528
H566	H	1.172449	-0.496833	-0.045194
H567	H	1.505783	-0.163499	0.288139
H568	H	0.881924	-0.830161	-0.335783
H569	H	1.215258	-0.496828	-0.002450
H570	H	1.548591	-0.163495	0.330884
H571	H	0.694889	-0.312487	-0.953866
H572	H	1.028222	0.020846	-0.620533
H573	H	1.361556	0.354180	-0.287200
C574	C	0.681334	-0.389060	-0.840878
C575	C	1.014668	-0.055726	-0.507544
C576	C	1.348001	0.277607	-0.174211
C577	C	0.651867	-0.355479	-0.809487
C578	C	0.985201	-0.022146	-0.476153
C579	C	1.318534	0.311188	-0.142820
H580	H	0.658627	-0.411751	-0.859379
H581	H	0.991960	-0.078418	-0.526046
H582	H	1.325294	0.254915	-0.192712
H583	H	0.701253	-0.369150	-0.864969
H584	H	1.034586	-0.035816	-0.531636
H585	H	1.367920	0.297517	-0.198303
H586	H	0.704102	-0.409059	-0.819571
H587	H	1.037435	-0.075725	-0.486238
H588	H	1.370769	0.257608	-0.152904
H589	H	0.629102	-0.335477	-0.830794
H590	H	0.962436	-0.002144	-0.497461
H591	H	1.295769	0.331190	-0.164127
H592	H	0.631940	-0.375391	-0.785392
H593	H	0.965273	-0.042058	-0.452059
H594	H	1.298606	0.291275	-0.118726
H595	H	0.206262	-0.346229	-0.345924
H596	H	0.539596	-0.012896	-0.012591
H597	H	0.872929	0.320437	0.320743
H598	H	0.816249	-0.191272	-0.550621
H599	H	1.149582	0.142061	-0.217288
H600	H	1.482915	0.475395	0.116046
H601	H	0.694857	-0.550160	-0.191228
H602	H	1.028190	-0.216826	0.142105
H603	H	1.361524	0.116507	0.475439
H604	H	0.305300	-0.157721	-0.158083
H605	H	0.638633	0.175612	0.175250
H606	H	0.971966	0.508945	0.508584
C607	C	0.093286	-0.355831	-0.292526
C608	C	0.426619	-0.022497	0.040807
C609	C	0.759952	0.310836	0.374141
C610	C	0.061917	-0.322300	-0.322080
C611	C	0.395250	0.011033	0.011253
C612	C	0.728583	0.344367	0.344587
H613	H	0.111807	-0.378557	-0.315175
H614	H	0.445140	-0.045223	0.018158
H615	H	0.778473	0.288110	0.351491
H616	H	0.117360	-0.335887	-0.272657
H617	H	0.450693	-0.002553	0.060676
H618	H	0.784026	0.330780	0.394010
H619	H	0.071961	-0.375796	-0.269709
H620	H	0.405295	-0.042462	0.063624
H621	H	0.738628	0.290871	0.396958
H622	H	0.083242	-0.302332	-0.344894
H623	H	0.416575	0.031001	-0.011561
H624	H	0.749908	0.364334	0.321772
H625	H	0.037840	-0.342246	-0.341958
H626	H	0.371173	-0.008913	-0.008625
H627	H	0.704507	0.324420	0.324709
H628	H	0.694830	-0.451094	-0.191212
H629	H	1.028163	-0.117760	0.142121
H630	H	1.361497	0.215573	0.475454
H631	H	0.849730	-0.157806	-0.702763
H632	H	1.183063	0.175528	-0.369429
H633	H	1.516397	0.508861	-0.036096
H634	H	0.816317	-0.191153	-1.052983
H635	H	1.149651	0.142181	-0.719650
H636	H	1.482984	0.475514	-0.386316
H637	H	0.695013	-1.052497	-0.191318
H638	H	1.028346	-0.719164	0.142015
H639	H	1.361679	-0.385830	0.475348
H640	H	-0.044930	-0.312763	-0.312580
H641	H	0.288403	0.020570	0.020753
H642	H	0.621736	0.353903	0.354087
C643	C	0.854928	-0.478585	-0.351599
C644	C	1.188261	-0.145252	-0.018266
C645	C	1.521594	0.188082	0.315067
C646	C	0.825594	-0.443129	-0.322211
C647	C	1.158927	-0.109795	0.011122
C648	C	1.492261	0.223538	0.344455
H649	H	0.877595	-0.460028	-0.374316
H650	H	1.210928	-0.126694	-0.040983
H651	H	1.544262	0.206639	0.292351
H652	H	0.874948	-0.499880	-0.328845
H653	H	1.208282	-0.166546	0.004488
H654	H	1.541615	0.166787	0.337821
H655	H	0.832132	-0.499888	-0.371575
H656	H	1.165466	-0.166555	-0.038241
H657	H	1.498799	0.166778	0.295092
H658	H	0.848389	-0.421828	-0.302233
H659	H	1.181723	-0.088495	0.031100
H660	H	1.515056	0.244839	0.364434
H661	H	0.805572	-0.421825	-0.344968
H662	H	1.138905	-0.088492	-0.011635
H663	H	1.472238	0.244841	0.321698
H664	H	0.457431	-0.312726	-0.312517
H665	H	0.790764	0.020608	0.020816
H666	H	1.124098	0.353941	0.354150
C667	C	0.855208	-0.152297	-0.981654
C668	C	1.188541	0.181036	-0.648321
C669	C	1.521874	0.514369	-0.314987
C670	C	0.825838	-0.181647	-0.946140
C671	C	1.159171	0.151687	-0.612807
C672	C	1.492504	0.485020	-0.279474
H673	H	0.877908	-0.129609	-0.963141
H674	H	1.211241	0.203725	-0.629808
H675	H	1.544575	0.537058	-0.296474
H676	H	0.875194	-0.175078	-1.002947
H677	H	1.208528	0.158255	-0.669614
H678	H	1.541861	0.491589	-0.336280
H679	H	0.832437	-0.132294	-1.002954
H680	H	1.165770	0.201039	-0.669620
H681	H	1.499104	0.534372	-0.336287
H682	H	0.848608	-0.201653	-0.924843
H683	H	1.181942	0.131681	-0.591510
H684	H	1.515275	0.465014	-0.258176
H685	H	0.805849	-0.158863	-0.924839
H686	H	1.139183	0.174470	-0.591505
H687	H	1.472516	0.507804	-0.258172
C688	C	0.796220	-0.914083	-0.355849
C689	C	1.129554	-0.580750	-0.022516
C690	C	1.462887	-0.247416	0.310817
C691	C	0.825744	-0.945473	-0.322310
C692	C	1.159077	-0.612140	0.011023
C693	C	1.492410	-0.278807	0.344357
H694	H	0.818891	-0.895525	-0.378562
H695	H	1.152225	-0.562192	-0.045228
H696	H	1.485558	-0.228858	0.288105
H697	H	0.773438	-0.935393	-0.375823
H698	H	1.106771	-0.602060	-0.042490
H699	H	1.440105	-0.268726	0.290843
H700	H	0.776316	-0.890036	-0.335907
H701	H	1.109649	-0.556703	-0.002573
H702	H	1.442982	-0.223370	0.330760
H703	H	0.845645	-0.969523	-0.342252
H704	H	1.178979	-0.636189	-0.008919
H705	H	1.512312	-0.302856	0.324414
H706	H	0.848535	-0.924161	-0.302334
H707	H	1.181868	-0.590828	0.031000
H708	H	1.515202	-0.257495	0.364333
C709	C	0.528769	-0.351651	-0.351300
C710	C	0.862103	-0.018318	-0.017967
C711	C	1.195436	0.315015	0.315367
C712	C	0.564264	-0.322261	-0.322002
C713	C	0.897598	0.011072	0.011331
C714	C	1.230931	0.344405	0.344665
H715	H	0.547297	-0.374372	-0.373949
H716	H	0.880630	-0.041039	-0.040615
H717	H	1.213963	0.292294	0.292718
H718	H	0.507453	-0.371617	-0.328485
H719	H	0.840786	-0.038284	0.004849
H720	H	1.174119	0.295050	0.338182
H721	H	0.507492	-0.328895	-0.371343
H722	H	0.840825	0.004439	-0.038010
H723	H	1.174158	0.337772	0.295323
H724	H	0.585540	-0.345018	-0.301956
H725	H	0.918873	-0.011685	0.031378
H726	H	1.252206	0.321649	0.364711
H727	H	0.585590	-0.302294	-0.344821
H728	H	0.918923	0.031039	-0.011487
H729	H	1.252257	0.364373	0.321846
C730	C	0.277590	-0.385150	-0.384714
C731	C	0.610923	-0.051817	-0.051381
C732	C	0.944257	0.281516	0.281952
C733	C	0.313090	-0.355763	-0.355420
C734	C	0.646423	-0.022429	-0.022086
C735	C	0.979756	0.310904	0.311247
H736	H	0.296114	-0.407871	-0.407367
H737	H	0.629447	-0.074537	-0.074033
H738	H	0.962781	0.258796	0.259300
H739	H	0.256276	-0.405117	-0.361897
H740	H	0.589609	-0.071784	-0.028564
H741	H	0.922943	0.261550	0.304770
H742	H	0.256310	-0.362392	-0.404754
H743	H	0.589644	-0.029059	-0.071420
H744	H	0.922977	0.304274	0.261913
H745	H	0.334367	-0.378521	-0.335377
H746	H	0.667701	-0.045188	-0.002044
H747	H	1.001034	0.288146	0.331289
H748	H	0.334413	-0.335795	-0.378240
H749	H	0.667746	-0.002461	-0.044907
H750	H	1.001079	0.330872	0.288427
C751	C	0.692350	-0.315091	-0.390040
C752	C	1.025684	0.018243	-0.056707
C753	C	1.359017	0.351576	0.276626
C754	C	0.685289	-0.322144	-0.443728
C755	C	1.018623	0.011189	-0.110395
C756	C	1.351956	0.344523	0.222938
H757	H	0.669637	-0.337775	-0.371500
H758	H	1.002970	-0.004442	-0.038167
H759	H	1.336304	0.328891	0.295167
H760	H	0.727469	-0.322755	-0.381104
H761	H	1.060802	0.010578	-0.047770
H762	H	1.394136	0.343911	0.285563
H763	H	0.684725	-0.279958	-0.381107
H764	H	1.018058	0.053375	-0.047773
H765	H	1.351391	0.386708	0.285560
H766	H	0.692919	-0.357275	-0.452663
H767	H	1.026252	-0.023942	-0.119329
H768	H	1.359585	0.309391	0.214004
H769	H	0.650163	-0.314483	-0.452669
H770	H	0.983496	0.018850	-0.119335
H771	H	1.316829	0.352184	0.213998
