data_functionalizedCrystal
_audit_creation_method	'MofGen! by Chris Wilmer'
_symmetry_space_group_name_H-M	'P1'
_symmetry_Int_Tables_number	1
_symmetry_cell_setting	triclinic
loop_
_symmetry_equiv_pos_as_xyz
  x,y,z
_cell_length_a	12.759401
_cell_length_b	12.594516
_cell_length_c	12.759393
_cell_angle_alpha	89.970535
_cell_angle_beta	89.981665
_cell_angle_gamma	90.016214
loop_
_atom_site_label
_atom_site_type_symbol
_atom_site_fract_x
_atom_site_fract_y
_atom_site_fract_z
Zn1	Zn	1.606244	-0.423671	-0.593999
Zn2	Zn	1.606135	-0.601692	-0.418327
Zn3	Zn	1.430546	-0.423728	-0.418339
Zn4	Zn	1.430530	-0.601609	-0.593968
O5	O	1.518364	-0.512675	-0.506158
O6	O	1.753250	-0.447297	-0.570704
O7	O	1.582803	-0.578143	-0.271307
O8	O	1.453905	-0.274775	-0.441658
O9	O	1.753170	-0.578088	-0.441638
O10	O	1.582990	-0.274733	-0.570715
O11	O	1.453799	-0.447394	-0.271316
O12	O	1.283523	-0.447313	-0.441628
O13	O	1.453878	-0.577946	-0.740993
O14	O	1.283511	-0.578001	-0.570663
O15	O	1.582974	-0.447216	-0.741016
O16	O	1.582788	-0.750626	-0.441608
O17	O	1.453772	-0.750565	-0.570651
C18	C	1.245396	-0.512655	-0.506144
C19	C	1.128620	-0.512672	-0.506163
C20	C	1.518295	-0.789216	-0.506148
C21	C	1.518362	-0.907521	-0.506179
C22	C	1.073779	-0.580831	-0.573240
C23	C	0.964055	-0.580844	-0.573251
C24	C	0.964022	-0.444538	-0.439099
C25	C	1.073744	-0.444520	-0.439094
C26	C	1.073797	-0.659529	-0.650688
C27	C	0.964073	-0.659543	-0.650700
C28	C	1.448183	-0.976780	-0.576316
C29	C	1.422584	-1.047651	-0.480449
C30	C	1.544056	-1.047449	-0.602062
C31	C	1.492712	-0.976834	-0.410261
C32	C	1.614229	-0.976626	-0.531938
C33	C	1.588666	-1.047465	-0.436006
C34	C	1.792397	-0.512695	-0.506173
C35	C	1.909174	-0.512704	-0.506179
C36	C	1.518437	-0.512566	-0.780192
C37	C	1.518468	-0.512519	-0.896968
C38	C	1.518461	-0.235054	-0.506192
C39	C	1.518503	-0.116748	-0.506206
C40	C	1.451343	-0.444399	-1.061567
C41	C	1.451317	-0.444429	-0.951843
C42	C	1.585656	-0.580577	-0.951823
C43	C	1.585687	-0.580541	-1.061546
C44	C	1.373780	-0.365798	-1.061578
C45	C	1.373754	-0.365828	-0.951854
C46	C	1.518352	-0.512707	-0.233191
C47	C	1.518524	-0.512453	-0.116415
H48	H	0.919329	-0.389050	-0.384496
H49	H	1.107810	-0.737793	-0.621407
H50	H	1.103606	-0.637545	-0.732094
C51	C	1.722312	-0.935142	-0.560877
C52	C	1.795908	-0.972537	-0.488349
C53	C	1.895487	-0.934355	-0.514994
H54	H	1.721777	-0.859729	-0.560004
H55	H	1.740481	-0.959308	-0.629023
H56	H	1.777743	-0.948365	-0.420220
H57	H	1.796476	-1.047945	-0.489211
H58	H	1.913656	-0.958521	-0.583141
H59	H	1.894941	-0.858942	-0.514121
H60	H	1.945435	-0.959729	-0.465795
C61	C	1.572822	-1.088664	-0.710258
C62	C	1.499028	-1.052826	-0.783347
C63	C	1.525490	-1.090756	-0.883030
H64	H	1.573275	-1.164080	-0.709480
H65	H	1.640376	-1.063269	-0.729084
H66	H	1.431490	-1.078226	-0.764525
H67	H	1.498563	-0.977415	-0.784157
H68	H	1.593045	-1.065360	-0.901857
H69	H	1.525944	-1.166170	-0.882241
H70	H	1.475432	-1.066437	-0.932635
H71	H	0.934276	-0.741957	-0.628771
H72	H	1.402916	-0.287530	-0.917840
H73	H	0.930076	-0.630118	-0.728050
H74	H	1.296487	-0.395311	-1.095602
H75	H	1.388729	-0.945742	-0.635542
C76	C	1.658611	-0.654288	-1.121285
C77	C	1.644295	-0.639659	-1.229119
C78	C	1.711476	-0.707560	-1.284183
H79	H	1.643298	-0.725859	-1.103425
H80	H	1.729217	-0.638685	-1.103359
H81	H	1.573705	-0.655269	-1.247038
H82	H	1.659616	-0.568102	-1.247010
H83	H	1.782082	-0.691957	-1.266257
H84	H	1.696156	-0.779127	-1.266315
H85	H	1.701778	-0.697636	-1.357354
C86	C	1.314491	-1.089195	-0.451603
C87	C	1.241258	-1.053410	-0.525279
C88	C	1.141674	-1.091665	-0.498756
H89	H	1.295663	-1.064001	-0.384015
H90	H	1.315442	-1.164622	-0.451241
H91	H	1.240304	-0.977999	-0.525631
H92	H	1.260052	-1.078601	-0.592873
H93	H	1.142625	-1.167092	-0.498393
H94	H	1.122856	-1.066469	-0.431166
H95	H	1.091974	-1.067399	-0.548745
H96	H	1.470943	-0.945943	-0.329163
C97	C	1.265191	-0.395370	-0.912331
C98	C	1.198810	-0.413407	-0.997849
C99	C	1.098805	-0.440644	-0.961481
H100	H	1.238013	-0.339027	-0.871002
H101	H	1.269560	-0.457973	-0.870991
H102	H	1.194438	-0.350811	-1.039171
H103	H	1.225954	-0.469754	-1.039187
H104	H	1.103174	-0.503247	-0.920141
H105	H	1.071638	-0.384298	-0.920152
H106	H	1.053756	-0.452895	-1.019499
H107	H	1.640338	-0.636010	-0.907136
C108	C	1.402745	-0.255781	-1.101166
C109	C	1.329473	-0.181891	-1.064439
C110	C	1.356128	-0.080535	-1.100874
H111	H	1.402748	-0.255601	-1.175613
H112	H	1.470528	-0.237320	-1.076330
H113	H	1.261708	-0.200346	-1.089280
H114	H	1.329459	-0.182038	-0.989997
H115	H	1.423911	-0.062074	-1.076038
H116	H	1.356131	-0.080366	-1.175320
H117	H	1.306424	-0.030387	-1.075952
H118	H	1.118391	-0.389012	-0.384480
H119	H	1.648074	-1.078306	-0.376636
