data_functionalizedCrystal
_audit_creation_method	'MofGen! by Chris Wilmer'
_symmetry_space_group_name_H-M	'P1'
_symmetry_Int_Tables_number	1
_symmetry_cell_setting	triclinic
loop_
_symmetry_equiv_pos_as_xyz
  x,y,z
_cell_length_a	29.839131
_cell_length_b	29.839134
_cell_length_c	29.839125
_cell_angle_alpha	89.973955
_cell_angle_beta	90.017709
_cell_angle_gamma	89.966214
loop_
_atom_site_label
_atom_site_type_symbol
_atom_site_fract_x
_atom_site_fract_y
_atom_site_fract_z
Zn1	Zn	-0.179008	-0.686720	0.254174
Zn2	Zn	0.320992	-0.186720	0.754174
Zn3	Zn	-0.254120	-0.686652	0.179044
Zn4	Zn	0.245880	-0.186652	0.679044
Zn5	Zn	-0.178995	-0.611602	0.179038
Zn6	Zn	0.321005	-0.111602	0.679038
Zn7	Zn	-0.254101	-0.611550	0.254127
Zn8	Zn	0.245899	-0.111550	0.754127
O9	O	-0.216556	-0.649131	0.216596
O10	O	0.283444	-0.149131	0.716596
O11	O	-0.188985	-0.749578	0.244230
O12	O	0.311015	-0.249578	0.744230
O13	O	-0.244156	-0.676690	0.116176
O14	O	0.255844	-0.176690	0.616176
O15	O	-0.116129	-0.621617	0.189022
O16	O	0.383871	-0.121617	0.689022
O17	O	-0.244169	-0.749528	0.189032
O18	O	0.255831	-0.249528	0.689032
O19	O	-0.116139	-0.676805	0.244224
O20	O	0.383861	-0.176805	0.744224
O21	O	-0.188962	-0.621551	0.116172
O22	O	0.311038	-0.121551	0.616172
O23	O	-0.188945	-0.548728	0.188977
O24	O	0.311055	-0.048728	0.688977
O25	O	-0.244138	-0.621528	0.317000
O26	O	0.255862	-0.121528	0.817000
O27	O	-0.244125	-0.548690	0.244144
O28	O	0.255875	-0.048690	0.744144
O29	O	-0.188967	-0.676755	0.317035
O30	O	0.311033	-0.176755	0.817035
O31	O	-0.316985	-0.676639	0.188986
O32	O	0.183015	-0.176639	0.688986
O33	O	-0.316971	-0.621462	0.244150
O34	O	0.183029	-0.121462	0.744150
C35	C	-0.216532	-0.532408	0.216555
C36	C	0.283468	-0.032408	0.716555
C37	C	-0.216532	-0.482474	0.216548
C38	C	0.283468	0.017526	0.716548
C39	C	-0.187777	-0.125894	0.187913
C40	C	0.312223	0.374106	0.687913
C41	C	-0.187766	-0.313567	0.187891
C42	C	0.312234	0.186433	0.687891
O43	O	-0.163282	-0.337838	0.163512
O44	O	0.336718	0.162162	0.663512
N45	N	-0.216539	-0.337029	0.216566
N46	N	0.283461	0.162971	0.716566
C47	C	-0.245314	-0.313569	0.245251
C48	C	0.254686	0.186431	0.745251
O49	O	-0.269783	-0.337831	0.269644
O50	O	0.230217	0.162169	0.769644
C51	C	-0.245323	-0.125897	0.245275
C52	C	0.254677	0.374103	0.745275
C53	C	-0.216552	-0.102438	0.216594
C54	C	0.283448	0.397562	0.716594
C55	C	-0.159008	-0.102435	0.159235
C56	C	0.340992	0.397565	0.659235
C57	C	-0.159013	-0.055520	0.159239
C58	C	0.340987	0.444480	0.659239
C59	C	-0.187787	-0.032063	0.187921
C60	C	0.312213	0.467937	0.687921
C61	C	-0.216556	-0.055522	0.216598
C62	C	0.283444	0.444478	0.716598
C63	C	-0.274096	-0.102438	0.273961
C64	C	0.225904	0.397562	0.773961
C65	C	-0.274095	-0.055517	0.273965
C66	C	0.225905	0.444483	0.773965
C67	C	-0.245323	-0.032058	0.245285
C68	C	0.254677	0.467942	0.745285
C69	C	-0.245336	0.014849	0.245284
C70	C	0.254664	0.514849	0.745284
N71	N	-0.216563	0.038311	0.216609
N72	N	0.283437	0.538311	0.716609
C73	C	-0.187789	0.014854	0.187927
C74	C	0.312211	0.514854	0.687927
C75	C	-0.245308	-0.412100	0.245236
C76	C	0.254692	0.087900	0.745236
C77	C	-0.245306	-0.459018	0.245230
C78	C	0.254694	0.040982	0.745230
C79	C	-0.187758	-0.459013	0.187870
C80	C	0.312242	0.040987	0.687870
C81	C	-0.187762	-0.412094	0.187875
C82	C	0.312238	0.087906	0.687875
C83	C	-0.216535	-0.388638	0.216561
C84	C	0.283465	0.111362	0.716561
C85	C	-0.187801	0.113380	0.187937
C86	C	0.312199	0.613380	0.687937
C87	C	-0.187810	0.160300	0.187942
C88	C	0.312190	0.660300	0.687942
C89	C	-0.245357	0.160291	0.245303
C90	C	0.254643	0.660291	0.745303
C91	C	-0.245350	0.113375	0.245297
C92	C	0.254650	0.613375	0.745297
C93	C	-0.216569	0.089921	0.216612
C94	C	0.283431	0.589921	0.716612
O95	O	-0.269803	0.039149	0.269653
O96	O	0.230197	0.539149	0.769653
O97	O	-0.163316	0.039124	0.163545
O98	O	0.336684	0.539124	0.663545
C99	C	-0.187773	-0.172810	0.187909
C100	C	0.312227	0.327190	0.687909
C101	C	-0.216542	-0.196269	0.216586
C102	C	0.283458	0.303731	0.716586
C103	C	-0.245316	-0.172812	0.245268
C104	C	0.254684	0.327188	0.745268
C105	C	-0.216540	-0.243187	0.216580
C106	C	0.283460	0.256813	0.716580
C107	C	-0.187766	-0.266643	0.187898
C108	C	0.312234	0.233357	0.687898
C109	C	-0.158994	-0.243182	0.159223
C110	C	0.341006	0.256818	0.659223
C111	C	-0.158998	-0.196266	0.159227
C112	C	0.341002	0.303734	0.659227
C113	C	-0.274089	-0.196274	0.273943
C114	C	0.225911	0.303726	0.773943
C115	C	-0.274082	-0.243189	0.273936
C116	C	0.225918	0.256811	0.773936
C117	C	-0.245308	-0.266646	0.245255
C118	C	0.254692	0.233354	0.745255
C119	C	-0.333279	-0.649050	0.216573
C120	C	0.166721	-0.149050	0.716573
C121	C	-0.383213	-0.649056	0.216579
C122	C	0.116787	-0.149056	0.716579
C123	C	-0.692851	-0.677914	0.187914
C124	C	-0.192851	-0.177914	0.687914
C125	C	-0.880524	-0.677969	0.187931
C126	C	-0.380524	-0.177969	0.687931
O127	O	-0.904784	-0.702441	0.163543
O128	O	-0.404784	-0.202441	0.663543
N129	N	-0.903998	-0.649224	0.216629
N130	N	-0.403998	-0.149224	0.716629
C131	C	-0.880551	-0.620465	0.245327
C132	C	-0.380551	-0.120465	0.745327
O133	O	-0.904824	-0.596020	0.269740
O134	O	-0.404824	-0.096020	0.769740
C135	C	-0.692879	-0.620412	0.245312
C136	C	-0.192879	-0.120412	0.745312
C137	C	-0.669407	-0.649156	0.216609
C138	C	-0.169407	-0.149156	0.716609
C139	C	-0.669379	-0.706656	0.159214
C140	C	-0.169379	-0.206656	0.659214
C141	C	-0.622463	-0.706640	0.159208
C142	C	-0.122463	-0.206640	0.659208
C143	C	-0.599020	-0.677882	0.187902
C144	C	-0.099020	-0.177882	0.687902
C145	C	-0.622492	-0.649140	0.216603
C146	C	-0.122492	-0.149140	0.716603
C147	C	-0.669433	-0.591656	0.274011
C148	C	-0.169433	-0.091656	0.774011
C149	C	-0.622512	-0.591646	0.274006
C150	C	-0.122512	-0.091646	0.774006
C151	C	-0.599040	-0.620390	0.245303
C152	C	-0.099040	-0.120390	0.745303
C153	C	-0.552133	-0.620367	0.245292
C154	C	-0.052133	-0.120367	0.745292
N155	N	-0.528658	-0.649112	0.216594
N156	N	-0.028658	-0.149112	0.716594
C157	C	-0.552102	-0.677869	0.187899
C158	C	-0.052102	-0.177869	0.687899
C159	C	-0.979082	-0.620494	0.245333
C160	C	-0.479082	-0.120494	0.745333
C161	C	-1.026000	-0.620507	0.245336
C162	C	-0.526000	-0.120507	0.745336
C163	C	-1.025969	-0.678012	0.187941
C164	C	-0.525969	-0.178012	0.687941
C165	C	-0.979050	-0.677996	0.187936
C166	C	-0.479050	-0.177996	0.687936
C167	C	-0.955607	-0.649239	0.216635
C168	C	-0.455607	-0.149239	0.716635
C169	C	-0.453576	-0.677834	0.187889
C170	C	0.046424	-0.177834	0.687889
C171	C	-0.406657	-0.677814	0.187884
C172	C	0.093343	-0.177814	0.687884
C173	C	-0.406691	-0.620311	0.245281
C174	C	0.093309	-0.120311	0.745281
C175	C	-0.453607	-0.620329	0.245284
C176	C	0.046393	-0.120329	0.745284
C177	C	-0.477048	-0.649094	0.216586
C178	C	0.022952	-0.149094	0.716586
O179	O	-0.527844	-0.595912	0.269671
O180	O	-0.027844	-0.095912	0.769671
O181	O	-0.527821	-0.702318	0.163497
O182	O	-0.027821	-0.202318	0.663497
C183	C	-0.739766	-0.677930	0.187920
C184	C	-0.239766	-0.177930	0.687920
C185	C	-0.763238	-0.649188	0.216620
C186	C	-0.263238	-0.149188	0.716620
C187	C	-0.739794	-0.620430	0.245315
C188	C	-0.239794	-0.120430	0.745315
C189	C	-0.810156	-0.649200	0.216624
C190	C	-0.310156	-0.149200	0.716624
C191	C	-0.833599	-0.677958	0.187929
C192	C	-0.333599	-0.177958	0.687929
C193	C	-0.810125	-0.706703	0.159231
C194	C	-0.310125	-0.206703	0.659231
C195	C	-0.763210	-0.706687	0.159225
C196	C	-0.263210	-0.206687	0.659225
C197	C	-0.763269	-0.591685	0.274013
C198	C	-0.263269	-0.091685	0.774013
C199	C	-0.810184	-0.591703	0.274016
C200	C	-0.310184	-0.091703	0.774016
C201	C	-0.833628	-0.620461	0.245321
C202	C	-0.333628	-0.120461	0.745321
C203	C	-0.099378	-0.649225	0.216628
C204	C	0.400622	-0.149225	0.716628
C205	C	-0.049443	-0.649265	0.216641
C206	C	0.450557	-0.149265	0.716641
C207	C	-0.216552	-0.649143	0.333774
C208	C	0.283448	-0.149143	0.833774
C209	C	-0.216550	-0.649148	0.383708
C210	C	0.283450	-0.149148	0.883708
C211	C	-0.216579	0.233691	0.216629
C212	C	0.283421	0.733691	0.716629
C213	C	-0.216584	0.183756	0.216624
C214	C	0.283416	0.683756	0.716624
C215	C	-0.216528	-0.649145	0.099873
C216	C	0.283472	-0.149145	0.599873
C217	C	-0.216403	-0.649227	0.049939
C218	C	0.283597	-0.149227	0.549939
C219	C	-0.187747	-0.677935	0.693373
C220	C	0.312253	-0.177935	1.193373
C221	C	-0.187709	-0.677957	0.881046
C222	C	0.312291	-0.177957	1.381046
O223	O	-0.163262	-0.702399	0.905329
O224	O	0.336738	-0.202399	1.405329
N225	N	-0.216430	-0.649208	0.904494
N226	N	0.283570	-0.149208	1.404494
C227	C	-0.245160	-0.620449	0.881020
C228	C	0.254840	-0.120449	1.381020
O229	O	-0.269585	-0.595993	0.905270
O230	O	0.230415	-0.095993	1.405270
C231	C	-0.245196	-0.620424	0.693348
C232	C	0.254804	-0.120424	1.193348
C233	C	-0.216476	-0.649179	0.669903
C234	C	0.283524	-0.149179	1.169903
C235	C	-0.159030	-0.706687	0.669928
C236	C	0.340970	-0.206687	1.169928
C237	C	-0.159042	-0.706683	0.623012
C238	C	0.340958	-0.206683	1.123012
C239	C	-0.187771	-0.677927	0.599542
C240	C	0.312229	-0.177927	1.099542
C241	C	-0.216488	-0.649175	0.622987
C242	C	0.283512	-0.149175	1.122987
C243	C	-0.273924	-0.591663	0.669875
C244	C	0.226076	-0.091663	1.169875
C245	C	-0.273929	-0.591659	0.622954
C246	C	0.226071	-0.091659	1.122954
C247	C	-0.245210	-0.620414	0.599509
C248	C	0.254790	-0.120414	1.099509
C249	C	-0.245229	-0.620415	0.552602
C250	C	0.254771	-0.120415	1.052602
N251	N	-0.216508	-0.649164	0.529154
N252	N	0.283492	-0.149164	1.029154
C253	C	-0.187779	-0.677920	0.552624
C254	C	0.312221	-0.177920	1.052624
C255	C	-0.245140	-0.620464	0.979551
C256	C	0.254860	-0.120464	1.479551
C257	C	-0.245132	-0.620471	1.026469
C258	C	0.254868	-0.120471	1.526469
C259	C	-0.187680	-0.677979	1.026491
C260	C	0.312320	-0.177979	1.526491
C261	C	-0.187691	-0.677974	0.979573
C262	C	0.312309	-0.177974	1.479573
C263	C	-0.216419	-0.649214	0.956103
C264	C	0.283581	-0.149214	1.456103
C265	C	-0.187806	-0.677910	0.454098
C266	C	0.312194	-0.177910	0.954098
C267	C	-0.187821	-0.677904	0.407179
C268	C	0.312179	-0.177904	0.907179
C269	C	-0.245271	-0.620395	0.407160
C270	C	0.254729	-0.120395	0.907160
C271	C	-0.245257	-0.620402	0.454076
C272	C	0.254743	-0.120402	0.954076
C273	C	-0.216521	-0.649161	0.477543
C274	C	0.283479	-0.149161	0.977543
O275	O	-0.269659	-0.595982	0.528290
O276	O	0.230341	-0.095982	1.028290
O277	O	-0.163351	-0.702366	0.528366
O278	O	0.336649	-0.202366	1.028366
C279	C	-0.187736	-0.677939	0.740288
C280	C	0.312264	-0.177939	1.240288
C281	C	-0.216453	-0.649187	0.763734
C282	C	0.283547	-0.149187	1.263734
C283	C	-0.245182	-0.620431	0.740263
C284	C	0.254818	-0.120431	1.240263
C285	C	-0.216445	-0.649194	0.810651
C286	C	0.283555	-0.149194	1.310651
C287	C	-0.187716	-0.677950	0.834122
C288	C	0.312284	-0.177950	1.334122
C289	C	-0.158995	-0.706699	0.810674
C290	C	0.341005	-0.206699	1.310674
C291	C	-0.159007	-0.706695	0.763759
C292	C	0.340993	-0.206695	1.263759
C293	C	-0.273903	-0.591682	0.763711
C294	C	0.226097	-0.091682	1.263711
C295	C	-0.273889	-0.591689	0.810627
C296	C	0.226111	-0.091689	1.310627
C297	C	-0.245160	-0.620445	0.834097
C298	C	0.254840	-0.120445	1.334097
H299	H	-0.297520	-0.177180	0.297300
H300	H	0.202480	0.322820	0.797300
O301	O	-0.302080	-0.265995	0.301735
O302	O	0.197920	0.234005	0.801735
C303	C	-0.362719	-0.318959	0.307684
C304	C	0.137281	0.181041	0.807684
C305	C	-0.331053	-0.293154	0.276148
C306	C	0.168947	0.206846	0.776148
H307	H	-0.386146	-0.340930	0.287010
H308	H	0.113854	0.159070	0.787010
H309	H	-0.383316	-0.294151	0.328176
H310	H	0.116684	0.205849	0.828176
H311	H	-0.342113	-0.340925	0.331218
H312	H	0.157887	0.159075	0.831218
H313	H	-0.351624	-0.271188	0.252587
H314	H	0.148376	0.228812	0.752587
H315	H	-0.310455	-0.317986	0.255688
H316	H	0.189545	0.182014	0.755688
H317	H	-0.959942	-0.701402	0.164563
H318	H	-0.459942	-0.201402	0.664563
O319	O	-0.273094	-0.592448	0.476901
O320	O	0.226906	-0.092448	0.976901
C321	C	-0.279103	-0.531765	0.529818
C322	C	0.220897	-0.031765	1.029818
C323	C	-0.247533	-0.563407	0.504011
C324	C	0.252467	-0.063407	1.004011
H325	H	-0.258450	-0.508272	0.551736
H326	H	0.241550	-0.008272	1.051736
H327	H	-0.302588	-0.552343	0.551824
H328	H	0.197412	-0.052343	1.051824
H329	H	-0.299648	-0.511235	0.504971
H330	H	0.200352	-0.011235	1.004971
H331	H	-0.226959	-0.583945	0.528825
H332	H	0.273041	-0.083945	1.028825
H333	H	-0.224078	-0.542804	0.481998
H334	H	0.275922	-0.042804	0.981998
H335	H	-0.135654	-0.730097	0.603927
H336	H	0.364346	-0.230097	1.103927
H337	H	-0.164404	-0.701327	0.473200
H338	H	0.335596	-0.201327	0.973200
O339	O	-0.131008	-0.125237	0.131434
O340	O	0.368992	0.374763	0.631434
C341	C	-0.070356	-0.178251	0.125472
C342	C	0.429644	0.321749	0.625472
C343	C	-0.102029	-0.152453	0.157014
C344	C	0.397971	0.347547	0.657014
H345	H	-0.046925	-0.200269	0.146140
H346	H	0.453075	0.299731	0.646140
H347	H	-0.049765	-0.153438	0.104988
H348	H	0.450235	0.346562	0.604988
H349	H	-0.090956	-0.200169	0.101931
H350	H	0.409044	0.299831	0.601931
H351	H	-0.081464	-0.130534	0.180583
H352	H	0.418536	0.369466	0.680583
H353	H	-0.122622	-0.177290	0.177467
H354	H	0.377378	0.322710	0.677467
O355	O	-0.692156	-0.563721	0.301938
O356	O	-0.192156	-0.063721	0.801938
C357	C	-0.687215	-0.506673	0.358854
C358	C	-0.187215	-0.006673	0.858854
C359	C	-0.661426	-0.538295	0.327254
C360	C	-0.161426	-0.038295	0.827254
H361	H	-0.662380	-0.486100	0.379323
H362	H	-0.162380	0.013900	0.879323
H363	H	-0.709139	-0.527267	0.382402
H364	H	-0.209139	-0.027267	0.882402
H365	H	-0.709223	-0.483217	0.338202
H366	H	-0.209223	0.016783	0.838202
H367	H	-0.639393	-0.561756	0.347869
H368	H	-0.139393	-0.061756	0.847869
H369	H	-0.639530	-0.517673	0.303705
H370	H	-0.139530	-0.017673	0.803705
H371	H	-0.297299	-0.568265	0.744606
H372	H	0.202701	-0.068265	1.244606
H373	H	-0.135566	-0.262288	0.135868
H374	H	0.364434	0.237712	0.635868
O375	O	-0.301979	-0.125267	0.301848
O376	O	0.198021	0.374733	0.801848
C377	C	-0.308101	-0.178232	0.362519
C378	C	0.191899	0.321768	0.862519
C379	C	-0.276473	-0.152417	0.330954
C380	C	0.223527	0.347583	0.830954
H381	H	-0.287492	-0.200183	0.386065
H382	H	0.212508	0.299817	0.886065
H383	H	-0.331560	-0.200207	0.341884
H384	H	0.168440	0.299793	0.841884
H385	H	-0.328670	-0.153391	0.382997
H386	H	0.171330	0.346609	0.882997
H387	H	-0.255875	-0.177227	0.310468
H388	H	0.244125	0.322773	0.810468
H389	H	-0.253043	-0.130436	0.351614
H390	H	0.246957	0.369564	0.851614
H391	H	-0.268740	-0.478114	0.268579
H392	H	0.231260	0.021886	0.768579
H393	H	-0.297281	-0.568274	0.829712
H394	H	0.202719	-0.068274	1.329712
O395	O	-0.131167	-0.734668	0.740964
O396	O	0.368833	-0.234668	1.240964
C397	C	-0.125126	-0.795299	0.687992
C398	C	0.374874	-0.295299	1.187992
C399	C	-0.156710	-0.763658	0.713784
C400	C	0.343290	-0.263658	1.213784
H401	H	-0.145764	-0.818740	0.666003
H402	H	0.354236	-0.318740	1.166003
H403	H	-0.104597	-0.815882	0.712808
H404	H	0.395403	-0.315882	1.212808
H405	H	-0.101629	-0.774674	0.666045
H406	H	0.398371	-0.274674	1.166045
H407	H	-0.180235	-0.784248	0.735731
H408	H	0.319765	-0.284248	1.235731
H409	H	-0.177208	-0.743074	0.688942
H410	H	0.322792	-0.243074	1.188942
H411	H	-0.387547	-0.701220	0.164509
H412	H	0.112453	-0.201220	0.664509
H413	H	-0.164332	-0.392997	0.164522
H414	H	0.335668	0.107003	0.664522
O415	O	-0.740393	-0.734547	0.131297
O416	O	-0.240393	-0.234547	0.631297
C417	C	-0.687428	-0.740628	0.070656
C418	C	-0.187428	-0.240628	0.570656
C419	C	-0.713244	-0.709023	0.102251
C420	C	-0.213244	-0.209023	0.602251
H421	H	-0.665465	-0.720005	0.047170
H422	H	-0.165465	-0.220005	0.547170
H423	H	-0.712230	-0.761174	0.050118
H424	H	-0.212230	-0.261174	0.550118
H425	H	-0.665454	-0.764109	0.091314
H426	H	-0.165454	-0.264109	0.591314
H427	H	-0.735219	-0.685515	0.081627
H428	H	-0.235219	-0.185515	0.581627
H429	H	-0.688418	-0.688509	0.122790
H430	H	-0.188418	-0.188509	0.622790
O431	O	-0.302005	-0.032664	0.301817
O432	O	0.197995	0.467336	0.801817
C433	C	-0.327539	0.039612	0.327230
C434	C	0.172461	0.539612	0.827230
C435	C	-0.295900	0.013788	0.295675
C436	C	0.204100	0.513788	0.795675
H437	H	-0.322621	0.077172	0.322269
H438	H	0.177379	0.577172	0.822269
H439	H	-0.319700	0.030395	0.363478
H440	H	0.180300	0.530395	0.863478
H441	H	-0.363746	0.030380	0.319281
H442	H	0.136254	0.530380	0.819281
H443	H	-0.259682	0.023005	0.303584
H444	H	0.240318	0.523005	0.803584
H445	H	-0.303778	0.023006	0.259437
H446	H	0.196222	0.523006	0.759437
H447	H	-0.268523	-0.597061	1.045554
H448	H	0.231477	-0.097061	1.545554
H449	H	-0.164380	0.179398	0.164586
H450	H	0.335620	0.679398	0.664586
H451	H	-0.268741	-0.393007	0.268597
H452	H	0.231259	0.106993	0.768597
O453	O	-0.599719	-0.563775	0.301932
O454	O	-0.099719	-0.063775	0.801932
C455	C	-0.546709	-0.557672	0.362557
C456	C	-0.046709	-0.057672	0.862557
C457	C	-0.572500	-0.589287	0.330968
C458	C	-0.072500	-0.089287	0.830968
H459	H	-0.524689	-0.578286	0.386034
H460	H	-0.024689	-0.078286	0.886034
H461	H	-0.571526	-0.537140	0.383104
H462	H	-0.071526	-0.037140	0.883104
H463	H	-0.524793	-0.534178	0.341894
H464	H	-0.024793	-0.034178	0.841894
H465	H	-0.594417	-0.612808	0.351596
H466	H	-0.094417	-0.112808	0.851596
H467	H	-0.547659	-0.609787	0.310419
H468	H	-0.047659	-0.109787	0.810419
H469	H	-0.472656	-0.701258	0.164521
H470	H	0.027344	-0.201258	0.664521
O471	O	-0.599717	-0.734545	0.131267
O472	O	-0.099717	-0.234545	0.631267
C473	C	-0.585365	-0.756397	0.054873
C474	C	-0.085365	-0.256397	0.554873
C475	C	-0.611156	-0.724769	0.086465
C476	C	-0.111156	-0.224769	0.586465
H477	H	-0.594597	-0.748499	0.018643
H478	H	-0.094597	-0.248499	0.518643
H479	H	-0.594569	-0.792624	0.062773
H480	H	-0.094569	-0.292624	0.562773
H481	H	-0.547805	-0.751462	0.059816
H482	H	-0.047805	-0.251462	0.559816
H483	H	-0.648722	-0.729664	0.081539
H484	H	-0.148722	-0.229664	0.581539
H485	H	-0.601914	-0.688554	0.078556
H486	H	-0.101914	-0.188554	0.578556
O487	O	-1.048816	-0.705960	0.160136
O488	O	-0.548816	-0.205960	0.660136
C489	C	-1.121088	-0.731504	0.134758
C490	C	-0.621088	-0.231504	0.634758
C491	C	-1.095268	-0.699819	0.166255
C492	C	-0.595268	-0.199819	0.666255
H493	H	-1.158649	-0.726543	0.139687
H494	H	-0.658649	-0.226543	0.639687
H495	H	-1.111845	-0.767717	0.142729
H496	H	-0.611845	-0.267717	0.642729
H497	H	-1.111881	-0.723684	0.098513
H498	H	-0.611881	-0.223684	0.598513
H499	H	-1.104461	-0.707598	0.202510
H500	H	-0.604461	-0.207598	0.702510
H501	H	-1.104513	-0.663615	0.158245
H502	H	-0.604513	-0.163615	0.658245
O503	O	-0.131058	-0.734602	0.692671
O504	O	0.368942	-0.234602	1.192671
C505	C	-0.054640	-0.756465	0.707047
C506	C	0.445360	-0.256465	1.207047
C507	C	-0.086267	-0.724824	0.681259
C508	C	0.413733	-0.224824	1.181259
H509	H	-0.018419	-0.748564	0.697837
H510	H	0.481581	-0.248564	1.197837
H511	H	-0.062506	-0.792687	0.697817
H512	H	0.437494	-0.292687	1.197817
H513	H	-0.059583	-0.751547	0.744607
H514	H	0.440417	-0.251547	1.244607
H515	H	-0.081341	-0.729702	0.643693
H516	H	0.418659	-0.229702	1.143693
H517	H	-0.078393	-0.688613	0.690527
H518	H	0.421607	-0.188613	1.190527
H519	H	-1.045106	-0.597097	0.268705
H520	H	-0.545106	-0.097097	0.768705
O521	O	-0.273264	0.183150	0.273150
O522	O	0.226736	0.683150	0.773150
C523	C	-0.298781	0.255434	0.298557
C524	C	0.201219	0.755434	0.798557
C525	C	-0.267150	0.229600	0.267003
C526	C	0.232850	0.729600	0.767003
H527	H	-0.293856	0.292993	0.293592
H528	H	0.206144	0.792993	0.793592
H529	H	-0.290941	0.246220	0.334805
H530	H	0.209059	0.746220	0.834805
H531	H	-0.334991	0.246209	0.290612
H532	H	0.165009	0.746209	0.790612
H533	H	-0.230930	0.238811	0.274908
H534	H	0.269070	0.738811	0.774908
H535	H	-0.275029	0.238816	0.230764
H536	H	0.224971	0.738816	0.730764
H537	H	-0.744185	-0.568268	0.297380
H538	H	-0.244185	-0.068268	0.797380
O539	O	-0.956382	-0.592512	0.273224
O540	O	-0.456382	-0.092512	0.773224
C541	C	-0.961376	-0.535491	0.330165
C542	C	-0.461376	-0.035491	0.830165
C543	C	-0.987136	-0.567153	0.298597
C544	C	-0.487136	-0.067153	0.798597
H545	H	-0.986230	-0.514986	0.350694
H546	H	-0.486230	-0.014986	0.850694
H547	H	-0.939453	-0.511977	0.309531
H548	H	-0.439453	-0.011977	0.809531
H549	H	-0.939371	-0.556095	0.353663
H550	H	-0.439371	-0.056095	0.853663
H551	H	-1.009166	-0.546585	0.275092
H552	H	-0.509166	-0.046585	0.775092
H553	H	-1.009032	-0.590667	0.319258
H554	H	-0.509032	-0.090667	0.819258
O555	O	-0.159878	-0.705851	0.384474
O556	O	0.340122	-0.205851	0.884474
C557	C	-0.102912	-0.762911	0.389457
C558	C	0.397088	-0.262911	0.889457
C559	C	-0.134526	-0.731279	0.415223
C560	C	0.365474	-0.231279	0.915223
H561	H	-0.082414	-0.783484	0.414306
H562	H	0.417586	-0.283484	0.914306
H563	H	-0.079391	-0.742324	0.367497
H564	H	0.420609	-0.242324	0.867497
H565	H	-0.123554	-0.786365	0.367486
H566	H	0.376446	-0.286365	0.867486
H567	H	-0.113920	-0.707818	0.437218
H568	H	0.386080	-0.207818	0.937218
H569	H	-0.158048	-0.751893	0.437154
H570	H	0.341952	-0.251893	0.937154
O571	O	-0.159819	-0.481872	0.160052
O572	O	0.340181	0.018128	0.660052
C573	C	-0.134333	-0.554156	0.134615
C574	C	0.365667	-0.054156	0.634615
C575	C	-0.165989	-0.528321	0.166143
C576	C	0.334011	-0.028321	0.666143
H577	H	-0.139318	-0.591715	0.139521
H578	H	0.360682	-0.091715	0.639521
H579	H	-0.098110	-0.544991	0.142574
H580	H	0.401890	-0.044991	0.642574
H581	H	-0.142158	-0.544882	0.098379
H582	H	0.357842	-0.044882	0.598379
H583	H	-0.158205	-0.537581	0.202389
H584	H	0.341795	-0.037581	0.702389
H585	H	-0.202203	-0.537488	0.158145
H586	H	0.297797	-0.037488	0.658145
H587	H	-0.268537	-0.597044	0.960446
H588	H	0.231463	-0.097044	1.460446
O589	O	-0.159748	-0.705918	0.956869
O590	O	0.340252	-0.205918	1.456869
C591	C	-0.102784	-0.762979	0.961856
C592	C	0.397216	-0.262979	1.461856
C593	C	-0.134401	-0.731347	0.987620
C594	C	0.365599	-0.231347	1.487620
H595	H	-0.082289	-0.783553	0.986707
H596	H	0.417711	-0.283553	1.486707
H597	H	-0.079260	-0.742391	0.939901
H598	H	0.420740	-0.242391	1.439901
H599	H	-0.123423	-0.786431	0.939882
H600	H	0.376577	-0.286431	1.439882
H601	H	-0.113797	-0.707888	1.009619
H602	H	0.386203	-0.207888	1.509619
H603	H	-0.157926	-0.751962	1.009547
H604	H	0.342074	-0.251962	1.509547
H605	H	-0.688462	-0.730076	0.135847
H606	H	-0.188462	-0.230076	0.635847
O607	O	-0.131070	-0.173535	0.131303
O608	O	0.368930	0.326465	0.631303
C609	C	-0.109169	-0.159154	0.054918
C610	C	0.390831	0.340846	0.554918
C611	C	-0.140822	-0.184925	0.086496
C612	C	0.359178	0.315075	0.586496
H613	H	-0.117048	-0.168345	0.018685
H614	H	0.382952	0.331655	0.518685
H615	H	-0.072949	-0.168417	0.062835
H616	H	0.427051	0.331583	0.562835
H617	H	-0.114097	-0.121591	0.059861
H618	H	0.385903	0.378409	0.559861
H619	H	-0.135933	-0.222494	0.081571
H620	H	0.364067	0.277506	0.581571
H621	H	-0.177030	-0.175624	0.078571
H622	H	0.322970	0.324376	0.578571
O623	O	-0.832833	-0.734654	0.131315
O624	O	-0.332833	-0.234654	0.631315
C625	C	-0.827867	-0.791712	0.074408
C626	C	-0.327867	-0.291712	0.574408
C627	C	-0.802092	-0.760073	0.105988
C628	C	-0.302092	-0.260073	0.605988
H629	H	-0.803024	-0.812279	0.053930
H630	H	-0.303024	-0.312279	0.553930
H631	H	-0.849850	-0.771131	0.050867
H632	H	-0.349850	-0.271131	0.550867
H633	H	-0.849815	-0.815172	0.095076
H634	H	-0.349815	-0.315172	0.595076
H635	H	-0.780120	-0.736607	0.085356
H636	H	-0.280120	-0.236607	0.585356
H637	H	-0.780137	-0.780682	0.129530
H638	H	-0.280137	-0.280682	0.629530
O639	O	-0.476461	-0.592468	0.273184
O640	O	0.023539	-0.092468	0.773184
C641	C	-0.529388	-0.586404	0.333859
C642	C	-0.029388	-0.086404	0.833859
C643	C	-0.503546	-0.618003	0.302280
C644	C	-0.003546	-0.118003	0.802280
H645	H	-0.551285	-0.607036	0.357397
H646	H	-0.051285	-0.107036	0.857397
H647	H	-0.551417	-0.562943	0.313234
H648	H	-0.051417	-0.062943	0.813234
H649	H	-0.504564	-0.565835	0.354345
H650	H	-0.004564	-0.065835	0.854345
H651	H	-0.528338	-0.638601	0.281787
H652	H	-0.028338	-0.138601	0.781787
H653	H	-0.481510	-0.641433	0.322930
H654	H	0.018490	-0.141433	0.822930
O655	O	-0.159833	0.090671	0.160028
O656	O	0.340167	0.590671	0.660028
C657	C	-0.102743	0.095640	0.103146
C658	C	0.397257	0.595640	0.603146
C659	C	-0.134398	0.121414	0.134727
C660	C	0.365602	0.621414	0.634727
H661	H	-0.082164	0.120484	0.082689
H662	H	0.417836	0.620484	0.582689
H663	H	-0.123312	0.073712	0.079586
H664	H	0.376688	0.573712	0.579586
H665	H	-0.079296	0.073637	0.123812
H666	H	0.420704	0.573637	0.623812
H667	H	-0.157852	0.143441	0.114097
H668	H	0.342148	0.643441	0.614097
H669	H	-0.113801	0.143313	0.158288
H670	H	0.386199	0.643313	0.658288
H671	H	-0.164288	-0.701393	1.045609
H672	H	0.335712	-0.201393	1.545609
O673	O	-0.273134	-0.592476	0.384287
O674	O	0.226866	-0.092476	0.884287
C675	C	-0.298619	-0.567002	0.311991
C676	C	0.201381	-0.067002	0.811991
C677	C	-0.267037	-0.598638	0.337840
C678	C	0.232963	-0.098638	0.837840
H679	H	-0.293707	-0.571980	0.274435
H680	H	0.206293	-0.071980	0.774435
H681	H	-0.290716	-0.530774	0.321169
H682	H	0.209284	-0.030774	0.821169
H683	H	-0.334841	-0.574853	0.321239
H684	H	0.165159	-0.074853	0.821239
H685	H	-0.230804	-0.590828	0.328607
H686	H	0.269196	-0.090828	0.828607
H687	H	-0.274978	-0.634856	0.328660
H688	H	0.225022	-0.134856	0.828660
O689	O	-0.301776	-0.563673	0.600139
O690	O	0.198224	-0.063673	1.100139
C691	C	-0.307830	-0.503022	0.547132
C692	C	0.192170	-0.003022	1.047132
C693	C	-0.276240	-0.534679	0.572946
C694	C	0.223760	-0.034679	1.072946
H695	H	-0.287197	-0.479578	0.525133
H696	H	0.212803	0.020422	1.025133
H697	H	-0.328343	-0.482444	0.571934
H698	H	0.171657	0.017556	1.071934
H699	H	-0.331342	-0.523635	0.525193
H700	H	0.168658	-0.023635	1.025193
H701	H	-0.252701	-0.514101	0.594886
H702	H	0.247299	-0.014101	1.094886
H703	H	-0.255758	-0.555259	0.548120
H704	H	0.244242	-0.055259	1.048120
O705	O	-0.301834	-0.563686	0.692573
O706	O	0.198166	-0.063686	1.192573
C707	C	-0.358827	-0.506655	0.687578
C708	C	0.141173	-0.006655	1.187578
C709	C	-0.327234	-0.538313	0.661819
C710	C	0.172766	-0.038313	1.161819
H711	H	-0.379378	-0.486139	0.662725
H712	H	0.120622	0.013861	1.162725
H713	H	-0.338212	-0.483152	0.709524
H714	H	0.161788	0.016848	1.209524
H715	H	-0.382304	-0.527264	0.709563
H716	H	0.117696	-0.027264	1.209563
H717	H	-0.303750	-0.517740	0.639810
H718	H	0.196250	-0.017740	1.139810
H719	H	-0.347877	-0.561816	0.639902
H720	H	0.152123	-0.061816	1.139902
H721	H	-0.268782	0.094274	0.268647
H722	H	0.231218	0.594274	0.768647
O723	O	-0.383983	-0.592339	0.273172
O724	O	0.116017	-0.092339	0.773172
C725	C	-0.388952	-0.535339	0.330137
C726	C	0.111048	-0.035339	0.830137
C727	C	-0.414726	-0.566981	0.298560
C728	C	0.085274	-0.066981	0.798560
H729	H	-0.413796	-0.514835	0.350677
H730	H	0.086204	-0.014835	0.850677
H731	H	-0.367023	-0.511824	0.309509
H732	H	0.132977	-0.011824	0.809509
H733	H	-0.366949	-0.555959	0.353624
H734	H	0.133051	-0.055959	0.853624
H735	H	-0.436752	-0.546397	0.275066
H736	H	0.063248	-0.046397	0.775066
H737	H	-0.436625	-0.590497	0.319215
H738	H	0.063375	-0.090497	0.819215
O739	O	-0.832961	-0.563826	0.301965
O740	O	-0.332961	-0.063826	0.801965
C741	C	-0.847270	-0.541959	0.378363
C742	C	-0.347270	-0.041959	0.878363
C743	C	-0.821458	-0.573559	0.346760
C744	C	-0.321458	-0.073559	0.846760
H745	H	-0.837972	-0.549810	0.414586
H746	H	-0.337972	-0.049810	0.914586
H747	H	-0.884837	-0.546909	0.373483
H748	H	-0.384837	-0.046909	0.873483
H749	H	-0.838087	-0.505739	0.370410
H750	H	-0.338087	-0.005739	0.870410
H751	H	-0.830604	-0.609791	0.354693
H752	H	-0.330604	-0.109791	0.854693
H753	H	-0.783897	-0.568571	0.351646
H754	H	-0.283897	-0.068571	0.851646
O755	O	-0.131018	-0.032804	0.131368
O756	O	0.368982	0.467196	0.631368
C757	C	-0.073953	-0.037769	0.074461
C758	C	0.426047	0.462231	0.574461
C759	C	-0.105630	-0.063545	0.106009
C760	C	0.394370	0.436455	0.606009
H761	H	-0.053425	-0.062612	0.053943
H762	H	0.446575	0.437388	0.553943
H763	H	-0.050462	-0.015842	0.095110
H764	H	0.449538	0.484158	0.595110
H765	H	-0.094547	-0.015765	0.050952
H766	H	0.405453	0.484235	0.550952
H767	H	-0.085072	-0.085573	0.129525
H768	H	0.414928	0.414427	0.629525
H769	H	-0.129122	-0.085444	0.085332
H770	H	0.370878	0.414556	0.585332
O771	O	-0.131038	-0.734568	0.833497
O772	O	0.368962	-0.234568	1.333497
C773	C	-0.070395	-0.740654	0.886502
C774	C	0.429605	-0.240654	1.386502
C775	C	-0.102021	-0.709047	0.860673
C776	C	0.397979	-0.209047	1.360673
H777	H	-0.046933	-0.720033	0.908487
H778	H	0.453067	-0.220033	1.408487
H779	H	-0.049833	-0.761197	0.861709
H780	H	0.450167	-0.261197	1.361709
H781	H	-0.091030	-0.764138	0.908456
H782	H	0.408970	-0.264138	1.408456
H783	H	-0.081421	-0.685536	0.838718
H784	H	0.418579	-0.185536	1.338718
H785	H	-0.122584	-0.688536	0.885490
H786	H	0.377416	-0.188536	1.385490
