data_functionalizedCrystal
_audit_creation_method	'MofGen! by Chris Wilmer'
_symmetry_space_group_name_H-M	'P1'
_symmetry_Int_Tables_number	1
_symmetry_cell_setting	triclinic
loop_
_symmetry_equiv_pos_as_xyz
  x,y,z
_cell_length_a	15.944499
_cell_length_b	15.944551
_cell_length_c	9.730217
_cell_angle_alpha	89.995798
_cell_angle_beta	89.996000
_cell_angle_gamma	83.488174
loop_
_atom_site_label
_atom_site_type_symbol
_atom_site_fract_x
_atom_site_fract_y
_atom_site_fract_z
O1	O	1.114548	0.108124	-0.114375
O2	O	0.869992	0.121525	-0.114360
O3	O	0.998948	-0.007451	-0.114356
O4	O	0.985592	0.237101	-0.114380
O5	O	0.998944	-0.007453	0.114224
O6	O	0.869988	0.121524	0.114220
O7	O	1.114544	0.108123	0.114205
Zn8	Zn	0.992265	0.114823	0.150504
Zn9	Zn	0.992270	0.114825	-0.150660
O10	O	0.985588	0.237100	0.114200
C11	C	0.838695	0.120976	-0.000068
C12	C	0.745447	0.119331	-0.000062
C13	C	0.453911	0.194263	-0.000090
C14	C	0.514942	0.155312	-0.112791
C15	C	0.409810	0.113355	-0.000093
C16	C	0.514924	0.155289	0.112571
C17	C	0.574719	0.116296	-0.000076
C18	C	0.469614	0.074381	-0.112887
C19	C	0.469589	0.074370	0.112576
C20	C	0.530603	0.035360	-0.000152
C21	C	0.314810	0.111663	-0.000105
C22	C	0.669718	0.117981	-0.000074
C23	C	0.998392	-0.038746	-0.000066
C24	C	0.996729	-0.131992	-0.000065
C25	C	0.912823	-0.346833	-0.000078
C26	C	0.951784	-0.407858	0.112623
C27	C	0.993722	-0.302717	-0.000075
C28	C	0.951807	-0.407840	-0.112739
C29	C	0.990811	-0.467629	-0.000091
C30	C	1.032706	-0.362514	0.112719
C31	C	1.032717	-0.362490	-0.112744
C32	C	1.071737	-0.423497	-0.000015
C33	C	0.995397	-0.207715	-0.000065
C34	C	0.989143	-0.562630	-0.000092
C35	C	1.145840	0.108672	-0.000090
C36	C	1.239089	0.110317	-0.000105
C37	C	0.986144	0.268394	-0.000093
C38	C	0.987806	0.361640	-0.000103
N39	N	0.992268	0.114822	0.356041
N40	N	0.992275	0.114820	-0.356196
C41	C	1.106505	0.000646	0.356035
C42	C	1.163629	-0.056440	0.427973
C43	C	1.163637	-0.056441	0.571852
C44	C	1.106514	0.000649	0.643798
C45	C	1.049390	0.057735	0.571861
C46	C	1.049389	0.057731	0.427978
C47	C	0.935150	0.171905	0.571866
C48	C	0.935144	0.171911	0.427987
C49	C	0.878027	0.228995	0.643812
C50	C	0.820906	0.286086	0.571875
C51	C	0.820900	0.286085	0.427987
C52	C	0.878020	0.228997	0.356050
H53	H	0.563780	-0.031846	-0.000205
H54	H	1.066892	-0.342530	0.208104
C55	C	0.442812	0.028860	-0.240030
C56	C	0.355121	0.027872	-0.238602
C57	C	0.330397	-0.014040	-0.355712
H58	H	0.469676	-0.027447	-0.240476
H59	H	0.458649	0.057419	-0.320000
H60	H	0.339292	-0.000688	-0.158653
H61	H	0.328236	0.084167	-0.238176
H62	H	0.346235	0.014519	-0.435683
H63	H	0.357267	-0.070344	-0.356149
H64	H	0.270897	-0.014709	-0.354766
C65	C	1.078173	-0.335511	-0.239842
C66	C	1.023261	-0.278773	-0.316408
C67	C	1.065101	-0.253891	-0.433501
H68	H	1.096005	-0.383677	-0.294334
H69	H	1.125967	-0.308937	-0.212834
H70	H	0.975482	-0.305348	-0.343418
H71	H	1.005426	-0.230595	-0.261957
H72	H	1.112895	-0.227317	-0.406494
H73	H	1.082931	-0.302062	-0.487982
H74	H	1.027852	-0.215386	-0.485460
C75	C	0.442782	0.028919	0.239795
C76	C	0.465456	0.071565	0.357484
C77	C	0.440762	0.029735	0.474713
H78	H	0.470079	-0.027216	0.240801
H79	H	0.383344	0.027764	0.238487
H80	H	0.524883	0.072711	0.358792
H81	H	0.438161	0.127698	0.356523
H82	H	0.381324	0.028580	0.473405
H83	H	0.468061	-0.026399	0.475705
H84	H	0.456135	0.058668	0.554578
H85	H	1.210150	-0.102928	0.630424
H86	H	1.106518	0.000638	0.760953
H87	H	0.917566	-0.427960	0.207907
C88	C	0.878194	0.228895	0.800025
C89	C	0.940462	0.166700	0.847631
C90	C	0.940649	0.166595	0.991526
H91	H	0.824566	0.217335	0.832764
H92	H	0.889726	0.282574	0.832606
H93	H	0.928925	0.113033	0.815063
H94	H	0.994099	0.178246	0.814930
H95	H	0.952181	0.220275	1.024107
H96	H	0.887018	0.155037	1.024251
H97	H	0.982902	0.124403	1.023845
C98	C	0.758985	0.348025	0.650235
C99	C	0.771228	0.335814	0.791634
C100	C	0.714210	0.392866	0.863866
H101	H	0.702891	0.338930	0.626831
H102	H	0.768110	0.404110	0.626734
H103	H	0.762096	0.279742	0.815125
H104	H	0.827311	0.344916	0.815079
H105	H	0.723335	0.448950	0.840366
H106	H	0.658119	0.383766	0.840451
H107	H	0.722514	0.384594	0.959813
H108	H	1.138946	-0.456668	0.000045
C109	C	0.906039	-0.434481	-0.239738
C110	C	0.822895	-0.395273	-0.239201
C111	C	0.780706	-0.419782	-0.356172
H112	H	0.905668	-0.494012	-0.239387
H113	H	0.934189	-0.418156	-0.319807
H114	H	0.794752	-0.411604	-0.159153
H115	H	0.823241	-0.335743	-0.239572
H116	H	0.808855	-0.403456	-0.436241
H117	H	0.780341	-0.479313	-0.355811
H118	H	0.724290	-0.393177	-0.355830
H119	H	0.774380	0.332568	0.369423
H120	H	0.420581	0.261409	-0.000206
H121	H	0.535042	0.189537	-0.208071
H122	H	1.106511	0.000647	0.238881
C123	C	1.225653	-0.118283	0.349611
C124	C	1.213459	-0.106033	0.208210
C125	C	1.270606	-0.162960	0.135987
H126	H	1.216641	-0.174405	0.372995
H127	H	1.281709	-0.109074	0.373140
H128	H	1.157417	-0.115248	0.184691
H129	H	1.222479	-0.049923	0.184785
H130	H	1.326661	-0.153752	0.159515
H131	H	1.261589	-0.219079	0.159381
H132	H	1.262345	-0.154652	0.040039
H133	H	0.878024	0.228994	0.238895
H134	H	0.534998	0.189524	0.207847
H135	H	0.845673	-0.313513	0.000038
