data_functionalizedCrystal
_audit_creation_method	'MofGen! by Chris Wilmer'
_symmetry_space_group_name_H-M	'P1'
_symmetry_Int_Tables_number	1
_symmetry_cell_setting	triclinic
loop_
_symmetry_equiv_pos_as_xyz
  x,y,z
_cell_length_a	17.699077
_cell_length_b	23.532407
_cell_length_c	16.776229
_cell_angle_alpha	89.984855
_cell_angle_beta	89.993415
_cell_angle_gamma	83.064661
loop_
_atom_site_label
_atom_site_type_symbol
_atom_site_fract_x
_atom_site_fract_y
_atom_site_fract_z
O1	O	1.003716	0.072004	-0.066293
O2	O	0.783289	0.081377	-0.066298
O3	O	0.900150	-0.006222	-0.066273
O4	O	0.886856	0.159603	-0.066318
O5	O	0.900134	-0.006228	0.066304
O6	O	0.783274	0.081372	0.066278
O7	O	1.003701	0.071998	0.066284
Zn8	Zn	0.893485	0.076684	0.087330
Zn9	Zn	0.893505	0.076691	-0.087345
O10	O	0.886840	0.159598	0.066258
C11	C	0.755086	0.081039	-0.000011
C12	C	0.671073	0.080033	-0.000012
C13	C	0.631600	0.079556	0.072257
C14	C	0.552662	0.078602	0.072258
C15	C	0.513198	0.078129	-0.000010
C16	C	0.552678	0.078604	-0.072284
C17	C	0.631615	0.079554	-0.072285
C18	C	0.234334	0.074772	-0.072285
C19	C	0.155391	0.073823	-0.072279
C20	C	0.155381	0.073820	0.072258
C21	C	0.234318	0.074770	0.072257
C22	C	0.273791	0.075242	-0.000016
C23	C	0.359385	0.076275	-0.000016
C24	C	0.427606	0.077099	-0.000011
C25	C	0.899803	-0.027442	0.000019
C26	C	0.898786	-0.090662	0.000031
C27	C	0.825433	-0.357039	-0.000020
C28	C	0.826378	-0.297636	-0.000014
O29	O	0.768188	-0.261058	-0.000041
N30	N	0.895852	-0.274811	-0.000003
C31	C	0.964384	-0.311393	-0.000006
O32	O	1.023563	-0.286524	0.000003
C33	C	0.963438	-0.370795	-0.000018
C34	C	0.893960	-0.393616	-0.000021
C35	C	0.755961	-0.379861	-0.000024
C36	C	0.755015	-0.439260	-0.000029
C37	C	0.823543	-0.475837	-0.000030
C38	C	0.893015	-0.453015	-0.000026
C39	C	1.031969	-0.407375	-0.000027
C40	C	1.031017	-0.466781	-0.000040
C41	C	0.961539	-0.489602	-0.000043
C42	C	0.960597	-0.548991	-0.000031
N43	N	0.891123	-0.571815	-0.000042
C44	C	0.822596	-0.535238	-0.000041
C45	C	0.966366	-0.186645	0.000017
C46	C	0.967313	-0.127244	0.000035
C47	C	0.829307	-0.113491	0.000025
C48	C	0.828361	-0.172893	0.000014
C49	C	0.896893	-0.209470	0.000006
C50	C	0.820617	-0.659981	-0.000051
C51	C	0.819677	-0.719386	-0.000052
C52	C	0.957683	-0.733133	-0.000047
C53	C	0.958623	-0.673734	-0.000041
C54	C	0.890083	-0.637158	-0.000046
O55	O	1.018756	-0.585604	-0.000008
O56	O	0.763427	-0.560115	-0.000061
C57	C	1.031904	0.072336	-0.000006
C58	C	1.115917	0.073342	-0.000010
C59	C	0.887187	0.180817	-0.000036
C60	C	0.888205	0.244037	-0.000053
N61	N	0.893477	0.076679	0.206542
N62	N	0.893520	0.076692	-0.206556
C63	C	0.945238	0.037906	0.248270
C64	C	0.945242	0.037905	0.331722
C65	C	0.893488	0.076681	0.373445
C66	C	0.841721	0.115456	0.331710
C67	C	0.841714	0.115454	0.248260
C68	C	0.841749	0.115467	0.668258
C69	C	0.841761	0.115468	0.751714
C70	C	0.945277	0.037919	0.751720
C71	C	0.945269	0.037917	0.668269
C72	C	0.893500	0.076689	0.626542
C73	C	0.893495	0.076689	0.536054
C74	C	0.893496	0.076685	0.463931
H75	H	0.763098	-0.737963	-0.000051
N76	N	1.001097	-0.003901	0.376718
H77	H	0.992712	-0.044319	0.362216
H78	H	1.054722	0.002679	0.362143
H79	H	0.700154	-0.350085	-0.000026
N80	N	0.785881	0.157273	0.203254
H81	H	0.794289	0.197686	0.217754
H82	H	0.793753	0.151337	0.144072
N83	N	0.674189	0.080066	-0.150234
H84	H	0.654053	0.115191	-0.181842
H85	H	0.730174	0.080715	-0.139205
N86	N	0.755396	-0.074030	0.000025
H87	H	0.752726	-0.049066	-0.049118
H88	H	0.711277	-0.097535	0.000049
H89	H	0.266445	0.075158	0.131106
N90	N	0.112821	0.073307	-0.150226
H91	H	0.120157	0.108760	-0.181840
H92	H	0.132982	0.038157	-0.181743
H93	H	0.987385	0.006333	0.214305
H94	H	0.663725	0.079946	0.131106
H95	H	0.799614	0.147045	0.785683
H96	H	0.799598	0.147038	0.634290
N97	N	1.104937	-0.506229	-0.000035
H98	H	1.093802	-0.547324	-0.000038
H99	H	1.135240	-0.498838	-0.049180
N100	N	0.753425	-0.197505	0.000014
H101	H	0.710161	-0.165315	0.000019
H102	H	0.750026	-0.221837	-0.049139
H103	H	1.022177	-0.216423	0.000017
N104	N	0.785894	0.157276	0.376706
H105	H	0.793753	0.151396	0.435904
H106	H	0.794326	0.197669	0.362099
H107	H	0.987428	0.006347	0.785703
N108	N	0.510084	0.078086	0.150203
H109	H	0.547131	0.078129	0.195984
H110	H	0.471290	0.113187	0.153583
H111	H	0.123233	0.073432	0.131106
N112	N	0.746699	-0.620531	-0.000049
H113	H	0.716369	-0.627851	-0.049194
H114	H	0.716428	-0.627895	0.049131
H115	H	0.266463	0.075154	-0.131134
H116	H	1.015197	-0.655152	-0.000028
N117	N	0.510119	0.078087	-0.150233
H118	H	0.454122	0.077413	-0.139268
H119	H	0.517516	0.113544	-0.181805
N120	N	1.031592	-0.772590	-0.000040
H121	H	1.020444	-0.813682	-0.000046
H122	H	1.061895	-0.765201	-0.049187
H123	H	0.987415	0.006344	0.634302
H124	H	1.088546	-0.388805	-0.000025
N125	N	0.680078	-0.463870	-0.000026
H126	H	0.636817	-0.431678	-0.000024
H127	H	0.676677	-0.488204	-0.049176
H128	H	1.023889	-0.108669	0.000050
