data_functionalizedCrystal
_audit_creation_method	'MofGen! by Chris Wilmer'
_symmetry_space_group_name_H-M	'P1'
_symmetry_Int_Tables_number	1
_symmetry_cell_setting	triclinic
loop_
_symmetry_equiv_pos_as_xyz
  x,y,z
_cell_length_a	15.625950
_cell_length_b	27.731996
_cell_length_c	14.750779
_cell_angle_alpha	77.461457
_cell_angle_beta	120.090508
_cell_angle_gamma	83.475320
loop_
_atom_site_label
_atom_site_type_symbol
_atom_site_fract_x
_atom_site_fract_y
_atom_site_fract_z
O1	O	1.285978	0.014910	0.367663
O2	O	0.998736	0.035534	0.267703
O3	O	1.151310	-0.045549	0.320820
O4	O	1.133403	0.095994	0.314547
O5	O	1.194441	-0.068468	0.495485
O6	O	1.041867	0.012615	0.442369
O7	O	1.329108	-0.008009	0.542329
Zn8	Zn	1.192336	-0.001336	0.520081
Zn9	Zn	1.135509	0.028861	0.289951
O10	O	1.176534	0.073075	0.489212
C11	C	0.983565	0.025410	0.342252
C12	C	0.874102	0.029384	0.304160
C13	C	1.172509	-0.075002	0.408028
C14	C	1.171404	-0.128613	0.407654
C15	C	0.631520	-0.019970	0.654802
C16	C	0.528649	-0.016220	0.618959
C17	C	0.481680	0.008764	0.428564
C18	C	0.584549	0.005018	0.464390
C19	C	0.659462	-0.009349	0.577511
C20	C	0.612491	0.015639	0.387099
C21	C	0.715352	0.011891	0.422923
C22	C	0.790271	-0.002477	0.536039
C23	C	0.762323	-0.013097	0.613335
C24	C	0.537577	0.030003	0.273979
C25	C	0.565519	0.040623	0.196688
C26	C	0.668381	0.036879	0.232511
C27	C	0.743300	0.022511	0.345627
C28	C	0.696328	0.047499	0.155215
C29	C	0.799189	0.043751	0.191039
C30	C	0.846160	0.018763	0.381451
C31	C	1.140915	-0.448542	0.309968
C32	C	1.136705	-0.650024	0.308486
O33	O	1.116124	-0.665445	0.227309
N34	N	1.159693	-0.687712	0.403514
C35	C	1.183729	-0.675027	0.498916
O36	O	1.203175	-0.711706	0.579705
C37	C	1.187931	-0.473546	0.500394
C38	C	1.164951	-0.435860	0.405364
C39	C	1.117936	-0.410857	0.214945
C40	C	1.118994	-0.360490	0.215318
C41	C	1.143030	-0.347808	0.310714
C42	C	1.166009	-0.385493	0.405737
C43	C	1.211959	-0.460861	0.595793
C44	C	1.213005	-0.410486	0.596153
C45	C	1.190026	-0.372800	0.501123
C46	C	1.191104	-0.322444	0.501507
N47	N	1.168116	-0.284756	0.406479
C48	C	1.144079	-0.297438	0.311083
C49	C	1.181523	-0.780808	0.498134
C50	C	1.180475	-0.831178	0.497765
C51	C	1.133449	-0.806171	0.307334
C52	C	1.134505	-0.755800	0.307706
C53	C	1.158535	-0.743119	0.403106
C54	C	1.146303	-0.191665	0.311874
C55	C	1.147368	-0.141295	0.312257
C56	C	1.194388	-0.166307	0.502686
C57	C	1.193329	-0.216673	0.502305
C58	C	1.169281	-0.229349	0.406890
O59	O	1.211664	-0.306985	0.582638
O60	O	1.124614	-0.260750	0.230298
C61	C	1.139857	-0.498909	0.309594
C62	C	1.162836	-0.536593	0.404617
C63	C	1.186872	-0.523911	0.500014
C64	C	1.161787	-0.586964	0.404249
C65	C	1.137750	-0.599646	0.308852
C66	C	1.114762	-0.561957	0.213825
C67	C	1.115820	-0.511590	0.214198
C68	C	1.209860	-0.561600	0.595041
C69	C	1.208802	-0.611966	0.594661
C70	C	1.184765	-0.624648	0.499264
C71	C	1.344279	0.002115	0.467778
C72	C	1.453740	-0.001857	0.505863
C73	C	1.155335	0.102527	0.402001
C74	C	1.156438	0.156140	0.402369
N75	N	1.231125	-0.021945	0.677141
N76	N	1.096727	0.049466	0.132894
C77	C	0.988392	0.107003	0.944455
C78	C	1.015581	0.092564	1.054419
C79	C	1.150713	0.020788	1.101426
C80	C	1.123532	0.035219	0.991462
C81	C	1.042372	0.078327	0.912985
C82	C	1.177512	0.006543	0.959992
C83	C	1.150336	0.020975	0.850039
C84	C	1.069182	0.064083	0.771556
C85	C	1.015197	0.092759	0.803031
C86	C	1.258676	-0.036563	1.038473
C87	C	1.312656	-0.065238	1.007003
C88	C	1.285476	-0.050809	0.897047
C89	C	1.204321	-0.007701	0.818564
C90	C	1.339461	-0.079485	0.865571
C91	C	1.312286	-0.065053	0.755618
C92	C	1.177146	0.006731	0.708611
H93	H	0.874026	-0.005529	0.565205
H94	H	0.692518	-0.031662	0.746915
N95	N	1.238251	-0.025704	1.186072
H96	H	1.247278	-0.030495	1.260504
H97	H	1.222647	-0.056989	1.163087
N98	N	1.094205	-0.319850	0.112814
H99	H	1.144901	-0.329834	0.092415
H100	H	1.022568	-0.316500	0.049916
N101	N	1.207458	-0.767140	0.601045
H102	H	1.270099	-0.753473	0.626727
H103	H	1.147734	-0.740142	0.584100
N104	N	0.829330	0.055205	0.107676
H105	H	0.792715	0.091646	0.056871
H106	H	0.905869	0.050619	0.147619
N107	N	1.107536	-0.819845	0.204435
H108	H	1.044896	-0.833513	0.178742
H109	H	1.093190	-0.788305	0.144375
H110	H	1.098357	-0.421175	0.137256
H111	H	0.504513	0.052319	0.104585
N112	N	1.122546	-0.100637	0.209754
H113	H	1.183080	-0.085848	0.226928
H114	H	1.107119	-0.116341	0.149296
H115	H	0.823321	-0.024789	0.705448
H116	H	1.047060	0.075834	0.682027
N117	N	0.498517	-0.027679	0.702335
H118	H	0.561682	-0.037693	0.779457
H119	H	0.448961	0.003769	0.689160
N120	N	1.287985	-0.052127	1.157065
H121	H	1.280713	-0.087831	1.178752
H122	H	1.361405	-0.051526	1.206726
N123	N	1.236747	-0.501500	0.698292
H124	H	1.252125	-0.485813	0.758769
H125	H	1.176175	-0.516267	0.681004
H126	H	0.635321	0.059192	0.063113
N127	N	1.120395	-0.205337	0.208974
H128	H	1.106012	-0.173817	0.148846
H129	H	1.180105	-0.232363	0.225977
H130	H	0.949101	0.127859	0.739128
N131	N	1.089599	0.053223	0.623957
H132	H	1.105135	0.084539	0.646839
H133	H	1.080619	0.057966	0.549561
N134	N	0.400882	0.024255	0.306560
H135	H	0.331479	0.025016	0.295592
H136	H	0.400150	0.059384	0.268298
N137	N	1.238921	-0.396808	0.699050
H138	H	1.253317	-0.428328	0.759188
H139	H	1.301543	-0.383131	0.724643
N140	N	0.426635	0.034041	0.235339
H141	H	0.384179	0.070174	0.186371
H142	H	0.401191	0.009492	0.192338
H143	H	1.115791	-0.725119	0.230324
H144	H	1.199202	-0.861861	0.575154
H145	H	1.212050	-0.247359	0.579690
N146	N	1.088843	-0.575641	0.110934
H147	H	1.091663	-0.613269	0.125128
H148	H	1.017601	-0.554704	0.048135
H149	H	0.922297	0.142103	0.880551
N150	N	1.220322	-0.152624	0.605577
H151	H	1.217499	-0.114996	0.591384
H152	H	1.169244	-0.160210	0.625806
N153	N	1.091035	-0.470947	0.111701
H154	H	1.075649	-0.486632	0.051219
H155	H	1.029288	-0.442828	0.086415
N156	N	0.957364	0.123499	1.088366
H157	H	0.901830	0.152997	1.021964
H158	H	0.925335	0.100943	1.118934
H159	H	1.227524	-0.642648	0.672054
N160	N	1.400194	-0.111730	1.091649
H161	H	1.409221	-0.116521	1.166081
H162	H	1.384590	-0.143015	1.068664
N163	N	1.427005	-0.125974	0.950222
H164	H	1.436033	-0.130763	1.024653
H165	H	1.411409	-0.157261	0.927246
H166	H	1.356243	-0.088404	0.729997
H167	H	1.229436	-0.551281	0.672727
N168	N	0.926964	0.003274	0.503461
H169	H	0.927790	-0.031863	0.541807
H170	H	0.996320	0.002543	0.514326
