data_functionalizedCrystal
_audit_creation_method	'MofGen! by Chris Wilmer'
_symmetry_space_group_name_H-M	'P1'
_symmetry_Int_Tables_number	1
_symmetry_cell_setting	triclinic
loop_
_symmetry_equiv_pos_as_xyz
  x,y,z
_cell_length_a	27.732064
_cell_length_b	27.731996
_cell_length_c	22.010155
_cell_angle_alpha	89.998256
_cell_angle_beta	89.999243
_cell_angle_gamma	82.635407
loop_
_atom_site_label
_atom_site_type_symbol
_atom_site_fract_x
_atom_site_fract_y
_atom_site_fract_z
O1	O	0.640915	0.057550	-0.050424
O2	O	0.500121	0.066287	-0.050451
O3	O	0.574904	-0.008480	-0.050424
O4	O	0.566132	0.132317	-0.050452
O5	O	0.574890	-0.008468	0.050627
O6	O	0.500107	0.066298	0.050600
O7	O	0.640901	0.057561	0.050626
Cu8	Cu	0.570503	0.061931	0.059839
Cu9	Cu	0.570519	0.061918	-0.059664
O10	O	0.566118	0.132328	0.050599
C11	C	0.482107	0.066108	0.000071
C12	C	0.428453	0.065552	0.000062
C13	C	0.051389	0.017584	0.000106
C14	C	0.253049	0.019630	0.000090
O15	O	0.284309	-0.017592	0.000120
N16	N	0.272168	0.063966	0.000078
C17	C	0.240869	0.107793	0.000075
O18	O	0.261758	0.145549	0.000071
C19	C	0.039210	0.105746	0.000096
C20	C	0.020094	0.061407	0.000101
C21	C	0.032272	-0.026751	0.000112
C22	C	-0.018140	-0.027262	0.000113
C23	C	-0.049435	0.016562	0.000108
C24	C	-0.030318	0.060896	0.000102
C25	C	0.007912	0.149572	0.000096
C26	C	-0.042506	0.149057	0.000103
C27	C	-0.061622	0.104718	0.000108
C28	C	-0.112026	0.104209	0.000097
N29	N	-0.131145	0.059873	0.000109
C30	C	-0.099849	0.016050	0.000114
C31	C	0.346743	0.108864	0.000063
C32	C	0.397158	0.109376	0.000057
C33	C	0.409334	0.021213	0.000073
C34	C	0.358919	0.020702	0.000075
C35	C	0.327624	0.064529	0.000075
C36	C	-0.205719	0.014980	0.000115
C37	C	-0.256136	0.014473	0.000113
C38	C	-0.268308	0.102635	0.000100
C39	C	-0.217895	0.103142	0.000099
C40	C	-0.186601	0.059311	0.000108
O41	O	-0.143313	0.141411	0.000074
O42	O	-0.120748	-0.021702	0.000131
C43	C	0.101801	0.018095	0.000105
C44	C	0.120918	0.062430	0.000099
C45	C	0.089623	0.106253	0.000094
C46	C	0.171332	0.062941	0.000093
C47	C	0.202628	0.019118	0.000098
C48	C	0.183508	-0.025218	0.000110
C49	C	0.133096	-0.025729	0.000111
C50	C	0.108742	0.150589	0.000083
C51	C	0.159154	0.151096	0.000081
C52	C	0.190450	0.107273	0.000086
C53	C	0.574717	-0.026481	0.000104
C54	C	0.574174	-0.080138	0.000110
C55	C	0.570767	-0.412860	-0.055003
C56	C	0.568706	-0.614519	-0.055014
O57	O	0.568425	-0.640595	-0.101860
N58	N	0.568442	-0.639730	0.000068
C59	C	0.568691	-0.614523	0.055156
O60	O	0.568415	-0.640593	0.102007
C61	C	0.570748	-0.412865	0.055167
C62	C	0.571017	-0.387657	0.000081
C63	C	0.571034	-0.387653	-0.110084
C64	C	0.571552	-0.337241	-0.110081
C65	C	0.571802	-0.312038	-0.054997
C66	C	0.571535	-0.337246	0.000085
C67	C	0.570994	-0.387658	0.110255
C68	C	0.571507	-0.337240	0.110253
C69	C	0.571775	-0.312033	0.055167
C70	C	0.572303	-0.261631	0.055172
N71	N	0.572566	-0.236420	0.000090
C72	C	0.572316	-0.261624	-0.054994
C73	C	0.567612	-0.720396	0.055147
C74	C	0.567098	-0.770810	0.055145
C75	C	0.567112	-0.770803	-0.055026
C76	C	0.567629	-0.720388	-0.055023
C77	C	0.567875	-0.695185	0.000065
C78	C	0.573404	-0.155757	-0.054983
C79	C	0.573924	-0.105341	-0.054975
C80	C	0.573907	-0.105353	0.055196
C81	C	0.573390	-0.155764	0.055188
C82	C	0.573137	-0.180964	0.000094
O83	O	0.572578	-0.235524	0.101994
O84	O	0.572581	-0.235543	-0.101837
C85	C	0.570249	-0.463272	-0.055006
C86	C	0.569981	-0.488479	0.000075
C87	C	0.570231	-0.463276	0.055159
C88	C	0.569467	-0.538894	0.000072
C89	C	0.569217	-0.564097	-0.055012
C90	C	0.569481	-0.538886	-0.110094
C91	C	0.569999	-0.488475	-0.110091
C92	C	0.569968	-0.488487	0.110241
C93	C	0.569450	-0.538898	0.110233
C94	C	0.569200	-0.564102	0.055149
C95	C	0.658915	0.057740	0.000102
C96	C	0.712569	0.058296	0.000108
C97	C	0.566305	0.150330	0.000070
C98	C	0.566848	0.203986	0.000060
N99	N	0.570495	0.061940	0.143892
N100	N	0.570531	0.061905	-0.143717
C101	C	0.603635	0.028815	0.563683
C102	C	0.603637	0.028812	0.627291
O103	O	0.631794	0.000655	0.660193
N104	N	0.570519	0.061907	0.659099
C105	C	0.537393	0.095005	0.627296
O106	O	0.509223	0.123155	0.660192
C107	C	0.537389	0.095006	0.563690
C108	C	0.570512	0.061911	0.531885
C109	C	0.636755	-0.004277	0.531878
C110	C	0.636753	-0.004272	0.468275
C111	C	0.603631	0.028824	0.436477
C112	C	0.570511	0.061915	0.468282
C113	C	0.504261	0.128101	0.531888
C114	C	0.504259	0.128098	0.468278
C115	C	0.537383	0.095004	0.436473
C116	C	0.537386	0.095016	0.372880
N117	N	0.570505	0.061920	0.341072
C118	C	0.603627	0.028824	0.372870
C119	C	0.537404	0.095001	0.760874
C120	C	0.537410	0.095003	0.824479
C121	C	0.603653	0.028809	0.824470
C122	C	0.603649	0.028810	0.760863
C123	C	0.570522	0.061905	0.729066
C124	C	0.603621	0.028835	0.239299
C125	C	0.603618	0.028844	0.175690
C126	C	0.537372	0.095036	0.175706
C127	C	0.537377	0.095029	0.239309
C128	C	0.570503	0.061925	0.271104
O129	O	0.509242	0.123157	0.339938
O130	O	0.631788	0.000675	0.339967
H131	H	-0.293798	0.138315	0.000093
O132	O	0.312994	0.156139	0.000057
H133	H	0.289739	0.158026	0.041249
H134	H	0.630592	0.001894	0.149797
H135	H	0.343358	-0.015402	0.000080
O136	O	0.570243	-0.461313	0.169660
H137	H	0.537519	-0.433789	0.172305
H138	H	0.574113	-0.084823	0.100044
H139	H	0.630623	0.001860	0.850371
H140	H	0.663724	-0.031222	0.442383
O141	O	-0.197274	0.150963	0.000093
H142	H	-0.209870	0.172003	-0.041094
O143	O	0.468543	0.163814	0.566169
H144	H	0.430908	0.157919	0.553965
O145	O	0.672489	-0.039975	0.566163
H146	H	0.652335	-0.063342	0.595143
O147	O	0.468531	0.163797	0.433981
H148	H	0.445505	0.186810	0.466787
O149	O	0.570699	-0.414839	0.169669
H150	H	0.570952	-0.388835	0.207967
O151	O	0.028523	0.197394	0.000106
H152	H	-0.001716	0.227777	0.000116
O153	O	0.570764	-0.414834	-0.169500
H154	H	0.537569	-0.433244	-0.172148
O155	O	0.217269	-0.072485	0.000124
H156	H	0.240534	-0.074363	-0.041059
O157	O	0.574211	-0.078155	-0.114393
H158	H	0.574618	-0.038865	-0.105141
O159	O	0.569160	-0.566085	0.169651
H160	H	0.569416	-0.540084	0.207951
O161	O	0.573126	-0.182933	-0.114404
H162	H	0.573401	-0.156929	-0.152700
H163	H	0.569279	-0.559416	-0.154946
O164	O	0.501700	0.130712	0.858782
H165	H	0.478672	0.153727	0.825978
H166	H	0.630621	0.001861	0.734971
H167	H	0.510410	0.121982	0.265205
H168	H	0.566887	-0.791331	0.100001
O169	O	-0.076261	0.196328	0.000100
H170	H	-0.054494	0.227241	0.000090
O171	O	0.567911	-0.693204	-0.114439
H172	H	0.601104	-0.674790	-0.117075
O173	O	0.571778	-0.310061	0.169673
H174	H	0.539053	-0.282538	0.172309
O175	O	0.573102	-0.182958	0.114599
H176	H	0.573361	-0.156960	0.152903
O177	O	0.571829	-0.310053	-0.169495
H178	H	0.571560	-0.336054	-0.207793
H179	H	0.570217	-0.467955	-0.154947
O180	O	0.639356	-0.006864	0.273585
H181	H	0.633495	-0.044506	0.261369
H182	H	-0.271697	-0.021635	0.000116
O183	O	0.501678	0.130705	0.726579
H184	H	0.478656	0.153719	0.759388
H185	H	0.174713	0.187204	0.000073
H186	H	0.566909	-0.791332	-0.099878
O187	O	0.074993	0.197860	0.000073
H188	H	0.051735	0.199747	0.041262
O189	O	0.501636	0.130720	0.141404
H190	H	0.507195	0.125151	0.091832
H191	H	-0.033699	-0.063367	0.000120
O192	O	0.567888	-0.693216	0.114567
H193	H	0.567625	-0.719223	0.152863
H194	H	-0.180245	-0.020712	0.000122
O195	O	0.066024	-0.074022	0.000117
H196	H	0.044252	-0.104931	0.000119
H197	H	0.117537	-0.061833	0.000115
O198	O	0.443092	-0.026056	0.000087
H199	H	0.481359	-0.018246	0.000089
H200	H	0.412717	0.145480	0.000044
