data_functionalizedCrystal
_audit_creation_method	'MofGen! by Chris Wilmer'
_symmetry_space_group_name_H-M	'P1'
_symmetry_Int_Tables_number	1
_symmetry_cell_setting	triclinic
loop_
_symmetry_equiv_pos_as_xyz
  x,y,z
_cell_length_a	11.026607
_cell_length_b	19.188930
_cell_length_c	10.065875
_cell_angle_alpha	98.754308
_cell_angle_beta	79.302338
_cell_angle_gamma	95.865399
loop_
_atom_site_label
_atom_site_type_symbol
_atom_site_fract_x
_atom_site_fract_y
_atom_site_fract_z
O1	O	1.626420	0.284145	-0.113552
O2	O	1.273289	0.250876	-0.113547
O3	O	1.460041	0.167156	-0.113523
O4	O	1.439668	0.367866	-0.113576
O5	O	1.424429	0.183202	0.113461
O6	O	1.237678	0.266922	0.113437
O7	O	1.590808	0.300192	0.113432
Zn8	Zn	1.408589	0.286105	0.149473
Zn9	Zn	1.455509	0.264963	-0.149588
O10	O	1.404057	0.383912	0.113408
C11	C	1.210305	0.252761	-0.000054
C12	C	1.075688	0.234465	-0.000051
C13	C	1.001616	0.284984	-0.000065
C14	C	0.862482	0.266075	-0.000062
C15	C	1.441574	0.149084	-0.000027
C16	C	1.439591	0.071328	-0.000015
C17	C	1.549173	0.040370	-0.000010
C18	C	1.547315	-0.032693	-0.000032
C19	C	1.435865	-0.074793	-0.000031
C20	C	1.326271	-0.043828	-0.000044
C21	C	1.328134	0.029233	-0.000036
N22	N	1.338556	-0.188194	0.077217
N23	N	1.336793	-0.257598	0.077212
C24	C	1.430245	-0.294920	-0.000059
N25	N	1.525543	-0.260215	-0.077308
N26	N	1.527308	-0.190805	-0.077297
C27	C	1.433832	-0.154015	-0.000041
C28	C	1.537819	-0.405101	-0.000080
C29	C	1.535958	-0.478166	-0.000110
C30	C	1.314909	-0.489298	-0.000108
C31	C	1.316775	-0.416236	-0.000092
C32	C	1.428233	-0.374141	-0.000071
C33	C	1.653793	0.298306	-0.000064
C34	C	1.788412	0.316602	-0.000076
C35	C	1.422523	0.401983	-0.000091
C36	C	1.424508	0.479739	-0.000112
N37	N	1.376576	0.300534	0.353575
N38	N	1.487531	0.250529	-0.353689
C39	C	1.444363	0.269978	0.421362
C40	C	1.419734	0.281090	0.578527
H41	H	1.639931	0.074639	0.000002
H42	H	1.343457	0.315475	0.636838
N43	N	1.583213	0.207380	0.573198
N44	N	1.557204	0.153653	0.493465
H45	H	1.624783	0.123179	0.441837
H46	H	1.300304	0.334917	0.411891
H47	H	0.822903	0.208818	-0.000082
H48	H	1.041205	0.342235	-0.000072
N49	N	0.838072	0.388426	-0.000075
N50	N	0.951023	0.403688	-0.000068
H51	H	0.986098	0.454413	-0.000064
H52	H	1.036103	0.177212	-0.000071
H53	H	1.224166	-0.523576	-0.000114
H54	H	1.235528	-0.078110	-0.000047
N55	N	1.659265	-0.064315	-0.000028
N56	N	1.758769	-0.026723	-0.000013
H57	H	1.837835	-0.049053	-0.000009
H58	H	1.238897	0.054438	-0.000039
N59	N	1.651674	-0.362107	-0.000055
N60	N	1.749512	-0.389762	-0.000059
H61	H	1.829924	-0.359400	-0.000039
N62	N	1.204840	-0.384610	-0.000106
N63	N	1.145644	-0.403250	-0.095789
H64	H	1.066585	-0.380915	-0.095805
H65	H	1.625197	-0.503370	-0.000113
N66	N	1.540028	0.226835	0.348197
N67	N	1.559895	0.217867	0.220630
H68	H	1.627460	0.187395	0.168957
