data_functionalizedCrystal
_audit_creation_method	'MofGen! by Chris Wilmer'
_symmetry_space_group_name_H-M	'P1'
_symmetry_Int_Tables_number	1
_symmetry_cell_setting	triclinic
loop_
_symmetry_equiv_pos_as_xyz
  x,y,z
_cell_length_a	12.784890
_cell_length_b	12.837942
_cell_length_c	8.140239
_cell_angle_alpha	89.996939
_cell_angle_beta	89.998296
_cell_angle_gamma	83.967749
loop_
_atom_site_label
_atom_site_type_symbol
_atom_site_fract_x
_atom_site_fract_y
_atom_site_fract_z
O1	O	1.410967	0.006425	-0.136563
O2	O	1.105967	0.050420	-0.136577
O3	O	1.251704	-0.121871	-0.136560
O4	O	1.265230	0.178716	-0.136580
O5	O	1.251695	-0.121872	0.136667
O6	O	1.105958	0.050419	0.136650
O7	O	1.410958	0.006424	0.136664
Zn8	Zn	1.258456	0.028421	0.180038
Zn9	Zn	1.258468	0.028423	-0.179951
O10	O	1.265221	0.178715	0.136647
C11	C	1.066653	0.053280	0.000035
C12	C	0.949521	0.061794	0.000030
C13	C	1.247130	-0.160080	0.000052
C14	C	1.233502	-0.273929	0.000049
C15	C	0.781351	0.168495	0.000021
C16	C	0.891407	0.160502	0.000021
C17	C	0.897572	-0.028928	0.000033
C18	C	0.787516	-0.020935	0.000032
C19	C	0.729410	0.077780	0.000029
C20	C	0.619353	0.085771	0.000040
C21	C	0.625519	-0.103657	0.000040
C22	C	0.735575	-0.111650	0.000041
C23	C	1.397334	-0.529655	0.000022
C24	C	1.384534	-0.636627	0.000019
C25	C	1.195104	-0.594847	0.000027
C26	C	1.207904	-0.487875	0.000031
C27	C	1.309022	-0.455284	0.000031
C28	C	1.321821	-0.348309	0.000046
C29	C	1.132391	-0.306531	0.000042
C30	C	1.119592	-0.413503	0.000039
C31	C	1.450272	0.003563	0.000049
C32	C	1.567404	-0.004950	0.000043
C33	C	1.269795	0.216924	0.000031
C34	C	1.283422	0.330772	0.000024
N35	N	1.258456	0.028419	0.425720
N36	N	1.258476	0.028416	-0.425633
H37	H	0.572044	0.166150	0.000045
H38	H	0.933693	0.234372	0.000018
Cl39	Cl	1.524450	-0.488679	0.000063
H40	H	1.404156	-0.321777	0.000052
H41	H	1.456447	-0.697179	0.000007
H42	H	1.112778	-0.621402	0.000010
Cl43	Cl	0.970637	-0.153015	0.000033
H44	H	1.037264	-0.440054	0.000033
H45	H	1.060481	-0.245964	0.000062
Cl46	Cl	0.708300	0.292589	0.000045
H47	H	0.782900	-0.192020	0.000038
H48	H	0.583217	-0.177525	-0.000084
