data_functionalizedCrystal
_audit_creation_method	'MofGen! by Chris Wilmer'
_symmetry_space_group_name_H-M	'P1'
_symmetry_Int_Tables_number	1
_symmetry_cell_setting	triclinic
loop_
_symmetry_equiv_pos_as_xyz
  x,y,z
_cell_length_a	12.594517
_cell_length_b	12.594516
_cell_length_c	19.076919
_cell_angle_alpha	92.277239
_cell_angle_beta	92.279789
_cell_angle_gamma	90.015485
loop_
_atom_site_label
_atom_site_type_symbol
_atom_site_fract_x
_atom_site_fract_y
_atom_site_fract_z
Zn1	Zn	1.603046	-0.447962	-0.398002
Zn2	Zn	1.610099	-0.618806	-0.280319
Zn3	Zn	1.432212	-0.440840	-0.280318
Zn4	Zn	1.425034	-0.625896	-0.397972
O5	O	1.517598	-0.533376	-0.339153
O6	O	1.752926	-0.470639	-0.382404
O7	O	1.592457	-0.589251	-0.181830
O8	O	1.454926	-0.292840	-0.295941
O9	O	1.758108	-0.596157	-0.295943
O10	O	1.580437	-0.298072	-0.382403
O11	O	1.461764	-0.458500	-0.181829
O12	O	1.282315	-0.465375	-0.295912
O13	O	1.442692	-0.608240	-0.496465
O14	O	1.277041	-0.601334	-0.382352
O15	O	1.573477	-0.477513	-0.496487
O16	O	1.585497	-0.768692	-0.295914
O17	O	1.449531	-0.773900	-0.382353
C18	C	1.241058	-0.533352	-0.339129
C19	C	1.122752	-0.533368	-0.339136
C20	C	0.985566	-0.459348	-0.292229
C21	C	1.052517	-0.437325	-0.356452
C22	C	1.057373	-0.555343	-0.274920
C23	C	0.978912	-0.511342	-0.403445
C24	C	0.983765	-0.629402	-0.321869
C25	C	1.050680	-0.607419	-0.386137
C26	C	1.517528	-0.809917	-0.339146
C27	C	1.517594	-0.928223	-0.339167
C28	C	1.443638	-1.000346	-0.386148
C29	C	1.421612	-1.067300	-0.321926
C30	C	1.539716	-1.072069	-0.403400
C31	C	1.495520	-0.993617	-0.274910
C32	C	1.613666	-0.998382	-0.356428
C33	C	1.591681	-1.065302	-0.292161
C34	C	1.795217	-0.533401	-0.339177
C35	C	1.913522	-0.533412	-0.339187
C36	C	1.506497	-0.544462	-0.522728
C37	C	1.501767	-0.549185	-0.600956
C38	C	1.517695	-0.255757	-0.339175
C39	C	1.517737	-0.137452	-0.339185
C40	C	1.567633	-0.483345	-0.637721
C41	C	1.563176	-0.487780	-0.711225
C42	C	1.492856	-0.558061	-0.747963
C43	C	1.426982	-0.623904	-0.711194
C44	C	1.431435	-0.619463	-0.637691
C45	C	1.472232	-0.578635	-0.967792
C46	C	1.467786	-0.583073	-1.041300
C47	C	1.603979	-0.446948	-1.041326
C48	C	1.608430	-0.442518	-0.967822
C49	C	1.542552	-0.508356	-0.931058
N50	N	1.488300	-0.562598	-0.823096
N51	N	1.547103	-0.503813	-0.855927
C52	C	1.528716	-0.522257	-0.156292
C53	C	1.533653	-0.517233	-0.078064
H54	H	1.079163	-0.670037	-0.425872
O55	O	1.399404	-0.651197	-1.077062
C56	C	1.250624	-0.670483	-1.159994
C57	C	1.328010	-0.593224	-1.119552
H58	H	1.192868	-0.623641	-1.194346
H59	H	1.297314	-0.728216	-1.194456
H60	H	1.204354	-0.716793	-1.121076
H61	H	1.374300	-0.546843	-1.158420
H62	H	1.281260	-0.535560	-1.085080
H63	H	0.953510	-0.710572	-0.307220
H64	H	1.476773	-0.959413	-0.220581
H65	H	1.654287	-1.093718	-0.252393
O66	O	1.710448	-0.962251	-0.373984
C67	C	1.843143	-0.961349	-0.461539
C68	C	1.733515	-1.002325	-0.441742
H69	H	1.861837	-0.993750	-0.516315
H70	H	1.842386	-0.870800	-0.460902
H71	H	1.906405	-0.989221	-0.422025
H72	H	1.670192	-0.974531	-0.481236
H73	H	1.734361	-1.092870	-0.442356
H74	H	1.558369	-1.106400	-0.457714
O75	O	1.408340	-0.642740	-0.932125
C76	C	1.357873	-0.822418	-0.909662
C77	C	1.430326	-0.749944	-0.950084
H78	H	1.375608	-0.909106	-0.924178
H79	H	1.373113	-0.807272	-0.850806
H80	H	1.271197	-0.804516	-0.924112
H81	H	1.517027	-0.767803	-0.935693
H82	H	1.414996	-0.765103	-1.008930
H83	H	0.944703	-0.492679	-0.457789
O84	O	1.367343	-0.683274	-0.601948
C85	C	1.228700	-0.692580	-0.518915
C86	C	1.301209	-0.620190	-0.559358
H87	H	1.175228	-0.641607	-0.484461
H88	H	1.177606	-0.743554	-0.557771
H89	H	1.279650	-0.746186	-0.484536
H90	H	1.250341	-0.566520	-0.593738
H91	H	1.352309	-0.569289	-0.520465
O92	O	0.951153	-0.384684	-0.244949
C93	C	0.800366	-0.301605	-0.191621
C94	C	0.839198	-0.386219	-0.245170
H95	H	0.709847	-0.302803	-0.191792
H96	H	0.833878	-0.319503	-0.136968
H97	H	0.828635	-0.219808	-0.206494
H98	H	0.810942	-0.468049	-0.230362
H99	H	0.805695	-0.368229	-0.299808
O100	O	1.098214	-0.577376	-0.210054
C101	C	1.111583	-0.524154	-0.087287
C102	C	1.065248	-0.499103	-0.160705
H103	H	1.084967	-0.460874	-0.047371
H104	H	1.082114	-0.605366	-0.072104
H105	H	1.202046	-0.524735	-0.088045
H106	H	0.974786	-0.498464	-0.160003
H107	H	1.094801	-0.417909	-0.175859
O108	O	1.635798	-0.415013	-0.601960
C109	C	1.655182	-0.266248	-0.519028
C110	C	1.577873	-0.343588	-0.559466
H111	H	1.608379	-0.208468	-0.484673
H112	H	1.712895	-0.312973	-0.484570
H113	H	1.701510	-0.220002	-0.557949
H114	H	1.531473	-0.389854	-0.520596
H115	H	1.520230	-0.296804	-0.593934
O116	O	1.358522	-0.692060	-0.746847
C117	C	1.176096	-0.745112	-0.769274
C118	C	1.253505	-0.667835	-0.728869
H119	H	1.091176	-0.725568	-0.754743
H120	H	1.184135	-0.736979	-0.828132
H121	H	1.195688	-0.830058	-0.754822
H122	H	1.233964	-0.582857	-0.743262
H123	H	1.245453	-0.676061	-0.670020
H124	H	1.380991	-0.971727	-0.425820
O125	O	1.627270	-0.423787	-0.746829
C126	C	1.762789	-0.288265	-0.739098
C127	C	1.690276	-0.360699	-0.698690
H128	H	1.813731	-0.237224	-0.700196
H129	H	1.816409	-0.339167	-0.773495
H130	H	1.711844	-0.234726	-0.773526
H131	H	1.741138	-0.414251	-0.664224
H132	H	1.636650	-0.309734	-0.664337
O133	O	1.676618	-0.374075	-0.932182
C134	C	1.729725	-0.191659	-0.909790
C135	C	1.652415	-0.269058	-0.950174
H136	H	1.710199	-0.106738	-0.924333
H137	H	1.721610	-0.199676	-0.850928
H138	H	1.814660	-0.211278	-0.924250
H139	H	1.567448	-0.249488	-0.935773
H140	H	1.660623	-0.261026	-1.009026
O141	O	1.088552	-0.340393	-0.373791
C142	C	1.096307	-0.152757	-0.343963
C143	C	1.055457	-0.262473	-0.324244
H144	H	1.069548	-0.089726	-0.303924
H145	H	1.186802	-0.153837	-0.344242
H146	H	1.062750	-0.133477	-0.398360
H147	H	1.088936	-0.281821	-0.269843
H148	H	0.964961	-0.261337	-0.324014
O149	O	1.324842	-1.103638	-0.304492
C150	C	1.216787	-1.256563	-0.284436
C151	C	1.326438	-1.215558	-0.304165
H152	H	1.218034	-1.347055	-0.284180
H153	H	1.197350	-1.223067	-0.230053
H154	H	1.153769	-1.229914	-0.324523
H155	H	1.389527	-1.242193	-0.264125
H156	H	1.345784	-1.249046	-0.358565
H157	H	1.657611	-0.393344	-1.071266
