data_functionalizedCrystal
_audit_creation_method	'MofGen! by Chris Wilmer'
_symmetry_space_group_name_H-M	'P1'
_symmetry_Int_Tables_number	1
_symmetry_cell_setting	triclinic
loop_
_symmetry_equiv_pos_as_xyz
  x,y,z
_cell_length_a	12.645330
_cell_length_b	13.897449
_cell_length_c	13.897441
_cell_angle_alpha	90.026069
_cell_angle_beta	89.972699
_cell_angle_gamma	89.982380
loop_
_atom_site_label
_atom_site_type_symbol
_atom_site_fract_x
_atom_site_fract_y
_atom_site_fract_z
Zn1	Zn	-0.422008	-1.474703	-0.545541
Zn2	Zn	-0.599303	-1.474597	-0.384251
Zn3	Zn	-0.422054	-1.313392	-0.384244
Zn4	Zn	-0.599229	-1.313374	-0.545489
O5	O	-0.510648	-1.394016	-0.464881
O6	O	-0.445538	-1.609670	-0.524170
O7	O	-0.575841	-1.453176	-0.249269
O8	O	-0.273700	-1.334842	-0.405659
O9	O	-0.575796	-1.609592	-0.405671
O10	O	-0.273666	-1.453356	-0.524163
O11	O	-0.445617	-1.334739	-0.249263
O12	O	-0.445545	-1.178408	-0.405609
O13	O	-0.575670	-1.334811	-0.680477
O14	O	-0.575715	-1.178394	-0.524075
O15	O	-0.445466	-1.453339	-0.680515
O16	O	-0.747640	-1.453158	-0.405621
O17	O	-0.747586	-1.334708	-0.524082
C18	C	-0.510628	-1.143402	-0.464836
C19	C	-0.510644	-1.036188	-0.464839
C20	C	-0.510646	-0.949118	-0.464851
C21	C	-0.510652	-0.839886	-0.464876
C22	C	-0.786078	-1.393946	-0.464868
C23	C	-0.903908	-1.394004	-0.464894
C24	C	-1.071482	-1.319794	-0.539648
C25	C	-0.948923	-1.319415	-0.539407
C26	C	-0.948507	-1.366485	-0.363236
C27	C	-1.071105	-1.366032	-0.363690
C28	C	-1.070996	-1.496187	-0.490975
C29	C	-0.948389	-1.495561	-0.493197
C30	C	-0.234143	-1.394113	-0.464916
C31	C	-0.116313	-1.394154	-0.464931
C32	C	-0.510555	-1.394085	-0.716474
C33	C	-0.510515	-1.394114	-0.823688
C34	C	-0.510666	-0.645609	-0.464916
C35	C	-0.510662	-0.752823	-0.464900
C36	C	-0.510443	-1.394140	-1.019984
C37	C	-0.510486	-1.394122	-0.910751
C38	C	-0.510665	-1.394004	-0.214267
C39	C	-0.510407	-1.394161	-0.107053
H40	H	-1.100890	-1.336854	-0.615273
H41	H	-1.099798	-1.291445	-0.341628
H42	H	-1.102384	-1.244625	-0.522613
H43	H	-1.100765	-1.417842	-0.306121
H44	H	-0.919689	-1.243773	-0.522152
H45	H	-0.919351	-1.418928	-0.306045
C46	C	-0.908172	-1.342666	-0.641238
C47	C	-0.788416	-1.346866	-0.660967
C48	C	-0.747673	-1.370112	-0.762804
C49	C	-0.826685	-1.389158	-0.844912
C50	C	-0.946448	-1.384957	-0.825186
C51	C	-0.987192	-1.361712	-0.723349
H52	H	-0.729920	-1.332767	-0.600184
H53	H	-0.659015	-1.373221	-0.777407
H54	H	-0.796524	-1.406366	-0.920298
H55	H	-1.004945	-1.399056	-0.885969
H56	H	-1.075849	-1.358603	-0.708746
H57	H	-0.917897	-1.292676	-0.340776
C58	C	-1.112652	-1.530104	-0.589418
C59	C	-1.188363	-1.465577	-0.647418
C60	C	-1.230020	-1.499481	-0.745865
C61	C	-1.195966	-1.597913	-0.786311
C62	C	-1.120250	-1.662446	-0.728310
C63	C	-1.078593	-1.628542	-0.629863
H64	H	-1.213576	-1.392706	-0.617478
H65	H	-1.286070	-1.451709	-0.788801
H66	H	-1.226803	-1.623011	-0.859187
H67	H	-1.095037	-1.735317	-0.758250
H68	H	-1.022543	-1.676314	-0.586927
H69	H	-0.919235	-1.516314	-0.568012
H70	H	-0.917741	-1.553880	-0.442741
H71	H	-1.099987	-1.551587	-0.436555
