data_functionalizedCrystal
_audit_creation_method	'MofGen! by Chris Wilmer'
_symmetry_space_group_name_H-M	'P1'
_symmetry_Int_Tables_number	1
_symmetry_cell_setting	triclinic
loop_
_symmetry_equiv_pos_as_xyz
  x,y,z
_cell_length_a	19.077236
_cell_length_b	19.076808
_cell_length_c	19.077174
_cell_angle_alpha	89.936016
_cell_angle_beta	94.705718
_cell_angle_gamma	94.519737
loop_
_atom_site_label
_atom_site_type_symbol
_atom_site_fract_x
_atom_site_fract_y
_atom_site_fract_z
Zn1	Zn	1.083097	-0.254133	0.431322
Zn2	Zn	1.073544	-0.367296	0.308691
Zn3	Zn	0.960478	-0.254144	0.308705
Zn4	Zn	0.960056	-0.376336	0.421417
O5	O	1.019294	-0.312977	0.367534
O6	O	1.180642	-0.265356	0.419195
O7	O	1.054724	-0.348507	0.210201
O8	O	0.980919	-0.155645	0.329121
O9	O	1.173623	-0.348497	0.329098
O10	O	1.071006	-0.155637	0.419208
O11	O	0.971655	-0.265375	0.210211
O12	O	0.861610	-0.274140	0.319516
O13	O	0.980199	-0.363904	0.521222
O14	O	0.861300	-0.363914	0.402325
O15	O	1.070597	-0.274122	0.528500
O16	O	1.054314	-0.466992	0.319493
O17	O	0.970935	-0.473634	0.402312
C18	C	0.835835	-0.320010	0.359848
C19	C	0.757350	-0.323036	0.356576
C20	C	0.724132	-0.281245	0.402013
C21	C	0.650387	-0.284085	0.398932
C22	C	0.609862	-0.328720	0.350418
C23	C	0.643084	-0.370513	0.304976
C24	C	0.716827	-0.367669	0.308054
C25	C	0.388920	-0.341857	0.336174
C26	C	0.315171	-0.344699	0.333101
C27	C	0.322480	-0.258271	0.427057
C28	C	0.396225	-0.255434	0.430133
C29	C	0.429441	-0.297223	0.384688
N30	N	0.534482	-0.331626	0.347270
N31	N	0.504818	-0.294313	0.387834
C32	C	1.011562	-0.495852	0.359842
C33	C	1.008320	-0.574085	0.356578
C34	C	1.053668	-0.610777	0.401983
C35	C	1.050619	-0.684286	0.398917
C36	C	1.002224	-0.721100	0.350443
C37	C	0.956871	-0.684403	0.305036
C38	C	0.959918	-0.610896	0.308106
C39	C	0.988085	-0.940949	0.336231
C40	C	0.985043	-1.014461	0.333164
C41	C	1.078790	-1.014338	0.427046
C42	C	1.081835	-0.940830	0.430109
C43	C	1.036480	-0.904139	0.384705
N44	N	0.999108	-0.796238	0.347306
N45	N	1.039593	-0.829004	0.387845
C46	C	1.203469	-0.305917	0.375250
C47	C	1.281954	-0.302909	0.378538
C48	C	1.026416	-0.320020	0.551113
C49	C	1.029452	-0.323022	0.629344
C50	C	1.027075	-0.129388	0.375271
C51	C	1.030392	-0.051153	0.378568
C52	C	1.012241	-0.305909	0.184672
C53	C	1.009351	-0.302704	0.106456
C54	C	0.987630	-0.281150	0.666101
C55	C	0.990479	-0.283976	0.739607
C56	C	1.035154	-0.328670	0.776354
C57	C	1.076977	-0.370547	0.739591
C58	C	1.074124	-0.367724	0.666086
C59	C	1.048321	-0.341758	0.996188
C60	C	1.051173	-0.344576	1.069698
C61	C	0.964674	-0.258005	1.069709
C62	C	0.961828	-0.255183	0.996203
C63	C	1.003648	-0.297062	0.959447
N64	N	1.038069	-0.331559	0.851489
N65	N	1.000729	-0.294177	0.884313
H66	H	0.429216	-0.219090	0.469641
H67	H	1.093079	-0.580807	0.441453
C68	C	0.938486	-0.231984	0.625683
C69	C	0.879795	-0.262669	0.571542
C70	C	0.830647	-0.213504	0.531127
C71	C	0.840190	-0.133655	0.544852
C72	C	0.898883	-0.102967	0.598996
C73	C	0.948031	-0.152132	0.639412
H74	H	0.872728	-0.321781	0.561379
H75	H	0.787198	-0.236222	0.491046
H76	H	0.803808	-0.097261	0.514934
H77	H	0.905950	-0.043854	0.609159
H78	H	0.991480	-0.129414	0.679493
C79	C	0.944479	-0.237909	0.780038
C80	C	0.863572	-0.246328	0.766322
C81	C	0.817569	-0.200257	0.806750
C82	C	0.852475	-0.145766	0.860895
C83	C	0.933387	-0.137344	0.874613
C84	C	0.979389	-0.183415	0.834185
H85	H	0.837729	-0.286668	0.726238
H86	H	0.757673	-0.206492	0.796595
H87	H	0.818421	-0.111662	0.890823
H88	H	0.959230	-0.097004	0.914696
H89	H	1.039285	-0.177180	0.844340
C90	C	0.425448	-0.387831	0.286189
C91	C	0.475276	-0.353178	0.234374
C92	C	0.511806	-0.399156	0.184387
C93	C	0.498507	-0.479787	0.186215
C94	C	0.448677	-0.514444	0.238032
C95	C	0.412147	-0.468466	0.288019
H96	H	0.485123	-0.293487	0.233019
H97	H	0.548694	-0.373500	0.146029
H98	H	0.525549	-0.513823	0.149211
H99	H	0.438830	-0.574135	0.239386
H100	H	0.375259	-0.494122	0.326377
H101	H	0.757124	-0.244901	0.441520
H102	H	0.930625	-0.223910	1.099644
C103	C	1.100509	-0.724642	0.448862
C104	C	1.180985	-0.711164	0.446962
C105	C	1.230878	-0.751518	0.496910
C106	C	1.200294	-0.805351	0.548758
C107	C	1.119814	-0.818832	0.550660
C108	C	1.069921	-0.778477	0.500712
H109	H	1.203629	-0.671312	0.408579
H110	H	1.290456	-0.741539	0.495502
H111	H	1.237228	-0.835224	0.585733
H112	H	1.097170	-0.858684	0.589043
H113	H	1.010343	-0.788457	0.502120
C114	C	1.120124	-0.413788	0.625650
C115	C	1.116981	-0.410692	0.544797
C116	C	1.162977	-0.456762	0.504361
C117	C	1.212117	-0.505929	0.544777
C118	C	1.215262	-0.509027	0.625634
C119	C	1.169266	-0.462956	0.666071
H120	H	1.080603	-0.374294	0.514874
H121	H	1.160649	-0.454469	0.444505
H122	H	1.246166	-0.540033	0.514844
H123	H	1.251639	-0.545425	0.655557
H124	H	1.171594	-0.465250	0.725927
H125	H	0.623345	-0.250056	0.435933
H126	H	0.610082	-0.406852	0.265471
H127	H	0.295427	-0.224247	0.464054
H128	H	1.121242	-0.910857	0.469580
H129	H	1.115715	-1.044220	0.464012
C130	C	0.753370	-0.413640	0.258073
C131	C	0.708796	-0.462739	0.204708
C132	C	0.745338	-0.508709	0.154723
C133	C	0.826452	-0.505579	0.158102
C134	C	0.871031	-0.456478	0.211469
C135	C	0.834489	-0.410509	0.261455
H136	H	0.648746	-0.465058	0.202204
H137	H	0.712337	-0.545057	0.115217
H138	H	0.853502	-0.539609	0.121100
H139	H	0.931081	-0.454160	0.213973
H140	H	0.867489	-0.374161	0.300960
C141	C	1.100292	-0.393760	1.110133
C142	C	1.090710	-0.473609	1.096418
C143	C	1.139817	-0.522796	1.136859
C144	C	1.198504	-0.492133	1.191015
C145	C	1.208088	-0.412279	1.204732
C146	C	1.158982	-0.363093	1.164291
H147	H	1.047264	-0.496312	1.056327
H148	H	1.132722	-0.581909	1.126704
H149	H	1.234856	-0.528543	1.220952
H150	H	1.251535	-0.389577	1.244824
H151	H	1.166077	-0.303980	1.174446
C152	C	0.931809	-1.054963	0.279838
C153	C	0.934950	-1.041586	0.200495
C154	C	0.881723	-1.082090	0.147170
C155	C	0.825357	-1.135971	0.173187
C156	C	0.822215	-1.149350	0.252534
C157	C	0.875441	-1.108846	0.305859
H158	H	0.976677	-1.001699	0.181232
H159	H	0.884050	-1.072186	0.088432
H160	H	0.785956	-1.165954	0.133713
H161	H	0.780487	-1.189238	0.271797
H162	H	0.873115	-1.118750	0.364597
H163	H	0.282177	-0.381050	0.293594
H164	H	0.951156	-0.911081	0.299260
H165	H	0.917465	-0.714384	0.265570
H166	H	0.925447	-0.218790	0.966289
H167	H	0.922989	-0.581022	0.271133
C168	C	1.094342	-0.387817	0.955778
C169	C	1.175247	-0.379367	0.969513
C170	C	1.221279	-0.425428	0.929108
C171	C	1.186405	-0.479938	0.874967
C172	C	1.105495	-0.488391	0.861229
C173	C	1.059464	-0.442330	0.901635
H174	H	1.201067	-0.339013	1.009594
H175	H	1.281173	-0.419170	0.939277
H176	H	1.220480	-0.514035	0.845056
H177	H	1.079676	-0.528745	0.821149
H178	H	0.999570	-0.448588	0.891466
H179	H	1.113348	-0.406942	0.769516
