data_functionalizedCrystal
_audit_creation_method	'MofGen! by Chris Wilmer'
_symmetry_space_group_name_H-M	'P1'
_symmetry_Int_Tables_number	1
_symmetry_cell_setting	triclinic
loop_
_symmetry_equiv_pos_as_xyz
  x,y,z
_cell_length_a	19.188925
_cell_length_b	19.188930
_cell_length_c	16.776229
_cell_angle_alpha	90.011775
_cell_angle_beta	90.008094
_cell_angle_gamma	83.143665
loop_
_atom_site_label
_atom_site_type_symbol
_atom_site_fract_x
_atom_site_fract_y
_atom_site_fract_z
O1	O	0.926150	0.087151	0.066314
O2	O	1.426150	0.587151	0.566314
O3	O	0.722838	0.098889	0.066313
O4	O	1.222838	0.598889	0.566313
O5	O	0.830361	-0.008636	0.066298
O6	O	1.330361	0.491364	0.566298
O7	O	0.818627	0.194676	0.066329
O8	O	1.318627	0.694676	0.566329
O9	O	0.830347	-0.008642	-0.066278
O10	O	1.330347	0.491358	0.433722
O11	O	0.722824	0.098883	-0.066263
O12	O	1.222824	0.598883	0.433737
O13	O	0.926135	0.087145	-0.066262
O14	O	1.426135	0.587145	0.433738
Zn15	Zn	0.824477	0.093013	-0.087312
Zn16	Zn	1.324477	0.593013	0.412688
Zn17	Zn	0.824496	0.093021	0.087363
Zn18	Zn	1.324496	0.593021	0.587363
O19	O	0.818612	0.194669	-0.066247
O20	O	1.318612	0.694669	0.433753
C21	C	0.696820	0.098507	0.000025
C22	C	1.196820	0.598507	0.500025
C23	C	0.619315	0.097367	0.000024
C24	C	1.119315	0.597367	0.500024
C25	C	0.057545	0.152831	0.000034
C26	C	0.557545	0.652831	0.500034
C27	C	0.130368	0.153908	0.000038
C28	C	0.630368	0.653908	0.500038
C29	C	0.175302	0.090816	0.000027
C30	C	0.675302	0.590816	0.500027
C31	C	0.147408	0.026642	0.000032
C32	C	0.647408	0.526642	0.500032
C33	C	0.074586	0.025568	0.000036
C34	C	0.574586	0.525568	0.500036
N35	N	0.295975	0.045137	-0.045110
N36	N	0.795975	0.545137	0.454890
N37	N	0.365152	0.046163	-0.045115
N38	N	0.865152	0.546163	0.454885
C39	C	0.394712	0.094050	0.000018
C40	C	0.894712	0.594050	0.500018
N41	N	0.352479	0.140884	0.045147
N42	N	0.852479	0.640884	0.545147
N43	N	0.283295	0.139861	0.045148
N44	N	0.783295	0.639861	0.545148
C45	C	0.254267	0.091974	0.000024
C46	C	0.754267	0.591974	0.500024
C47	C	0.501561	0.159386	0.000024
C48	C	1.001561	0.659386	0.500024
C49	C	0.574385	0.160460	0.000033
C50	C	1.074385	0.660460	0.500033
C51	C	0.591425	0.033193	0.000019
C52	C	1.091425	0.533193	0.500019
C53	C	0.518601	0.032121	0.000018
C54	C	1.018601	0.532121	0.500018
C55	C	0.473673	0.095220	0.000016
C56	C	0.973673	0.595220	0.500016
C57	C	0.829974	-0.034650	0.000008
C58	C	1.329974	0.465350	0.500008
C59	C	0.828833	-0.112154	0.000001
C60	C	1.328833	0.387846	0.500001
C61	C	0.891924	-0.157079	-0.000003
C62	C	1.391924	0.342921	0.499997
C63	C	0.890852	-0.229903	0.000010
C64	C	1.390852	0.270097	0.500010
C65	C	0.826686	-0.257799	0.000010
C66	C	1.326686	0.242201	0.500010
C67	C	0.763587	-0.212864	0.000018
C68	C	1.263587	0.287136	0.500018
C69	C	0.764660	-0.140041	0.000014
C70	C	1.264660	0.359959	0.500014
N71	N	0.777634	-0.365805	-0.045108
N72	N	1.277634	0.134195	0.454892
N73	N	0.776618	-0.434983	-0.045105
N74	N	1.276618	0.065017	0.454895
C75	C	0.823448	-0.477207	0.000026
C76	C	1.323448	0.022793	0.500026
N77	N	0.871342	-0.447640	0.045145
N78	N	1.371342	0.052360	0.545145
N79	N	0.872360	-0.378456	0.045139
N80	N	1.372360	0.121544	0.545139
C81	C	0.825515	-0.336761	0.000016
C82	C	1.325515	0.163239	0.500016
C83	C	0.885381	-0.601097	0.000038
C84	C	1.385381	-0.101097	0.500038
C85	C	0.884307	-0.673922	0.000056
C86	C	1.384307	-0.173922	0.500056
C87	C	0.757040	-0.656880	0.000056
C88	C	1.257040	-0.156880	0.500056
C89	C	0.758116	-0.584057	0.000046
C90	C	1.258116	-0.084057	0.500046
C91	C	0.822289	-0.556170	0.000033
C92	C	1.322289	-0.056170	0.500033
C93	C	0.952154	0.087527	0.000028
C94	C	1.452154	0.587527	0.500028
C95	C	1.029658	0.088666	0.000034
C96	C	1.529658	0.588666	0.500034
C97	C	0.819000	0.220684	0.000045
C98	C	1.319000	0.720684	0.500045
C99	C	0.820140	0.298188	0.000057
C100	C	1.320140	0.798188	0.500057
N101	N	0.824470	0.093006	-0.206523
N102	N	1.324470	0.593006	0.293477
C103	C	0.872095	0.045414	-0.248247
C104	C	1.372095	0.545414	0.251753
C105	C	0.872099	0.045413	-0.331699
C106	C	1.372099	0.545413	0.168301
C107	C	0.824480	0.093009	-0.373426
C108	C	1.324480	0.593009	0.126574
C109	C	0.776849	0.140604	-0.331697
C110	C	1.276849	0.640604	0.168303
C111	C	0.776843	0.140601	-0.248246
C112	C	1.276843	0.640601	0.251754
C113	C	0.776875	0.140617	-0.668244
C114	C	1.276875	0.640617	-0.168244
C115	C	0.776886	0.140618	-0.751700
C116	C	1.276886	0.640618	-0.251700
C117	C	0.872131	0.045430	-0.751697
C118	C	1.372131	0.545430	-0.251697
C119	C	0.872124	0.045427	-0.668246
C120	C	1.372124	0.545427	-0.168246
C121	C	0.824492	0.093019	-0.626524
C122	C	1.324492	0.593019	-0.126524
C123	C	0.824487	0.093018	-0.536036
C124	C	1.324487	0.593018	-0.036036
C125	C	0.824487	0.093014	-0.463913
C126	C	1.324487	0.593014	0.036087
N127	N	0.824509	0.093022	0.206574
N128	N	1.324509	0.593022	0.706574
H129	H	0.051883	-0.026685	0.000036
H130	H	0.551883	0.473315	0.500036
H131	H	0.597088	0.212713	0.000040
H132	H	1.097088	0.712713	0.500040
O133	O	0.488524	-0.037090	0.000003
O134	O	0.988524	0.462910	0.500003
H135	H	0.455766	-0.040626	0.054043
H136	H	0.955766	0.459374	0.554043
O137	O	0.725463	0.191924	-0.203244
O138	O	1.225463	0.691924	0.296756
H139	H	0.733448	0.183917	-0.138206
H140	H	1.233448	0.683917	0.361794
H141	H	0.944179	-0.134379	-0.000010
H142	H	1.444179	0.365621	0.499990
H143	H	0.910914	0.006676	-0.785676
H144	H	1.410914	0.506676	-0.285676
H145	H	0.937635	-0.578390	0.000031
H146	H	1.437635	-0.078390	0.500031
O147	O	0.725509	0.191952	-0.623247
O148	O	1.225509	0.691952	-0.123247
H149	H	0.692405	0.225054	-0.666285
H150	H	1.192405	0.725054	-0.166285
H151	H	0.935686	-0.710500	0.000057
H152	H	1.435686	-0.210500	0.500057
O153	O	0.690063	-0.535602	0.000035
O154	O	1.190063	-0.035602	0.500035
H155	H	0.687507	-0.502007	0.054071
H156	H	1.187507	-0.002007	0.554071
H157	H	0.020968	0.204211	0.000037
H158	H	0.520968	0.704211	0.500037
H159	H	0.183999	-0.024728	0.000026
H160	H	0.683999	0.475272	0.500026
O161	O	0.958903	-0.278371	-0.000008
O162	O	1.458903	0.221629	0.499992
H163	H	0.989641	-0.268473	0.054018
H164	H	1.489641	0.231527	0.554018
O165	O	0.160459	0.223116	0.000026
O166	O	0.660459	0.723116	0.500026
H167	H	0.116984	0.266811	0.000019
H168	H	0.616984	0.766811	0.500019
H169	H	0.464978	0.210765	0.000024
H170	H	0.964978	0.710765	0.500024
O171	O	0.694376	-0.242944	0.000010
O172	O	1.194376	0.257056	0.500010
H173	H	0.704229	-0.301130	0.000001
H174	H	1.204229	0.198870	0.500001
O175	O	0.923469	-0.005921	-0.376698
O176	O	1.423469	0.494079	0.123302
H177	H	0.915469	0.002069	-0.441736
H178	H	1.415469	0.502069	0.058264
H179	H	0.738074	0.179355	-0.365676
H180	H	1.238074	0.679355	0.134324
O181	O	0.923453	-0.005925	-0.203242
O182	O	1.423453	0.494075	0.296758
H183	H	0.956565	-0.039024	-0.246279
H184	H	1.456565	0.460976	0.253721
O185	O	0.923480	-0.005912	-0.623239
O186	O	1.423480	0.494088	-0.123239
H187	H	0.956594	-0.039013	-0.666273
H188	H	1.456594	0.460987	-0.166273
O189	O	0.725535	0.191966	-0.796711
O190	O	1.225535	0.691966	-0.296711
H191	H	0.692411	0.225061	-0.753680
H192	H	1.192411	0.725061	-0.253680
O193	O	0.687830	-0.686957	0.000050
O194	O	1.187830	-0.186957	0.500050
H195	H	0.684302	-0.719720	0.054085
H196	H	1.184302	-0.219720	0.554085
O197	O	0.639880	-0.034859	0.000001
O198	O	1.139880	0.465141	0.500001
H199	H	0.673478	-0.037410	0.054031
H200	H	1.173478	0.462590	0.554031
O201	O	0.696610	-0.091579	0.000004
O202	O	1.196610	0.408421	0.500004
H203	H	0.651809	-0.123207	0.000000
H204	H	1.151809	0.376793	0.500000
