data_functionalizedCrystal
_audit_creation_method	'MofGen! by Chris Wilmer'
_symmetry_space_group_name_H-M	'P1'
_symmetry_Int_Tables_number	1
_symmetry_cell_setting	triclinic
loop_
_symmetry_equiv_pos_as_xyz
  x,y,z
_cell_length_a	10.654550
_cell_length_b	14.519709
_cell_length_c	9.130313
_cell_angle_alpha	89.997798
_cell_angle_beta	89.996220
_cell_angle_gamma	84.082524
loop_
_atom_site_label
_atom_site_type_symbol
_atom_site_fract_x
_atom_site_fract_y
_atom_site_fract_z
O1	O	1.666589	0.129528	-0.121923
O2	O	1.300991	0.141869	-0.121900
O3	O	1.493483	0.001510	-0.121899
O4	O	1.474097	0.269887	-0.121924
O5	O	1.493481	0.001514	0.121700
O6	O	1.300989	0.141873	0.121699
O7	O	1.666586	0.129532	0.121676
Cu8	Cu	1.483787	0.135703	0.143930
Cu9	Cu	1.483790	0.135698	-0.144154
O10	O	1.474094	0.269891	0.121675
C11	C	1.254201	0.140965	-0.000098
C12	C	1.114784	0.138254	-0.000088
C13	C	1.034504	0.220895	-0.000117
C14	C	0.903507	0.218342	-0.000143
C15	C	0.933085	0.050500	-0.000116
C16	C	1.064078	0.053054	-0.000080
C17	C	1.017426	0.317797	-0.000139
C18	C	0.886430	0.315244	-0.000164
C19	C	1.492579	-0.032852	-0.000099
C20	C	1.489871	-0.135247	-0.000098
C21	C	1.479904	-0.510195	-0.000136
C22	C	1.482672	-0.405873	-0.000125
C23	C	1.484887	-0.322725	-0.000116
C24	C	1.487656	-0.218396	-0.000108
C25	C	1.713377	0.130436	-0.000130
C26	C	1.852794	0.133147	-0.000149
C27	C	1.474999	0.304253	-0.000128
C28	C	1.477707	0.406648	-0.000139
N29	N	1.483795	0.135705	0.346552
N30	N	1.483793	0.135688	-0.346777
C31	C	1.569052	0.073576	0.423205
C32	C	1.569048	0.073565	0.576542
C33	C	1.398527	0.197821	0.576560
C34	C	1.398525	0.197827	0.423226
C35	C	1.667505	0.001840	0.423195
C36	C	1.667502	0.001829	0.576532
H37	H	1.052786	0.348651	-0.105314
H38	H	1.758473	0.024302	0.375629
N39	N	1.055819	0.367991	0.134896
H40	H	1.098655	0.423947	0.104848
H41	H	0.978415	0.388487	0.195082
H42	H	0.844347	0.351754	-0.102121
N43	N	0.878389	-0.041389	-0.000128
H44	H	0.949128	-0.093354	-0.000106
H45	H	0.824663	-0.046103	0.090166
N46	N	1.306556	0.264837	0.340566
H47	H	1.354619	0.306008	0.276943
H48	H	1.250901	0.229147	0.277039
N49	N	0.825559	0.354032	0.139140
H50	H	0.843073	0.420666	0.151123
H51	H	0.731454	0.350675	0.133954
H52	H	1.129439	-0.014241	-0.000035
N53	N	1.795127	0.022767	0.631668
H54	H	1.833681	-0.030681	0.693124
H55	H	1.851987	0.032142	0.545599
N56	N	1.306558	0.264818	0.659258
H57	H	1.319491	0.255386	0.768027
H58	H	1.321201	0.330346	0.632463
N59	N	1.640009	-0.092051	0.368057
H60	H	1.627731	-0.133953	0.454050
H61	H	1.560805	-0.085083	0.306568
N62	N	1.627973	-0.086909	0.639530
H63	H	1.539797	-0.095599	0.605405
H64	H	1.688307	-0.140843	0.605356
