data_functionalizedCrystal
_audit_creation_method	'MofGen! by Chris Wilmer'
_symmetry_space_group_name_H-M	'P1'
_symmetry_Int_Tables_number	1
_symmetry_cell_setting	triclinic
loop_
_symmetry_equiv_pos_as_xyz
  x,y,z
_cell_length_a	10.654550
_cell_length_b	14.421503
_cell_length_c	10.654550
_cell_angle_alpha	89.995515
_cell_angle_beta	84.484931
_cell_angle_gamma	90.004464
loop_
_atom_site_label
_atom_site_type_symbol
_atom_site_fract_x
_atom_site_fract_y
_atom_site_fract_z
O1	O	1.667849	0.077042	0.176382
O2	O	1.302370	0.077059	0.193188
O3	O	1.493512	0.077044	0.002046
O4	O	1.476706	0.077057	0.367524
O5	O	1.493481	-0.077179	0.002074
O6	O	1.302339	-0.077164	0.193216
O7	O	1.667817	-0.077181	0.176410
Cu8	Cu	1.485075	-0.091255	0.184816
Cu9	Cu	1.485112	0.091133	0.184782
O10	O	1.476675	-0.077167	0.367552
C11	C	1.255556	-0.000050	0.191968
C12	C	1.116113	-0.000044	0.188276
C13	C	1.036628	-0.000043	0.300818
C14	C	0.905607	-0.000059	0.297341
C15	C	0.933570	-0.000074	0.068772
C16	C	1.064588	-0.000064	0.072250
N17	N	1.485058	-0.219536	0.184839
C18	C	1.396657	-0.469183	0.273183
C19	C	1.510354	-0.530990	0.298548
C20	C	1.485088	-0.408697	0.184809
C21	C	1.371421	-0.530984	0.159474
C22	C	1.485107	-0.591419	0.184783
C23	C	1.598843	-0.469143	0.210231
C24	C	1.459834	-0.469132	0.071107
C25	C	1.573612	-0.530912	0.096424
C26	C	1.485075	-0.303436	0.184827
C27	C	1.485133	-0.696678	0.184764
C28	C	1.714631	-0.000070	0.177630
C29	C	1.854074	-0.000070	0.181322
C30	C	1.492263	-0.000067	-0.044738
C31	C	1.488571	-0.000065	-0.184181
N32	N	1.485139	0.219414	0.184749
C33	C	1.601112	-0.000070	-0.263667
C34	C	1.597636	-0.000059	-0.394688
C35	C	1.369066	-0.000041	-0.366725
C36	C	1.372544	-0.000046	-0.235706
C37	C	1.477925	-0.000053	0.414336
C38	C	1.481616	-0.000049	0.553779
H39	H	1.129309	-0.000068	-0.019401
H40	H	1.321952	-0.442079	0.347979
H41	H	0.840894	-0.000060	0.388984
Cl42	Cl	1.543363	-0.572941	0.446983
Cl43	Cl	1.426773	-0.427146	-0.077286
H44	H	1.689279	-0.000061	-0.459401
Cl45	Cl	1.101397	-0.000023	0.446679
H46	H	0.891602	-0.000096	-0.025693
Cl47	Cl	1.746974	-0.000092	-0.198897
Cl48	Cl	1.747304	-0.427387	0.243472
Cl49	Cl	1.689206	-0.572503	-0.018981
Cl50	Cl	1.222998	-0.572926	0.126404
H51	H	1.274601	-0.000027	-0.408693
H52	H	1.280893	-0.000039	-0.170985
