data_functionalizedCrystal
_audit_creation_method	'MofGen! by Chris Wilmer'
_symmetry_space_group_name_H-M	'P1'
_symmetry_Int_Tables_number	1
_symmetry_cell_setting	triclinic
loop_
_symmetry_equiv_pos_as_xyz
  x,y,z
_cell_length_a	23.532407
_cell_length_b	15.995350
_cell_length_c	15.072220
_cell_angle_alpha	89.998899
_cell_angle_beta	89.985073
_cell_angle_gamma	96.829474
loop_
_atom_site_label
_atom_site_type_symbol
_atom_site_fract_x
_atom_site_fract_y
_atom_site_fract_z
O1	O	0.755658	-0.101636	-0.073828
O2	O	1.255658	0.398364	0.426172
O3	O	0.589851	-0.116342	-0.073818
O4	O	1.089851	0.383658	0.426182
O5	O	0.677287	0.012936	-0.073823
O6	O	1.177287	0.512936	0.426177
O7	O	0.668222	-0.230914	-0.073824
O8	O	1.168222	0.269086	0.426176
O9	O	0.677265	0.012929	0.073742
O10	O	1.177265	0.512929	0.573742
O11	O	0.589829	-0.116350	0.073747
O12	O	1.089829	0.383650	0.573747
O13	O	0.755636	-0.101643	0.073737
O14	O	1.255636	0.398357	0.573737
Zn15	Zn	0.672729	-0.108997	0.097171
Zn16	Zn	1.172729	0.391003	0.597171
Zn17	Zn	0.672758	-0.108988	-0.097253
Zn18	Zn	1.172758	0.391012	0.402747
O19	O	0.668200	-0.230922	0.073741
O20	O	1.168200	0.269078	0.573741
C21	C	0.676901	0.044124	-0.000042
C22	C	1.176901	0.544124	0.499958
C23	C	0.675778	0.137065	-0.000047
C24	C	1.175778	0.637065	0.499953
C25	C	0.568623	-0.115971	-0.000035
C26	C	1.068623	0.384029	0.499965
C27	C	0.505401	-0.114846	-0.000031
C28	C	1.005401	0.385154	0.499969
C29	C	0.776864	-0.102014	-0.000049
C30	C	1.276864	0.397986	0.499951
C31	C	0.840086	-0.103140	-0.000058
C32	C	1.340086	0.396860	0.499942
C33	C	1.238922	-0.033698	-0.000027
C34	C	1.738922	0.466302	0.499973
C35	C	1.298326	-0.034744	-0.000023
C36	C	1.798326	0.465256	0.499977
O37	O	1.334823	0.029630	0.000009
O38	O	1.834823	0.529630	0.500009
N39	N	1.321248	-0.111600	-0.000026
N40	N	1.821248	0.388400	0.499974
C41	C	1.284762	-0.187415	-0.000024
C42	C	1.784762	0.312585	0.499976
O43	O	1.309713	-0.252883	-0.000025
O44	O	1.809713	0.247117	0.499975
C45	C	1.225359	-0.186368	-0.000022
C46	C	1.725359	0.313632	0.499978
C47	C	1.202440	-0.109507	-0.000028
C48	C	1.702440	0.390493	0.499972
C49	C	1.216003	0.043157	-0.000032
C50	C	1.716003	0.543157	0.499968
C51	C	1.156602	0.044203	-0.000038
C52	C	1.656602	0.544203	0.499962
C53	C	1.120121	-0.031606	-0.000038
C54	C	1.620121	0.468394	0.499962
C55	C	1.143040	-0.108461	-0.000033
C56	C	1.643040	0.391539	0.499967
C57	C	1.188874	-0.262182	-0.000013
C58	C	1.688874	0.237818	0.499987
C59	C	1.129468	-0.261129	-0.000010
C60	C	1.629468	0.238871	0.499990
C61	C	1.106549	-0.184268	-0.000016
C62	C	1.606549	0.315732	0.499984
C63	C	1.047159	-0.183225	-0.000039
C64	C	1.547159	0.316775	0.499961
N65	N	1.024237	-0.106369	-0.000036
N66	N	1.524237	0.393631	0.499964
C67	C	1.060718	-0.030560	-0.000036
C68	C	1.560718	0.469440	0.499964
C69	C	1.409513	-0.189607	-0.000028
C70	C	1.909513	0.310393	0.499972
C71	C	1.468915	-0.190655	-0.000036
C72	C	1.968915	0.309345	0.499964
C73	C	1.482475	-0.037984	-0.000034
C74	C	1.982475	0.462016	0.499966
C75	C	1.423072	-0.036937	-0.000031
C76	C	1.923072	0.463063	0.499969
C77	C	1.386591	-0.112751	-0.000025
C78	C	1.886591	0.387249	0.499975
C79	C	0.935973	-0.028369	-0.000048
C80	C	1.435973	0.471631	0.499952
C81	C	0.876567	-0.027331	-0.000058
C82	C	1.376567	0.472669	0.499942
C83	C	0.863012	-0.180002	-0.000056
C84	C	1.363012	0.319998	0.499944
C85	C	0.922413	-0.181041	-0.000051
C86	C	1.422413	0.318959	0.499949
C87	C	0.958893	-0.105218	-0.000044
C88	C	1.458893	0.394782	0.499956
O89	O	1.010627	-0.247565	-0.000068
O90	O	1.510627	0.252435	0.499932
O91	O	1.035758	0.034898	-0.000023
O92	O	1.535758	0.534898	0.499977
C93	C	0.668586	-0.262110	-0.000042
C94	C	1.168586	0.237890	0.499958
C95	C	0.669709	-0.355051	-0.000043
C96	C	1.169709	0.144949	0.499957
N97	N	0.672714	-0.109003	0.229860
N98	N	1.172714	0.390997	0.729860
C99	C	0.671743	0.474779	-0.000044
C100	C	1.171743	0.974779	0.499956
C101	C	0.609473	0.426827	-0.000371
C102	C	1.109473	0.926827	0.499629
C103	C	0.610596	0.330146	-0.000038
C104	C	1.110596	0.830146	0.499962
C105	C	0.673744	0.307235	-0.000046
C106	C	1.173744	0.807235	0.499954
C107	C	0.704446	0.348564	0.084218
C108	C	1.204446	0.848564	0.584218
C109	C	0.702881	0.445187	0.084288
C110	C	1.202881	0.945187	0.584288
C111	C	0.704192	0.445564	-0.083521
C112	C	1.204192	0.945564	0.416479
C113	C	0.704178	0.348619	-0.084634
C114	C	1.204178	0.848619	0.415366
C115	C	0.674879	0.212547	-0.000044
C116	C	1.174879	0.712547	0.499956
C117	C	0.670610	0.569468	-0.000039
C118	C	1.170610	1.069468	0.499961
N119	N	0.672777	-0.108975	-0.229941
N120	N	1.172777	0.391025	0.270059
C121	C	0.672757	-0.108985	0.589061
C122	C	1.172757	0.391015	1.089061
C123	C	0.625814	-0.177930	0.551457
C124	C	1.125814	0.322070	1.051457
C125	C	0.625922	-0.178179	0.448631
C126	C	1.125922	0.321821	0.948631
C127	C	0.672735	-0.108994	0.410857
C128	C	1.172735	0.391006	0.910857
C129	C	0.732157	-0.127581	0.448145
C130	C	1.232157	0.372419	0.948145
C131	C	0.731894	-0.128071	0.551003
C132	C	1.231894	0.371929	1.051003
C133	C	0.660806	-0.021244	0.551163
C134	C	1.160806	0.478756	1.051163
C135	C	0.659443	-0.021842	0.448299
C136	C	1.159443	0.478158	0.948299
C137	C	0.672726	-0.108998	0.310144
C138	C	1.172726	0.391002	0.810144
C139	C	0.672769	-0.108983	0.689775
C140	C	1.172769	0.391017	1.189775
H141	H	0.965668	0.033373	-0.000043
H142	H	1.465668	0.533373	0.499957
C143	C	0.822878	-0.263387	-0.000059
C144	C	1.322878	0.236613	0.499941
H145	H	0.845032	-0.309315	-0.000063
H146	H	1.345032	0.190685	0.499937
H147	H	0.799413	-0.266149	0.051398
H148	H	1.299413	0.233851	0.551398
H149	H	0.799435	-0.266146	-0.051527
H150	H	1.299435	0.233854	0.448473
H151	H	0.633340	-0.242684	0.577294
H152	H	1.133340	0.257316	1.077294
C153	C	1.522612	0.045406	-0.000025
C154	C	2.022612	0.545406	0.499975
H155	H	1.561271	0.033768	-0.000016
H156	H	2.061271	0.533768	0.499984
H157	H	1.515677	0.076951	-0.051481
H158	H	2.015677	0.576951	0.448519
H159	H	1.515655	0.076936	0.051443
H160	H	2.015655	0.576936	0.551443
H161	H	0.681731	0.321186	-0.146970
H162	H	1.181731	0.821186	0.353030
C163	C	0.764636	0.489273	0.089470
C164	C	1.264636	0.989273	0.589470
H165	H	0.764099	0.548568	0.089546
H166	H	1.264099	1.048568	0.589546
H167	H	0.782172	0.472817	0.142415
H168	H	1.282172	0.972817	0.642415
H169	H	0.785733	0.473638	0.039637
H170	H	1.285733	0.973638	0.539637
H171	H	0.742425	-0.192044	0.574983
H172	H	1.242425	0.307956	1.074983
C173	C	1.131397	0.128748	-0.000041
C174	C	1.631397	0.628748	0.499959
H175	H	1.090793	0.118526	-0.000049
H176	H	1.590793	0.618526	0.499951
H177	H	1.143913	0.159938	0.051417
H178	H	1.643913	0.659938	0.551417
H179	H	1.143931	0.159938	-0.051507
H180	H	1.643931	0.659938	0.448493
H181	H	0.581752	-0.167178	0.423423
H182	H	1.081752	0.332822	0.923423
C183	C	0.600395	-0.002759	0.415381
C184	C	1.100395	0.497241	0.915381
H185	H	0.592600	0.050038	0.438256
H186	H	1.092600	0.550038	0.938256
H187	H	0.600333	-0.000881	0.352387
H188	H	1.100333	0.499119	0.852387
H189	H	0.571820	-0.045663	0.435203
H190	H	1.071820	0.454337	0.935203
H191	H	0.750838	0.334824	0.087346
H192	H	1.250838	0.834824	0.587346
H193	H	0.767916	-0.079808	0.575876
H194	H	1.267916	0.420192	1.075876
C195	C	0.603532	0.003056	0.586241
C196	C	1.103532	0.503056	1.086241
H197	H	0.597140	0.056190	0.562576
H198	H	1.097140	0.556190	1.062576
H199	H	0.573314	-0.038327	0.568637
H200	H	1.073314	0.461673	1.068637
H201	H	0.604810	0.006307	0.649157
H202	H	1.104810	0.506307	1.149157
H203	H	1.404416	0.025650	-0.000036
H204	H	1.904416	0.525650	0.499964
H205	H	0.857910	0.035262	-0.000065
H206	H	1.357910	0.535262	0.499935
C207	C	0.780477	-0.061530	0.415084
C208	C	1.280477	0.438470	0.915084
H209	H	0.764802	-0.021938	0.378155
H210	H	1.264802	0.478062	0.878155
H211	H	0.798993	-0.033186	0.464456
H212	H	1.298993	0.466814	0.964456
H213	H	0.807440	-0.088719	0.382225
H214	H	1.307440	0.411281	0.882225
C215	C	1.256124	0.126555	-0.000040
C216	C	1.756124	0.626555	0.499960
H217	H	1.233957	0.172469	-0.000049
H218	H	1.733957	0.672469	0.499951
H219	H	1.279575	0.129333	0.051415
H220	H	1.779575	0.629333	0.551415
H221	H	1.279583	0.129323	-0.051510
H222	H	1.779583	0.629323	0.448490
H223	H	0.691412	0.031830	0.422590
H224	H	1.191412	0.531830	0.922590
H225	H	0.750228	0.333640	-0.089728
H226	H	1.250228	0.833640	0.410272
H227	H	0.683104	0.320002	0.146929
H228	H	1.183104	0.820002	0.646929
C229	C	0.676705	0.473082	-0.169803
C230	C	1.176705	0.973082	0.330197
H231	H	0.696927	0.454832	-0.219366
H232	H	1.196927	0.954832	0.280634
H233	H	0.637912	0.448697	-0.172389
H234	H	1.137912	0.948697	0.327611
H235	H	0.678325	0.532702	-0.170886
H236	H	1.178325	1.032702	0.329114
H237	H	1.487569	-0.253243	-0.000044
H238	H	1.987569	0.246757	0.499956
H239	H	1.379813	-0.251349	-0.000028
H240	H	1.879813	0.248651	0.499972
H241	H	1.207523	-0.324771	-0.000012
H242	H	1.707523	0.175229	0.499988
H243	H	0.742939	-0.190822	0.422375
H244	H	1.242939	0.309178	0.922375
H245	H	0.750104	0.477707	-0.084092
H246	H	1.250104	0.977707	0.415908
C247	C	0.707046	0.048061	0.584018
C248	C	1.207046	0.548061	1.084018
H249	H	0.733509	0.023691	0.620654
H250	H	1.233509	0.523691	1.120654
H251	H	0.726623	0.074663	0.534551
H252	H	1.226623	0.574663	1.034551
H253	H	0.689531	0.088576	0.617139
H254	H	1.189531	0.588576	1.117139
H255	H	0.581502	-0.167116	0.576221
H256	H	1.081502	0.332884	1.076221
H257	H	1.099767	-0.322868	-0.000000
H258	H	1.599767	0.177132	0.500000
H259	H	0.941074	-0.243628	-0.000047
H260	H	1.441074	0.256372	0.499953
H261	H	0.633553	-0.243300	0.424016
H262	H	1.133553	0.256700	0.924016
H263	H	0.584593	0.445155	-0.060798
H264	H	1.084593	0.945155	0.439202
C265	C	0.577996	0.291475	-0.081635
C266	C	1.077996	0.791475	0.418365
H267	H	0.578643	0.232201	-0.081543
H268	H	1.078643	0.732201	0.418457
H269	H	0.539479	0.303646	-0.079551
H270	H	1.039479	0.803646	0.420449
H271	H	0.595761	0.314716	-0.134158
H272	H	1.095761	0.814716	0.365842
C273	C	0.575987	0.453002	0.080813
C274	C	1.075987	0.953002	0.580813
H275	H	0.599791	0.493024	0.114907
H276	H	1.099791	0.993024	0.614907
H277	H	0.543207	0.477275	0.061443
H278	H	1.043207	0.977275	0.561443
H279	H	0.564314	0.404850	0.116185
H280	H	1.064314	0.904850	0.616185
C281	C	0.577759	0.292222	0.081710
C282	C	1.077759	0.792222	0.581710
H283	H	0.563684	0.335913	0.114850
H284	H	1.063684	0.835913	0.614850
H285	H	0.546595	0.252992	0.062928
H286	H	1.046595	0.752992	0.562928
H287	H	0.602747	0.264376	0.117800
H288	H	1.102747	0.764376	0.617800
C289	C	0.672607	0.469658	0.169378
C290	C	1.172607	0.969658	0.669378
H291	H	0.661375	0.420570	0.203574
H292	H	1.161375	0.920570	0.703574
H293	H	0.698044	0.507839	0.203068
H294	H	1.198044	1.007839	0.703068
H295	H	0.639712	0.495648	0.153982
H296	H	1.139712	0.995648	0.653982
