data_functionalizedCrystal
_audit_creation_method	'MofGen! by Chris Wilmer'
_symmetry_space_group_name_H-M	'P1'
_symmetry_Int_Tables_number	1
_symmetry_cell_setting	triclinic
loop_
_symmetry_equiv_pos_as_xyz
  x,y,z
_cell_length_a	20.919309
_cell_length_b	14.809374
_cell_length_c	14.809374
_cell_angle_alpha	60.797835
_cell_angle_beta	90.489664
_cell_angle_gamma	65.055241
loop_
_atom_site_label
_atom_site_type_symbol
_atom_site_fract_x
_atom_site_fract_y
_atom_site_fract_z
Zr1	Zr	0.726531	0.884033	-0.160180
O2	O	0.645958	1.049847	-0.312163
O3	O	0.739824	0.704965	-0.101308
O4	O	0.766730	0.851477	-0.286237
O5	O	0.610804	0.933638	0.004671
O6	O	0.874973	0.840874	-0.279757
O7	O	0.619052	0.903335	-0.127234
O8	O	0.826843	0.578790	0.051048
O9	O	0.658934	1.195722	-0.326134
O10	O	0.840056	0.775615	-0.086202
O11	O	0.753120	0.806143	0.007401
O12	O	0.784798	0.978642	-0.210329
O13	O	0.697862	1.009170	-0.116727
Zr14	Zr	0.886012	0.915454	0.060526
Zr15	Zr	0.899166	0.867123	-0.149846
Zr16	Zr	0.713377	0.932364	0.050192
Zr17	Zr	0.747226	1.116687	-0.182463
Zr18	Zr	0.865317	0.682800	0.082809
O19	O	0.872719	1.094522	0.001654
O20	O	0.891422	1.025802	-0.297468
O21	O	0.627254	1.118567	-0.013041
O22	O	0.966585	0.749640	0.212509
O23	O	0.985289	0.680920	-0.086613
O24	O	0.721121	0.773685	0.197814
O25	O	1.001739	0.865849	-0.104325
O26	O	0.845813	0.948010	0.186583
O27	O	0.737570	0.958613	0.180103
O28	O	0.993491	0.896152	0.027580
O29	O	0.796155	1.182280	-0.317919
O30	O	0.816388	0.617207	0.218265
O31	O	0.953609	0.603765	0.226480
O32	O	0.964065	0.565349	0.059262
O33	O	0.648478	1.234138	-0.158916
O34	O	0.785700	1.220697	-0.150702
O35	O	0.827745	0.820845	0.110675
O36	O	0.914681	0.790317	0.017073
O37	O	0.859423	0.993344	-0.107055
O38	O	0.772487	1.023872	-0.013452
C39	C	0.780385	0.608729	-0.021955
C40	C	0.771599	0.509962	-0.012496
C41	C	0.590332	0.920896	-0.062754
C42	C	0.517043	0.928075	-0.067141
C43	C	0.810809	0.450784	-0.054712
C44	C	0.801729	0.348702	-0.044936
C45	C	0.511455	0.825472	-0.004415
C46	C	0.442591	0.832224	-0.008540
C47	C	0.379317	0.941580	-0.075398
C48	C	0.384908	1.044192	-0.138127
C49	C	0.453771	1.037439	-0.133996
C50	C	0.169953	0.967271	-0.091110
C51	C	0.101088	0.974015	-0.095239
C52	C	0.158776	0.762047	0.034350
C53	C	0.227638	0.755303	0.038471
C54	C	0.233222	0.857916	-0.024254
C55	C	0.308926	0.948484	-0.079619
C56	C	0.303612	0.851012	-0.020026
C57	C	1.022212	0.878591	-0.036900
C58	C	1.095500	0.871412	-0.032513
C59	C	0.822725	0.839289	-0.312971
C60	C	0.828310	0.818771	-0.402279
C61	C	0.832158	1.190758	-0.077699
C62	C	0.840944	1.289525	-0.087158
C63	C	0.803388	0.910339	-0.503671
C64	C	0.809159	0.889135	-0.595978
C65	C	0.789818	0.960198	0.213317
C66	C	0.784233	0.980716	0.302625
C67	C	0.996325	0.587577	-0.009028
C68	C	1.060828	0.481630	0.004818
C69	C	0.763931	0.669184	0.241188
C70	C	0.749561	0.590934	0.339956
C71	C	0.979871	0.648031	0.254115
C72	C	1.038789	0.562602	0.357270
C73	C	0.632672	1.151456	-0.353769
C74	C	0.573754	1.236885	-0.456924
C75	C	0.616218	1.211910	-0.090626
C76	C	0.551716	1.317857	-0.104472
C77	C	0.848612	1.130303	-0.340842
C78	C	0.862982	1.208553	-0.439610
C79	C	1.052165	0.424200	-0.042596
C80	C	1.112768	0.324661	-0.029607
C81	C	1.182031	0.282549	0.030803
C82	C	1.190692	0.339989	0.078219
C83	C	1.130091	0.439531	0.065223
C84	C	0.781766	0.561864	0.440256
C85	C	0.768262	0.488355	0.533065
C86	C	0.722556	0.443911	0.525574
C87	C	0.690348	0.472988	0.425263
C88	C	0.703848	0.546503	0.332455
C89	C	1.111845	0.506548	0.356854
C90	C	1.167213	0.426289	0.453770
C91	C	1.149524	0.402080	0.551103
C92	C	1.076461	0.458144	0.551516
C93	C	1.021095	0.538407	0.454600
C94	C	0.500699	1.292950	-0.456509
C95	C	0.445334	1.373238	-0.553428
C96	C	0.463023	1.397452	-0.650761
C97	C	0.536085	1.341382	-0.651174
C98	C	0.591450	1.261103	-0.554256
C99	C	0.560379	1.375294	-0.057068
C100	C	0.499780	1.474854	-0.070082
C101	C	0.430517	1.516968	-0.130496
C102	C	0.421856	1.459525	-0.177907
C103	C	0.482455	1.359973	-0.164898
C104	C	0.908691	1.252974	-0.432084
C105	C	0.922207	1.326486	-0.524877
C106	C	0.890009	1.355582	-0.625195
C107	C	0.844298	1.311153	-0.632719
C108	C	0.830787	1.237635	-0.539926
H109	H	0.851102	0.475688	-0.098087
H110	H	1.226699	0.380648	0.453415
H111	H	1.194613	0.336721	0.630010
H112	H	0.934912	1.229297	-0.350408
H113	H	0.901017	1.415447	-0.700745
H114	H	0.417935	1.462823	-0.729670
H115	H	0.777782	1.004431	-0.522139
H116	H	0.761438	0.323795	-0.001551
C117	C	1.103231	0.261483	-0.081756
H118	H	1.149240	0.196174	-0.065380
H119	H	1.069814	0.233912	-0.054614
H120	H	1.084763	0.315390	-0.157455
C121	C	0.895377	0.323159	-0.145765
H122	H	0.894337	0.387362	-0.144654
H123	H	0.943354	0.256972	-0.110706
H124	H	0.882010	0.345919	-0.218103
H125	H	0.711569	0.384052	0.601153
H126	H	0.486281	1.273241	-0.377265
C127	C	1.057011	0.431493	0.658586
H128	H	1.100452	0.375650	0.716240
H129	H	1.033864	0.502594	0.657877
H130	H	1.024727	0.399762	0.667708
C131	C	0.640084	0.424079	0.417038
H132	H	0.636669	0.376122	0.486683
H133	H	0.592709	0.488105	0.372474
H134	H	0.659879	0.377806	0.386902
C135	C	0.668425	0.578463	0.222133
H136	H	0.639278	0.541452	0.230975
H137	H	0.638493	0.661973	0.176467
H138	H	0.705652	0.551656	0.190904
H139	H	0.818086	1.334855	-0.714411
H140	H	0.853921	0.724679	-0.383811
C141	C	1.248684	0.173045	0.045102
H142	H	1.233598	0.144872	0.008217
H143	H	1.284268	0.194075	0.016545
H144	H	1.269297	0.112617	0.119372
C145	C	1.139626	0.502683	0.117398
H146	H	1.189556	0.463331	0.155245
H147	H	1.125086	0.582572	0.063170
H148	H	1.110129	0.501081	0.165993
C149	C	0.581053	0.705181	0.069128
H150	H	0.622868	0.715849	0.062600
H151	H	0.578709	0.673422	0.141562
H152	H	0.584525	0.652063	0.048577
H153	H	0.257401	1.037522	-0.134055
C154	C	0.717169	0.476322	0.046106
H155	H	0.718203	0.412130	0.044982
H156	H	0.730527	0.453573	0.118438
H157	H	0.669188	0.542515	0.011034
C158	C	1.266882	0.293648	0.144676
H159	H	1.301726	0.226131	0.145630
H160	H	1.280450	0.353831	0.113300
H161	H	1.265476	0.272363	0.216117
H162	H	0.961611	0.584038	0.454954
H163	H	0.995775	0.458482	-0.091800
H164	H	1.126262	0.526245	0.277611
H165	H	0.385848	1.418878	-0.553071
H166	H	0.438047	0.748674	0.042540
H167	H	0.506846	1.521609	-0.031468
H168	H	0.355132	0.761976	0.034414
C169	C	0.297235	0.635012	0.112016
H170	H	0.284043	0.574871	0.148789
H171	H	0.328204	0.617296	0.069829
H172	H	0.322388	0.638652	0.162816
H173	H	0.834772	0.795036	-0.577501
C174	C	0.749635	1.107837	-0.722345
H175	H	0.750290	1.105416	-0.657032
H176	H	0.776782	1.144523	-0.760417
H177	H	0.700480	1.151992	-0.764979
H178	H	0.818983	0.598043	0.446375
H179	H	0.794495	0.464689	0.614733
C180	C	0.459918	1.150302	-0.202999
H181	H	0.412373	1.216396	-0.243417
H182	H	0.482674	1.162755	-0.157593
H183	H	0.488491	1.141391	-0.250575
C184	C	0.555534	1.368017	-0.758243
H185	H	0.512092	1.423848	-0.815895
H186	H	0.587828	1.399726	-0.767377
H187	H	0.578668	1.296899	-0.757516
H188	H	0.650933	1.215452	-0.554606
H189	H	0.616770	1.341015	-0.007867
C190	C	0.363864	1.626472	-0.144794
H191	H	0.378949	1.654635	-0.107897
H192	H	0.343243	1.686898	-0.219057
H193	H	0.328285	1.605427	-0.116222
H194	H	0.365454	1.493830	-0.227096
C195	C	0.472918	1.296786	-0.217032
H196	H	0.518925	1.231465	-0.200643
H197	H	0.439493	1.269232	-0.189897
H198	H	0.454459	1.350685	-0.292734
C199	C	0.972479	1.375361	-0.516584
H200	H	0.989705	1.347517	-0.443548
H201	H	1.012951	1.349212	-0.543320
H202	H	0.945784	1.459517	-0.557754
H203	H	0.793564	1.201476	-0.546070
H204	H	0.154220	0.678506	0.085417
H205	H	0.049567	1.063070	-0.149688
H206	H	0.333384	1.133233	-0.192559
C207	C	0.176090	1.080138	-0.160116
H208	H	0.128543	1.146228	-0.200534
H209	H	0.198843	1.092599	-0.114715
H210	H	0.204663	1.071226	-0.207692
