data_functionalizedCrystal
_audit_creation_method	'MofGen! by Chris Wilmer'
_symmetry_space_group_name_H-M	'P1'
_symmetry_Int_Tables_number	1
_symmetry_cell_setting	triclinic
loop_
_symmetry_equiv_pos_as_xyz
  x,y,z
_cell_length_a	25.639239
_cell_length_b	18.050591
_cell_length_c	25.639234
_cell_angle_alpha	90.029669
_cell_angle_beta	89.975095
_cell_angle_gamma	89.968232
loop_
_atom_site_label
_atom_site_type_symbol
_atom_site_fract_x
_atom_site_fract_y
_atom_site_fract_z
Zn1	Zn	-0.208279	-1.135280	-0.295747
Zn2	Zn	0.291721	-0.635280	0.204253
Zn3	Zn	-0.295707	-1.135156	-0.208311
Zn4	Zn	0.204293	-0.635156	0.291689
Zn5	Zn	-0.208277	-1.011087	-0.208310
Zn6	Zn	0.291723	-0.511087	0.291690
Zn7	Zn	-0.295675	-1.011025	-0.295700
Zn8	Zn	0.204325	-0.511025	0.204300
O9	O	-0.251985	-1.073137	-0.252017
O10	O	0.248015	-0.573137	0.247983
O11	O	-0.219891	-1.239188	-0.284168
O12	O	0.280109	-0.739188	0.215832
O13	O	-0.284122	-1.118672	-0.135146
O14	O	0.215878	-0.618672	0.364854
O15	O	-0.135112	-1.027640	-0.219928
O16	O	0.364888	-0.527640	0.280072
O17	O	-0.284124	-1.239097	-0.219929
O18	O	0.215876	-0.739097	0.280071
O19	O	-0.135114	-1.118884	-0.284167
O20	O	0.364886	-0.618884	0.215833
O21	O	-0.219888	-1.027519	-0.135145
O22	O	0.280112	-0.527519	0.364855
O23	O	-0.219856	-0.907154	-0.219883
O24	O	0.280144	-0.407154	0.280117
O25	O	-0.284069	-1.027533	-0.368872
O26	O	0.215931	-0.527533	0.131128
O27	O	-0.284067	-0.907108	-0.284088
O28	O	0.215933	-0.407108	0.215912
O29	O	-0.219860	-1.118823	-0.368906
O30	O	0.280140	-0.618823	0.131094
O31	O	-0.368868	-1.118611	-0.219884
O32	O	0.131132	-0.618611	0.280116
O33	O	-0.368844	-1.027413	-0.284089
O34	O	0.131156	-0.527413	0.215911
C35	C	-0.251958	-0.880185	-0.251981
C36	C	0.248042	-0.380185	0.248019
C37	C	-0.251959	-0.797639	-0.251978
C38	C	0.248041	-0.297639	0.248022
C39	C	-0.387827	-1.073012	-0.251993
C40	C	0.112173	-0.573012	0.248007
C41	C	-0.445941	-1.073026	-0.252000
C42	C	0.054059	-0.573026	0.248000
C43	C	-0.216994	-0.598192	-0.217136
C44	C	0.283006	-0.098192	0.282864
C45	C	-0.264680	-0.548758	-0.204266
C46	C	0.235320	-0.048758	0.295734
C47	C	-0.251970	-0.646509	-0.251996
C48	C	0.248030	-0.146509	0.248004
C49	C	-0.204295	-0.548861	-0.264859
C50	C	0.295705	-0.048861	0.235141
C51	C	-0.251976	-0.500523	-0.252012
C52	C	0.248024	-0.000523	0.247988
C53	C	-0.299681	-0.598162	-0.239101
C54	C	0.200319	-0.098162	0.260899
C55	C	-0.239264	-0.598269	-0.299716
C56	C	0.260736	-0.098269	0.200284
C57	C	-0.286983	-0.548858	-0.286864
C58	C	0.213017	-0.048858	0.213136
C59	C	-0.251966	-0.730607	-0.251985
C60	C	0.248034	-0.230607	0.248015
C61	C	-0.251985	-0.416427	-0.252023
C62	C	0.248015	0.083573	0.247977
C63	C	-0.806304	-1.120748	-0.218643
C64	C	-0.306304	-0.620748	0.281357
C65	C	-0.860908	-1.120777	-0.218650
C66	C	-0.360908	-0.620777	0.281350
O67	O	-0.889145	-1.161222	-0.190262
O68	O	-0.389145	-0.661222	0.309738
N69	N	-0.888224	-1.073267	-0.252052
N70	N	-0.388224	-0.573267	0.247948
C71	C	-0.860932	-1.025732	-0.285453
C72	C	-0.360932	-0.525732	0.214547
O73	O	-0.889179	-0.985324	-0.313865
O74	O	-0.389179	-0.485324	0.186135
C75	C	-0.806328	-1.025707	-0.285448
C76	C	-0.306328	-0.525707	0.214552
C77	C	-0.779016	-1.073214	-0.252040
C78	C	-0.279016	-0.573214	0.247960
C79	C	-0.778992	-1.168252	-0.185238
C80	C	-0.278992	-0.668252	0.314762
C81	C	-0.724391	-1.168222	-0.185230
C82	C	-0.224391	-0.668222	0.314770
C83	C	-0.697103	-1.120688	-0.218628
C84	C	-0.197103	-0.620688	0.281372
C85	C	-0.724415	-1.073184	-0.252032
C86	C	-0.224415	-0.573184	0.247968
C87	C	-0.779037	-0.978175	-0.318851
C88	C	-0.279037	-0.478175	0.181149
C89	C	-0.724430	-0.978155	-0.318844
C90	C	-0.224430	-0.478155	0.181156
C91	C	-0.697118	-1.025663	-0.285436
C92	C	-0.197118	-0.525663	0.214564
C93	C	-0.642527	-1.025620	-0.285422
C94	C	-0.142527	-0.525620	0.214578
N95	N	-0.615212	-1.073130	-0.252020
N96	N	-0.115212	-0.573130	0.247980
C97	C	-0.642500	-1.120664	-0.218623
C98	C	-0.142500	-0.620664	0.281377
C99	C	-0.975602	-1.025787	-0.285461
C100	C	-0.475602	-0.525787	0.214539
C101	C	-1.030205	-1.025808	-0.285463
C102	C	-0.530205	-0.525808	0.214537
C103	C	-1.030178	-1.120854	-0.218661
C104	C	-0.530178	-0.620854	0.281339
C105	C	-0.975574	-1.120830	-0.218656
C106	C	-0.475574	-0.620830	0.281344
C107	C	-0.948287	-1.073297	-0.252059
C108	C	-0.448287	-0.573297	0.247941
C109	C	-0.527835	-1.120597	-0.218609
C110	C	-0.027835	-0.620597	0.281391
C111	C	-0.473229	-1.120560	-0.218603
C112	C	0.026771	-0.620560	0.281397
C113	C	-0.473261	-1.025517	-0.285407
C114	C	0.026739	-0.525517	0.214593
C115	C	-0.527862	-1.025550	-0.285412
C116	C	-0.027862	-0.525550	0.214588
C117	C	-0.555147	-1.073096	-0.252011
C118	C	-0.055147	-0.573096	0.247989
O119	O	-0.614256	-0.985198	-0.313797
O120	O	-0.114256	-0.485198	0.186203
O121	O	-0.614245	-1.161071	-0.190220
O122	O	-0.114245	-0.661071	0.309780
C123	C	-0.115612	-1.073282	-0.252053
C124	C	0.384388	-0.573282	0.247947
C125	C	-0.057497	-1.073345	-0.252068
C126	C	0.442503	-0.573345	0.247932
C127	C	-0.251961	-1.073185	-0.388390
C128	C	0.248039	-0.573185	0.111610
C129	C	-0.251951	-1.073206	-0.446504
C130	C	0.248049	-0.573206	0.053496
C131	C	-0.252002	-0.266842	-0.252044
C132	C	0.247998	0.233158	0.247956
C133	C	-0.251987	-0.349388	-0.252032
C134	C	0.248013	0.150612	0.247968
C135	C	-0.218441	-1.025763	-0.806873
C136	C	0.281559	-0.525763	-0.306873
C137	C	-0.218432	-1.025767	-0.861477
C138	C	0.281568	-0.525767	-0.361477
O139	O	-0.189999	-0.985393	-0.889718
O140	O	0.310001	-0.485393	-0.389718
N141	N	-0.251869	-1.073230	-0.888787
N142	N	0.248131	-0.573230	-0.388787
C143	C	-0.285321	-1.120687	-0.861490
C144	C	0.214679	-0.620687	-0.361490
O145	O	-0.313761	-1.161058	-0.889733
O146	O	0.186239	-0.661058	-0.389733
C147	C	-0.285332	-1.120679	-0.806886
C148	C	0.214668	-0.620679	-0.306886
C149	C	-0.251890	-1.073218	-0.779579
C150	C	0.248110	-0.573218	-0.279579
C151	C	-0.185002	-0.978306	-0.779565
C152	C	0.314998	-0.478306	-0.279565
C153	C	-0.185011	-0.978303	-0.724965
C154	C	0.314989	-0.478303	-0.224965
C155	C	-0.218459	-1.025758	-0.697671
C156	C	0.281541	-0.525758	-0.197671
C157	C	-0.251899	-1.073215	-0.724979
C158	C	0.248101	-0.573215	-0.224979
C159	C	-0.318787	-1.168131	-0.779590
C160	C	0.181213	-0.668131	-0.279590
C161	C	-0.318796	-1.168119	-0.724983
C162	C	0.181204	-0.668119	-0.224983
C163	C	-0.285353	-1.120658	-0.697676
C164	C	0.214647	-0.620658	-0.197676
C165	C	-0.285356	-1.120667	-0.643085
C166	C	0.214644	-0.620667	-0.143085
N167	N	-0.251919	-1.073204	-0.615775
N168	N	0.248081	-0.573204	-0.115775
C169	C	-0.218471	-1.025749	-0.643068
C170	C	0.281529	-0.525749	-0.143068
C171	C	-0.285294	-1.120700	-0.976160
C172	C	0.214706	-0.620700	-0.476160
C173	C	-0.285280	-1.120713	-1.030763
C174	C	0.214720	-0.620713	-0.530763
C175	C	-0.218392	-1.025792	-1.030746
C176	C	0.281608	-0.525792	-0.530746
C177	C	-0.218404	-1.025783	-0.976143
C178	C	0.281596	-0.525783	-0.476143
C179	C	-0.251857	-1.073237	-0.948850
C180	C	0.248143	-0.573237	-0.448850
C181	C	-0.218492	-1.025747	-0.528403
C182	C	0.281508	-0.525747	-0.028403
C183	C	-0.218502	-1.025751	-0.473798
C184	C	0.281498	-0.525751	0.026202
C185	C	-0.285392	-1.120669	-0.473819
C186	C	0.214608	-0.620669	0.026181
C187	C	-0.285380	-1.120669	-0.528419
C188	C	0.214620	-0.620669	-0.028419
C189	C	-0.251928	-1.073202	-0.555710
C190	C	0.248072	-0.573202	-0.055710
O191	O	-0.313776	-1.161019	-0.614809
O192	O	0.186224	-0.661019	-0.114809
O193	O	-0.190041	-0.985378	-0.614818
O194	O	0.309959	-0.485378	-0.114818
C195	C	-0.251971	-1.073132	-0.116175
C196	C	0.248029	-0.573132	0.383825
C197	C	-0.251833	-1.073255	-0.058061
C198	C	0.248167	-0.573255	0.441939
H199	H	-0.187450	-0.619853	-0.187627
H200	H	0.312550	-0.119853	0.312373
H201	H	-0.163980	-0.527165	-0.275714
H202	H	0.336020	-0.027165	0.224286
H203	H	-0.312533	-1.159352	-0.953942
H204	H	0.187467	-0.659352	-0.453942
H205	H	-0.275433	-0.527012	-0.163916
H206	H	0.224567	-0.027012	0.336084
H207	H	-0.228497	-0.620033	-0.340054
H208	H	0.271503	-0.120033	0.159946
H209	H	-0.191267	-0.987103	-0.451567
H210	H	0.308733	-0.487103	0.048433
H211	H	-0.191252	-0.987096	-0.550617
H212	H	0.308748	-0.487096	-0.050617
H213	H	-0.801204	-1.206963	-0.158042
H214	H	-0.301204	-0.706963	0.341958
H215	H	-0.340013	-0.619728	-0.228183
H216	H	0.159987	-0.119728	0.271817
H217	H	-0.316597	-0.527333	-0.316351
H218	H	0.183403	-0.027333	0.183649
H219	H	-0.702156	-1.206908	-0.158028
H220	H	-0.202156	-0.706908	0.341972
H221	H	-0.191157	-0.987151	-1.052978
H222	H	0.308843	-0.487151	-0.552978
H223	H	-0.157780	-0.939652	-0.702736
H224	H	0.342220	-0.439652	-0.202736
H225	H	-0.450993	-1.159246	-0.191396
H226	H	0.049007	-0.659246	0.308604
H227	H	-0.451035	-0.986813	-0.312597
H228	H	0.048965	-0.486813	0.187403
H229	H	-0.550044	-1.159315	-0.191412
H230	H	-0.050044	-0.659315	0.308588
H231	H	-0.953340	-1.159514	-0.191453
H232	H	-0.453340	-0.659514	0.308547
H233	H	-1.052405	-1.159561	-0.191469
H234	H	-0.552405	-0.659561	0.308531
H235	H	-0.346020	-1.206779	-0.801814
H236	H	0.153980	-0.706779	-0.301814
H237	H	-1.052438	-0.987116	-0.312662
H238	H	-0.552438	-0.487116	0.187338
H239	H	-0.953388	-0.987074	-0.312660
H240	H	-0.453388	-0.487074	0.187340
H241	H	-0.801266	-0.939486	-0.346053
H242	H	-0.301266	-0.439486	0.153947
H243	H	-0.702216	-0.939449	-0.346046
H244	H	-0.202216	-0.439449	0.153954
H245	H	-0.550101	-0.986868	-0.312617
H246	H	-0.050101	-0.486868	0.187383
H247	H	-0.191171	-0.987137	-0.953913
H248	H	0.308829	-0.487137	-0.453913
H249	H	-0.157764	-0.939659	-0.801782
H250	H	0.342236	-0.439659	-0.301782
H251	H	-0.312507	-1.159368	-1.052991
H252	H	0.187493	-0.659368	-0.552991
H253	H	-0.346035	-1.206767	-0.702764
H254	H	0.153965	-0.706767	-0.202764
H255	H	-0.312606	-1.159323	-0.550654
H256	H	0.187394	-0.659323	-0.050654
H257	H	-0.312623	-1.159308	-0.451587
H258	H	0.187377	-0.659308	0.048413
