data_functionalizedCrystal
_audit_creation_method	'MofGen! by Chris Wilmer'
_symmetry_space_group_name_H-M	'P1'
_symmetry_Int_Tables_number	1
_symmetry_cell_setting	triclinic
loop_
_symmetry_equiv_pos_as_xyz
  x,y,z
_cell_length_a	15.944545
_cell_length_b	23.532357
_cell_length_c	15.021413
_cell_angle_alpha	89.998468
_cell_angle_beta	89.995468
_cell_angle_gamma	83.162232
loop_
_atom_site_label
_atom_site_type_symbol
_atom_site_fract_x
_atom_site_fract_y
_atom_site_fract_z
O1	O	1.113894	0.073427	-0.073986
O2	O	0.869265	0.082486	-0.074001
O3	O	0.998978	-0.004948	-0.073975
O4	O	0.984181	0.160862	-0.074012
O5	O	0.998957	-0.004936	0.074090
O6	O	0.869244	0.082499	0.074063
O7	O	1.113873	0.073439	0.074079
Zn8	Zn	0.991556	0.077971	0.097579
Zn9	Zn	0.991583	0.077955	-0.097502
O10	O	0.984160	0.160874	0.074052
C11	C	0.837964	0.082117	0.000029
C12	C	0.744727	0.080992	0.000024
C13	C	0.474595	0.023432	0.000046
C14	C	0.524925	0.051189	0.073046
C15	C	0.409118	0.076977	0.000040
C16	C	0.524926	0.051191	-0.072934
C17	C	0.574015	0.078947	0.000031
C18	C	0.458220	0.104720	0.073100
C19	C	0.458218	0.104714	-0.072946
C20	C	0.508515	0.132510	0.000071
C21	C	0.314126	0.075841	0.000046
C22	C	0.669004	0.080087	0.000031
C23	C	0.998598	-0.026160	0.000060
C24	C	0.997485	-0.089383	0.000068
C25	C	0.990510	-0.481428	-0.080690
C26	C	0.989452	-0.540832	-0.080695
O27	O	0.988886	-0.571556	-0.149336
N28	N	0.988916	-0.570538	0.000014
C29	C	0.989430	-0.540837	0.080733
O30	O	0.988876	-0.571559	0.149381
C31	C	0.990482	-0.481434	0.080737
C32	C	0.991026	-0.451732	0.000023
C33	C	0.991053	-0.451725	-0.161397
C34	C	0.992113	-0.392326	-0.161392
C35	C	0.992629	-0.362630	-0.080679
C36	C	0.992085	-0.392332	0.000029
C37	C	0.990989	-0.451734	0.161455
C38	C	0.992040	-0.392327	0.161452
C39	C	0.992585	-0.362624	0.080738
C40	C	0.993661	-0.303236	0.080747
N41	N	0.994196	-0.273530	0.000038
C42	C	0.993681	-0.303227	-0.080675
C43	C	0.987220	-0.665587	0.080718
C44	C	0.986174	-0.724990	0.080715
C45	C	0.986195	-0.724980	-0.080714
C46	C	0.987246	-0.665577	-0.080709
C47	C	0.987755	-0.635881	0.000009
C48	C	0.995906	-0.178484	-0.080657
C49	C	0.996969	-0.119080	-0.080644
C50	C	0.996944	-0.119094	0.080783
C51	C	0.995885	-0.178494	0.080771
C52	C	0.995364	-0.208187	0.000044
O53	O	0.994224	-0.272474	0.149352
O54	O	0.994223	-0.272496	-0.149312
C55	C	1.145174	0.073809	0.000046
C56	C	1.238411	0.074934	0.000046
C57	C	0.984541	0.182086	0.000015
C58	C	0.985653	0.245309	0.000001
N59	N	0.991543	0.077982	0.230717
N60	N	0.991602	0.077939	-0.230639
C61	C	0.931555	0.118393	0.470388
C62	C	1.007359	0.129448	0.529724
C63	C	0.991565	0.077968	0.412324
C64	C	0.915781	0.066925	0.529729
C65	C	0.991579	0.077955	0.587748
C66	C	1.067407	0.089049	0.470354
C67	C	0.975779	0.026503	0.470353
C68	C	1.051639	0.037537	0.529663
C69	C	0.991555	0.077976	0.311266
C70	C	0.991597	0.077946	0.688803
H71	H	0.459342	-0.022682	0.000128
H72	H	0.997414	-0.094899	-0.146374
H73	H	0.429084	0.127303	-0.134673
H74	H	0.429206	0.127322	0.134881
C75	C	0.494892	0.222712	0.076606
C76	C	0.528898	0.194808	0.000112
H77	H	0.507483	0.261170	0.076634
H78	H	0.435393	0.222334	0.077089
H79	H	0.518752	0.203561	0.127972
H80	H	0.505034	0.213957	-0.051255
H81	H	0.588409	0.195189	-0.000380
H82	H	0.997368	-0.094905	0.146497
H83	H	0.554044	0.028580	0.134771
H84	H	0.554048	0.028563	-0.134646
C85	C	1.170598	0.155442	0.466066
C86	C	1.153958	0.101736	0.435334
H87	H	1.224033	0.163276	0.444457
H88	H	1.127955	0.183983	0.445283
H89	H	1.171105	0.155484	0.529303
H90	H	1.153444	0.101695	0.372096
H91	H	1.196612	0.073187	0.456112
H92	H	1.102448	0.003343	0.555526
C93	C	0.918393	-0.463581	0.299021
C94	C	0.990372	-0.484362	0.250188
H95	H	0.918006	-0.483723	0.353804
H96	H	0.919106	-0.423955	0.310545
H97	H	0.869249	-0.468979	0.265835
H98	H	1.039516	-0.478960	0.283371
H99	H	0.989666	-0.523998	0.238666
C100	C	0.996015	-0.172490	-0.240222
C101	C	0.995319	-0.211115	-0.169393
H102	H	0.995655	-0.192636	-0.295002
H103	H	0.947446	-0.144973	-0.236850
H104	H	1.045424	-0.153671	-0.236855
H105	H	0.945906	-0.229931	-0.172756
H106	H	1.043892	-0.238642	-0.172766
C107	C	0.878263	-0.043694	0.465028
C108	C	0.957706	-0.032223	0.435109
H109	H	0.867098	-0.079947	0.443262
H110	H	0.877625	-0.044023	0.528252
H111	H	0.836187	-0.014894	0.443845
H112	H	0.999783	-0.061020	0.456297
H113	H	0.958351	-0.031898	0.371871
C114	C	0.783917	0.153542	0.466506
C115	C	0.863117	0.164577	0.435242
H116	H	0.741672	0.182057	0.444810
H117	H	0.772567	0.117010	0.446172
H118	H	0.783797	0.154084	0.529739
H119	H	0.863239	0.164031	0.372008
H120	H	0.874469	0.201119	0.455571
H121	H	0.992553	-0.368147	-0.227117
C122	C	0.991195	-0.445735	-0.320954
C123	C	0.990494	-0.484362	-0.250128
H124	H	0.990860	-0.465882	-0.375735
H125	H	0.942616	-0.418226	-0.317597
H126	H	1.040594	-0.426907	-0.317570
H127	H	0.941091	-0.503187	-0.253508
H128	H	1.039077	-0.511881	-0.253486
H129	H	0.987688	-0.641397	-0.146434
H130	H	0.851686	0.057591	0.555812
H131	H	0.985743	-0.749170	0.146440
C132	C	0.984571	-0.816040	-0.152387
C133	C	0.985617	-0.757630	-0.169437
H134	H	0.984209	-0.836196	-0.207158
H135	H	1.033382	-0.830117	-0.119230
H136	H	0.935404	-0.821421	-0.119220
H137	H	1.034787	-0.752248	-0.202598
H138	H	0.936801	-0.743548	-0.202608
C139	C	0.987102	-0.671574	0.240283
C140	C	0.987792	-0.632949	0.169452
H141	H	0.987458	-0.651426	0.295062
H142	H	0.937705	-0.690397	0.236917
H143	H	1.035684	-0.699088	0.236914
H144	H	0.939206	-0.605437	0.172818
H145	H	1.037193	-0.614117	0.172820
H146	H	0.992442	-0.368150	0.227185
H147	H	0.995450	-0.202679	0.146495
C148	C	0.962478	0.230469	0.535026
C149	C	1.025401	0.188192	0.564940
H150	H	0.973611	0.266735	0.556770
H151	H	0.962096	0.231004	0.471801
H152	H	0.909053	0.222345	0.556235
H153	H	1.078826	0.196313	0.543725
H154	H	1.025791	0.187658	0.628178
