data_functionalizedCrystal
_audit_creation_method	'MofGen! by Chris Wilmer'
_symmetry_space_group_name_H-M	'P1'
_symmetry_Int_Tables_number	1
_symmetry_cell_setting	triclinic
loop_
_symmetry_equiv_pos_as_xyz
  x,y,z
_cell_length_a	21.395364
_cell_length_b	18.050590
_cell_length_c	21.395355
_cell_angle_alpha	89.981964
_cell_angle_beta	89.975448
_cell_angle_gamma	90.033504
loop_
_atom_site_label
_atom_site_type_symbol
_atom_site_fract_x
_atom_site_fract_y
_atom_site_fract_z
Zn1	Zn	0.957912	-0.295449	-0.354264
Zn2	Zn	1.457912	0.204551	0.145736
Zn3	Zn	0.957837	-0.419621	-0.249487
Zn4	Zn	1.457837	0.080379	0.250513
Zn5	Zn	0.853127	-0.295482	-0.249500
Zn6	Zn	1.353127	0.204518	0.250500
Zn7	Zn	0.853118	-0.419634	-0.354227
Zn8	Zn	1.353118	0.080366	0.145773
O9	O	0.905499	-0.357547	-0.301870
O10	O	1.405499	0.142453	0.198130
O11	O	1.045580	-0.311902	-0.340374
O12	O	1.545580	0.188098	0.159626
O13	O	0.943919	-0.403162	-0.161811
O14	O	1.443919	0.096838	0.338189
O15	O	0.867062	-0.191553	-0.263418
O16	O	1.367062	0.308447	0.236582
O17	O	1.045525	-0.403130	-0.263396
O18	O	1.545525	0.096870	0.236604
O19	O	0.944047	-0.191529	-0.340387
O20	O	1.444047	0.308471	0.159613
O21	O	0.866989	-0.311957	-0.161821
O22	O	1.366989	0.188043	0.338179
O23	O	0.765448	-0.311970	-0.263383
O24	O	1.265448	0.188030	0.236617
O25	O	0.867047	-0.403153	-0.441910
O26	O	1.367047	0.096847	0.058090
O27	O	0.765442	-0.403184	-0.340325
O28	O	1.265442	0.096816	0.159675
O29	O	0.944039	-0.311915	-0.441937
O30	O	1.444039	0.188085	0.058063
O31	O	0.943911	-0.523547	-0.263360
O32	O	1.443911	-0.023547	0.236640
O33	O	0.866974	-0.523557	-0.340312
O34	O	1.366974	-0.023557	0.159688
C35	C	0.742711	-0.357583	-0.301852
C36	C	1.242711	0.142417	0.198148
C37	C	0.673070	-0.357616	-0.301859
C38	C	1.173070	0.142384	0.198141
C39	C	0.640408	-0.310191	-0.342004
C40	C	1.140408	0.189809	0.157996
C41	C	0.574972	-0.310171	-0.342007
C42	C	1.074972	0.189829	0.157993
C43	C	0.542201	-0.357590	-0.301871
C44	C	1.042201	0.142410	0.198129
C45	C	0.574871	-0.405018	-0.261718
C46	C	1.074871	0.094982	0.238282
C47	C	0.640305	-0.405031	-0.261712
C48	C	1.140305	0.094969	0.238288
C49	C	0.438489	-0.424470	-0.296834
C50	C	0.938489	0.075530	0.203166
C51	C	0.373056	-0.424458	-0.296844
C52	C	0.873056	0.075542	0.203156
C53	C	0.340381	-0.357549	-0.301885
C54	C	0.840381	0.142451	0.198115
C55	C	0.373146	-0.290650	-0.306929
C56	C	0.873146	0.209350	0.193071
C57	C	0.438580	-0.290663	-0.306923
C58	C	0.938580	0.209337	0.193077
C59	C	0.471249	-0.357580	-0.301872
C60	C	0.971249	0.142420	0.198128
C61	C	0.236766	-0.310099	-0.342034
C62	C	0.736766	0.189901	0.157966
C63	C	0.171330	-0.310078	-0.342032
C64	C	0.671330	0.189922	0.157968
C65	C	0.171230	-0.404931	-0.261747
C66	C	0.671230	0.095069	0.238253
C67	C	0.236665	-0.404945	-0.261746
C68	C	0.736665	0.095055	0.238254
C69	C	0.269429	-0.357530	-0.301893
C70	C	0.769429	0.142470	0.198107
C71	C	0.905450	-0.550499	-0.301845
C72	C	1.405450	-0.050499	0.198155
C73	C	0.905487	-0.633044	-0.301855
C74	C	1.405487	-0.133044	0.198145
C75	C	0.947412	-0.832463	-0.260067
C76	C	1.447412	-0.332463	0.239933
C77	C	0.962722	-0.881803	-0.317251
C78	C	1.462722	-0.381803	0.182749
C79	C	0.905523	-0.784175	-0.301880
C80	C	1.405523	-0.284175	0.198120
C81	C	0.890277	-0.881916	-0.244722
C82	C	1.390277	-0.381916	0.255278
C83	C	0.905558	-0.930160	-0.301899
C84	C	1.405558	-0.430160	0.198101
C85	C	0.920862	-0.832428	-0.359094
C86	C	1.420862	-0.332428	0.140906
C87	C	0.848390	-0.832537	-0.286526
C88	C	1.348390	-0.332537	0.213474
C89	C	0.863678	-0.881855	-0.343750
C90	C	1.363678	-0.381855	0.156250
C91	C	0.905504	-0.700076	-0.301868
C92	C	1.405504	-0.200076	0.198132
C93	C	0.905577	-1.014256	-0.301917
C94	C	1.405577	-0.514256	0.198083
C95	C	1.068922	-0.357511	-0.301888
C96	C	1.568922	0.142489	0.198112
C97	C	1.138563	-0.357496	-0.301895
C98	C	1.638563	0.142504	0.198105
C99	C	0.905551	-0.357531	-0.465293
C100	C	1.405551	0.142469	0.034707
C101	C	0.905573	-0.357525	-0.534934
C102	C	1.405573	0.142475	-0.034934
C103	C	0.905564	-0.163841	-0.301908
C104	C	1.405564	0.336159	0.198092
C105	C	0.905592	-0.081295	-0.301925
C106	C	1.405592	0.418705	0.198075
C107	C	0.945660	-0.310015	-0.567662
C108	C	1.445660	0.189985	-0.067662
C109	C	0.945660	-0.309983	-0.633098
C110	C	1.445660	0.190017	-0.133098
C111	C	0.905578	-0.357474	-0.665803
C112	C	1.405578	0.142526	-0.165803
C113	C	0.865482	-0.404988	-0.633067
C114	C	1.365482	0.095012	-0.133067
C115	C	0.865480	-0.405013	-0.567632
C116	C	1.365480	0.094987	-0.067632
C117	C	0.900614	-0.424345	-0.769469
C118	C	1.400614	0.075655	-0.269469
C119	C	0.900621	-0.424321	-0.834902
C120	C	1.400621	0.075679	-0.334902
C121	C	0.905582	-0.357396	-0.867623
C122	C	1.405582	0.142604	-0.367623
C123	C	0.910549	-0.290493	-0.834904
C124	C	1.410549	0.209507	-0.334904
C125	C	0.910546	-0.290518	-0.769470
C126	C	1.410546	0.209482	-0.269470
C127	C	0.905576	-0.357452	-0.736755
C128	C	1.405576	0.142548	-0.236755
C129	C	0.945670	-0.309848	-0.971304
C130	C	1.445670	0.190152	-0.471304
C131	C	0.945665	-0.309814	-1.036741
C132	C	1.445665	0.190186	-0.536741
C133	C	0.865491	-0.404825	-1.036708
C134	C	1.365491	0.095175	-0.536708
C135	C	0.865493	-0.404852	-0.971273
C136	C	1.365493	0.095148	-0.471273
C137	C	0.905586	-0.357364	-0.938575
C138	C	1.405586	0.142636	-0.438575
C139	C	0.905483	-0.357508	-0.139082
C140	C	1.405483	0.142492	0.360918
C141	C	0.905582	-0.357305	-0.069441
C142	C	1.405582	0.142695	0.430559
H143	H	0.465256	-0.236191	-0.311028
H144	H	0.965256	0.263809	0.188972
H145	H	0.828269	-0.903404	-0.379159
H146	H	1.328269	-0.403404	0.120841
F147	F	0.822822	-0.455529	-0.667874
F148	F	1.322822	0.044471	-0.167874
H149	H	0.914590	-0.235996	-0.861545
H150	H	1.414590	0.264004	-0.361545
F151	F	0.785233	-0.804230	-0.269516
F152	F	1.285233	-0.304230	0.230484
H153	H	0.978308	-0.271122	-1.063387
H154	H	1.478308	0.228878	-0.563387
F155	F	0.338376	-0.219434	-0.312293
F156	F	0.838376	0.280566	0.187707
H157	H	0.346383	-0.478932	-0.292740
H158	H	0.846383	0.021068	0.207260
H159	H	0.877367	-0.903654	-0.196376
H160	H	1.377367	-0.403654	0.303624
F161	F	0.988338	-0.259305	-0.936502
F162	F	1.488338	0.240695	-0.436502
H163	H	0.667080	-0.271581	-0.374694
H164	H	1.167080	0.228419	0.125306
F165	F	0.988329	-0.259471	-0.532866
F166	F	1.488329	0.240529	-0.032866
F167	F	0.822828	-0.455364	-1.071511
F168	F	1.322828	0.044636	-0.571511
F169	F	0.988318	-0.259403	-0.667936
F170	F	1.488318	0.240597	-0.167936
F171	F	0.271639	-0.259632	-0.384758
F172	F	0.771639	0.240368	0.115242
H173	H	0.548374	-0.271549	-0.374696
H174	H	1.048374	0.228451	0.125304
H175	H	0.465088	-0.478959	-0.292728
H176	H	0.965088	0.021041	0.207272
F177	F	0.822811	-0.455581	-0.532800
F178	F	1.322811	0.044419	-0.032800
H179	H	0.832853	-0.443544	-0.944625
H180	H	1.332853	0.056456	-0.444625
H181	H	1.011053	-0.903446	-0.330249
H182	H	1.511053	-0.403446	0.169751
H183	H	0.666898	-0.443651	-0.229021
H184	H	1.166898	0.056349	0.270979
F185	F	0.915830	-0.219317	-0.734650
F186	F	1.415830	0.280683	-0.234650
F187	F	0.993728	-0.804115	-0.213895
F188	F	1.493728	-0.304115	0.286105
H189	H	0.144737	-0.271454	-0.374722
H190	H	0.644737	0.228546	0.125278
F191	F	0.895339	-0.495525	-0.869718
F192	F	1.395339	0.004475	-0.369718
H193	H	0.144548	-0.443540	-0.229067
H194	H	0.644548	0.056460	0.270933
F195	F	0.271428	-0.455420	-0.219015
F196	F	0.771428	0.044580	0.280985
F197	F	0.937817	-0.804138	-0.422302
F198	F	1.437817	-0.304138	0.077698
H199	H	0.548185	-0.443626	-0.229039
H200	H	1.048185	0.056374	0.270961
H201	H	0.896406	-0.478830	-0.742832
H202	H	1.396406	0.021170	-0.242832
