data_functionalizedCrystal
_audit_creation_method	'MofGen! by Chris Wilmer'
_symmetry_space_group_name_H-M	'P1'
_symmetry_Int_Tables_number	1
_symmetry_cell_setting	triclinic
loop_
_symmetry_equiv_pos_as_xyz
  x,y,z
_cell_length_a	16.625548
_cell_length_b	19.121063
_cell_length_c	16.625539
_cell_angle_alpha	92.410374
_cell_angle_beta	89.982945
_cell_angle_gamma	92.470058
loop_
_atom_site_label
_atom_site_type_symbol
_atom_site_fract_x
_atom_site_fract_y
_atom_site_fract_z
Zn1	Zn	1.218929	-0.279606	-0.469578
Zn2	Zn	1.718929	0.220394	0.030422
Zn3	Zn	1.213076	-0.397060	-0.340487
Zn4	Zn	1.713076	0.102940	0.159513
Zn5	Zn	1.084098	-0.279629	-0.334759
Zn6	Zn	1.584098	0.220371	0.165241
Zn7	Zn	1.078299	-0.397023	-0.475275
Zn8	Zn	1.578299	0.102977	0.024725
O9	O	1.148601	-0.338330	-0.405025
O10	O	1.648601	0.161670	0.094975
O11	O	1.330985	-0.295192	-0.452466
O12	O	1.830985	0.204808	0.047534
O13	O	1.195945	-0.381507	-0.226896
O14	O	1.695945	0.118493	0.273104
O15	O	1.106861	-0.181341	-0.347862
O16	O	1.606861	0.318659	0.152138
O17	O	1.326685	-0.381485	-0.357624
O18	O	1.826685	0.118515	0.142376
O19	O	1.205920	-0.181324	-0.446913
O20	O	1.705920	0.318676	0.053087
O21	O	1.101185	-0.295231	-0.222688
O22	O	1.601185	0.204769	0.277312
O23	O	0.970497	-0.295196	-0.353386
O24	O	1.470497	0.204804	0.146614
O25	O	1.096976	-0.381423	-0.587350
O26	O	1.596976	0.118577	-0.087350
O27	O	0.966236	-0.381445	-0.456622
O28	O	1.466236	0.118555	0.043378
O29	O	1.200297	-0.295157	-0.583165
O30	O	1.700297	0.204843	-0.083165
O31	O	1.190321	-0.495340	-0.363148
O32	O	1.690321	0.004660	0.136852
O33	O	1.091301	-0.495313	-0.462176
O34	O	1.591301	0.004687	0.037824
C35	C	0.939110	-0.338320	-0.405002
C36	C	1.439110	0.161680	0.094998
C37	C	0.849489	-0.338332	-0.405012
C38	C	1.349489	0.161668	0.094988
C39	C	1.139568	-0.520811	-0.413919
C40	C	1.639568	-0.020811	0.086081
C41	C	1.135778	-0.598877	-0.417751
C42	C	1.635778	-0.098877	0.082249
C43	C	0.521313	-0.338337	-0.405046
C44	C	1.021313	0.161663	0.094954
C45	C	0.612621	-0.338334	-0.405034
C46	C	1.112621	0.161666	0.094966
C47	C	0.685398	-0.338335	-0.405028
C48	C	1.185398	0.161665	0.094972
C49	C	0.776712	-0.338331	-0.405017
C50	C	1.276712	0.161669	0.094983
C51	C	1.185592	-0.635543	-0.368035
C52	C	1.685592	-0.135543	0.131965
C53	C	1.182032	-0.708894	-0.371644
C54	C	1.682032	-0.208894	0.128356
C55	C	1.128653	-0.745578	-0.424965
C56	C	1.628653	-0.245578	0.075035
C57	C	1.078837	-0.708907	-0.474686
C58	C	1.578837	-0.208907	0.025314
C59	C	1.082402	-0.635557	-0.471081
C60	C	1.582402	-0.135557	0.028919
C61	C	1.115313	-0.967048	-0.438432
C62	C	1.615313	-0.467048	0.061568
C63	C	1.111750	-1.040404	-0.442031
C64	C	1.611750	-0.540404	0.057969
C65	C	1.214946	-1.040386	-0.338990
C66	C	1.714946	-0.540386	0.161010
C67	C	1.218503	-0.967035	-0.335386
C68	C	1.718503	-0.467035	0.164614
C69	C	1.168690	-0.930370	-0.385110
C70	C	1.668690	-0.430370	0.114890
C71	C	1.125011	-0.820555	-0.428653
C72	C	1.625011	-0.320555	0.071347
C73	C	1.172336	-0.855394	-0.381425
C74	C	1.672336	-0.355394	0.118575
C75	C	1.358909	-0.338340	-0.405048
C76	C	1.858909	0.161660	0.094952
C77	C	1.448530	-0.338345	-0.405058
C78	C	1.948530	0.161655	0.094942
C79	C	1.148642	-0.338283	-0.615331
C80	C	1.648642	0.161717	-0.115331
C81	C	1.148660	-0.338264	-0.704952
C82	C	1.648660	0.161736	-0.204952
C83	C	1.157690	-0.155136	-0.396113
C84	C	1.657690	0.344864	0.103887
C85	C	1.161564	-0.077070	-0.392316
C86	C	1.661564	0.422930	0.107684
C87	C	1.148674	-0.338248	-0.777733
C88	C	1.648674	0.161752	-0.277733
C89	C	1.148694	-0.338222	-0.869041
C90	C	1.648694	0.161778	-0.369041
C91	C	1.148715	-0.338197	-0.941816
C92	C	1.648715	0.161803	-0.441816
C93	C	1.148736	-0.338172	-1.033129
C94	C	1.648736	0.161828	-0.533129
C95	C	1.148608	-0.338325	-0.195534
C96	C	1.648608	0.161675	0.304466
C97	C	1.148756	-0.338147	-0.105904
C98	C	1.648756	0.161853	0.394096
H99	H	1.222595	-0.738745	-0.331160
H100	H	1.722595	-0.238745	0.168840
H101	H	1.041839	-0.605704	-0.511566
H102	H	1.541839	-0.105704	-0.011566
C103	C	1.277219	-0.926690	-0.276726
C104	C	1.777219	-0.426690	0.223274
C105	C	1.244758	-0.876335	-0.210912
C106	C	1.744758	-0.376335	0.289088
C107	C	1.303470	-0.835993	-0.152244
C108	C	1.803470	-0.335993	0.347756
C109	C	1.394643	-0.846006	-0.159390
C110	C	1.894643	-0.346006	0.340610
C111	C	1.427108	-0.896363	-0.225206
C112	C	1.927108	-0.396363	0.274794
C113	C	1.368396	-0.936705	-0.283874
C114	C	1.868396	-0.436705	0.216126
H115	H	1.177263	-0.868921	-0.205619
H116	H	1.677263	-0.368921	0.294381
H117	H	1.279437	-0.798715	-0.103522
H118	H	1.779437	-0.298715	0.396478
H119	H	1.438105	-0.816142	-0.115960
H120	H	1.938105	-0.316142	0.384040
H121	H	1.494603	-0.903777	-0.230499
H122	H	1.994603	-0.403777	0.269501
H123	H	1.392429	-0.973983	-0.332596
H124	H	1.892429	-0.473983	0.167404
H125	H	1.215800	-0.825524	-0.338014
H126	H	1.715800	-0.325524	0.161986
H127	H	1.229055	-0.605680	-0.324612
H128	H	1.729055	-0.105680	0.175388
H129	H	1.074751	-0.937202	-0.478917
H130	H	1.574751	-0.437202	0.021083
C131	C	1.066289	-0.860907	-0.487302
C132	C	1.566289	-0.360907	0.012698
C133	C	1.073299	-0.850764	-0.578472
C134	C	1.573299	-0.350764	-0.078472
C135	C	1.014578	-0.891117	-0.637123
C136	C	1.514578	-0.391117	-0.137123
C137	C	0.948847	-0.941612	-0.604602
C138	C	1.448847	-0.441612	-0.104602
C139	C	0.941835	-0.951757	-0.513427
C140	C	1.441835	-0.451757	-0.013427
C141	C	1.000556	-0.911404	-0.454777
C142	C	1.500556	-0.411404	0.045223
H143	H	1.121959	-0.813383	-0.602550
H144	H	1.621959	-0.313383	-0.102550
H145	H	1.019769	-0.883607	-0.704617
H146	H	1.519769	-0.383607	-0.204617
H147	H	0.905379	-0.971483	-0.648019
H148	H	1.405379	-0.471483	-0.148019
H149	H	0.893174	-0.989138	-0.489350
H150	H	1.393174	-0.489138	0.010650
H151	H	0.995364	-0.918914	-0.387283
H152	H	1.495364	-0.418914	0.112717
H153	H	1.035379	-0.738781	-0.518105
H154	H	1.535379	-0.238781	-0.018105
C155	C	1.269744	-1.080719	-0.284303
C156	C	1.769744	-0.580719	0.215697
C157	C	1.265831	-1.161401	-0.288265
C158	C	1.765831	-0.661401	0.211735
C159	C	1.320635	-1.201733	-0.233578
C160	C	1.820635	-0.701733	0.266422
C161	C	1.379352	-1.161382	-0.174928
C162	C	1.879352	-0.661382	0.325072
C163	C	1.383267	-1.080695	-0.170964
C164	C	1.883267	-0.580695	0.329036
C165	C	1.328463	-1.040364	-0.225651
C166	C	1.828463	-0.540364	0.274349
H167	H	1.222364	-1.191275	-0.331683
H168	H	1.722364	-0.691275	0.168317
H169	H	1.317737	-1.261462	-0.236513
H170	H	1.817737	-0.761462	0.263487
H171	H	1.419921	-1.191238	-0.134445
H172	H	1.919921	-0.691238	0.365555
H173	H	1.426735	-1.050822	-0.127545
H174	H	1.926735	-0.550822	0.372455
H175	H	1.331362	-0.980634	-0.222715
H176	H	1.831362	-0.480634	0.277285
H177	H	1.068292	-1.070270	-0.485466
H178	H	1.568292	-0.570270	0.014534
