data_functionalizedCrystal
_audit_creation_method	'MofGen! by Chris Wilmer'
_symmetry_space_group_name_H-M	'P1'
_symmetry_Int_Tables_number	1
_symmetry_cell_setting	triclinic
loop_
_symmetry_equiv_pos_as_xyz
  x,y,z
_cell_length_a	10.654550
_cell_length_b	15.944551
_cell_length_c	9.730223
_cell_angle_alpha	89.997716
_cell_angle_beta	89.996251
_cell_angle_gamma	83.991820
loop_
_atom_site_label
_atom_site_type_symbol
_atom_site_fract_x
_atom_site_fract_y
_atom_site_fract_z
O1	O	1.666308	0.117973	-0.114406
O2	O	1.300684	0.129213	-0.114384
O3	O	1.493480	0.001376	-0.114384
O4	O	1.473511	0.245810	-0.114407
O5	O	1.493478	0.001379	0.114196
O6	O	1.300681	0.129216	0.114196
O7	O	1.666305	0.117976	0.114174
Zn8	Zn	1.483493	0.123597	0.150477
Zn9	Zn	1.483496	0.123592	-0.150687
O10	O	1.473509	0.245813	0.114173
C11	C	1.253895	0.128389	-0.000092
C12	C	1.114484	0.125920	-0.000083
C13	C	1.034024	0.201188	-0.000110
C14	C	0.903034	0.198863	-0.000134
C15	C	0.932975	0.045995	-0.000108
C16	C	1.063963	0.048321	-0.000075
C17	C	1.016737	0.289446	-0.000131
C18	C	0.885746	0.287121	-0.000154
C19	C	1.492650	-0.029921	-0.000093
C20	C	1.490165	-0.123182	-0.000092
C21	C	1.364720	-0.338765	-0.000104
C22	C	1.422971	-0.399443	0.112596
C23	C	1.485668	-0.293934	-0.000103
C24	C	1.423002	-0.399430	-0.112765
C25	C	1.481317	-0.458872	-0.000119
C26	C	1.543953	-0.353384	0.112691
C27	C	1.543967	-0.353364	-0.112772
C28	C	1.602306	-0.414024	-0.000045
C29	C	1.488172	-0.198917	-0.000092
C30	C	1.478822	-0.553887	-0.000119
C31	C	1.713094	0.118800	-0.000122
C32	C	1.852505	0.121269	-0.000140
C33	C	1.474339	0.277110	-0.000120
C34	C	1.476824	0.370371	-0.000130
N35	N	1.483500	0.123599	0.356013
N36	N	1.483499	0.123583	-0.356224
C37	C	1.568892	0.067012	0.427939
C38	C	1.568889	0.067002	0.571822
C39	C	1.398098	0.180173	0.571840
C40	C	1.398096	0.180178	0.427959
C41	C	1.667501	0.001676	0.427931
C42	C	1.667498	0.001666	0.571814
H43	H	1.045621	0.323965	0.095532
H44	H	1.328552	0.226248	0.369398
H45	H	1.328563	0.226238	0.630434
H46	H	1.702787	-0.446602	0.000013
H47	H	1.371814	-0.419846	0.207881
H48	H	1.595065	-0.333096	0.208074
H49	H	1.646893	-0.062885	0.388884
C50	C	1.166164	-0.317680	0.118227
C51	C	1.229200	-0.294576	0.000050
H52	H	1.082505	-0.290394	0.118327
H53	H	1.163657	-0.377049	0.119034
H54	H	1.209570	-0.301250	0.197466
H55	H	1.185798	-0.311011	-0.079190
H56	H	1.231699	-0.235194	-0.000770
C57	C	0.761838	0.260802	0.198337
C58	C	0.823627	0.323115	0.133072
H59	H	0.723499	0.283018	0.280592
H60	H	0.698894	0.243162	0.138965
H61	H	0.821225	0.213970	0.219738
H62	H	0.764238	0.369944	0.111662
H63	H	0.886578	0.340767	0.192457
H64	H	0.891824	-0.017184	-0.000123
C65	C	0.742446	0.400065	-0.090131
C66	C	0.828812	0.332004	-0.129302
H67	H	0.707303	0.427774	-0.169860
H68	H	0.677010	0.380014	-0.037000
H69	H	0.784460	0.438575	-0.036986
H70	H	0.786795	0.293491	-0.182439
H71	H	0.894259	0.352054	-0.182456
H72	H	1.595080	-0.332939	-0.208062
H73	H	1.371831	-0.419804	-0.208051
H74	H	1.637774	-0.059344	0.616437
C75	C	1.870847	0.047414	0.474831
C76	C	1.790238	0.029286	0.367662
H77	H	1.946620	0.064455	0.437619
H78	H	1.830616	0.091577	0.529770
H79	H	1.889987	-0.001504	0.529771
H80	H	1.771090	0.078205	0.312728
H81	H	1.830476	-0.014882	0.312700
H82	H	1.763823	0.016057	0.610857
C83	C	1.080395	-0.103015	-0.000035
C84	C	1.152406	-0.034416	-0.000030
H85	H	1.135000	-0.154094	-0.000014
H86	H	1.028661	-0.100734	0.079655
H87	H	1.028704	-0.100744	-0.079767
H88	H	1.204091	-0.036684	0.079707
H89	H	1.204162	-0.036698	-0.079729
C90	C	1.007592	0.410084	-0.148887
C91	C	1.064393	0.327387	-0.133348
H92	H	1.037021	0.433506	-0.231128
H93	H	0.918595	0.409759	-0.153448
H94	H	1.028658	0.443074	-0.072630
H95	H	1.043319	0.294396	-0.209601
H96	H	1.153410	0.327707	-0.128799
