data_functionalizedCrystal
_audit_creation_method	'MofGen! by Chris Wilmer'
_symmetry_space_group_name_H-M	'P1'
_symmetry_Int_Tables_number	1
_symmetry_cell_setting	triclinic
loop_
_symmetry_equiv_pos_as_xyz
  x,y,z
_cell_length_a	17.640112
_cell_length_b	12.594516
_cell_length_c	17.640968
_cell_angle_alpha	78.772174
_cell_angle_beta	92.139080
_cell_angle_gamma	101.240082
loop_
_atom_site_label
_atom_site_type_symbol
_atom_site_fract_x
_atom_site_fract_y
_atom_site_fract_z
Zn1	Zn	1.247781	-0.030581	-0.195081
Zn2	Zn	1.581114	0.302752	0.138252
Zn3	Zn	1.914448	0.636086	0.471585
Zn4	Zn	1.222032	-0.250168	-0.068109
Zn5	Zn	1.555366	0.083165	0.265224
Zn6	Zn	1.888699	0.416498	0.598558
Zn7	Zn	1.095120	-0.099815	-0.093731
Zn8	Zn	1.428453	0.233518	0.239603
Zn9	Zn	1.761786	0.566852	0.572936
Zn10	Zn	1.120772	-0.236158	-0.220690
Zn11	Zn	1.454105	0.097175	0.112643
Zn12	Zn	1.787439	0.430508	0.445976
O13	O	1.171426	-0.154181	-0.144403
O14	O	1.504760	0.179153	0.188930
O15	O	1.838093	0.512486	0.522264
O16	O	1.350633	-0.036598	-0.156798
O17	O	1.683966	0.296735	0.176535
O18	O	2.017299	0.630068	0.509869
O19	O	1.183686	-0.265062	0.034764
O20	O	1.517019	0.068272	0.368097
O21	O	1.850352	0.401605	0.701430
O22	O	1.115411	0.058327	-0.107180
O23	O	1.448745	0.391661	0.226153
O24	O	1.782078	0.724994	0.559486
O25	O	1.331715	-0.197928	-0.063512
O26	O	1.665048	0.135405	0.269821
O27	O	1.998382	0.468738	0.603155
O28	O	1.227571	0.109193	-0.181642
O29	O	1.560904	0.442527	0.151691
O30	O	1.894237	0.775860	0.485024
O31	O	1.090444	-0.154598	0.015940
O32	O	1.423777	0.178736	0.349273
O33	O	1.757110	0.512069	0.682606
O34	O	0.992255	-0.141013	-0.132012
O35	O	1.325589	0.192321	0.201321
O36	O	1.658922	0.525654	0.534654
O37	O	1.159131	-0.174050	-0.323565
O38	O	1.492465	0.159283	0.009769
O39	O	1.825798	0.492617	0.343102
O40	O	1.011102	-0.241184	-0.225289
O41	O	1.344435	0.092150	0.108044
O42	O	1.677769	0.425483	0.441378
O43	O	1.252445	-0.023013	-0.304750
O44	O	1.585778	0.310320	0.028583
O45	O	1.919111	0.643653	0.361917
O46	O	1.208559	-0.397268	-0.088344
O47	O	1.541893	-0.063935	0.244989
O48	O	1.875226	0.269398	0.578323
O49	O	1.134164	-0.386975	-0.200445
O50	O	1.467497	-0.053642	0.132888
O51	O	1.800830	0.279692	0.466222
C52	C	0.974125	-0.197091	-0.184210
C53	C	1.307458	0.136242	0.149123
C54	C	1.640792	0.469575	0.482456
C55	C	0.889722	-0.215468	-0.201258
C56	C	1.223056	0.117865	0.132075
C57	C	1.556389	0.451198	0.465409
C58	C	1.171375	-0.430735	-0.144405
C59	C	1.504708	-0.097402	0.188928
C60	C	1.838042	0.235932	0.522261
C61	C	1.171428	-0.549023	-0.144418
C62	C	1.504761	-0.215689	0.188915
C63	C	1.838094	0.117644	0.522249
C64	C	0.563040	-0.014551	-0.014899
C65	C	0.896374	0.318782	0.318435
C66	C	1.229707	0.652115	0.651768
C67	C	0.483733	-0.031838	-0.030928
C68	C	0.817067	0.301496	0.302405
C69	C	1.150400	0.634829	0.635739
C70	C	0.503379	-0.136388	-0.127890
C71	C	0.836712	0.196946	0.205444
C72	C	1.170045	0.530279	0.538777
C73	C	0.582690	-0.119106	-0.111871
C74	C	0.916023	0.214228	0.221462
C75	C	1.249356	0.547561	0.554796
C76	C	0.612514	-0.058188	-0.055374
C77	C	0.945847	0.275146	0.277959
C78	C	1.279180	0.608479	0.611292
C79	C	0.632163	-0.162742	-0.152347
C80	C	0.965496	0.170591	0.180987
C81	C	1.298830	0.503925	0.514320
C82	C	0.711466	-0.145466	-0.136326
C83	C	1.044800	0.187867	0.197007
C84	C	1.378133	0.521201	0.530340
C85	C	0.741296	-0.084554	-0.079830
C86	C	1.074630	0.248780	0.253503
C87	C	1.407963	0.582113	0.586836
C88	C	0.691817	-0.040912	-0.039354
C89	C	1.025150	0.292422	0.293979
C90	C	1.358484	0.625755	0.627313
C91	C	0.602336	-0.223666	-0.208839
C92	C	0.935670	0.109667	0.124494
C93	C	1.269003	0.443000	0.457827
C94	C	0.651810	-0.267303	-0.249315
C95	C	0.985143	0.066031	0.084018
C96	C	1.318476	0.399364	0.417352
C97	C	0.731115	-0.250020	-0.233299
C98	C	1.064449	0.083313	0.100035
C99	C	1.397782	0.416646	0.433368
C100	C	0.760946	-0.189108	-0.176803
C101	C	1.094279	0.144225	0.156530
C102	C	1.427612	0.477559	0.489864
C103	C	0.780595	-0.293662	-0.273775
C104	C	1.113928	0.039671	0.059558
C105	C	1.447261	0.373004	0.392891
C106	C	0.859898	-0.276386	-0.257755
C107	C	1.193231	0.056947	0.075578
C108	C	1.526565	0.390280	0.408912
C109	C	0.840249	-0.171832	-0.160783
C110	C	1.173582	0.161501	0.172551
C111	C	1.506916	0.494835	0.505884
C112	C	1.130952	-0.612729	-0.205355
C113	C	1.464285	-0.279395	0.127978
C114	C	1.797618	0.053938	0.461312
C115	C	1.098441	-0.710300	-0.139790
C116	C	1.431774	-0.376966	0.193543
C117	C	1.765107	-0.043633	0.526877
C118	C	1.204011	-0.662232	-0.209981
C119	C	1.537344	-0.328898	0.123353
C120	C	1.870677	0.004435	0.456686
C121	C	1.138872	-0.645055	-0.078824
C122	C	1.472206	-0.311722	0.254510
C123	C	1.805539	0.021611	0.587843
C124	C	1.244484	-0.596959	-0.149055
C125	C	1.577817	-0.263625	0.184279
C126	C	1.911151	0.069708	0.517612
C127	C	1.211989	-0.694508	-0.083437
C128	C	1.545323	-0.361174	0.249897
C129	C	1.878656	-0.027841	0.583230
C130	C	1.369498	-0.111103	-0.104440
C131	C	1.702831	0.222230	0.228893
C132	C	2.036165	0.555563	0.562226
C133	C	1.453905	-0.092746	-0.087411
C134	C	1.787238	0.240587	0.245923
C135	C	2.120571	0.573921	0.579256
C136	C	1.211522	-0.089246	-0.342483
C137	C	1.544855	0.244087	-0.009149
C138	C	1.878188	0.577421	0.324184
C139	C	1.228608	-0.061575	-0.426893
C140	C	1.561941	0.271759	-0.093559
C141	C	1.895275	0.605092	0.239774
C142	C	1.171502	0.123463	-0.144413
C143	C	1.504835	0.456797	0.188921
C144	C	1.838168	0.790130	0.522254
C145	C	1.171534	0.241779	-0.144417
C146	C	1.504867	0.575112	0.188916
C147	C	1.838201	0.908445	0.522250
C148	C	1.041915	-0.363754	-0.753480
C149	C	1.375249	-0.030421	-0.420146
C150	C	1.708582	0.302913	-0.086813
C151	C	1.057987	-0.337736	-0.832792
C152	C	1.391320	-0.004402	-0.499459
C153	C	1.724653	0.328931	-0.166126
C154	C	1.155145	-0.180474	-0.813192
C155	C	1.488479	0.152859	-0.479858
C156	C	1.821812	0.486192	-0.146525
C157	C	1.139080	-0.206477	-0.733876
C158	C	1.472413	0.126857	-0.400543
C159	C	1.805746	0.460190	-0.067209
C160	C	1.082465	-0.298118	-0.704027
C161	C	1.415798	0.035215	-0.370693
C162	C	1.749131	0.368548	-0.037360
C163	C	1.179629	-0.140841	-0.684423
C164	C	1.512962	0.192492	-0.351090
C165	C	1.846295	0.525826	-0.017757
C166	C	1.163567	-0.166845	-0.605114
C167	C	1.496900	0.166489	-0.271781
C168	C	1.830234	0.499822	0.061552
C169	C	1.106956	-0.258484	-0.575258
C170	C	1.440290	0.074849	-0.241925
C171	C	1.773623	0.408183	0.091409
C172	C	1.066403	-0.324122	-0.624718
C173	C	1.399736	0.009211	-0.291384
C174	C	1.733069	0.342544	0.041949
C175	C	1.236247	-0.049204	-0.714274
C176	C	1.569581	0.284129	-0.380940
C177	C	1.902914	0.617463	-0.047607
C178	C	1.276797	0.016432	-0.664821
C179	C	1.610130	0.349765	-0.331487
C180	C	1.943463	0.683098	0.001846
C181	C	1.260731	-0.009567	-0.585511
C182	C	1.594065	0.323766	-0.252177
C183	C	1.927398	0.657100	0.081156
C184	C	1.204120	-0.101207	-0.555655
C185	C	1.537454	0.232127	-0.222321
C186	C	1.870787	0.565460	0.111012
C187	C	1.301285	0.056071	-0.536051
C188	C	1.634618	0.389404	-0.202718
C189	C	1.967951	0.722738	0.130615
C190	C	1.285223	0.030067	-0.456742
C191	C	1.618556	0.363401	-0.123409
C192	C	1.951890	0.696734	0.209924
C193	C	1.188059	-0.127210	-0.476346
C194	C	1.521392	0.206123	-0.143012
C195	C	1.854725	0.539456	0.190321
C196	C	1.131531	-0.218777	0.052915
C197	C	1.464864	0.114557	0.386249
C198	C	1.798197	0.447890	0.719582
C199	C	1.114592	-0.246116	0.137354
C200	C	1.447925	0.087217	0.470688
C201	C	1.781258	0.420551	0.804021
H202	H	0.864535	-0.122207	-0.114788
H203	H	1.197869	0.211126	0.218545
H204	H	1.531202	0.544460	0.551878
H205	H	1.096633	-0.577032	-0.256840
H206	H	1.429967	-0.243699	0.076493
H207	H	1.763300	0.089634	0.409826
H208	H	0.756298	-0.343271	-0.319769
H209	H	1.089632	-0.009937	0.013564
H210	H	1.422965	0.323396	0.346897
H211	H	1.201243	-0.105862	-0.837506
H212	H	1.534577	0.227471	-0.504173
H213	H	1.867910	0.560804	-0.170839
Cl214	Cl	1.256442	-0.016517	-0.813977
Cl215	Cl	1.589775	0.316816	-0.480644
Cl216	Cl	1.923108	0.650150	-0.147311
Cl217	Cl	1.007001	-0.420257	-0.894961
Cl218	Cl	1.340334	-0.086924	-0.561628
Cl219	Cl	1.673668	0.246409	-0.228295
H220	H	1.322895	0.091044	-0.689135
H221	H	1.656228	0.424377	-0.355802
H222	H	1.989561	0.757711	-0.022468
Cl223	Cl	1.003123	-0.786088	-0.133722
Cl224	Cl	1.336456	-0.452755	0.199611
Cl225	Cl	1.669789	-0.119421	0.532945
H226	H	1.111287	-0.636769	-0.023376
H227	H	1.444621	-0.303436	0.309958
H228	H	1.777954	0.029897	0.643291
Cl229	Cl	1.372463	0.171263	-0.573585
Cl230	Cl	1.705796	0.504596	-0.240252
Cl231	Cl	2.039130	0.837929	0.093082
H232	H	0.537762	-0.237731	-0.221881
H233	H	0.871095	0.095603	0.111452
H234	H	1.204428	0.428936	0.444786
H235	H	1.246254	-0.730048	-0.031854
H236	H	1.579587	-0.396715	0.301479
H237	H	1.912921	-0.063382	0.634812
H238	H	1.093883	-0.279658	-0.510678
H239	H	1.427216	0.053675	-0.177345
H240	H	1.760549	0.387009	0.155988
H241	H	1.020283	-0.398725	-0.600417
H242	H	1.353616	-0.065391	-0.267083
H243	H	1.686950	0.267942	0.066250
H244	H	0.627515	-0.316906	-0.295312
H245	H	0.960848	0.016427	0.038021
H246	H	1.294182	0.349761	0.371354
Cl247	Cl	1.339784	-0.521126	-0.155158
Cl248	Cl	1.673117	-0.187793	0.178175
Cl249	Cl	2.006451	0.145540	0.511509
Cl250	Cl	0.970734	-0.478955	-0.715950
Cl251	Cl	1.304067	-0.145622	-0.382616
Cl252	Cl	1.637401	0.187711	-0.049283
H253	H	1.231525	-0.670666	-0.265426
H254	H	1.564858	-0.337333	0.067907
H255	H	1.898191	-0.003999	0.401240
H256	H	0.900181	-0.311918	-0.290715
H257	H	1.233514	0.021415	0.042618
H258	H	1.566848	0.354749	0.375952
Cl259	Cl	1.336202	0.112578	-0.394568
Cl260	Cl	1.669535	0.445912	-0.061235
Cl261	Cl	2.002869	0.779245	0.272098
Cl262	Cl	0.840993	-0.062840	-0.059685
Cl263	Cl	1.174326	0.270493	0.273648
Cl264	Cl	1.507659	0.603826	0.606981
Cl265	Cl	0.729317	0.035681	0.031667
Cl266	Cl	1.062651	0.369014	0.365000
Cl267	Cl	1.395984	0.702348	0.698334
H268	H	0.443454	0.003710	0.002031
H269	H	0.776788	0.337043	0.335364
H270	H	1.110121	0.670377	0.668698
Cl271	Cl	0.600541	0.062041	0.056122
Cl272	Cl	0.933874	0.395375	0.389455
Cl273	Cl	1.267207	0.728708	0.722789
H274	H	1.141939	-0.201813	-0.452045
H275	H	1.475272	0.131521	-0.118711
H276	H	1.808605	0.464854	0.214622
H277	H	0.479084	-0.185991	-0.173887
H278	H	0.812417	0.147342	0.159446
H279	H	1.145751	0.480676	0.492779
