data_functionalizedCrystal
_audit_creation_method	'MofGen! by Chris Wilmer'
_symmetry_space_group_name_H-M	'P1'
_symmetry_Int_Tables_number	1
_symmetry_cell_setting	triclinic
loop_
_symmetry_equiv_pos_as_xyz
  x,y,z
_cell_length_a	17.000371
_cell_length_b	16.098538
_cell_length_c	13.339070
_cell_angle_alpha	93.467723
_cell_angle_beta	84.385729
_cell_angle_gamma	92.522126
loop_
_atom_site_label
_atom_site_type_symbol
_atom_site_fract_x
_atom_site_fract_y
_atom_site_fract_z
O1	O	1.066514	0.069259	-0.031005
O2	O	0.842733	0.069259	-0.067013
O3	O	0.928941	0.069257	0.095970
O4	O	0.980306	0.069262	-0.193988
O5	O	0.923897	-0.069256	0.086484
O6	O	0.837690	-0.069254	-0.076499
O7	O	1.061470	-0.069254	-0.040491
Zn8	Zn	0.948779	-0.091246	-0.060001
Zn9	Zn	0.955424	0.091251	-0.047503
O10	O	0.975263	-0.069251	-0.203474
C11	C	0.810985	0.000003	-0.073690
C12	C	0.723896	0.000003	-0.079441
N13	N	0.944250	-0.215795	-0.068530
C14	C	0.672326	-0.000000	0.009061
C15	C	0.590498	0.000006	0.003652
C16	C	0.560242	0.000009	-0.090261
C17	C	0.611819	0.000015	-0.178770
C18	C	0.693646	0.000015	-0.173360
C19	C	0.313712	0.000015	-0.111161
C20	C	0.231878	0.000013	-0.116565
C21	C	0.210562	0.000006	0.065858
C22	C	0.292391	0.000001	0.071260
C23	C	0.343962	0.000011	-0.017248
C24	C	0.476600	0.000013	-0.095793
C25	C	0.427602	0.000013	-0.011715
C26	C	0.980863	-0.259381	0.000626
C27	C	0.977704	-0.346570	-0.005349
C28	C	0.937936	-0.390171	-0.080484
C29	C	0.901317	-0.346578	-0.149643
C30	C	0.904472	-0.259391	-0.143663
C31	C	0.926495	-0.653420	-0.102145
C32	C	0.923345	-0.740614	-0.108122
C33	C	0.999731	-0.740599	0.036174
C34	C	1.002886	-0.653410	0.042144
C35	C	0.966264	-0.609825	-0.027012
C36	C	0.934707	-0.479292	-0.086595
C37	C	0.969488	-0.520706	-0.020896
C38	C	1.093219	0.000004	-0.033814
C39	C	1.180308	0.000010	-0.028062
C40	C	0.917742	0.000001	0.128144
C41	C	0.891879	0.000005	0.238146
N42	N	0.959958	0.215800	-0.038966
C43	C	0.986461	0.000006	-0.235648
C44	C	1.012324	0.000008	-0.345649
C45	C	1.092977	0.000004	0.620827
C46	C	1.117278	-0.000004	0.517475
C47	C	1.060931	-0.000001	0.447638
C48	C	0.980277	0.000008	0.481162
C49	C	0.955973	0.000010	0.584523
C50	C	0.923927	0.000004	0.411334
C51	C	0.843273	0.000014	0.444858
C52	C	0.818973	0.000016	0.548210
C53	C	0.875321	0.000014	0.618047
C54	C	0.948231	0.000003	0.307973
C55	C	0.811227	0.000009	0.271670
C56	C	0.786926	0.000016	0.375021
H57	H	0.548511	0.000004	0.075720
H58	H	0.735635	0.000013	-0.245428
N59	N	0.366396	0.000022	-0.201554
N60	N	0.416562	0.058408	-0.214890
H61	H	0.453777	0.058412	-0.278732
H62	H	0.451957	0.000014	-0.172257
H63	H	0.452240	0.000015	0.064749
H64	H	1.001864	-0.485203	0.040283
N65	N	0.703214	-0.000015	0.105000
N66	N	0.657155	-0.000018	0.184012
H67	H	0.678967	-0.000028	0.251773
H68	H	0.896678	-0.617941	-0.158456
N69	N	1.150537	0.000005	0.692147
N70	N	1.222546	0.000002	0.662208
H71	H	1.263204	0.000002	0.712579
N72	N	0.580904	0.000030	-0.274693
N73	N	0.507844	0.000032	-0.279513
H74	H	0.486010	0.000043	-0.347260
H75	H	1.013251	-0.223886	0.061805
N76	N	0.867064	-0.214879	-0.214307
N77	N	0.831558	-0.253816	-0.281388
H78	H	0.805134	-0.222381	-0.331281
N79	N	0.323291	-0.000013	0.167193
N80	N	0.304887	-0.058402	0.223659
H81	H	0.326709	-0.058415	0.291414
N82	N	0.200965	0.000005	-0.212498
N83	N	0.215109	-0.058378	-0.276970
H84	H	0.193274	-0.058387	-0.344718
H85	H	1.013900	-0.000005	0.280689
H86	H	1.080722	-0.000008	0.363485
N87	N	0.157885	-0.000014	0.156261
N88	N	0.107722	-0.058403	0.169598
H89	H	0.070518	-0.058417	0.233450
N90	N	0.860690	-0.391126	-0.226379
N91	N	0.857878	-0.468971	-0.231710
H92	H	0.829185	-0.500433	-0.285907
N93	N	1.015089	-0.391070	0.065326
N94	N	0.994110	-0.381311	0.157598
H95	H	1.020511	-0.412731	0.207526
N96	N	0.882700	-0.785145	-0.184862
N97	N	0.810589	-0.775430	-0.189181
H98	H	0.781883	-0.806882	-0.243373
H99	H	1.035269	-0.617912	0.103324
N100	N	1.199654	-0.000005	0.483217
N101	N	1.221344	-0.000008	0.390933
H102	H	1.279527	-0.000009	0.366736
H103	H	0.753299	0.000018	0.575500
N104	N	0.704546	0.000030	0.409289
N105	N	0.682861	0.000035	0.501573
H106	H	0.624681	0.000046	0.525777
N107	N	0.753664	0.000031	0.200344
N108	N	0.707214	0.058422	0.203728
H109	H	0.666564	0.058438	0.153349
N110	N	1.037132	-0.785133	0.106802
N111	N	1.034313	-0.862978	0.101456
H112	H	1.060727	-0.894431	0.151342
H113	H	0.902329	-0.514799	-0.147773
H114	H	0.855538	0.000023	0.702206
