data_functionalizedCrystal
_audit_creation_method	'MofGen! by Chris Wilmer'
_symmetry_space_group_name_H-M	'P1'
_symmetry_Int_Tables_number	1
_symmetry_cell_setting	triclinic
loop_
_symmetry_equiv_pos_as_xyz
  x,y,z
_cell_length_a	17.640112
_cell_length_b	17.640280
_cell_length_c	12.759387
_cell_angle_alpha	101.231497
_cell_angle_beta	78.825978
_cell_angle_gamma	92.184069
loop_
_atom_site_label
_atom_site_type_symbol
_atom_site_fract_x
_atom_site_fract_y
_atom_site_fract_z
Zn1	Zn	1.221971	-0.067356	0.248129
Zn2	Zn	1.247569	-0.194371	0.031483
Zn3	Zn	1.094998	-0.093089	0.099618
Zn4	Zn	1.120651	-0.219994	0.234289
O5	O	1.171297	-0.143702	0.153380
O6	O	1.331622	-0.062712	0.196668
O7	O	1.227308	-0.180982	-0.106506
O8	O	1.090393	0.016591	0.153625
O9	O	1.350428	-0.156029	0.037499
O10	O	1.183680	0.035497	0.262736
O11	O	1.115214	-0.106570	-0.056448
O12	O	0.992147	-0.131416	0.140205
O13	O	1.134114	-0.199700	0.383153
O14	O	1.010993	-0.224652	0.239147
O15	O	1.208554	-0.087557	0.393321
O16	O	1.252182	-0.304036	0.024079
O17	O	1.158935	-0.322861	0.173080
C18	C	0.974019	-0.183607	0.195568
C19	C	0.889627	-0.200697	0.213635
C20	C	0.562832	-0.013859	0.016137
C21	C	0.483535	-0.029933	0.033123
C22	C	0.503241	-0.127154	0.135877
C23	C	0.582541	-0.111085	0.118904
C24	C	0.612329	-0.054438	0.059032
C25	C	0.632038	-0.151664	0.161799
C26	C	0.711331	-0.135600	0.144822
C27	C	0.741127	-0.078956	0.084950
C28	C	0.691622	-0.038373	0.042055
C29	C	0.602249	-0.208315	0.221664
C30	C	0.651747	-0.248894	0.264559
C31	C	0.731040	-0.232826	0.247589
C32	C	0.760836	-0.176183	0.187717
C33	C	0.780545	-0.273409	0.290484
C34	C	0.859838	-0.257345	0.273507
C35	C	0.840129	-0.160118	0.170740
C36	C	1.211140	-0.340998	0.089703
C37	C	1.228255	-0.425388	0.062481
C38	C	1.041593	-0.752122	0.360491
C39	C	1.057676	-0.831419	0.334879
C40	C	1.154834	-0.811739	0.179848
C41	C	1.138761	-0.732438	0.205450
C42	C	1.082139	-0.702636	0.295772
C43	C	1.179308	-0.682952	0.140731
C44	C	1.163234	-0.603659	0.166328
C45	C	1.106613	-0.573852	0.256644
C46	C	1.066065	-0.623343	0.321370
C47	C	1.235926	-0.712756	0.050405
C48	C	1.276473	-0.663271	-0.014314
C49	C	1.260403	-0.583975	0.011287
C50	C	1.203782	-0.554167	0.101603
C51	C	1.300951	-0.534483	-0.053438
C52	C	1.284877	-0.455190	-0.027841
C53	C	1.187708	-0.474874	0.127200
C54	C	1.369346	-0.103642	0.111027
C55	C	1.453742	-0.086570	0.092979
C56	C	1.171340	-0.143616	0.427425
C57	C	1.171358	-0.143580	0.544207
C58	C	1.131320	0.054369	0.217324
C59	C	1.114283	0.138775	0.244574
C60	C	1.171288	-0.143724	-0.119591
C61	C	1.171374	-0.143517	-0.236335
C62	C	1.248880	-0.026810	0.554812
C63	C	1.287649	0.031588	0.614976
C64	C	1.287662	0.031619	0.724703
C65	C	1.248900	-0.026753	0.774268
C66	C	1.210130	-0.085151	0.714103
C67	C	1.210123	-0.085177	0.604374
C68	C	1.132604	-0.201915	0.703501
C69	C	1.132595	-0.201951	0.593772
C70	C	1.093842	-0.260287	0.753066
C71	C	1.055076	-0.318689	0.692899
C72	C	1.055065	-0.318719	0.583166
C73	C	1.093826	-0.260349	0.533608
H74	H	0.805693	-0.065879	0.071126
O75	O	1.017520	-0.375464	0.524570
C76	C	1.070645	-0.415802	0.436042
H77	H	1.122784	-0.377390	0.415954
H78	H	1.041765	-0.432254	0.362204
H79	H	1.090342	-0.470381	0.458380
H80	H	1.024662	-0.871707	0.387599
O81	O	0.907875	-0.296683	0.315362
C82	C	0.885195	-0.284106	0.429578
H83	H	0.851133	-0.227866	0.459264
H84	H	0.938694	-0.280116	0.468170
H85	H	0.847418	-0.334164	0.453657
O86	O	1.132654	-0.445845	0.214836
C87	C	1.074337	-0.409977	0.180239
H88	H	1.098735	-0.392685	0.098746
H89	H	1.052843	-0.356270	0.243206
H90	H	1.024276	-0.451969	0.170791
O91	O	0.435431	0.009381	-0.008664
C92	C	0.398239	-0.043084	-0.080703
H93	H	0.434220	-0.098043	-0.111771
H94	H	0.391727	-0.015731	-0.152392
H95	H	0.338697	-0.057904	-0.036200
H96	H	0.537683	-0.221393	0.235485
O97	O	0.622674	-0.303870	0.322733
C98	C	0.542077	-0.309365	0.328495
H99	H	0.519381	-0.252934	0.315458
H100	H	0.513025	-0.320677	0.411942
H101	H	0.528651	-0.358925	0.262746
O102	O	0.869181	-0.105177	0.112481
C103	C	0.923734	-0.139073	0.020763
H104	H	0.947257	-0.194245	0.036555
H105	H	0.973240	-0.096843	0.004809
H106	H	0.894822	-0.153541	-0.053241
H107	H	0.715875	0.007766	-0.006679
O108	O	0.751662	-0.328535	0.348490
C109	C	0.786342	-0.400269	0.296812
H110	H	0.808869	-0.399627	0.206995
H111	H	0.741787	-0.448357	0.304833
H112	H	0.836413	-0.410829	0.336817
H113	H	1.093521	-0.509286	0.277478
H114	H	1.019963	-0.599077	0.394926
O115	O	0.474169	-0.182130	0.194051
C116	C	0.393571	-0.187624	0.199813
H117	H	0.370875	-0.131194	0.186776
H118	H	0.364519	-0.198936	0.283260
H119	H	0.380146	-0.237184	0.134064
H120	H	1.023514	-0.366208	0.733266
O121	O	0.986552	-0.723296	0.448255
C122	C	0.954229	-0.783970	0.499921
H123	H	0.963064	-0.841044	0.439195
H124	H	0.889769	-0.773199	0.531258
H125	H	0.983716	-0.786730	0.571088
H126	H	1.200933	-0.836015	0.106305
O127	O	1.324285	-0.407025	-0.090541
C128	C	1.364006	-0.351188	-0.026329
H129	H	1.334784	-0.344724	0.062830
H130	H	1.362895	-0.293376	-0.053294
H131	H	1.426455	-0.370312	-0.036601
O132	O	1.251685	-0.789753	0.025509
C133	C	1.329800	-0.801449	0.028503
H134	H	1.364268	-0.746872	0.016009
H135	H	1.354072	-0.851768	-0.038892
H136	H	1.334227	-0.815163	0.110809
H137	H	1.319207	0.079114	0.574609
O138	O	1.325388	0.088385	0.782982
C139	C	1.359578	0.139911	0.715722
H140	H	1.368477	0.109322	0.626897
H141	H	1.417772	0.160115	0.737258
H142	H	1.320135	0.191962	0.728622
H143	H	1.347047	-0.558761	-0.126984
H144	H	1.322572	-0.687547	-0.087857
O145	O	1.093961	-0.260349	0.426988
C146	C	1.170667	-0.265168	0.368481
H147	H	1.211788	-0.243341	0.426563
H148	H	1.177253	-0.228199	0.303254
H149	H	1.184984	-0.327857	0.328316
H150	H	1.248882	-0.026836	0.465463
O151	O	1.249010	-0.026622	0.880856
C152	C	1.291518	0.037452	0.923340
H153	H	1.333733	0.057039	0.854060
H154	H	1.324957	0.020387	0.983198
H155	H	1.250238	0.086743	0.967116
H156	H	0.587084	0.032280	-0.032597
H157	H	1.093851	-0.260255	0.842413
