data_functionalizedCrystal
_audit_creation_method	'MofGen! by Chris Wilmer'
_symmetry_space_group_name_H-M	'P1'
_symmetry_Int_Tables_number	1
_symmetry_cell_setting	triclinic
loop_
_symmetry_equiv_pos_as_xyz
  x,y,z
_cell_length_a	10.489741
_cell_length_b	10.967874
_cell_length_c	10.065875
_cell_angle_alpha	69.229500
_cell_angle_beta	98.879541
_cell_angle_gamma	84.625916
loop_
_atom_site_label
_atom_site_type_symbol
_atom_site_fract_x
_atom_site_fract_y
_atom_site_fract_z
O1	O	0.093269	1.740665	-0.522868
O2	O	0.124927	1.363375	-0.434138
O3	O	-0.076835	1.560603	-0.480513
O4	O	0.295030	1.543436	-0.476492
O5	O	-0.038212	1.522996	-0.244682
O6	O	0.163550	1.325767	-0.198307
O7	O	0.131892	1.703057	-0.287036
Zn8	Zn	0.153853	1.508441	-0.205228
Zn9	Zn	0.102966	1.557991	-0.515946
O10	O	0.333653	1.505828	-0.240661
C11	C	0.144853	1.296259	-0.304860
C12	C	0.146669	1.152304	-0.271005
C13	C	0.127471	1.107606	-0.378080
C14	C	0.129348	0.958822	-0.343092
C15	C	-0.105004	1.540503	-0.362294
C16	C	-0.246482	1.536624	-0.361384
C17	C	-0.309713	1.411133	-0.331881
C18	C	-0.385112	1.451872	-0.229546
C19	C	-0.423167	1.488980	-0.462064
C20	C	-0.320002	1.577399	-0.258964
C21	C	-0.358064	1.614506	-0.491583
C22	C	-0.433435	1.655331	-0.389240
C23	C	0.361822	1.525929	-0.358884
C24	C	0.503299	1.529810	-0.359803
C25	C	0.111965	1.770174	-0.416317
C26	C	0.110147	1.914130	-0.450181
N27	N	0.188581	1.474634	0.006827
N28	N	0.068227	1.591808	-0.728003
C29	C	0.115041	1.546220	0.057773
C30	C	0.141778	1.520212	0.221056
H31	H	0.109652	1.179488	-0.495652
O32	O	-0.245813	1.287993	-0.302976
C33	C	-0.300268	1.240736	-0.408762
H34	H	-0.404497	1.294634	-0.460044
H35	H	-0.238988	1.259124	-0.496098
C36	C	-0.173720	1.025273	-0.274084
C37	C	-0.301740	1.091463	-0.337061
H38	H	-0.174623	0.933194	-0.229859
H39	H	-0.137028	1.057111	-0.202816
H40	H	-0.122667	1.040610	-0.346875
H41	H	-0.352785	1.076139	-0.264268
H42	H	-0.338440	1.059619	-0.408315
H43	H	0.164502	1.080421	-0.153433
H44	H	0.092329	0.986006	-0.567762
H45	H	-0.397946	1.383097	-0.118754
H46	H	0.147182	0.886942	-0.225511
O47	O	-0.030457	1.687962	0.179835
C48	C	-0.008165	1.810991	0.185462
H49	H	0.058431	1.794555	0.293151
H50	H	0.040415	1.865032	0.092336
C51	C	-0.221195	1.914772	0.039673
C52	C	-0.139409	1.894585	0.171943
H53	H	-0.302151	1.966340	0.031327
H54	H	-0.236212	1.831886	0.035876
H55	H	-0.180695	1.959801	-0.037918
H56	H	-0.179901	1.849542	0.249531
H57	H	-0.124401	1.977466	0.175753
O58	O	-0.266588	1.621815	-0.156259
C59	C	-0.280470	1.536414	-0.018507
H60	H	-0.365171	1.480883	-0.031525
H61	H	-0.186462	1.462681	0.037423
C62	C	-0.204177	1.685945	0.089985
C63	C	-0.308215	1.617749	0.073998
H64	H	-0.221285	1.736114	0.147050
H65	H	-0.194819	1.743480	-0.002820
H66	H	-0.125846	1.624489	0.136589
H67	H	-0.386540	1.679205	0.027379
H68	H	-0.317587	1.560226	0.166797
O69	O	-0.497122	1.778499	-0.417897
C70	C	-0.443876	1.824593	-0.310601
H71	H	-0.394407	1.736864	-0.207868
H72	H	-0.368859	1.889963	-0.351606
C73	C	-0.614630	2.012896	-0.402960
C74	C	-0.553881	1.905145	-0.276777
H75	H	-0.682484	2.062589	-0.382099
H76	H	-0.650501	1.981845	-0.475251
H77	H	-0.552103	2.067356	-0.437118
H78	H	-0.616404	1.850678	-0.242631
H79	H	-0.518023	1.936188	-0.204479
H80	H	-0.345196	1.683236	-0.602369
O81	O	0.287162	1.378465	0.099162
C82	C	0.235463	1.284005	0.204024
H83	H	0.137651	1.330946	0.214241
H84	H	0.220599	1.197100	0.169496
C85	C	0.451334	1.177152	0.338860
C86	C	0.331204	1.234810	0.351418
H87	H	0.510393	1.146800	0.429779
H88	H	0.486165	1.240787	0.268211
H89	H	0.438929	1.104738	0.310082
H90	H	0.343607	1.307231	0.380178
H91	H	0.296377	1.171184	0.422076
O92	O	0.016283	1.642186	-0.034543
C93	C	-0.074126	1.585429	-0.103847
H94	H	-0.023720	1.488031	-0.102158
H95	H	-0.158791	1.566495	-0.044453
C96	C	-0.188516	1.800202	-0.264138
C97	C	-0.126604	1.680581	-0.262075
H98	H	-0.220892	1.858897	-0.361739
H99	H	-0.127610	1.838441	-0.217444
H100	H	-0.259062	1.784406	-0.214636
H101	H	-0.056050	1.696376	-0.311561
H102	H	-0.187500	1.642346	-0.308782
H103	H	-0.468154	1.451543	-0.547885
H104	H	0.224534	1.439660	0.298318
