data_functionalizedCrystal
_audit_creation_method	'MofGen! by Chris Wilmer'
_symmetry_space_group_name_H-M	'P1'
_symmetry_Int_Tables_number	1
_symmetry_cell_setting	triclinic
loop_
_symmetry_equiv_pos_as_xyz
  x,y,z
_cell_length_a	18.215407
_cell_length_b	18.215405
_cell_length_c	18.215399
_cell_angle_alpha	89.971534
_cell_angle_beta	90.019833
_cell_angle_gamma	89.970909
loop_
_atom_site_label
_atom_site_type_symbol
_atom_site_fract_x
_atom_site_fract_y
_atom_site_fract_z
Zn1	Zn	1.125053	0.292983	0.416113
Zn2	Zn	1.375053	0.542983	0.666113
Zn3	Zn	1.625053	0.792983	0.916113
Zn4	Zn	1.875053	1.042983	1.166113
Zn5	Zn	1.124953	0.416054	0.293046
Zn6	Zn	1.374953	0.666054	0.543046
Zn7	Zn	1.624953	0.916054	0.793046
Zn8	Zn	1.874953	1.166054	1.043046
Zn9	Zn	1.001985	0.293007	0.293061
Zn10	Zn	1.251985	0.543007	0.543061
Zn11	Zn	1.501985	0.793007	0.793061
Zn12	Zn	1.751985	1.043007	1.043061
Zn13	Zn	1.001943	0.416013	0.416071
Zn14	Zn	1.251943	0.666013	0.666071
Zn15	Zn	1.501943	0.916013	0.916071
Zn16	Zn	1.751943	1.166013	1.166071
O17	O	1.063484	0.354514	0.354573
O18	O	1.313484	0.604514	0.604573
O19	O	1.563484	0.854514	0.854573
O20	O	1.813484	1.104514	1.104573
O21	O	1.228024	0.309316	0.399800
O22	O	1.478024	0.559316	0.649800
O23	O	1.728024	0.809316	0.899800
O24	O	1.978024	1.059316	1.149800
O25	O	1.108617	0.399759	0.190063
O26	O	1.358617	0.649759	0.440063
O27	O	1.608617	0.899759	0.690063
O28	O	1.858617	1.149759	0.940063
O29	O	1.018370	0.190020	0.309408
O30	O	1.268370	0.440020	0.559408
O31	O	1.518370	0.690020	0.809408
O32	O	1.768370	0.940020	1.059408
O33	O	1.227951	0.399736	0.309383
O34	O	1.477951	0.649736	0.559383
O35	O	1.727951	0.899736	0.809383
O36	O	1.977951	1.149736	1.059383
O37	O	1.108787	0.190002	0.399814
O38	O	1.358787	0.440002	0.649814
O39	O	1.608787	0.690002	0.899814
O40	O	1.858787	0.940002	1.149814
O41	O	1.018273	0.309357	0.190074
O42	O	1.268273	0.559357	0.440074
O43	O	1.518273	0.809357	0.690074
O44	O	1.768273	1.059357	0.940074
O45	O	0.898995	0.309317	0.309367
O46	O	1.148995	0.559317	0.559367
O47	O	1.398995	0.809317	0.809367
O48	O	1.648995	1.059317	1.059367
O49	O	1.018298	0.399666	0.519061
O50	O	1.268298	0.649666	0.769061
O51	O	1.518298	0.899666	1.019061
O52	O	1.768298	1.149666	1.269061
O53	O	0.898964	0.399689	0.399742
O54	O	1.148964	0.649689	0.649742
O55	O	1.398964	0.899689	0.899742
O56	O	1.648964	1.149689	1.149742
O57	O	1.108746	0.309276	0.519092
O58	O	1.358746	0.559276	0.769092
O59	O	1.608746	0.809276	1.019092
O60	O	1.858746	1.059276	1.269092
O61	O	1.108576	0.519033	0.309341
O62	O	1.358576	0.769033	0.559341
O63	O	1.608576	1.019033	0.809341
O64	O	1.858576	1.269033	1.059341
O65	O	1.018201	0.519003	0.399727
O66	O	1.268201	0.769003	0.649727
O67	O	1.518201	1.019003	0.899727
O68	O	1.768201	1.269003	1.149727
C69	C	0.872277	0.354502	0.354551
C70	C	1.122277	0.604502	0.604551
C71	C	1.372277	0.854502	0.854551
C72	C	1.622277	1.104502	1.104551
C73	C	0.790478	0.354514	0.354560
C74	C	1.040478	0.604514	0.604560
C75	C	1.290478	0.854514	0.854560
C76	C	1.540478	1.104514	1.104560
C77	C	0.602288	0.401645	0.401559
C78	C	0.852288	0.651645	0.651559
C79	C	1.102288	0.901645	0.901559
C80	C	1.352288	1.151645	1.151559
C81	C	0.525429	0.401647	0.401568
C82	C	0.775429	0.651647	0.651568
C83	C	1.025429	0.901647	0.901568
C84	C	1.275429	1.151647	1.151568
C85	C	0.525432	0.307397	0.307602
C86	C	0.775432	0.557397	0.557602
C87	C	1.025432	0.807397	0.807602
C88	C	1.275432	1.057397	1.057602
C89	C	0.602289	0.307392	0.307597
C90	C	0.852289	0.557392	0.557597
C91	C	1.102289	0.807392	0.807597
C92	C	1.352289	1.057392	1.057597
C93	C	0.640715	0.354520	0.354575
C94	C	0.890715	0.604520	0.604575
C95	C	1.140715	0.854520	0.854575
C96	C	1.390715	1.104520	1.104575
C97	C	0.486999	0.354528	0.354589
C98	C	0.736999	0.604528	0.604589
C99	C	0.986999	0.854528	0.854589
C100	C	1.236999	1.104528	1.104589
C101	C	0.403665	0.354530	0.354598
C102	C	0.653665	0.604530	0.604598
C103	C	0.903665	0.854530	0.854598
C104	C	1.153665	1.104530	1.104598
C105	C	0.724054	0.354517	0.354566
C106	C	0.974054	0.604517	0.604566
C107	C	1.224054	0.854517	0.854566
C108	C	1.474054	1.104517	1.104566
C109	C	1.063393	0.545721	0.354544
C110	C	1.313393	0.795721	0.604544
C111	C	1.563393	1.045721	0.854544
C112	C	1.813393	1.295721	1.104544
C113	C	1.063422	0.627520	0.354557
C114	C	1.313422	0.877520	0.604557
C115	C	1.563422	1.127520	0.854557
C116	C	1.813422	1.377520	1.104557
C117	C	1.110505	0.815643	0.401692
C118	C	1.360505	1.065643	0.651692
C119	C	1.610505	1.315643	0.901692
C120	C	1.860505	1.565643	1.151692
C121	C	1.110524	0.892502	0.401704
C122	C	1.360524	1.142502	0.651704
C123	C	1.610524	1.392502	0.901704
C124	C	1.860524	1.642502	1.151704
C125	C	1.016450	0.892634	0.307483
C126	C	1.266450	1.142634	0.557483
C127	C	1.516450	1.392634	0.807483
C128	C	1.766450	1.642634	1.057483
C129	C	1.016428	0.815776	0.307475
C130	C	1.266428	1.065776	0.557475
C131	C	1.516428	1.315776	0.807475
C132	C	1.766428	1.565776	1.057475
C133	C	1.063460	0.777283	0.354578
C134	C	1.313460	1.027283	0.604578
C135	C	1.563460	1.277283	0.854578
C136	C	1.813460	1.527283	1.104578
C137	C	1.063500	0.930999	0.354599
C138	C	1.313500	1.180999	0.604599
C139	C	1.563500	1.430999	0.854599
C140	C	1.813500	1.680999	1.104599
C141	C	1.063520	1.014333	0.354612
C142	C	1.313520	1.264333	0.604612
C143	C	1.563520	1.514333	0.854612
C144	C	1.813520	1.764333	1.104612
C145	C	1.063439	0.693944	0.354566
C146	C	1.313439	0.943944	0.604566
C147	C	1.563439	1.193944	0.854566
C148	C	1.813439	1.443944	1.104566
C149	C	1.255436	0.354528	0.354594
C150	C	1.505436	0.604528	0.604594
C151	C	1.755436	0.854528	0.854594
C152	C	2.005436	1.104528	1.104594
C153	C	1.337235	0.354533	0.354603
C154	C	1.587235	0.604533	0.604603
C155	C	1.837235	0.854533	0.854603
C156	C	2.087235	1.104533	1.104603
C157	C	1.063528	0.354464	0.546526
C158	C	1.313528	0.604464	0.796526
C159	C	1.563528	0.854464	1.046526
C160	C	1.813528	1.104464	1.296526
C161	C	1.063547	0.354442	0.628325
C162	C	1.313547	0.604442	0.878325
C163	C	1.563547	0.854442	1.128325
C164	C	1.813547	1.104442	1.378325
C165	C	1.063568	1.162561	0.354613
C166	C	1.313568	1.412561	0.604613
C167	C	1.563568	1.662561	0.854613
C168	C	1.813568	1.912561	1.104613
C169	C	1.063538	1.080763	0.354620
C170	C	1.313538	1.330763	0.604620
C171	C	1.563538	1.580763	0.854620
C172	C	1.813538	1.830763	1.104620
C173	C	1.063481	0.354512	0.163366
C174	C	1.313481	0.604512	0.413366
C175	C	1.563481	0.854512	0.663366
C176	C	1.813481	1.104512	0.913366
C177	C	1.063605	0.354326	0.081568
C178	C	1.313605	0.604326	0.331568
C179	C	1.563605	0.854326	0.581568
C180	C	1.813605	1.104326	0.831568
C181	C	1.110661	0.307332	0.816536
C182	C	1.360661	0.557332	1.066536
C183	C	1.610661	0.807332	1.316536
C184	C	1.860661	1.057332	1.566536
C185	C	1.110670	0.307311	0.893395
C186	C	1.360670	0.557311	1.143395
C187	C	1.610670	0.807311	1.393395
C188	C	1.860670	1.057311	1.643395
C189	C	1.016486	0.401438	0.893351
C190	C	1.266486	0.651438	1.143351
C191	C	1.516486	0.901438	1.393351
C192	C	1.766486	1.151438	1.643351
C193	C	1.016474	0.401455	0.816494
C194	C	1.266474	0.651455	1.066494
C195	C	1.516474	0.901455	1.316494
C196	C	1.766474	1.151455	1.566494
C197	C	1.063566	0.354403	0.778088
C198	C	1.313566	0.604403	1.028088
C199	C	1.563566	0.854403	1.278088
C200	C	1.813566	1.104403	1.528088
C201	C	1.063586	0.354365	0.931804
C202	C	1.313586	0.604365	1.181804
C203	C	1.563586	0.854365	1.431804
C204	C	1.813586	1.104365	1.681804
C205	C	1.063596	0.354342	1.015138
C206	C	1.313596	0.604342	1.265138
C207	C	1.563596	0.854342	1.515138
C208	C	1.813596	1.104342	1.765138
C209	C	1.063556	0.354425	0.694749
C210	C	1.313556	0.604425	0.944749
C211	C	1.563556	0.854425	1.194749
C212	C	1.813556	1.104425	1.444749
H213	H	0.633572	0.440018	0.439813
H214	H	0.883572	0.690018	0.689813
H215	H	1.133572	0.940018	0.939813
H216	H	1.383572	1.190018	1.189813
H217	H	0.978114	0.784541	0.269109
H218	H	1.228114	1.034541	0.519109
H219	H	1.478114	1.284541	0.769109
H220	H	1.728114	1.534541	1.019109
C221	C	0.964672	0.453241	0.774198
C222	C	1.214672	0.703241	1.024198
C223	C	1.464672	0.953241	1.274198
C224	C	1.714672	1.203241	1.524198
H225	H	0.936636	0.481270	0.808077
H226	H	1.186636	0.731270	1.058077
H227	H	1.436636	0.981270	1.308077
H228	H	1.686636	1.231270	1.558077
H229	H	0.932618	0.425098	0.744215
H230	H	1.182618	0.675098	0.994215
H231	H	1.432618	0.925098	1.244215
H232	H	1.682618	1.175098	1.494215
H233	H	0.992811	0.485315	0.744215
H234	H	1.242811	0.735315	0.994215
H235	H	1.492811	0.985315	1.244215
H236	H	1.742811	1.235315	1.494215
C237	C	1.162481	0.255542	0.935688
C238	C	1.412481	0.505542	1.185688
C239	C	1.662481	0.755542	1.435688
C240	C	1.912481	1.005542	1.685688
H241	H	1.155742	0.262265	0.986962
H242	H	1.405742	0.512265	1.236962
H243	H	1.655742	0.762265	1.486962
H244	H	1.905742	1.012265	1.736962
H245	H	1.211917	0.266323	0.923097
H246	H	1.461917	0.516323	1.173097
H247	H	1.711917	0.766323	1.423097
H248	H	1.961917	1.016323	1.673097
H249	H	1.151738	0.206093	0.923104
H250	H	1.401738	0.456093	1.173104
H251	H	1.651738	0.706093	1.423104
H252	H	1.901738	0.956093	1.673104
H253	H	1.149004	0.269017	0.785268
H254	H	1.399004	0.519017	1.035268
H255	H	1.649004	0.769017	1.285268
H256	H	1.899004	1.019017	1.535268
C257	C	0.964697	0.453198	0.935599
C258	C	1.214697	0.703198	1.185599
C259	C	1.464697	0.953198	1.435599
C260	C	1.714697	1.203198	1.685599
H261	H	0.971454	0.446452	0.986880
H262	H	1.221454	0.696452	1.236880
H263	H	1.471454	0.946452	1.486880
H264	H	1.721454	1.196452	1.736880
H265	H	0.915253	0.442431	0.922999
H266	H	1.165253	0.692431	1.172999
H267	H	1.415253	0.942431	1.422999
H268	H	1.665253	1.192431	1.672999
H269	H	0.975445	0.502649	0.922990
H270	H	1.225445	0.752649	1.172990
H271	H	1.475445	1.002649	1.422990
H272	H	1.725445	1.252649	1.672990
C273	C	1.162231	0.773300	0.453506
C274	C	1.412231	1.023300	0.703506
C275	C	1.662231	1.273300	0.953506
C276	C	1.912231	1.523300	1.203506
H277	H	1.155487	0.722032	0.446750
H278	H	1.405487	0.972032	0.696750
H279	H	1.655487	1.222032	0.946750
H280	H	1.905487	1.472032	1.196750
H281	H	1.151434	0.785874	0.502944
H282	H	1.401434	1.035874	0.752944
H283	H	1.651434	1.285874	1.002944
H284	H	1.901434	1.535874	1.252944
H285	H	1.211691	0.785864	0.442781
H286	H	1.461691	1.035864	0.692781
H287	H	1.711691	1.285864	0.942781
H288	H	1.961691	1.535864	1.192781
H289	H	0.978159	0.923984	0.269132
H290	H	1.228159	1.173984	0.519132
H291	H	1.478159	1.423984	0.769132
H292	H	1.728159	1.673984	1.019132
H293	H	0.494145	0.440020	0.439829
H294	H	0.744145	0.690020	0.689829
H295	H	0.994145	0.940020	0.939829
H296	H	1.244145	1.190020	1.189829
H297	H	0.494136	0.269028	0.269354
H298	H	0.744136	0.519028	0.519354
H299	H	0.994136	0.769028	0.769354
H300	H	1.244136	1.019028	1.019354
H301	H	0.633577	0.269012	0.269337
H302	H	0.883577	0.519012	0.519337
H303	H	1.133577	0.769012	0.769337
H304	H	1.383577	1.019012	1.019337
H305	H	1.148831	0.923732	0.440071
H306	H	1.398831	1.173732	0.690071
H307	H	1.648831	1.423732	0.940071
H308	H	1.898831	1.673732	1.190071
