data_functionalizedCrystal
_audit_creation_method	'MofGen! by Chris Wilmer'
_symmetry_space_group_name_H-M	'P1'
_symmetry_Int_Tables_number	1
_symmetry_cell_setting	triclinic
loop_
_symmetry_equiv_pos_as_xyz
  x,y,z
_cell_length_a	15.944493
_cell_length_b	15.944551
_cell_length_c	15.021413
_cell_angle_alpha	89.990496
_cell_angle_beta	89.995554
_cell_angle_gamma	83.486891
loop_
_atom_site_label
_atom_site_type_symbol
_atom_site_fract_x
_atom_site_fract_y
_atom_site_fract_z
O1	O	1.114555	0.108105	-0.074022
O2	O	0.869998	0.121512	-0.074027
O3	O	0.998955	-0.007468	-0.074016
O4	O	0.985598	0.237084	-0.074033
O5	O	0.998943	-0.007481	0.074048
O6	O	0.869987	0.121499	0.074037
O7	O	1.114543	0.108092	0.074042
Zn8	Zn	0.992263	0.114793	0.097548
Zn9	Zn	0.992278	0.114810	-0.097533
O10	O	0.985587	0.237071	0.074032
C11	C	0.838698	0.120957	0.000005
C12	C	0.745449	0.119314	0.000003
C13	C	0.509689	0.195235	-0.000002
C14	C	0.459125	0.154287	0.073008
C15	C	0.574728	0.116270	0.000005
C16	C	0.459141	0.154282	-0.072972
C17	C	0.409819	0.113336	0.000003
C18	C	0.525393	0.075344	0.073075
C19	C	0.525412	0.075350	-0.072970
C20	C	0.474880	0.034345	0.000058
C21	C	0.669728	0.117963	0.000007
C22	C	0.314821	0.111637	0.000008
C23	C	0.998395	-0.038768	0.000016
C24	C	0.996732	-0.132014	0.000016
C25	C	0.912826	-0.346853	0.000003
C26	C	0.951783	-0.407885	0.073008
C27	C	0.993725	-0.302739	0.000010
C28	C	0.951814	-0.407856	-0.072972
C29	C	0.990814	-0.467651	-0.000001
C30	C	1.032705	-0.362543	0.073075
C31	C	1.032724	-0.362507	-0.072970
C32	C	1.071741	-0.423521	0.000053
C33	C	0.995399	-0.207737	0.000016
C34	C	0.989146	-0.562652	-0.000001
C35	C	1.145844	0.108646	0.000009
C36	C	1.239092	0.110289	0.000004
C37	C	0.986147	0.268372	-0.000003
C38	C	0.987809	0.361617	-0.000009
N39	N	0.992259	0.114781	0.230686
N40	N	0.992289	0.114816	-0.230670
C41	C	1.051442	0.054667	0.529682
C42	C	1.068430	0.130334	0.470310
C43	C	0.992279	0.114806	0.587723
C44	C	0.975321	0.039129	0.470352
C45	C	0.992272	0.114789	0.412299
C46	C	1.009305	0.190511	0.529658
C47	C	0.916163	0.099256	0.529705
C48	C	0.933119	0.174978	0.470360
C49	C	0.992286	0.114814	0.688780
C50	C	0.992265	0.114790	0.311243
H51	H	0.525313	0.263254	0.000061
F52	F	1.077388	-0.336434	0.153836
F53	F	1.116884	-0.011724	0.563730
H54	H	0.960981	-0.024864	0.444301
H55	H	0.554362	0.042033	-0.134692
F56	F	0.421294	0.197867	0.153678
H57	H	0.459415	-0.033726	0.000105
F58	F	1.152557	0.147513	0.436191
F59	F	0.907055	-0.434167	0.153680
H60	H	0.430207	0.187651	-0.134688
H61	H	1.138950	-0.456694	0.000096
F62	F	1.077417	-0.336195	-0.153646
F63	F	0.563063	0.031776	0.153835
H64	H	1.023714	0.254519	0.555599
F65	F	0.907077	-0.434099	-0.153638
H66	H	0.883081	0.225884	0.444478
H67	H	0.845675	-0.313532	0.000074
F68	F	0.832057	0.082036	0.563832
