data_functionalizedCrystal
_audit_creation_method	'MofGen! by Chris Wilmer'
_symmetry_space_group_name_H-M	'P1'
_symmetry_Int_Tables_number	1
_symmetry_cell_setting	triclinic
loop_
_symmetry_equiv_pos_as_xyz
  x,y,z
_cell_length_a	19.077105
_cell_length_b	19.076808
_cell_length_c	19.805399
_cell_angle_alpha	92.327057
_cell_angle_beta	92.315688
_cell_angle_gamma	89.927608
loop_
_atom_site_label
_atom_site_type_symbol
_atom_site_fract_x
_atom_site_fract_y
_atom_site_fract_z
Zn1	Zn	1.062995	-0.323012	0.411234
Zn2	Zn	1.562995	0.176988	0.911234
Zn3	Zn	1.058188	-0.440523	0.293318
Zn4	Zn	1.558188	0.059477	0.793318
Zn5	Zn	0.945489	-0.318302	0.293708
Zn6	Zn	1.445489	0.181698	0.793708
Zn7	Zn	0.940734	-0.435759	0.402118
Zn8	Zn	1.440734	0.064241	0.902118
O9	O	1.001852	-0.379399	0.350095
O10	O	1.501852	0.120601	0.850095
O11	O	1.160689	-0.342564	0.399244
O12	O	1.660689	0.157436	0.899244
O13	O	1.043216	-0.424333	0.198651
O14	O	1.543216	0.075667	0.698651
O15	O	0.965078	-0.220591	0.313277
O16	O	1.465078	0.279409	0.813277
O17	O	1.157157	-0.428900	0.312611
O18	O	1.657157	0.071100	0.812611
O19	O	1.051410	-0.224052	0.399623
O20	O	1.551410	0.275948	0.899623
O21	O	0.960417	-0.334538	0.198938
O22	O	1.460417	0.165462	0.698938
O23	O	0.846527	-0.329918	0.304438
O24	O	1.346527	0.170082	0.804438
O25	O	0.956975	-0.420780	0.498046
O26	O	1.456975	0.079220	0.998046
O27	O	0.843034	-0.416214	0.384086
O28	O	1.343034	0.083786	0.884086
O29	O	1.046799	-0.337945	0.504743
O30	O	1.546799	0.162055	1.004743
O31	O	1.038606	-0.538227	0.303771
O32	O	1.538606	-0.038227	0.803771
O33	O	0.952313	-0.534727	0.383707
O34	O	1.452313	-0.034727	0.883707
C35	C	0.819284	-0.372038	0.343315
C36	C	1.319284	0.127962	0.843315
C37	C	0.741180	-0.368906	0.340430
C38	C	1.241180	0.131094	0.840430
C39	C	0.994441	-0.561975	0.342723
C40	C	1.494441	-0.061975	0.842723
C41	C	0.991335	-0.640084	0.339594
C42	C	1.491335	-0.140084	0.839594
C43	C	0.702684	-0.412432	0.380473
C44	C	1.202684	0.087568	0.880473
C45	C	0.629297	-0.409480	0.377766
C46	C	1.129297	0.090520	0.877766
C47	C	0.594408	-0.363005	0.335012
C48	C	1.094408	0.136995	0.835012
C49	C	0.632910	-0.319475	0.294968
C50	C	1.132910	0.180525	0.794968
C51	C	0.706295	-0.322424	0.297679
C52	C	1.206295	0.177576	0.797679
C53	C	0.375123	-0.349357	0.322468
C54	C	0.875123	0.150643	0.822468
C55	C	0.301732	-0.346412	0.319759
C56	C	0.801732	0.153588	0.819759
C57	C	0.298124	-0.436417	0.402557
C58	C	0.798124	0.063583	0.902557
C59	C	0.371511	-0.439365	0.405262
C60	C	0.871511	0.060635	0.905262
C61	C	0.410007	-0.395832	0.365220
C62	C	0.910007	0.104168	0.865220
N63	N	0.519395	-0.359988	0.332243
N64	N	1.019395	0.140012	0.832243
N65	N	0.485018	-0.398846	0.367994
N66	N	0.985018	0.101154	0.867994
C67	C	1.034790	-0.678519	0.383114
C68	C	1.534790	-0.178519	0.883114
C69	C	1.031869	-0.751911	0.380175
C70	C	1.531869	-0.251911	0.880175
C71	C	0.985495	-0.786866	0.333713
C72	C	1.485495	-0.286866	0.833713
C73	C	0.942035	-0.748425	0.290192
C74	C	1.442035	-0.248425	0.790192
C75	C	0.944953	-0.675035	0.293134
C76	C	1.444953	-0.175035	0.793134
C77	C	0.971948	-1.006174	0.320092
C78	C	1.471948	-0.506174	0.820092
C79	C	0.969034	-1.079570	0.317151
C80	C	1.469034	-0.579570	0.817151
C81	C	1.058867	-1.083050	0.407136
C82	C	1.558867	-0.583050	0.907136
C83	C	1.061784	-1.009658	0.410071
C84	C	1.561784	-0.509658	0.910071
C85	C	1.018322	-0.971224	0.366552
C86	C	1.518322	-0.471224	0.866552
N87	N	0.982509	-0.861884	0.330707
N88	N	1.482509	-0.361884	0.830707
N89	N	1.021304	-0.896207	0.369563
N90	N	1.521304	-0.396207	0.869563
C91	C	1.185132	-0.386789	0.356901
C92	C	1.685132	0.113211	0.856901
C93	C	1.263236	-0.389938	0.359801
C94	C	1.763236	0.110062	0.859801
C95	C	1.001893	-0.379356	0.526641
C96	C	1.501893	0.120644	1.026641
C97	C	1.001911	-0.379338	0.601874
C98	C	1.501911	0.120662	1.101874
C99	C	1.009311	-0.196111	0.357511
C100	C	1.509311	0.303889	0.857511
C101	C	1.012489	-0.118005	0.360671
C102	C	1.512489	0.381995	0.860671
C103	C	1.001853	-0.379392	0.174239
C104	C	1.501853	0.120608	0.674239
C105	C	1.001980	-0.379218	0.099019
C106	C	1.501980	0.120782	0.599019
C107	C	1.048683	-0.336204	0.640707
C108	C	1.548683	0.163796	1.140707
C109	C	1.048691	-0.336184	0.711396
C110	C	1.548691	0.163816	1.211396
C111	C	1.001929	-0.379302	0.743252
C112	C	1.501929	0.120698	1.243252
C113	C	0.955152	-0.422438	0.704414
C114	C	1.455152	0.077562	1.204414
C115	C	0.955141	-0.422454	0.633725
C116	C	1.455141	0.077546	1.133725
C117	C	0.955194	-0.422375	0.989491
C118	C	1.455194	0.077625	1.489491
C119	C	0.955210	-0.422357	1.060185
C120	C	1.455210	0.077643	1.560185
C121	C	1.048744	-0.336104	1.067162
C122	C	1.548744	0.163896	1.567162
C123	C	1.048734	-0.336120	0.996474
C124	C	1.548734	0.163880	1.496474
C125	C	1.001954	-0.379253	0.957642
C126	C	1.501954	0.120747	1.457642
C127	C	1.001945	-0.379273	0.880992
C128	C	1.501945	0.120727	1.380992
C129	C	1.001941	-0.379286	0.819900
C130	C	1.501941	0.120714	1.319900
H131	H	0.731085	-0.450279	0.415285
H132	H	1.231085	0.049721	0.915285
N133	N	0.904699	-0.468930	0.738768
N134	N	1.404699	0.031070	1.238768
H135	H	0.911800	-0.462373	0.789442
H136	H	1.411800	0.037627	1.289442
H137	H	0.913578	-0.519564	0.724792
H138	H	1.413578	-0.019564	1.224792
N139	N	0.416624	-0.302404	0.279273
N140	N	0.916624	0.197596	0.779273
H141	H	0.445904	-0.332135	0.247831
H142	H	0.945904	0.167865	0.747831
H143	H	0.448359	-0.271101	0.309311
H144	H	0.948359	0.228899	0.809311
H145	H	0.273328	-0.308559	0.284948
H146	H	0.773328	0.191441	0.784948
N147	N	0.925081	-0.964726	0.273147
N148	N	1.425081	-0.464726	0.773147
H149	H	0.893706	-0.932977	0.300633
H150	H	1.393706	-0.432977	0.800633
H151	H	0.895312	-0.998056	0.243276
H152	H	1.395312	-0.498056	0.743276
H153	H	1.072555	-0.650064	0.420945
H154	H	1.572555	-0.150064	0.920945
H155	H	0.737638	-0.286977	0.265076
H156	H	1.237638	0.213023	0.765076
H157	H	0.604498	-0.281631	0.260161
H158	H	1.104498	0.218369	0.760161
H159	H	0.597956	-0.444924	0.410372
H160	H	1.097956	0.055076	0.910372
N161	N	0.409138	-0.489479	0.451388
N162	N	0.909138	0.010521	0.951388
H163	H	0.461469	-0.484741	0.447030
H164	H	0.961469	0.015259	0.947030
H165	H	0.394275	-0.539139	0.438281
H166	H	0.894275	-0.039139	0.938281
N167	N	0.256605	-0.483368	0.445743
N168	N	0.756605	0.016632	0.945743
H169	H	0.204822	-0.474450	0.437540
H170	H	0.704822	0.025550	0.937540
H171	H	0.269896	-0.473013	0.495013
H172	H	0.769896	0.026987	0.995013
N173	N	1.099173	-0.289618	0.962115
N174	N	1.599173	0.210382	1.462115
H175	H	1.128805	-0.262287	0.997443
H176	H	1.628805	0.237713	1.497443
H177	H	1.071888	-0.255952	0.933038
H178	H	1.571888	0.244048	1.433038
N179	N	1.078702	-0.793366	0.427147
N180	N	1.578702	-0.293366	0.927147
H181	H	1.108514	-0.760085	0.457034
H182	H	1.608514	-0.260085	0.957034
H183	H	1.110037	-0.825137	0.399642
H184	H	1.610037	-0.325137	0.899642
N185	N	1.111797	-0.971960	0.460189
N186	N	1.611797	-0.471960	0.960189
H187	H	1.107053	-0.919635	0.455448
H188	H	1.607053	-0.419635	0.955448
H189	H	1.161480	-0.986772	0.451044
H190	H	1.661480	-0.486772	0.951044
N191	N	1.105741	-1.124503	0.454073
N192	N	1.605741	-0.624503	0.954073
H193	H	1.096858	-1.176300	0.445161
H194	H	1.596858	-0.676300	0.945161
H195	H	1.095284	-1.111212	0.502511
H196	H	1.595284	-0.611212	1.002511
N197	N	0.904687	-0.468971	0.591838
N198	N	1.404687	0.031029	1.091838
H199	H	0.875064	-0.496284	0.622743
H200	H	1.375064	0.003716	1.122743
H201	H	0.931956	-0.502652	0.562252
H202	H	1.431956	-0.002652	1.062252
H203	H	0.931268	-1.108028	0.279316
H204	H	1.431268	-0.608028	0.779316
H205	H	0.909567	-0.643741	0.257697
H206	H	1.409567	-0.143741	0.757697
N207	N	0.892018	-0.786123	0.240077
N208	N	1.392018	-0.286123	0.740077
H209	H	0.896766	-0.838448	0.244812
H210	H	1.396766	-0.338448	0.744812
H211	H	0.903500	-0.773752	0.192669
H212	H	1.403500	-0.273752	0.692669
H213	H	1.086764	-0.301094	0.614776
H214	H	1.586764	0.198906	1.114776
N215	N	1.099126	-0.289646	0.753281
N216	N	1.599126	0.210354	1.253281
H217	H	1.128746	-0.262332	0.722375
H218	H	1.628746	0.237668	1.222375
H219	H	1.130487	-0.319542	0.782672
H220	H	1.630487	0.180458	1.282672
H221	H	1.086833	-0.300980	1.098788
H222	H	1.586833	0.199020	1.598788
N223	N	0.904751	-0.468892	0.947599
N224	N	1.404751	0.031108	1.447599
H225	H	0.873350	-0.439018	0.918219
H226	H	1.373350	0.060982	1.418219
H227	H	0.875171	-0.496204	0.978539
H228	H	1.375171	0.003796	1.478539
H229	H	0.917128	-0.457470	1.086119
H230	H	1.417128	0.042530	1.586119
