data_functionalizedCrystal
_audit_creation_method	'MofGen! by Chris Wilmer'
_symmetry_space_group_name_H-M	'P1'
_symmetry_Int_Tables_number	1
_symmetry_cell_setting	triclinic
loop_
_symmetry_equiv_pos_as_xyz
  x,y,z
_cell_length_a	10.723023
_cell_length_b	9.730217
_cell_length_c	10.723023
_cell_angle_alpha	90.001939
_cell_angle_beta	84.467548
_cell_angle_gamma	90.000950
loop_
_atom_site_label
_atom_site_type_symbol
_atom_site_fract_x
_atom_site_fract_y
_atom_site_fract_z
O1	O	1.657183	0.114272	0.175020
O2	O	1.294031	0.114277	0.191775
O3	O	1.483984	0.114270	0.001821
O4	O	1.467230	0.114279	0.364974
O5	O	1.483978	-0.114310	0.001820
O6	O	1.294025	-0.114303	0.191773
O7	O	1.657177	-0.114308	0.175019
Zn8	Zn	1.475600	-0.150598	0.183396
Zn9	Zn	1.475608	0.150566	0.183398
O10	O	1.467224	-0.114301	0.364972
C11	C	1.247528	-0.000012	0.190555
C12	C	1.108974	-0.000010	0.186908
N13	N	1.475604	-0.356134	0.183393
C14	C	0.904009	0.118401	0.181513
C15	C	1.047212	0.118402	0.185283
C16	C	1.643877	-0.356131	0.015239
C17	C	1.728022	-0.428070	-0.068835
C18	C	1.728035	-0.571950	-0.068835
C19	C	1.643891	-0.643894	0.015244
C20	C	1.559746	-0.571956	0.099318
C21	C	1.559745	-0.428073	0.099312
C22	C	1.391469	-0.571959	0.267464
C23	C	1.391460	-0.428079	0.267473
C24	C	1.307325	-0.643903	0.351543
C25	C	1.223184	-0.571965	0.435625
C26	C	1.223176	-0.428076	0.435623
C27	C	1.307315	-0.356140	0.351546
C28	C	1.703680	-0.000016	0.176239
C29	C	1.842234	-0.000009	0.179886
C30	C	1.482762	-0.000019	-0.044679
C31	C	1.479115	-0.000013	-0.183233
N32	N	1.475614	0.356103	0.183390
C33	C	1.473722	0.118403	-0.388194
C34	C	1.477492	0.118400	-0.244991
C35	C	1.468446	-0.000010	0.411473
C36	C	1.472093	-0.000006	0.550027
H37	H	0.850881	0.219776	0.180107
H38	H	1.154675	-0.630551	0.504071
H39	H	1.473496	-0.101382	-0.396848
N40	N	1.117567	0.252694	0.187145
H41	H	1.209893	0.233659	0.189576
H42	H	1.104331	0.307136	0.109322
H43	H	1.643886	-0.238977	0.015241
H44	H	1.154650	-0.369512	0.504081
H45	H	1.472334	0.219779	-0.441321
N46	N	1.479285	0.252667	-0.174586
H47	H	1.557911	0.258166	-0.129992
H48	H	1.477616	0.331637	-0.235524
H49	H	1.055856	-0.101391	0.185516
H50	H	1.477706	-0.101393	-0.236353
N51	N	1.307312	-0.200957	0.351551
H52	H	1.373382	-0.166302	0.285532
H53	H	1.222333	-0.166416	0.332648
H54	H	1.796548	-0.630522	-0.137300
N55	N	0.912587	-0.134306	0.181737
H56	H	0.976061	-0.139789	0.105936
H57	H	0.957074	-0.139701	0.260432
H58	H	1.796529	-0.369480	-0.137294
H59	H	1.643896	-0.761049	0.015228
N60	N	1.307329	-0.799087	0.351545
H61	H	1.373404	-0.833746	0.285531
H62	H	1.326153	-0.833621	0.436550
