data_functionalizedCrystal
_audit_creation_method	'MofGen! by Chris Wilmer'
_symmetry_space_group_name_H-M	'P1'
_symmetry_Int_Tables_number	1
_symmetry_cell_setting	triclinic
loop_
_symmetry_equiv_pos_as_xyz
  x,y,z
_cell_length_a	18.050589
_cell_length_b	18.050591
_cell_length_c	18.050582
_cell_angle_alpha	89.977259
_cell_angle_beta	90.018205
_cell_angle_gamma	89.978346
loop_
_atom_site_label
_atom_site_type_symbol
_atom_site_fract_x
_atom_site_fract_y
_atom_site_fract_z
Zn1	Zn	-0.295837	-1.135293	0.420090
Zn2	Zn	-0.420020	-1.135203	0.295909
Zn3	Zn	-0.295834	-1.011112	0.295897
Zn4	Zn	-0.419975	-1.011060	0.420041
O5	O	-0.357916	-1.073167	0.357984
O6	O	-0.312330	-1.239205	0.403643
O7	O	-0.403564	-1.118727	0.191983
O8	O	-0.191910	-1.027644	0.312387
O9	O	-0.403567	-1.239140	0.312408
O10	O	-0.191912	-1.118879	0.403631
O11	O	-0.312325	-1.027557	0.191974
O12	O	-0.312282	-0.907180	0.312339
O13	O	-0.403490	-1.027555	0.523972
O14	O	-0.403488	-0.907142	0.403547
O15	O	-0.312286	-1.118828	0.524008
O16	O	-0.523939	-1.118676	0.312360
O17	O	-0.523906	-1.027468	0.403559
C18	C	-0.357880	-0.880215	0.357937
C19	C	-0.357883	-0.797669	0.357935
C20	C	-0.308220	-0.548843	0.308440
C21	C	-0.290142	-0.598275	0.376217
C22	C	-0.357905	-0.500548	0.357980
C23	C	-0.375937	-0.598198	0.290184
C24	C	-0.357892	-0.646534	0.357954
C25	C	-0.339791	-0.548893	0.425793
C26	C	-0.425618	-0.548813	0.339714
C27	C	-0.407566	-0.598222	0.407538
C28	C	-0.357910	-0.416450	0.357994
C29	C	-0.357887	-0.730630	0.357948
C30	C	-0.550869	-1.073077	0.357972
C31	C	-0.633414	-1.073107	0.357992
C32	C	-0.832874	-1.023557	0.407568
C33	C	-0.882306	-1.005459	0.339798
C34	C	-0.784545	-1.073180	0.358001
C35	C	-0.882195	-1.091314	0.425779
C36	C	-0.930530	-1.073249	0.358017
C37	C	-0.832889	-1.055046	0.290196
C38	C	-0.832774	-1.140933	0.376222
C39	C	-0.882183	-1.122861	0.308405
C40	C	-0.700446	-1.073138	0.357993
C41	C	-1.014626	-1.073291	0.358017
C42	C	-0.164211	-1.073277	0.358013
C43	C	-0.081665	-1.073324	0.358025
C44	C	-0.357884	-1.073196	0.551690
C45	C	-0.357870	-1.073208	0.634236
C46	C	-0.357940	-0.266872	0.358019
C47	C	-0.357917	-0.349418	0.358001
C48	C	-0.357896	-1.073181	0.165032
C49	C	-0.357701	-1.073312	0.082487
C50	C	-0.407399	-1.023612	0.833667
C51	C	-0.425560	-1.091367	0.883069
C52	C	-0.357813	-1.073245	0.785366
C53	C	-0.339631	-1.005527	0.883046
C54	C	-0.357760	-1.073274	0.931352
C55	C	-0.376010	-1.141036	0.833681
C56	C	-0.290049	-1.055150	0.833654
C57	C	-0.308185	-1.122952	0.883034
C58	C	-0.357845	-1.073227	0.701268
C59	C	-0.357727	-1.073300	1.015448
H60	H	-0.266178	-0.527163	0.266609
Cl61	Cl	-0.472221	-0.958870	0.800198
Cl62	Cl	-0.799595	-1.031307	0.201684
Cl63	Cl	-0.201722	-0.631811	0.400067
Cl64	Cl	-0.399495	-0.631640	0.201683
Cl65	Cl	-0.399828	-1.229497	0.800347
Cl66	Cl	-0.915402	-1.187699	0.243627
H67	H	-0.449577	-0.619766	0.449470
H68	H	-0.811222	-0.981531	0.449426
Cl69	Cl	-0.316130	-0.515599	0.514322
H70	H	-0.482871	-0.527071	0.324251
Cl71	Cl	-0.799156	-1.229325	0.400044
H72	H	-0.903852	-1.106625	0.483091
Cl73	Cl	-0.513999	-1.115025	0.916583
H74	H	-0.904080	-0.948195	0.324401
H75	H	-0.266229	-1.164986	0.904572
H76	H	-0.232782	-1.039807	0.811932
Cl77	Cl	-0.315921	-0.917092	0.916526
