data_functionalizedCrystal
_audit_creation_method	'MofGen! by Chris Wilmer'
_symmetry_space_group_name_H-M	'P1'
_symmetry_Int_Tables_number	1
_symmetry_cell_setting	triclinic
loop_
_symmetry_equiv_pos_as_xyz
  x,y,z
_cell_length_a	27.731993
_cell_length_b	27.731996
_cell_length_c	12.996460
_cell_angle_alpha	89.987889
_cell_angle_beta	90.005946
_cell_angle_gamma	82.620891
loop_
_atom_site_label
_atom_site_type_symbol
_atom_site_fract_x
_atom_site_fract_y
_atom_site_fract_z
O1	O	0.640934	0.057394	-0.085303
O2	O	0.500135	0.066167	-0.085368
O3	O	0.574921	-0.008619	-0.085311
O4	O	0.566149	0.132180	-0.085360
O5	O	0.574913	-0.008623	0.085823
O6	O	0.500128	0.066163	0.085766
O7	O	0.640927	0.057390	0.085831
Cu8	Cu	0.570527	0.061776	0.101424
Cu9	Cu	0.570536	0.061781	-0.100961
O10	O	0.566141	0.132176	0.085774
C11	C	0.482124	0.065985	0.000191
C12	C	0.428468	0.065443	0.000167
C13	C	0.045313	0.061514	-0.093066
C14	C	0.246970	0.063581	-0.093095
O15	O	0.273046	0.063831	-0.172432
N16	N	0.272186	0.063838	0.000188
C17	C	0.246985	0.063574	0.093485
O18	O	0.273061	0.063835	0.172827
C19	C	0.045329	0.061504	0.093512
C20	C	0.020115	0.061252	0.000223
C21	C	0.020099	0.061262	-0.186348
C22	C	-0.030313	0.060748	-0.186340
C23	C	-0.055510	0.060486	-0.093050
C24	C	-0.030296	0.060738	0.000231
C25	C	0.020130	0.061237	0.186808
C26	C	-0.030287	0.060718	0.186806
C27	C	-0.055501	0.060466	0.093517
C28	C	-0.105905	0.059962	0.093529
N29	N	-0.131121	0.059705	0.000246
C30	C	-0.105924	0.059967	-0.093044
C31	C	0.352857	0.064662	0.093463
C32	C	0.403271	0.065181	0.093457
C33	C	0.403252	0.065187	-0.093123
C34	C	0.352837	0.064672	-0.093115
C35	C	0.327641	0.064406	0.000181
C36	C	-0.211792	0.058888	-0.093020
C37	C	-0.262208	0.058376	-0.093003
C38	C	-0.262185	0.058367	0.093576
C39	C	-0.211773	0.058882	0.093560
C40	C	-0.186578	0.059141	0.000254
O41	O	-0.132012	0.059706	0.172824
O42	O	-0.132007	0.059696	-0.172374
C43	C	0.095724	0.062028	-0.093074
C44	C	0.120938	0.062280	0.000207
C45	C	0.095741	0.062018	0.093496
C46	C	0.171352	0.062799	0.000200
C47	C	0.196550	0.063061	-0.093089
C48	C	0.171334	0.062804	-0.186372
C49	C	0.120922	0.062290	-0.186364
C50	C	0.120957	0.062275	0.186779
C51	C	0.171369	0.062789	0.186763
C52	C	0.196566	0.063051	0.093474
C53	C	0.574737	-0.026628	0.000259
C54	C	0.574194	-0.080284	0.000269
C55	C	0.570784	-0.412998	-0.093068
C56	C	0.568722	-0.614656	-0.093087
O57	O	0.568439	-0.640724	-0.172423
N58	N	0.568462	-0.639875	0.000197
C59	C	0.568714	-0.614676	0.093493
O60	O	0.568441	-0.640753	0.172836
C61	C	0.570772	-0.413019	0.093511
C62	C	0.571037	-0.387803	0.000221
C63	C	0.571048	-0.387782	-0.186350
C64	C	0.571566	-0.337371	-0.186344
C65	C	0.571819	-0.312176	-0.093056
C66	C	0.571555	-0.337392	0.000226
C67	C	0.571020	-0.387821	0.186805
C68	C	0.571533	-0.337403	0.186801
C69	C	0.571799	-0.312187	0.093511
C70	C	0.572326	-0.261786	0.093520
N71	N	0.572586	-0.236567	0.000236
C72	C	0.572333	-0.261762	-0.093052
C73	C	0.567635	-0.720549	0.093477
C74	C	0.567121	-0.770964	0.093473
C75	C	0.567129	-0.770940	-0.093107
C76	C	0.567646	-0.720525	-0.093102
C77	C	0.567895	-0.695330	0.000193
C78	C	0.573421	-0.155895	-0.093033
C79	C	0.573941	-0.105479	-0.093019
C80	C	0.573931	-0.105508	0.093560
C81	C	0.573413	-0.155919	0.093547
C82	C	0.573157	-0.181111	0.000242
O83	O	0.572605	-0.235685	0.172815
O84	O	0.572596	-0.235674	-0.172383
C85	C	0.570266	-0.463409	-0.093073
C86	C	0.570001	-0.488625	0.000209
C87	C	0.570254	-0.463430	0.093498
C88	C	0.569488	-0.539039	0.000205
C89	C	0.569234	-0.564234	-0.093083
C90	C	0.569494	-0.539015	-0.186367
C91	C	0.570012	-0.488604	-0.186361
C92	C	0.569994	-0.488649	0.186782
C93	C	0.569477	-0.539061	0.186768
C94	C	0.569224	-0.564256	0.093480
C95	C	0.658938	0.057572	0.000269
C96	C	0.712594	0.058114	0.000286
C97	C	0.566325	0.150185	0.000201
C98	C	0.566868	0.203841	0.000184
N99	N	0.570524	0.061772	0.243771
N100	N	0.570542	0.061781	-0.243308
C101	C	0.570535	0.061781	0.663586
C102	C	0.570530	0.061780	0.546780
C103	C	0.570530	0.061777	0.453682
C104	C	0.570524	0.061776	0.336870
H105	H	0.100397	0.062086	-0.262329
H106	H	0.332311	0.064467	-0.169079
C107	C	0.430976	0.065473	-0.195739
H108	H	0.464611	0.065815	-0.182374
H109	H	0.418807	0.093588	-0.234088
H110	H	0.426620	0.037184	-0.234053
H111	H	0.100447	0.062059	0.262748
H112	H	-0.191244	0.059096	0.169524
C113	C	0.566834	-0.798697	0.196091
H114	H	0.567054	-0.776466	0.251646
H115	H	0.594832	-0.822269	0.199991
H116	H	0.538429	-0.814456	0.199955
H117	H	-0.050837	0.060541	-0.262305
H118	H	0.423795	0.065393	0.169422
H119	H	-0.050800	0.060505	0.262781
C120	C	0.574207	-0.077786	0.196169
H121	H	0.574547	-0.044150	0.182803
H122	H	0.602318	-0.089954	0.234525
H123	H	0.545914	-0.082145	0.234477
H124	H	0.571780	-0.316844	-0.262311
H125	H	0.574158	-0.084951	-0.168990
C126	C	0.047854	0.061514	0.289427
H127	H	0.025621	0.061279	0.344979
H128	H	0.063615	0.089916	0.293306
H129	H	0.071426	0.033512	0.293317
H130	H	0.569290	-0.559538	-0.262326
C131	C	0.569184	-0.566793	0.289395
H132	H	0.569404	-0.544562	0.344949
H133	H	0.597179	-0.590368	0.293300
H134	H	0.540776	-0.582549	0.293253
C135	C	0.566845	-0.798659	-0.195722
H136	H	0.566497	-0.832294	-0.182355
H137	H	0.595128	-0.794301	-0.234053
H138	H	0.538725	-0.786489	-0.234055
C139	C	0.199057	0.063092	-0.288988
H140	H	0.232693	0.063431	-0.275621
H141	H	0.186891	0.091208	-0.327333
H142	H	0.194700	0.034804	-0.327305
H143	H	-0.282710	0.058156	0.169530
H144	H	0.191893	0.062998	0.262736
C145	C	0.570774	-0.415489	-0.288976
H146	H	0.571010	-0.393245	-0.344522
H147	H	0.542377	-0.431254	-0.292890
H148	H	0.598780	-0.439057	-0.292842
H149	H	0.332347	0.064444	0.169441
H150	H	0.567861	-0.699997	-0.169067
H151	H	0.567840	-0.700041	0.169453
H152	H	0.573210	-0.176400	-0.169011
C153	C	0.570724	-0.415547	0.289426
H154	H	0.570941	-0.393313	0.344976
H155	H	0.598720	-0.439120	0.293337
H156	H	0.542317	-0.431304	0.293286
H157	H	0.571729	-0.316891	0.262775
H158	H	0.573202	-0.176451	0.169511
H159	H	-0.282736	0.058173	-0.168973
H160	H	0.570228	-0.468077	-0.262328
H161	H	-0.191284	0.059100	-0.168998
H162	H	0.570201	-0.468141	0.262750
H163	H	0.040609	0.061474	-0.262319
