data_functionalizedCrystal
_audit_creation_method	'MofGen! by Chris Wilmer'
_symmetry_space_group_name_H-M	'P1'
_symmetry_Int_Tables_number	1
_symmetry_cell_setting	triclinic
loop_
_symmetry_equiv_pos_as_xyz
  x,y,z
_cell_length_a	19.805407
_cell_length_b	18.215405
_cell_length_c	18.215399
_cell_angle_alpha	90.026474
_cell_angle_beta	90.018864
_cell_angle_gamma	90.019338
loop_
_atom_site_label
_atom_site_type_symbol
_atom_site_fract_x
_atom_site_fract_y
_atom_site_fract_z
Zn1	Zn	1.034763	-0.293045	0.416104
Zn2	Zn	1.034685	-0.416116	0.293041
Zn3	Zn	0.921576	-0.293062	0.293054
Zn4	Zn	0.921550	-0.416068	0.416068
O5	O	0.978144	-0.354573	0.354567
O6	O	1.129470	-0.309383	0.399790
O7	O	1.019659	-0.399820	0.190059
O8	O	0.936634	-0.190075	0.309397
O9	O	1.129412	-0.399803	0.309376
O10	O	1.019792	-0.190063	0.399802
O11	O	0.936558	-0.309412	0.190068
O12	O	0.826856	-0.309366	0.309362
O13	O	0.936590	-0.399722	0.519057
O14	O	0.826837	-0.399738	0.399740
O15	O	1.019768	-0.309337	0.519084
O16	O	1.019634	-0.519094	0.309341
O17	O	0.936514	-0.519059	0.399728
C18	C	0.978081	-0.545779	0.354545
C19	C	0.978116	-0.627578	0.354560
C20	C	0.802288	-0.354550	0.354549
C21	C	0.727056	-0.354557	0.354559
C22	C	1.021457	-0.892571	0.401706
C23	C	1.021434	-0.815712	0.401695
C24	C	0.934917	-0.815833	0.307470
C25	C	0.934943	-0.892690	0.307478
C26	C	0.978212	-0.931057	0.354600
C27	C	0.978163	-0.777341	0.354581
C28	C	0.978138	-0.694008	0.354569
C29	C	0.978239	-1.014396	0.354612
C30	C	0.691742	-0.307559	0.401709
C31	C	0.621054	-0.307563	0.401712
C32	C	0.585680	-0.354569	0.354568
C33	C	0.620998	-0.401570	0.307412
C34	C	0.691686	-0.401562	0.307406
C35	C	0.335925	-0.401603	0.307435
C36	C	0.265233	-0.401609	0.307446
C37	C	0.265293	-0.307604	0.401740
C38	C	0.335980	-0.307596	0.401734
C39	C	0.371293	-0.354593	0.354577
C40	C	0.447941	-0.354588	0.354573
C41	C	0.509033	-0.354579	0.354574
C42	C	1.154686	-0.354596	0.354585
C43	C	1.229918	-0.354606	0.354593
C44	C	0.978185	-0.354522	0.546520
C45	C	0.978202	-0.354500	0.628319
C46	C	0.978225	-0.162620	0.354605
C47	C	0.978260	-0.080821	0.354621
C48	C	0.978141	-0.354570	0.163361
C49	C	0.978255	-0.354384	0.081562
C50	C	1.021528	-0.307393	0.816528
C51	C	1.021536	-0.307371	0.893387
C52	C	0.934924	-0.401494	0.893348
C53	C	0.934913	-0.401511	0.816490
C54	C	0.978219	-0.354462	0.778082
C55	C	0.978238	-0.354423	0.931799
C56	C	0.978247	-0.354400	1.015132
C57	C	0.978210	-0.354483	0.694743
H58	H	1.056687	-0.923807	0.440079
H59	H	1.056802	-0.269042	0.924686
H60	H	0.899641	-0.439839	0.785187
H61	H	0.364778	-0.269321	0.440126
H62	H	0.592305	-0.269293	0.440108
Br63	Br	1.080299	-0.243539	0.764405
H64	H	0.899687	-0.784587	0.269105
Br65	Br	1.080129	-0.763483	0.465624
H66	H	0.899668	-0.439801	0.924629
H67	H	0.720538	-0.269283	0.440101
Br68	Br	0.217366	-0.243820	0.465741
Br69	Br	0.876255	-0.944927	0.243539
H70	H	0.236434	-0.439889	0.269053
Br71	Br	0.383840	-0.465366	0.243416
H72	H	0.592191	-0.439840	0.269023
H73	H	0.720437	-0.439832	0.269011
