data_functionalizedCrystal
_audit_creation_method	'MofGen! by Chris Wilmer'
_symmetry_space_group_name_H-M	'P1'
_symmetry_Int_Tables_number	1
_symmetry_cell_setting	triclinic
loop_
_symmetry_equiv_pos_as_xyz
  x,y,z
_cell_length_a	11.026607
_cell_length_b	17.699083
_cell_length_c	16.176319
_cell_angle_alpha	90.001389
_cell_angle_beta	89.996049
_cell_angle_gamma	84.065484
loop_
_atom_site_label
_atom_site_type_symbol
_atom_site_fract_x
_atom_site_fract_y
_atom_site_fract_z
O1	O	0.153399	-1.025155	-0.068626
O2	O	0.653399	-0.525155	0.431374
O3	O	0.173357	-0.807518	-0.068652
O4	O	0.673357	-0.307518	0.431348
O5	O	-0.013222	-0.898299	-0.068638
O6	O	0.486778	-0.398299	0.431362
O7	O	0.339978	-0.934374	-0.068640
O8	O	0.839978	-0.434374	0.431360
O9	O	-0.013234	-0.898282	0.068855
O10	O	0.486766	-0.398282	0.568855
O11	O	0.173345	-0.807501	0.068841
O12	O	0.673345	-0.307501	0.568841
O13	O	0.153387	-1.025137	0.068867
O14	O	0.653387	-0.525137	0.568867
Cu15	Cu	0.163365	-0.916317	0.081408
Cu16	Cu	0.663365	-0.416317	0.581408
Cu17	Cu	0.163379	-0.916338	-0.081193
Cu18	Cu	0.663379	-0.416338	0.418807
O19	O	0.339966	-0.934357	0.068853
O20	O	0.839966	-0.434357	0.568853
C21	C	0.172636	-0.779214	0.000091
C22	C	0.672636	-0.279214	0.500091
C23	C	0.170490	-0.694902	0.000080
C24	C	0.670490	-0.194902	0.500080
C25	C	-0.058419	-0.891635	0.000106
C26	C	0.441581	-0.391635	0.500106
C27	C	-0.193075	-0.871796	0.000101
C28	C	0.306925	-0.371796	0.500101
N29	N	0.163354	-0.916308	0.195773
N30	N	0.663354	-0.416308	0.695773
C31	C	-0.267042	-0.926576	0.000107
C32	C	0.232958	-0.426576	0.500107
C33	C	-0.406216	-0.906072	0.000101
C34	C	0.093784	-0.406072	0.500101
C35	C	0.385163	-0.941021	0.000107
C36	C	0.885163	-0.441021	0.500107
C37	C	0.519819	-0.960860	0.000106
C38	C	1.019819	-0.460860	0.500106
C39	C	0.154108	-1.053441	0.000122
C40	C	0.654108	-0.553441	0.500122
C41	C	0.156254	-1.137754	0.000127
C42	C	0.656254	-0.637754	0.500127
C43	C	0.280008	-0.661328	0.000080
C44	C	0.780008	-0.161328	0.500080
C45	C	0.277985	-0.582106	0.000091
C46	C	0.777985	-0.082106	0.500091
C47	C	0.166443	-0.536460	0.000096
C48	C	0.666443	-0.036460	0.500096
C49	C	0.056917	-0.570039	0.000099
C50	C	0.556917	-0.070039	0.500099
C51	C	0.058941	-0.649259	0.000094
C52	C	0.558941	-0.149259	0.500094
C53	C	0.048751	-0.250554	0.000119
C54	C	0.548751	0.249446	0.500119
C55	C	0.046735	-0.171329	0.000121
C56	C	0.546735	0.328671	0.500121
C57	C	0.267794	-0.183402	0.000116
C58	C	0.767794	0.316598	0.500116
C59	C	0.269819	-0.262621	0.000111
C60	C	0.769819	0.237379	0.500111
C61	C	0.160293	-0.296194	0.000118
C62	C	0.660293	0.203806	0.500118
C63	C	0.162488	-0.382094	0.000108
C64	C	0.662488	0.117906	0.500108
C65	C	0.164247	-0.450561	0.000100
C66	C	0.664247	0.049439	0.500100
N67	N	0.163380	-0.916352	-0.195559
N68	N	0.663380	-0.416352	0.304441
C69	C	0.080771	-0.956526	0.239044
C70	C	0.580771	-0.456526	0.739044
C71	C	0.080770	-0.956530	0.325591
C72	C	0.580770	-0.456530	0.825591
C73	C	0.163358	-0.916320	0.368866
C74	C	0.663358	-0.416320	0.868866
C75	C	0.245946	-0.876097	0.325590
C76	C	0.745946	-0.376097	0.825590
C77	C	0.245940	-0.876089	0.239044
C78	C	0.745940	-0.376089	0.739044
C79	C	0.245969	-0.876126	0.674618
C80	C	0.745969	-0.376126	1.174618
C81	C	0.245970	-0.876138	0.761169
C82	C	0.745970	-0.376138	1.261169
C83	C	0.080798	-0.956566	0.761165
C84	C	0.580798	-0.456566	1.261165
C85	C	0.080792	-0.956559	0.674619
C86	C	0.580792	-0.456559	1.174619
C87	C	0.163375	-0.916333	0.631350
C88	C	0.663375	-0.416333	1.131350
C89	C	0.163374	-0.916328	0.537506
C90	C	0.663374	-0.416328	1.037506
C91	C	0.163366	-0.916328	0.462709
C92	C	0.663366	-0.416328	0.962709
H93	H	-0.227333	-0.988654	0.000119
H94	H	0.272667	-0.488654	0.500119
O95	O	-0.458789	-0.823834	0.000096
O96	O	0.041211	-0.323834	0.500096
H97	H	-0.559851	-0.820634	0.000102
H98	H	-0.059851	-0.320634	0.500102
H99	H	0.370838	-0.698488	0.000075
H100	H	0.870838	-0.198488	0.500075
H101	H	-0.033903	-0.532868	0.000115
H102	H	0.466097	-0.032868	0.500115
O103	O	0.334997	-0.832696	0.192374
O104	O	0.834997	-0.332696	0.692374
H105	H	0.321104	-0.839433	0.124924
H106	H	0.821104	-0.339433	0.624924
O107	O	-0.427611	-1.043099	0.000121
O108	O	0.072389	-0.543099	0.500121
H109	H	-0.326549	-1.046300	0.000130
H110	H	0.173451	-0.546300	0.500130
H111	H	0.356975	-0.156058	0.000115
H112	H	0.856975	0.343942	0.500115
O113	O	0.396106	-0.545891	0.000091
O114	O	0.896106	-0.045891	0.500091
H115	H	0.474008	-0.590941	0.000077
H116	H	0.974008	-0.090941	0.500077
H117	H	-0.232783	-0.809717	0.000088
H118	H	0.267217	-0.309717	0.500088
O119	O	0.390123	-0.311856	0.000118
O120	O	0.890123	0.188144	0.500118
H121	H	0.465940	-0.275200	0.000131
H122	H	0.965940	0.224800	0.500131
H123	H	0.013523	-0.989277	0.360821
H124	H	0.513523	-0.489277	0.860821
O125	O	-0.073576	-0.122092	0.000141
O126	O	0.426424	0.377908	0.500141
H127	H	-0.149397	-0.158745	0.000156
H128	H	0.350603	0.341255	0.500156
H129	H	-0.030240	-0.676594	0.000094
H130	H	0.469760	-0.176594	0.500094
O131	O	-0.069374	-0.286761	0.000126
O132	O	0.430626	0.213239	0.500126
H133	H	-0.147272	-0.241709	0.000123
H134	H	0.352728	0.258291	0.500123
O135	O	-0.008312	-0.999892	0.192369
O136	O	0.491688	-0.499892	0.692369
H137	H	-0.065746	-1.027851	0.237002
H138	H	0.434254	-0.527851	0.737002
O139	O	-0.008291	-0.999923	0.627941
O140	O	0.491709	-0.499923	1.127941
H141	H	-0.065728	-1.027883	0.672571
H142	H	0.434272	-0.527883	1.172571
H143	H	0.013551	-0.989318	0.796403
H144	H	0.513551	-0.489318	1.296403
H145	H	0.313226	-0.843392	0.796403
H146	H	0.813226	-0.343392	1.296403
O147	O	0.335046	-0.832750	0.627953
O148	O	0.835046	-0.332750	1.127953
H149	H	0.392483	-0.804801	0.672587
H150	H	0.892483	-0.304801	1.172587
O151	O	0.335033	-0.832729	0.372258
O152	O	0.835033	-0.332729	0.872258
H153	H	0.321175	-0.839498	0.439709
H154	H	0.821175	-0.339498	0.939709
