data_functionalizedCrystal
_audit_creation_method	'MofGen! by Chris Wilmer'
_symmetry_space_group_name_H-M	'P1'
_symmetry_Int_Tables_number	1
_symmetry_cell_setting	triclinic
loop_
_symmetry_equiv_pos_as_xyz
  x,y,z
_cell_length_a	15.995350
_cell_length_b	13.448316
_cell_length_c	14.971486
_cell_angle_alpha	89.993189
_cell_angle_beta	83.553252
_cell_angle_gamma	89.996887
loop_
_atom_site_label
_atom_site_type_symbol
_atom_site_fract_x
_atom_site_fract_y
_atom_site_fract_z
O1	O	1.111103	-0.082608	0.115296
O2	O	0.867342	-0.082629	0.129533
O3	O	0.995756	-0.082611	-0.007793
O4	O	0.982690	-0.082626	0.252622
O5	O	0.995740	0.082773	-0.007802
O6	O	0.867326	0.082755	0.129524
O7	O	1.111087	0.082776	0.115287
Cu8	Cu	0.989205	0.097866	0.122405
Cu9	Cu	0.989224	-0.097719	0.122415
O10	O	0.982673	0.082758	0.252613
C11	C	0.836139	0.000061	0.128940
C12	C	0.743187	0.000053	0.127175
C13	C	0.405433	0.000074	0.120838
C14	C	0.452769	0.000449	0.023037
C15	C	0.549461	0.000069	0.024802
C16	C	0.572997	0.000064	0.123982
C17	C	0.531967	-0.094377	0.172225
C18	C	0.435329	-0.094449	0.169768
C19	C	0.434974	0.093623	0.171780
C20	C	0.531919	0.094865	0.171756
C21	C	0.667696	0.000055	0.125763
C22	C	0.310733	0.000076	0.119060
C23	C	0.995164	0.000081	-0.041122
C24	C	0.993413	0.000080	-0.140417
C25	C	1.142291	0.000084	0.115880
C26	C	1.235243	0.000085	0.117645
N27	N	0.989198	0.235431	0.122397
N28	N	0.989238	-0.235284	0.122415
C29	C	1.046077	0.287479	0.061614
C30	C	1.046083	0.391582	0.061614
C31	C	0.989212	0.443635	0.122401
C32	C	0.932326	0.391580	0.183187
C33	C	0.932318	0.287478	0.183183
C34	C	0.932350	0.608560	0.183193
C35	C	0.932359	0.712668	0.183199
C36	C	1.046114	0.712664	0.061624
C37	C	1.046106	0.608562	0.061620
C38	C	0.989221	0.556514	0.122407
C39	C	1.068852	0.000087	-0.197728
C40	C	1.067202	0.000077	-0.291026
C41	C	0.990111	0.000067	-0.327010
C42	C	0.914666	0.000057	-0.269691
C43	C	0.916317	0.000060	-0.176395
C44	C	0.911229	0.000053	-0.464150
C45	C	0.909577	0.000052	-0.557452
C46	C	1.062114	0.000070	-0.578780
C47	C	1.063766	0.000073	-0.485484
C48	C	0.988320	0.000065	-0.428172
C49	C	0.983266	0.000064	0.285942
C50	C	0.985017	0.000059	0.385237
H51	H	0.433143	-0.066901	-0.015873
H52	H	0.886025	0.566185	0.232690
O53	O	0.583304	0.080750	-0.020587
C54	C	0.564571	0.077133	-0.110333
H55	H	0.551163	-0.002996	-0.129076
H56	H	0.506920	0.125000	-0.117703
C57	C	0.656566	0.215178	-0.150074
C58	C	0.640105	0.116760	-0.173096
H59	H	0.703156	0.239626	-0.188790
H60	H	0.669184	0.217618	-0.089610
H61	H	0.608517	0.255055	-0.156216
H62	H	0.688149	0.076883	-0.166944
H63	H	0.627496	0.114315	-0.233561
O64	O	1.143667	0.000140	-0.162629
C65	C	1.128952	0.000117	-0.067993
H66	H	1.063631	0.031424	-0.046085
H67	H	1.133042	-0.079225	-0.042014
C68	C	1.275820	0.026526	-0.056214
C69	C	1.195594	0.064987	-0.029306
H70	H	1.316930	0.066537	-0.032348
H71	H	1.285736	0.026538	-0.119971
H72	H	1.279217	-0.039592	-0.034563
H73	H	1.192196	0.131098	-0.050967
H74	H	1.185680	0.064987	0.034449
H75	H	0.416992	-0.165042	0.134594
H76	H	0.849793	0.000043	-0.417488
H77	H	1.126540	0.000088	-0.456189
H78	H	0.546165	-0.097892	0.245090
H79	H	1.123545	0.000073	-0.625449
O80	O	1.101265	0.558155	0.002360
C81	C	1.087477	0.583792	-0.086124
H82	H	1.020412	0.612353	-0.086481
H83	H	1.133789	0.644314	-0.112310
C84	C	1.182821	0.456378	-0.146488
C85	C	1.100447	0.491450	-0.146927
H86	H	1.190824	0.399420	-0.183995
H87	H	1.192113	0.439108	-0.086875
H88	H	1.221405	0.506822	-0.168307
H89	H	1.061865	0.441011	-0.125097
H90	H	1.091149	0.508710	-0.206537
H91	H	0.886000	0.245101	0.232677
O92	O	1.140562	0.000135	-0.346570
C93	C	1.208958	0.000128	-0.294804
H94	H	1.187769	0.031437	-0.225176
H95	H	1.232599	-0.079209	-0.288151
C96	C	1.306382	0.026545	-0.426817
C97	C	1.280359	0.065008	-0.341301
H98	H	1.350428	0.066562	-0.455499
H99	H	1.260303	0.026546	-0.461694
H100	H	1.326077	-0.039568	-0.421261
H101	H	1.260654	0.131115	-0.346859
H102	H	1.326436	0.065019	-0.306426
O103	O	1.101487	0.763176	0.002663
C104	C	1.184378	0.737704	0.017250
H105	H	1.184845	0.709072	0.088864
H106	H	1.208924	0.677283	-0.032313
C107	C	1.240559	0.865340	-0.084559
C108	C	1.241134	0.830182	0.003401
H109	H	1.275571	0.922383	-0.093105
H110	H	1.184714	0.882499	-0.094390
H111	H	1.261012	0.814981	-0.125852
H112	H	1.220671	0.880536	0.044692
H113	H	1.296977	0.813033	0.013239
H114	H	0.851897	0.000042	-0.298997
O115	O	0.843057	-0.000121	-0.120683
C116	C	0.839470	-0.085763	-0.066055
H117	H	0.882259	-0.145624	-0.100219
H118	H	0.861210	-0.066395	0.001784
C119	C	0.695829	-0.051090	-0.009911
C120	C	0.748378	-0.124616	-0.051876
H121	H	0.639639	-0.075055	-0.001161
H122	H	0.698246	0.006611	-0.046712
H123	H	0.713956	-0.034957	0.046617
H124	H	0.730257	-0.140739	-0.108407
H125	H	0.745955	-0.182321	-0.015084
O126	O	0.834620	-0.000018	-0.592260
C127	C	0.768383	-0.000014	-0.521672
H128	H	0.791923	-0.031311	-0.458288
H129	H	0.745084	0.079322	-0.508482
C130	C	0.666794	-0.026460	-0.625854
C131	C	0.695704	-0.064908	-0.548006
H132	H	0.621960	-0.066486	-0.642098
H133	H	0.711418	-0.026459	-0.673411
H134	H	0.647384	0.039652	-0.614852
H135	H	0.715123	-0.131014	-0.559012
H136	H	0.651081	-0.064922	-0.500450
O137	O	0.877047	0.442253	0.242112
C138	C	0.825343	0.502472	0.194177
H139	H	0.858625	0.518073	0.124206
H140	H	0.763453	0.462368	0.188059
C141	C	0.766629	0.582192	0.330540
C142	C	0.807511	0.601360	0.244603
H143	H	0.755626	0.643189	0.361646
H144	H	0.801460	0.541619	0.362836
H145	H	0.715059	0.548770	0.325429
H146	H	0.859084	0.634770	0.249714
H147	H	0.772687	0.641941	0.212309
O148	O	0.396973	-0.099757	0.255432
C149	C	0.421755	-0.187868	0.296202
H150	H	0.443734	-0.244573	0.242005
H151	H	0.475433	-0.170810	0.337889
C152	C	0.319634	-0.160915	0.424202
C153	C	0.346621	-0.230564	0.357637
H154	H	0.273290	-0.187250	0.462102
H155	H	0.302940	-0.101551	0.396737
H156	H	0.364372	-0.146706	0.458932
H157	H	0.301887	-0.244762	0.322902
H158	H	0.363307	-0.289932	0.385098
O159	O	0.430497	0.081275	-0.023494
C160	C	0.371797	0.138747	0.031714
H161	H	0.338742	0.089811	0.087006
H162	H	0.405882	0.201889	0.063284
C163	C	0.346887	0.242442	-0.093229
C164	C	0.306283	0.182335	-0.025322
H165	H	0.306477	0.269333	-0.128410
H166	H	0.386437	0.203724	-0.130423
H167	H	0.375289	0.295052	-0.066910
H168	H	0.277891	0.129720	-0.051642
H169	H	0.266727	0.221045	0.011867
H170	H	0.577287	-0.067744	-0.013369
O171	O	0.565865	-0.178252	0.132392
C172	C	0.604071	-0.234843	0.195932
H173	H	0.620564	-0.184280	0.252501
H174	H	0.558695	-0.295108	0.224772
C175	C	0.664565	-0.345653	0.080489
C176	C	0.684828	-0.283550	0.149963
H177	H	0.714377	-0.375702	0.052133
H178	H	0.638822	-0.307530	0.037680
H179	H	0.626749	-0.395866	0.104532
H180	H	0.722634	-0.233332	0.125918
H181	H	0.710579	-0.321666	0.192767
H182	H	0.414399	0.165207	0.139802
H183	H	0.559193	0.164732	0.136539
O184	O	0.397134	0.094553	0.257788
C185	C	0.349033	0.182068	0.272585
H186	H	0.374368	0.241411	0.222286
H187	H	0.280567	0.165570	0.263609
C188	C	0.323638	0.146905	0.430600
C189	C	0.354759	0.219794	0.368826
H190	H	0.327166	0.170174	0.489967
H191	H	0.356042	0.087942	0.420630
H192	H	0.266585	0.133163	0.423108
H193	H	0.411813	0.233525	0.376311
H194	H	0.322364	0.278760	0.378799
H195	H	0.547356	0.100565	0.244081
H196	H	1.092392	0.245104	0.012118
H197	H	0.886048	0.755045	0.232697
O198	O	1.101372	0.442256	0.002697
C199	C	1.153081	0.502437	0.050644
H200	H	1.119795	0.518021	0.120614
H201	H	1.214963	0.462309	0.056764
C202	C	1.211817	0.582192	-0.085707
C203	C	1.170932	0.601339	0.000230
H204	H	1.222832	0.643198	-0.116805
H205	H	1.176983	0.541645	-0.118010
H206	H	1.263381	0.548749	-0.080594
H207	H	1.119364	0.634770	-0.004884
H208	H	1.205758	0.641895	0.032531
