data_functionalizedCrystal
_audit_creation_method	'MofGen! by Chris Wilmer'
_symmetry_space_group_name_H-M	'P1'
_symmetry_Int_Tables_number	1
_symmetry_cell_setting	triclinic
loop_
_symmetry_equiv_pos_as_xyz
  x,y,z
_cell_length_a	27.440280
_cell_length_b	20.919309
_cell_length_c	20.919331
_cell_angle_alpha	93.149950
_cell_angle_beta	61.859117
_cell_angle_gamma	57.440573
loop_
_atom_site_label
_atom_site_type_symbol
_atom_site_fract_x
_atom_site_fract_y
_atom_site_fract_z
Zr1	Zr	0.536483	-0.052163	0.614810
O2	O	0.644818	-0.164644	0.508217
O3	O	0.432775	-0.017683	0.647475
O4	O	0.542701	-0.156972	0.642063
O5	O	0.528374	0.084519	0.517912
O6	O	0.542341	-0.150917	0.747656
O7	O	0.534892	-0.025356	0.513629
O8	O	0.345705	0.098244	0.757337
O9	O	0.725010	-0.164642	0.508231
O10	O	0.473449	0.001542	0.740223
O11	O	0.468853	0.079023	0.664616
O12	O	0.598276	-0.084971	0.658244
O13	O	0.593679	-0.007491	0.582638
Zr14	Zr	0.525513	0.132731	0.790050
Zr15	Zr	0.535909	-0.042507	0.783219
Zr16	Zr	0.526086	0.123075	0.621641
Zr17	Zr	0.664380	-0.052160	0.614832
Zr18	Zr	0.397615	0.132728	0.790028
O19	O	0.629220	0.098251	0.757385
O20	O	0.644002	-0.150915	0.747673
O21	O	0.630035	0.084522	0.517929
O22	O	0.417177	0.245212	0.896642
O23	O	0.431960	-0.003954	0.886930
O24	O	0.417993	0.231483	0.657187
O25	O	0.533621	-0.003951	0.886948
O26	O	0.519295	0.237540	0.762797
O27	O	0.519654	0.231485	0.657204
O28	O	0.527103	0.105924	0.891230
O29	O	0.724554	-0.156967	0.642094
O30	O	0.337441	0.237535	0.762766
O31	O	0.336985	0.245210	0.896629
O32	O	0.345249	0.105919	0.891199
O33	O	0.716746	-0.025351	0.513660
O34	O	0.716290	-0.017676	0.647523
O35	O	0.463720	0.165539	0.746615
O36	O	0.468316	0.088059	0.822222
O37	O	0.593142	0.001545	0.740243
O38	O	0.588546	0.079026	0.664637
C39	C	0.371017	0.040280	0.702403
C40	C	0.316722	0.040278	0.702393
C41	C	0.531715	0.028206	0.491776
C42	C	0.531958	0.024106	0.420282
C43	C	0.517993	0.259480	0.710974
C44	C	0.513580	0.333873	0.713873
C45	C	-0.017622	-0.000151	0.741918
C46	C	-0.068646	-0.000149	0.741925
O47	O	-0.093013	-0.034518	0.775515
N48	N	-0.096561	0.040293	0.702458
C49	C	-0.073456	0.080743	0.662989
O50	O	-0.101886	0.115143	0.629421
C51	C	-0.022436	0.080745	0.662987
C52	C	0.005482	0.040293	0.702449
C53	C	0.010296	-0.040599	0.781378
C54	C	0.061317	-0.040603	0.781369
C55	C	0.084421	-0.000159	0.741901
C56	C	0.056504	0.040289	0.702441
C57	C	0.000665	0.121199	0.623522
C58	C	0.051687	0.121198	0.623524
C59	C	0.079606	0.080746	0.662987
C60	C	0.130629	0.080729	0.662963
N61	N	0.158544	0.040287	0.702430
C62	C	0.135440	-0.000157	0.741899
C63	C	-0.180600	0.080737	0.662997
C64	C	-0.231615	0.080730	0.662994
C65	C	-0.226803	-0.000160	0.741932
C66	C	-0.175784	-0.000158	0.741930
C67	C	-0.152685	0.040295	0.702464
C68	C	0.242590	-0.000163	0.741877
C69	C	0.293618	-0.000166	0.741862
C70	C	0.288798	0.080728	0.662928
C71	C	0.237777	0.080728	0.662939
C72	C	0.214673	0.040281	0.702419
O73	O	0.155027	0.115084	0.629394
O74	O	0.163869	-0.034542	0.775470
C75	C	0.690978	0.040288	0.702457
C76	C	0.745274	0.040290	0.702466
C77	C	0.544002	-0.178912	0.693886
C78	C	0.548416	-0.253305	0.690986
C79	C	0.576662	0.323666	0.672445
C80	C	0.572511	0.393569	0.675167
C81	C	0.505276	0.473679	0.719321
C82	C	0.442189	0.483884	0.760750
C83	C	0.446341	0.413982	0.758024
C84	C	0.489480	0.686998	0.729689
C85	C	0.485333	0.756902	0.732415
C86	C	0.615656	0.666582	0.646829
C87	C	0.619802	0.596682	0.644110
C88	C	0.556714	0.606893	0.685536
C89	C	0.501031	0.545132	0.722106
C90	C	0.560960	0.535441	0.682747
C91	C	0.528480	0.082711	0.389052
C92	C	0.528712	0.078850	0.321873
C93	C	0.532419	0.016388	0.285929
C94	C	0.535900	-0.042222	0.317163
C95	C	0.535672	-0.038365	0.384337
C96	C	0.533290	0.001709	0.082985
C97	C	0.533516	-0.002143	0.015808
C98	C	0.526329	0.118929	0.020522
C99	C	0.526098	0.122784	0.087700
C100	C	0.529583	0.064171	0.118925
C101	C	0.532654	0.012442	0.217263
C102	C	0.529352	0.068115	0.187587
C103	C	0.530280	0.052362	0.913084
C104	C	0.530037	0.056462	0.984578
C105	C	0.370300	0.052358	0.913056
C106	C	0.315761	0.056456	0.984541
C107	C	0.358013	0.259476	0.710947
C108	C	0.299303	0.333868	0.713837
C109	C	0.357296	0.271554	0.921600
C110	C	0.298343	0.350045	0.995985
C111	C	0.704700	-0.190986	0.483260
C112	C	0.763652	-0.269477	0.408875
C113	C	0.691695	0.028210	0.491803
C114	C	0.746234	0.024112	0.420319
C115	C	0.703982	-0.178908	0.693913
C116	C	0.762692	-0.253300	0.691023
C117	C	0.292829	0.013212	0.975308
C118	C	0.241591	0.017046	1.042468
C119	C	0.213283	0.064129	1.118861
C120	C	0.236221	0.107374	1.128093
C121	C	0.287461	0.103535	1.060933
C122	C	0.269053	0.413971	0.757997
C123	C	0.213896	0.483877	0.760710
C124	C	0.188987	0.473677	0.719267
C125	C	0.219243	0.393565	0.675102
C126	C	0.274402	0.323661	0.672384
C127	C	0.273057	0.346462	1.070389
C128	C	0.217672	0.420206	1.140288
C129	C	0.187570	0.497533	1.135779
C130	C	0.212861	0.501114	1.061367
C131	C	0.268249	0.427371	0.991470
C132	C	0.788944	-0.265894	0.334470
C133	C	0.844345	-0.339638	0.264572
C134	C	0.874450	-0.416965	0.269080
C135	C	0.849156	-0.420546	0.343493
C136	C	0.793759	-0.346803	0.413390
C137	C	0.769172	0.067349	0.429551
C138	C	0.820425	0.063496	0.362390
C139	C	0.848735	0.016410	0.285997
C140	C	0.825795	-0.026831	0.276766
C141	C	0.774547	-0.022983	0.343926
C142	C	0.787583	-0.243074	0.732475
C143	C	0.842740	-0.312965	0.729775
C144	C	0.873007	-0.393082	0.685617
C145	C	0.848111	-0.403307	0.644164
C146	C	0.792952	-0.333416	0.646869
H147	H	0.316349	-0.033109	0.773996
H148	H	0.288829	0.430300	0.930889
O149	O	0.756484	-0.182496	0.329598
H150	H	0.783392	-0.192408	0.266112
H151	H	0.525457	0.133577	0.418316
O152	O	0.127823	0.577065	1.211175
H153	H	0.111135	0.631442	1.195547
H154	H	0.536533	-0.053010	-0.013455
O155	O	0.934206	-0.496497	0.193685
H156	H	0.914745	-0.498484	0.158209
O157	O	0.524939	0.142073	0.288200
H158	H	0.522307	0.186166	0.324490
O159	O	0.522103	0.190153	0.126466
H160	H	0.473102	0.228572	0.189178
O161	O	0.323363	-0.037586	0.892918
H162	H	0.311116	0.003750	0.862021
H163	H	0.084043	-0.073540	0.813506
O164	O	-0.014613	-0.084234	0.823942
H165	H	0.013384	-0.112362	0.851370
O166	O	0.749809	-0.069617	0.333957
H167	H	0.709420	-0.059042	0.393486
O168	O	0.522570	0.182146	-0.013155
H169	H	0.569520	0.178153	-0.031123
O170	O	-0.155690	0.124378	0.620440
H171	H	-0.096695	0.078573	0.573299
O172	O	-0.029408	0.164786	0.580918
H173	H	-0.004757	0.192897	0.553470
H174	H	0.189268	0.549101	0.796678
O175	O	0.880766	-0.489721	0.596529
H176	H	0.923309	-0.536595	0.601608
O177	O	-0.251727	-0.043783	0.784506
H178	H	-0.310721	0.002041	0.831654
H179	H	0.863004	-0.304624	0.763530
H180	H	0.848853	-0.065167	0.214558
O181	O	0.158014	0.068264	1.191291
H182	H	0.179062	0.043505	1.225720
H183	H	0.223783	-0.033097	0.774027
H184	H	0.536126	-0.046015	0.108405
O185	O	0.525348	0.135486	0.226359
H186	H	0.572389	0.130013	0.182608
O187	O	0.871608	-0.335767	0.184319
H188	H	0.841353	-0.269606	0.192933
H189	H	0.213165	0.145707	1.190301
O190	O	0.754935	-0.156665	0.780115
H191	H	0.781510	-0.161309	0.808491
O192	O	0.766110	-0.344457	0.602156
H193	H	0.722665	-0.282404	0.611455
O194	O	-0.145677	-0.043781	0.784498
H195	H	-0.170322	-0.071899	0.811944
H196	H	0.070492	0.154138	0.591384
H197	H	0.188344	0.564084	1.057708
O198	O	0.305520	0.263065	1.075264
H199	H	0.363906	0.227532	1.045304
O200	O	0.312183	0.150193	1.070896
H201	H	0.283879	0.183583	1.135301
O202	O	0.881623	-0.503951	0.348352
H203	H	0.924385	-0.554620	0.287244
H204	H	0.890464	0.013284	0.231318
H205	H	0.289327	0.422292	0.791746
H206	H	0.197087	0.417276	1.200871
O207	O	-0.261697	0.124322	0.620396
H208	H	-0.237049	0.152436	0.592945
H209	H	0.538922	-0.093084	0.287890
H210	H	0.773168	-0.349730	0.473971
O211	O	0.738654	0.118122	0.511942
H212	H	0.763231	0.147523	0.507066
H213	H	0.917921	-0.449985	0.683421
H214	H	0.215054	0.113656	0.630795
O215	O	0.313682	0.124402	0.620408
H216	H	0.353832	0.117626	0.627062
O217	O	0.692321	0.510280	0.596480
H218	H	0.697183	0.478770	0.636689
O219	O	0.649180	0.237263	0.624819
H220	H	0.692348	0.241912	0.596462
H221	H	0.667018	0.658277	0.613101
O222	O	0.539426	-0.101573	0.418027
H223	H	0.492470	-0.097573	0.436012
O224	O	0.640550	0.382563	0.630480
H225	H	0.687999	0.315115	0.599326
H226	H	0.222922	-0.018170	1.034936
O227	O	0.536659	-0.054931	0.178486
H228	H	0.488217	-0.025821	0.179763
O229	O	0.412812	0.843311	0.780034
H230	H	0.369640	0.838669	0.808375
O231	O	0.129481	0.549078	0.722216
H232	H	0.112627	0.606490	0.759899
O233	O	0.192355	0.382570	0.630429
H234	H	0.148906	0.444642	0.639759
H235	H	0.438110	0.695323	0.763424
H236	H	0.299026	0.258440	0.636427
H237	H	0.387445	0.549115	0.796698
H238	H	0.394972	0.422298	0.791758
H239	H	0.839094	0.098712	0.369922
O240	O	0.633473	0.449038	0.635131
H241	H	0.664076	0.438291	0.571632
O242	O	0.428528	0.631554	0.769775
H243	H	0.423648	0.663106	0.729598
