data_functionalizedCrystal
_audit_creation_method	'MofGen! by Chris Wilmer'
_symmetry_space_group_name_H-M	'P1'
_symmetry_Int_Tables_number	1
_symmetry_cell_setting	triclinic
loop_
_symmetry_equiv_pos_as_xyz
  x,y,z
_cell_length_a	10.654547
_cell_length_b	10.654541
_cell_length_c	15.455313
_cell_angle_alpha	92.691200
_cell_angle_beta	87.292117
_cell_angle_gamma	84.484992
loop_
_atom_site_label
_atom_site_type_symbol
_atom_site_fract_x
_atom_site_fract_y
_atom_site_fract_z
O1	O	1.673297	0.170969	-0.072145
O2	O	1.307818	0.187772	-0.072144
O3	O	1.498962	-0.003369	-0.072139
O4	O	1.482153	0.362110	-0.072150
O5	O	1.488031	0.007516	0.072122
O6	O	1.296887	0.198657	0.072118
O7	O	1.662366	0.181854	0.072116
Cu8	Cu	1.478629	0.191249	0.085289
Cu9	Cu	1.491556	0.178377	-0.085317
O10	O	1.471222	0.372994	0.072112
C11	C	1.255555	0.191980	-0.000013
C12	C	1.116112	0.188287	-0.000012
C13	C	0.866010	0.169457	-0.157302
C14	C	0.937486	0.165260	-0.235939
C15	C	1.068504	0.168740	-0.235937
C16	C	1.128047	0.176414	-0.157289
C17	C	1.056571	0.180610	-0.078652
C18	C	0.925551	0.177133	-0.078662
C19	C	1.044635	0.192483	0.078625
C20	C	0.913617	0.189012	0.078625
C21	C	1.104179	0.200156	0.157273
C22	C	1.032701	0.204362	0.235913
C23	C	0.901676	0.200883	0.235907
C24	C	0.842140	0.193208	0.157262
C25	C	1.492263	-0.044724	-0.000009
C26	C	1.488572	-0.184168	-0.000010
C27	C	1.717136	-0.212136	-0.000000
C28	C	1.829678	-0.291628	0.000006
C29	C	1.826203	-0.422647	0.000004
C30	C	1.710173	-0.474174	-0.000008
C31	C	1.597630	-0.394681	-0.000015
C32	C	1.601118	-0.263661	-0.000010
C33	C	1.369070	-0.366714	-0.000031
C34	C	1.372542	-0.235695	-0.000022
C35	C	1.253040	-0.418242	-0.000043
C36	C	1.140494	-0.338748	-0.000044
C37	C	1.143974	-0.207722	-0.000040
C38	C	1.260000	-0.156202	-0.000029
C39	C	1.714629	0.177646	-0.000017
C40	C	1.854073	0.181339	-0.000023
C41	C	1.477921	0.414350	-0.000020
C42	C	1.481613	0.553793	-0.000025
N43	N	1.469546	0.200302	0.205285
N44	N	1.500648	0.169314	-0.205312
C45	C	1.550779	0.119130	0.250681
C46	C	1.543921	0.125988	0.341489
C47	C	1.455836	0.214026	0.386899
C48	C	1.374594	0.295202	0.341496
C49	C	1.381446	0.288337	0.250690
C50	C	1.426259	0.243625	0.658479
C51	C	1.419415	0.250486	0.749292
C52	C	1.588742	0.081270	0.749278
C53	C	1.595591	0.074417	0.658470
C54	C	1.514345	0.155589	0.613076
N55	N	1.448827	0.221041	0.479719
N56	N	1.521349	0.148567	0.520257
H57	H	1.126700	0.165322	-0.299970
H58	H	1.347682	0.322183	0.786261
H59	H	1.610067	0.059890	0.378450
H60	H	1.360107	0.309720	0.621526
F61	F	1.706484	-0.613620	-0.000059
H62	H	1.302867	0.366880	0.378474
F63	F	1.243620	0.203854	0.157274
F64	F	1.263712	-0.016762	-0.000019
F65	F	1.675201	-0.005116	0.797595
H66	H	1.917845	-0.487371	0.000002
F67	F	1.267491	0.180099	-0.157291
H68	H	1.622512	0.047445	0.213714
F69	F	0.726567	0.165773	-0.157311
H70	H	0.888992	0.159008	-0.299973
F71	F	1.096080	0.212520	0.319606
H72	H	1.046032	-0.380713	-0.000059
H73	H	1.719976	-0.105454	0.000014
F74	F	1.249347	-0.557687	-0.000091
H75	H	1.052328	-0.143006	-0.000050
H76	H	1.315296	0.354435	0.213730
H77	H	0.735459	0.190383	0.157250
F78	F	0.825616	0.205339	0.319606
H79	H	1.924147	-0.249660	0.000024
F80	F	1.689342	-0.019281	0.610142
