data_functionalizedCrystal
_audit_creation_method	'MofGen! by Chris Wilmer'
_symmetry_space_group_name_H-M	'P1'
_symmetry_Int_Tables_number	1
_symmetry_cell_setting	triclinic
loop_
_symmetry_equiv_pos_as_xyz
  x,y,z
_cell_length_a	29.839131
_cell_length_b	16.625548
_cell_length_c	16.625539
_cell_angle_alpha	89.979432
_cell_angle_beta	89.967906
_cell_angle_gamma	90.042488
loop_
_atom_site_label
_atom_site_type_symbol
_atom_site_fract_x
_atom_site_fract_y
_atom_site_fract_z
Zn1	Zn	-0.178840	1.232574	-0.455888
Zn2	Zn	0.321160	1.732574	0.044112
Zn3	Zn	-0.253971	1.232433	-0.321046
Zn4	Zn	0.246029	1.732433	0.178954
Zn5	Zn	-0.178857	1.097736	-0.321069
Zn6	Zn	0.321143	1.597736	0.178931
Zn7	Zn	-0.253945	1.097662	-0.455836
Zn8	Zn	0.246055	1.597662	0.044164
O9	O	-0.216403	1.165101	-0.388460
O10	O	0.283597	1.665101	0.111540
O11	O	-0.188810	1.345388	-0.438013
O12	O	0.311190	1.845388	0.061987
O13	O	-0.244025	1.214537	-0.208217
O14	O	0.255975	1.714537	0.291783
O15	O	-0.115987	1.115713	-0.338984
O16	O	0.384013	1.615713	0.161016
O17	O	-0.244008	1.345284	-0.338946
O18	O	0.255992	1.845284	0.161054
O19	O	-0.115975	1.214778	-0.438035
O20	O	0.384025	1.714778	0.061965
O21	O	-0.188839	1.115576	-0.208233
O22	O	0.311161	1.615576	0.291767
O23	O	-0.188814	0.984894	-0.338933
O24	O	0.311186	1.484894	0.161067
O25	O	-0.243964	1.115586	-0.568676
O26	O	0.256036	1.615586	-0.068676
O27	O	-0.243981	0.984839	-0.437947
O28	O	0.256019	1.484839	0.062053
O29	O	-0.188785	1.214706	-0.568714
O30	O	0.311215	1.714706	-0.068714
O31	O	-0.316834	1.214465	-0.338896
O32	O	0.183166	1.714465	0.161104
O33	O	-0.316815	1.115449	-0.437925
O34	O	0.183185	1.615449	0.062075
C35	C	-0.216397	0.955610	-0.388437
C36	C	0.283603	1.455610	0.111563
C37	C	-0.216405	0.865989	-0.388447
C38	C	0.283595	1.365989	0.111553
C39	C	-0.216408	0.537814	-0.388481
C40	C	0.283592	1.037814	0.111519
C41	C	-0.216406	0.629122	-0.388469
C42	C	0.283594	1.129122	0.111531
C43	C	-0.216406	0.701899	-0.388463
C44	C	0.283594	1.201899	0.111537
C45	C	-0.216404	0.793213	-0.388452
C46	C	0.283596	1.293213	0.111548
C47	C	-0.333126	1.164956	-0.388420
C48	C	0.166874	1.664956	0.111580
C49	C	-0.383060	1.164967	-0.388430
C50	C	0.116940	1.664967	0.111570
C51	C	-0.692701	1.216752	-0.336971
C52	C	-0.192701	1.716752	0.163029
C53	C	-0.880374	1.216852	-0.337002
C54	C	-0.380374	1.716852	0.162998
O55	O	-0.904636	1.260766	-0.293219
O56	O	-0.404636	1.760766	0.206781
N57	N	-0.903845	1.165268	-0.388521
N58	N	-0.403845	1.665268	0.111479
C59	C	-0.880395	1.113660	-0.440039
C60	C	-0.380395	1.613660	0.059961
O61	O	-0.904665	1.069793	-0.483866
O62	O	-0.404665	1.569793	0.016134
C63	C	-0.692723	1.113565	-0.440011
C64	C	-0.192723	1.613565	0.059989
C65	C	-0.669254	1.165146	-0.388483
C66	C	-0.169254	1.665146	0.111517
C67	C	-0.669232	1.268330	-0.285447
C68	C	-0.169232	1.768330	0.214553
C69	C	-0.622316	1.268302	-0.285437
C70	C	-0.122316	1.768302	0.214563
C71	C	-0.598870	1.216695	-0.336950
C72	C	-0.098870	1.716695	0.163050
C73	C	-0.622339	1.165118	-0.388473
C74	C	-0.122339	1.665118	0.111527
C75	C	-0.669274	1.061962	-0.491533
C76	C	-0.169274	1.561962	0.008467
C77	C	-0.622353	1.061944	-0.491523
C78	C	-0.122353	1.561944	0.008477
C79	C	-0.598884	1.113525	-0.439995
C80	C	-0.098884	1.613525	0.060005
C81	C	-0.551977	1.113483	-0.439975
C82	C	-0.051977	1.613483	0.060025
N83	N	-0.528505	1.165067	-0.388456
N84	N	-0.028505	1.665067	0.111544
C85	C	-0.551952	1.216673	-0.336944
C86	C	-0.051952	1.716673	0.163056
C87	C	-0.978926	1.113712	-0.440049
C88	C	-0.478926	1.613712	0.059951
C89	C	-1.025844	1.113735	-0.440055
C90	C	-0.525844	1.613735	0.059945
C91	C	-1.025819	1.216928	-0.337019
C92	C	-0.525819	1.716928	0.162981
C93	C	-0.978900	1.216901	-0.337009
C94	C	-0.478900	1.716901	0.162991
C95	C	-0.955455	1.165296	-0.388530
C96	C	-0.455455	1.665296	0.111470
C97	C	-0.453426	1.216609	-0.336925
C98	C	0.046574	1.716609	0.163075
C99	C	-0.406506	1.216573	-0.336917
C100	C	0.093494	1.716573	0.163083
C101	C	-0.406535	1.113383	-0.439956
C102	C	0.093465	1.613383	0.060044
C103	C	-0.453451	1.113416	-0.439962
C104	C	0.046549	1.613416	0.060038
C105	C	-0.476895	1.165035	-0.388443
C106	C	0.023105	1.665035	0.111557
O107	O	-0.527685	1.069599	-0.483742
O108	O	-0.027685	1.569599	0.016258
O109	O	-0.527674	1.260546	-0.293136
O110	O	-0.027674	1.760546	0.206864
C111	C	-0.739616	1.216781	-0.336981
C112	C	-0.239616	1.716781	0.163019
C113	C	-0.763085	1.165203	-0.388504
C114	C	-0.263085	1.665203	0.111496
C115	C	-0.739639	1.113597	-0.440017
C116	C	-0.239639	1.613597	0.059983
C117	C	-0.810003	1.165226	-0.388510
C118	C	-0.310003	1.665226	0.111490
C119	C	-0.833449	1.216832	-0.336997
C120	C	-0.333449	1.716832	0.163003
C121	C	-0.809978	1.268416	-0.285479
C122	C	-0.309978	1.768416	0.214521
C123	C	-0.763062	1.268387	-0.285468
C124	C	-0.263062	1.768387	0.214532
C125	C	-0.763110	1.062014	-0.491536
C126	C	-0.263110	1.562014	0.008464
C127	C	-0.810026	1.062046	-0.491541
C128	C	-0.310026	1.562046	0.008459
C129	C	-0.833472	1.113652	-0.440028
C130	C	-0.333472	1.613652	0.059972
C131	C	-0.099225	1.165269	-0.388518
C132	C	0.400775	1.665269	0.111482
C133	C	-0.049290	1.165341	-0.388542
C134	C	0.450710	1.665341	0.111458
C135	C	-0.216370	1.165154	-0.598769
C136	C	0.283630	1.665154	-0.098769
C137	C	-0.216355	1.165176	-0.688390
C138	C	0.283645	1.665176	-0.188390
C139	C	-0.216410	1.375410	-0.388483
C140	C	0.283590	1.875410	0.111517
C141	C	-0.216413	1.465031	-0.388493
C142	C	0.283587	1.965031	0.111507
C143	C	-0.216305	1.165213	-1.016566
C144	C	0.283695	1.665213	-0.516566
C145	C	-0.216320	1.165201	-0.925257
C146	C	0.283680	1.665201	-0.425257
C147	C	-0.216330	1.165195	-0.852481
C148	C	0.283670	1.665195	-0.352481
C149	C	-0.216345	1.165182	-0.761167
C150	C	0.283655	1.665182	-0.261167
C151	C	-0.216404	1.165095	-0.178969
C152	C	0.283596	1.665095	0.321031
C153	C	-0.216292	1.165229	-0.089348
C154	C	0.283708	1.665229	0.410652
H155	H	-0.472509	1.258644	-0.294976
H156	H	0.027491	1.758644	0.205024
H157	H	-0.829130	1.020035	-0.533501
H158	H	-0.329130	1.520035	-0.033501
N159	N	-0.597063	1.006283	-0.547089
N160	N	-0.097063	1.506283	-0.047089
H161	H	-0.605200	1.018780	-0.604712
H162	H	-0.105200	1.518780	-0.104712
H163	H	-0.605277	0.948707	-0.534448
H164	H	-0.105277	1.448707	-0.034448
N165	N	-0.737828	1.006341	-0.547095
N166	N	-0.237828	1.506341	-0.047095
H167	H	-0.718399	0.968982	-0.514286
H168	H	-0.218399	1.468982	-0.014286
H169	H	-0.718353	1.039123	-0.584483
H170	H	-0.218353	1.539123	-0.084483
H171	H	-0.387438	1.071364	-0.481895
H172	H	0.112562	1.571364	0.018105
N173	N	-0.381192	1.272213	-0.281344
N174	N	0.118808	1.772213	0.218656
H175	H	-0.389388	1.259731	-0.223723
H176	H	0.110612	1.759731	0.276277
H177	H	-0.389330	1.329797	-0.293996
H178	H	0.110670	1.829797	0.206004
N179	N	-0.597007	1.323949	-0.229873
N180	N	-0.097007	1.823949	0.270127
H181	H	-0.605201	1.311473	-0.172251
H182	H	-0.105201	1.811473	0.327749
H183	H	-0.605151	1.381528	-0.242534
H184	H	-0.105151	1.881528	0.257466
N185	N	-0.694516	1.323996	-0.229883
N186	N	-0.194516	1.823996	0.270117
H187	H	-0.672522	1.356662	-0.197248
H188	H	-0.172522	1.856662	0.302752
H189	H	-0.714012	1.291206	-0.192538
H190	H	-0.214012	1.791206	0.307462
N191	N	-0.953589	1.272537	-0.281436
N192	N	-0.453589	1.772537	0.218564
H193	H	-0.975566	1.305229	-0.248806
H194	H	-0.475566	1.805229	0.251194
H195	H	-0.934092	1.309826	-0.314289
H196	H	-0.434092	1.809826	0.185711
H197	H	-1.044948	1.071725	-0.482007
H198	H	-0.544948	1.571725	0.017993
N199	N	-1.051112	1.272588	-0.281455
N200	N	-0.551112	1.772588	0.218545
H201	H	-1.084394	1.264770	-0.289282
H202	H	-0.584394	1.764770	0.210718
H203	H	-1.042876	1.330163	-0.294061
H204	H	-0.542876	1.830163	0.205939
N205	N	-0.835276	1.324075	-0.229923
N206	N	-0.335276	1.824075	0.270077
H207	H	-0.827076	1.381675	-0.242497
H208	H	-0.327076	1.881675	0.257503
H209	H	-0.827135	1.311517	-0.172318
H210	H	-0.327135	1.811517	0.327682
N211	N	-0.953641	1.058045	-0.495617
N212	N	-0.453641	1.558045	0.004383
H213	H	-0.975634	1.025373	-0.528248
H214	H	-0.475634	1.525373	-0.028248
H215	H	-0.934209	1.020739	-0.462758
H216	H	-0.434209	1.520739	0.037242
N217	N	-0.737753	1.324026	-0.229896
N218	N	-0.237753	1.824026	0.270104
H219	H	-0.759731	1.356720	-0.197272
H220	H	-0.259731	1.856720	0.302728
H221	H	-0.718255	1.361313	-0.262750
H222	H	-0.218255	1.861313	0.237250
N223	N	-0.478767	1.057775	-0.495527
N224	N	0.021233	1.557775	0.004473
H225	H	-0.456793	1.025077	-0.528156
H226	H	0.043207	1.525077	-0.028156
H227	H	-0.498198	1.090589	-0.532879
H228	H	0.001802	1.590589	-0.032879
H229	H	-0.688375	1.019955	-0.533489
H230	H	-0.188375	1.519955	-0.033489
