data_functionalizedCrystal
_audit_creation_method	'MofGen! by Chris Wilmer'
_symmetry_space_group_name_H-M	'P1'
_symmetry_Int_Tables_number	1
_symmetry_cell_setting	triclinic
loop_
_symmetry_equiv_pos_as_xyz
  x,y,z
_cell_length_a	19.805407
_cell_length_b	15.297327
_cell_length_c	19.805383
_cell_angle_alpha	99.584692
_cell_angle_beta	89.935707
_cell_angle_gamma	99.704146
loop_
_atom_site_label
_atom_site_type_symbol
_atom_site_fract_x
_atom_site_fract_y
_atom_site_fract_z
Zn1	Zn	0.988534	-0.358515	-0.429219
Zn2	Zn	1.488534	0.141485	0.070781
Zn3	Zn	0.968763	-0.509543	-0.335632
Zn4	Zn	1.468763	-0.009543	0.164368
Zn5	Zn	0.875229	-0.358726	-0.316075
Zn6	Zn	1.375229	0.141274	0.183925
Zn7	Zn	0.855750	-0.509294	-0.448751
Zn8	Zn	1.355750	-0.009294	0.051249
O9	O	0.922069	-0.434020	-0.382419
O10	O	1.422069	0.065980	0.117581
O11	O	1.080626	-0.378564	-0.416816
O12	O	1.580626	0.121436	0.083184
O13	O	0.956233	-0.489730	-0.238346
O14	O	1.456233	0.010270	0.261654
O15	O	0.906685	-0.232479	-0.314725
O16	O	1.406685	0.267521	0.185275
O17	O	1.066100	-0.489524	-0.348058
O18	O	1.566100	0.010476	0.151942
O19	O	0.989930	-0.232324	-0.397852
O20	O	1.489930	0.267676	0.102148
O21	O	0.887514	-0.378926	-0.223977
O22	O	1.387514	0.121074	0.276023
O23	O	0.777931	-0.378684	-0.333663
O24	O	1.277931	0.121316	0.166337
O25	O	0.873487	-0.489100	-0.540851
O26	O	1.373487	0.010900	-0.040851
O27	O	0.763620	-0.489305	-0.431140
O28	O	1.263620	0.010695	0.068860
O29	O	0.971042	-0.378323	-0.526502
O30	O	1.471042	0.121677	-0.026502
O31	O	0.937345	-0.635729	-0.366996
O32	O	1.437345	-0.135729	0.133004
O33	O	0.854316	-0.635546	-0.450104
O34	O	1.354316	-0.135546	0.049896
C35	C	0.746217	-0.433991	-0.382399
C36	C	1.246217	0.066009	0.117601
C37	C	0.670983	-0.434001	-0.382409
C38	C	1.170983	0.065999	0.117591
C39	C	0.643190	-0.376326	-0.418291
C40	C	1.143190	0.123674	0.081709
C41	C	0.572501	-0.376331	-0.418294
C42	C	1.072501	0.123669	0.081706
C43	C	0.529606	-0.434016	-0.382419
C44	C	1.029606	0.065984	0.117581
C45	C	0.557404	-0.491693	-0.346534
C46	C	1.057404	0.008307	0.153466
C47	C	0.628092	-0.491683	-0.346527
C48	C	1.128092	0.008317	0.153473
C49	C	0.272325	-0.491734	-0.346560
C50	C	0.772325	0.008266	0.153440
C51	C	0.201632	-0.491741	-0.346571
C52	C	0.701632	0.008259	0.153429
C53	C	0.216734	-0.376381	-0.418327
C54	C	0.716734	0.123619	0.081673
C55	C	0.287423	-0.376371	-0.418320
C56	C	0.787423	0.123629	0.081680
C57	C	0.315215	-0.434045	-0.382431
C58	C	0.815215	0.065955	0.117569
C59	C	0.391864	-0.434038	-0.382427
C60	C	0.891864	0.065962	0.117573
C61	C	0.452957	-0.434028	-0.382427
C62	C	0.952957	0.065972	0.117573
C63	C	0.891590	-0.668365	-0.412807
C64	C	1.391590	-0.168365	0.087193
C65	C	0.878612	-0.768618	-0.425829
C66	C	1.378612	-0.268618	0.074171
C67	C	1.015099	-1.051473	-0.289576
C68	C	1.515099	-0.551473	0.210424
C69	C	1.027291	-0.957279	-0.277337
C70	C	1.527291	-0.457279	0.222663
C71	C	0.990123	-0.910109	-0.314459
C72	C	1.490123	-0.410109	0.185541
C73	C	0.940759	-0.957142	-0.363822
C74	C	1.440759	-0.457142	0.136178
C75	C	0.928562	-1.051345	-0.376058
C76	C	1.428562	-0.551345	0.123942
C77	C	0.903586	-0.909982	-0.400941
C78	C	1.403586	-0.409982	0.099059
C79	C	0.854223	-0.957014	-0.450304
C80	C	1.354223	-0.457014	0.049696
C81	C	0.842028	-1.051208	-0.462538
C82	C	1.342028	-0.551208	0.037462
C83	C	0.879196	-1.098378	-0.425416
C84	C	1.379196	-0.598378	0.074584
C85	C	0.915783	-0.815779	-0.388705
C86	C	1.415783	-0.315779	0.111295
C87	C	0.829247	-0.815651	-0.475187
C88	C	1.329247	-0.315651	0.024813
C89	C	0.817054	-0.909845	-0.487426
C90	C	1.317054	-0.409845	0.012574
C91	C	1.098608	-0.434048	-0.382440
C92	C	1.598608	0.065952	0.117560
C93	C	1.173838	-0.434061	-0.382449
C94	C	1.673838	0.065939	0.117551
C95	C	0.922297	-0.433660	-0.558916
C96	C	1.422297	0.066340	-0.058916
C97	C	0.922394	-0.433507	-0.634128
C98	C	1.422394	0.066493	-0.134128
C99	C	0.952686	-0.198759	-0.351928
C100	C	1.452686	0.301241	0.148072
C101	C	0.965733	-0.098505	-0.338934
C102	C	1.465733	0.401495	0.161066
C103	C	0.921889	-0.434313	-0.206601
C104	C	1.421889	0.065687	0.293399
C105	C	0.921956	-0.434212	-0.131356
C106	C	1.421956	0.065788	0.368644
C107	C	0.871458	-0.492256	-0.103346
C108	C	1.371458	0.007744	0.396654
C109	C	0.871518	-0.492153	-0.032645
C110	C	1.371518	0.007847	0.467355
C111	C	0.922079	-0.434010	0.010046
C112	C	1.422079	0.065990	0.510046
C113	C	0.972580	-0.375960	-0.017968
C114	C	1.472580	0.124040	0.482032
C115	C	0.972517	-0.376058	-0.088668
C116	C	1.472517	0.123942	0.411332
C117	C	0.972835	-0.375559	0.267157
C118	C	1.472835	0.124441	0.767157
C119	C	0.972896	-0.375466	0.337861
C120	C	1.472896	0.124534	0.837861
C121	C	0.871836	-0.491654	0.323180
C122	C	1.371836	0.008346	0.823180
C123	C	0.871773	-0.491752	0.252480
C124	C	1.371773	0.008248	0.752480
C125	C	0.922272	-0.433699	0.224473
C126	C	1.422272	0.066301	0.724473
C127	C	0.922205	-0.433810	0.147810
C128	C	1.422205	0.066190	0.647810
C129	C	0.922149	-0.433903	0.086706
C130	C	1.422149	0.066097	0.586706
H131	H	0.650720	-0.538647	-0.317308
H132	H	1.150720	-0.038647	0.182692
H133	H	0.322345	-0.329401	-0.447535
H134	H	0.822345	0.170599	0.052465
H135	H	0.798980	-0.777246	-0.505414
H136	H	1.298980	-0.277246	-0.005414
H137	H	1.067482	-0.918989	-0.237146
H138	H	1.567482	-0.418989	0.262854
H139	H	0.830404	-0.539429	-0.009845
H140	H	1.330404	-0.039429	0.490155
H141	H	0.776862	-0.948152	-0.527618
H142	H	1.276862	-0.448152	-0.027618
H143	H	1.045352	-1.089887	-0.259352
H144	H	1.545352	-0.589887	0.240648
H145	H	0.194098	-0.329417	-0.447546
H146	H	0.694098	0.170583	0.052454
H147	H	0.830288	-0.539607	-0.138101
H148	H	1.330288	-0.039607	0.361899
H149	H	0.869273	-1.175078	-0.435380
H150	H	1.369273	-0.675078	0.064620
H151	H	0.549876	-0.329368	-0.447514
H152	H	1.049876	0.170632	0.052486
H153	H	0.830603	-0.539102	0.217724
H154	H	1.330603	-0.039102	0.717724
H155	H	1.013957	-0.328293	0.244362
H156	H	1.513957	0.171707	0.744362
H157	H	0.294944	-0.538696	-0.317338
H158	H	0.794944	-0.038696	0.182662
H159	H	0.801825	-1.089499	-0.502725
H160	H	1.301825	-0.589499	-0.002725
H161	H	0.830716	-0.538921	0.345991
H162	H	1.330716	-0.038921	0.845991
H163	H	1.014070	-0.328115	0.372619
H164	H	1.514070	0.171885	0.872619
H165	H	0.166708	-0.538717	-0.317355
H166	H	0.666708	-0.038717	0.182645
H167	H	1.013745	-0.328615	0.016797
H168	H	1.513745	0.171385	0.516797
H169	H	1.013636	-0.328790	-0.111471
H170	H	1.513636	0.171210	0.388529
H171	H	0.522473	-0.538657	-0.317320
H172	H	1.022473	-0.038657	0.182680
H173	H	0.678111	-0.329355	-0.447506
H174	H	1.178111	0.170645	0.052494
H175	H	0.955975	-0.777493	-0.348514
H176	H	1.455975	-0.277493	0.151486
H177	H	1.000052	-0.833413	-0.304491
H178	H	1.500052	-0.333413	0.195509
