data_functionalizedCrystal
_audit_creation_method	'MofGen! by Chris Wilmer'
_symmetry_space_group_name_H-M	'P1'
_symmetry_Int_Tables_number	1
_symmetry_cell_setting	triclinic
loop_
_symmetry_equiv_pos_as_xyz
  x,y,z
_cell_length_a	14.044220
_cell_length_b	14.853567
_cell_length_c	13.930277
_cell_angle_alpha	90.005164
_cell_angle_beta	89.993565
_cell_angle_gamma	91.588096
loop_
_atom_site_label
_atom_site_type_symbol
_atom_site_fract_x
_atom_site_fract_y
_atom_site_fract_z
O1	O	1.257985	-0.217365	0.079714
O2	O	0.982005	-0.209521	0.079738
O3	O	1.127367	-0.082797	0.079728
O4	O	1.112623	-0.344089	0.079724
O5	O	1.127370	-0.082807	-0.079934
O6	O	0.982009	-0.209531	-0.079923
O7	O	1.257988	-0.217375	-0.079948
Zn8	Zn	1.119999	-0.213455	-0.105286
Zn9	Zn	1.119995	-0.213441	0.105076
O10	O	1.112627	-0.344099	-0.079938
C11	C	0.946688	-0.206092	-0.000089
C12	C	0.841449	-0.195851	-0.000079
N13	N	1.119992	-0.213425	0.248642
C14	C	1.126701	-0.049161	-0.000100
C15	C	1.124699	0.051082	-0.000091
C16	C	0.648763	-0.177127	-0.000098
C17	C	0.591225	-0.249765	-0.000103
C18	C	0.484008	-0.239347	-0.000114
C19	C	0.755990	-0.187544	-0.000088
C20	C	1.293306	-0.220803	-0.000118
C21	C	1.398545	-0.231045	-0.000122
C22	C	1.113293	-0.377735	-0.000108
C23	C	1.115295	-0.477978	-0.000110
C24	C	1.029888	0.471127	-0.000101
C25	C	1.202581	0.478726	-0.000116
C26	C	1.204464	0.384543	-0.000111
C27	C	1.119057	0.333648	-0.000102
C28	C	1.031768	0.376935	-0.000098
C29	C	1.291751	0.341248	-0.000124
C30	C	1.293637	0.247060	-0.000120
C31	C	1.208229	0.196163	-0.000104
C32	C	1.120937	0.239456	-0.000099
C33	C	1.035530	0.188561	-0.000090
C34	C	0.948237	0.231852	-0.000079
C35	C	0.946360	0.326038	-0.000083
C36	C	1.210105	0.101977	-0.000100
C37	C	1.037410	0.094369	-0.000088
N38	N	1.120009	-0.213464	-0.248852
C39	C	1.062567	-0.154012	0.700918
C40	C	1.177448	-0.272906	0.700874
C41	C	1.177445	-0.272901	0.600378
C42	C	1.120002	-0.213449	0.550148
C43	C	1.062563	-0.154003	0.600413
C44	C	1.234890	-0.332340	0.550105
C45	C	1.234889	-0.332336	0.449603
C46	C	1.177441	-0.272888	0.399371
C47	C	1.119999	-0.213440	0.449643
C48	C	1.062556	-0.153988	0.399412
C49	C	1.005109	-0.094544	0.449682
C50	C	1.005115	-0.094555	0.550181
C51	C	1.177435	-0.272877	0.298872
C52	C	1.062553	-0.153979	0.298907
H53	H	0.622488	-0.319778	-0.000100
C54	C	0.606529	-0.082549	-0.000094
N55	N	0.574708	-0.011313	-0.000087
H56	H	0.958346	-0.046158	0.591120
C57	C	0.943453	0.038392	-0.000075
N58	N	0.872685	-0.003770	-0.000066
H59	H	0.878699	0.190401	-0.000078
C60	C	0.850346	0.373666	-0.000090
N61	N	0.778029	0.409543	-0.000104
H62	H	1.015791	-0.105617	0.741852
H63	H	0.958343	-0.046135	0.408772
C64	C	1.240626	-0.338259	0.243580
N65	N	1.288224	-0.387509	0.201935
C66	C	1.298056	-0.397748	0.394315
N67	N	1.345623	-0.447026	0.352672
C68	C	1.385691	0.397238	-0.000141
N69	N	1.456451	0.439414	-0.000152
C70	C	0.933870	0.518748	-0.000097
N71	N	0.861548	0.554617	-0.000099
H72	H	1.272115	0.520170	-0.000132
C73	C	1.389660	0.199448	-0.000125
N74	N	1.461986	0.163586	-0.000125
H75	H	1.281178	0.066733	-0.000116
H76	H	1.224221	-0.321304	0.741777
H77	H	1.015772	-0.105570	0.258017
H78	H	1.281663	-0.380736	0.591010
