data_functionalizedCrystal
_audit_creation_method	'MofGen! by Chris Wilmer'
_symmetry_space_group_name_H-M	'P1'
_symmetry_Int_Tables_number	1
_symmetry_cell_setting	triclinic
loop_
_symmetry_equiv_pos_as_xyz
  x,y,z
_cell_length_a	19.188930
_cell_length_b	19.188930
_cell_length_c	18.266242
_cell_angle_alpha	89.988525
_cell_angle_beta	89.977082
_cell_angle_gamma	83.144779
loop_
_atom_site_label
_atom_site_type_symbol
_atom_site_fract_x
_atom_site_fract_y
_atom_site_fract_z
O1	O	0.926149	0.087169	-0.061124
O2	O	1.426149	0.587169	0.438876
O3	O	0.722838	0.098903	-0.061075
O4	O	1.222838	0.598903	0.438925
O5	O	0.830361	-0.008620	-0.061087
O6	O	1.330361	0.491380	0.438913
O7	O	0.818627	0.194691	-0.061113
O8	O	1.318627	0.694691	0.438887
O9	O	0.830343	-0.008625	0.060675
O10	O	1.330343	0.491375	0.560675
O11	O	0.722820	0.098897	0.060687
O12	O	1.222820	0.598897	0.560687
O13	O	0.926131	0.087163	0.060638
O14	O	1.426131	0.587163	0.560638
Zn15	Zn	0.824473	0.093029	0.079994
Zn16	Zn	1.324473	0.593029	0.579994
Zn17	Zn	0.824497	0.093037	-0.080432
Zn18	Zn	1.324497	0.593037	0.419568
O19	O	0.818608	0.194686	0.060649
O20	O	1.318608	0.694686	0.560649
C21	C	0.696818	0.098520	-0.000188
C22	C	1.196818	0.598520	0.499812
C23	C	0.619313	0.097380	-0.000169
C24	C	1.119313	0.597380	0.499831
C25	C	0.574389	0.160470	-0.000188
C26	C	1.074389	0.660470	0.499812
C27	C	0.501566	0.159399	-0.000196
C28	C	1.001566	0.659399	0.499804
C29	C	0.473669	0.095233	-0.000199
C30	C	0.973669	0.595233	0.499801
C31	C	0.518603	0.032133	-0.000175
C32	C	1.018603	0.532133	0.499825
C33	C	0.591425	0.033207	-0.000160
C34	C	1.091425	0.533207	0.499840
N35	N	0.365695	0.046188	-0.041663
N36	N	0.865695	0.546188	0.458337
N37	N	0.296516	0.045172	-0.041679
N38	N	0.796516	0.545172	0.458321
C39	C	0.254260	0.091994	-0.000243
C40	C	0.754260	0.591994	0.499757
N41	N	0.283795	0.139881	0.041200
N42	N	0.783795	0.639881	0.541200
N43	N	0.352980	0.140899	0.041213
N44	N	0.852980	0.640899	0.541213
C45	C	0.394707	0.094062	-0.000215
C46	C	0.894707	0.594062	0.499785
C47	C	0.130372	0.153928	-0.000270
C48	C	0.630372	0.653928	0.499730
C49	C	0.057547	0.152853	-0.000274
C50	C	0.557547	0.652853	0.499726
C51	C	0.074586	0.025586	-0.000261
C52	C	0.574586	0.525586	0.499739
C53	C	0.147409	0.026662	-0.000250
C54	C	0.647409	0.526662	0.499750
C55	C	0.175298	0.090835	-0.000258
C56	C	0.675298	0.590835	0.499742
C57	C	0.829972	-0.034634	-0.000204
C58	C	1.329972	0.465366	0.499796
C59	C	0.828831	-0.112138	-0.000197
C60	C	1.328831	0.387862	0.499803
C61	C	0.891922	-0.157062	-0.000209
C62	C	1.391922	0.342938	0.499791
C63	C	0.890850	-0.229886	-0.000220
C64	C	1.390850	0.270114	0.499780
C65	C	0.826684	-0.257782	-0.000206
C66	C	1.326684	0.242218	0.499794
C67	C	0.763585	-0.212849	-0.000198
C68	C	1.263585	0.287151	0.499802
C69	C	0.764658	-0.140026	-0.000194
C70	C	1.264658	0.359974	0.499806
N71	N	0.777631	-0.365789	0.041244
N72	N	1.277631	0.134211	0.541244
N73	N	0.776615	-0.434968	0.041242
N74	N	1.276615	0.065032	0.541242
C75	C	0.823446	-0.477191	-0.000220
C76	C	1.323446	0.022809	0.499780
N77	N	0.871341	-0.447624	-0.041669
N78	N	1.371341	0.052376	0.458331
N79	N	0.872359	-0.378439	-0.041664
N80	N	1.372359	0.121561	0.458336
C81	C	0.825513	-0.336745	-0.000210
C82	C	1.325513	0.163255	0.499790
C83	C	0.885379	-0.601079	-0.000245
C84	C	1.385379	-0.101079	0.499755
C85	C	0.884305	-0.673904	-0.000261
C86	C	1.384305	-0.173904	0.499739
C87	C	0.757038	-0.656865	-0.000231
C88	C	1.257038	-0.156865	0.499769
C89	C	0.758114	-0.584042	-0.000222
C90	C	1.258114	-0.084042	0.499778
C91	C	0.822287	-0.556154	-0.000226
C92	C	1.322287	-0.056154	0.499774
C93	C	0.952151	0.087546	-0.000252
C94	C	1.452151	0.587546	0.499748
C95	C	1.029656	0.088687	-0.000276
C96	C	1.529656	0.588687	0.499724
C97	C	0.818997	0.220700	-0.000236
C98	C	1.318997	0.720700	0.499764
C99	C	0.820138	0.298204	-0.000247
C100	C	1.320138	0.798204	0.499753
N101	N	0.824461	0.093024	0.189481
N102	N	1.324461	0.593024	0.689481
N103	N	0.824513	0.093037	-0.189919
N104	N	1.324513	0.593037	0.310081
C105	C	0.872088	0.045436	0.227785
C106	C	1.372088	0.545436	0.727785
C107	C	0.872092	0.045433	0.304430
C108	C	1.372092	0.545433	0.804430
C109	C	0.824477	0.093030	0.342768
C110	C	1.324477	0.593030	0.842768
C111	C	0.776841	0.140621	0.304455
C112	C	1.276841	0.640621	0.804455
C113	C	0.776834	0.140618	0.227812
C114	C	1.276834	0.640618	0.727812
N115	N	0.815401	0.154837	0.463094
N116	N	1.315401	0.654837	0.963094
N117	N	0.815413	0.154838	0.535902
N118	N	1.315413	0.654838	1.035902
C119	C	0.824496	0.093040	0.573691
C120	C	1.324496	0.593040	1.073691
N121	N	0.833582	0.031239	0.535920
N122	N	1.333582	0.531239	1.035920
N123	N	0.833574	0.031240	0.463106
N124	N	1.333574	0.531240	0.963106
C125	C	0.824480	0.093038	0.425875
C126	C	1.324480	0.593038	0.925875
C127	C	0.872131	0.045444	0.695101
C128	C	1.372131	0.545444	1.195101
C129	C	0.872130	0.045440	0.771748
C130	C	1.372130	0.545440	1.271748
C131	C	0.776882	0.140634	0.771772
C132	C	1.276882	0.640634	1.271772
C133	C	0.776879	0.140632	0.695127
C134	C	1.276879	0.640632	1.195127
C135	C	0.824507	0.093038	0.656796
C136	C	1.324507	0.593038	1.156796
H137	H	0.495885	-0.020111	-0.000188
H138	H	0.995885	0.479889	0.499812
O139	O	0.730531	0.186802	0.808971
O140	O	1.230531	0.686802	1.308971
C141	C	0.609008	0.228043	0.832437
C142	C	1.109008	0.728043	1.332437
C143	C	0.661428	0.175710	0.790273
C144	C	1.161428	0.675710	1.290273
H145	H	0.553127	0.219103	0.817324
H146	H	1.053127	0.719103	1.317324
H147	H	0.617131	0.219872	0.893805
H148	H	1.117131	0.719872	1.393805
H149	H	0.617967	0.283937	0.817357
H150	H	1.117967	0.783937	1.317357
H151	H	0.652500	0.119795	0.805291
H152	H	1.152500	0.619795	1.305291
H153	H	0.653293	0.183942	0.728915
H154	H	1.153293	0.683942	1.228915
H155	H	0.704792	-0.679578	-0.000222
H156	H	1.204792	-0.179578	0.499778
O157	O	0.013935	0.214163	-0.000422
O158	O	0.513935	0.714163	0.499578
C159	C	-0.022841	0.322623	-0.063508
C160	C	0.477159	0.822623	0.436492
C161	C	0.026578	0.253208	-0.063439
C162	C	0.526578	0.753208	0.436561
H163	H	-0.012627	0.354218	-0.114444
H164	H	0.487373	0.854218	0.385556
H165	H	-0.079695	0.310879	-0.063560
H166	H	0.420305	0.810879	0.436440
H167	H	-0.012753	0.354186	-0.012532
H168	H	0.487247	0.854186	0.487468
H169	H	0.016553	0.221612	-0.114406
H170	H	0.516553	0.721612	0.385594
H171	H	0.083415	0.265002	-0.063348
H172	H	0.583415	0.765002	0.436652
H173	H	0.942228	-0.266470	-0.000233
H174	H	1.442228	0.233530	0.499767
H175	H	0.738100	0.179386	0.663938
H176	H	1.238100	0.679386	1.163938
H177	H	0.628003	-0.018171	-0.000145
H178	H	1.128003	0.481829	0.499855
O179	O	0.947668	-0.573898	-0.000355
O180	O	1.447668	-0.073898	0.499645
C181	C	1.022760	-0.501580	-0.063471
C182	C	1.522760	-0.001580	0.436529
C183	C	0.952188	-0.532301	-0.063427
C184	C	1.452188	-0.032301	0.436573
H185	H	1.026443	-0.467954	-0.114467
H186	H	1.526443	0.032046	0.385533
H187	H	1.026448	-0.467881	-0.012546
H188	H	1.526448	0.032119	0.487454
H189	H	1.067660	-0.546211	-0.063453
H190	H	1.567660	-0.046211	0.436547
H191	H	0.907247	-0.487715	-0.063471
H192	H	1.407247	0.012285	0.436529
H193	H	0.948560	-0.566019	-0.114348
H194	H	1.448560	-0.066019	0.385652
O195	O	0.730520	0.186882	0.341580
O196	O	1.230520	0.686882	0.841580
C197	C	0.636070	0.281322	0.333517
C198	C	1.136070	0.781322	0.833517
C199	C	0.688486	0.228960	0.291383
C200	C	1.188486	0.728960	0.791383
H201	H	0.602082	0.315365	0.292951
H202	H	1.102082	0.815365	0.792951
H203	H	0.601244	0.251298	0.369406
H204	H	1.101244	0.751298	0.869406
H205	H	0.666119	0.316100	0.369393
H206	H	1.166119	0.816100	0.869393
H207	H	0.658494	0.194169	0.255467
H208	H	1.158494	0.694169	0.755467
H209	H	0.723312	0.259028	0.255540
H210	H	1.223312	0.759028	0.755540
H211	H	0.910911	0.006685	0.802935
H212	H	1.410911	0.506685	1.302935
H213	H	0.153080	0.206181	-0.000267
H214	H	0.653080	0.706181	0.499733
H215	H	0.051874	-0.026659	-0.000309
H216	H	0.551874	0.473341	0.499691
H217	H	0.935683	-0.710481	-0.000274
H218	H	1.435683	-0.210481	0.499726
O219	O	0.918313	-0.000779	0.657757
O220	O	1.418313	0.499221	1.157757
C221	C	0.933538	-0.096131	0.571193
C222	C	1.433538	0.403869	1.071193
C223	C	0.881147	-0.043839	0.613440
C224	C	1.381147	0.456161	1.113440
H225	H	0.903510	-0.130968	0.535364
H226	H	1.403510	0.369032	1.035364
H227	H	0.968277	-0.066049	0.535262
H228	H	1.468277	0.433951	1.035262
H229	H	0.967621	-0.130122	0.611724
H230	H	1.467621	0.369878	1.111724
H231	H	0.847018	-0.009834	0.572961
H232	H	1.347018	0.490166	1.072961
H233	H	0.846457	-0.073963	0.649382
H234	H	1.346457	0.426037	1.149382
H235	H	0.183988	-0.024713	-0.000238
H236	H	0.683988	0.475287	0.499762
H237	H	0.464982	0.210776	-0.000210
H238	H	0.964982	0.710776	0.499790
O239	O	0.601363	0.222867	-0.000156
O240	O	1.101363	0.722867	0.499844
C241	C	0.576774	0.348982	-0.000215
C242	C	1.076774	0.848982	0.499785
C243	C	0.546132	0.278369	-0.000238
C244	C	1.046132	0.778369	0.499762
H245	H	0.532135	0.393874	-0.000297
H246	H	1.032135	0.893874	0.499703
H247	H	0.610385	0.352713	0.050762
H248	H	1.110385	0.852713	0.550762
H249	H	0.610497	0.352632	-0.051152
H250	H	1.110497	0.852632	0.448848
H251	H	0.512378	0.274671	0.050665
H252	H	1.012378	0.774671	0.550665
H253	H	0.512561	0.274668	-0.051249
H254	H	1.012561	0.774668	0.448751
H255	H	0.944176	-0.134360	-0.000214
H256	H	1.444176	0.365640	0.499786
H257	H	0.706738	-0.547464	-0.000208
H258	H	1.206738	-0.047464	0.499792
H259	H	0.711340	-0.235567	-0.000187
H260	H	1.211340	0.264433	0.499813
O261	O	0.703305	-0.096483	-0.000146
O262	O	1.203305	0.403517	0.499854
C263	C	0.576962	-0.087268	-0.000165
C264	C	1.076962	0.412732	0.499835
C265	C	0.646393	-0.136662	-0.000204
C266	C	1.146393	0.363338	0.499796
H267	H	0.530931	-0.119732	-0.000227
H268	H	1.030931	0.380268	0.499773
H269	H	0.574227	-0.052775	0.050809
H270	H	1.074227	0.447225	0.550809
H271	H	0.574332	-0.052720	-0.051105
H272	H	1.074332	0.447280	0.448895
H273	H	0.649070	-0.171253	0.050703
H274	H	1.149070	0.328747	0.550703
H275	H	0.649100	-0.171106	-0.051211
H276	H	1.149100	0.328894	0.448789
O277	O	0.918373	-0.000868	0.190666
O278	O	1.418373	0.499132	0.690666
C279	C	1.012874	-0.095256	0.198734
C280	C	1.512874	0.404744	0.698734
C281	C	0.960485	-0.042864	0.240865
C282	C	1.460485	0.457136	0.740865
H283	H	1.046945	-0.129214	0.239301
H284	H	1.546945	0.370786	0.739301
H285	H	0.982873	-0.130113	0.162899
H286	H	1.482873	0.369887	0.662899
H287	H	1.047622	-0.065186	0.162803
H288	H	1.547622	0.434814	0.662803
H289	H	0.925724	-0.072877	0.276835
H290	H	1.425724	0.427123	0.776835
H291	H	0.990530	-0.008007	0.276653
H292	H	1.490530	0.491993	0.776653
O293	O	0.918263	-0.000862	0.341685
O294	O	1.418263	0.499138	0.841685
C295	C	0.933434	-0.096211	0.428282
C296	C	1.433434	0.403789	0.928282
C297	C	0.881070	-0.043835	0.386125
C298	C	1.381070	0.456165	0.886125
H299	H	0.903383	-0.130959	0.464233
H300	H	1.403383	0.369041	0.964233
H301	H	0.967465	-0.130282	0.387758
H302	H	1.467465	0.369718	0.887758
H303	H	0.968226	-0.066128	0.464104
H304	H	1.468226	0.433872	0.964104
H305	H	0.846232	-0.073862	0.350301
H306	H	1.346232	0.426138	0.850301
H307	H	0.847088	-0.009765	0.426688
H308	H	1.347088	0.490235	0.926688
H309	H	0.738049	0.179371	0.196624
H310	H	1.238049	0.679371	0.696624
