data_functionalizedCrystal
_audit_creation_method	'MofGen! by Chris Wilmer'
_symmetry_space_group_name_H-M	'P1'
_symmetry_Int_Tables_number	1
_symmetry_cell_setting	triclinic
loop_
_symmetry_equiv_pos_as_xyz
  x,y,z
_cell_length_a	10.654549
_cell_length_b	23.532357
_cell_length_c	9.130313
_cell_angle_alpha	89.989961
_cell_angle_beta	89.997498
_cell_angle_gamma	83.656534
loop_
_atom_site_label
_atom_site_type_symbol
_atom_site_fract_x
_atom_site_fract_y
_atom_site_fract_z
O1	O	1.665274	0.079986	-0.121785
O2	O	1.299551	0.087606	-0.121798
O3	O	1.493474	0.000934	-0.121761
O4	O	1.471351	0.166658	-0.121822
O5	O	1.493460	0.000932	0.121838
O6	O	1.299538	0.087604	0.121801
O7	O	1.665261	0.079983	0.121813
Cu8	Cu	1.482398	0.083793	0.144050
Cu9	Cu	1.482414	0.083796	-0.144034
O10	O	1.471338	0.166655	0.121777
C11	C	1.252764	0.087046	0.000001
C12	C	1.113375	0.085372	-0.000003
C13	C	0.901274	0.134826	-0.000015
C14	C	1.032244	0.136403	-0.000024
C15	C	1.063530	0.032760	0.000013
C16	C	0.932562	0.031183	0.000012
C17	C	1.492914	-0.020287	0.000043
C18	C	1.491250	-0.083517	0.000057
C19	C	1.480813	-0.475594	-0.132809
C20	C	1.479231	-0.535004	-0.132817
O21	O	1.478377	-0.565725	-0.245746
N22	N	1.478440	-0.564722	-0.000033
C23	C	1.479217	-0.535026	0.132768
O24	O	1.478398	-0.565758	0.245710
C25	C	1.480790	-0.475617	0.132775
C26	C	1.481594	-0.445903	-0.000018
C27	C	1.481616	-0.445880	-0.265590
C28	C	1.483199	-0.386475	-0.265581
C29	C	1.483980	-0.356783	-0.132791
C30	C	1.483178	-0.386497	-0.000009
C31	C	1.481558	-0.445922	0.265574
C32	C	1.483130	-0.386508	0.265570
C33	C	1.483934	-0.356794	0.132777
C34	C	1.485542	-0.297400	0.132791
N35	N	1.486334	-0.267683	0.000007
C36	C	1.485553	-0.297374	-0.132784
C37	C	1.475913	-0.659789	0.132743
C38	C	1.474350	-0.719198	0.132738
C39	C	1.474361	-0.719172	-0.132847
C40	C	1.475934	-0.659762	-0.132841
C41	C	1.476704	-0.630071	-0.000041
C42	C	1.488880	-0.172618	-0.132755
C43	C	1.490469	-0.113208	-0.132734
C44	C	1.490450	-0.113239	0.132850
C45	C	1.488868	-0.172645	0.132830
C46	C	1.488079	-0.202333	0.000016
O47	O	1.486393	-0.266642	0.245662
O48	O	1.486356	-0.266634	-0.245707
C49	C	1.712047	0.080544	0.000012
C50	C	1.851437	0.082218	0.000006
C51	C	1.471898	0.187877	-0.000030
C52	C	1.473562	0.251106	-0.000054
N53	N	1.482396	0.083791	0.346672
N54	N	1.482425	0.083794	-0.346657
C55	C	1.568294	0.045429	0.423340
C56	C	1.568306	0.045429	0.576677
C57	C	1.396519	0.122158	0.576664
C58	C	1.396502	0.122155	0.423330
H59	H	0.835224	0.176381	-0.000021
C60	C	1.479212	-0.536935	-0.383573
C61	C	1.480761	-0.478512	-0.411570
H62	H	1.478684	-0.557075	-0.473704
H63	H	1.552183	-0.550731	-0.329019
H64	H	1.405705	-0.542619	-0.329028
H65	H	1.554274	-0.472826	-0.466106
H66	H	1.407783	-0.464711	-0.466148
C67	C	0.988155	0.238689	-0.000039
C68	C	1.087023	0.194231	-0.000037
H69	H	1.021976	0.274391	-0.000039
H70	H	0.937728	0.235921	-0.084981
H71	H	0.937722	0.235911	0.084917
H72	H	1.137452	0.197007	-0.084999
H73	H	1.137472	0.197001	0.084913
C74	C	1.228983	-0.025590	-0.125180
C75	C	1.152712	-0.023334	0.000037
H76	H	1.284043	-0.060219	-0.125154
H77	H	1.177248	-0.024055	-0.210115
H78	H	1.277401	0.005971	-0.125174
H79	H	1.104286	-0.054893	0.000026
H80	H	1.204454	-0.024875	0.084995
H81	H	1.326548	0.153394	0.360903
H82	H	0.891986	-0.011659	0.000024
H83	H	1.491127	-0.089018	-0.240875
H84	H	1.488231	-0.196783	-0.240905
C85	C	1.178707	0.154676	0.623916
C86	C	1.302112	0.164327	0.660939
H87	H	1.120426	0.180708	0.675951
H88	H	1.166408	0.160168	0.521637
H89	H	1.165590	0.116608	0.649077
H90	H	1.315232	0.202393	0.635767
H91	H	1.314416	0.158840	0.763241
H92	H	1.638232	0.014190	0.360929
C93	C	1.738117	-0.030408	0.561278
C94	C	1.662732	0.003262	0.660951
H95	H	1.796417	-0.056439	0.613307
H96	H	1.686112	-0.051115	0.501497
H97	H	1.782962	-0.006504	0.501448
H98	H	1.617880	-0.020642	0.720774
H99	H	1.714744	0.023971	0.720757
H100	H	1.483849	-0.362287	-0.373715
C101	C	1.475785	-0.665718	-0.395355
C102	C	1.476802	-0.627103	-0.278809
H103	H	1.476311	-0.645556	-0.485471
H104	H	1.548409	-0.692942	-0.389826
H105	H	1.401930	-0.684837	-0.389817
H106	H	1.550662	-0.607987	-0.284340
H107	H	1.404171	-0.599869	-0.284340
H108	H	1.473721	-0.743357	-0.240973
C109	C	1.471897	-0.810272	0.250679
C110	C	1.473458	-0.751856	0.278707
H111	H	1.471342	-0.830430	0.340799
H112	H	1.398413	-0.815941	0.196110
H113	H	1.544891	-0.824063	0.196139
H114	H	1.400459	-0.738063	0.333237
H115	H	1.546949	-0.746183	0.333299
C116	C	1.369718	-0.587020	0.286859
C117	C	1.476777	-0.627156	0.278730
H118	H	1.370249	-0.566879	0.376989
H119	H	1.370423	-0.560818	0.207798
H120	H	1.295873	-0.606145	0.281327
H121	H	1.550622	-0.608030	0.284251
H122	H	1.476083	-0.653361	0.357813
H123	H	1.480905	-0.470105	0.373708
C124	C	1.375611	-0.362259	0.491928
C125	C	1.483968	-0.353870	0.411548
H126	H	1.376133	-0.342112	0.582049
H127	H	1.302655	-0.348460	0.437352
H128	H	1.374572	-0.401895	0.510915
H129	H	1.485003	-0.314234	0.392552
H130	H	1.556943	-0.367666	0.466136
H131	H	1.488225	-0.196839	0.240961
H132	H	1.491092	-0.089054	0.240965
