data_functionalizedCrystal
_audit_creation_method	'MofGen! by Chris Wilmer'
_symmetry_space_group_name_H-M	'P1'
_symmetry_Int_Tables_number	1
_symmetry_cell_setting	triclinic
loop_
_symmetry_equiv_pos_as_xyz
  x,y,z
_cell_length_a	12.827893
_cell_length_b	25.639233
_cell_length_c	12.827892
_cell_angle_alpha	89.987263
_cell_angle_beta	90.015362
_cell_angle_gamma	89.988585
loop_
_atom_site_label
_atom_site_type_symbol
_atom_site_fract_x
_atom_site_fract_y
_atom_site_fract_z
Zn1	Zn	1.597589	-0.295614	-0.416161
Zn2	Zn	1.597507	-0.208188	-0.590886
Zn3	Zn	1.422854	-0.208195	-0.416159
Zn4	Zn	1.422815	-0.295594	-0.590861
O5	O	1.510191	-0.251898	-0.503517
O6	O	1.743814	-0.284022	-0.439350
O7	O	1.574320	-0.135023	-0.567718
O8	O	1.446083	-0.219802	-0.269924
O9	O	1.743753	-0.219791	-0.567719
O10	O	1.574460	-0.284029	-0.269925
O11	O	1.446004	-0.135028	-0.439347
O12	O	1.276613	-0.219783	-0.439323
O13	O	1.446017	-0.368762	-0.567677
O14	O	1.276584	-0.283995	-0.567675
O15	O	1.574423	-0.368777	-0.439325
O16	O	1.574283	-0.219771	-0.737119
O17	O	1.445938	-0.283988	-0.737100
C18	C	1.238681	-0.251888	-0.503497
C19	C	1.122528	-0.251896	-0.503513
C20	C	1.070757	-0.283621	-0.567125
C21	C	0.950707	-0.283630	-0.567144
C22	C	1.510225	-0.388271	-0.503498
C23	C	1.510239	-0.446385	-0.503491
C24	C	1.577184	-0.806761	-0.436460
C25	C	1.577197	-0.861366	-0.436431
O26	O	1.634032	-0.889614	-0.379562
N27	N	1.510354	-0.888667	-0.503246
C28	C	1.443486	-0.861362	-0.570086
O29	O	1.386632	-0.889598	-0.626914
C30	C	1.443469	-0.806759	-0.570109
C31	C	1.510324	-0.779460	-0.503297
C32	C	1.644033	-0.779462	-0.369652
C33	C	1.644021	-0.724862	-0.369683
C34	C	1.577161	-0.697560	-0.436521
C35	C	1.510312	-0.724859	-0.503328
C36	C	1.376597	-0.779454	-0.636944
C37	C	1.376584	-0.724847	-0.636960
C38	C	1.443439	-0.697548	-0.570148
C39	C	1.443440	-0.642957	-0.570196
N40	N	1.510283	-0.615655	-0.503381
C41	C	1.577143	-0.642957	-0.436544
C42	C	1.443527	-0.976033	-0.570032
C43	C	1.443549	-1.030635	-0.570015
C44	C	1.577258	-1.030635	-0.436358
C45	C	1.577241	-0.976032	-0.436381
C46	C	1.510370	-0.948731	-0.503217
C47	C	1.577114	-0.528292	-0.436613
C48	C	1.577100	-0.473686	-0.436653
C49	C	1.443386	-0.473691	-0.570306
C50	C	1.443404	-0.528292	-0.570270
C51	C	1.510272	-0.555591	-0.503416
O52	O	1.386631	-0.614674	-0.627033
O53	O	1.633979	-0.614714	-0.379716
C54	C	1.782761	-0.251908	-0.503538
C55	C	1.898914	-0.251912	-0.503547
C56	C	1.510126	-0.251888	-0.775027
C57	C	1.510193	-0.251901	-0.891180
C58	C	1.510218	-0.116055	-0.503460
C59	C	1.510406	-0.057941	-0.503173
C60	C	1.573690	-0.283711	-0.942882
C61	C	1.573761	-0.283726	-1.062932
C62	C	1.510285	-0.251919	-0.230947
C63	C	1.510325	-0.251928	-0.114793
H64	H	0.943430	-0.224748	-0.449087
H65	H	1.455880	-0.224681	-0.935792
H66	H	1.631561	-0.550512	-0.382171
N67	N	1.645623	-0.319779	-0.883801
H68	H	1.635372	-0.314658	-0.806415
H69	H	1.720298	-0.311688	-0.902763
N70	N	1.371439	-1.060070	-0.642083
H71	H	1.323028	-1.082720	-0.599600
H72	H	1.413958	-1.082698	-0.690497
N73	N	1.371390	-0.946589	-0.642117
H74	H	1.329050	-0.972174	-0.684432
H75	H	1.413889	-0.923931	-0.690499
H76	H	1.388954	-0.451452	-0.624726
N77	N	1.645764	-0.319813	-1.121804
H78	H	1.720449	-0.311738	-1.102808
H79	H	1.635523	-0.314699	-1.199200
H80	H	1.631679	-0.953808	-0.381975
H81	H	1.115310	-0.310777	-0.621568
N82	N	0.891744	-0.319607	-0.639295
H83	H	0.814343	-0.314513	-0.629084
H84	H	0.910793	-0.356969	-0.623157
N85	N	1.438318	-0.215848	-1.055909
H86	H	1.389876	-0.237088	-1.010643
H87	H	1.396064	-0.194636	-1.107081
H88	H	1.631545	-0.451462	-0.382246
N89	N	1.063522	-0.215922	-0.431396
H90	H	1.114565	-0.194748	-0.388943
H91	H	1.018255	-0.237268	-0.383144
N92	N	1.716126	-0.695422	-0.297618
H93	H	1.758476	-0.721009	-0.255276
H94	H	1.673600	-0.672766	-0.249261
H95	H	1.698479	-0.801685	-0.315219
N96	N	1.649375	-1.060087	-0.364265
H97	H	1.639233	-1.098819	-0.374392
H98	H	1.633132	-1.050543	-0.289634
N99	N	1.304487	-0.808889	-0.709005
H100	H	1.262131	-0.783301	-0.751337
H101	H	1.256145	-0.831541	-0.666450
N102	N	1.304448	-0.695402	-0.709040
H103	H	1.262101	-0.720985	-0.751354
H104	H	1.346952	-0.672747	-0.757423
N105	N	1.371313	-0.557740	-0.642342
H106	H	1.328959	-0.532156	-0.684691
H107	H	1.322967	-0.580389	-0.599788
