data_functionalizedCrystal
_audit_creation_method	'MofGen! by Chris Wilmer'
_symmetry_space_group_name_H-M	'P1'
_symmetry_Int_Tables_number	1
_symmetry_cell_setting	triclinic
loop_
_symmetry_equiv_pos_as_xyz
  x,y,z
_cell_length_a	29.839131
_cell_length_b	29.839135
_cell_length_c	29.839125
_cell_angle_alpha	89.984512
_cell_angle_beta	89.974637
_cell_angle_gamma	90.037758
loop_
_atom_site_label
_atom_site_type_symbol
_atom_site_fract_x
_atom_site_fract_y
_atom_site_fract_z
Zn1	Zn	-0.178886	0.686739	-0.254023
Zn2	Zn	0.071114	0.936739	-0.004023
Zn3	Zn	0.321114	1.186739	0.245977
Zn4	Zn	0.571114	1.436739	0.495977
Zn5	Zn	-0.253998	0.686679	-0.178883
Zn6	Zn	-0.003998	0.936679	0.071117
Zn7	Zn	0.246002	1.186679	0.321117
Zn8	Zn	0.496002	1.436679	0.571117
Zn9	Zn	-0.178886	0.611622	-0.178901
Zn10	Zn	0.071114	0.861622	0.071099
Zn11	Zn	0.321114	1.111622	0.321099
Zn12	Zn	0.571114	1.361622	0.571099
Zn13	Zn	-0.253993	0.611578	-0.253980
Zn14	Zn	-0.003993	0.861578	-0.003980
Zn15	Zn	0.246007	1.111578	0.246020
Zn16	Zn	0.496007	1.361578	0.496020
O17	O	-0.216441	0.649154	-0.216447
O18	O	0.033559	0.899154	0.033553
O19	O	0.283559	1.149154	0.283553
O20	O	0.533559	1.399154	0.533553
O21	O	-0.188852	0.749598	-0.244066
O22	O	0.061148	0.999598	0.005934
O23	O	0.311148	1.249598	0.255934
O24	O	0.561148	1.499598	0.505934
O25	O	-0.244036	0.676716	-0.116019
O26	O	0.005964	0.926716	0.133981
O27	O	0.255964	1.176716	0.383981
O28	O	0.505964	1.426716	0.633981
O29	O	-0.116019	0.621630	-0.188892
O30	O	0.133981	0.871630	0.061108
O31	O	0.383981	1.121630	0.311108
O32	O	0.633981	1.371630	0.561108
O33	O	-0.244036	0.749554	-0.188861
O34	O	0.005964	0.999554	0.061139
O35	O	0.255964	1.249554	0.311139
O36	O	0.505964	1.499554	0.561139
O37	O	-0.116019	0.676818	-0.244084
O38	O	0.133981	0.926818	0.005916
O39	O	0.383981	1.176818	0.255916
O40	O	0.633981	1.426818	0.505916
O41	O	-0.188852	0.621572	-0.116032
O42	O	0.061148	0.871572	0.133968
O43	O	0.311148	1.121572	0.383968
O44	O	0.561148	1.371572	0.633968
O45	O	-0.188847	0.548749	-0.188850
O46	O	0.061153	0.798749	0.061150
O47	O	0.311153	1.048749	0.311150
O48	O	0.561153	1.298749	0.561150
O49	O	-0.244028	0.621554	-0.316853
O50	O	0.005972	0.871554	-0.066853
O51	O	0.255972	1.121554	0.183147
O52	O	0.505972	1.371554	0.433147
O53	O	-0.244028	0.548716	-0.244010
O54	O	0.005972	0.798716	0.005990
O55	O	0.255972	1.048716	0.255990
O56	O	0.505972	1.298716	0.505990
O57	O	-0.188847	0.676775	-0.316885
O58	O	0.061153	0.926775	-0.066885
O59	O	0.311153	1.176775	0.183115
O60	O	0.561153	1.426775	0.433115
O61	O	-0.316864	0.676673	-0.188819
O62	O	-0.066864	0.926673	0.061181
O63	O	0.183136	1.176673	0.311181
O64	O	0.433136	1.426673	0.561181
O65	O	-0.316861	0.621497	-0.243993
O66	O	-0.066861	0.871497	0.006007
O67	O	0.183139	1.121497	0.256007
O68	O	0.433139	1.371497	0.506007
C69	C	-0.216437	0.532432	-0.216428
C70	C	0.033563	0.782432	0.033572
C71	C	0.283563	1.032432	0.283572
C72	C	0.533563	1.282432	0.533572
C73	C	-0.216447	0.482497	-0.216430
C74	C	0.033553	0.732497	0.033570
C75	C	0.283553	0.982497	0.283570
C76	C	0.533553	1.232497	0.533570
C77	C	-0.187750	0.172874	-0.245235
C78	C	0.062250	0.422874	0.004765
C79	C	0.312250	0.672874	0.254765
C80	C	0.562250	0.922874	0.504765
C81	C	-0.187753	-0.014799	-0.245247
C82	C	0.062247	0.235201	0.004753
C83	C	0.312247	0.485201	0.254753
C84	C	0.562247	0.735201	0.504753
O85	O	-0.163344	-0.039047	-0.269717
O86	O	0.086656	0.210953	-0.019717
O87	O	0.336656	0.460953	0.230283
O88	O	0.586656	0.710953	0.480283
N89	N	-0.216441	-0.038288	-0.216464
N90	N	0.033559	0.211712	0.033536
N91	N	0.283559	0.461712	0.283536
N92	N	0.533559	0.711712	0.533536
C93	C	-0.245129	-0.014855	-0.187672
C94	C	0.004871	0.235145	0.062328
C95	C	0.254871	0.485145	0.312328
C96	C	0.504871	0.735145	0.562328
O97	O	-0.269527	-0.039140	-0.163187
O98	O	-0.019527	0.210860	0.086813
O99	O	0.230473	0.460860	0.336813
O100	O	0.480473	0.710860	0.586813
C101	C	-0.245123	0.172817	-0.187658
C102	C	0.004877	0.422817	0.062342
C103	C	0.254877	0.672817	0.312342
C104	C	0.504877	0.922817	0.562342
C105	C	-0.216436	0.196303	-0.216447
C106	C	0.033564	0.446303	0.033553
C107	C	0.283564	0.696303	0.283553
C108	C	0.533564	0.946303	0.533553
C109	C	-0.159065	0.196360	-0.274021
C110	C	0.090935	0.446360	-0.024021
C111	C	0.340935	0.696360	0.225979
C112	C	0.590935	0.946360	0.475979
C113	C	-0.159066	0.243275	-0.274019
C114	C	0.090934	0.493275	-0.024019
C115	C	0.340934	0.743275	0.225981
C116	C	0.590934	0.993275	0.475981
C117	C	-0.187752	0.266705	-0.245231
C118	C	0.062248	0.516705	0.004769
C119	C	0.312248	0.766705	0.254769
C120	C	0.562248	1.016705	0.504769
C121	C	-0.216437	0.243219	-0.216445
C122	C	0.033563	0.493219	0.033555
C123	C	0.283563	0.743219	0.283555
C124	C	0.533563	0.993219	0.533555
C125	C	-0.273808	0.196249	-0.158864
C126	C	-0.023808	0.446249	0.091136
C127	C	0.226192	0.696249	0.341136
C128	C	0.476192	0.946249	0.591136
C129	C	-0.273803	0.243170	-0.158862
C130	C	-0.023803	0.493170	0.091138
C131	C	0.226197	0.743170	0.341138
C132	C	0.476197	0.993170	0.591138
C133	C	-0.245116	0.266656	-0.187651
C134	C	0.004884	0.516656	0.062349
C135	C	0.254884	0.766656	0.312349
C136	C	0.504884	1.016656	0.562349
C137	C	-0.245125	0.313563	-0.187655
C138	C	0.004875	0.563563	0.062345
C139	C	0.254875	0.813563	0.312345
C140	C	0.504875	1.063563	0.562345
N141	N	-0.216437	0.337052	-0.216439
N142	N	0.033563	0.587052	0.033561
N143	N	0.283563	0.837052	0.283561
N144	N	0.533563	1.087052	0.533561
C145	C	-0.187750	0.313623	-0.245227
C146	C	0.062250	0.563623	0.004773
C147	C	0.312250	0.813623	0.254773
C148	C	0.562250	1.063623	0.504773
C149	C	-0.245130	-0.113386	-0.187683
C150	C	0.004870	0.136614	0.062317
C151	C	0.254870	0.386614	0.312317
C152	C	0.504870	0.636614	0.562317
C153	C	-0.245133	-0.160304	-0.187687
C154	C	0.004867	0.089696	0.062313
C155	C	0.254867	0.339696	0.312313
C156	C	0.504867	0.589696	0.562313
C157	C	-0.187756	-0.160244	-0.245262
C158	C	0.062244	0.089756	0.004738
C159	C	0.312244	0.339756	0.254738
C160	C	0.562244	0.589756	0.504738
C161	C	-0.187756	-0.113326	-0.245259
C162	C	0.062244	0.136674	0.004741
C163	C	0.312244	0.386674	0.254741
C164	C	0.562244	0.636674	0.504741
C165	C	-0.216442	-0.089897	-0.216467
C166	C	0.033558	0.160103	0.033533
C167	C	0.283558	0.410103	0.283533
C168	C	0.533558	0.660103	0.533533
C169	C	-0.187755	0.412148	-0.245221
C170	C	0.062245	0.662148	0.004779
C171	C	0.312245	0.912148	0.254779
C172	C	0.562245	1.162148	0.504779
C173	C	-0.187760	0.459068	-0.245218
C174	C	0.062240	0.709068	0.004782
C175	C	0.312240	0.959068	0.254782
C176	C	0.562240	1.209068	0.504782
C177	C	-0.245135	0.459005	-0.187642
C178	C	0.004865	0.709005	0.062358
C179	C	0.254865	0.959005	0.312358
C180	C	0.504865	1.209005	0.562358
C181	C	-0.245132	0.412089	-0.187647
C182	C	0.004868	0.662089	0.062353
C183	C	0.254868	0.912089	0.312353
C184	C	0.504868	1.162089	0.562353
C185	C	-0.216438	0.388662	-0.216438
C186	C	0.033562	0.638662	0.033562
C187	C	0.283562	0.888662	0.283562
C188	C	0.533562	1.138662	0.533562
O189	O	-0.269518	0.337840	-0.163195
O190	O	-0.019518	0.587840	0.086805
O191	O	0.230482	0.837840	0.336805
O192	O	0.480482	1.087840	0.586805
O193	O	-0.163349	0.337915	-0.269702
O194	O	0.086651	0.587915	-0.019702
O195	O	0.336651	0.837915	0.230298
O196	O	0.586651	1.087915	0.480298
C197	C	-0.187749	0.125958	-0.245236
C198	C	0.062251	0.375958	0.004764
C199	C	0.312251	0.625958	0.254764
C200	C	0.562251	0.875958	0.504764
C201	C	-0.216434	0.102472	-0.216450
C202	C	0.033566	0.352472	0.033550
C203	C	0.283566	0.602472	0.283550
C204	C	0.533566	0.852472	0.533550
C205	C	-0.245120	0.125902	-0.187662
C206	C	0.004880	0.375902	0.062338
C207	C	0.254880	0.625902	0.312338
C208	C	0.504880	0.875902	0.562338
C209	C	-0.216436	0.055554	-0.216454
C210	C	0.033564	0.305554	0.033546
C211	C	0.283564	0.555554	0.283546
C212	C	0.533564	0.805554	0.533546
C213	C	-0.187749	0.032125	-0.245242
C214	C	0.062251	0.282125	0.004758
C215	C	0.312251	0.532125	0.254758
C216	C	0.562251	0.782125	0.504758
C217	C	-0.159061	0.055614	-0.274026
C218	C	0.090939	0.305614	-0.024026
C219	C	0.340939	0.555614	0.225974
C220	C	0.590939	0.805614	0.475974
C221	C	-0.159062	0.102529	-0.274025
C222	C	0.090938	0.352529	-0.024025
C223	C	0.340938	0.602529	0.225975
C224	C	0.590938	0.852529	0.475975
C225	C	-0.273808	0.102413	-0.158878
C226	C	-0.023808	0.352413	0.091122
C227	C	0.226192	0.602413	0.341122
C228	C	0.476192	0.852413	0.591122
C229	C	-0.273805	0.055498	-0.158883
C230	C	-0.023805	0.305498	0.091117
C231	C	0.226195	0.555498	0.341117
C232	C	0.476195	0.805498	0.591117
C233	C	-0.245119	0.032068	-0.187671
C234	C	0.004881	0.282068	0.062329
C235	C	0.254881	0.532068	0.312329
C236	C	0.504881	0.782068	0.562329
C237	C	-0.333163	0.649086	-0.216409
C238	C	-0.083163	0.899086	0.033591
C239	C	0.166837	1.149086	0.283591
C240	C	0.416837	1.399086	0.533591
C241	C	-0.383098	0.649098	-0.216408
C242	C	-0.133098	0.899098	0.033592
C243	C	0.116902	1.149098	0.283592
C244	C	0.366902	1.399098	0.533592
C245	C	-0.692706	0.677885	-0.245226
C246	C	-0.442706	0.927885	0.004774
C247	C	-0.192706	1.177885	0.254774
C248	C	0.057294	1.427885	0.504774
C249	C	-0.880379	0.677933	-0.245253
C250	C	-0.630379	0.927933	0.004747
C251	C	-0.380379	1.177933	0.254747
C252	C	-0.130379	1.427933	0.504747
O253	O	-0.904614	0.702342	-0.269728
O254	O	-0.654614	0.952342	-0.019728
O255	O	-0.404614	1.202342	0.230272
O256	O	-0.154614	1.452342	0.480272
N257	N	-0.903883	0.649231	-0.216497
N258	N	-0.653883	0.899231	0.033503
N259	N	-0.403883	1.149231	0.283503
N260	N	-0.153883	1.399231	0.533503
C261	C	-0.880465	0.620512	-0.187734
C262	C	-0.630465	0.870512	0.062266
C263	C	-0.380465	1.120512	0.312266
C264	C	-0.130465	1.370512	0.562266
O265	O	-0.904763	0.596096	-0.163279
O266	O	-0.654763	0.846096	0.086721
O267	O	-0.404763	1.096096	0.336721
O268	O	-0.154763	1.346096	0.586721
C269	C	-0.692793	0.620461	-0.187709
C270	C	-0.442793	0.870461	0.062291
C271	C	-0.192793	1.120461	0.312291
C272	C	0.057207	1.370461	0.562291
C273	C	-0.669292	0.649169	-0.216464
C274	C	-0.419292	0.899169	0.033536
C275	C	-0.169292	1.149169	0.283536
C276	C	0.080708	1.399169	0.533536
C277	C	-0.669205	0.706590	-0.273979
C278	C	-0.419205	0.956590	-0.023979
C279	C	-0.169205	1.206590	0.226021
C280	C	0.080795	1.456590	0.476021
C281	C	-0.622290	0.706579	-0.273971
C282	C	-0.372290	0.956579	-0.023971
C283	C	-0.122290	1.206579	0.226029
C284	C	0.127710	1.456579	0.476029
C285	C	-0.598875	0.677863	-0.245209
C286	C	-0.348875	0.927863	0.004791
C287	C	-0.098875	1.177863	0.254791
C288	C	0.151125	1.427863	0.504791
C289	C	-0.622377	0.649158	-0.216456
C290	C	-0.372377	0.899158	0.033544
C291	C	-0.122377	1.149158	0.283544
C292	C	0.127623	1.399158	0.533544
C293	C	-0.669376	0.591740	-0.158949
C294	C	-0.419376	0.841740	0.091051
C295	C	-0.169376	1.091740	0.341051
C296	C	0.080624	1.341740	0.591051
C297	C	-0.622455	0.591729	-0.158946
C298	C	-0.372455	0.841729	0.091054
C299	C	-0.122455	1.091729	0.341054
C300	C	0.127545	1.341729	0.591054
C301	C	-0.598954	0.620437	-0.187701
C302	C	-0.348954	0.870437	0.062299
C303	C	-0.098954	1.120437	0.312299
C304	C	0.151046	1.370437	0.562299
C305	C	-0.552047	0.620431	-0.187685
C306	C	-0.302047	0.870431	0.062315
C307	C	-0.052047	1.120431	0.312315
C308	C	0.197953	1.370431	0.562315
N309	N	-0.528543	0.649134	-0.216441
N310	N	-0.278543	0.899134	0.033559
N311	N	-0.028543	1.149134	0.283559
N312	N	0.221457	1.399134	0.533559
C313	C	-0.551957	0.677850	-0.245203
C314	C	-0.301957	0.927850	0.004797
C315	C	-0.051957	1.177850	0.254797
C316	C	0.198043	1.427850	0.504797
C317	C	-0.978996	0.620541	-0.187748
C318	C	-0.728996	0.870541	0.062252
C319	C	-0.478996	1.120541	0.312252
C320	C	-0.228996	1.370541	0.562252
C321	C	-1.025914	0.620554	-0.187753
C322	C	-0.775914	0.870554	0.062247
C323	C	-0.525914	1.120554	0.312247
C324	C	-0.275914	1.370554	0.562247
C325	C	-1.025824	0.677975	-0.245274
C326	C	-0.775824	0.927975	0.004726
C327	C	-0.525824	1.177975	0.254726
C328	C	-0.275824	1.427975	0.504726
C329	C	-0.978906	0.677964	-0.245266
C330	C	-0.728906	0.927964	0.004734
C331	C	-0.478906	1.177964	0.254734
C332	C	-0.228906	1.427964	0.504734
C333	C	-0.955492	0.649244	-0.216504
C334	C	-0.705492	0.899244	0.033496
C335	C	-0.455492	1.149244	0.283496
C336	C	-0.205492	1.399244	0.533496
C337	C	-0.453432	0.677826	-0.245183
C338	C	-0.203432	0.927826	0.004817
C339	C	0.046568	1.177826	0.254817
C340	C	0.296568	1.427826	0.504817
C341	C	-0.406512	0.677814	-0.245170
C342	C	-0.156512	0.927814	0.004830
C343	C	0.093488	1.177814	0.254830
C344	C	0.343488	1.427814	0.504830
C345	C	-0.406605	0.620391	-0.187651
C346	C	-0.156605	0.870391	0.062349
C347	C	0.093395	1.120391	0.312349
C348	C	0.343395	1.370391	0.562349
C349	C	-0.453521	0.620404	-0.187662
C350	C	-0.203521	0.870404	0.062338
C351	C	0.046479	1.120404	0.312338
C352	C	0.296479	1.370404	0.562338
C353	C	-0.476933	0.649123	-0.216431
C354	C	-0.226933	0.899123	0.033569
C355	C	0.023067	1.149123	0.283569
C356	C	0.273067	1.399123	0.533569
O357	O	-0.527783	0.596032	-0.163227
O358	O	-0.277783	0.846032	0.086773
O359	O	-0.027783	1.096032	0.336773
O360	O	0.222217	1.346032	0.586773
O361	O	-0.527652	0.702255	-0.269662
O362	O	-0.277652	0.952255	-0.019662
O363	O	-0.027652	1.202255	0.230338
O364	O	0.222348	1.452255	0.480338
C365	C	-0.739622	0.677895	-0.245235
C366	C	-0.489622	0.927895	0.004765
C367	C	-0.239622	1.177895	0.254765
C368	C	0.010378	1.427895	0.504765
C369	C	-0.763123	0.649190	-0.216482
C370	C	-0.513123	0.899190	0.033518
C371	C	-0.263123	1.149190	0.283518
C372	C	-0.013123	1.399190	0.533518
C373	C	-0.739709	0.620474	-0.187720
C374	C	-0.489709	0.870474	0.062280
C375	C	-0.239709	1.120474	0.312280
C376	C	0.010291	1.370474	0.562280
C377	C	-0.810041	0.649203	-0.216487
C378	C	-0.560041	0.899203	0.033513
C379	C	-0.310041	1.149203	0.283513
C380	C	-0.060041	1.399203	0.533513
C381	C	-0.833455	0.677919	-0.245249
C382	C	-0.583455	0.927919	0.004751
C383	C	-0.333455	1.177919	0.254751
C384	C	-0.083455	1.427919	0.504751
C385	C	-0.809951	0.706622	-0.274006
C386	C	-0.559951	0.956622	-0.024006
C387	C	-0.309951	1.206622	0.225994
C388	C	-0.059951	1.456622	0.475994
C389	C	-0.763036	0.706611	-0.273997
C390	C	-0.513036	0.956611	-0.023997
C391	C	-0.263036	1.206611	0.226003
C392	C	-0.013036	1.456611	0.476003
C393	C	-0.763212	0.591772	-0.158964
C394	C	-0.513212	0.841772	0.091036
C395	C	-0.263212	1.091772	0.341036
C396	C	-0.013212	1.341772	0.591036
C397	C	-0.810128	0.591785	-0.158974
C398	C	-0.560128	0.841785	0.091026
C399	C	-0.310128	1.091785	0.341026
C400	C	-0.060128	1.341785	0.591026
C401	C	-0.833542	0.620501	-0.187736
C402	C	-0.583542	0.870501	0.062264
C403	C	-0.333542	1.120501	0.312264
C404	C	-0.083542	1.370501	0.562264
C405	C	-0.099262	0.649235	-0.216495
C406	C	0.150738	0.899235	0.033505
C407	C	0.400738	1.149235	0.283505
C408	C	0.650738	1.399235	0.533505
C409	C	-0.049328	0.649270	-0.216515
C410	C	0.200672	0.899270	0.033485
C411	C	0.450672	1.149270	0.283485
C412	C	0.700672	1.399270	0.533485
C413	C	-0.216437	0.649167	-0.333625
C414	C	0.033563	0.899167	-0.083625
C415	C	0.283563	1.149167	0.166375
C416	C	0.533563	1.399167	0.416375
C417	C	-0.216435	0.649172	-0.383560
C418	C	0.033565	0.899172	-0.133560
C419	C	0.283565	1.149172	0.116440
C420	C	0.533565	1.399172	0.366440
C421	C	-0.216445	0.766333	-0.216467
C422	C	0.033555	1.016333	0.033533
C423	C	0.283555	1.266333	0.283533
C424	C	0.533555	1.516333	0.533533
C425	C	-0.216446	0.816267	-0.216475
C426	C	0.033554	1.066267	0.033525
C427	C	0.283554	1.316267	0.283525
C428	C	0.533554	1.566267	0.533525
C429	C	-0.187627	0.677955	-0.693223
C430	C	0.062373	0.927955	-0.443223
C431	C	0.312373	1.177955	-0.193223
C432	C	0.562373	1.427955	0.056777
C433	C	-0.187589	0.677978	-0.880896
C434	C	0.062411	0.927978	-0.630896
C435	C	0.312411	1.177978	-0.380896
C436	C	0.562411	1.427978	-0.130896
O437	O	-0.163138	0.702417	-0.905177
O438	O	0.086862	0.952417	-0.655177
O439	O	0.336862	1.202417	-0.405177
O440	O	0.586862	1.452417	-0.155177
N441	N	-0.216315	0.649231	-0.904345
N442	N	0.033685	0.899231	-0.654345
N443	N	0.283685	1.149231	-0.404345
N444	N	0.533685	1.399231	-0.154345
C445	C	-0.245050	0.620475	-0.880873
C446	C	0.004950	0.870475	-0.630873
C447	C	0.254950	1.120475	-0.380873
C448	C	0.504950	1.370475	-0.130873
O449	O	-0.269479	0.596022	-0.905124
O450	O	-0.019479	0.846022	-0.655124
O451	O	0.230521	1.096022	-0.405124
O452	O	0.480521	1.346022	-0.155124
C453	C	-0.245086	0.620451	-0.693201
C454	C	0.004914	0.870451	-0.443201
C455	C	0.254914	1.120451	-0.193201
C456	C	0.504914	1.370451	0.056799
C457	C	-0.216361	0.649202	-0.669754
C458	C	0.033639	0.899202	-0.419754
C459	C	0.283639	1.149202	-0.169754
C460	C	0.533639	1.399202	0.080246
C461	C	-0.158905	0.706704	-0.669776
C462	C	0.091095	0.956704	-0.419776
C463	C	0.341095	1.206704	-0.169776
C464	C	0.591095	1.456704	0.080224
C465	C	-0.158916	0.706700	-0.622861
C466	C	0.091084	0.956700	-0.372861
C467	C	0.341084	1.206700	-0.122861
C468	C	0.591084	1.456700	0.127139
C469	C	-0.187650	0.677947	-0.599392
C470	C	0.062350	0.927947	-0.349392
C471	C	0.312350	1.177947	-0.099392
C472	C	0.562350	1.427947	0.150608
C473	C	-0.216373	0.649198	-0.622839
C474	C	0.033627	0.899198	-0.372839
C475	C	0.283627	1.149198	-0.122839
C476	C	0.533627	1.399198	0.127161
C477	C	-0.273819	0.591693	-0.669730
C478	C	-0.023819	0.841693	-0.419730
C479	C	0.226181	1.091693	-0.169730
C480	C	0.476181	1.341693	0.080270
C481	C	-0.273824	0.591689	-0.622809
C482	C	-0.023824	0.841689	-0.372809
C483	C	0.226176	1.091689	-0.122809
C484	C	0.476176	1.341689	0.127191
C485	C	-0.245100	0.620440	-0.599362
C486	C	0.004900	0.870440	-0.349362
C487	C	0.254900	1.120440	-0.099362
C488	C	0.504900	1.370440	0.150638
C489	C	-0.245119	0.620441	-0.552455
C490	C	0.004881	0.870441	-0.302455
C491	C	0.254881	1.120441	-0.052455
C492	C	0.504881	1.370441	0.197545
N493	N	-0.216393	0.649188	-0.529005
N494	N	0.033607	0.899188	-0.279005
N495	N	0.283607	1.149188	-0.029005
N496	N	0.533607	1.399188	0.220995
C497	C	-0.187659	0.677941	-0.552474
C498	C	0.062341	0.927941	-0.302474
C499	C	0.312341	1.177941	-0.052474
C500	C	0.562341	1.427941	0.197526
C501	C	-0.245030	0.620491	-0.979404
C502	C	0.004970	0.870491	-0.729404
C503	C	0.254970	1.120491	-0.479404
C504	C	0.504970	1.370491	-0.229404
C505	C	-0.245022	0.620497	-1.026322
C506	C	0.004978	0.870497	-0.776322
C507	C	0.254978	1.120497	-0.526322
C508	C	0.504978	1.370497	-0.276322
C509	C	-0.187560	0.677999	-1.026341
C510	C	0.062440	0.927999	-0.776341
C511	C	0.312440	1.177999	-0.526341
C512	C	0.562440	1.427999	-0.276341
C513	C	-0.187571	0.677994	-0.979423
C514	C	0.062429	0.927994	-0.729423
C515	C	0.312429	1.177994	-0.479423
C516	C	0.562429	1.427994	-0.229423
C517	C	-0.216304	0.649237	-0.955955
C518	C	0.033696	0.899237	-0.705955
C519	C	0.283696	1.149237	-0.455955
C520	C	0.533696	1.399237	-0.205955
C521	C	-0.187685	0.677930	-0.453948
C522	C	0.062315	0.927930	-0.203948
C523	C	0.312315	1.177930	0.046052
C524	C	0.562315	1.427930	0.296052
C525	C	-0.187701	0.677925	-0.407029
C526	C	0.062299	0.927925	-0.157029
C527	C	0.312299	1.177925	0.092971
C528	C	0.562299	1.427925	0.342971
C529	C	-0.245161	0.620421	-0.407013
C530	C	0.004839	0.870421	-0.157013
C531	C	0.254839	1.120421	0.092987
C532	C	0.504839	1.370421	0.342987
C533	C	-0.245147	0.620428	-0.453929
C534	C	0.004853	0.870428	-0.203929
C535	C	0.254853	1.120428	0.046071
C536	C	0.504853	1.370428	0.296071
C537	C	-0.216406	0.649184	-0.477395
C538	C	0.033594	0.899184	-0.227395
C539	C	0.283594	1.149184	0.022605
C540	C	0.533594	1.399184	0.272605
O541	O	-0.269553	0.596011	-0.528144
O542	O	-0.019553	0.846011	-0.278144
O543	O	0.230447	1.096011	-0.028144
O544	O	0.480447	1.346011	0.221856
O545	O	-0.163226	0.702383	-0.528215
O546	O	0.086774	0.952383	-0.278215
O547	O	0.336774	1.202383	-0.028215
O548	O	0.586774	1.452383	0.221785
C549	C	-0.187616	0.677960	-0.740138
C550	C	0.062384	0.927960	-0.490138
C551	C	0.312384	1.177960	-0.240138
C552	C	0.562384	1.427960	0.009862
C553	C	-0.216338	0.649211	-0.763585
C554	C	0.033662	0.899211	-0.513585
C555	C	0.283662	1.149211	-0.263585
C556	C	0.533662	1.399211	-0.013585
C557	C	-0.245072	0.620458	-0.740116
C558	C	0.004928	0.870458	-0.490116
C559	C	0.254928	1.120458	-0.240116
C560	C	0.504928	1.370458	0.009884
C561	C	-0.216330	0.649217	-0.810503
C562	C	0.033670	0.899217	-0.560503
C563	C	0.283670	1.149217	-0.310503
C564	C	0.533670	1.399217	-0.060503
C565	C	-0.187596	0.677970	-0.833972
C566	C	0.062404	0.927970	-0.583972
C567	C	0.312404	1.177970	-0.333972
C568	C	0.562404	1.427970	-0.083972
C569	C	-0.158870	0.706717	-0.810523
C570	C	0.091130	0.956717	-0.560523
C571	C	0.341130	1.206717	-0.310523
C572	C	0.591130	1.456717	-0.060523
C573	C	-0.158881	0.706712	-0.763607
C574	C	0.091119	0.956712	-0.513607
C575	C	0.341119	1.206712	-0.263607
C576	C	0.591119	1.456712	-0.013607
C577	C	-0.273798	0.591711	-0.763566
C578	C	-0.023798	0.841711	-0.513566
C579	C	0.226202	1.091711	-0.263566
C580	C	0.476202	1.341711	-0.013566
C581	C	-0.273785	0.591718	-0.810481
C582	C	-0.023785	0.841718	-0.560481
C583	C	0.226215	1.091718	-0.310481
C584	C	0.476215	1.341718	-0.060481
C585	C	-0.245050	0.620471	-0.833950
C586	C	0.004950	0.870471	-0.583950
C587	C	0.254950	1.120471	-0.333950
C588	C	0.504950	1.370471	-0.083950
C589	C	-0.216412	0.649168	-0.099725
C590	C	0.033588	0.899168	0.150275
C591	C	0.283588	1.149168	0.400275
C592	C	0.533588	1.399168	0.650275
C593	C	-0.216288	0.649250	-0.049790
C594	C	0.033712	0.899250	0.200210
C595	C	0.283712	1.149250	0.450210
C596	C	0.533712	1.399250	0.700210
H597	H	-0.268497	-0.179422	-0.164249
H598	H	-0.018497	0.070578	0.085751
H599	H	0.231503	0.320578	0.335751
H600	H	0.481503	0.570578	0.585751
N601	N	-0.127897	0.737723	-0.738324
N602	N	0.122103	0.987723	-0.488324
N603	N	0.372103	1.237723	-0.238324
N604	N	0.622103	1.487723	0.011676
H605	H	-0.107080	0.719481	-0.718860
H606	H	0.142920	0.969481	-0.468860
H607	H	0.392920	1.219481	-0.218860
H608	H	0.642920	1.469481	0.031140
H609	H	-0.146190	0.758524	-0.718884
H610	H	0.103810	1.008524	-0.468884
H611	H	0.353810	1.258524	-0.218884
H612	H	0.603810	1.508524	0.031116
H613	H	-0.164180	0.701406	-0.960335
H614	H	0.085820	0.951406	-0.710335
H615	H	0.335820	1.201406	-0.460335
H616	H	0.585820	1.451406	-0.210335
N617	N	-0.597204	0.560755	-0.127919
N618	N	-0.347204	0.810755	0.122081
N619	N	-0.097204	1.060755	0.372081
N620	N	0.152796	1.310755	0.622081
H621	H	-0.563915	0.565102	-0.132274
H622	H	-0.313915	0.815102	0.117726
H623	H	-0.063915	1.065102	0.367726
H624	H	0.186085	1.315102	0.617726
H625	H	-0.605430	0.528667	-0.134881
H626	H	-0.355430	0.778667	0.115119
H627	H	-0.105430	1.028667	0.365119
H628	H	0.144570	1.278667	0.615119
H629	H	-0.268417	0.597090	-1.045408
H630	H	-0.018417	0.847090	-0.795408
H631	H	0.231583	1.097090	-0.545408
H632	H	0.481583	1.347090	-0.295408
N633	N	-0.128123	0.268604	-0.305069
N634	N	0.121877	0.518604	-0.055069
N635	N	0.371877	0.768604	0.194931
N636	N	0.621877	1.018604	0.444931
H637	H	-0.109952	0.246636	-0.323303
H638	H	0.140048	0.496636	-0.073303
H639	H	0.390048	0.746636	0.176697
H640	H	0.640048	0.996636	0.426697
H641	H	-0.107303	0.288076	-0.286822
H642	H	0.142697	0.538076	-0.036822
H643	H	0.392697	0.788076	0.213178
H644	H	0.642697	1.038076	0.463178
N645	N	-0.953560	0.708926	-0.276280
N646	N	-0.703560	0.958926	-0.026280
N647	N	-0.453560	1.208926	0.223720
N648	N	-0.203560	1.458926	0.473720
H649	H	-0.975516	0.727119	-0.294499
H650	H	-0.725516	0.977119	-0.044499
H651	H	-0.475516	1.227119	0.205501
H652	H	-0.225516	1.477119	0.455501
H653	H	-0.934100	0.690620	-0.297052
H654	H	-0.684100	0.940620	-0.047052
H655	H	-0.434100	1.190620	0.202948
H656	H	-0.184100	1.440620	0.452948
N657	N	-1.051255	0.589593	-0.156734
N658	N	-0.801255	0.839593	0.093266
N659	N	-0.551255	1.089593	0.343266
N660	N	-0.301255	1.339593	0.593266
H661	H	-1.070730	0.568765	-0.174971
H662	H	-0.820730	0.818765	0.075029
H663	H	-0.570730	1.068765	0.325029
H664	H	-0.320730	1.318765	0.575029
H665	H	-1.070689	0.607900	-0.135939
H666	H	-0.820689	0.857900	0.114061
H667	H	-0.570689	1.107900	0.364061
H668	H	-0.320689	1.357900	0.614061
N669	N	-0.127879	0.737731	-0.835840
N670	N	0.122121	0.987731	-0.585840
N671	N	0.372121	1.237731	-0.335840
N672	N	0.622121	1.487731	-0.085840
H673	H	-0.132234	0.733368	-0.869119
H674	H	0.117766	0.983368	-0.619119
H675	H	0.367766	1.233368	-0.369119
H676	H	0.617766	1.483368	-0.119119
H677	H	-0.095795	0.730760	-0.827647
H678	H	0.154205	0.980760	-0.577647
H679	H	0.404205	1.230760	-0.327647
H680	H	0.654205	1.480760	-0.077647
N681	N	-0.276148	0.589407	-0.381694
N682	N	-0.026148	0.839407	-0.131694
N683	N	0.223852	1.089407	0.118306
N684	N	0.473852	1.339407	0.368306
H685	H	-0.294344	0.571193	-0.403664
H686	H	-0.044344	0.821193	-0.153664
H687	H	0.205656	1.071193	0.096336
H688	H	0.455656	1.321193	0.346336
H689	H	-0.296943	0.607677	-0.362224
H690	H	-0.046943	0.857677	-0.112224
H691	H	0.203057	1.107677	0.137776
H692	H	0.453057	1.357677	0.387776
N693	N	-0.156806	-0.185515	-0.276307
N694	N	0.093194	0.064485	-0.026307
N695	N	0.343194	0.314485	0.223693
N696	N	0.593194	0.564485	0.473693
H697	H	-0.163824	-0.177347	-0.308394
H698	H	0.086176	0.072653	-0.058394
H699	H	0.336176	0.322653	0.191606
H700	H	0.586176	0.572653	0.441606
H701	H	-0.161173	-0.218793	-0.271901
H702	H	0.088827	0.031207	-0.021901
H703	H	0.338827	0.281207	0.228099
H704	H	0.588827	0.531207	0.478099
N705	N	-0.156813	0.386882	-0.276276
N706	N	0.093187	0.636882	-0.026276
N707	N	0.343187	0.886882	0.223724
N708	N	0.593187	1.136882	0.473724
H709	H	-0.135963	0.367424	-0.258065
H710	H	0.114037	0.617424	-0.008065
H711	H	0.364037	0.867424	0.241935
H712	H	0.614037	1.117424	0.491935
H713	H	-0.138674	0.408912	-0.294506
H714	H	0.111326	0.658912	-0.044506
H715	H	0.361326	0.908912	0.205494
H716	H	0.611326	1.158912	0.455494
H717	H	-0.297218	0.568265	-0.603704
H718	H	-0.047218	0.818265	-0.353704
H719	H	0.202782	1.068265	-0.103704
H720	H	0.452782	1.318265	0.146296
N721	N	-0.128121	0.171101	-0.305078
N722	N	0.121879	0.421101	-0.055078
N723	N	0.371879	0.671101	0.194922
N724	N	0.621879	0.921101	0.444922
H725	H	-0.146408	0.151632	-0.325866
H726	H	0.103592	0.401632	-0.075866
H727	H	0.353592	0.651632	0.174134
H728	H	0.603592	0.901632	0.424134
H729	H	-0.107275	0.151666	-0.286838
H730	H	0.142725	0.401666	-0.036838
H731	H	0.392725	0.651666	0.213162
H732	H	0.642725	0.901666	0.463162
N733	N	-0.304796	0.560695	-0.738266
N734	N	-0.054796	0.810695	-0.488266
N735	N	0.195204	1.060695	-0.238266
N736	N	0.445204	1.310695	0.011734
H737	H	-0.325625	0.578932	-0.718799
H738	H	-0.075625	0.828932	-0.468799
H739	H	0.174375	1.078932	-0.218799
H740	H	0.424375	1.328932	0.031201
H741	H	-0.286517	0.539887	-0.718826
H742	H	-0.036517	0.789887	-0.468826
H743	H	0.213483	1.039887	-0.218826
H744	H	0.463483	1.289887	0.031174
N745	N	-0.156820	0.484399	-0.276272
N746	N	0.093180	0.734399	-0.026272
N747	N	0.343180	0.984399	0.223728
N748	N	0.593180	1.234399	0.473728
H749	H	-0.138647	0.462435	-0.294508
H750	H	0.111353	0.712435	-0.044508
H751	H	0.361353	0.962435	0.205492
H752	H	0.611353	1.212435	0.455492
H753	H	-0.136001	0.503875	-0.258027
H754	H	0.113999	0.753875	-0.008027
H755	H	0.363999	1.003875	0.241973
H756	H	0.613999	1.253875	0.491973
N757	N	-0.304771	0.560708	-0.835767
N758	N	-0.054771	0.810708	-0.585767
N759	N	0.195229	1.060708	-0.335767
N760	N	0.445229	1.310708	-0.085767
H761	H	-0.322973	0.542494	-0.813776
H762	H	-0.072973	0.792494	-0.563776
H763	H	0.177027	1.042494	-0.313776
H764	H	0.427027	1.292494	-0.063776
H765	H	-0.286477	0.539932	-0.855232
H766	H	-0.036477	0.789932	-0.605232
H767	H	0.213523	1.039932	-0.355232
H768	H	0.463523	1.289932	-0.105232
H769	H	-0.688503	0.568363	-0.135533
H770	H	-0.438503	0.818363	0.114467
H771	H	-0.188503	1.068363	0.364467
H772	H	0.061497	1.318363	0.614467
H773	H	-0.164396	-0.094206	-0.268701
H774	H	0.085604	0.155794	-0.018701
H775	H	0.335604	0.405794	0.231299
H776	H	0.585604	0.655794	0.481299
H777	H	-0.164164	0.701411	-1.045458
H778	H	0.085836	0.951411	-0.795458
H779	H	0.335836	1.201411	-0.545458
H780	H	0.585836	1.451411	-0.295458
H781	H	-0.268496	0.392966	-0.164210
H782	H	-0.018496	0.642966	0.085790
H783	H	0.231504	0.892966	0.335790
H784	H	0.481504	1.142966	0.585790
N785	N	-1.051084	0.708932	-0.276311
N786	N	-0.801084	0.958932	-0.026311
N787	N	-0.551084	1.208932	0.223689
N788	N	-0.301084	1.458932	0.473689
H789	H	-1.029080	0.727111	-0.294534
H790	H	-0.779080	0.977111	-0.044534
H791	H	-0.529080	1.227111	0.205466
H792	H	-0.279080	1.477111	0.455466
H793	H	-1.070549	0.729745	-0.258059
H794	H	-0.820549	0.979745	-0.008059
H795	H	-0.570549	1.229745	0.241941
H796	H	-0.320549	1.479745	0.491941
N797	N	-0.953746	0.589564	-0.156722
N798	N	-0.703746	0.839564	0.093278
N799	N	-0.453746	1.089564	0.343278
N800	N	-0.203746	1.339564	0.593278
H801	H	-0.975759	0.571388	-0.138507
H802	H	-0.725759	0.821388	0.111493
H803	H	-0.475759	1.071388	0.361493
H804	H	-0.225759	1.321388	0.611493
H805	H	-0.934276	0.607862	-0.135947
H806	H	-0.684276	0.857862	0.114053
H807	H	-0.434276	1.107862	0.364053
H808	H	-0.184276	1.357862	0.614053
N809	N	-0.276014	0.589462	-0.954095
N810	N	-0.026014	0.839462	-0.704095
N811	N	0.223986	1.089462	-0.454095
N812	N	0.473986	1.339462	-0.204095
H813	H	-0.294205	0.571253	-0.976073
H814	H	-0.044205	0.821253	-0.726073
H815	H	0.205795	1.071253	-0.476073
H816	H	0.455795	1.321253	-0.226073
H817	H	-0.296814	0.607721	-0.934620
H818	H	-0.046814	0.857721	-0.684620
H819	H	0.203186	1.107721	-0.434620
H820	H	0.453186	1.357721	-0.184620
N821	N	-0.478872	0.589447	-0.156644
N822	N	-0.228872	0.839447	0.093356
N823	N	0.021128	1.089447	0.343356
N824	N	0.271128	1.339447	0.593356
H825	H	-0.456918	0.571256	-0.138421
H826	H	-0.206918	0.821256	0.111579
H827	H	0.043082	1.071256	0.361579
H828	H	0.293082	1.321256	0.611579
H829	H	-0.498343	0.568647	-0.174914
H830	H	-0.248343	0.818647	0.075086
H831	H	0.001657	1.068647	0.325086
H832	H	0.251657	1.318647	0.575086
N833	N	-0.381347	0.589422	-0.156628
N834	N	-0.131347	0.839422	0.093372
N835	N	0.118653	1.089422	0.343372
N836	N	0.368653	1.339422	0.593372
H837	H	-0.348059	0.593773	-0.160990
H838	H	-0.098059	0.843773	0.089010
H839	H	0.151941	1.093773	0.339010
H840	H	0.401941	1.343773	0.589010
H841	H	-0.389571	0.557334	-0.163591
H842	H	-0.139571	0.807334	0.086409
H843	H	0.110429	1.057334	0.336409
H844	H	0.360429	1.307334	0.586409
H845	H	-0.743905	0.729988	-0.297412
H846	H	-0.493905	0.979988	-0.047412
H847	H	-0.243905	1.229988	0.202588
H848	H	0.006095	1.479988	0.452588
H849	H	-0.268491	-0.094314	-0.164235
H850	H	-0.018491	0.155686	0.085765
H851	H	0.231509	0.405686	0.335765
H852	H	0.481509	0.655686	0.585765
N853	N	-0.304745	0.030167	-0.127827
N854	N	-0.054745	0.280167	0.122173
N855	N	0.195255	0.530167	0.372173
N856	N	0.445255	0.780167	0.622173
H857	H	-0.325595	0.010691	-0.146039
H858	H	-0.075595	0.260691	0.103961
H859	H	0.174405	0.510691	0.353961
H860	H	0.424405	0.760691	0.603961
H861	H	-0.322885	0.052161	-0.109596
H862	H	-0.072885	0.302161	0.140404
H863	H	0.177115	0.552161	0.390404
H864	H	0.427115	0.802161	0.640404
H865	H	-0.268492	0.478089	-0.164205
H866	H	-0.018492	0.728089	0.085795
H867	H	0.231508	0.978089	0.335795
H868	H	0.481508	1.228089	0.585795
N869	N	-0.304748	0.170925	-0.127811
N870	N	-0.054748	0.420925	0.122189
N871	N	0.195252	0.670925	0.372189
N872	N	0.445252	0.920925	0.622189
H873	H	-0.322914	0.192893	-0.109574
H874	H	-0.072914	0.442893	0.140426
H875	H	0.177086	0.692893	0.390426
H876	H	0.427086	0.942893	0.640426
H877	H	-0.286427	0.151466	-0.107058
H878	H	-0.036427	0.401466	0.142942
H879	H	0.213573	0.651466	0.392942
H880	H	0.463573	0.901466	0.642942
H881	H	-0.829023	0.730005	-0.297423
H882	H	-0.579023	0.980005	-0.047423
H883	H	-0.329023	1.230005	0.202577
H884	H	-0.079023	1.480005	0.452577
H885	H	-0.297163	0.262243	-0.135415
H886	H	-0.047163	0.512243	0.114585
H887	H	0.202837	0.762243	0.364585
H888	H	0.452837	1.012243	0.614585
N889	N	-0.835473	0.560823	-0.127955
N890	N	-0.585473	0.810823	0.122045
N891	N	-0.335473	1.060823	0.372045
N892	N	-0.085473	1.310823	0.622045
H893	H	-0.813516	0.542631	-0.109735
H894	H	-0.563516	0.792631	0.140265
H895	H	-0.313516	1.042631	0.390265
H896	H	-0.063516	1.292631	0.640265
H897	H	-0.854945	0.540023	-0.146225
H898	H	-0.604945	0.790023	0.103775
H899	H	-0.354945	1.040023	0.353775
H900	H	-0.104945	1.290023	0.603775
N901	N	-0.478683	0.708801	-0.276206
N902	N	-0.228683	0.958801	-0.026206
N903	N	0.021317	1.208801	0.223794
N904	N	0.271317	1.458801	0.473794
H905	H	-0.498153	0.690537	-0.297013
H906	H	-0.248153	0.940537	-0.047013
H907	H	0.001847	1.190537	0.202987
H908	H	0.251847	1.440537	0.452987
H909	H	-0.456645	0.726979	-0.294389
H910	H	-0.206645	0.976979	-0.044389
H911	H	0.043355	1.226979	0.205611
H912	H	0.293355	1.476979	0.455611
H913	H	-0.297168	0.121485	-0.135434
H914	H	-0.047168	0.371485	0.114566
H915	H	0.202832	0.621485	0.364566
H916	H	0.452832	0.871485	0.614566
N917	N	-0.304798	0.560681	-0.695012
N918	N	-0.054798	0.810681	-0.445012
N919	N	0.195202	1.060681	-0.195012
N920	N	0.445202	1.310681	0.054988
H921	H	-0.336899	0.567632	-0.686837
H922	H	-0.086899	0.817632	-0.436837
H923	H	0.163101	1.067632	-0.186837
H924	H	0.413101	1.317632	0.063163
H925	H	-0.297778	0.528601	-0.686829
H926	H	-0.047778	0.778601	-0.436829
H927	H	0.202222	1.028601	-0.186829
H928	H	0.452222	1.278601	0.063171
N929	N	-0.737960	0.560802	-0.127938
N930	N	-0.487960	0.810802	0.122062
N931	N	-0.237960	1.060802	0.372062
N932	N	0.012040	1.310802	0.622062
H933	H	-0.746151	0.528699	-0.134882
H934	H	-0.496151	0.778699	0.115118
H935	H	-0.246151	1.028699	0.365118
H936	H	0.003849	1.278699	0.615118
H937	H	-0.746154	0.567847	-0.095862
H938	H	-0.496154	0.817847	0.154138
H939	H	-0.246154	1.067847	0.404138
H940	H	0.003846	1.317847	0.654138
N941	N	-0.128122	0.030339	-0.305079
N942	N	0.121878	0.280339	-0.055079
N943	N	0.371878	0.530339	0.194921
N944	N	0.621878	0.780339	0.444921
H945	H	-0.132478	-0.002946	-0.300708
H946	H	0.117522	0.247054	-0.050708
H947	H	0.367522	0.497054	0.199292
H948	H	0.617522	0.747054	0.449292
H949	H	-0.096026	0.038556	-0.298148
H950	H	0.153974	0.288556	-0.048148
H951	H	0.403974	0.538556	0.201852
H952	H	0.653974	0.788556	0.451852
H953	H	-0.135702	0.121647	-0.297467
H954	H	0.114298	0.371647	-0.047467
H955	H	0.364298	0.621647	0.202533
H956	H	0.614298	0.871647	0.452533
N957	N	-0.381164	0.708779	-0.276185
N958	N	-0.131164	0.958779	-0.026185
N959	N	0.118836	1.208779	0.223815
N960	N	0.368836	1.458779	0.473815
H961	H	-0.403120	0.726970	-0.294407
H962	H	-0.153120	0.976970	-0.044407
H963	H	0.096880	1.226970	0.205593
H964	H	0.346880	1.476970	0.455593
H965	H	-0.361701	0.690473	-0.296954
H966	H	-0.111701	0.940473	-0.046954
H967	H	0.138299	1.190473	0.203046
H968	H	0.388299	1.440473	0.453046
H969	H	-0.164310	0.701339	-0.387940
H970	H	0.085690	0.951339	-0.137940
H971	H	0.335690	1.201339	0.112060
H972	H	0.585690	1.451339	0.362060
H973	H	-0.164280	0.701344	-0.473049
H974	H	0.085720	0.951344	-0.223049
H975	H	0.335720	1.201344	0.026951
H976	H	0.585720	1.451344	0.276951
N977	N	-0.596944	0.737537	-0.304990
N978	N	-0.346944	0.987537	-0.054990
N979	N	-0.096944	1.237537	0.195010
N980	N	0.153056	1.487537	0.445010
H981	H	-0.605085	0.769643	-0.298048
H982	H	-0.355085	1.019643	-0.048048
H983	H	-0.105085	1.269643	0.201952
H984	H	0.144915	1.519643	0.451952
H985	H	-0.605111	0.730496	-0.337068
H986	H	-0.355111	0.980496	-0.087068
H987	H	-0.105111	1.230496	0.162932
H988	H	0.144889	1.480496	0.412932
N989	N	-0.694454	0.737553	-0.305015
N990	N	-0.444454	0.987553	-0.055015
N991	N	-0.194454	1.237553	0.194985
N992	N	0.055546	1.487553	0.444985
H993	H	-0.672441	0.755729	-0.323230
H994	H	-0.422441	1.005729	-0.073230
H995	H	-0.172441	1.255729	0.176770
H996	H	0.077559	1.505729	0.426770
H997	H	-0.713916	0.758368	-0.286763
H998	H	-0.463916	1.008368	-0.036763
H999	H	-0.213916	1.258368	0.213237
H1000	H	0.036084	1.508368	0.463237
N1001	N	-0.127933	0.737709	-0.597575
N1002	N	0.122067	0.987709	-0.347575
N1003	N	0.372067	1.237709	-0.097575
N1004	N	0.622067	1.487709	0.152425
H1005	H	-0.109730	0.755921	-0.619568
H1006	H	0.140270	1.005921	-0.369568
H1007	H	0.390270	1.255921	-0.119568
H1008	H	0.640270	1.505921	0.130432
H1009	H	-0.107145	0.719435	-0.578112
H1010	H	0.142855	0.969435	-0.328112
H1011	H	0.392855	1.219435	-0.078112
H1012	H	0.642855	1.469435	0.171888
H1013	H	-0.135503	0.730118	-0.688879
H1014	H	0.114497	0.980118	-0.438879
H1015	H	0.364497	1.230118	-0.188879
H1016	H	0.614497	1.480118	0.061121
N1017	N	-0.276133	0.589424	-0.479221
N1018	N	-0.026133	0.839424	-0.229221
N1019	N	0.223867	1.089424	0.020779
N1020	N	0.473867	1.339424	0.270779
H1021	H	-0.294339	0.571211	-0.457232
H1022	H	-0.044339	0.821211	-0.207232
H1023	H	0.205661	1.071211	0.042768
H1024	H	0.455661	1.321211	0.292768
H1025	H	-0.257841	0.568647	-0.498685
H1026	H	-0.007841	0.818647	-0.248685
H1027	H	0.242159	1.068647	0.001315
H1028	H	0.492159	1.318647	0.251315
