data_functionalizedCrystal
_audit_creation_method	'MofGen! by Chris Wilmer'
_symmetry_space_group_name_H-M	'P1'
_symmetry_Int_Tables_number	1
_symmetry_cell_setting	triclinic
loop_
_symmetry_equiv_pos_as_xyz
  x,y,z
_cell_length_a	18.101395
_cell_length_b	19.805407
_cell_length_c	19.805399
_cell_angle_alpha	89.983114
_cell_angle_beta	89.973474
_cell_angle_gamma	90.031104
loop_
_atom_site_label
_atom_site_type_symbol
_atom_site_fract_x
_atom_site_fract_y
_atom_site_fract_z
Zn1	Zn	-0.294836	1.034696	-0.382731
Zn2	Zn	-0.044836	1.284696	-0.132731
Zn3	Zn	0.205164	1.534696	0.117269
Zn4	Zn	0.455164	1.784696	0.367269
Zn5	Zn	-0.418683	1.034607	-0.269548
Zn6	Zn	-0.168683	1.284607	-0.019548
Zn7	Zn	0.081317	1.534607	0.230452
Zn8	Zn	0.331317	1.784607	0.480452
Zn9	Zn	-0.294860	0.921516	-0.269556
Zn10	Zn	-0.044860	1.171516	-0.019556
Zn11	Zn	0.205140	1.421516	0.230444
Zn12	Zn	0.455140	1.671516	0.480444
Zn13	Zn	-0.418641	0.921465	-0.382695
Zn14	Zn	-0.168641	1.171465	-0.132695
Zn15	Zn	0.081359	1.421465	0.117305
Zn16	Zn	0.331359	1.671465	0.367305
O17	O	-0.356755	0.978071	-0.326132
O18	O	-0.106755	1.228071	-0.076132
O19	O	0.143245	1.478071	0.173868
O20	O	0.393245	1.728071	0.423868
O21	O	-0.311273	1.129400	-0.367729
O22	O	-0.061273	1.379400	-0.117729
O23	O	0.188727	1.629400	0.132271
O24	O	0.438727	1.879400	0.382271
O25	O	-0.402285	1.019589	-0.174832
O26	O	-0.152285	1.269589	0.075168
O27	O	0.097715	1.519589	0.325168
O28	O	0.347715	1.769589	0.575168
O29	O	-0.191224	0.936588	-0.284587
O30	O	0.058776	1.186588	-0.034587
O31	O	0.308776	1.436588	0.215413
O32	O	0.558776	1.686588	0.465413
O33	O	-0.402263	1.129335	-0.284574
O34	O	-0.152263	1.379335	-0.034574
O35	O	0.097737	1.629335	0.215426
O36	O	0.347737	1.879335	0.465426
O37	O	-0.191207	1.019741	-0.367737
O38	O	0.058793	1.269741	-0.117737
O39	O	0.308793	1.519741	0.132263
O40	O	0.558793	1.769741	0.382263
O41	O	-0.311313	0.936501	-0.174838
O42	O	-0.061313	1.186501	0.075162
O43	O	0.188687	1.436501	0.325162
O44	O	0.438687	1.686501	0.575162
O45	O	-0.311272	0.826792	-0.284552
O46	O	-0.061272	1.076792	-0.034552
O47	O	0.188728	1.326792	0.215448
O48	O	0.438728	1.576792	0.465448
O49	O	-0.402190	0.936501	-0.477416
O50	O	-0.152190	1.186501	-0.227416
O51	O	0.097810	1.436501	0.022584
O52	O	0.347810	1.686501	0.272584
O53	O	-0.402213	0.826755	-0.367674
O54	O	-0.152213	1.076755	-0.117674
O55	O	0.097787	1.326755	0.132326
O56	O	0.347787	1.576755	0.382326
O57	O	-0.311232	1.019691	-0.477443
O58	O	-0.061232	1.269691	-0.227443
O59	O	0.188768	1.519691	0.022557
O60	O	0.438768	1.769691	0.272557
O61	O	-0.522310	1.019539	-0.284538
O62	O	-0.272310	1.269539	-0.034538
O63	O	-0.022310	1.519539	0.215462
O64	O	0.227690	1.769539	0.465462
O65	O	-0.522279	0.936414	-0.367667
O66	O	-0.272279	1.186414	-0.117667
O67	O	-0.022279	1.436414	0.132333
O68	O	0.227721	1.686414	0.382333
C69	C	-0.356741	0.802215	-0.326110
C70	C	-0.106741	1.052215	-0.076110
C71	C	0.143259	1.302215	0.173890
C72	C	0.393259	1.552215	0.423890
C73	C	-0.356753	0.726983	-0.326117
C74	C	-0.106753	0.976983	-0.076117
C75	C	0.143247	1.226983	0.173883
C76	C	0.393247	1.476983	0.423883
C77	C	-0.404177	0.691637	-0.369329
C78	C	-0.154177	0.941637	-0.119329
C79	C	0.095823	1.191637	0.130671
C80	C	0.345823	1.441637	0.380671
C81	C	-0.404178	0.620948	-0.369339
C82	C	-0.154178	0.870948	-0.119339
C83	C	0.095822	1.120948	0.130661
C84	C	0.345822	1.370948	0.380661
C85	C	-0.356758	0.585607	-0.326132
C86	C	-0.106758	0.835607	-0.076132
C87	C	0.143242	1.085607	0.173868
C88	C	0.393242	1.335607	0.423868
C89	C	-0.309329	0.620958	-0.282919
C90	C	-0.059329	0.870958	-0.032919
C91	C	0.190671	1.120958	0.217081
C92	C	0.440671	1.370958	0.467081
C93	C	-0.309324	0.691645	-0.282913
C94	C	-0.059324	0.941645	-0.032913
C95	C	0.190676	1.191645	0.217087
C96	C	0.440676	1.441645	0.467087
C97	C	-0.309345	0.335885	-0.282941
C98	C	-0.059345	0.585885	-0.032941
C99	C	0.190655	0.835885	0.217059
C100	C	0.440655	1.085885	0.467059
C101	C	-0.309355	0.265193	-0.282948
C102	C	-0.059355	0.515193	-0.032948
C103	C	0.190645	0.765193	0.217052
C104	C	0.440645	1.015193	0.467052
C105	C	-0.404199	0.265188	-0.369367
C106	C	-0.154199	0.515188	-0.119367
C107	C	0.095801	0.765188	0.130633
C108	C	0.345801	1.015188	0.380633
C109	C	-0.404195	0.335875	-0.369361
C110	C	-0.154195	0.585875	-0.119361
C111	C	0.095805	0.835875	0.130639
C112	C	0.345805	1.085875	0.380639
C113	C	-0.356763	0.371220	-0.326150
C114	C	-0.106763	0.621220	-0.076150
C115	C	0.143237	0.871220	0.173850
C116	C	0.393237	1.121220	0.423850
C117	C	-0.356761	0.447868	-0.326141
C118	C	-0.106761	0.697868	-0.076141
C119	C	0.143239	0.947868	0.173859
C120	C	0.393239	1.197868	0.423859
C121	C	-0.356763	0.508960	-0.326137
C122	C	-0.106763	0.758960	-0.076137
C123	C	0.143237	1.008960	0.173863
C124	C	0.393237	1.258960	0.423863
C125	C	-0.549166	0.977980	-0.326112
C126	C	-0.299166	1.227980	-0.076112
C127	C	-0.049166	1.477980	0.173888
C128	C	0.200834	1.727980	0.423888
C129	C	-0.631480	0.978003	-0.326127
C130	C	-0.381480	1.228003	-0.076127
C131	C	-0.131480	1.478003	0.173873
C132	C	0.118520	1.728003	0.423873
C133	C	-0.930571	0.978152	-0.326163
C134	C	-0.680571	1.228152	-0.076163
C135	C	-0.430571	1.478152	0.173837
C136	C	-0.180571	1.728152	0.423837
C137	C	-0.899257	0.925973	-0.378595
C138	C	-0.649257	1.175973	-0.128595
C139	C	-0.399257	1.425973	0.121405
C140	C	-0.149257	1.675973	0.371405
C141	C	-0.813639	0.925725	-0.378431
C142	C	-0.563639	1.175725	-0.128431
C143	C	-0.313639	1.425725	0.121569
C144	C	-0.063639	1.675725	0.371569
C145	C	-0.782188	0.978078	-0.326146
C146	C	-0.532188	1.228078	-0.076146
C147	C	-0.282188	1.478078	0.173854
C148	C	-0.032188	1.728078	0.423854
C149	C	-0.813338	0.958771	-0.254811
C150	C	-0.563338	1.208771	-0.004811
C151	C	-0.313338	1.458771	0.245189
C152	C	-0.063338	1.708771	0.495189
C153	C	-0.898984	0.958434	-0.255125
C154	C	-0.648984	1.208434	-0.005125
C155	C	-0.398984	1.458434	0.244875
C156	C	-0.148984	1.708434	0.494875
C157	C	-0.898915	1.049752	-0.344438
C158	C	-0.648915	1.299752	-0.094438
C159	C	-0.398915	1.549752	0.155562
C160	C	-0.148915	1.799752	0.405562
C161	C	-0.813264	1.049331	-0.346002
C162	C	-0.563264	1.299331	-0.096002
C163	C	-0.313264	1.549331	0.153998
C164	C	-0.063264	1.799331	0.403998
C165	C	-0.698329	0.978038	-0.326131
C166	C	-0.448329	1.228038	-0.076131
C167	C	-0.198329	1.478038	0.173869
C168	C	0.051671	1.728038	0.423869
C169	C	-1.014430	0.978191	-0.326173
C170	C	-0.764430	1.228191	-0.076173
C171	C	-0.514430	1.478191	0.173827
C172	C	-0.264430	1.728191	0.423827
C173	C	-0.163593	0.978180	-0.326167
C174	C	0.086407	1.228180	-0.076167
C175	C	0.336407	1.478180	0.173833
C176	C	0.586407	1.728180	0.423833
C177	C	-0.081279	0.978227	-0.326182
C178	C	0.168721	1.228227	-0.076182
C179	C	0.418721	1.478227	0.173818
C180	C	0.668721	1.728227	0.423818
C181	C	-0.356704	0.978100	-0.502675
C182	C	-0.106704	1.228100	-0.252675
C183	C	0.143296	1.478100	-0.002675
C184	C	0.393296	1.728100	0.247325
C185	C	-0.356682	0.978113	-0.577907
C186	C	-0.106682	1.228113	-0.327907
C187	C	0.143318	1.478113	-0.077907
C188	C	0.393318	1.728113	0.172093
C189	C	-0.356770	1.154613	-0.326155
C190	C	-0.106770	1.404613	-0.076155
C191	C	0.143230	1.654613	0.173845
C192	C	0.393230	1.904613	0.423845
C193	C	-0.356776	1.229845	-0.326164
C194	C	-0.106776	1.479845	-0.076164
C195	C	0.143224	1.729845	0.173836
C196	C	0.393224	1.979845	0.423836
C197	C	-0.309308	0.934862	-0.613254
C198	C	-0.059308	1.184862	-0.363254
C199	C	0.190692	1.434862	-0.113254
C200	C	0.440692	1.684862	0.136746
C201	C	-0.309294	0.934871	-0.683942
C202	C	-0.059294	1.184871	-0.433942
C203	C	0.190706	1.434871	-0.183942
C204	C	0.440706	1.684871	0.066058
C205	C	-0.356650	0.978135	-0.719283
C206	C	-0.106650	1.228135	-0.469283
C207	C	0.143350	1.478135	-0.219283
C208	C	0.393350	1.728135	0.030717
C209	C	-0.404029	1.021389	-0.683931
C210	C	-0.154029	1.271389	-0.433931
C211	C	0.095971	1.521389	-0.183931
C212	C	0.345971	1.771389	0.066069
C213	C	-0.404046	1.021375	-0.613244
C214	C	-0.154046	1.271375	-0.363244
C215	C	0.095954	1.521375	-0.113244
C216	C	0.345954	1.771375	0.136756
C217	C	-0.403959	1.021442	-0.969005
C218	C	-0.153959	1.271442	-0.719005
C219	C	0.096041	1.521442	-0.469005
C220	C	0.346041	1.771442	-0.219005
C221	C	-0.403937	1.021454	-1.039697
C222	C	-0.153937	1.271454	-0.789697
C223	C	0.096063	1.521454	-0.539697
C224	C	0.346063	1.771454	-0.289697
C225	C	-0.309207	0.934938	-1.039703
C226	C	-0.059207	1.184938	-0.789703
C227	C	0.190793	1.434938	-0.539703
C228	C	0.440793	1.684938	-0.289703
C229	C	-0.309224	0.934925	-0.969016
C230	C	-0.059224	1.184925	-0.719016
C231	C	0.190776	1.434925	-0.469016
C232	C	0.440776	1.684925	-0.219016
C233	C	-0.356606	0.978175	-0.933670
C234	C	-0.106606	1.228175	-0.683670
C235	C	0.143394	1.478175	-0.433670
C236	C	0.393394	1.728175	-0.183670
C237	C	-0.356622	0.978163	-0.857022
C238	C	-0.106622	1.228163	-0.607022
C239	C	0.143378	1.478163	-0.357022
C240	C	0.393378	1.728163	-0.107022
C241	C	-0.356631	0.978151	-0.795930
C242	C	-0.106631	1.228151	-0.545930
C243	C	0.143369	1.478151	-0.295930
C244	C	0.393369	1.728151	-0.045930
C245	C	-0.356753	0.978080	-0.150276
C246	C	-0.106753	1.228080	0.099724
C247	C	0.143247	1.478080	0.349724
C248	C	0.393247	1.728080	0.599724
C249	C	-0.356566	0.978198	-0.075045
C250	C	-0.106566	1.228198	0.174955
C251	C	0.143434	1.478198	0.424955
C252	C	0.393434	1.728198	0.674955
H253	H	-0.270716	0.592178	-0.247742
H254	H	-0.020716	0.842178	0.002258
H255	H	0.229284	1.092178	0.252258
H256	H	0.479284	1.342178	0.502258
H257	H	-0.270720	0.899649	-0.712719
H258	H	-0.020720	1.149649	-0.462719
H259	H	0.229280	1.399649	-0.212719
H260	H	0.479280	1.649649	0.037281
Cl261	Cl	-0.929931	0.877626	-0.231225
Cl262	Cl	-0.679931	1.127626	0.018775
Cl263	Cl	-0.429931	1.377626	0.268775
Cl264	Cl	-0.179931	1.627626	0.518775
H265	H	-0.792575	0.937804	-0.431325
H266	H	-0.542575	1.187804	-0.181325
H267	H	-0.292575	1.437804	0.068675
H268	H	-0.042575	1.687804	0.318675
Cl269	Cl	-0.930985	0.944432	-0.460526
Cl270	Cl	-0.680985	1.194432	-0.210526
Cl271	Cl	-0.430985	1.444432	0.039474
Cl272	Cl	-0.180985	1.694432	0.289474
Cl273	Cl	-0.932600	0.844534	-0.360156
Cl274	Cl	-0.682600	1.094534	-0.110156
Cl275	Cl	-0.432600	1.344534	0.139844
Cl276	Cl	-0.182600	1.594534	0.389844
Cl277	Cl	-0.932182	1.076931	-0.423381
Cl278	Cl	-0.682182	1.326931	-0.173381
Cl279	Cl	-0.432182	1.576931	0.076619
Cl280	Cl	-0.182182	1.826931	0.326619
Cl281	Cl	-0.463519	1.075820	-0.924580
Cl282	Cl	-0.213519	1.325820	-0.674580
Cl283	Cl	0.036481	1.575820	-0.424580
Cl284	Cl	0.286481	1.825820	-0.174580
H285	H	-0.442591	1.056612	-0.712711
H286	H	-0.192591	1.306612	-0.462711
H287	H	0.057409	1.556612	-0.212711
H288	H	0.307409	1.806612	0.037289
H289	H	-0.919164	1.088627	-0.306250
H290	H	-0.669164	1.338627	-0.056250
H291	H	-0.419164	1.588627	0.193750
H292	H	-0.169164	1.838627	0.443750
Cl293	Cl	-0.463476	1.075846	-1.084124
Cl294	Cl	-0.213476	1.325846	-0.834124
Cl295	Cl	0.036524	1.575846	-0.584124
Cl296	Cl	0.286524	1.825846	-0.334124
H297	H	-0.270735	0.236420	-0.247765
H298	H	-0.020735	0.486420	0.002235
H299	H	0.229265	0.736420	0.252235
H300	H	0.479265	0.986420	0.502235
H301	H	-0.442617	1.056600	-0.584466
H302	H	-0.192617	1.306600	-0.334466
H303	H	0.057383	1.556600	-0.084466
H304	H	0.307383	1.806600	0.165534
Cl305	Cl	-0.780199	1.112531	-0.291344
Cl306	Cl	-0.530199	1.362531	-0.041344
Cl307	Cl	-0.280199	1.612531	0.208656
Cl308	Cl	-0.030199	1.862531	0.458656
H309	H	-0.792901	1.063891	-0.398501
H310	H	-0.542901	1.313891	-0.148501
H311	H	-0.292901	1.563891	0.101499
H312	H	-0.042901	1.813891	0.351499
Cl313	Cl	-0.249701	0.736080	-0.228589
Cl314	Cl	0.000299	0.986080	0.021411
Cl315	Cl	0.250299	1.236080	0.271411
Cl316	Cl	0.500299	1.486080	0.521411
Cl317	Cl	-0.463798	0.736059	-0.423646
Cl318	Cl	-0.213798	0.986059	-0.173646
Cl319	Cl	0.036202	1.236059	0.076354
Cl320	Cl	0.286202	1.486059	0.326354
Cl321	Cl	-0.249714	0.380309	-0.228620
Cl322	Cl	0.000286	0.630309	0.021380
Cl323	Cl	0.250286	0.880309	0.271380
Cl324	Cl	0.500286	1.130309	0.521380
H325	H	-0.442811	0.364646	-0.404542
H326	H	-0.192811	0.614646	-0.154542
H327	H	0.057189	0.864646	0.095458
H328	H	0.307189	1.114646	0.345458
H329	H	-0.442797	0.592173	-0.404525
H330	H	-0.192797	0.842173	-0.154525
H331	H	0.057203	1.092173	0.095475
H332	H	0.307203	1.342173	0.345475
H333	H	-0.442818	0.236402	-0.404554
H334	H	-0.192818	0.486402	-0.154554
H335	H	0.057182	0.736402	0.095446
H336	H	0.307182	0.986402	0.345446
Cl337	Cl	-0.249767	0.880472	-0.568833
Cl338	Cl	0.000233	1.130472	-0.318833
Cl339	Cl	0.250233	1.380472	-0.068833
Cl340	Cl	0.500233	1.630472	0.181167
H341	H	-0.793215	0.872653	-0.366326
H342	H	-0.543215	1.122653	-0.116326
H343	H	-0.293215	1.372653	0.133674
H344	H	-0.043215	1.622653	0.383674
H345	H	-0.919700	0.994790	-0.214727
H346	H	-0.669700	1.244790	0.035273
H347	H	-0.419700	1.494790	0.285273
H348	H	-0.169700	1.744790	0.535273
H349	H	-0.792968	0.995580	-0.214680
H350	H	-0.542968	1.245580	0.035320
H351	H	-0.292968	1.495580	0.285320
H352	H	-0.042968	1.745580	0.535320
Cl353	Cl	-0.780328	0.878816	-0.230481
Cl354	Cl	-0.530328	1.128816	0.019519
Cl355	Cl	-0.280328	1.378816	0.269519
Cl356	Cl	-0.030328	1.628816	0.519519
H357	H	-0.270659	0.899697	-0.940245
H358	H	-0.020659	1.149697	-0.690245
H359	H	0.229341	1.399697	-0.440245
H360	H	0.479341	1.649697	-0.190245
H361	H	-0.270629	0.899719	-1.068490
H362	H	-0.020629	1.149719	-0.818490
H363	H	0.229371	1.399719	-0.568490
H364	H	0.479371	1.649719	-0.318490
