data_functionalizedCrystal
_audit_creation_method	'MofGen! by Chris Wilmer'
_symmetry_space_group_name_H-M	'P1'
_symmetry_Int_Tables_number	1
_symmetry_cell_setting	triclinic
loop_
_symmetry_equiv_pos_as_xyz
  x,y,z
_cell_length_a	14.560432
_cell_length_b	18.760487
_cell_length_c	18.760492
_cell_angle_alpha	90.032780
_cell_angle_beta	59.998672
_cell_angle_gamma	60.021407
loop_
_atom_site_label
_atom_site_type_symbol
_atom_site_fract_x
_atom_site_fract_y
_atom_site_fract_z
Zr1	Zr	1.005267	0.686707	-0.093112
O2	O	1.196866	0.572899	-0.206997
O3	O	0.813667	0.721592	-0.058202
O4	O	1.005267	0.721603	-0.206907
O5	O	1.005267	0.572884	0.059011
O6	O	1.005266	0.838906	-0.206835
O7	O	1.005267	0.572889	-0.058292
O8	O	0.662530	0.838887	0.059172
O9	O	1.348003	0.572902	-0.206996
O10	O	0.892475	0.824016	-0.043257
O11	O	0.892475	0.736470	0.044230
O12	O	1.118058	0.736482	-0.130851
O13	O	1.118059	0.648937	-0.043364
Zr14	Zr	1.005267	0.873783	0.094087
Zr15	Zr	1.005267	0.873792	-0.092997
Zr16	Zr	1.005267	0.686699	0.093972
Zr17	Zr	1.246313	0.686712	-0.093111
Zr18	Zr	0.764221	0.873779	0.094085
O19	O	1.196866	0.838898	0.059176
O20	O	1.196866	0.838909	-0.206834
O21	O	1.196867	0.572888	0.059012
O22	O	0.813667	0.987591	0.207972
O23	O	0.813667	0.987603	-0.058038
O24	O	0.813668	0.721581	0.207808
O25	O	1.005266	0.987606	-0.058037
O26	O	1.005267	0.838888	0.207882
O27	O	1.005267	0.721585	0.207810
O28	O	1.005267	0.987601	0.059266
O29	O	1.348003	0.721609	-0.206905
O30	O	0.662531	0.838881	0.207879
O31	O	0.662530	0.987588	0.207971
O32	O	0.662530	0.987595	0.059264
O33	O	1.348003	0.572896	-0.058289
O34	O	1.348003	0.721603	-0.058198
O35	O	0.892475	0.824008	0.131826
O36	O	0.892475	0.911554	0.044338
O37	O	1.118058	0.824020	-0.043256
O38	O	1.118059	0.736475	0.044232
C39	C	0.703755	0.780239	0.000485
C40	C	0.601425	0.780237	0.000484
C41	C	0.767940	0.650988	-0.128839
C42	C	0.803120	0.586364	-0.193497
C43	C	0.706967	0.586367	-0.193494
C44	C	0.575622	0.651002	-0.128828
C45	C	0.540442	0.715626	-0.064170
C46	C	0.636607	0.715615	-0.064179
C47	C	0.373929	0.844877	0.065148
C48	C	0.470080	0.844872	0.065150
C49	C	0.242584	0.909513	0.129814
C50	C	0.207402	0.974135	0.194477
C51	C	0.303565	0.974129	0.194472
C52	C	0.434900	0.909496	0.129808
C53	C	1.005267	0.546231	0.000343
C54	C	1.005267	0.466809	0.000294
C55	C	1.123024	0.085300	-0.045084
C56	C	0.887510	0.176691	0.046366
C57	C	0.887508	0.251313	0.046291
C58	C	1.005266	0.242931	0.000527
C59	C	1.123026	0.159928	-0.045163
C60	C	0.769751	0.334322	0.091971
C61	C	0.769744	0.408950	0.091898
C62	C	0.887503	0.400569	0.046138
C63	C	1.005268	0.317559	0.000448
C64	C	1.123025	0.309177	-0.045316
C65	C	1.240791	0.226168	-0.091002
C66	C	1.240784	0.151547	-0.090922
C67	C	0.887510	0.475190	0.046058
C68	C	1.123027	0.383805	-0.045395
C69	C	1.306779	0.780251	0.000489
C70	C	1.409109	0.780253	0.000490
C71	C	1.005266	0.780255	-0.233527
C72	C	1.005266	0.780259	-0.312949
C73	C	1.005266	1.014259	0.000631
C74	C	1.005266	1.093682	0.000680
C75	C	0.887510	0.825928	-0.603040
C76	C	1.123023	0.734541	-0.694485
C77	C	1.123025	0.734547	-0.619864
C78	C	1.005268	0.780243	-0.536827
C79	C	0.887508	0.825933	-0.528411
C80	C	1.240782	0.688850	-0.628274
C81	C	1.240789	0.688853	-0.553651
C82	C	1.123030	0.734555	-0.470612
C83	C	1.005266	0.780248	-0.462198
C84	C	0.887508	0.825944	-0.379161
C85	C	0.769743	0.871642	-0.370746
C86	C	0.769749	0.871634	-0.445372
C87	C	1.123024	0.734563	-0.395986
C88	C	0.887507	0.825949	-0.304532
C89	C	1.005267	0.780235	0.234501
C90	C	1.005267	0.780232	0.313923
C91	C	0.703755	1.014254	0.000629
C92	C	0.601424	1.093674	0.000677
C93	C	0.703755	0.780229	0.234499
C94	C	0.601425	0.780224	0.313920
C95	C	0.703755	1.014243	0.234643
C96	C	0.601425	1.093660	0.314113
C97	C	1.306779	0.546247	-0.233668
C98	C	1.409109	0.466830	-0.313139
C99	C	1.306779	0.546237	0.000345
C100	C	1.409110	0.466817	0.000297
C101	C	1.306778	0.780261	-0.233524
C102	C	1.409108	0.780267	-0.312946
C103	C	0.553369	1.085276	-0.045032
C104	C	0.457232	1.159893	-0.045004
C105	C	0.409145	1.242906	0.000738
C106	C	0.457210	1.251302	0.046449
C107	C	0.553352	1.176686	0.046416
C108	C	0.553370	0.825915	0.396949
C109	C	0.457233	0.825907	0.471581
C110	C	0.409147	0.780211	0.463183
C111	C	0.457212	0.734514	0.380145
C112	C	0.553353	0.734518	0.305515
C113	C	0.553369	1.176661	0.305766
C114	C	0.457232	1.251289	0.380429
C115	C	0.409146	1.242914	0.463440
C116	C	0.457211	1.159904	0.471786
C117	C	0.553353	1.085278	0.397123
C118	C	1.457176	0.383829	-0.304791
C119	C	1.553343	0.309202	-0.379455
C120	C	1.601434	0.317577	-0.462465
C121	C	1.553363	0.400586	-0.470811
C122	C	1.457204	0.475212	-0.396148
C123	C	1.457175	0.475214	0.045999
C124	C	1.553339	0.400597	0.045950
C125	C	1.601428	0.317584	0.000205
C126	C	1.553359	0.309188	-0.045502
C127	C	1.457204	0.383804	-0.045458
C128	C	1.457164	0.825971	-0.304519
C129	C	1.553301	0.825993	-0.379137
C130	C	1.601388	0.780305	-0.462181
C131	C	1.553323	0.734600	-0.470606
C132	C	1.457181	0.734583	-0.395989
H133	H	0.497337	0.651005	-0.128838
H134	H	1.418071	0.376955	-0.082671
Cl135	Cl	0.613746	0.677077	0.201138
H136	H	0.791613	0.863163	-0.236923
Cl137	Cl	1.613743	0.411172	0.103420
Cl138	Cl	0.739475	0.579537	0.103480
Cl139	Cl	0.288280	0.780217	0.557014
Cl140	Cl	0.968237	0.505114	-0.274788
Cl141	Cl	0.613809	1.187213	0.201419
H142	H	1.418069	0.542793	-0.402956
H143	H	0.330861	1.303686	0.524228
Cl144	Cl	0.042292	1.055384	0.275758
Cl145	Cl	1.613823	0.204822	-0.103002
Cl146	Cl	1.396746	0.579564	0.103509
H147	H	1.336654	0.651645	-0.695886
H148	H	1.679724	0.256834	0.000177
Cl149	Cl	0.396822	1.355632	0.369917
Cl150	Cl	0.739481	0.187224	0.103889
Cl151	Cl	0.613805	0.980926	-0.102549
Cl152	Cl	1.396731	0.883415	-0.200130
Cl153	Cl	0.613744	1.187258	0.103892
H154	H	0.418109	1.153040	-0.082227
H155	H	1.592426	0.863211	-0.372260
H156	H	0.513204	0.909481	0.129802
H157	H	0.418045	1.153098	0.539383
Cl158	Cl	1.722258	0.780332	-0.555977
H159	H	0.592511	0.863126	0.403805
Cl160	Cl	1.396738	0.373278	-0.200444
Cl161	Cl	1.722318	0.223751	-0.556320
H162	H	0.592467	1.017698	0.403932
H163	H	0.673871	0.908840	-0.438529
Cl164	Cl	0.621711	0.929079	-0.266350
Cl165	Cl	0.259323	1.055380	0.275757
Cl166	Cl	1.271053	0.677086	-0.798872
Cl167	Cl	0.751191	0.505130	-0.274784
Cl168	Cl	1.613801	0.677158	-0.575010
H169	H	1.218906	0.017712	-0.082277
Cl170	Cl	1.271059	0.677123	-0.406564
Cl171	Cl	0.121705	0.909518	0.129816
Cl172	Cl	1.396792	0.677111	-0.406598
Cl173	Cl	0.739469	0.883375	-0.592460
Cl174	Cl	0.621724	0.344852	0.149496
H175	H	0.418046	0.697310	0.373319
H176	H	1.336669	0.219353	-0.128267
Cl177	Cl	0.888826	0.650972	-0.128839
H178	H	0.330859	1.303656	0.000759
H179	H	1.592466	0.241619	-0.372642
H180	H	0.418044	1.318901	0.083691
H181	H	1.336681	0.651644	-0.560512
Cl182	Cl	1.271074	0.373258	-0.102925
Cl183	Cl	1.613829	0.411100	-0.575174
Cl184	Cl	1.388818	0.047194	-0.148351
H185	H	0.673853	0.476533	0.129096
Cl186	Cl	0.396824	0.883362	0.575961
