data_functionalizedCrystal
_audit_creation_method	'MofGen! by Chris Wilmer'
_symmetry_space_group_name_H-M	'P1'
_symmetry_Int_Tables_number	1
_symmetry_cell_setting	triclinic
loop_
_symmetry_equiv_pos_as_xyz
  x,y,z
_cell_length_a	6.817900
_cell_length_b	11.168138
_cell_length_c	11.168136
_cell_angle_alpha	92.020086
_cell_angle_beta	108.508683
_cell_angle_gamma	108.508793
loop_
_atom_site_label
_atom_site_type_symbol
_atom_site_fract_x
_atom_site_fract_y
_atom_site_fract_z
V1	V	-4.109883	-0.174724	-0.393710
O2	O	-4.069466	0.008377	-0.386204
O3	O	-4.086173	-0.346429	-0.391027
O4	O	-4.086174	-0.172045	-0.565415
O5	O	-4.069465	-0.167215	-0.210609
V6	V	-4.587113	-0.152822	-0.371808
O7	O	-4.384947	-0.222767	-0.441753
O8	O	-4.762246	-0.104778	-0.323765
O9	O	-4.387617	0.018883	-0.374490
O10	O	-4.744927	-0.335922	-0.379314
O11	O	-4.744928	-0.160331	-0.554909
O12	O	-4.387616	-0.155501	-0.200102
C13	C	-3.936381	-0.388287	-0.384819
C14	C	-3.998446	-0.528658	-0.383771
C15	C	-3.851277	-0.585129	-0.377314
C16	C	-3.915420	-0.730210	-0.376230
C17	C	-3.936381	-0.165841	-0.607267
C18	C	-3.998443	-0.164786	-0.747637
C19	C	-4.200951	-0.170305	-0.816329
C20	C	-4.265099	-0.169216	-0.961410
C21	C	-4.200752	0.060735	-0.380695
C22	C	-4.117926	0.201105	-0.381752
C23	C	-4.200751	-0.161709	-0.158245
C24	C	-4.117926	-0.162757	-0.017873
H25	H	-3.789534	-0.778798	-0.370708
H26	H	-4.243831	-0.750318	-0.387288
H27	H	-3.944445	-0.158040	-0.958832
C28	C	-4.229591	-0.607516	-0.389860
C29	C	-4.217229	-0.666610	-0.280529
C30	C	-4.430117	-0.739272	-0.286100
H31	H	-4.313801	-0.553412	-0.393989
H32	H	-4.298166	-0.670847	-0.463670
H33	H	-4.148686	-0.603287	-0.206739
H34	H	-4.133060	-0.720736	-0.276378
H35	H	-4.498692	-0.802603	-0.359910
H36	H	-4.514310	-0.685159	-0.290232
H37	H	-4.421757	-0.779385	-0.211927
H38	H	-3.872554	-0.159246	-0.796233
C39	C	-3.619926	-0.506203	-0.370822
C40	C	-3.519448	-0.413061	-0.261902
C41	C	-3.306335	-0.340323	-0.255888
H42	H	-3.535640	-0.560283	-0.366562
H43	H	-3.627814	-0.465941	-0.444887
H44	H	-3.511548	-0.453321	-0.187856
H45	H	-3.603668	-0.358953	-0.266138
H46	H	-3.314222	-0.300061	-0.329953
H47	H	-3.222069	-0.394413	-0.251632
H48	H	-3.238141	-0.277111	-0.181994
C49	C	-4.368865	-0.177942	-0.751515
C50	C	-4.402438	-0.288029	-0.693212
C51	C	-4.557133	-0.295115	-0.633511
H52	H	-4.315604	-0.104703	-0.688698
H53	H	-4.504315	-0.181335	-0.813397
H54	H	-4.267016	-0.284625	-0.631336
H55	H	-4.455729	-0.361286	-0.756001
H56	H	-4.692582	-0.298508	-0.695393
H57	H	-4.503856	-0.221870	-0.570700
H58	H	-4.579947	-0.369813	-0.593955
H59	H	-4.438584	-0.173947	-1.020461
