data_functionalizedCrystal
_audit_creation_method	'MofGen! by Chris Wilmer'
_symmetry_space_group_name_H-M	'P1'
_symmetry_Int_Tables_number	1
_symmetry_cell_setting	triclinic
loop_
_symmetry_equiv_pos_as_xyz
  x,y,z
_cell_length_a	9.065218
_cell_length_b	27.731996
_cell_length_c	8.140239
_cell_angle_alpha	89.990537
_cell_angle_beta	89.997198
_cell_angle_gamma	83.818636
loop_
_atom_site_label
_atom_site_type_symbol
_atom_site_fract_x
_atom_site_fract_y
_atom_site_fract_z
O1	O	1.955851	0.070868	-0.136643
O2	O	1.526193	0.076681	-0.136647
O3	O	1.754406	0.003467	-0.136609
O4	O	1.727638	0.144082	-0.136681
O5	O	1.754394	0.003466	0.136618
O6	O	1.526181	0.076680	0.136580
O7	O	1.955838	0.070867	0.136584
Zn8	Zn	1.741008	0.073773	0.179963
Zn9	Zn	1.741024	0.073775	-0.180026
O10	O	1.727625	0.144081	0.136546
C11	C	1.471236	0.076122	-0.000034
C12	C	1.307500	0.074451	-0.000034
C13	C	1.753850	-0.014544	0.000010
C14	C	1.752194	-0.068212	0.000027
C15	C	1.741780	-0.400999	-0.148990
C16	C	1.735491	-0.602700	-0.149019
O17	O	1.734620	-0.628776	-0.275684
N18	N	1.734703	-0.627923	-0.000084
C19	C	1.735477	-0.602717	0.148868
O20	O	1.734648	-0.628798	0.275546
C21	C	1.741756	-0.401016	0.148895
C22	C	1.742559	-0.375797	-0.000049
C23	C	1.742581	-0.375779	-0.297922
C24	C	1.744162	-0.325357	-0.297914
C25	C	1.744941	-0.300155	-0.148972
C26	C	1.744140	-0.325375	-0.000040
C27	C	1.742520	-0.375811	0.297846
C28	C	1.744087	-0.325383	0.297840
C29	C	1.744889	-0.300163	0.148895
C30	C	1.746499	-0.249751	0.148910
N31	N	1.747287	-0.224528	-0.000025
C32	C	1.746508	-0.249730	-0.148966
C33	C	1.732184	-0.708613	0.148843
C34	C	1.730617	-0.759038	0.148837
C35	C	1.730627	-0.759017	-0.149051
C36	C	1.732205	-0.708592	-0.149043
C37	C	1.732972	-0.683390	-0.000091
C38	C	1.749828	-0.143840	-0.148937
C39	C	1.751415	-0.093414	-0.148915
C40	C	1.751396	-0.093439	0.148972
C41	C	1.749818	-0.143861	0.148951
C42	C	1.749029	-0.169060	-0.000016
O43	O	1.747354	-0.223643	0.275509
O44	O	1.747305	-0.223639	-0.275625
C45	C	1.740200	-0.451421	-0.148999
C46	C	1.739398	-0.476641	-0.000066
C47	C	1.740178	-0.451439	0.148875
C48	C	1.737831	-0.527066	-0.000073
C49	C	1.737052	-0.552268	-0.149014
C50	C	1.737840	-0.527045	-0.297948
C51	C	1.739421	-0.476623	-0.297940
C52	C	1.739390	-0.476661	0.297809
C53	C	1.737811	-0.527084	0.297788
C54	C	1.737032	-0.552286	0.148847
C55	C	2.010795	0.071426	-0.000033
C56	C	2.174531	0.073097	-0.000044
C57	C	1.728181	0.162092	-0.000076
C58	C	1.729838	0.215760	-0.000104
N59	N	1.741007	0.073772	0.425645
N60	N	1.741036	0.073772	-0.425708
H61	H	1.749178	-0.164351	-0.270240
H62	H	1.740026	-0.456147	0.419098
O63	O	1.748795	-0.168335	0.293668
C64	C	1.621397	-0.151089	0.384303
H65	H	1.532506	-0.133779	0.297165
H66	H	1.577452	-0.182603	0.451849
H67	H	1.651213	-0.122941	0.477185
H68	H	1.729994	-0.779545	-0.270325
O69	O	1.752386	-0.068987	0.293697
C70	C	1.879760	-0.086234	0.384375
H71	H	1.968695	-0.103526	0.297262
H72	H	1.923654	-0.054725	0.451958
H73	H	1.849933	-0.114398	0.477227
H74	H	1.744810	-0.304827	-0.419200
O75	O	1.745031	-0.300859	0.442437
C76	C	1.873763	-0.276622	0.451405
H77	H	1.916625	-0.270694	0.322100
H78	H	1.846118	-0.240063	0.514463
H79	H	1.962640	-0.299508	0.524903
O80	O	1.751927	-0.068863	-0.293523
C81	C	1.624982	-0.034797	-0.302413
H82	H	1.582667	-0.025599	-0.173080
H83	H	1.654767	-0.000444	-0.365519
H84	H	1.534862	-0.050799	-0.375826
O85	O	1.742026	-0.400316	-0.442512
C86	C	1.868949	-0.434390	-0.451453
H87	H	1.911307	-0.443599	-0.322138
H88	H	1.839117	-0.468736	-0.514525
H89	H	1.959054	-0.418390	-0.524924
H90	H	1.732857	-0.688061	-0.270326
H91	H	1.729985	-0.779569	0.270123
H92	H	1.737169	-0.547614	0.419086
H93	H	1.732815	-0.688099	0.270144
O94	O	1.739916	-0.452076	-0.442546
C95	C	1.612960	-0.418015	-0.451437
H96	H	1.570656	-0.408812	-0.322104
H97	H	1.642726	-0.383663	-0.514569
H98	H	1.522839	-0.434024	-0.524828
O99	O	1.736811	-0.551545	-0.442583
C100	C	1.608107	-0.575801	-0.451440
H101	H	1.519262	-0.557162	-0.366923
H102	H	1.565182	-0.574723	-0.583165
H103	H	1.635803	-0.615128	-0.411396
H104	H	1.741869	-0.396337	0.419133
