data_functionalizedCrystal
_audit_creation_method	'MofGen! by Chris Wilmer'
_symmetry_space_group_name_H-M	'P1'
_symmetry_Int_Tables_number	1
_symmetry_cell_setting	triclinic
loop_
_symmetry_equiv_pos_as_xyz
  x,y,z
_cell_length_a	14.908571
_cell_length_b	17.640280
_cell_length_c	14.908775
_cell_angle_alpha	103.758371
_cell_angle_beta	90.190472
_cell_angle_gamma	74.921313
loop_
_atom_site_label
_atom_site_type_symbol
_atom_site_fract_x
_atom_site_fract_y
_atom_site_fract_z
Zn1	Zn	1.433218	-0.361617	0.509312
Zn2	Zn	1.476765	-0.505127	0.327886
Zn3	Zn	1.291776	-0.362489	0.350119
Zn4	Zn	1.313971	-0.489542	0.472912
O5	O	1.378933	-0.429694	0.415057
O6	O	1.566318	-0.386811	0.491174
O7	O	1.461161	-0.493093	0.203518
O8	O	1.283026	-0.249141	0.395774
O9	O	1.598312	-0.492247	0.357881
O10	O	1.386943	-0.248500	0.512732
O11	O	1.325251	-0.388297	0.219853
O12	O	1.167397	-0.373186	0.360479
O13	O	1.320854	-0.465685	0.605058
O14	O	1.183704	-0.466531	0.450695
O15	O	1.408464	-0.371699	0.631800
O16	O	1.482683	-0.616291	0.322586
O17	O	1.363079	-0.604842	0.429136
C18	C	1.142537	-0.418262	0.404050
C19	C	1.041409	-0.413391	0.399359
C20	C	0.868457	-0.501605	0.484294
C21	C	0.773439	-0.497030	0.479888
C22	C	0.756351	-0.399661	0.386149
C23	C	0.851369	-0.404236	0.390554
C24	C	0.907420	-0.455211	0.439627
C25	C	1.002441	-0.459790	0.444027
C26	C	0.985350	-0.362417	0.350293
C27	C	0.890332	-0.357842	0.345888
C28	C	1.430038	-0.639926	0.369520
C29	C	1.451982	-0.729867	0.350073
C30	C	1.212575	-0.996008	0.563140
C31	C	1.233198	-1.080523	0.544838
C32	C	1.357806	-1.092378	0.434009
C33	C	1.337195	-1.007862	0.452305
C34	C	1.264578	-0.959684	0.516871
C35	C	1.389198	-0.971538	0.406035
C36	C	1.368586	-0.887030	0.424326
C37	C	1.295971	-0.838846	0.488887
C38	C	1.243966	-0.875176	0.535162
C39	C	1.461811	-1.019717	0.341464
C40	C	1.513814	-0.983393	0.295194
C41	C	1.493207	-0.898883	0.313490
C42	C	1.420591	-0.850700	0.378051
C43	C	1.545212	-0.862554	0.267216
C44	C	1.524599	-0.778045	0.285507
C45	C	1.399979	-0.766192	0.396343
C46	C	1.616252	-0.441170	0.426107
C47	C	1.717383	-0.446060	0.430816
C48	C	1.362278	-0.416856	0.652364
C49	C	1.355180	-0.411386	0.753489
C50	C	1.327651	-0.218640	0.460793
C51	C	1.305798	-0.128702	0.480284
C52	C	1.274423	-0.349117	0.904525
C53	C	1.281088	-0.354255	0.809509
C54	C	1.422615	-0.463381	0.792493
C55	C	1.415950	-0.458243	0.887510
C56	C	1.341851	-0.401109	0.943523
C57	C	1.335183	-0.395976	1.038540
C58	C	1.476713	-0.505097	1.021523
C59	C	1.483378	-0.510236	0.926507
C60	C	1.395520	-0.442499	1.178670
C61	C	1.402618	-0.447971	1.077543
H62	H	1.048077	-0.501298	0.483983
C63	C	1.437679	-1.145383	0.362984
N64	N	1.497841	-1.185306	0.309488
C65	C	0.694677	-0.343584	0.332184
N66	N	0.648223	-0.301346	0.291539
H67	H	1.226182	-0.311915	0.777762
C68	C	0.828666	-0.301772	0.291910
N69	N	0.782221	-0.259541	0.251251
H70	H	1.017083	-0.324641	0.313920
C71	C	1.320085	-0.713191	0.467357
N72	N	1.259905	-0.673270	0.520834
C73	C	1.164072	-0.822175	0.606176
N74	N	1.103891	-0.782255	0.659653
C75	C	1.132681	-0.943007	0.634154
N76	N	1.072500	-0.903087	0.687632
H77	H	1.482947	-0.509891	0.746873
C78	C	0.930116	-0.557681	0.538270
N79	N	0.976555	-0.599917	0.578927
C80	C	1.175989	-1.120476	0.595749
N81	N	1.132899	-1.150569	0.634095
C82	C	1.593688	-1.036398	0.224170
N83	N	1.653850	-1.076321	0.170674
C84	C	1.625079	-0.915561	0.196185
N85	N	1.685235	-0.955486	0.142682
C86	C	1.581813	-0.738086	0.234616
N87	N	1.624908	-0.707989	0.196283
C88	C	0.730586	-0.548073	0.529018
N89	N	0.698310	-0.586523	0.566023
H90	H	1.478593	-1.088529	0.326576
C91	C	1.253676	-0.333126	1.100153
N92	N	1.192284	-0.285782	1.146559
C93	C	1.192911	-0.286274	0.966141
N94	N	1.131515	-0.238939	1.012548
H95	H	1.279184	-0.770034	0.503772
H96	H	1.543709	-0.556750	0.880889
H97	H	1.531622	-0.547430	1.053285
