data_functionalizedCrystal
_audit_creation_method	'MofGen! by Chris Wilmer'
_symmetry_space_group_name_H-M	'P1'
_symmetry_Int_Tables_number	1
_symmetry_cell_setting	triclinic
loop_
_symmetry_equiv_pos_as_xyz
  x,y,z
_cell_length_a	14.519709
_cell_length_b	14.519731
_cell_length_c	9.730223
_cell_angle_alpha	89.994614
_cell_angle_beta	90.002325
_cell_angle_gamma	83.684499
loop_
_atom_site_label
_atom_site_type_symbol
_atom_site_fract_x
_atom_site_fract_y
_atom_site_fract_z
O1	O	1.223875	0.120890	-0.114114
O2	O	1.557208	0.454223	0.219219
O3	O	1.890542	0.787556	0.552553
O4	O	0.955399	0.135126	-0.114156
O5	O	1.288733	0.468459	0.219177
O6	O	1.622066	0.801793	0.552510
O7	O	1.096745	-0.006229	-0.114122
O8	O	1.430079	0.327104	0.219212
O9	O	1.763412	0.660437	0.552545
O10	O	1.082529	0.262245	-0.114149
O11	O	1.415863	0.595578	0.219184
O12	O	1.749196	0.928912	0.552518
O13	O	1.096736	-0.006233	0.114458
O14	O	1.430070	0.327100	0.447792
O15	O	1.763403	0.660434	0.781125
O16	O	0.955390	0.135122	0.114423
O17	O	1.288724	0.468456	0.447757
O18	O	1.622057	0.801789	0.781090
O19	O	1.223866	0.120886	0.114466
O20	O	1.557199	0.454219	0.447799
O21	O	1.890533	0.787553	0.781133
Zn22	Zn	1.089627	0.128003	0.150737
Zn23	Zn	1.422960	0.461337	0.484070
Zn24	Zn	1.756293	0.794670	0.817403
Zn25	Zn	1.089639	0.128009	-0.150427
Zn26	Zn	1.422972	0.461342	0.182906
Zn27	Zn	1.756305	0.794675	0.516239
O28	O	1.082520	0.262241	0.114431
O29	O	1.415853	0.595575	0.447764
O30	O	1.749187	0.928908	0.781098
C31	C	0.921035	0.134461	0.000128
C32	C	1.254368	0.467794	0.333462
C33	C	1.587702	0.801127	0.666795
C34	C	0.818654	0.132473	0.000112
C35	C	1.151987	0.465806	0.333446
C36	C	1.485320	0.799139	0.666779
C37	C	1.096075	-0.040591	0.000169
C38	C	1.429408	0.292743	0.333502
C39	C	1.762741	0.626076	0.666835
C40	C	1.094079	-0.142971	0.000169
C41	C	1.427412	0.190363	0.333502
C42	C	1.760745	0.523696	0.666836
C43	C	0.443757	0.125153	0.000176
C44	C	0.777091	0.458486	0.333509
C45	C	1.110424	0.791820	0.666842
C46	C	0.548065	0.127186	0.000158
C47	C	0.881399	0.460519	0.333491
C48	C	1.214732	0.793852	0.666824
C49	C	0.631202	0.128813	0.000143
C50	C	0.964535	0.462146	0.333476
C51	C	1.297869	0.795479	0.666809
C52	C	0.735517	0.130846	0.000127
C53	C	1.068850	0.464179	0.333461
C54	C	1.402183	0.797512	0.666794
C55	C	1.092457	-0.226115	0.000166
C56	C	1.425790	0.107218	0.333499
C57	C	1.759123	0.440552	0.666832
C58	C	1.090430	-0.330424	0.000155
C59	C	1.423763	0.002910	0.333488
C60	C	1.757097	0.336243	0.666821
C61	C	1.088822	-0.413563	0.000146
C62	C	1.422155	-0.080229	0.333479
C63	C	1.755488	0.253104	0.666812
C64	C	1.086795	-0.517878	0.000137
C65	C	1.420129	-0.184545	0.333471
C66	C	1.753462	0.148789	0.666804
C67	C	1.258230	0.121551	0.000178
C68	C	1.591564	0.454885	0.333512
C69	C	1.924897	0.788218	0.666845
C70	C	1.360612	0.123539	0.000185
C71	C	1.693945	0.456873	0.333518
C72	C	2.027279	0.790206	0.666852
C73	C	1.083191	0.296603	0.000138
C74	C	1.416524	0.629936	0.333471
C75	C	1.749858	0.963269	0.666805
C76	C	1.085187	0.398983	0.000128
C77	C	1.418520	0.732316	0.333462
C78	C	1.751854	1.065649	0.666795
N79	N	1.089625	0.128000	0.356273
N80	N	1.422959	0.461333	0.689606
N81	N	1.756292	0.794666	1.022940
N82	N	1.089647	0.128005	-0.355964
N83	N	1.422981	0.461339	-0.022630
N84	N	1.756314	0.794672	0.310703
C85	C	1.152234	0.065434	0.428214
C86	C	1.485568	0.398767	0.761548
C87	C	1.818901	0.732100	1.094881
C88	C	1.152244	0.065434	0.572097
C89	C	1.485577	0.398767	0.905431
C90	C	1.818910	0.732101	1.238764
C91	C	1.027032	0.190574	0.572085
C92	C	1.360365	0.523907	0.905418
C93	C	1.693698	0.857241	1.238752
C94	C	1.027019	0.190569	0.428205
C95	C	1.360352	0.523902	0.761538
C96	C	1.693685	0.857235	1.094871
H97	H	1.203211	0.014485	0.369651
H98	H	1.536545	0.347818	0.702984
H99	H	1.869878	0.681151	1.036318
H100	H	1.203225	0.014486	0.630668
H101	H	1.536558	0.347819	0.964001
H102	H	1.869891	0.681153	1.297335
C103	C	0.958182	0.259442	0.349064
C104	C	1.291516	0.592775	0.682398
C105	C	1.624849	0.926108	1.015731
N106	N	0.906351	0.311329	0.289456
N107	N	1.239684	0.644662	0.622789
N108	N	1.573017	0.977995	0.956123
C109	C	0.958166	0.259395	0.651223
C110	C	1.291500	0.592728	0.984556
C111	C	1.624833	0.926061	1.317890
N112	N	0.906295	0.311231	0.710829
N113	N	1.239628	0.644565	1.044162
N114	N	1.572962	0.977898	1.377495
