data_functionalizedCrystal
_audit_creation_method	'MofGen! by Chris Wilmer'
_symmetry_space_group_name_H-M	'P1'
_symmetry_Int_Tables_number	1
_symmetry_cell_setting	triclinic
loop_
_symmetry_equiv_pos_as_xyz
  x,y,z
_cell_length_a	12.645331
_cell_length_b	12.645330
_cell_length_c	21.395355
_cell_angle_alpha	89.985534
_cell_angle_beta	89.979929
_cell_angle_gamma	90.013057
loop_
_atom_site_label
_atom_site_type_symbol
_atom_site_fract_x
_atom_site_fract_y
_atom_site_fract_z
Zn1	Zn	1.620790	-0.422151	-0.354204
Zn2	Zn	1.620681	-0.599400	-0.249434
Zn3	Zn	1.443498	-0.422152	-0.249449
Zn4	Zn	1.443502	-0.599374	-0.354182
O5	O	1.532118	-0.510769	-0.301817
O6	O	1.769123	-0.445673	-0.340309
O7	O	1.597130	-0.575899	-0.161758
O8	O	1.467060	-0.273805	-0.263360
O9	O	1.769043	-0.575897	-0.263335
O10	O	1.597316	-0.273803	-0.340324
O11	O	1.466955	-0.445676	-0.161769
O12	O	1.295151	-0.445651	-0.263339
O13	O	1.467067	-0.575853	-0.441863
O14	O	1.295154	-0.575855	-0.340287
O15	O	1.597319	-0.445648	-0.441879
O16	O	1.597134	-0.747743	-0.263314
O17	O	1.466961	-0.747724	-0.340272
C18	C	1.256688	-0.510751	-0.301813
C19	C	1.138858	-0.510768	-0.301825
C20	C	1.094013	-0.592819	-0.350162
C21	C	0.971453	-0.593156	-0.350018
C22	C	0.970903	-0.540582	-0.235714
C23	C	1.093501	-0.541162	-0.235994
C24	C	1.093703	-0.398729	-0.319022
C25	C	0.971098	-0.399349	-0.320478
C26	C	1.532065	-0.786199	-0.301803
C27	C	1.532139	-0.904029	-0.301817
C28	C	1.613899	-1.071561	-0.253305
C29	C	1.614165	-0.949000	-0.253423
C30	C	1.562443	-0.948435	-0.367861
C31	C	1.563092	-1.071033	-0.367603
C32	C	1.420043	-1.071351	-0.284938
C33	C	1.420580	-0.948746	-0.283456
C34	C	1.808623	-0.510788	-0.301823
C35	C	1.926453	-0.510796	-0.301825
C36	C	1.532206	-0.510748	-0.465241
C37	C	1.532243	-0.510738	-0.534882
C38	C	1.532200	-0.234264	-0.301846
C39	C	1.532235	-0.116434	-0.301858
C40	C	1.600063	-0.442938	-0.567604
C41	C	1.600061	-0.442892	-0.633040
C42	C	1.532251	-0.510666	-0.665750
C43	C	1.464419	-0.578472	-0.633020
C44	C	1.464414	-0.578508	-0.567586
C45	C	1.523862	-0.606119	-0.769420
C46	C	1.523874	-0.606084	-0.834853
C47	C	1.532258	-0.510554	-0.867571
C48	C	1.540653	-0.415055	-0.834848
C49	C	1.540648	-0.415092	-0.769414
C50	C	1.532248	-0.510634	-0.736703
C51	C	1.600080	-0.442698	-0.971246
C52	C	1.600071	-0.442651	-1.036683
C53	C	1.464433	-0.578240	-1.036662
C54	C	1.464437	-0.578278	-0.971227
C55	C	1.532266	-0.510508	-0.938523
C56	C	1.532091	-0.510714	-0.139030
C57	C	1.532259	-0.510424	-0.069389
H58	H	1.123533	-0.574455	-0.399327
Cl59	Cl	1.379176	-0.663433	-1.077778
Cl60	Cl	1.685327	-0.357736	-0.526494
Cl61	Cl	1.379177	-0.663522	-0.930087
H62	H	1.516752	-0.683891	-0.742787
Cl63	Cl	1.741509	-1.119004	-0.270389
H64	H	1.122704	-0.337603	-0.283820
H65	H	1.397730	-0.919731	-0.234854
H66	H	1.595204	-0.918979	-0.204453
Cl67	Cl	1.473401	-0.903474	-0.425211
Cl68	Cl	1.685342	-0.357499	-0.930130
Cl69	Cl	1.585001	-1.117166	-0.177475
H70	H	1.697262	-0.919596	-0.264615
H71	H	1.645099	-1.099550	-0.381936
Cl72	Cl	1.379149	-0.663751	-0.526447
Cl73	Cl	1.475238	-1.116865	-0.425354
Cl74	Cl	1.685355	-0.357424	-1.077820
Cl75	Cl	1.687627	-0.900914	-0.390361
H76	H	1.359196	-1.100372	-0.320301
Cl77	Cl	1.513331	-0.726138	-0.875984
H78	H	1.409204	-0.633650	-0.659657
H79	H	1.655286	-0.387675	-0.659688
H80	H	0.941402	-0.574578	-0.399031
H81	H	1.547481	-0.337266	-0.861486
Cl82	Cl	1.321565	-0.901503	-0.334053
Cl83	Cl	1.141542	-0.720273	-0.332765
Cl84	Cl	1.377496	-1.119199	-0.211880
H85	H	0.942102	-0.676186	-0.338609
H86	H	1.547481	-0.337333	-0.742774
H87	H	1.122072	-0.623046	-0.221459
H88	H	0.941753	-0.482654	-0.198710
H89	H	1.123165	-0.483952	-0.198744
H90	H	1.124659	-0.371508	-0.366418
Cl91	Cl	0.926252	-0.364651	-0.395596
Cl92	Cl	0.923796	-0.299981	-0.270134
Cl93	Cl	0.923466	-0.665627	-0.212886
