data_functionalizedCrystal
_audit_creation_method	'MofGen! by Chris Wilmer'
_symmetry_space_group_name_H-M	'P1'
_symmetry_Int_Tables_number	1
_symmetry_cell_setting	triclinic
loop_
_symmetry_equiv_pos_as_xyz
  x,y,z
_cell_length_a	14.044220
_cell_length_b	14.044220
_cell_length_c	13.101039
_cell_angle_alpha	86.332523
_cell_angle_beta	93.659868
_cell_angle_gamma	93.188878
loop_
_atom_site_label
_atom_site_type_symbol
_atom_site_fract_x
_atom_site_fract_y
_atom_site_fract_z
O1	O	1.281968	0.225348	0.085109
O2	O	1.615302	0.558682	0.418442
O3	O	1.948635	0.892015	0.751776
O4	O	1.005298	0.217041	0.085135
O5	O	1.338632	0.550374	0.418468
O6	O	1.671965	0.883708	0.751802
O7	O	1.139480	0.082860	0.085112
O8	O	1.472813	0.416193	0.418446
O9	O	1.806147	0.749526	0.751779
O10	O	1.147787	0.359530	0.085132
O11	O	1.481120	0.692863	0.418465
O12	O	1.814454	1.026197	0.751798
O13	O	1.129854	0.092504	-0.085316
O14	O	1.463188	0.425838	0.248017
O15	O	1.796521	0.759171	0.581351
O16	O	0.995673	0.226686	-0.085293
O17	O	1.329006	0.560019	0.248040
O18	O	1.662339	0.893353	0.581373
O19	O	1.272343	0.234993	-0.085319
O20	O	1.605676	0.568326	0.248014
O21	O	1.939009	0.901660	0.581348
Zn22	Zn	1.132479	0.232371	-0.112365
Zn23	Zn	1.465813	0.565704	0.220968
Zn24	Zn	1.799146	0.899037	0.554301
Zn25	Zn	1.145162	0.219663	0.112181
Zn26	Zn	1.478495	0.552997	0.445515
Zn27	Zn	1.811828	0.886330	0.778848
O28	O	1.138161	0.369175	-0.085296
O29	O	1.471494	0.702508	0.248037
O30	O	1.804828	1.035841	0.581370
C31	C	0.964864	0.218228	-0.000076
C32	C	1.298197	0.551561	0.333257
C33	C	1.631531	0.884894	0.666591
C34	C	0.858722	0.207383	-0.000066
C35	C	1.192055	0.540716	0.333267
C36	C	1.525388	0.874049	0.666600
C37	C	0.664383	0.187558	-0.000088
C38	C	0.997716	0.520891	0.333245
C39	C	1.331049	0.854224	0.666579
C40	C	0.613253	0.264472	-0.000087
C41	C	0.946586	0.597805	0.333246
C42	C	1.279920	0.931139	0.666580
C43	C	0.505116	0.253441	-0.000099
C44	C	0.838449	0.586774	0.333234
C45	C	1.171783	0.920108	0.666568
C46	C	0.772529	0.198587	-0.000076
C47	C	1.105863	0.531920	0.333257
C48	C	1.439196	0.865254	0.666591
C49	C	1.131031	0.052060	-0.000102
C50	C	1.464365	0.385393	0.333231
C51	C	1.797698	0.718727	0.666565
C52	C	1.120187	-0.054083	-0.000102
C53	C	1.453520	0.279251	0.333231
C54	C	1.786854	0.612584	0.666565
C55	C	1.100362	-0.248421	-0.000086
C56	C	1.433695	0.084912	0.333248
C57	C	1.767028	0.418245	0.666581
C58	C	1.177276	-0.299551	-0.000090
C59	C	1.510609	0.033782	0.333244
C60	C	1.843942	0.367116	0.666577
C61	C	1.166245	-0.407688	-0.000080
C62	C	1.499578	-0.074354	0.333253
C63	C	1.832911	0.258979	0.666586
C64	C	1.111391	-0.140275	-0.000095
C65	C	1.444725	0.193059	0.333239
C66	C	1.778058	0.526392	0.666572
C67	C	1.312777	0.233806	-0.000106
C68	C	1.646111	0.567140	0.333227
C69	C	1.979444	0.900473	0.666561
C70	C	1.418920	0.244651	-0.000109
C71	C	1.752253	0.577984	0.333225
C72	C	2.085587	0.911318	0.666558
C73	C	1.146610	0.399974	-0.000080
C74	C	1.479943	0.733307	0.333253
C75	C	1.813276	1.066641	0.666587
C76	C	1.157455	0.506116	-0.000073
C77	C	1.490788	0.839450	0.333260
C78	C	1.824121	1.172783	0.666594
N79	N	1.123831	0.241043	-0.265612
N80	N	1.457164	0.574377	0.067721
N81	N	1.790497	0.907710	0.401054
C82	C	1.112065	0.252851	-0.474653
C83	C	1.445398	0.586185	-0.141320
C84	C	1.778731	0.919518	0.192014
C85	C	1.165580	0.199179	-0.525538
C86	C	1.498914	0.532512	-0.192204
C87	C	1.832247	0.865846	0.141129
C88	C	1.159034	0.205749	-0.641855
C89	C	1.492367	0.539082	-0.308522
C90	C	1.825700	0.872416	0.024812
C91	C	1.118610	0.246282	-0.358325
C92	C	1.451944	0.579616	-0.024992
C93	C	1.785277	0.912949	0.308342
N94	N	1.153817	0.210984	0.265428
N95	N	1.487151	0.544317	0.598762
N96	N	1.820484	0.877651	0.932095
H97	H	0.626945	0.113431	-0.000099
H98	H	0.960278	0.446764	0.333234
H99	H	1.293612	0.780097	0.666568
N100	N	1.002165	-0.297998	-0.000081
N101	N	1.335498	0.035335	0.333252
N102	N	1.668832	0.368668	0.666585
H103	H	0.997731	-0.342777	0.063097
H104	H	1.331064	-0.009444	0.396430
H105	H	1.664398	0.323890	0.729764
H106	H	0.990667	-0.335581	-0.063301
H107	H	1.324000	-0.002248	0.270033
H108	H	1.657334	0.331086	0.603366
H109	H	1.061336	0.303733	-0.518442
H110	H	1.394669	0.637066	-0.185108
H111	H	1.728002	0.970400	0.148225
H112	H	1.216314	0.148295	-0.481744
H113	H	1.549647	0.481628	-0.148411
H114	H	1.882981	0.814962	0.184923
H115	H	1.251413	-0.262115	-0.000028
H116	H	1.584746	0.071218	0.333306
H117	H	1.918079	0.404551	0.666639
H118	H	0.650693	0.338605	-0.000077
H119	H	0.984026	0.671938	0.333256
H120	H	1.317359	1.005271	0.666590
