data_functionalizedCrystal
_audit_creation_method	'MofGen! by Chris Wilmer'
_symmetry_space_group_name_H-M	'P1'
_symmetry_Int_Tables_number	1
_symmetry_cell_setting	triclinic
loop_
_symmetry_equiv_pos_as_xyz
  x,y,z
_cell_length_a	17.638574
_cell_length_b	17.638032
_cell_length_c	17.640968
_cell_angle_alpha	70.335276
_cell_angle_beta	65.686938
_cell_angle_gamma	87.824201
loop_
_atom_site_label
_atom_site_type_symbol
_atom_site_fract_x
_atom_site_fract_y
_atom_site_fract_z
Zn1	Zn	-1.241787	0.443415	0.607915
Zn2	Zn	-1.174691	0.597837	0.430929
Zn3	Zn	-1.076117	0.443369	0.442305
Zn4	Zn	-1.076088	0.553290	0.552180
O5	O	-1.142171	0.509478	0.508332
O6	O	-1.343486	0.482562	0.603001
O7	O	-1.133547	0.595970	0.312385
O8	O	-1.126185	0.332747	0.492360
O9	O	-1.294191	0.596015	0.472970
O10	O	-1.247903	0.332781	0.614033
O11	O	-1.061125	0.482483	0.320744
O12	O	-0.965514	0.439288	0.438316
O13	O	-1.126137	0.520091	0.679625
O14	O	-0.965493	0.520046	0.519040
O15	O	-1.247875	0.439366	0.720574
O16	O	-1.133520	0.702555	0.418927
O17	O	-1.061076	0.669827	0.508009
C18	C	-0.936826	0.474828	0.473865
C19	C	-0.848978	0.460021	0.459135
C20	C	-0.725188	0.397014	0.396450
C21	C	-0.807735	0.410932	0.410296
C22	C	-0.807684	0.495215	0.494144
C23	C	-0.725135	0.481307	0.480302
C24	C	-0.683894	0.432205	0.431455
C25	C	-0.683840	0.516498	0.515307
C26	C	-0.601299	0.502587	0.501469
C27	C	-0.560053	0.453486	0.452626
C28	C	-0.601353	0.418295	0.417617
C29	C	-0.725084	0.565595	0.564159
C30	C	-0.683789	0.600786	0.599164
C31	C	-0.601245	0.586880	0.585321
C32	C	-0.559999	0.537779	0.536478
C33	C	-0.559946	0.622071	0.620330
C34	C	-0.477405	0.608161	0.606493
C35	C	-0.477459	0.523868	0.522641
C36	C	-1.090040	0.714876	0.456208
C37	C	-1.067817	0.802755	0.433950
C38	C	-0.348317	0.544256	0.542926
C39	C	-0.436164	0.559059	0.557646
C40	C	-1.311446	1.091490	0.677735
C41	C	-1.290536	1.174063	0.656801
C42	C	-1.163834	1.174163	0.530008
C43	C	-1.184736	1.091589	0.550929
C44	C	-1.258543	1.050259	0.624794
C45	C	-1.131832	1.050358	0.497989
C46	C	-1.152731	0.967791	0.518911
C47	C	-1.226533	0.926454	0.592774
C48	C	-1.279441	0.967692	0.645717
C49	C	-1.058023	1.091688	0.424128
C50	C	-1.005119	1.050457	0.371187
C51	C	-1.026020	0.967890	0.392105
C52	C	-1.099822	0.926553	0.465968
C53	C	-0.973112	0.926652	0.339162
C54	C	-0.994010	0.844085	0.360085
C55	C	-1.120721	0.843986	0.486890
C56	C	-1.194506	1.303274	0.560673
C57	C	-1.216744	1.215394	0.582954
C58	C	-1.194487	0.474765	0.732098
C59	C	-1.216781	0.459972	0.827454
C60	C	-1.090118	0.544006	0.285459
C61	C	-1.068034	0.558602	0.190185
C62	C	-0.973218	0.621477	1.034473
C63	C	-0.994186	0.607569	1.124079
C64	C	-1.120941	0.523519	1.166705
C65	C	-1.099982	0.537415	1.077100
C66	C	-1.026120	0.586396	1.010990
C67	C	-1.152884	0.502335	1.053618
C68	C	-1.131928	0.516234	0.964021
C69	C	-1.058071	0.565214	0.897906
C70	C	-1.005164	0.600295	0.921393
C71	C	-1.226749	0.453359	1.119729
C72	C	-1.279651	0.418279	1.096246
C73	C	-1.258692	0.432173	1.006648
C74	C	-1.184835	0.481153	0.940533
C75	C	-1.311599	0.397092	0.983161
C76	C	-1.290643	0.410992	0.893564
C77	C	-1.163879	0.495053	0.850936
H78	H	-0.792297	0.576913	0.575431
H79	H	-1.371552	1.057840	0.737878
H80	H	-1.243547	0.859222	0.609807
F81	F	-1.346949	0.373657	0.868570
H82	H	-0.492845	0.442157	0.441365
H83	H	-1.333614	1.207627	0.699928
F84	F	-1.358001	0.923703	0.724325
H85	H	-1.103719	0.534915	0.797106
F86	F	-0.433455	0.645612	0.643752
F87	F	-0.557451	0.366046	0.365614
F88	F	-0.727688	0.653046	0.651144
F89	F	-0.894557	0.970646	0.260562
F90	F	-1.199281	0.799997	0.565499
F91	F	-0.603849	0.674324	0.672318
F92	F	-0.894600	0.673600	0.964108
F93	F	-0.926567	1.094451	0.292582
F94	F	-1.358259	0.366154	1.166612
H95	H	-1.041005	1.158918	0.407102
F96	F	-0.433557	0.471620	0.470638
F97	F	-0.681287	0.344766	0.344447
H98	H	-1.103739	1.207825	0.469869
F99	F	-0.937706	0.800202	0.303737
F100	F	-0.937873	0.644909	1.149065
H101	H	-0.841274	0.535191	0.533918
H102	H	-1.041013	0.576534	0.824951
F103	F	-0.926547	0.652419	0.851029
H104	H	-1.371741	0.357219	1.036999
H105	H	-1.181082	0.483641	1.220542
H106	H	-0.841357	0.382264	0.381797
H107	H	-1.243810	0.442046	1.192683
