data_functionalizedCrystal
_audit_creation_method	'MofGen! by Chris Wilmer'
_symmetry_space_group_name_H-M	'P1'
_symmetry_Int_Tables_number	1
_symmetry_cell_setting	triclinic
loop_
_symmetry_equiv_pos_as_xyz
  x,y,z
_cell_length_a	16.974800
_cell_length_b	14.044220
_cell_length_c	15.455301
_cell_angle_alpha	92.764001
_cell_angle_beta	89.350429
_cell_angle_gamma	88.279480
loop_
_atom_site_label
_atom_site_type_symbol
_atom_site_fract_x
_atom_site_fract_y
_atom_site_fract_z
O1	O	1.057565	0.120622	-0.002133
O2	O	0.829189	0.136846	0.013907
O3	O	0.939949	-0.009234	0.006119
O4	O	0.946805	0.266702	0.005655
O5	O	0.933259	-0.016611	-0.137674
O6	O	0.822499	0.129469	-0.129886
O7	O	1.050875	0.113245	-0.145926
Cu8	Cu	0.936076	0.120683	-0.151035
Cu9	Cu	0.943988	0.129408	0.019017
O10	O	0.940115	0.259325	-0.138138
C11	C	0.796441	0.132680	-0.055925
C12	C	0.708826	0.131246	-0.049771
C13	C	0.664023	0.126548	-0.125264
C14	C	0.581700	0.125186	-0.119485
C15	C	0.544182	0.128527	-0.038212
C16	C	0.588992	0.133222	0.037286
C17	C	0.671313	0.134578	0.031506
C18	C	0.298369	0.124897	-0.012521
C19	C	0.216042	0.123543	-0.006747
C20	C	0.208756	0.115505	-0.163519
C21	C	0.291079	0.116867	-0.169292
C22	C	0.335881	0.121557	-0.093793
N23	N	0.460035	0.127137	-0.032303
N24	N	0.420027	0.122940	-0.099703
C25	C	0.933603	-0.048222	-0.065567
C26	C	0.924651	-0.153403	-0.064939
C27	C	0.908286	-0.345983	-0.063777
C28	C	0.971775	-0.403931	-0.068234
C29	C	0.962669	-0.511089	-0.067587
C30	C	0.917391	-0.238815	-0.064424
C31	C	1.083624	0.117411	-0.076092
C32	C	1.171238	0.118846	-0.082240
C33	C	0.946462	0.298313	-0.066450
C34	C	0.955413	0.403495	-0.067072
N35	N	0.930517	0.114547	-0.270641
C36	C	0.980252	0.169493	-0.319521
C37	C	0.976058	0.164846	-0.410035
C38	C	0.922125	0.105257	-0.451667
C39	C	0.872389	0.050304	-0.402781
C40	C	0.876587	0.054946	-0.312269
C41	C	0.904015	0.085227	-0.721979
C42	C	0.899818	0.080590	-0.812498
C43	C	1.003489	0.195132	-0.819746
C44	C	1.007679	0.199774	-0.729232
C45	C	0.957945	0.144817	-0.680353
N46	N	0.917835	0.100508	-0.544187
N47	N	0.962240	0.149561	-0.587836
N48	N	0.949553	0.135537	0.138622
H49	H	0.707792	0.138405	0.092981
H50	H	1.032970	-0.373062	-0.072473
N51	N	0.827233	-0.386859	-0.058083
H52	H	0.832137	-0.458725	-0.058426
H53	H	0.795196	-0.367295	-0.109318
H54	H	1.024165	0.218023	-0.285631
N55	N	0.175573	0.127155	0.080916
H56	H	0.216446	0.130332	0.127867
H57	H	0.143834	0.068037	0.086563
H58	H	1.016558	0.209588	-0.449830
N59	N	0.841645	0.016325	-0.857415
H60	H	0.786352	0.036068	-0.837736
H61	H	0.853140	-0.051860	-0.842418
H62	H	1.051598	0.248295	-0.695342
H63	H	1.043979	0.239874	-0.859552
N64	N	0.850376	0.025954	-0.669267
H65	H	0.815573	-0.012495	-0.709378
H66	H	0.816496	0.069355	-0.629212
N67	N	0.814213	-0.013966	-0.447675
H68	H	0.825645	-0.082168	-0.432680
H69	H	0.819122	-0.008490	-0.512418
N70	N	0.822950	-0.004322	-0.259544
H71	H	0.788146	-0.042776	-0.299651
H72	H	0.789070	0.039080	-0.219489
H73	H	0.334838	0.128712	0.048955
N74	N	0.548522	0.136828	0.124942
H75	H	0.562180	0.197554	0.158368
H76	H	0.566718	0.080045	0.157973
N77	N	0.704483	0.122939	-0.212925
H78	H	0.763432	0.124513	-0.205135
H79	H	0.686236	0.179680	-0.245982
N80	N	0.533373	0.120116	-0.200908
H81	H	0.569653	0.117537	-0.253272
H82	H	0.497185	0.178438	-0.202051
H83	H	0.172269	0.111685	-0.224985
N84	N	0.331542	0.113273	-0.256950
H85	H	0.290667	0.110093	-0.303899
H86	H	0.367806	0.054929	-0.262931
