data_functionalizedCrystal
_audit_creation_method	'MofGen! by Chris Wilmer'
_symmetry_space_group_name_H-M	'P1'
_symmetry_Int_Tables_number	1
_symmetry_cell_setting	triclinic
loop_
_symmetry_equiv_pos_as_xyz
  x,y,z
_cell_length_a	15.455313
_cell_length_b	16.992694
_cell_length_c	16.992695
_cell_angle_alpha	90.668223
_cell_angle_beta	92.847427
_cell_angle_gamma	87.142206
loop_
_atom_site_label
_atom_site_type_symbol
_atom_site_fract_x
_atom_site_fract_y
_atom_site_fract_z
O1	O	0.072023	-1.054080	-0.163694
O2	O	0.405356	-0.720747	0.169639
O3	O	0.738689	-0.387414	0.502972
O4	O	0.072048	-0.825681	-0.161862
O5	O	0.405381	-0.492348	0.171471
O6	O	0.738715	-0.159015	0.504805
O7	O	0.072029	-0.938965	-0.048579
O8	O	0.405362	-0.605632	0.284755
O9	O	0.738695	-0.272298	0.618088
O10	O	0.072042	-0.940797	-0.276978
O11	O	0.405375	-0.607463	0.056355
O12	O	0.738709	-0.274130	0.389689
O13	O	-0.072232	-0.932485	-0.055028
O14	O	0.261101	-0.599152	0.278305
O15	O	0.594434	-0.265818	0.611639
O16	O	-0.072213	-0.819202	-0.168312
O17	O	0.261120	-0.485868	0.165022
O18	O	0.594454	-0.152535	0.498355
O19	O	-0.072238	-1.047601	-0.170144
O20	O	0.261095	-0.714267	0.163189
O21	O	0.594428	-0.380934	0.496523
Cu22	Cu	-0.085398	-0.932809	-0.169817
Cu23	Cu	0.247935	-0.599476	0.163517
Cu24	Cu	0.581269	-0.266143	0.496850
Cu25	Cu	0.085207	-0.940473	-0.162189
Cu26	Cu	0.418541	-0.607139	0.171144
Cu27	Cu	0.751874	-0.273806	0.504477
O28	O	-0.072219	-0.934317	-0.283428
O29	O	0.261114	-0.600984	0.049906
O30	O	0.594448	-0.267650	0.383239
C31	C	-0.000079	-0.793081	-0.162731
C32	C	0.333254	-0.459748	0.170602
C33	C	0.666587	-0.126415	0.503936
C34	C	-0.000070	-0.705597	-0.155702
C35	C	0.333264	-0.372264	0.177632
C36	C	0.666597	-0.038931	0.510965
N37	N	-0.205392	-0.927425	-0.175181
N38	N	0.127941	-0.594092	0.158152
N39	N	0.461274	-0.260759	0.491485
C40	C	-0.250795	-0.975571	-0.127074
C41	C	0.082538	-0.642238	0.206259
C42	C	0.415872	-0.308904	0.539592
C43	C	-0.341602	-0.971507	-0.131139
C44	C	-0.008269	-0.638174	0.202194
C45	C	0.325065	-0.304840	0.535527
C46	C	-0.387005	-0.919301	-0.183315
C47	C	-0.053672	-0.585967	0.150018
C48	C	0.279661	-0.252634	0.483351
C49	C	-0.341596	-0.871149	-0.231424
C50	C	-0.008263	-0.537816	0.101909
C51	C	0.325070	-0.204483	0.435243
C52	C	-0.250791	-0.875210	-0.227355
C53	C	0.082542	-0.541877	0.105979
C54	C	0.415876	-0.208543	0.439312
C55	C	-0.658584	-0.901772	-0.200858
C56	C	-0.325250	-0.568439	0.132475
C57	C	0.008083	-0.235105	0.465808
C58	C	-0.749395	-0.897717	-0.204926
C59	C	-0.416062	-0.564383	0.128408
C60	C	-0.082729	-0.231050	0.461741
C61	C	-0.749395	-0.998074	-0.104639
C62	C	-0.416062	-0.664740	0.228694
C63	C	-0.082728	-0.331407	0.562027
C64	C	-0.658588	-1.002133	-0.100578
C65	C	-0.325254	-0.668800	0.232755
C66	C	0.008079	-0.335466	0.566089
C67	C	-0.613187	-0.953979	-0.148684
C68	C	-0.279853	-0.620646	0.184649
C69	C	0.053480	-0.287312	0.517983
N70	N	-0.479825	-0.915147	-0.187473
N71	N	-0.146491	-0.581814	0.145860
N72	N	0.186842	-0.248480	0.479194
N73	N	-0.520369	-0.958129	-0.144522
N74	N	-0.187036	-0.624796	0.188812
N75	N	0.146298	-0.291463	0.522145
C76	C	-0.000102	-0.933369	-0.022443
C77	C	0.333232	-0.600036	0.310890
C78	C	0.666565	-0.266703	0.644224
C79	C	-0.000101	-0.926341	0.065041
C80	C	0.333233	-0.593007	0.398375
C81	C	0.666566	-0.259674	0.731708
N82	N	0.205202	-0.945863	-0.156819
N83	N	0.538535	-0.612529	0.176514
N84	N	0.871869	-0.279196	0.509848
C85	C	-0.000109	-1.080201	-0.169275
C86	C	0.333224	-0.746867	0.164058
C87	C	0.666557	-0.413534	0.497392
C88	C	-0.000113	-1.167685	-0.176304
C89	C	0.333220	-0.834352	0.157029
C90	C	0.666554	-0.501018	0.490363
C91	C	-0.000066	-0.659607	-0.223520
C92	C	0.333267	-0.326273	0.109814
C93	C	0.666600	0.007060	0.443147
C94	C	-0.000079	-0.577405	-0.216911
C95	C	0.333255	-0.244072	0.116422
C96	C	0.666588	0.089261	0.449755
C97	C	-0.000088	-0.541197	-0.142484
C98	C	0.333245	-0.207863	0.190849
C99	C	0.666579	0.125470	0.524183
C100	C	-0.000094	-0.587193	-0.074661
C101	C	0.333239	-0.253860	0.258672
C102	C	0.666573	0.079473	0.592005
C103	C	-0.000088	-0.669393	-0.081271
C104	C	0.333245	-0.336059	0.252063
C105	C	0.666579	-0.002726	0.585396
C106	C	-0.000113	-0.295881	-0.115091
C107	C	0.333220	0.037452	0.218243
C108	C	0.666554	0.370786	0.551576
C109	C	-0.000116	-0.213676	-0.108486
C110	C	0.333217	0.119658	0.224847
C111	C	0.666550	0.452991	0.558181
C112	C	-0.000103	-0.203893	-0.250737
C113	C	0.333231	0.129440	0.082596
C114	C	0.666564	0.462773	0.415930
C115	C	-0.000091	-0.286095	-0.257340
C116	C	0.333242	0.047238	0.075994
C117	C	0.666575	0.380572	0.409327
C118	C	-0.000102	-0.332084	-0.189517
C119	C	0.333232	0.001249	0.143816
C120	C	0.666565	0.334582	0.477150
N121	N	-0.000098	-0.457174	-0.135727
N122	N	0.333235	-0.123841	0.197606
N123	N	0.666569	0.209493	0.530939
N124	N	-0.000098	-0.416105	-0.196275
N125	N	0.333235	-0.082772	0.137059
N126	N	0.666569	0.250562	0.470392
C127	C	-0.000087	-0.939913	-0.309563
C128	C	0.333246	-0.606579	0.023770
C129	C	0.666580	-0.273246	0.357104
C130	C	-0.000082	-0.946942	-0.397047
C131	C	0.333251	-0.613608	-0.063714
C132	C	0.666584	-0.280275	0.269619
C133	C	-0.000109	-0.994158	0.111032
C134	C	0.333224	-0.660825	0.444365
C135	C	0.666558	-0.327492	0.777699
C136	C	-0.000100	-0.987550	0.193233
C137	C	0.333233	-0.654216	0.526566
C138	C	0.666567	-0.320883	0.859900
C139	C	-0.000089	-0.913123	0.229442
C140	C	0.333244	-0.579789	0.562775
C141	C	0.666578	-0.246456	0.896109
C142	C	-0.000078	-0.845300	0.183445
C143	C	0.333256	-0.511967	0.516779
C144	C	0.666589	-0.178633	0.850112
C145	C	-0.000081	-0.851910	0.101246
C146	C	0.333253	-0.518576	0.434579
C147	C	0.666586	-0.185243	0.767913
C148	C	-0.000074	-0.885729	0.474757
C149	C	0.333259	-0.552395	0.808090
C150	C	0.666593	-0.219062	1.141424
C151	C	-0.000074	-0.879124	0.556962
C152	C	0.333260	-0.545791	0.890296
C153	C	0.666593	-0.212457	1.223629
C154	C	-0.000094	-1.021375	0.566744
C155	C	0.333239	-0.688041	0.900078
C156	C	0.666572	-0.354708	1.233411
C157	C	-0.000102	-1.027977	0.484543
C158	C	0.333231	-0.694644	0.817876
C159	C	0.666564	-0.361311	1.151209
C160	C	-0.000087	-0.960155	0.438554
C161	C	0.333247	-0.626822	0.771887
C162	C	0.666580	-0.293488	1.105220
N163	N	-0.000082	-0.906366	0.313464
N164	N	0.333251	-0.573032	0.646798
N165	N	0.666584	-0.239699	0.980131
N166	N	-0.000087	-0.966913	0.354533
N167	N	0.333246	-0.633580	0.687866
N168	N	0.666580	-0.300246	1.021200
H169	H	-0.213834	-1.018087	-0.084591
H170	H	0.119500	-0.684753	0.248743
H171	H	0.452833	-0.351420	0.582076
H172	H	-0.000096	-0.166440	-0.305954
H173	H	0.333237	0.166893	0.027379
H174	H	0.666571	0.500227	0.360713
H175	H	-0.000123	-0.184198	-0.047876
H176	H	0.333210	0.149136	0.285458
H177	H	0.666543	0.482469	0.618791
H178	H	-0.000090	-0.706838	-0.026046
H179	H	0.333243	-0.373505	0.307287
H180	H	0.666577	-0.040171	0.640621
H181	H	-0.000114	-0.557705	-0.014061
H182	H	0.333219	-0.224372	0.319272
H183	H	0.666552	0.108962	0.652605
H184	H	-0.621622	-1.044644	-0.058092
H185	H	-0.288289	-0.711310	0.275241
H186	H	0.045044	-0.377977	0.608574
H187	H	-0.000124	-1.054764	0.081557
H188	H	0.333210	-0.721431	0.414890
H189	H	0.666543	-0.388098	0.748224
Cl190	Cl	-0.806474	-1.058604	-0.044164
Cl191	Cl	-0.473141	-0.725270	0.289169
Cl192	Cl	-0.139807	-0.391937	0.622503
Cl193	Cl	-0.806468	-0.832080	-0.270526
Cl194	Cl	-0.473134	-0.498747	0.062807
Cl195	Cl	-0.139801	-0.165414	0.396140
Cl196	Cl	-0.000069	-0.519592	-0.302172
Cl197	Cl	0.333264	-0.186258	0.031161
Cl198	Cl	0.666598	0.147075	0.364494
H199	H	-0.000112	-1.088584	0.455068
H200	H	0.333222	-0.755250	0.788401
H201	H	0.666555	-0.421917	1.121734
Cl202	Cl	-0.000125	-0.353686	-0.029827
Cl203	Cl	0.333208	-0.020352	0.303507
Cl204	Cl	0.666541	0.312981	0.636840
H205	H	-0.000109	-1.042774	0.230675
H206	H	0.333224	-0.709441	0.564009
H207	H	0.666558	-0.376107	0.897342
Cl208	Cl	-0.000111	-1.106631	0.624563
Cl209	Cl	0.333222	-0.773298	0.957897
Cl210	Cl	0.666555	-0.439965	1.291230
H211	H	-0.000079	-0.818513	0.586440
H212	H	0.333255	-0.485180	0.919773
H213	H	0.666588	-0.151846	1.253106
Cl214	Cl	-0.000052	-0.800465	0.416953
Cl215	Cl	0.333281	-0.467132	0.750286
Cl216	Cl	0.666615	-0.133799	1.083620
H217	H	-0.000074	-0.315570	-0.317946
H218	H	0.333260	0.017763	0.015388
H219	H	0.666593	0.351096	0.348721
Cl220	Cl	-0.601514	-0.841240	-0.261336
Cl221	Cl	-0.268181	-0.507907	0.071997
Cl222	Cl	0.065152	-0.174574	0.405331
Cl223	Cl	-0.000067	-0.766649	0.043429
Cl224	Cl	0.333267	-0.433316	0.376762
Cl225	Cl	0.666600	-0.099983	0.710096
H226	H	-0.000063	-0.784700	0.212933
H227	H	0.333270	-0.451367	0.546267
H228	H	0.666604	-0.118033	0.879600
H229	H	-0.378568	-1.010711	-0.091966
H230	H	-0.045235	-0.677377	0.241367
H231	H	0.288098	-0.344044	0.574700
Cl232	Cl	-0.193714	-0.814678	-0.287832
Cl233	Cl	0.139619	-0.481344	0.045501
Cl234	Cl	0.472952	-0.148011	0.378835
Cl235	Cl	-0.398673	-0.805513	-0.297014
Cl236	Cl	-0.065339	-0.472180	0.036319
Cl237	Cl	0.267994	-0.138847	0.369653
H238	H	-0.000058	-0.689081	-0.284126
H239	H	0.333275	-0.355748	0.049207
H240	H	0.666609	-0.022415	0.382541
