data_functionalizedCrystal
_audit_creation_method	'MofGen! by Chris Wilmer'
_symmetry_space_group_name_H-M	'P1'
_symmetry_Int_Tables_number	1
_symmetry_cell_setting	triclinic
loop_
_symmetry_equiv_pos_as_xyz
  x,y,z
_cell_length_a	19.805407
_cell_length_b	16.625546
_cell_length_c	19.805399
_cell_angle_alpha	89.970726
_cell_angle_beta	89.983114
_cell_angle_gamma	90.022468
loop_
_atom_site_label
_atom_site_type_symbol
_atom_site_fract_x
_atom_site_fract_y
_atom_site_fract_z
Zn1	Zn	1.034736	-0.321009	-0.382718
Zn2	Zn	1.534736	0.178991	0.117282
Zn3	Zn	1.034664	-0.455850	-0.269529
Zn4	Zn	1.534664	0.044150	0.230471
Zn5	Zn	0.921556	-0.321035	-0.269543
Zn6	Zn	1.421556	0.178965	0.230457
Zn7	Zn	0.921522	-0.455803	-0.382676
Zn8	Zn	1.421522	0.044197	0.117324
O9	O	0.978120	-0.388424	-0.326117
O10	O	1.478120	0.111576	0.173883
O11	O	1.129443	-0.338905	-0.367716
O12	O	1.629443	0.161095	0.132284
O13	O	1.019644	-0.437996	-0.174815
O14	O	1.519644	0.062004	0.325185
O15	O	0.936614	-0.208199	-0.284579
O16	O	1.436614	0.291801	0.215421
O17	O	1.129390	-0.437971	-0.284556
O18	O	1.629390	0.062029	0.215444
O19	O	1.019767	-0.208180	-0.367729
O20	O	1.519767	0.291820	0.132271
O21	O	0.936544	-0.338948	-0.174825
O22	O	1.436544	0.161052	0.325175
O23	O	0.826835	-0.338903	-0.284538
O24	O	1.326835	0.161097	0.215462
O25	O	0.936556	-0.437893	-0.477398
O26	O	1.436556	0.062107	0.022602
O27	O	0.826810	-0.437917	-0.367657
O28	O	1.326810	0.062083	0.132343
O29	O	1.019734	-0.338860	-0.477429
O30	O	1.519734	0.161140	0.022571
O31	O	1.019611	-0.568676	-0.284515
O32	O	1.519611	-0.068676	0.215485
O33	O	0.936486	-0.568642	-0.367644
O34	O	1.436486	-0.068642	0.132356
C35	C	0.802264	-0.388409	-0.326095
C36	C	1.302264	0.111591	0.173905
C37	C	0.727032	-0.388422	-0.326102
C38	C	1.227032	0.111578	0.173898
C39	C	0.978056	-0.597915	-0.326088
C40	C	1.478056	-0.097915	0.173912
C41	C	0.978090	-0.687536	-0.326099
C42	C	1.478090	-0.187536	0.173901
C43	C	0.691692	-0.440056	-0.369311
C44	C	1.191692	0.059944	0.130689
C45	C	0.621004	-0.440057	-0.369321
C46	C	1.121004	0.059943	0.130679
C47	C	0.585656	-0.388428	-0.326117
C48	C	1.085656	0.111572	0.173883
C49	C	0.621001	-0.336788	-0.282905
C50	C	1.121001	0.163212	0.217095
C51	C	0.691688	-0.336783	-0.282899
C52	C	1.191688	0.163217	0.217101
C53	C	0.335927	-0.336806	-0.282927
C54	C	0.835927	0.163194	0.217073
C55	C	0.265235	-0.336816	-0.282935
C56	C	0.765235	0.163184	0.217065
C57	C	0.265243	-0.440080	-0.369349
C58	C	0.765243	0.059920	0.130651
C59	C	0.335931	-0.440075	-0.369343
C60	C	0.835931	0.059925	0.130657
C61	C	0.371269	-0.388433	-0.326134
C62	C	0.871269	0.111567	0.173866
C63	C	0.447917	-0.388431	-0.326125
C64	C	0.947917	0.111569	0.173875
C65	C	0.509009	-0.388433	-0.326122
C66	C	1.009009	0.111567	0.173878
C67	C	0.978208	-1.015712	-0.326169
C68	C	1.478208	-0.515712	0.173831
C69	C	0.978173	-0.924403	-0.326152
C70	C	1.478173	-0.424403	0.173848
C71	C	0.978149	-0.851627	-0.326134
C72	C	1.478149	-0.351627	0.173866
C73	C	0.978115	-0.760313	-0.326117
C74	C	1.478115	-0.260313	0.173883
C75	C	1.154662	-0.388440	-0.326139
C76	C	1.654662	0.111560	0.173861
C77	C	1.229894	-0.388447	-0.326149
C78	C	1.729894	0.111553	0.173851
C79	C	0.978149	-0.388368	-0.502660
C80	C	1.478149	0.111632	-0.002660
C81	C	0.978162	-0.388344	-0.577892
C82	C	1.478162	0.111656	-0.077892
C83	C	0.978202	-0.178115	-0.326160
C84	C	1.478202	0.321885	0.173840
C85	C	0.978238	-0.088494	-0.326178
C86	C	1.478238	0.411506	0.173822
C87	C	0.934904	-0.336765	-0.613240
C88	C	1.434904	0.163235	-0.113240
C89	C	0.934914	-0.336750	-0.683929
C90	C	1.434914	0.163250	-0.183929
C91	C	0.978185	-0.388310	-0.719267
C92	C	1.478185	0.111690	-0.219267
C93	C	1.021444	-0.439894	-0.683913
C94	C	1.521444	0.060106	-0.183913
C95	C	1.021431	-0.439914	-0.613226
C96	C	1.521431	0.060086	-0.113226
C97	C	1.021498	-0.439819	-0.968987
C98	C	1.521498	0.060181	-0.468987
C99	C	1.021509	-0.439794	-1.039679
C100	C	1.521509	0.060206	-0.539679
C101	C	0.934980	-0.336655	-1.039689
C102	C	1.434980	0.163345	-0.539689
C103	C	0.934967	-0.336674	-0.969002
C104	C	1.434967	0.163326	-0.469002
C105	C	0.978224	-0.388262	-0.933655
C106	C	1.478224	0.111738	-0.433655
C107	C	0.978213	-0.388279	-0.857006
C108	C	1.478213	0.111721	-0.357006
C109	C	0.978200	-0.388289	-0.795914
C110	C	1.478200	0.111711	-0.295914
C111	C	0.978129	-0.388422	-0.150261
C112	C	1.478129	0.111578	0.349739
C113	C	0.978248	-0.388218	-0.075029
C114	C	1.478248	0.111782	0.424971
H115	H	0.592234	-0.482104	-0.404506
H116	H	1.092234	0.017896	0.095494
O117	O	1.063456	-0.489899	-0.934552
O118	O	1.563456	0.010101	-0.434552
C119	C	1.054180	-0.478854	-0.864583
C120	C	1.554180	0.021146	-0.364583
H121	H	1.001954	-0.452445	-0.854926
H122	H	1.501954	0.047555	-0.354926
H123	H	1.058743	-0.539260	-0.837709
H124	H	1.558743	-0.039260	-0.337709
H125	H	1.094341	-0.435927	-0.844536
H126	H	1.594341	0.064073	-0.344536
H127	H	0.899734	-0.294686	-0.940233
H128	H	1.399734	0.205314	-0.440233
H129	H	0.364707	-0.482120	-0.404522
H130	H	0.864707	0.017880	0.095478
O131	O	1.063455	-0.489906	-0.718344
O132	O	1.563455	0.010094	-0.218344
C133	C	1.054181	-0.478844	-0.788315
C134	C	1.554181	0.021156	-0.288315
H135	H	1.032042	-0.416613	-0.797981
H136	H	1.532042	0.083387	-0.297981
H137	H	1.104883	-0.484313	-0.815183
H138	H	1.604883	0.015687	-0.315183
H139	H	1.018120	-0.526660	-0.808359
H140	H	1.518120	-0.026660	-0.308359
H141	H	1.056747	-0.481784	-1.068450
H142	H	1.556747	0.018216	-0.568450
H143	H	0.592215	-0.294747	-0.247730
H144	H	1.092215	0.205253	0.252270
O145	O	0.726056	-0.490295	-0.411184
O146	O	1.226056	0.009705	0.088816
C147	C	0.766929	-0.542300	-0.372571
C148	C	1.266929	-0.042300	0.127429
H149	H	0.745607	-0.547203	-0.319256
H150	H	1.245607	-0.047203	0.180744
H151	H	0.767721	-0.604388	-0.396960
H152	H	1.267721	-0.104388	0.103040
H153	H	0.820507	-0.517364	-0.370274
H154	H	1.320507	-0.017364	0.129726
O155	O	1.063418	-0.490129	-0.578959
O156	O	1.563418	0.009871	-0.078959
C157	C	1.048582	-0.570485	-0.596201
C158	C	1.548582	-0.070485	-0.096201
H159	H	1.022575	-0.572137	-0.647523
H160	H	1.522575	-0.072137	-0.147523
H161	H	1.097414	-0.606648	-0.598613
H162	H	1.597414	-0.106648	-0.098613
H163	H	1.013760	-0.597647	-0.556409
H164	H	1.513760	-0.097647	-0.056409
O165	O	0.230810	-0.490165	-0.411307
O166	O	0.730810	0.009835	0.088693
C167	C	0.160840	-0.479115	-0.402042
C168	C	0.660840	0.020885	0.097958
H169	H	0.151192	-0.416855	-0.379972
H170	H	0.651192	0.083145	0.120028
H171	H	0.133996	-0.484667	-0.452736
H172	H	0.633996	0.015333	0.047264
H173	H	0.140752	-0.526886	-0.365926
H174	H	0.640752	-0.026886	0.134074
O175	O	0.892880	-0.286664	-1.074057
O176	O	1.392880	0.213336	-0.574057
C177	C	0.849160	-0.332551	-1.114939
C178	C	1.349160	0.167449	-0.614939
H179	H	0.844951	-0.396061	-1.093622
H180	H	1.344951	0.103939	-0.593622
H181	H	0.797084	-0.303382	-1.115738
H182	H	1.297084	0.196618	-0.615738
H183	H	0.870092	-0.335316	-1.168515
H184	H	1.370092	0.164684	-0.668515
H185	H	0.899672	-0.294775	-0.584473
H186	H	1.399672	0.205225	-0.084473
O187	O	0.726095	-0.286741	-0.240890
O188	O	1.226095	0.213259	0.259110
C189	C	0.766942	-0.332578	-0.197092
C190	C	1.266942	0.167422	0.302908
H191	H	0.777521	-0.393719	-0.220870
H192	H	1.277521	0.106281	0.279130
H193	H	0.816656	-0.299719	-0.188069
H194	H	1.316656	0.200281	0.311931
H195	H	0.739680	-0.341361	-0.146920
H196	H	1.239680	0.158639	0.353080
O197	O	0.231002	-0.286580	-0.240946
O198	O	0.731002	0.213420	0.259054
C199	C	0.277349	-0.241010	-0.202796
C200	C	0.777349	0.258990	0.297204
H201	H	0.327749	-0.238256	-0.230518
H202	H	0.827749	0.261744	0.269482
H203	H	0.256935	-0.177474	-0.195679
H204	H	0.756935	0.322526	0.304321
H205	H	0.284840	-0.270451	-0.151342
H206	H	0.784840	0.229549	0.348658
H207	H	0.364691	-0.294761	-0.247739
H208	H	0.864691	0.205239	0.252261
H209	H	0.899686	-0.294752	-0.712707
H210	H	1.399686	0.205248	-0.212707
