data_functionalizedCrystal
_audit_creation_method	'MofGen! by Chris Wilmer'
_symmetry_space_group_name_H-M	'P1'
_symmetry_Int_Tables_number	1
_symmetry_cell_setting	triclinic
loop_
_symmetry_equiv_pos_as_xyz
  x,y,z
_cell_length_a	13.897449
_cell_length_b	16.625545
_cell_length_c	13.897441
_cell_angle_alpha	89.968716
_cell_angle_beta	90.020733
_cell_angle_gamma	89.974684
loop_
_atom_site_label
_atom_site_type_symbol
_atom_site_fract_x
_atom_site_fract_y
_atom_site_fract_z
Zn1	Zn	1.474660	0.320948	0.545377
Zn2	Zn	1.474536	0.455799	0.384076
Zn3	Zn	1.313349	0.320987	0.384095
Zn4	Zn	1.313313	0.455746	0.545329
O5	O	1.393965	0.388370	0.464719
O6	O	1.609625	0.338843	0.523992
O7	O	1.453118	0.437954	0.249097
O8	O	1.334814	0.208149	0.405517
O9	O	1.609534	0.437917	0.405485
O10	O	1.453329	0.208121	0.524010
O11	O	1.334694	0.338908	0.249111
O12	O	1.178363	0.338857	0.405471
O13	O	1.334753	0.437826	0.680317
O14	O	1.178336	0.437864	0.523928
O15	O	1.453294	0.338791	0.680352
O16	O	1.453083	0.568624	0.405439
O17	O	1.334633	0.568585	0.523910
C18	C	1.143350	0.388359	0.464697
C19	C	1.036136	0.388374	0.464711
C20	C	0.839841	0.388377	0.464736
C21	C	0.949074	0.388373	0.464719
C22	C	1.393867	0.597861	0.464688
C23	C	1.393913	0.687482	0.464707
C24	C	1.394070	1.015657	0.464822
C25	C	1.394023	0.924349	0.464793
C26	C	1.393991	0.851573	0.464764
C27	C	1.393945	0.760258	0.464736
C28	C	1.645558	0.388381	0.464742
C29	C	1.752772	0.388386	0.464751
C30	C	1.394033	0.388299	0.716312
C31	C	1.394062	0.388268	0.823526
C32	C	1.394081	1.178061	0.464783
C33	C	1.394110	1.088440	0.464839
C34	C	1.393952	0.388383	0.214105
C35	C	1.394110	0.388186	0.106891
C36	C	1.394088	0.388214	1.019821
C37	C	1.394071	0.388246	0.910589
