data_functionalizedCrystal
_audit_creation_method	'MofGen! by Chris Wilmer'
_symmetry_space_group_name_H-M	'P1'
_symmetry_Int_Tables_number	1
_symmetry_cell_setting	triclinic
loop_
_symmetry_equiv_pos_as_xyz
  x,y,z
_cell_length_a	18.215407
_cell_length_b	12.645330
_cell_length_c	18.215399
_cell_angle_alpha	90.023030
_cell_angle_beta	90.019833
_cell_angle_gamma	90.018140
loop_
_atom_site_label
_atom_site_type_symbol
_atom_site_fract_x
_atom_site_fract_y
_atom_site_fract_z
Zn1	Zn	1.125109	-0.422038	0.416141
Zn2	Zn	1.458442	-0.088704	0.749474
Zn3	Zn	1.791775	0.244629	1.082808
Zn4	Zn	1.125033	-0.599320	0.293085
Zn5	Zn	1.458366	-0.265986	0.626419
Zn6	Zn	1.791699	0.067347	0.959752
Zn7	Zn	1.002041	-0.422072	0.293088
Zn8	Zn	1.335375	-0.088739	0.626422
Zn9	Zn	1.668708	0.244594	0.959755
Zn10	Zn	1.002023	-0.599261	0.416110
Zn11	Zn	1.335356	-0.265927	0.749444
Zn12	Zn	1.668689	0.067406	1.082777
O13	O	1.063551	-0.510673	0.354606
O14	O	1.396885	-0.177339	0.687940
O15	O	1.730218	0.155994	1.021273
O16	O	1.228083	-0.445565	0.399829
O17	O	1.561416	-0.112231	0.733162
O18	O	1.894750	0.221102	1.066496
O19	O	1.108693	-0.575847	0.190101
O20	O	1.442027	-0.242513	0.523435
O21	O	1.775360	0.090820	0.856768
O22	O	1.018406	-0.273720	0.309426
O23	O	1.351739	0.059613	0.642759
O24	O	1.685073	0.392946	0.976092
O25	O	1.228027	-0.575813	0.309421
O26	O	1.561360	-0.242480	0.642754
O27	O	1.894694	0.090854	0.976087
O28	O	1.108823	-0.273695	0.399832
O29	O	1.442157	0.059638	0.733165
O30	O	1.775490	0.392972	1.066499
O31	O	1.018332	-0.445624	0.190104
O32	O	1.351666	-0.112290	0.523437
O33	O	1.684999	0.221043	0.856770
O34	O	0.899055	-0.445566	0.309396
O35	O	1.232388	-0.112233	0.642729
O36	O	1.565721	0.221100	0.976063
O37	O	1.018374	-0.575713	0.519099
O38	O	1.351708	-0.242379	0.852432
O39	O	1.685041	0.090954	1.185765
O40	O	0.899041	-0.575746	0.399780
O41	O	1.232374	-0.242413	0.733113
O42	O	1.565708	0.090920	1.066446
O43	O	1.108805	-0.445507	0.519121
O44	O	1.442138	-0.112174	0.852455
O45	O	1.775472	0.221159	1.185788
O46	O	1.108675	-0.747659	0.309391
O47	O	1.442009	-0.414326	0.642724
O48	O	1.775342	-0.080993	0.976057
O49	O	1.018300	-0.747616	0.399777
O50	O	1.351634	-0.414283	0.733110
O51	O	1.684967	-0.080949	1.066443
C52	C	0.872345	-0.510654	0.354585
C53	C	1.205678	-0.177321	0.687918
C54	C	1.539012	0.156012	1.021252
C55	C	0.790546	-0.510672	0.354594
C56	C	1.123880	-0.177339	0.687927
C57	C	1.457213	0.155994	1.021260
C58	C	0.602364	-0.578563	0.401597
C59	C	0.935698	-0.245230	0.734931
C60	C	1.269031	0.088103	1.068264
C61	C	0.525506	-0.578567	0.401606
C62	C	0.858839	-0.245233	0.734940
C63	C	1.192172	0.088100	1.068273
C64	C	0.525490	-0.442801	0.307631
C65	C	0.858824	-0.109468	0.640965
C66	C	1.192157	0.223866	0.974298
C67	C	0.602348	-0.442793	0.307626
C68	C	0.935681	-0.109460	0.640960
C69	C	1.269014	0.223873	0.974293
C70	C	0.640783	-0.510680	0.354608
C71	C	0.974116	-0.177347	0.687942
C72	C	1.307449	0.155986	1.021275
C73	C	0.487067	-0.510692	0.354622
C74	C	0.820400	-0.177358	0.687956
C75	C	1.153733	0.155975	1.021289
C76	C	0.403733	-0.510695	0.354632
C77	C	0.737066	-0.177361	0.687965
C78	C	1.070400	0.155972	1.021299
C79	C	0.724122	-0.510676	0.354600
C80	C	1.057455	-0.177343	0.687933
C81	C	1.390788	0.155991	1.021267
C82	C	1.063498	-0.786102	0.354596
C83	C	1.396831	-0.452769	0.687929
C84	C	1.730164	-0.119436	1.021263
C85	C	1.063542	-0.903932	0.354616
C86	C	1.396875	-0.570599	0.687949
C87	C	1.730209	-0.237266	1.021283
C88	C	1.006922	-1.071513	0.411653
C89	C	1.340255	-0.738180	0.744987
C90	C	1.673588	-0.404847	1.078320
C91	C	1.006632	-0.948954	0.411470
C92	C	1.339965	-0.615620	0.744803
C93	C	1.673299	-0.282287	1.078137
C94	C	1.042549	-0.948523	0.277058
C95	C	1.375882	-0.615190	0.610391
C96	C	1.709216	-0.281856	0.943724
C97	C	1.042203	-1.071122	0.277404
C98	C	1.375537	-0.737788	0.610737
C99	C	1.708870	-0.404455	0.944070
C100	C	1.141502	-1.071022	0.374509
C101	C	1.474835	-0.737688	0.707842
C102	C	1.808168	-0.404355	1.041175
C103	C	1.141024	-0.948415	0.376205
C104	C	1.474357	-0.615082	0.709538
C105	C	1.807691	-0.281748	1.042871
C106	C	1.255504	-0.510692	0.354628
C107	C	1.588838	-0.177358	0.687961
C108	C	1.922171	0.155975	1.021295
C109	C	1.337303	-0.510700	0.354637
C110	C	1.670636	-0.177366	0.687970
C111	C	2.003970	0.155967	1.021304
C112	C	1.063596	-0.510600	0.546559
C113	C	1.396929	-0.177266	0.879893
C114	C	1.730263	0.156067	1.213226
C115	C	1.063615	-0.510568	0.628358
C116	C	1.396949	-0.177235	0.961692
C117	C	1.730282	0.156098	1.295025
C118	C	1.063625	-0.234167	0.354633
C119	C	1.396959	0.099166	0.687966
C120	C	1.730292	0.432499	1.021299
C121	C	1.063657	-0.116337	0.354644
C122	C	1.396990	0.216996	0.687977
C123	C	1.730323	0.550329	1.021311
C124	C	1.063549	-0.510669	0.163400
C125	C	1.396882	-0.177336	0.496733
C126	C	1.730216	0.155998	0.830067
C127	C	1.063672	-0.510401	0.081602
C128	C	1.397006	-0.177068	0.414935
C129	C	1.730339	0.156265	0.748268
C130	C	1.110720	-0.442707	0.816565
C131	C	1.444053	-0.109374	1.149899
C132	C	1.777386	0.223960	1.483232
C133	C	1.110728	-0.442676	0.893424
C134	C	1.444062	-0.109343	1.226757
C135	C	1.777395	0.223990	1.560091
C136	C	1.016563	-0.578266	0.893389
C137	C	1.349896	-0.244932	1.226722
C138	C	1.683230	0.088401	1.560056
C139	C	1.016551	-0.578290	0.816532
C140	C	1.349884	-0.244957	1.149865
C141	C	1.683218	0.088376	1.483198
C142	C	1.063634	-0.510513	0.778122
C143	C	1.396967	-0.177179	1.111455
C144	C	1.730300	0.156154	1.444788
C145	C	1.063654	-0.510457	0.931838
C146	C	1.396988	-0.177124	1.265171
C147	C	1.730321	0.156210	1.598505
C148	C	1.063663	-0.510424	1.015172
C149	C	1.396997	-0.177091	1.348505
C150	C	1.730330	0.156243	1.681838
C151	C	1.063624	-0.510544	0.694783
C152	C	1.396957	-0.177211	1.028116
C153	C	1.730290	0.156123	1.361449
H154	H	0.633629	-0.387508	0.269362
H155	H	0.966962	-0.054175	0.602696
H156	H	1.300295	0.279159	0.936029
H157	H	1.082562	-0.919362	0.233421
H158	H	1.415896	-0.586029	0.566754
H159	H	1.749229	-0.252696	0.900087
H160	H	0.494229	-0.633842	0.439871
H161	H	0.827562	-0.300509	0.773204
H162	H	1.160895	0.032824	1.106537
H163	H	1.019935	-1.100928	0.469351
H164	H	1.353268	-0.767594	0.802684
H165	H	1.686602	-0.434261	1.136018
H166	H	0.494187	-0.387531	0.269379
H167	H	0.827520	-0.054198	0.602713
H168	H	1.160854	0.279135	0.936046
C169	C	1.024348	-0.908216	0.489163
C170	C	1.357682	-0.574882	0.822497
C171	C	1.691015	-0.241549	1.155830
H172	H	1.031787	-0.966593	0.521123
H173	H	1.365120	-0.633260	0.854456
H174	H	1.698453	-0.299927	1.187790
H175	H	1.067592	-0.866267	0.487665
H176	H	1.400926	-0.532934	0.820998
H177	H	1.734259	-0.199600	1.154331
H178	H	0.984576	-0.866670	0.506644
H179	H	1.317910	-0.533337	0.839977
H180	H	1.651243	-0.200003	1.173310
C181	C	1.162501	-0.368150	0.774313
C182	C	1.495834	-0.034817	1.107646
C183	C	1.829168	0.298517	1.440980
H184	H	1.155757	-0.377880	0.723033
H185	H	1.489090	-0.044547	1.056366
H186	H	1.822423	0.288786	1.389700
H187	H	1.151750	-0.296919	0.786916
H188	H	1.485083	0.036415	1.120249
H189	H	1.818416	0.369748	1.453582
H190	H	1.211949	-0.383669	0.786918
H191	H	1.545282	-0.050335	1.120251
H192	H	1.878615	0.282998	1.453584
C193	C	0.929445	-1.113243	0.394101
C194	C	1.262778	-0.779910	0.727435
C195	C	1.596111	-0.446576	1.060768
H196	H	0.931523	-1.157861	0.352179
H197	H	1.264856	-0.824527	0.685513
H198	H	1.598189	-0.491194	1.018846
H199	H	0.911371	-1.152243	0.434830
H200	H	1.244705	-0.818909	0.768164
H201	H	1.578038	-0.485576	1.101497
H202	H	0.897643	-1.055361	0.384449
H203	H	1.230976	-0.722028	0.717782
H204	H	1.564310	-0.388695	1.051115
C205	C	0.928674	-0.909452	0.393681
C206	C	1.262008	-0.576119	0.727014
C207	C	1.595341	-0.242786	1.060348
H208	H	0.897060	-0.968333	0.386532
H209	H	1.230393	-0.635000	0.719865
H210	H	1.563727	-0.301666	1.053198
H211	H	0.910990	-0.867728	0.433279
H212	H	1.244323	-0.534395	0.766612
H213	H	1.577657	-0.201062	1.099946
H214	H	0.929877	-0.867938	0.350242
H215	H	1.263210	-0.534605	0.683575
H216	H	1.596544	-0.201271	1.016908
H217	H	0.985298	-1.099813	0.260576
H218	H	1.318632	-0.766479	0.593909
H219	H	1.651965	-0.433146	0.927242
C220	C	1.095590	-1.111189	0.218057
C221	C	1.428924	-0.777855	0.551390
C222	C	1.762257	-0.444522	0.884724
H223	H	1.117389	-1.052536	0.193839
H224	H	1.450723	-0.719203	0.527172
H225	H	1.784056	-0.385869	0.860506
H226	H	1.132815	-1.152861	0.240337
H227	H	1.466149	-0.819527	0.573670
H228	H	1.799482	-0.486194	0.907004
H229	H	1.069490	-1.152873	0.183368
H230	H	1.402824	-0.819540	0.516701
H231	H	1.736157	-0.486207	0.850035
H232	H	0.986237	-0.917912	0.259925
H233	H	1.319571	-0.584578	0.593259
H234	H	1.652904	-0.251245	0.926592
H235	H	1.149069	-0.387460	0.924721
H236	H	1.482403	-0.054127	1.258055
H237	H	1.815736	0.279206	1.591388
C238	C	0.644644	-0.653232	0.453274
C239	C	0.977977	-0.319899	0.786608
C240	C	1.311311	0.013435	1.119941
H241	H	0.695920	-0.643516	0.446537
H242	H	1.029254	-0.310183	0.779870
H243	H	1.362587	0.023150	1.113204
H244	H	0.632073	-0.637813	0.502741
H245	H	0.965407	-0.304480	0.836074
H246	H	1.298740	0.028854	1.169407
H247	H	0.632028	-0.724443	0.442415
H248	H	0.965362	-0.391110	0.775749
H249	H	1.298695	-0.057776	1.109082
C250	C	1.167376	-1.112681	0.449612
C251	C	1.500710	-0.779348	0.782945
C252	C	1.834043	-0.446015	1.116278
H253	H	1.214450	-1.084390	0.460552
H254	H	1.547783	-0.751056	0.793885
H255	H	1.881116	-0.417723	1.127218
H256	H	1.133487	-1.091693	0.486464
H257	H	1.466820	-0.758360	0.819797
H258	H	1.800153	-0.425027	1.153130
H259	H	1.170163	-1.187671	0.448148
H260	H	1.503496	-0.854337	0.781482
H261	H	1.836829	-0.521004	1.114815
H262	H	1.156855	-0.919267	0.433284
H263	H	1.490189	-0.585934	0.766617
H264	H	1.823522	-0.252600	1.099950
C265	C	1.201135	-0.907029	0.324189
C266	C	1.534469	-0.573695	0.657522
C267	C	1.867802	-0.240362	0.990856
H268	H	1.179669	-0.861882	0.288463
H269	H	1.513002	-0.528549	0.621796
H270	H	1.846335	-0.195216	0.955130
H271	H	1.236621	-0.868664	0.351628
H272	H	1.569954	-0.535330	0.684961
H273	H	1.903288	-0.201997	1.018294
H274	H	1.224191	-0.965020	0.300367
H275	H	1.557524	-0.631687	0.633700
H276	H	1.890858	-0.298354	0.967033
C277	C	0.964755	-0.652878	0.774238
C278	C	1.298088	-0.319544	1.107571
C279	C	1.631422	0.013789	1.440904
H280	H	0.971486	-0.643175	0.722963
H281	H	1.304820	-0.309842	1.056297
H282	H	1.638153	0.023492	1.389630
H283	H	0.975506	-0.724103	0.786823
H284	H	1.308840	-0.390770	1.120157
H285	H	1.642173	-0.057437	1.453490
H286	H	0.915311	-0.637348	0.786826
H287	H	1.248645	-0.304014	1.120159
H288	H	1.581978	0.029319	1.453492
C289	C	0.964783	-0.652824	0.935642
C290	C	1.298117	-0.319491	1.268976
C291	C	1.631450	0.013842	1.602309
H292	H	0.971539	-0.643107	0.986922
H293	H	1.304872	-0.309774	1.320255
H294	H	1.638206	0.023559	1.653589
H295	H	0.915338	-0.637316	0.923041
H296	H	1.248671	-0.303982	1.256374
H297	H	1.582004	0.029351	1.589708
H298	H	0.975542	-0.724059	0.923038
H299	H	1.308875	-0.390725	1.256371
H300	H	1.642208	-0.057392	1.589704
H301	H	1.183771	-1.100007	0.332986
H302	H	1.517104	-0.766674	0.666320
H303	H	1.850437	-0.433341	0.999653
