data_functionalizedCrystal
_audit_creation_method	'MofGen! by Chris Wilmer'
_symmetry_space_group_name_H-M	'P1'
_symmetry_Int_Tables_number	1
_symmetry_cell_setting	triclinic
loop_
_symmetry_equiv_pos_as_xyz
  x,y,z
_cell_length_a	12.759401
_cell_length_b	16.625545
_cell_length_c	16.625539
_cell_angle_alpha	90.028107
_cell_angle_beta	90.017397
_cell_angle_gamma	90.025719
loop_
_atom_site_label
_atom_site_type_symbol
_atom_site_fract_x
_atom_site_fract_y
_atom_site_fract_z
Zn1	Zn	1.606165	-0.320997	0.455842
Zn2	Zn	1.606029	-0.455840	0.321010
Zn3	Zn	1.430470	-0.321025	0.321030
Zn4	Zn	1.430422	-0.455791	0.455807
O5	O	1.518271	-0.388413	0.388422
O6	O	1.753168	-0.338892	0.437963
O7	O	1.582704	-0.437989	0.208180
O8	O	1.453853	-0.208189	0.338936
O9	O	1.753068	-0.437961	0.338902
O10	O	1.582935	-0.208168	0.437982
O11	O	1.453722	-0.338941	0.208195
O12	O	1.283443	-0.338894	0.338903
O13	O	1.453771	-0.437878	0.568644
O14	O	1.283407	-0.437906	0.437923
O15	O	1.582889	-0.338845	0.568670
O16	O	1.582658	-0.568666	0.338868
O17	O	1.453640	-0.568630	0.437903
C18	C	1.245304	-0.388399	0.388411
C19	C	1.128527	-0.388412	0.388426
C20	C	1.073675	-0.440050	0.439900
C21	C	0.963951	-0.440060	0.439909
C22	C	0.963942	-0.336792	0.336962
C23	C	1.073664	-0.336778	0.336958
C24	C	1.073679	-0.499673	0.499334
C25	C	0.963955	-0.499684	0.499342
C26	C	1.518157	-0.597904	0.388397
C27	C	1.518205	-0.687525	0.388413
C28	C	1.518245	-0.760308	0.388429
C29	C	1.518307	-0.851616	0.388447
C30	C	1.518361	-0.924393	0.388457
C31	C	1.518421	-1.015707	0.388474
C32	C	1.792305	-0.388429	0.388434
C33	C	1.909081	-0.388435	0.388439
C34	C	1.518340	-0.388353	0.598731
C35	C	1.518369	-0.388328	0.688353
C36	C	1.518415	-0.178104	0.388466
C37	C	1.518476	-0.088483	0.388484
C38	C	1.518264	-0.388415	0.178932
C39	C	1.518438	-0.388213	0.089311
C40	C	1.518417	-0.388237	1.016528
C41	C	1.518401	-0.388265	0.925220
C42	C	1.518394	-0.388283	0.852443
C43	C	1.518376	-0.388310	0.761129
H44	H	1.103489	-0.483026	0.561811
O45	O	1.114198	-0.570465	0.472652
C46	C	1.079951	-0.633581	0.522802
H47	H	1.057447	-0.608311	0.584163
H48	H	1.008959	-0.664147	0.494472
C49	C	1.196481	-0.726411	0.457599
C50	C	1.168849	-0.695374	0.532966
H51	H	1.251314	-0.764531	0.463866
H52	H	1.219551	-0.683890	0.423809
H53	H	1.137312	-0.751877	0.433998
H54	H	1.228013	-0.669901	0.556561
H55	H	1.145791	-0.737894	0.566760
O56	O	1.126786	-0.286583	0.286888
C57	C	1.054831	-0.241000	0.241480
H58	H	0.976605	-0.274034	0.238625
H59	H	1.043193	-0.179808	0.271128
C60	C	1.193698	-0.188672	0.159195
C61	C	1.097623	-0.229249	0.155682
H62	H	1.220095	-0.181419	0.106271
H63	H	1.242177	-0.219379	0.189789
H64	H	1.183987	-0.137683	0.183905
H65	H	1.107337	-0.280240	0.130982
H66	H	1.049146	-0.198550	0.125082
O67	O	0.910483	-0.286720	0.286988
C68	C	0.801876	-0.297789	0.298043
H69	H	0.786879	-0.360048	0.324345
H70	H	0.770777	-0.250018	0.341063
C71	C	0.763930	-0.213840	0.184170
C72	C	0.745509	-0.290311	0.216469
H73	H	0.729158	-0.209224	0.133853
H74	H	0.837100	-0.206380	0.176724
H75	H	0.738013	-0.174040	0.220028
H76	H	0.771436	-0.330109	0.180616
H77	H	0.672341	-0.297777	0.223907
O78	O	0.923444	-0.473227	0.570226
C79	C	0.957698	-0.523569	0.633181
H80	H	0.980199	-0.584849	0.607716
H81	H	1.028694	-0.495326	0.663822
C82	C	0.841179	-0.458667	0.726234
C83	C	0.868807	-0.533935	0.694958
H84	H	0.786350	-0.465059	0.764343
H85	H	0.818104	-0.424748	0.683821
H86	H	0.900351	-0.435139	0.751762
H87	H	0.809640	-0.557457	0.669422
H88	H	0.891871	-0.567858	0.737368
O89	O	0.928327	-0.574180	0.479393
C90	C	0.866967	-0.604931	0.542847
H91	H	0.889674	-0.573762	0.601407
H92	H	0.780544	-0.593520	0.529714
C93	C	0.858121	-0.734321	0.478870
C94	C	0.886016	-0.696044	0.550796
H95	H	0.869866	-0.790525	0.483772
H96	H	0.899457	-0.713604	0.436118
H97	H	0.786103	-0.724804	0.467933
H98	H	0.958035	-0.705553	0.561726
H99	H	0.844692	-0.716766	0.593550
