data_functionalizedCrystal
_audit_creation_method	'MofGen! by Chris Wilmer'
_symmetry_space_group_name_H-M	'P1'
_symmetry_Int_Tables_number	1
_symmetry_cell_setting	triclinic
loop_
_symmetry_equiv_pos_as_xyz
  x,y,z
_cell_length_a	10.489741
_cell_length_b	14.971486
_cell_length_c	8.965430
_cell_angle_alpha	90.007865
_cell_angle_beta	90.000457
_cell_angle_gamma	95.923349
loop_
_atom_site_label
_atom_site_type_symbol
_atom_site_fract_x
_atom_site_fract_y
_atom_site_fract_z
O1	O	0.166213	-1.187882	0.123867
O2	O	0.186119	-0.927595	0.123907
O3	O	-0.009500	-1.063661	0.123877
O4	O	0.361832	-1.051815	0.123897
O5	O	-0.009494	-1.063667	-0.124202
O6	O	0.186125	-0.927601	-0.124172
O7	O	0.166219	-1.187888	-0.124212
Cu8	Cu	0.176173	-1.057745	-0.146843
Cu9	Cu	0.176165	-1.057738	0.146539
O10	O	0.361838	-1.051822	-0.124182
C11	C	0.185232	-0.894268	-0.000127
C12	C	0.182564	-0.794956	-0.000112
C13	C	-0.057019	-1.062769	-0.000161
C14	C	-0.198617	-1.060093	-0.000158
C15	C	0.167106	-1.221215	-0.000174
C16	C	0.169774	-1.320527	-0.000180
C17	C	-0.265755	-0.973518	-0.000134
C18	C	-0.358348	-1.014418	-0.122456
C19	C	-0.358329	-1.014432	0.122131
C20	C	-0.289345	-1.101029	-0.122581
C21	C	-0.289316	-1.101031	0.122115
C22	C	-0.381882	-1.141994	-0.000237
C23	C	0.409357	-1.052713	-0.000140
C24	C	0.550955	-1.055390	-0.000134
N25	N	0.176177	-1.057757	-0.353192
C26	C	0.297485	-0.738385	-0.000108
C27	C	0.294971	-0.645071	-0.000130
C28	C	0.177534	-0.608330	-0.000146
C29	C	0.062604	-0.664909	-0.000154
C30	C	0.065120	-0.758221	-0.000142
C31	C	0.057369	-0.470416	-0.000175
C32	C	0.054853	-0.377098	-0.000184
C33	C	0.287220	-0.357267	-0.000163
C34	C	0.289736	-0.450579	-0.000151
C35	C	0.174805	-0.507151	-0.000157
C36	C	0.085716	-1.120703	-0.450472
C37	C	0.060818	-1.039717	-0.549866
C38	C	0.200992	-1.138712	-0.549927
C39	C	0.151222	-0.976729	-0.450397
C40	C	0.291446	-1.075778	-0.450449
C41	C	0.266598	-0.994733	-0.549798
N42	N	0.176151	-1.057733	0.352888
H43	H	-0.388933	-0.977789	-0.225859
H44	H	0.388907	-1.091062	-0.406747
O45	O	0.228832	-1.229408	-0.607828
H46	H	0.153623	-1.281544	-0.568027
O47	O	-0.248825	-1.149513	0.259121
H48	H	-0.297249	-1.219023	0.260021
H49	H	-0.036673	-1.024458	-0.593536
H50	H	-0.028461	-0.804281	-0.000145
O51	O	-0.398809	-0.965897	0.259121
H52	H	-0.351833	-0.895984	0.258862
H53	H	0.385363	-0.480489	-0.000124
H54	H	-0.215280	-0.902337	-0.000246
H55	H	0.343092	-0.941432	-0.593134
H56	H	0.380801	-0.311201	-0.000165
H57	H	0.130112	-0.908240	-0.406862
H58	H	0.393115	-0.768291	-0.000094
H59	H	-0.258934	-1.137631	-0.226111
H60	H	-0.033015	-0.634987	-0.000188
O61	O	0.418920	-0.584051	-0.000127
H62	H	0.501002	-0.625276	-0.000096
O63	O	-0.448464	-1.236360	-0.000332
H64	H	-0.420844	-1.272072	-0.101969
O65	O	-0.071806	-0.337464	-0.000220
H66	H	-0.151302	-0.392477	-0.000248
O67	O	-0.015668	-1.191145	-0.392696
H68	H	0.004073	-1.258179	-0.434292
O69	O	-0.066587	-0.531439	-0.000174
H70	H	-0.148672	-0.490216	-0.000169
