data_functionalizedCrystal
_audit_creation_method	'MofGen! by Chris Wilmer'
_symmetry_space_group_name_H-M	'P1'
_symmetry_Int_Tables_number	1
_symmetry_cell_setting	triclinic
loop_
_symmetry_equiv_pos_as_xyz
  x,y,z
_cell_length_a	10.967874
_cell_length_b	10.967829
_cell_length_c	15.455313
_cell_angle_alpha	80.579194
_cell_angle_beta	75.181344
_cell_angle_gamma	82.165976
loop_
_atom_site_label
_atom_site_type_symbol
_atom_site_fract_x
_atom_site_fract_y
_atom_site_fract_z
O1	O	1.683228	0.149076	-0.346005
O2	O	1.316178	0.169713	-0.294228
O3	O	1.506131	-0.020242	-0.294223
O4	O	1.493276	0.339031	-0.346010
O5	O	1.495267	-0.009424	-0.149955
O6	O	1.305315	0.180531	-0.149960
O7	O	1.672365	0.159894	-0.201737
Cu8	Cu	1.487848	0.171200	-0.162675
Cu9	Cu	1.500695	0.158407	-0.333290
O10	O	1.482413	0.349849	-0.201742
C11	C	1.263710	0.174438	-0.214961
C12	C	1.123556	0.172384	-0.193706
C13	C	1.498943	-0.060798	-0.214957
C14	C	1.493695	-0.197760	-0.193703
C15	C	1.066698	0.165865	-0.258965
C16	C	0.921842	0.163742	-0.236998
C17	C	1.496983	-0.264419	-0.258964
C18	C	1.491560	-0.405977	-0.236999
C19	C	1.724833	0.155169	-0.281006
C20	C	1.864988	0.157222	-0.302267
C21	C	1.489601	0.390405	-0.281010
C22	C	1.494849	0.527366	-0.302269
N23	N	1.478821	0.180197	-0.042676
N24	N	1.509732	0.149400	-0.453289
C25	C	1.559549	0.099528	0.002712
C26	C	1.552734	0.106343	0.093519
C27	C	1.465197	0.193836	0.138936
C28	C	1.384461	0.274509	0.093543
C29	C	1.391270	0.267687	0.002739
C30	C	1.435805	0.223251	0.410513
C31	C	1.429004	0.230069	0.501323
C32	C	1.597277	0.061901	0.501294
C33	C	1.604083	0.055092	0.410486
C34	C	1.523343	0.135761	0.365103
N35	N	1.458232	0.200807	0.231755
N36	N	1.530302	0.128782	0.272287
H37	H	0.863281	0.167760	-0.164861
H38	H	1.486857	-0.245488	-0.121569
N39	N	1.144262	0.160541	-0.354515
H40	H	1.086417	0.155897	-0.395048
H41	H	1.190470	0.237554	-0.376313
N42	N	1.304206	0.354704	-0.046218
H43	H	1.321799	0.337104	-0.110633
H44	H	1.213201	0.341833	-0.014803
H45	H	1.503808	-0.216690	-0.331097
N46	N	1.684352	-0.025100	0.550247
H47	H	1.632206	-0.076799	0.603457
H48	H	1.740823	-0.081480	0.507633
N49	N	0.942546	0.151891	-0.397821
H50	H	0.884699	0.147244	-0.438352
H51	H	0.988757	0.228902	-0.419624
N52	N	1.046058	0.177173	-0.098085
H53	H	0.953591	0.174726	-0.095914
H54	H	1.075375	0.103426	-0.057345
H55	H	1.484721	-0.453700	-0.164860
H56	H	1.630836	0.028287	-0.034262
N57	N	1.639819	0.019345	0.142467
H58	H	1.622222	0.036936	0.206884
H59	H	1.624682	-0.069347	0.142124
N60	N	1.503887	-0.409435	-0.397826
H61	H	1.506478	-0.317270	-0.399975
H62	H	1.583603	-0.444653	-0.438838
N63	N	1.698500	-0.039274	0.361502
H64	H	1.748607	-0.089346	0.404035
H65	H	1.651913	-0.096545	0.339363
N66	N	1.348715	0.310260	0.361582
H67	H	1.363824	0.398985	0.361855
H68	H	1.366334	0.292565	0.297191
N69	N	1.334597	0.324452	0.550308
H70	H	1.284483	0.374523	0.507779
H71	H	1.275035	0.280173	0.603527
N72	N	1.290035	0.368869	0.142526
H73	H	1.297971	0.360954	0.206937
H74	H	1.307559	0.455175	0.111121
