data_functionalizedCrystal
_audit_creation_method	'MofGen! by Chris Wilmer'
_symmetry_space_group_name_H-M	'P1'
_symmetry_Int_Tables_number	1
_symmetry_cell_setting	triclinic
loop_
_symmetry_equiv_pos_as_xyz
  x,y,z
_cell_length_a	15.995300
_cell_length_b	27.731996
_cell_length_c	15.072220
_cell_angle_alpha	89.992847
_cell_angle_beta	89.985917
_cell_angle_gamma	83.046597
loop_
_atom_site_label
_atom_site_type_symbol
_atom_site_fract_x
_atom_site_fract_y
_atom_site_fract_z
O1	O	1.110197	0.062187	-0.073827
O2	O	0.866314	0.069906	-0.073823
O3	O	0.995853	-0.004320	-0.073806
O4	O	0.980658	0.136413	-0.073844
O5	O	0.995821	-0.004316	0.073759
O6	O	0.866282	0.069911	0.073742
O7	O	1.110166	0.062191	0.073738
Zn8	Zn	0.988219	0.066052	0.097169
Zn9	Zn	0.988261	0.066046	-0.097254
O10	O	0.980627	0.136417	0.073721
C11	C	0.835107	0.069594	-0.000040
C12	C	0.742167	0.068650	-0.000037
C13	C	0.995525	-0.022326	-0.000020
C14	C	0.994585	-0.075987	-0.000011
C15	C	0.572007	0.066907	-0.000044
C16	C	0.523840	0.119757	-0.000056
C17	C	0.427165	0.118793	-0.000393
C18	C	0.404473	0.065191	-0.000049
C19	C	0.445971	0.038968	-0.084142
C20	C	0.542587	0.040305	-0.084211
C21	C	0.542840	0.039527	0.083604
C22	C	0.445896	0.039532	0.084707
C23	C	0.309790	0.064219	-0.000055
C24	C	0.666689	0.067878	-0.000044
C25	C	0.988687	-0.408730	-0.080492
C26	C	0.985117	-0.610403	-0.080508
O27	O	0.984634	-0.636478	-0.148917
N28	N	0.984656	-0.635620	-0.000071
C29	C	0.985083	-0.610415	0.080376
O30	O	0.984600	-0.636490	0.148792
C31	C	0.988647	-0.408742	0.080390
C32	C	0.989116	-0.383529	-0.000052
C33	C	0.989155	-0.383516	-0.160928
C34	C	0.990052	-0.333102	-0.160923
C35	C	0.990481	-0.307900	-0.080483
C36	C	0.990013	-0.333114	-0.000047
C37	C	0.989067	-0.383538	0.160836
C38	C	0.989956	-0.333116	0.160833
C39	C	0.990425	-0.307903	0.080390
C40	C	0.991339	-0.257497	0.080398
N41	N	0.991799	-0.232281	-0.000039
C42	C	0.991371	-0.257482	-0.080479
C43	C	0.983213	-0.716296	0.080363
C44	C	0.982324	-0.766714	0.080359
C45	C	0.982356	-0.766699	-0.080525
C46	C	0.983252	-0.716280	-0.080520
C47	C	0.983674	-0.691080	-0.000074
C48	C	0.993255	-0.151607	-0.080463
C49	C	0.994156	-0.101188	-0.080452
C50	C	0.994118	-0.101207	0.080432
C51	C	0.993222	-0.151622	0.080421
C52	C	0.992788	-0.176821	-0.000034
O53	O	0.991813	-0.231391	0.148772
O54	O	0.991835	-0.231397	-0.148885
C55	C	0.987790	-0.459145	-0.080497
C56	C	0.987322	-0.484359	-0.000061
C57	C	0.987750	-0.459157	0.080379
C58	C	0.986432	-0.534777	-0.000065
C59	C	0.986003	-0.559978	-0.080505
C60	C	0.986464	-0.534761	-0.160942
C61	C	0.987361	-0.484346	-0.160937
C62	C	0.987290	-0.484374	0.160816
C63	C	0.986394	-0.534789	0.160805
C64	C	0.985965	-0.559990	0.080365
C65	C	1.141373	0.062504	-0.000047
C66	C	1.234313	0.063448	-0.000055
C67	C	0.980955	0.154424	-0.000066
C68	C	0.981895	0.208084	-0.000081
N69	N	0.988196	0.066055	0.229858
N70	N	0.988290	0.066039	-0.229943
C71	C	0.988259	0.066044	0.589060
C72	C	0.918716	0.105628	0.551444
C73	C	0.918872	0.105773	0.448618
C74	C	0.988227	0.066050	0.410856
C75	C	1.075448	0.077056	0.448142
C76	C	1.075058	0.077338	0.551000
C77	C	0.971362	0.015336	0.551174
C78	C	0.969353	0.015675	0.448311
C79	C	0.988215	0.066052	0.310142
C80	C	0.988277	0.066043	0.689773
H81	H	0.398415	0.139398	0.059875
H82	H	0.575138	0.000561	0.084423
H83	H	0.986119	-0.555289	-0.226439
C84	C	0.918176	-0.312161	0.297957
C85	C	0.990414	-0.305414	0.249262
H86	H	0.918462	-0.295060	0.352550
H87	H	0.869497	-0.300201	0.264899
H88	H	0.917587	-0.345798	0.309459
H89	H	0.990999	-0.271776	0.237754
H90	H	1.039105	-0.317371	0.282327
H91	H	0.418289	0.058682	0.146921
H92	H	0.929593	0.143402	0.423993
H93	H	0.563096	0.056929	0.147363
C94	C	0.453578	0.163996	-0.131208
C95	C	0.389215	0.146477	-0.082267
H96	H	0.430149	0.181083	-0.181761
H97	H	0.481303	0.185276	-0.095255
H98	H	0.492925	0.137506	-0.149813
H99	H	0.349871	0.172967	-0.063657
H100	H	0.361476	0.125196	-0.118227
C101	C	0.915981	-0.434766	0.254163
C102	C	0.988516	-0.411234	0.249270
H103	H	0.915635	-0.451863	0.308762
H104	H	0.867504	-0.411398	0.250781
H105	H	0.915621	-0.457003	0.206269
H106	H	0.988873	-0.388994	0.297160
H107	H	1.037005	-0.434605	0.252660
H108	H	0.981954	-0.787240	0.145863
C109	C	0.375710	-0.023705	0.020003
C110	C	0.425877	-0.013222	0.091929
H111	H	0.363353	-0.056275	0.024458
H112	H	0.324716	-0.002241	0.020571
H113	H	0.405046	-0.019717	-0.033801
H114	H	0.396538	-0.017207	0.145732
H115	H	0.476880	-0.034693	0.091369
C116	C	1.107645	0.156636	0.510104
C117	C	1.095287	0.127261	0.583367
H118	H	1.120128	0.187458	0.530085
H119	H	1.153225	0.141664	0.475522
H120	H	1.057957	0.160713	0.475028
H121	H	1.144978	0.123181	0.618440
H122	H	1.049704	0.142236	0.617964
C123	C	0.928913	0.156363	0.679105
C124	C	0.932986	0.156142	0.586302
H125	H	0.937731	0.187548	0.700623
H126	H	0.875065	0.149039	0.697496
H127	H	0.971191	0.132658	0.702134
H128	H	0.890703	0.179846	0.563272
H129	H	0.986840	0.163473	0.567903
H130	H	1.022084	-0.014121	0.575499
H131	H	1.016765	-0.015161	0.422610
C132	C	0.607166	0.118974	0.132528
C133	C	0.548414	0.148439	0.081327
H134	H	0.622346	0.136684	0.182766
H135	H	0.583108	0.091067	0.151659
H136	H	0.655895	0.109194	0.097883
H137	H	0.499682	0.158216	0.115970
H138	H	0.572470	0.176355	0.062196
H139	H	0.992848	-0.172153	0.145923
H140	H	0.543184	0.140678	-0.060280
H141	H	1.128387	0.049643	0.575881
C142	C	0.636719	-0.017604	-0.165599
C143	C	0.586864	-0.012082	-0.089047
H144	H	0.664055	-0.049943	-0.168584
H145	H	0.602143	-0.011038	-0.216447
H146	H	0.677778	0.004421	-0.163673
H147	H	0.545800	-0.034104	-0.090976
H148	H	0.621442	-0.018652	-0.038186
C149	C	0.989981	-0.338165	-0.319945
C150	C	0.990553	-0.305390	-0.249349
H151	H	0.990282	-0.321058	-0.374537
H152	H	1.038478	-0.361521	-0.316601
H153	H	0.940785	-0.354139	-0.316581
H154	H	1.039753	-0.289419	-0.252709
H155	H	0.942052	-0.282026	-0.252695
C156	C	1.113421	0.005380	0.360702
C157	C	1.146945	0.039176	0.415115
H158	H	1.157561	-0.018004	0.340308
H159	H	1.073992	-0.010437	0.393559
H160	H	1.085984	0.021661	0.311326
H161	H	1.174377	0.022895	0.464495
H162	H	1.186389	0.054994	0.382257
C163	C	0.994093	-0.106244	-0.239483
C164	C	0.994666	-0.073474	-0.168880
H165	H	0.994401	-0.089135	-0.294071
H166	H	1.042587	-0.129603	-0.236138
H167	H	0.944894	-0.122215	-0.236127
H168	H	1.043869	-0.057505	-0.172232
H169	H	0.946167	-0.050107	-0.172226
C170	C	0.445015	0.039477	-0.243441
C171	C	0.407390	0.063248	-0.168964
H172	H	0.421192	0.054467	-0.295803
H173	H	0.503859	0.041515	-0.242571
H174	H	0.435497	0.006327	-0.242465
H175	H	0.416913	0.096397	-0.169937
H176	H	0.348532	0.061214	-0.169834
C177	C	1.064267	-0.213733	-0.173833
C178	C	0.992778	-0.179297	-0.168903
H179	H	1.063971	-0.230828	-0.228431
H180	H	1.113454	-0.197760	-0.170481
H181	H	1.063852	-0.235971	-0.125937
H182	H	0.993197	-0.157056	-0.216796
H183	H	0.943579	-0.195271	-0.172265
C184	C	0.916173	-0.434757	-0.254295
C185	C	0.988687	-0.411212	-0.249359
H186	H	0.915888	-0.451850	-0.308896
H187	H	0.915774	-0.456994	-0.206406
H188	H	0.867677	-0.411393	-0.250945
H189	H	1.037183	-0.434577	-0.252703
H190	H	0.989094	-0.388973	-0.297261
C191	C	0.849727	0.037648	0.642361
C192	C	0.887396	0.001054	0.586227
H193	H	0.797885	0.028836	0.663996
H194	H	0.886182	0.041652	0.690840
H195	H	0.839554	0.067274	0.610310
H196	H	0.897574	-0.028571	0.618281
H197	H	0.850932	-0.002956	0.537741
H198	H	0.987640	-0.463860	0.226322
C199	C	0.983194	-0.721341	-0.239544
C200	C	0.983758	-0.688568	-0.168944
H201	H	0.983499	-0.704233	-0.294134
H202	H	1.031691	-0.744696	-0.236196
H203	H	0.933998	-0.737316	-0.236187
H204	H	1.032956	-0.672596	-0.172298
H205	H	0.935255	-0.665204	-0.172293
H206	H	0.994471	-0.080680	0.145924
H207	H	0.982008	-0.787227	-0.146023
H208	H	0.854018	0.099216	0.423410
H209	H	0.987743	-0.463822	-0.226442
C210	C	0.983111	-0.721388	0.239388
C211	C	0.983694	-0.688601	0.168797
H212	H	0.983418	-0.704291	0.293983
H213	H	0.933918	-0.737356	0.236044
H214	H	1.031611	-0.744749	0.236018
H215	H	0.935191	-0.665242	0.172164
H216	H	1.032892	-0.672625	0.172143
C217	C	0.882641	0.002800	0.322563
C218	C	0.882742	0.004396	0.415418
H219	H	0.829172	-0.004164	0.302256
H220	H	0.893700	0.033311	0.299700
H221	H	0.924977	-0.021838	0.302763
H222	H	0.840410	0.029037	0.435218
H223	H	0.871673	-0.026120	0.438290
C224	C	0.986436	-0.529726	0.319836
C225	C	0.985875	-0.562500	0.249236
H226	H	0.986105	-0.546833	0.374426
H227	H	1.035632	-0.513760	0.316494
H228	H	0.937940	-0.506363	0.316473
H229	H	1.034375	-0.585861	0.252595
H230	H	0.936673	-0.578474	0.252580
H231	H	1.090816	0.113616	0.422362
H232	H	0.432395	-0.000418	-0.087023
H233	H	0.560669	0.059201	-0.147321
H234	H	0.853650	0.099180	0.576208
