data_functionalizedCrystal
_audit_creation_method	'MofGen! by Chris Wilmer'
_symmetry_space_group_name_H-M	'P1'
_symmetry_Int_Tables_number	1
_symmetry_cell_setting	triclinic
loop_
_symmetry_equiv_pos_as_xyz
  x,y,z
_cell_length_a	10.654550
_cell_length_b	14.586319
_cell_length_c	10.654550
_cell_angle_alpha	90.003642
_cell_angle_beta	84.484931
_cell_angle_gamma	90.000265
loop_
_atom_site_label
_atom_site_type_symbol
_atom_site_fract_x
_atom_site_fract_y
_atom_site_fract_z
O1	O	1.667840	0.076172	0.176397
O2	O	1.302361	0.076188	0.193204
O3	O	1.493503	0.076174	0.002061
O4	O	1.476697	0.076186	0.367540
O5	O	1.493490	-0.076307	0.002058
O6	O	1.302348	-0.076292	0.193201
O7	O	1.667826	-0.076309	0.176395
Cu8	Cu	1.485086	-0.090223	0.184797
Cu9	Cu	1.485102	0.090103	0.184801
O10	O	1.476684	-0.076295	0.367537
C11	C	1.255556	-0.000050	0.191968
C12	C	1.116113	-0.000044	0.188276
N13	N	1.485084	-0.217055	0.184794
C14	C	1.036628	-0.000042	0.300818
C15	C	0.905607	-0.000058	0.297341
C16	C	0.933570	-0.000073	0.068772
C17	C	1.064588	-0.000063	0.072250
C18	C	1.569750	-0.452068	0.100185
C19	C	1.569754	-0.548049	0.100182
C20	C	1.400438	-0.548046	0.269407
C21	C	1.400429	-0.452066	0.269403
C22	C	1.485092	-0.404080	0.184794
C23	C	1.485105	-0.596041	0.184795
C24	C	1.485108	-0.700108	0.184792
C25	C	1.485088	-0.300006	0.184794
C26	C	1.714631	-0.000069	0.177630
C27	C	1.854074	-0.000069	0.181322
C28	C	1.492263	-0.000066	-0.044738
C29	C	1.488571	-0.000064	-0.184181
N30	N	1.485113	0.216935	0.184794
C31	C	1.601112	-0.000069	-0.263667
C32	C	1.597636	-0.000058	-0.394688
C33	C	1.369066	-0.000041	-0.366725
C34	C	1.372544	-0.000045	-0.235706
C35	C	1.477925	-0.000053	0.414336
C36	C	1.481616	-0.000048	0.553779
H37	H	1.078574	-0.000033	0.395294
H38	H	0.891602	-0.000095	-0.025693
C39	C	1.308570	-0.399792	0.361136
C40	C	1.326662	-0.305467	0.342997
C41	C	1.242057	-0.257283	0.427460
H42	H	1.322858	-0.415402	0.445139
H43	H	1.224608	-0.415471	0.346713
H44	H	1.410605	-0.289794	0.357429
H45	H	1.312364	-0.289830	0.259011
H46	H	1.158095	-0.272963	0.413037
H47	H	1.256352	-0.272901	0.511457
H48	H	1.254313	-0.193279	0.415156
C49	C	1.661712	-0.400133	0.008177
C50	C	1.735828	-0.462708	-0.065943
C51	C	1.820544	-0.414902	-0.150731
H52	H	1.714501	-0.362682	0.053689
H53	H	1.616107	-0.362718	-0.044592
H54	H	1.781430	-0.500107	-0.013181
H55	H	1.683073	-0.500161	-0.111482
H56	H	1.774939	-0.377487	-0.203500
H57	H	1.873325	-0.377452	-0.105208
H58	H	1.870834	-0.457351	-0.201039
H59	H	1.331509	-0.587126	0.338296
C60	C	1.719963	-0.000113	-0.480777
C61	C	1.822311	-0.000153	-0.407604
C62	C	1.935024	-0.000214	-0.486865
H63	H	1.723549	0.053049	-0.532485
H64	H	1.723418	-0.053305	-0.532459
H65	H	1.818859	0.053034	-0.355943
H66	H	1.818768	-0.053311	-0.355898
H67	H	1.938478	-0.053406	-0.538548
H68	H	1.938596	0.052948	-0.538570
H69	H	2.004480	-0.000250	-0.437230
C70	C	1.250210	-0.000087	-0.149607
C71	C	1.147855	-0.000101	-0.222769
C72	C	1.035149	-0.000148	-0.143499
H73	H	1.246648	0.053071	-0.097883
H74	H	1.246742	-0.053283	-0.097940
H75	H	1.151321	0.053089	-0.274414
H76	H	1.151375	-0.053256	-0.274491
H77	H	1.031681	-0.053344	-0.091832
H78	H	1.031600	0.053011	-0.091779
H79	H	0.965687	-0.000166	-0.193128
H80	H	0.840894	-0.000059	0.388984
H81	H	1.129309	-0.000067	-0.019401
H82	H	1.638688	-0.587119	0.031285
H83	H	1.695588	-0.000083	-0.221720
H84	H	1.274601	-0.000027	-0.408693
