data_functionalizedCrystal
_audit_creation_method	'MofGen! by Chris Wilmer'
_symmetry_space_group_name_H-M	'P1'
_symmetry_Int_Tables_number	1
_symmetry_cell_setting	triclinic
loop_
_symmetry_equiv_pos_as_xyz
  x,y,z
_cell_length_a	19.288864
_cell_length_b	14.853567
_cell_length_c	17.766277
_cell_angle_alpha	89.997439
_cell_angle_beta	89.976791
_cell_angle_gamma	83.385589
loop_
_atom_site_label
_atom_site_type_symbol
_atom_site_fract_x
_atom_site_fract_y
_atom_site_fract_z
O1	O	0.921733	0.112464	-0.062829
O2	O	0.719523	0.127636	-0.062777
O3	O	0.826029	-0.011211	-0.062807
O4	O	0.815227	0.251310	-0.062800
O5	O	0.826011	-0.011218	0.062382
O6	O	0.719504	0.127629	0.062411
O7	O	0.921714	0.112457	0.062359
Cu8	Cu	0.820607	0.120042	0.073816
Cu9	Cu	0.820630	0.120051	-0.074234
O10	O	0.815208	0.251303	0.062389
C11	C	0.693636	0.127144	-0.000176
C12	C	0.616527	0.125679	-0.000157
C13	C	0.572106	0.207147	-0.000166
C14	C	0.499654	0.205770	-0.000175
C15	C	0.471627	0.122920	-0.000188
C16	C	0.516058	0.041441	-0.000175
C17	C	0.588508	0.042820	-0.000159
C18	C	0.363152	0.057794	-0.044075
C19	C	0.290703	0.056418	-0.044095
C20	C	0.248167	0.118664	-0.000234
C21	C	0.278088	0.182300	0.043638
C22	C	0.350538	0.183679	0.043654
C23	C	0.393068	0.121416	-0.000205
C24	C	0.125185	0.198645	-0.000252
C25	C	0.052732	0.197265	-0.000255
C26	C	0.069138	0.032933	-0.000263
C27	C	0.141589	0.034316	-0.000252
C28	C	0.169608	0.117174	-0.000250
C29	C	0.825530	-0.044800	-0.000215
C30	C	0.824064	-0.144875	-0.000221
C31	C	0.754596	-0.557014	-0.000189
C32	C	0.881128	-0.579015	-0.000221
C33	C	0.882507	-0.484989	-0.000226
C34	C	0.819930	-0.426971	-0.000211
C35	C	0.755974	-0.462979	-0.000191
C36	C	0.946462	-0.448973	-0.000239
C37	C	0.947844	-0.354942	-0.000242
C38	C	0.885266	-0.296923	-0.000233
C39	C	0.821307	-0.332936	-0.000214
C40	C	0.758730	-0.274918	-0.000199
C41	C	0.694770	-0.310930	-0.000185
C42	C	0.693396	-0.404960	-0.000181
C43	C	0.886641	-0.202893	-0.000236
C44	C	0.760107	-0.180883	-0.000201
C45	C	0.947601	0.112949	-0.000243
C46	C	1.024710	0.114414	-0.000268
C47	C	0.815707	0.284893	-0.000205
C48	C	0.817174	0.384968	-0.000204
N49	N	0.820597	0.120036	0.177946
N50	N	0.820646	0.120050	-0.178364
C51	C	0.867773	0.058585	0.217320
C52	C	0.867777	0.058581	0.296122
C53	C	0.820612	0.120043	0.335547
C54	C	0.773427	0.181499	0.296164
C55	C	0.773419	0.181495	0.217363
C56	C	0.811590	0.202186	0.460389
C57	C	0.811602	0.202191	0.539187
C58	C	0.820630	0.120054	0.578593
C59	C	0.829661	0.037908	0.539190
C60	C	0.829653	0.037905	0.460390
C61	C	0.820614	0.120053	0.420992
C62	C	0.867813	0.058593	0.703413
C63	C	0.867813	0.058588	0.782216
C64	C	0.773465	0.181514	0.782256
C65	C	0.773463	0.181511	0.703455
C66	C	0.820640	0.120052	0.664038
H67	H	0.147999	0.266113	-0.000239
O68	O	0.955619	-0.164055	-0.000255
H69	H	0.959268	-0.121744	0.050769
O70	O	0.409020	-0.009353	-0.091387
H71	H	0.446244	-0.051234	-0.054392
H72	H	0.016564	0.263609	-0.000259
H73	H	0.735050	0.231554	0.671394
H74	H	0.177758	-0.032025	-0.000248
O75	O	0.722527	0.247774	0.174894
H76	H	0.730442	0.237440	0.113477
O77	O	1.013952	-0.511548	-0.000243
H78	H	1.016365	-0.554911	-0.051269
H79	H	0.735022	0.231541	0.328267
H80	H	0.493234	-0.026016	-0.000196
H81	H	0.702522	-0.586339	-0.000180
O82	O	0.258437	-0.012213	-0.091417
H83	H	0.200912	-0.002707	-0.084069
H84	H	0.932075	-0.626258	-0.000228
O85	O	0.627280	-0.248345	-0.000161
H86	H	0.582572	-0.289177	-0.000145
H87	H	0.709148	-0.133651	-0.000192
H88	H	0.046319	-0.034525	-0.000321
O89	O	0.624419	-0.443809	-0.000156
H90	H	0.594352	-0.420502	-0.051176
O91	O	1.016824	-0.316101	-0.000275
H92	H	1.060105	-0.372242	-0.000293
O93	O	0.918704	-0.007697	0.824679
H94	H	0.889436	-0.051432	0.860593
H95	H	0.624677	-0.023524	-0.000151
H96	H	0.837004	-0.028981	0.428312
O97	O	0.918646	-0.007711	0.174804
H98	H	0.951447	-0.050450	0.215427
H99	H	0.906195	0.008538	0.328186
O100	O	0.839393	-0.050693	0.581678
H101	H	0.837871	-0.036895	0.643092
O102	O	0.918685	-0.007701	0.660889
H103	H	0.951483	-0.050446	0.701511
O104	O	0.722593	0.247811	0.824766
H105	H	0.730525	0.237494	0.886177
H106	H	0.804254	0.269079	0.571263
O107	O	0.801857	0.290782	0.417888
H108	H	0.795592	0.347901	0.458523
H109	H	0.463479	0.272114	-0.000180
O110	O	0.602321	0.296516	-0.000143
H111	H	0.584507	0.335662	-0.051164
O112	O	0.382817	0.252276	0.091000
H113	H	0.341075	0.295318	0.121512
H114	H	0.243457	0.232986	0.079354
