data_functionalizedCrystal
_audit_creation_method	'MofGen! by Chris Wilmer'
_symmetry_space_group_name_H-M	'P1'
_symmetry_Int_Tables_number	1
_symmetry_cell_setting	triclinic
loop_
_symmetry_equiv_pos_as_xyz
  x,y,z
_cell_length_a	27.732048
_cell_length_b	27.732048
_cell_length_c	13.596369
_cell_angle_alpha	90.000164
_cell_angle_beta	89.989067
_cell_angle_gamma	82.642655
loop_
_atom_site_label
_atom_site_type_symbol
_atom_site_fract_x
_atom_site_fract_y
_atom_site_fract_z
O1	O	0.057518	0.640928	-0.081675
O2	O	0.557518	1.140928	0.418325
O3	O	0.066263	0.500134	-0.081706
O4	O	0.566263	1.000134	0.418294
O5	O	-0.008506	0.574904	-0.081671
O6	O	0.491494	1.074904	0.418329
O7	O	0.132287	0.566158	-0.081710
O8	O	0.632287	1.066158	0.418290
O9	O	-0.008510	0.574896	0.081912
O10	O	0.491490	1.074896	0.581912
O11	O	0.066259	0.500127	0.081877
O12	O	0.566259	1.000127	0.581877
O13	O	0.057514	0.640920	0.081908
O14	O	0.557514	1.140920	0.581908
Zn15	Zn	0.061886	0.570522	0.107864
Zn16	Zn	0.561886	1.070522	0.607864
Zn17	Zn	0.061891	0.570532	-0.107663
Zn18	Zn	0.561891	1.070532	0.392337
O19	O	0.132283	0.566151	0.081872
O20	O	0.632283	1.066151	0.581872
C21	C	0.066078	0.482124	0.000081
C22	C	0.566078	0.982124	0.500081
C23	C	0.065525	0.428469	0.000070
C24	C	0.565525	0.928469	0.500070
C25	C	0.106229	0.089654	0.000101
C26	C	0.606229	0.589654	0.500101
C27	C	0.104178	-0.112006	0.000111
C28	C	0.604178	0.387994	0.500111
O29	O	0.141398	-0.143262	0.000143
O30	O	0.641398	0.356738	0.500143
N31	N	0.059843	-0.131130	0.000121
N32	N	0.559843	0.368870	0.500121
C33	C	0.016017	-0.099835	0.000136
C34	C	0.516017	0.400165	0.500136
O35	O	-0.021740	-0.120728	0.000156
O36	O	0.478260	0.379272	0.500156
C37	C	0.018068	0.101824	0.000134
C38	C	0.518068	0.601824	0.500134
C39	C	0.062407	0.120944	0.000113
C40	C	0.562407	0.620944	0.500113
C41	C	0.150563	0.108775	0.000082
C42	C	0.650563	0.608775	0.500082
C43	C	0.151075	0.159187	0.000074
C44	C	0.651075	0.659187	0.500074
C45	C	0.107253	0.190477	0.000086
C46	C	0.607253	0.690477	0.500086
C47	C	0.062919	0.171356	0.000106
C48	C	0.562919	0.671356	0.500106
C49	C	-0.025757	0.133117	0.000156
C50	C	0.474243	0.633117	0.500156
C51	C	-0.025240	0.183535	0.000158
C52	C	0.474760	0.683535	0.500158
C53	C	0.019098	0.202655	0.000137
C54	C	0.519098	0.702655	0.500137
C55	C	0.019609	0.253059	0.000110
C56	C	0.519609	0.753059	0.500110
N57	N	0.063944	0.272183	0.000099
N58	N	0.563944	0.772183	0.500099
C59	C	0.107766	0.240892	0.000087
C60	C	0.607766	0.740892	0.500087
C61	C	0.014943	-0.205709	0.000136
C62	C	0.514943	0.294291	0.500136
C63	C	0.014430	-0.256124	0.000134
C64	C	0.514430	0.243876	0.500134
C65	C	0.102591	-0.268291	0.000111
C66	C	0.602591	0.231709	0.500111
C67	C	0.103104	-0.217876	0.000105
C68	C	0.603104	0.282124	0.500105
C69	C	0.059278	-0.186585	0.000125
C70	C	0.559278	0.313415	0.500125
C71	C	0.108839	0.346761	0.000070
C72	C	0.608839	0.846761	0.500070
C73	C	0.109347	0.397178	0.000058
C74	C	0.609347	0.897178	0.500058
C75	C	0.021186	0.409341	0.000087
C76	C	0.521186	0.909341	0.500087
C77	C	0.020678	0.358929	0.000094
C78	C	0.520678	0.858929	0.500094
C79	C	0.064508	0.327639	0.000089
C80	C	0.564508	0.827639	0.500089
O81	O	-0.017592	0.284343	0.000089
O82	O	0.482408	0.784343	0.500089
O83	O	0.145518	0.261794	0.000090
O84	O	0.645518	0.761794	0.500090
C85	C	0.105716	0.039242	0.000109
C86	C	0.605716	0.539242	0.500109
C87	C	0.061382	0.020120	0.000129
C88	C	0.561382	0.520120	0.500129
C89	C	0.017560	0.051411	0.000141
C90	C	0.517560	0.551411	0.500141
C91	C	0.060869	-0.030294	0.000128
C92	C	0.560869	0.469706	0.500128
C93	C	0.104691	-0.061585	0.000116
C94	C	0.604691	0.438415	0.500116
C95	C	0.149026	-0.042461	0.000105
C96	C	0.649026	0.457539	0.500105
C97	C	0.149539	0.007951	0.000097
C98	C	0.649539	0.507951	0.500097
C99	C	-0.026775	0.032287	0.000151
C100	C	0.473225	0.532287	0.500151
C101	C	-0.027284	-0.018125	0.000158
C102	C	0.472716	0.481875	0.500158
C103	C	0.016538	-0.049416	0.000146
C104	C	0.516538	0.450584	0.500146
C105	C	-0.026515	0.574716	0.000123
C106	C	0.473485	1.074716	0.500123
C107	C	-0.080170	0.574164	0.000131
C108	C	0.419830	1.074164	0.500131
C109	C	-0.418985	0.614867	0.000090
C110	C	0.081015	1.114867	0.500090
C111	C	-0.620645	0.612816	0.000075
C112	C	-0.120645	1.112816	0.500075
O113	O	-0.651900	0.650037	0.000041
O114	O	-0.151900	1.150037	0.500041
N115	N	-0.639768	0.568481	0.000067
N116	N	-0.139768	1.068481	0.500067
C117	C	-0.608474	0.524656	0.000055
C118	C	-0.108474	1.024656	0.500055
O119	O	-0.629367	0.486899	0.000037
O120	O	-0.129367	0.986899	0.500037
C121	C	-0.406815	0.526707	0.000062
C122	C	0.093185	1.026707	0.500062
C123	C	-0.387694	0.571045	0.000081
C124	C	0.112306	1.071045	0.500081
C125	C	-0.399864	0.659202	0.000107
C126	C	0.100136	1.159202	0.500107
C127	C	-0.349452	0.659714	0.000116
C128	C	0.150548	1.159714	0.500116
C129	C	-0.318161	0.615892	0.000107
C130	C	0.181839	1.115892	0.500107
C131	C	-0.337282	0.571557	0.000090
C132	C	0.162718	1.071557	0.500090
C133	C	-0.375521	0.482882	0.000043
C134	C	0.124479	0.982882	0.500043
C135	C	-0.325104	0.483399	0.000042
C136	C	0.174896	0.983399	0.500042
C137	C	-0.305983	0.527737	0.000061
C138	C	0.194017	1.027737	0.500061
C139	C	-0.255580	0.528247	0.000090
C140	C	0.244420	1.028247	0.500090
N141	N	-0.236456	0.572583	0.000099
N142	N	0.263544	1.072583	0.500099
C143	C	-0.267747	0.616405	0.000107
C144	C	0.232253	1.116405	0.500107
C145	C	-0.714348	0.523582	0.000053
C146	C	-0.214348	1.023582	0.500053
C147	C	-0.764762	0.523069	0.000053
C148	C	-0.264762	1.023069	0.500053
C149	C	-0.776930	0.611230	0.000072
C150	C	-0.276930	1.111230	0.500072
C151	C	-0.726514	0.611742	0.000079
C152	C	-0.226514	1.111742	0.500079
C153	C	-0.695224	0.567917	0.000062
C154	C	-0.195224	1.067917	0.500062
C155	C	-0.161878	0.617477	0.000127
C156	C	0.338122	1.117477	0.500127
C157	C	-0.111461	0.617986	0.000140
C158	C	0.388539	1.117986	0.500140
C159	C	-0.099298	0.529825	0.000116
C160	C	0.400702	1.029825	0.500116
C161	C	-0.149710	0.529316	0.000108
C162	C	0.350290	1.029316	0.500108
C163	C	-0.180999	0.573147	0.000110
C164	C	0.319001	1.073147	0.500110
O165	O	-0.224296	0.491047	0.000113
O166	O	0.275704	0.991047	0.500113
O167	O	-0.246844	0.654156	0.000104
O168	O	0.253156	1.154156	0.500104
C169	C	-0.469397	0.614355	0.000081
C170	C	0.030603	1.114355	0.500081
C171	C	-0.488518	0.570021	0.000063
C172	C	0.011482	1.070021	0.500063
C173	C	-0.457228	0.526198	0.000054
C174	C	0.042772	1.026198	0.500054
C175	C	-0.538933	0.569508	0.000063
C176	C	-0.038933	1.069508	0.500063
C177	C	-0.570223	0.613330	0.000072
C178	C	-0.070223	1.113330	0.500072
C179	C	-0.551100	0.657665	0.000081
C180	C	-0.051100	1.157665	0.500081
C181	C	-0.500688	0.658177	0.000090
C182	C	-0.000688	1.158177	0.500090
C183	C	-0.476351	0.481863	0.000045
C184	C	0.023649	0.981863	0.500045
C185	C	-0.526764	0.481355	0.000037
C186	C	-0.026764	0.981355	0.500037
C187	C	-0.558054	0.525177	0.000046
C188	C	-0.058054	1.025177	0.500046
C189	C	0.150292	0.566338	0.000076
C190	C	0.650292	1.066338	0.500076
C191	C	0.203947	0.566891	0.000062
C192	C	0.703947	1.066891	0.500062
C193	C	0.057699	0.658931	0.000118
C194	C	0.557699	1.158931	0.500118
C195	C	0.058252	0.712586	0.000123
C196	C	0.558252	1.212586	0.500123
N197	N	0.061882	0.570519	0.254956
N198	N	0.561882	1.070519	0.754956
N199	N	0.061891	0.570539	-0.254755
N200	N	0.561891	1.070539	0.245245
C201	C	0.061892	0.570531	0.656247
C202	C	0.561892	1.070531	1.156247
C203	C	0.061891	0.570527	0.544596
C204	C	0.561891	1.070527	1.044596
C205	C	0.061887	0.570526	0.455605
C206	C	0.561887	1.070526	0.955605
C207	C	0.061886	0.570520	0.343947
C208	C	0.561886	1.070520	0.843947
H209	H	-0.060929	0.209009	0.000175
H210	H	0.439071	0.709009	0.500175
Br211	Br	-0.039496	0.332978	0.000125
Br212	Br	0.460504	0.832978	0.500125
H213	H	-0.073812	0.494146	0.000112
H214	H	0.426188	0.994146	0.500112
H215	H	-0.780325	0.486964	0.000055
H216	H	-0.280325	0.986964	0.500055
Br217	Br	-0.552706	0.421176	0.000019
Br218	Br	-0.052706	0.921176	0.500019
Br219	Br	-0.175661	0.469143	0.000105
Br220	Br	0.324339	0.969143	0.500105
H221	H	-0.187348	0.653168	0.000125
H222	H	0.312652	1.153168	0.500125
H223	H	0.138273	-0.293777	0.000101
H224	H	0.638273	0.206223	0.500101
H225	H	0.185643	0.023514	0.000082
H226	H	0.685643	0.523514	0.500082
Br227	Br	-0.433892	0.422384	0.000028
Br228	Br	0.066108	0.922384	0.500028
H229	H	0.186251	0.083302	0.000076
H230	H	0.686251	0.583302	0.500076
Br231	Br	0.208499	-0.084937	0.000082
Br232	Br	0.708499	0.415063	0.500082
H233	H	-0.014492	0.434827	0.000093
H234	H	0.485508	0.934827	0.500093
Br235	Br	0.211252	0.185128	0.000051
Br236	Br	0.711252	0.685128	0.500051
Br237	Br	-0.044540	-0.163250	0.000163
Br238	Br	0.455460	0.336750	0.500163
Br239	Br	-0.474746	0.718354	0.000109
Br240	Br	0.025254	1.218354	0.500109
H241	H	-0.333889	0.695819	0.000128
H242	H	0.166111	1.195819	0.500128
H243	H	-0.391080	0.446777	0.000022
H244	H	0.108920	0.946777	0.500022
Br245	Br	-0.085934	0.107181	0.000162
Br246	Br	0.414066	0.607181	0.500162
Br247	Br	-0.700570	0.671917	0.000106
Br248	Br	-0.200570	1.171917	0.500106
Br249	Br	-0.593575	0.717137	0.000100
Br250	Br	-0.093575	1.217137	0.500100
H251	H	-0.021674	-0.271687	0.000136
H252	H	0.478326	0.228313	0.500136
Br253	Br	-0.671889	0.464098	0.000028
Br254	Br	-0.171889	0.964098	0.500028
H255	H	-0.062462	0.057760	0.000163
H256	H	0.437538	0.557760	0.500163
Br257	Br	-0.282641	0.423918	0.000015
Br258	Br	0.217359	0.923918	0.500015
H259	H	0.145454	0.412743	0.000041
H260	H	0.645454	0.912743	0.500041
H261	H	0.144530	0.321291	0.000069
H262	H	0.644530	0.821291	0.500069
Br263	Br	-0.819405	0.670702	0.000081
Br264	Br	-0.319405	1.170702	0.500081
H265	H	0.139207	-0.202311	0.000094
H266	H	0.639207	0.297689	0.500094
H267	H	-0.063392	-0.033688	0.000167
H268	H	0.436608	0.466312	0.500167
Br269	Br	-0.085515	0.678163	0.000167
Br270	Br	0.414485	1.178163	0.500167
H271	H	-0.425336	0.694889	0.000111
H272	H	0.074664	1.194889	0.500111
