data_functionalizedCrystal
_audit_creation_method	'MofGen! by Chris Wilmer'
_symmetry_space_group_name_H-M	'P1'
_symmetry_Int_Tables_number	1
_symmetry_cell_setting	triclinic
loop_
_symmetry_equiv_pos_as_xyz
  x,y,z
_cell_length_a	30.570053
_cell_length_b	30.570502
_cell_length_c	30.570278
_cell_angle_alpha	90.003303
_cell_angle_beta	59.996720
_cell_angle_gamma	119.999734
loop_
_atom_site_label
_atom_site_type_symbol
_atom_site_fract_x
_atom_site_fract_y
_atom_site_fract_z
O1	O	0.385815	-0.300119	-0.013008
O2	O	0.296246	-0.236500	0.012956
O3	O	0.385817	-0.236505	-0.076619
O4	O	0.296244	-0.300115	0.076567
O5	O	0.313059	-0.309256	-0.076618
O6	O	0.223488	-0.309252	0.012957
O7	O	0.313057	-0.372871	-0.013007
Cu8	Cu	0.261629	-0.347704	-0.000025
Cu9	Cu	0.347674	-0.261667	-0.000026
O10	O	0.223486	-0.372866	0.076568
C11	C	0.128187	-0.159713	0.031454
C12	C	0.154263	-0.107068	0.031823
C13	C	0.048974	-0.159716	0.031450
C14	C	0.075170	-0.107071	0.031820
C15	C	0.128184	-0.080502	0.031451
C16	C	0.075172	-0.186162	0.031823
C17	C	0.134412	-0.239103	0.025029
C18	C	0.163405	-0.264207	0.020974
C19	C	0.217604	-0.237139	0.018940
C20	C	0.249044	-0.264355	0.014540
C21	C	0.242815	-0.184965	0.020965
C22	C	0.213822	-0.159863	0.025022
C23	C	0.159623	-0.186932	0.027052
C24	C	0.214002	0.005112	0.025023
C25	C	0.243163	0.059209	0.020965
C26	C	0.218131	0.086339	0.018927
C27	C	0.249749	0.144995	0.014524
C28	C	0.163932	0.059377	0.020952
C29	C	0.134770	0.005282	0.025013
C30	C	0.159807	-0.021848	0.027046
C31	C	-0.030209	-0.239109	0.025022
C32	C	-0.080244	-0.264214	0.020957
C33	C	-0.105341	-0.237148	0.018919
C34	C	-0.159595	-0.264367	0.014516
C35	C	-0.080408	-0.184977	0.020942
C36	C	-0.030373	-0.159870	0.025005
C37	C	-0.005276	-0.186938	0.027045
O38	O	-0.304592	-0.300129	0.076549
O39	O	-0.177355	-0.236524	-0.076638
O40	O	-0.177361	-0.236515	0.012936
O41	O	-0.304585	-0.300137	-0.013025
O42	O	-0.177357	-0.309268	0.012939
O43	O	-0.177351	-0.309276	-0.076635
O44	O	-0.304588	-0.372881	0.076552
Cu45	Cu	-0.240969	-0.347721	-0.000041
Cu46	Cu	-0.240974	-0.261683	-0.000044
O47	O	-0.304581	-0.372889	-0.013022
C48	C	0.560332	-0.080511	-0.400679
C49	C	0.534134	-0.107078	-0.348033
C50	C	0.481115	-0.159721	-0.400677
C51	C	0.455037	-0.186167	-0.348031
C52	C	0.481116	-0.159720	-0.321464
C53	C	0.534133	-0.107079	-0.427125
C54	C	0.639521	0.005098	-0.480071
C55	C	0.689564	0.059193	-0.505178
C56	C	0.714662	0.086325	-0.478111
C57	C	0.768920	0.144979	-0.505330
C58	C	0.689727	0.059366	-0.425938
C59	C	0.639688	0.005272	-0.400833
C60	C	0.614585	-0.021859	-0.427900
C61	C	0.474895	-0.159513	-0.235852
C62	C	0.445903	-0.184446	-0.181753
C63	C	0.391701	-0.236608	-0.154620
C64	C	0.360261	-0.263643	-0.095963
C65	C	0.366487	-0.263846	-0.181580
C66	C	0.395479	-0.238915	-0.235676
C67	C	0.449681	-0.186749	-0.262809
C68	C	0.474892	-0.159516	-0.480067
C69	C	0.445894	-0.184448	-0.505169
C70	C	0.391692	-0.236610	-0.478101
C71	C	0.360251	-0.263646	-0.505317
C72	C	0.366479	-0.263844	-0.425930
C73	C	0.395473	-0.238915	-0.400825
C74	C	0.449679	-0.186751	-0.427896
C75	C	0.527036	-0.420694	-0.027221
C76	C	0.581024	-0.393703	-0.023508
C77	C	0.500837	-0.473338	-0.027592
C78	C	0.447823	-0.420689	-0.027217
C79	C	0.417116	-0.393694	-0.023500
C80	C	0.421744	-0.473334	-0.027588
C81	C	0.447820	-0.499903	-0.027220
C82	C	0.417110	-0.557604	-0.023506
C83	C	0.500840	-0.394244	-0.027589
C84	C	0.392298	-0.604220	-0.020505
C85	C	0.624640	-0.371897	-0.020506
C86	C	0.392307	-0.371885	-0.020496
C87	C	0.361172	-0.662702	-0.016740
C88	C	0.679359	-0.344541	-0.016742
C89	C	0.361183	-0.344525	-0.016728
O90	O	0.313046	0.317520	-0.013022
O91	O	0.223477	0.164338	0.012938
O92	O	0.313052	0.253903	-0.076635
O93	O	0.223471	0.227955	0.076551
O94	O	0.385806	0.253906	-0.076632
O95	O	0.296232	0.164340	0.012941
O96	O	0.385800	0.317523	-0.013019
Cu97	Cu	0.347659	0.240932	-0.000039
Cu98	Cu	0.261618	0.240929	-0.000042
O99	O	0.296226	0.227957	0.076554
O100	O	0.296233	-0.300125	-0.613826
O101	O	0.385811	-0.236511	-0.550219
O102	O	0.296238	-0.236508	-0.550213
O103	O	0.385805	-0.300128	-0.613832
O104	O	0.223481	-0.309258	-0.477456
O105	O	0.313054	-0.309261	-0.477462
O106	O	0.223476	-0.372875	-0.541069
Cu107	Cu	0.261622	-0.347711	-0.502622
Cu108	Cu	0.347665	-0.261675	-0.588666
O109	O	0.313049	-0.372878	-0.541076
O110	O	0.913914	0.317501	-0.541086
O111	O	0.786680	0.164322	-0.477474
O112	O	0.786684	0.253894	-0.477470
O113	O	0.913910	0.227929	-0.541090
O114	O	0.786685	0.253895	-0.550225
O115	O	0.786681	0.164323	-0.550229
O116	O	0.913915	0.317502	-0.613842
Cu117	Cu	0.850298	0.240913	-0.588678
Cu118	Cu	0.850297	0.240912	-0.502637
O119	O	0.913911	0.227930	-0.613845
C120	C	0.082249	-0.499889	0.338360
C121	C	0.028260	-0.557588	0.365353
C122	C	0.108447	-0.473323	0.364809
C123	C	0.161467	-0.420678	0.259148
C124	C	0.192177	-0.393685	0.201446
C125	C	0.187544	-0.394233	0.285716
C126	C	0.161464	-0.420680	0.338362
C127	C	0.192172	-0.393689	0.365356
C128	C	0.108449	-0.473321	0.285715
C129	C	0.216982	-0.371884	0.387164
C130	C	-0.015357	-0.604203	0.387160
C131	C	0.216989	-0.371877	0.154828
C132	C	0.248106	-0.344528	0.414523
C133	C	-0.070077	-0.662684	0.414518
C134	C	0.248116	-0.344519	0.096344
C135	C	-0.552198	-0.420687	0.338345
C136	C	-0.582911	-0.393695	0.365338
C137	C	-0.578273	-0.473330	0.364793
C138	C	-0.472977	-0.420688	0.259132
C139	C	-0.418987	-0.393696	0.201429
C140	C	-0.499173	-0.473330	0.285700
C141	C	-0.552191	-0.499896	0.338346
C142	C	-0.582898	-0.557595	0.365340
C143	C	-0.499179	-0.394241	0.285699
C144	C	-0.607706	-0.604211	0.387148
C145	C	-0.607724	-0.371889	0.387145
C146	C	-0.375369	-0.371890	0.154812
C147	C	-0.638829	-0.662691	0.414508
C148	C	-0.638854	-0.344532	0.414503
C149	C	-0.320648	-0.344533	0.096328
C150	C	0.161458	0.213798	0.338342
C151	C	0.192165	0.217518	0.365336
C152	C	0.108444	0.213433	0.364787
C153	C	0.161458	0.213785	0.259129
C154	C	0.192166	0.217490	0.201428
C155	C	0.108444	0.213420	0.285694
C156	C	0.082247	0.213799	0.338338
C157	C	0.028261	0.217519	0.365328
C158	C	0.187535	0.213419	0.285698
C159	C	-0.015353	0.220525	0.387133
C160	C	0.216975	0.220524	0.387145
C161	C	0.216976	0.220484	0.154812
C162	C	-0.070069	0.224296	0.414488
C163	C	0.248099	0.224294	0.414504
C164	C	0.248100	0.224240	0.096330
C165	C	0.128213	-0.080532	-0.400698
C166	C	0.154295	-0.107099	-0.427144
C167	C	0.048998	-0.159741	-0.321483
C168	C	0.075200	-0.186187	-0.348050
C169	C	0.128219	-0.159742	-0.400696
C170	C	0.075195	-0.107098	-0.348052
C171	C	0.134429	0.005078	-0.400494
C172	C	0.163420	0.059173	-0.425430
C173	C	0.217623	0.086303	-0.477594
C174	C	0.249060	0.144958	-0.504633
C175	C	0.242839	0.059343	-0.504832
C176	C	0.213849	0.005250	-0.479898
C177	C	0.159646	-0.021880	-0.427729
C178	C	0.214045	-0.159536	-0.480086
C179	C	0.243212	-0.184470	-0.505191
C180	C	0.218181	-0.236632	-0.478123
C181	C	0.249805	-0.263668	-0.505340
C182	C	0.163979	-0.263868	-0.425949
C183	C	0.134812	-0.238937	-0.400846
C184	C	0.159847	-0.186771	-0.427915
C185	C	-0.030195	-0.159533	-0.235870
C186	C	-0.080234	-0.184463	-0.181769
C187	C	-0.105329	-0.236625	-0.154636
C188	C	-0.159588	-0.263660	-0.095978
C189	C	-0.080390	-0.263860	-0.181594
C190	C	-0.030351	-0.238932	-0.235692
C191	C	-0.005255	-0.186769	-0.262828
O192	O	-0.703764	-0.835647	0.449778
O193	O	-0.614196	-0.682468	0.386160
O194	O	-0.703763	-0.772041	0.386159
O195	O	-0.614197	-0.746074	0.449778
O196	O	-0.776524	-0.772039	0.458914
O197	O	-0.686956	-0.682466	0.458914
O198	O	-0.776525	-0.835645	0.522532
Cu199	Cu	-0.738384	-0.759055	0.497366
Cu200	Cu	-0.652336	-0.759058	0.411326
O201	O	-0.686957	-0.746072	0.522532
C202	C	0.560317	0.272357	-0.400683
C203	C	0.534119	0.272722	-0.427132
C204	C	0.481104	0.272370	-0.321474
C205	C	0.455026	0.272734	-0.348043
C206	C	0.481104	0.272355	-0.400687
C207	C	0.534119	0.272737	-0.348039
C208	C	0.639502	0.265932	-0.400473
C209	C	0.689542	0.261872	-0.425405
C210	C	0.714638	0.259827	-0.477567
C211	C	0.768893	0.255422	-0.504602
C212	C	0.689703	0.261848	-0.504807
C213	C	0.639668	0.265910	-0.479878
C214	C	0.614567	0.267950	-0.427711
C215	C	0.474881	0.265912	-0.480077
C216	C	0.445888	0.261849	-0.505183
C217	C	0.391689	0.259817	-0.478118
C218	C	0.360249	0.255409	-0.505336
C219	C	0.366477	0.261852	-0.425946
C220	C	0.395469	0.265917	-0.400842
C221	C	0.449669	0.267945	-0.427907
C222	C	0.474882	0.265958	-0.235861
C223	C	0.445886	0.261903	-0.181761
C224	C	0.391686	0.259871	-0.154631
C225	C	0.360247	0.255479	-0.095975
C226	C	0.366474	0.261889	-0.181591
C227	C	0.395465	0.265941	-0.235688
C228	C	0.449670	0.267976	-0.262820
H229	H	0.053251	-0.229417	0.032418
F230	F	0.137340	-0.319388	-0.397142
F231	F	-0.106771	-0.155474	-0.153082
F232	F	0.079782	0.212658	0.421325
F233	F	0.399279	-0.242704	-0.320152
H234	H	0.090639	-0.016670	0.026664
F235	F	0.079793	-0.501206	0.421343
H236	H	0.086522	0.212822	0.264360
H237	H	0.230206	-0.350979	0.264384
H238	H	0.466440	-0.162263	-0.159809
H239	H	0.379081	-0.494661	-0.028180
H240	H	-0.477242	-0.494657	0.264368
H241	H	-0.620935	-0.494656	0.408050
H242	H	0.090276	-0.261149	0.026688
F243	F	0.308790	0.259691	-0.397143
F244	F	0.612792	0.268107	-0.344954
F245	F	0.046533	-0.079219	-0.320173
H246	H	0.522763	-0.494667	-0.028188
H247	H	0.086520	-0.494650	0.264387
H248	H	0.556050	0.273316	-0.470388
H249	H	-0.009765	-0.117060	-0.257962
F250	F	-0.003503	-0.267920	0.027197
H251	H	-0.477285	-0.351001	0.264356
H252	H	0.374949	-0.261093	-0.257626
F253	F	0.529497	-0.337709	-0.028363
H254	H	0.230203	0.212833	0.264368
F255	F	0.368638	0.268082	-0.345319
F256	F	0.076740	-0.023795	-0.344972
F257	F	0.562791	-0.079201	-0.483663
F258	F	0.046545	-0.242721	-0.320168
H259	H	0.374930	0.267578	-0.257636
F260	F	0.532584	-0.103994	-0.264728
H261	H	0.196963	-0.085766	-0.470398
H262	H	0.142882	0.081118	-0.403250
F263	F	0.716076	0.259723	-0.396414
H264	H	0.286979	0.081442	-0.547310
H265	H	0.234381	-0.016700	-0.502077
H266	H	0.234431	-0.117062	-0.502132
F267	F	0.300894	-0.155481	-0.560717
H268	H	0.090677	-0.261116	-0.358368
H269	H	-0.100541	-0.306692	0.019310
F270	F	-0.107116	-0.156167	0.018766
H271	H	0.374938	-0.261091	-0.358343
F272	F	-0.003808	-0.267919	-0.264382
F273	F	-0.107098	-0.319378	-0.152712
F274	F	0.399264	0.273511	-0.320164
F275	F	0.562773	0.273514	-0.320157
H276	H	0.519015	0.267566	-0.502119
H277	H	0.466420	0.260261	-0.159815
F278	F	0.532572	0.268125	-0.264735
H279	H	0.322350	-0.306322	-0.159480
H280	H	0.466424	0.260194	-0.547662
F281	F	0.716419	0.259672	-0.560328
F282	F	0.137290	0.088257	0.018785
F283	F	0.613123	0.268050	-0.508862
F284	F	0.308782	0.259721	-0.152713
H285	H	0.234347	-0.117385	0.026675
F286	F	0.046523	-0.079187	0.032577
H287	H	0.556064	-0.085747	-0.326707
F288	F	0.210013	-0.079191	0.032615
F289	F	0.472730	-0.155460	-0.560692
F290	F	0.300502	-0.156158	0.018800
F291	F	0.136572	-0.319730	0.018820
H292	H	0.234389	-0.016977	0.026683
H293	H	0.287291	0.081154	0.019319
H294	H	-0.010074	-0.117390	0.026653
H295	H	0.619087	-0.016992	-0.502115
F296	F	0.532587	-0.104001	-0.508882
F297	F	0.716099	0.087880	-0.560701
H298	H	0.710170	0.081465	-0.403902
F299	F	0.308786	-0.319363	-0.397117
F300	F	0.613154	-0.023420	-0.345310
