data_functionalizedCrystal
_audit_creation_method	'MofGen! by Chris Wilmer'
_symmetry_space_group_name_H-M	'P1'
_symmetry_Int_Tables_number	1
_symmetry_cell_setting	triclinic
loop_
_symmetry_equiv_pos_as_xyz
  x,y,z
_cell_length_a	14.971486
_cell_length_b	14.586319
_cell_length_c	14.971486
_cell_angle_alpha	89.999606
_cell_angle_beta	96.385871
_cell_angle_gamma	90.000901
loop_
_atom_site_label
_atom_site_type_symbol
_atom_site_fract_x
_atom_site_fract_y
_atom_site_fract_z
O1	O	1.186947	0.076135	-0.116556
O2	O	1.520280	0.409469	0.216777
O3	O	1.853614	0.742802	0.550110
O4	O	0.926547	0.076160	-0.130515
O5	O	1.259880	0.409494	0.202818
O6	O	1.593214	0.742827	0.536151
O7	O	1.063726	0.076141	0.006664
O8	O	1.397060	0.409474	0.339998
O9	O	1.730393	0.742807	0.673331
O10	O	1.049768	0.076155	-0.253736
O11	O	1.383101	0.409488	0.079597
O12	O	1.716434	0.742822	0.412931
O13	O	1.063710	-0.076340	0.006656
O14	O	1.397043	0.256993	0.339989
O15	O	1.730376	0.590327	0.673323
O16	O	0.926530	-0.076320	-0.130523
O17	O	1.259864	0.257013	0.202810
O18	O	1.593197	0.590346	0.536143
O19	O	1.186930	-0.076345	-0.116565
O20	O	1.520264	0.256988	0.216769
O21	O	1.853597	0.590321	0.550102
Cu22	Cu	1.056729	-0.090256	-0.123545
Cu23	Cu	1.390062	0.243078	0.209789
Cu24	Cu	1.723395	0.576411	0.543122
Cu25	Cu	1.056749	0.090071	-0.123535
Cu26	Cu	1.390082	0.423404	0.209798
Cu27	Cu	1.723415	0.756737	0.543132
O28	O	1.049751	-0.076326	-0.253744
O29	O	1.383084	0.257008	0.079589
O30	O	1.716418	0.590341	0.412923
C31	C	0.893214	-0.000077	-0.129895
C32	C	1.226547	0.333256	0.203438
C33	C	1.559881	0.666590	0.536772
C34	C	0.793917	-0.000067	-0.128024
C35	C	1.127250	0.333266	0.205309
C36	C	1.460583	0.666599	0.538642
C37	C	0.736692	-0.000064	-0.208614
C38	C	1.070025	0.333269	0.124720
C39	C	1.403358	0.666602	0.458053
C40	C	0.643392	-0.000078	-0.206850
C41	C	0.976725	0.333255	0.126483
C42	C	1.310059	0.666589	0.459816
C43	C	0.607320	-0.000088	-0.124497
C44	C	0.940653	0.333245	0.208836
C45	C	1.273986	0.666578	0.542169
C46	C	0.664552	-0.000094	-0.043902
C47	C	0.997886	0.333239	0.289431
C48	C	1.331219	0.666572	0.622765
C49	C	0.757850	-0.000087	-0.045666
C50	C	1.091183	0.333246	0.287667
C51	C	1.424517	0.666580	0.621001
C52	C	0.470090	-0.000107	-0.040231
C53	C	0.803423	0.333226	0.293103
C54	C	1.136757	0.666559	0.626436
C55	C	0.376786	-0.000113	-0.038466
C56	C	0.710119	0.333221	0.294867
C57	C	1.043453	0.666554	0.628200
C58	C	0.355632	-0.000098	-0.201415
C59	C	0.688965	0.333235	0.131918
C60	C	1.022299	0.666569	0.465251
C61	C	0.448930	-0.000091	-0.203179
C62	C	0.782263	0.333242	0.130154
C63	C	1.115596	0.666576	0.463487
C64	C	0.506156	-0.000095	-0.122584
C65	C	0.839489	0.333238	0.210750
C66	C	1.172822	0.666572	0.544083
N67	N	1.056721	-0.217087	-0.123551
N68	N	1.390055	0.116246	0.209782
N69	N	1.723388	0.449579	0.543116
C70	C	1.111041	-0.452096	-0.177877
C71	C	1.444374	-0.118763	0.155457
C72	C	1.777708	0.214571	0.488790
C73	C	1.111050	-0.548077	-0.177870
C74	C	1.444384	-0.214744	0.155463
C75	C	1.777717	0.118589	0.488796
C76	C	1.002441	-0.548082	-0.069190
C77	C	1.335775	-0.214749	0.264143
C78	C	1.669108	0.118584	0.597477
C79	C	1.002437	-0.452103	-0.069192
C80	C	1.335771	-0.118769	0.264141
C81	C	1.669104	0.214564	0.597475
C82	C	1.056736	-0.404112	-0.123541
C83	C	1.390069	-0.070779	0.209793
C84	C	1.723402	0.262555	0.543126
C85	C	1.056749	-0.596073	-0.123532
C86	C	1.390082	-0.262740	0.209801
C87	C	1.723416	0.070594	0.543134
C88	C	1.056759	-0.700140	-0.123525
C89	C	1.390092	-0.366807	0.209808
C90	C	1.723425	-0.033473	0.543141
C91	C	1.056727	-0.300038	-0.123547
C92	C	1.390061	0.033295	0.209787
C93	C	1.723394	0.366628	0.543120
C94	C	1.220263	-0.000106	-0.117185
C95	C	1.553597	0.333227	0.216149
C96	C	1.886930	0.666560	0.549482
C97	C	1.319561	-0.000110	-0.119056
C98	C	1.652894	0.333224	0.214278
C99	C	1.986227	0.666557	0.547611
C100	C	1.063094	-0.000099	0.039985
C101	C	1.396427	0.333234	0.373318
C102	C	1.729761	0.666567	0.706651
C103	C	1.061223	-0.000098	0.139282
C104	C	1.394556	0.333235	0.472615
C105	C	1.727890	0.666568	0.805949
N106	N	1.056763	0.216902	-0.123522
N107	N	1.390096	0.550236	0.209811
N108	N	1.723430	0.883569	0.543145
C109	C	1.050384	-0.000084	-0.287065
C110	C	1.383717	0.333250	0.046269
C111	C	1.717050	0.666583	0.379602
C112	C	1.052254	-0.000079	-0.386362
C113	C	1.385588	0.333255	-0.053028
C114	C	1.718921	0.666588	0.280305
C115	C	1.141812	-0.000107	0.196507
C116	C	1.475146	0.333227	0.529841
C117	C	1.808479	0.666560	0.863174
C118	C	1.140049	-0.000097	0.289807
C119	C	1.473383	0.333236	0.623140
C120	C	1.806716	0.666569	0.956473
C121	C	1.057696	-0.000086	0.325879
C122	C	1.391029	0.333247	0.659212
C123	C	1.724363	0.666580	0.992546
C124	C	0.977101	-0.000075	0.268646
C125	C	1.310434	0.333258	0.601980
C126	C	1.643767	0.666592	0.935313
C127	C	0.978865	-0.000078	0.175349
C128	C	1.312198	0.333255	0.508682
C129	C	1.645531	0.666589	0.842015
C130	C	0.973430	-0.000071	0.463109
C131	C	1.306763	0.333262	0.796442
C132	C	1.640096	0.666595	1.129776
C133	C	0.971665	-0.000070	0.556413
C134	C	1.304998	0.333263	0.889746
C135	C	1.638332	0.666596	1.223080
C136	C	1.134614	-0.000091	0.577567
C137	C	1.467947	0.333242	0.910900
C138	C	1.801281	0.666576	1.244233
C139	C	1.136378	-0.000094	0.484269
C140	C	1.469712	0.333240	0.817603
C141	C	1.803045	0.666573	1.150936
C142	C	1.055782	-0.000084	0.427043
C143	C	1.389116	0.333249	0.760376
C144	C	1.722449	0.666582	1.093710
H145	H	0.766054	-0.000055	-0.275675
H146	H	1.099387	0.333278	0.057658
H147	H	1.432720	0.666611	0.390992
H148	H	0.596802	-0.000074	-0.272474
H149	H	0.930136	0.333259	0.060859
H150	H	1.263469	0.666592	0.394192
H151	H	0.516682	-0.000112	0.025399
H152	H	0.850015	0.333221	0.358732
H153	H	1.183348	0.666555	0.692066
H154	H	1.155272	-0.587142	-0.222115
H155	H	1.488605	-0.253808	0.111218
H156	H	1.821939	0.079525	0.444551
O157	O	0.337881	-0.000141	0.050359
O158	O	0.671214	0.333192	0.383692
O159	O	1.004548	0.666526	0.717025
H160	H	0.263391	-0.000138	0.038041
H161	H	0.596724	0.333195	0.371375
H162	H	0.930058	0.666529	0.704708
O163	O	0.487843	-0.000092	-0.292000
O164	O	0.821176	0.333242	0.041333
O165	O	1.154509	0.666575	0.374667
H166	H	0.432377	-0.000103	-0.347747
H167	H	0.765711	0.333230	-0.014414
H168	H	1.099044	0.666563	0.318919
H169	H	0.635175	-0.000116	0.023152
H170	H	0.968508	0.333217	0.356485
H171	H	1.301842	0.666551	0.689818
O172	O	0.293917	-0.000104	-0.288348
O173	O	0.627251	0.333229	0.044985
O174	O	0.960584	0.666563	0.378318
H175	H	0.222981	-0.000124	-0.273290
H176	H	0.556314	0.333209	0.060044
H177	H	0.889648	0.666543	0.393377
O178	O	1.226977	-0.000113	0.351521
O179	O	1.560310	0.333221	0.684854
O180	O	1.893643	0.666554	1.018188
H181	H	1.230091	0.062043	0.394525
H182	H	1.563424	0.395376	0.727858
H183	H	1.896758	0.728709	1.061191
O184	O	0.819579	-0.000088	0.041254
O185	O	1.152912	0.333246	0.374587
O186	O	1.486245	0.666579	0.707921
H187	H	0.778823	-0.000088	0.098817
H188	H	1.112157	0.333245	0.432150
H189	H	1.445490	0.666579	0.765483
O190	O	1.169609	-0.400330	-0.236485
O191	O	1.502942	-0.066997	0.096848
O192	O	1.836275	0.266337	0.430182
H193	H	1.207378	-0.449825	-0.274260
H194	H	1.540711	-0.116492	0.059073
H195	H	1.874045	0.216841	0.392406
H196	H	0.907800	-0.000061	0.416517
H197	H	1.241133	0.333272	0.749850
H198	H	1.574466	0.666605	1.083184
H199	H	0.958233	-0.587168	-0.024942
H200	H	1.291566	-0.253835	0.308391
H201	H	1.624899	0.079499	0.641724
H202	H	0.910047	-0.000060	0.298024
H203	H	1.243380	0.333273	0.631357
H204	H	1.576714	0.666607	0.964690
H205	H	0.958215	-0.413033	-0.024940
H206	H	1.291548	-0.079700	0.308393
H207	H	1.624882	0.253634	0.641726
H208	H	1.208874	-0.000122	0.167145
H209	H	1.542207	0.333212	0.500478
H210	H	1.875541	0.666545	0.833812
H211	H	1.203437	-0.000109	0.454903
H212	H	1.536771	0.333224	0.788236
H213	H	1.870104	0.666557	1.121569
H214	H	1.200238	-0.000096	0.624165
H215	H	1.533572	0.333238	0.957499
H216	H	1.866905	0.666571	1.290832
O217	O	0.882844	-0.000042	0.595326
O218	O	1.216178	0.333291	0.928659
O219	O	1.549511	0.666624	1.261993
H220	H	0.827097	-0.000019	0.539861
H221	H	1.160430	0.333314	0.873194
H222	H	1.493764	0.666648	1.206528
O223	O	0.891945	-0.000079	0.113620
O224	O	1.225278	0.333255	0.446953
O225	O	1.558611	0.666588	0.780287
H226	H	0.834382	-0.000081	0.154375
H227	H	1.167715	0.333252	0.487709
H228	H	1.501049	0.666586	0.821042
