data_functionalizedCrystal
_audit_creation_method	'MofGen! by Chris Wilmer'
_symmetry_space_group_name_H-M	'P1'
_symmetry_Int_Tables_number	1
_symmetry_cell_setting	triclinic
loop_
_symmetry_equiv_pos_as_xyz
  x,y,z
_cell_length_a	12.594516
_cell_length_b	16.120530
_cell_length_c	16.120297
_cell_angle_alpha	89.871860
_cell_angle_beta	87.122232
_cell_angle_gamma	87.111852
loop_
_atom_site_label
_atom_site_type_symbol
_atom_site_fract_x
_atom_site_fract_y
_atom_site_fract_z
Zn1	Zn	-0.539249	1.247493	0.534603
Zn2	Zn	-0.708692	1.254461	0.395557
Zn3	Zn	-0.521263	1.115482	0.388519
Zn4	Zn	-0.707712	1.108417	0.527526
O5	O	-0.619229	1.181463	0.461551
O6	O	-0.569664	1.364785	0.522065
O7	O	-0.676712	1.241897	0.278258
O8	O	-0.374707	1.133034	0.407914
O9	O	-0.694153	1.369904	0.419909
O10	O	-0.387921	1.230022	0.515241
O11	O	-0.539009	1.139790	0.273087
O12	O	-0.538058	0.998178	0.401052
O13	O	-0.692482	1.120993	0.644831
O14	O	-0.675042	0.992987	0.503180
O15	O	-0.568713	1.223172	0.650030
O16	O	-0.857504	1.235047	0.413047
O17	O	-0.856784	1.127749	0.510004
C18	C	-0.604493	0.965410	0.450585
C19	C	-0.598215	0.872980	0.445913
C20	C	-0.586730	0.703749	0.437391
C21	C	-0.651810	0.660015	0.485772
C22	C	-0.645420	0.565849	0.481031
C23	C	-0.593119	0.797924	0.442132
C24	C	-0.895766	1.181409	0.461540
C25	C	-1.014076	1.181461	0.461567
C26	C	-1.082974	1.123098	0.514263
C27	C	-1.147787	1.106686	0.437359
C28	C	-1.160068	1.197948	0.538488
C29	C	-1.077326	1.165010	0.384621
C30	C	-1.089606	1.256305	0.485803
C31	C	-1.154387	1.239924	0.408848
C32	C	-0.341615	1.181539	0.461582
C33	C	-0.223313	1.181572	0.461595
C34	C	-0.632495	1.170517	0.678446
C35	C	-0.638148	1.165853	0.770874
C36	C	-0.634024	1.398360	0.472561
C37	C	-0.640328	1.490789	0.477253
C38	C	-0.605942	1.192414	0.245502
C39	C	-0.600000	1.197240	0.153083
C40	C	-0.648443	1.157306	0.940100
C41	C	-0.589708	1.205784	0.983863
C42	C	-0.595436	1.201029	1.078026
C43	C	-0.642716	1.162061	0.845928
H44	H	-0.526218	0.670473	0.392412
C45	C	-0.515973	1.266682	0.938950
H46	H	-0.521755	1.261937	0.880636
H47	H	-0.444473	1.253838	0.952513
H48	H	-0.536223	1.321849	0.955981
C49	C	-0.722190	1.096426	0.985014
H50	H	-0.716419	1.101186	1.043327
H51	H	-0.701969	1.041256	0.967990
H52	H	-0.793691	1.109290	0.971449
H53	H	-0.712326	0.693293	0.530755
C54	C	-1.040607	1.056320	0.574363
H55	H	-1.060361	1.003213	0.557015
H56	H	-1.070083	1.067470	0.628833
H57	H	-0.965228	1.057070	0.574304
H58	H	-1.173578	1.043442	0.416881
H59	H	-1.185534	1.289330	0.364243
C60	C	-1.028673	1.146124	0.296731
H61	H	-0.953281	1.146168	0.297264
H62	H	-1.053679	1.187372	0.259262
H63	H	-1.049029	1.093163	0.279452
H64	H	-1.063819	1.319532	0.506317
C65	C	-1.208893	1.216732	0.626349
H66	H	-1.184409	1.175174	0.663706
H67	H	-1.284290	1.217142	0.625635
H68	H	-1.188078	1.269463	0.643916
