data_functionalizedCrystal
_audit_creation_method	'MofGen! by Chris Wilmer'
_symmetry_space_group_name_H-M	'P1'
_symmetry_Int_Tables_number	1
_symmetry_cell_setting	triclinic
loop_
_symmetry_equiv_pos_as_xyz
  x,y,z
_cell_length_a	16.109301
_cell_length_b	15.995350
_cell_length_c	15.186229
_cell_angle_alpha	89.998487
_cell_angle_beta	89.999362
_cell_angle_gamma	83.476928
loop_
_atom_site_label
_atom_site_type_symbol
_atom_site_fract_x
_atom_site_fract_y
_atom_site_fract_z
O1	O	1.103160	0.107624	-0.073168
O2	O	1.436493	0.440957	0.260165
O3	O	1.769826	0.774291	0.593498
O4	O	0.861101	0.121018	-0.073182
O5	O	1.194435	0.454351	0.260151
O6	O	1.527768	0.787684	0.593485
O7	O	0.988747	-0.007569	-0.073174
O8	O	1.322081	0.325765	0.260159
O9	O	1.655414	0.659098	0.593493
O10	O	0.975514	0.236210	-0.073176
O11	O	1.308847	0.569544	0.260157
O12	O	1.642180	0.902877	0.593490
O13	O	0.988739	-0.007570	0.073283
O14	O	1.322072	0.325763	0.406617
O15	O	1.655405	0.659096	0.739950
O16	O	0.861093	0.121016	0.073275
O17	O	1.194426	0.454349	0.406609
O18	O	1.527759	0.787683	0.739942
O19	O	1.103151	0.107622	0.073289
O20	O	1.436484	0.440956	0.406622
O21	O	1.769818	0.774289	0.739955
Zn22	Zn	0.982121	0.114319	0.096535
Zn23	Zn	1.315454	0.447652	0.429869
Zn24	Zn	1.648787	0.780985	0.763202
Zn25	Zn	0.982132	0.114321	-0.096428
Zn26	Zn	1.315465	0.447654	0.236905
Zn27	Zn	1.648798	0.780988	0.570238
O28	O	0.975505	0.236208	0.073281
O29	O	1.308838	0.569542	0.406614
O30	O	1.642172	0.902875	0.739948
C31	C	0.830122	0.120474	0.000045
C32	C	1.163455	0.453808	0.333378
C33	C	1.496789	0.787141	0.666712
C34	C	0.737826	0.118848	0.000040
C35	C	1.071160	0.452181	0.333373
C36	C	1.404493	0.785514	0.666706
C37	C	0.515573	0.191366	0.000049
C38	C	0.848907	0.524699	0.333382
C39	C	1.182240	0.858033	0.666716
C40	C	0.428853	0.189831	0.000055
C41	C	0.762186	0.523165	0.333388
C42	C	1.095519	0.856498	0.666721
C43	C	0.448686	0.037268	0.000053
C44	C	0.782019	0.370601	0.333386
C45	C	1.115352	0.703935	0.666719
C46	C	0.535405	0.038804	0.000053
C47	C	0.868738	0.372137	0.333387
C48	C	1.202072	0.705470	0.666720
C49	C	0.568846	0.115855	0.000047
C50	C	0.902179	0.449189	0.333380
C51	C	1.235513	0.782522	0.666714
C52	C	0.395406	0.112785	0.000052
C53	C	0.728740	0.446118	0.333385
C54	C	1.062073	0.779451	0.666719
C55	C	0.301380	0.111120	0.000058
C56	C	0.634713	0.444453	0.333392
C57	C	0.968046	0.777787	0.666725
C58	C	0.662879	0.117520	0.000043
C59	C	0.996212	0.450854	0.333376
C60	C	1.329545	0.784187	0.666709
C61	C	0.988196	-0.038764	0.000053
C62	C	1.321529	0.294569	0.333386
C63	C	1.654863	0.627903	0.666720
C64	C	0.986556	-0.131714	0.000048
C65	C	1.319889	0.201619	0.333381
C66	C	1.653222	0.534953	0.666715
C67	C	0.980665	-0.469460	0.000050
C68	C	1.313999	-0.136127	0.333384
C69	C	1.647332	0.197207	0.666717
C70	C	0.889758	-0.422001	-0.000283
C71	C	1.223091	-0.088668	0.333050
C72	C	1.556425	0.244666	0.666384
C73	C	0.891399	-0.325311	0.000047
C74	C	1.224732	0.008022	0.333380
C75	C	1.558065	0.341355	0.666714
C76	C	0.983587	-0.301900	0.000049
C77	C	1.316920	0.031433	0.333382
C78	C	1.650254	0.364767	0.666715
C79	C	1.028421	-0.342991	0.083684
C80	C	1.361754	-0.009658	0.417017
C81	C	1.695088	0.323676	0.750351
C82	C	1.026137	-0.439626	0.083754
C83	C	1.359470	-0.106293	0.417087
C84	C	1.692804	0.227041	0.750420
C85	C	1.028025	-0.439983	-0.082795
C86	C	1.361358	-0.106649	0.250538
C87	C	1.694691	0.226684	0.583871
C88	C	1.028003	-0.343037	-0.083901
C89	C	1.361337	-0.009704	0.249433
C90	C	1.694670	0.323629	0.582766
C91	C	0.985243	-0.207203	0.000051
C92	C	1.318577	0.126130	0.333384
C93	C	1.651910	0.459464	0.666717
C94	C	0.979012	-0.564157	0.000054
C95	C	1.312345	-0.230824	0.333388
C96	C	1.645679	0.102509	0.666721
C97	C	1.134130	0.108166	0.000060
C98	C	1.467464	0.441499	0.333393
C99	C	1.800797	0.774832	0.666727
C100	C	1.226426	0.109792	0.000059
C101	C	1.559759	0.443126	0.333393
C102	C	1.893093	0.776459	0.666726
C103	C	0.976056	0.267404	0.000052
C104	C	1.309390	0.600737	0.333385
C105	C	1.642723	0.934071	0.666719
C106	C	0.977697	0.360354	0.000051
C107	C	1.311030	0.693687	0.333385
C108	C	1.644363	1.027021	0.666718
N109	N	0.982119	0.114317	0.228228
N110	N	1.315452	0.447650	0.561561
N111	N	1.648786	0.780983	0.894895
N112	N	0.982140	0.114317	-0.228121
N113	N	1.315473	0.447650	0.105212
N114	N	1.648807	0.780983	0.438546
C115	C	1.038660	0.057398	0.453954
C116	C	1.371993	0.390731	0.787288
C117	C	1.705327	0.724064	1.120621
C118	C	1.038662	0.057396	0.546144
C119	C	1.371996	0.390729	0.879477
C120	C	1.705329	0.724062	1.212811
C121	C	0.925593	0.171238	0.546146
C122	C	1.258926	0.504572	0.879479
C123	C	1.592260	0.837905	1.212813
C124	C	0.925587	0.171236	0.453958
C125	C	1.258920	0.504569	0.787291
C126	C	1.592254	0.837902	1.120625
C127	C	0.982125	0.114316	0.407865
C128	C	1.315459	0.447650	0.741198
C129	C	1.648792	0.780983	1.074531
C130	C	0.982134	0.114317	0.592242
C131	C	1.315467	0.447650	0.925576
C132	C	1.648800	0.780984	1.258909
C133	C	0.982136	0.114315	0.692198
C134	C	1.315470	0.447649	1.025532
C135	C	1.648803	0.780982	1.358865
C136	C	0.982122	0.114317	0.307902
C137	C	1.315455	0.447650	0.641235
C138	C	1.648789	0.780983	0.974569
H139	H	0.421447	-0.025465	0.000063
H140	H	0.754780	0.307869	0.333396
H141	H	1.088114	0.641202	0.666730
C142	C	0.594009	-0.044268	0.000051
C143	C	0.927342	0.289065	0.333385
C144	C	1.260676	0.622398	0.666718
N145	N	0.638150	-0.106836	0.000052
N146	N	0.971483	0.226497	0.333385
N147	N	1.304816	0.559831	0.666719
C148	C	0.843781	-0.286897	-0.080943
C149	C	1.177114	0.046436	0.252390
C150	C	1.510447	0.379769	0.585724
N151	N	0.807908	-0.257967	-0.141945
N152	N	1.141242	0.075366	0.191388
N153	N	1.474575	0.408699	0.524722
H154	H	1.084695	0.011050	0.416427
H155	H	1.418029	0.344383	0.749761
H156	H	1.751362	0.677716	1.083094
H157	H	1.095050	-0.471762	-0.083356
H158	H	1.428384	-0.138428	0.249977
H159	H	1.761717	0.194905	0.583310
H160	H	0.855912	-0.297438	0.060099
H161	H	1.189245	0.035896	0.393432
H162	H	1.522579	0.369229	0.726765
H163	H	1.084697	0.011047	0.583668
H164	H	1.418030	0.344380	0.917001
H165	H	1.751364	0.677713	1.250334
C166	C	0.863403	0.233844	0.596858
C167	C	1.196736	0.567178	0.930191
C168	C	1.530070	0.900511	1.263524
N169	N	0.816560	0.281001	0.635052
N170	N	1.149893	0.614334	0.968386
N171	N	1.483226	0.947667	1.301719
H172	H	0.385481	0.251320	0.000058
H173	H	0.718814	0.584653	0.333392
H174	H	1.052147	0.917987	0.666725
C175	C	0.552355	0.276125	0.000053
C176	C	0.885689	0.609458	0.333387
C177	C	1.219022	0.942791	0.666720
N178	N	0.580057	0.339968	0.000061
N179	N	0.913390	0.673301	0.333394
N180	N	1.246724	1.006634	0.666728
C181	C	0.840669	-0.447031	-0.081303
C182	C	1.174002	-0.113697	0.252031
C183	C	1.507336	0.219636	0.585364
N184	N	0.803693	-0.465891	-0.142327
N185	N	1.137026	-0.132558	0.191006
N186	N	1.470360	0.200775	0.524339
H187	H	0.879546	0.217586	0.416429
H188	H	1.212879	0.550919	0.749763
H189	H	1.546212	0.884252	1.083096
C190	C	0.840893	-0.448433	0.080304
C191	C	1.174226	-0.115099	0.413638
C192	C	1.507560	0.218234	0.746971
N193	N	0.804094	-0.468334	0.141011
N194	N	1.137427	-0.135001	0.474344
N195	N	1.470760	0.198333	0.807677
H196	H	0.993437	-0.457919	0.146271
H197	H	1.326770	-0.124586	0.479605
H198	H	1.660104	0.208747	0.812938
H199	H	1.092880	-0.471892	0.087550
H200	H	1.426213	-0.138559	0.420883
H201	H	1.759546	0.194774	0.754216
H202	H	1.096149	-0.328884	0.086795
H203	H	1.429482	0.004450	0.420129
H204	H	1.762816	0.337783	0.753462
C205	C	0.986340	-0.304646	0.167765
C206	C	1.319673	0.028688	0.501099
C207	C	1.653006	0.362021	0.834432
N208	N	0.954639	-0.275766	0.231094
N209	N	1.287972	0.057567	0.564427
N210	N	1.621305	0.390901	0.897761
C211	C	0.987874	-0.467714	-0.168434
C212	C	1.321207	-0.134381	0.164900
C213	C	1.654540	0.198952	0.498233
N214	N	0.957622	-0.488600	-0.232932
N215	N	1.290956	-0.155267	0.100401
N216	N	1.624289	0.178066	0.433735
C217	C	0.983762	-0.306165	-0.167489
C218	C	1.317095	0.027169	0.165844
C219	C	1.650428	0.360502	0.499177
N220	N	0.950431	-0.278394	-0.230447
N221	N	1.283764	0.054939	0.102887
N222	N	1.617098	0.388272	0.436220
H223	H	1.095231	-0.327694	-0.088949
H224	H	1.428564	0.005640	0.244384
H225	H	1.761898	0.338973	0.577717
