data_functionalizedCrystal
_audit_creation_method	'MofGen! by Chris Wilmer'
_symmetry_space_group_name_H-M	'P1'
_symmetry_Int_Tables_number	1
_symmetry_cell_setting	triclinic
loop_
_symmetry_equiv_pos_as_xyz
  x,y,z
_cell_length_a	19.121321
_cell_length_b	19.121063
_cell_length_c	16.959447
_cell_angle_alpha	92.406624
_cell_angle_beta	92.425678
_cell_angle_gamma	89.929715
loop_
_atom_site_label
_atom_site_type_symbol
_atom_site_fract_x
_atom_site_fract_y
_atom_site_fract_z
Zn1	Zn	1.059784	-0.324740	-0.411576
Zn2	Zn	1.393118	0.008593	-0.078243
Zn3	Zn	1.726451	0.341927	0.255091
Zn4	Zn	1.054698	-0.441984	-0.285261
Zn5	Zn	1.388032	-0.108651	0.048072
Zn6	Zn	1.721365	0.224682	0.381406
Zn7	Zn	0.942559	-0.319775	-0.284805
Zn8	Zn	1.275892	0.013558	0.048528
Zn9	Zn	1.609226	0.346891	0.381861
Zn10	Zn	0.937513	-0.436947	-0.422786
Zn11	Zn	1.270847	-0.103613	-0.089453
Zn12	Zn	1.604180	0.229720	0.243881
O13	O	0.998639	-0.380862	-0.351107
O14	O	1.331972	-0.047528	-0.017774
O15	O	1.665305	0.285805	0.315560
O16	O	1.157211	-0.344479	-0.390319
O17	O	1.490545	-0.011145	-0.056986
O18	O	1.823878	0.322188	0.276347
O19	O	1.039806	-0.425804	-0.174592
O20	O	1.373139	-0.092470	0.158741
O21	O	1.706472	0.240863	0.492075
O22	O	0.962349	-0.222330	-0.296740
O23	O	1.295683	0.111003	0.036594
O24	O	1.629016	0.444337	0.369927
O25	O	1.153474	-0.430618	-0.297516
O26	O	1.486808	-0.097284	0.035817
O27	O	1.820141	0.236049	0.369150
O28	O	1.048474	-0.225978	-0.389878
O29	O	1.381808	0.107356	-0.056544
O30	O	1.715141	0.440689	0.276789
O31	O	0.957417	-0.336017	-0.174257
O32	O	1.290751	-0.002684	0.159076
O33	O	1.624084	0.330650	0.492409
O34	O	0.843788	-0.331132	-0.307610
O35	O	1.177121	0.002201	0.025724
O36	O	1.510455	0.335534	0.359057
O37	O	0.953750	-0.422032	-0.531908
O38	O	1.287083	-0.088698	-0.198574
O39	O	1.620416	0.244635	0.134759
O40	O	0.840081	-0.417218	-0.408983
O41	O	1.173414	-0.083884	-0.075650
O42	O	1.506748	0.249449	0.257683
O43	O	1.043582	-0.339594	-0.523672
O44	O	1.376915	-0.006261	-0.190338
O45	O	1.710248	0.327073	0.142995
O46	O	1.034913	-0.539420	-0.308386
O47	O	1.368247	-0.206087	0.024947
O48	O	1.701580	0.127247	0.358281
O49	O	0.948818	-0.535719	-0.409425
O50	O	1.282151	-0.202385	-0.076092
O51	O	1.615485	0.130948	0.257242
C52	C	0.816498	-0.373090	-0.359464
C53	C	1.149831	-0.039757	-0.026131
C54	C	1.483165	0.293577	0.307203
C55	C	0.738577	-0.369782	-0.363059
C56	C	1.071910	-0.036449	-0.029725
C57	C	1.405243	0.296884	0.303608
C58	C	0.297969	-0.348772	-0.385851
C59	C	0.631302	-0.015439	-0.052518
C60	C	0.964636	0.317894	0.280815
C61	C	0.371184	-0.351893	-0.382470
C62	C	0.704517	-0.018560	-0.049137
C63	C	1.037850	0.314773	0.284197
C64	C	0.405840	-0.398228	-0.332376
C65	C	0.739173	-0.064895	0.000957
C66	C	1.072506	0.268439	0.334291
C67	C	0.367277	-0.441449	-0.285666
C68	C	0.700610	-0.108116	0.047667
C69	C	1.033944	0.225217	0.381000
C70	C	0.294063	-0.438331	-0.289052
C71	C	0.627397	-0.104998	0.044281
C72	C	0.960730	0.228335	0.377614
C73	C	0.626800	-0.409886	-0.319735
C74	C	0.960133	-0.076552	0.013598
C75	C	1.293467	0.256781	0.346932
C76	C	0.700019	-0.412999	-0.316351
C77	C	1.033352	-0.079666	0.016983
C78	C	1.366686	0.253668	0.350316
C79	C	0.703921	-0.323443	-0.413156
C80	C	1.037254	0.009890	-0.079822
C81	C	1.370587	0.343223	0.253511
C82	C	0.630706	-0.320327	-0.416534
C83	C	0.964039	0.013007	-0.083200
C84	C	1.297372	0.346340	0.250133
C85	C	0.592149	-0.363550	-0.369827
C86	C	0.925482	-0.030217	-0.036494
C87	C	1.258816	0.303116	0.296839
C88	C	0.480677	-0.401418	-0.328917
C89	C	0.814010	-0.068084	0.004417
C90	C	1.147344	0.265249	0.337750
C91	C	0.517313	-0.360364	-0.373291
C92	C	0.850646	-0.027030	-0.039958
C93	C	1.183980	0.306303	0.293375
C94	C	0.990785	-0.563007	-0.360188
C95	C	1.324119	-0.229674	-0.026854
C96	C	1.657452	0.103659	0.306479
C97	C	0.987490	-0.640933	-0.364096
C98	C	1.320823	-0.307600	-0.030762
C99	C	1.654156	0.025734	0.302571
C100	C	1.030801	-0.679448	-0.313367
C101	C	1.364135	-0.346114	0.019967
C102	C	1.697468	-0.012781	0.353300
C103	C	1.027706	-0.752667	-0.317047
C104	C	1.361039	-0.419334	0.016287
C105	C	1.694373	-0.086000	0.349620
C106	C	0.981295	-0.787370	-0.371453
C107	C	1.314628	-0.454037	-0.038119
C108	C	1.647962	-0.120703	0.295214
C109	C	0.937981	-0.748850	-0.422187
C110	C	1.271315	-0.415517	-0.088854
C111	C	1.604648	-0.082183	0.244479
C112	C	0.941081	-0.675632	-0.418511
C113	C	1.274414	-0.342299	-0.085177
C114	C	1.607747	-0.008966	0.248156
C115	C	0.969696	-1.008345	-0.385188
C116	C	1.303029	-0.675012	-0.051854
C117	C	1.636362	-0.341679	0.281479
C118	C	0.966598	-1.081568	-0.388859
C119	C	1.299931	-0.748235	-0.055526
C120	C	1.633265	-0.414902	0.277808
C121	C	1.056324	-1.085380	-0.283719
C122	C	1.389657	-0.752047	0.049614
C123	C	1.722991	-0.418713	0.382948
C124	C	1.059416	-1.012161	-0.280044
C125	C	1.392750	-0.678827	0.053290
C126	C	1.726083	-0.345494	0.386623
C127	C	1.016105	-0.973647	-0.330781
C128	C	1.349439	-0.640314	0.002552
C129	C	1.682772	-0.306980	0.335886
C130	C	0.978128	-0.862212	-0.375214
C131	C	1.311462	-0.528878	-0.041881
C132	C	1.644795	-0.195545	0.291453
C133	C	1.019276	-0.898807	-0.327023
C134	C	1.352609	-0.565474	0.006310
C135	C	1.685943	-0.232140	0.339644
C136	C	1.181491	-0.388664	-0.342718
C137	C	1.514824	-0.055331	-0.009385
C138	C	1.848157	0.278003	0.323948
C139	C	1.259411	-0.391989	-0.339143
C140	C	1.592745	-0.058656	-0.005810
C141	C	1.926078	0.274678	0.327523
C142	C	0.998670	-0.380805	-0.557271
C143	C	1.332004	-0.047471	-0.223938
C144	C	1.665337	0.285862	0.109395
C145	C	0.998684	-0.380781	-0.645126
C146	C	1.332017	-0.047447	-0.311793
C147	C	1.665351	0.285886	0.021541
C148	C	1.006542	-0.198005	-0.342008
C149	C	1.339875	0.135328	-0.008674
C150	C	1.673209	0.468661	0.324659
C151	C	1.009910	-0.120083	-0.338130
C152	C	1.343243	0.213250	-0.004797
C153	C	1.676576	0.546584	0.328537
C154	C	0.951999	-0.423632	-1.020885
C155	C	1.285333	-0.090298	-0.687551
C156	C	1.618666	0.243035	-0.354218
C157	C	1.045542	-0.337789	-1.012304
C158	C	1.378876	-0.004455	-0.678970
C159	C	1.712209	0.328878	-0.345637
C160	C	1.045523	-0.337803	-0.929759
C161	C	1.378856	-0.004469	-0.596426
C162	C	1.712190	0.328864	-0.263093
C163	C	0.998742	-0.380733	-0.892774
C164	C	1.332075	-0.047399	-0.559441
C165	C	1.665408	0.285934	-0.226107
C166	C	0.951980	-0.423649	-0.938333
C167	C	1.285313	-0.090315	-0.605000
C168	C	1.618647	0.243018	-0.271666
C169	C	1.092289	-0.294893	-0.884195
C170	C	1.425622	0.038440	-0.550861
C171	C	1.758955	0.371774	-0.217528
C172	C	1.092272	-0.294906	-0.801645
C173	C	1.425605	0.038428	-0.468312
C174	C	1.758938	0.371761	-0.134978
C175	C	1.045487	-0.337833	-0.764658
C176	C	1.378820	-0.004499	-0.431325
C177	C	1.712153	0.328834	-0.097991
C178	C	0.998722	-0.380750	-0.810222
C179	C	1.332056	-0.047416	-0.476889
C180	C	1.665389	0.285917	-0.143556
C181	C	0.951941	-0.423680	-0.773237
C182	C	1.285275	-0.090346	-0.439903
C183	C	1.618608	0.242987	-0.106570
C184	C	0.905173	-0.466594	-0.818799
C185	C	1.238507	-0.133260	-0.485466
C186	C	1.571840	0.200073	-0.152133
C187	C	0.905195	-0.466575	-0.901346
C188	C	1.238528	-0.133242	-0.568013
C189	C	1.571862	0.200091	-0.234679
C190	C	1.045465	-0.337851	-0.682111
C191	C	1.378798	-0.004517	-0.348778
C192	C	1.712132	0.328816	-0.015445
C193	C	0.951922	-0.423697	-0.690685
C194	C	1.285255	-0.090363	-0.357352
C195	C	1.618589	0.242970	-0.024018
C196	C	0.998650	-0.380869	-0.145741
C197	C	1.331983	-0.047536	0.187593
C198	C	1.665316	0.285797	0.520926
C199	C	0.998780	-0.380702	-0.057870
C200	C	1.332114	-0.047368	0.275463
C201	C	1.665447	0.285965	0.608796
H202	H	0.728233	-0.450733	-0.275557
H203	H	1.061567	-0.117399	0.057777
H204	H	1.394900	0.215934	0.391110
H205	H	0.913920	-0.458569	-1.057985
H206	H	1.247253	-0.125236	-0.724652
H207	H	1.580587	0.208098	-0.391319
H208	H	0.905813	-0.644274	-0.459821
H209	H	1.239146	-0.310941	-0.126487
H210	H	1.572479	0.022393	0.206846
H211	H	0.913821	-0.458649	-0.660578
H212	H	1.247154	-0.125316	-0.327244
H213	H	1.580487	0.208017	0.006089
H214	H	1.130379	-0.259946	-0.914314
H215	H	1.463713	0.073387	-0.580981
H216	H	1.797046	0.406721	-0.247648
H217	H	0.395499	-0.479179	-0.244882
H218	H	0.728833	-0.145846	0.088451
H219	H	1.062166	0.187488	0.421785
H220	H	1.130353	-0.259962	-0.764555
H221	H	1.463686	0.073371	-0.431221
H222	H	1.797020	0.406704	-0.097888
H223	H	0.940339	-0.890475	-0.419510
H224	H	1.273672	-0.557142	-0.086177
H225	H	1.607005	-0.223808	0.247157
H226	H	1.097208	-0.983907	-0.235742
H227	H	1.430541	-0.650574	0.097591
H228	H	1.763875	-0.317240	0.430925
H229	H	1.057067	-0.870550	-0.282728
H230	H	1.390400	-0.537216	0.050605
H231	H	1.723733	-0.203883	0.383938
H232	H	0.595416	-0.445080	-0.281701
H233	H	0.928749	-0.111746	0.051633
H234	H	1.262083	0.221587	0.384966
H235	H	0.900195	-0.777111	-0.466489
H236	H	1.233529	-0.443778	-0.133156
H237	H	1.566862	-0.110445	0.200177
H238	H	1.091586	-1.116745	-0.242412
H239	H	1.424920	-0.783412	0.090921
H240	H	1.758253	-0.450079	0.424254
H241	H	0.402574	-0.316704	-0.420507
H242	H	0.735908	0.016629	-0.087174
H243	H	1.069241	0.349963	0.246159
H244	H	0.602494	-0.282598	-0.457329
H245	H	0.935827	0.050735	-0.123995
H246	H	1.269160	0.384068	0.209338
H247	H	0.928813	-1.109822	-0.433176
H248	H	1.262146	-0.776488	-0.099843
H249	H	1.595480	-0.443155	0.233490
H250	H	1.083545	-0.302913	-0.645018
H251	H	1.416878	0.030421	-0.311685
H252	H	1.750211	0.363754	0.021649
H253	H	0.262670	-0.473524	-0.251019
H254	H	0.596004	-0.140191	0.082314
H255	H	0.929337	0.193142	0.415647
H256	H	0.934429	-0.976993	-0.426499
H257	H	1.267762	-0.643660	-0.093165
H258	H	1.601096	-0.310327	0.240168
H259	H	0.269758	-0.311037	-0.426638
H260	H	0.603091	0.022296	-0.093305
H261	H	0.936424	0.355629	0.240029
H262	H	1.083633	-0.302841	-1.042423
H263	H	1.416966	0.030492	-0.709089
H264	H	1.750300	0.363826	-0.375756
H265	H	0.867121	-0.501516	-0.938450
H266	H	1.200454	-0.168183	-0.605117
H267	H	1.533788	0.165151	-0.271784
H268	H	0.735321	-0.288254	-0.451182
H269	H	1.068655	0.045080	-0.117849
H270	H	1.401988	0.378413	0.215484
H271	H	0.508902	-0.439141	-0.288127
H272	H	0.842236	-0.105808	0.045206
H273	H	1.175569	0.227526	0.378540
H274	H	0.867087	-0.501550	-0.788675
H275	H	1.200420	-0.168217	-0.455342
H276	H	1.533754	0.165116	-0.122008
H277	H	1.068591	-0.651197	-0.269060
H278	H	1.401924	-0.317864	0.064273
H279	H	1.735258	0.015469	0.397607
H280	H	1.062975	-0.784022	-0.275737
H281	H	1.396308	-0.450689	0.057596
H282	H	1.729641	-0.117356	0.390930
H283	H	0.489093	-0.322641	-0.414080
H284	H	0.822426	0.010693	-0.080747
H285	H	1.155759	0.344026	0.252586
