data_functionalizedCrystal
_audit_creation_method	'MofGen! by Chris Wilmer'
_symmetry_space_group_name_H-M	'P1'
_symmetry_Int_Tables_number	1
_symmetry_cell_setting	triclinic
loop_
_symmetry_equiv_pos_as_xyz
  x,y,z
_cell_length_a	12.759400
_cell_length_b	19.077105
_cell_length_c	19.077579
_cell_angle_alpha	94.699334
_cell_angle_beta	87.678171
_cell_angle_gamma	92.288832
loop_
_atom_site_label
_atom_site_type_symbol
_atom_site_fract_x
_atom_site_fract_y
_atom_site_fract_z
Zn1	Zn	-0.457488	-1.093759	-0.441867
Zn2	Zn	-0.639964	-1.088965	-0.323985
Zn3	Zn	-0.457506	-0.971144	-0.319263
Zn4	Zn	-0.626329	-0.975857	-0.437104
O5	O	-0.545322	-1.032431	-0.380555
O6	O	-0.487393	-1.191774	-0.430199
O7	O	-0.621475	-1.069357	-0.224707
O8	O	-0.310483	-0.987443	-0.335544
O9	O	-0.621457	-1.188252	-0.343592
O10	O	-0.310470	-1.077527	-0.425621
O11	O	-0.487423	-0.982795	-0.221238
O12	O	-0.474201	-0.873118	-0.330925
O13	O	-0.598218	-0.995476	-0.536386
O14	O	-0.598235	-0.876581	-0.417502
O15	O	-0.474171	-1.082097	-0.539886
O16	O	-0.785176	-1.073928	-0.338973
O17	O	-0.775158	-0.990828	-0.422081
C18	C	-0.534741	-0.849271	-0.373185
C19	C	-0.530239	-0.770915	-0.370049
C20	C	-0.818287	-1.032389	-0.380538
C21	C	-0.935066	-1.032436	-0.380557
C22	C	-0.534671	-1.039847	-0.564431
C23	C	-0.530133	-1.043007	-0.642788
C24	C	-0.995109	-1.075758	-0.337335
C25	C	-1.104834	-1.075802	-0.337358
C26	C	-1.094463	-0.989196	-0.423829
C27	C	-0.984739	-0.989156	-0.423808
C28	C	-0.945435	-1.119038	-0.294084
C29	C	-1.005479	-1.162363	-0.250857
C30	C	-1.115205	-1.162407	-0.250881
C31	C	-1.164886	-1.119126	-0.294131
C32	C	-0.271290	-1.032494	-0.380587
C33	C	-0.154514	-1.032520	-0.380601
C34	C	-0.555944	-1.216307	-0.387954
C35	C	-0.560471	-1.294664	-0.391107
C36	C	-0.592807	-0.735921	-0.413580
C37	C	-0.588563	-0.662297	-0.410637
C38	C	-0.521756	-0.623668	-0.364158
C39	C	-0.459181	-0.658667	-0.320624
C40	C	-0.463420	-0.732289	-0.323572
C41	C	-0.502135	-0.403285	-0.350520
C42	C	-0.497903	-0.329657	-0.347575
C43	C	-0.627284	-0.333293	-0.437589
C44	C	-0.631522	-0.406917	-0.440529
C45	C	-0.568943	-0.441909	-0.396998
N46	N	-0.517418	-0.548413	-0.361147
N47	N	-0.573276	-0.517163	-0.400014
C48	C	-0.497659	-1.065673	-1.084052
C49	C	-0.501928	-1.062699	-1.010427
C50	C	-0.568641	-1.016110	-0.971796
C51	C	-0.631096	-0.972496	-1.006793
C52	C	-0.626832	-0.975474	-1.080417
C53	C	-0.588324	-1.002371	-0.751409
C54	C	-0.592581	-0.999395	-0.677780
C55	C	-0.463414	-1.089600	-0.681419
C56	C	-0.459151	-1.092571	-0.755044
C57	C	-0.521610	-1.048960	-0.790035
N58	N	-0.573004	-1.013068	-0.896539
N59	N	-0.517252	-1.052006	-0.865291
C60	C	-0.555857	-1.025085	-0.197395
C61	C	-0.560107	-1.022061	-0.119044
H62	H	-0.856092	-1.119005	-0.294058
C63	C	-1.149105	-0.941588	-0.471397
H64	H	-1.097629	-0.915784	-0.497141
H65	H	-1.191756	-0.909821	-0.443179
H66	H	-1.191629	-0.969791	-0.503229
H67	H	-0.685420	-0.934565	-0.975334
C68	C	-0.385690	-0.616180	-0.269499
H69	H	-0.349026	-0.647567	-0.244000
H70	H	-0.425933	-0.586207	-0.237585
H71	H	-0.336754	-0.588562	-0.295375
C72	C	-0.665969	-0.948147	-0.635284
H73	H	-0.659551	-0.952616	-0.586425
H74	H	-0.736459	-0.958934	-0.647750
H75	H	-0.647151	-0.901270	-0.645451
C76	C	-0.394598	-0.770785	-0.275688
H77	H	-0.406682	-0.820165	-0.284105
H78	H	-0.411907	-0.756799	-0.227820
H79	H	-0.322732	-0.759149	-0.285612
C80	C	-0.424278	-1.116922	-1.126543
H81	H	-0.430674	-1.112447	-1.175403
H82	H	-0.443095	-1.163795	-1.116375
H83	H	-0.353785	-1.106133	-1.114072
H84	H	-0.677685	-0.939961	-1.108907
C85	C	-0.918688	-0.941507	-0.471355
H86	H	-0.963985	-0.915731	-0.497111
H87	H	-0.875611	-0.969679	-0.503166
H88	H	-0.875728	-0.909704	-0.443120
C89	C	-0.424422	-0.287163	-0.296441
H90	H	-0.430876	-0.238304	-0.300914
H91	H	-0.353944	-0.299650	-0.307316
H92	H	-0.443140	-0.297310	-0.249539
H93	H	-0.451078	-1.098215	-0.981940
C94	C	-1.285581	-1.119179	-0.294159
H95	H	-1.314229	-1.151178	-0.262222
H96	H	-1.308422	-1.133177	-0.340156
H97	H	-1.308554	-1.073210	-0.280102
C98	C	-0.666294	-0.778407	-0.464709
H99	H	-0.702941	-0.747019	-0.490218
H100	H	-0.715228	-0.806027	-0.438842
H101	H	-0.626040	-0.808378	-0.496624
C102	C	-0.950835	-1.209965	-0.203284
H103	H	-0.876888	-1.203730	-0.209454
H104	H	-0.970878	-1.257749	-0.215543
H105	H	-0.971017	-1.197773	-0.155499
H106	H	-0.678231	-0.304795	-0.473030
H107	H	-0.404831	-1.130512	-0.786493
C108	C	-0.657015	-0.954393	-0.789890
H109	H	-0.697345	-0.926215	-0.756336
H110	H	-0.702693	-0.982504	-0.819688
H111	H	-0.613376	-0.924847	-0.817381
C112	C	-0.657455	-0.623806	-0.458479
H113	H	-0.697878	-0.657356	-0.486563
H114	H	-0.613961	-0.596318	-0.488108
H115	H	-0.703063	-0.594004	-0.430265
C116	C	-0.394725	-1.137574	-0.642928
H117	H	-0.406823	-1.129134	-0.593547
H118	H	-0.322839	-1.127767	-0.654588
H119	H	-0.412155	-1.185425	-0.656894
H120	H	-0.685926	-0.438364	-0.478376
H121	H	-1.164090	-1.197690	-0.215689
H122	H	-0.451187	-0.431766	-0.315069
