data_functionalizedCrystal
_audit_creation_method	'MofGen! by Chris Wilmer'
_symmetry_space_group_name_H-M	'P1'
_symmetry_Int_Tables_number	1
_symmetry_cell_setting	triclinic
loop_
_symmetry_equiv_pos_as_xyz
  x,y,z
_cell_length_a	11.169416
_cell_length_b	11.169417
_cell_length_c	11.169409
_cell_angle_alpha	90.019513
_cell_angle_beta	90.030874
_cell_angle_gamma	90.011589
loop_
_atom_site_label
_atom_site_type_symbol
_atom_site_fract_x
_atom_site_fract_y
_atom_site_fract_z
Zn1	Zn	-0.477670	1.834962	0.678545
Zn2	Zn	-0.227670	2.084962	0.928545
Zn3	Zn	0.022330	2.334962	1.178545
Zn4	Zn	0.272330	2.584962	1.428545
Zn5	Zn	-0.678410	1.834852	0.477867
Zn6	Zn	-0.428410	2.084852	0.727867
Zn7	Zn	-0.178410	2.334852	0.977867
Zn8	Zn	0.071590	2.584852	1.227867
Zn9	Zn	-0.477744	1.634248	0.477880
Zn10	Zn	-0.227744	1.884248	0.727880
Zn11	Zn	0.022256	2.134248	0.977880
Zn12	Zn	0.272256	2.384248	1.227880
Zn13	Zn	-0.678314	1.634256	0.678513
Zn14	Zn	-0.428314	1.884256	0.928513
Zn15	Zn	-0.178314	2.134256	1.178513
Zn16	Zn	0.071686	2.384256	1.428513
O17	O	-0.578035	1.734579	0.578201
O18	O	-0.328035	1.984579	0.828201
O19	O	-0.078035	2.234579	1.078201
O20	O	0.171965	2.484579	1.328201
O21	O	-0.504308	2.002897	0.651932
O22	O	-0.254308	2.252897	0.901932
O23	O	-0.004308	2.502897	1.151932
O24	O	0.245692	2.752897	1.401932
O25	O	-0.651863	1.808192	0.309919
O26	O	-0.401863	2.058192	0.559919
O27	O	-0.151863	2.308192	0.809919
O28	O	0.098137	2.558192	1.059919
O29	O	-0.309785	1.660917	0.504518
O30	O	-0.059785	1.910917	0.754518
O31	O	0.190215	2.160917	1.004518
O32	O	0.440215	2.410917	1.254518
O33	O	-0.651791	2.002816	0.504495
O34	O	-0.401791	2.252816	0.754495
O35	O	-0.151791	2.502816	1.004495
O36	O	0.098209	2.752816	1.254495
O37	O	-0.309730	1.808380	0.651945
O38	O	-0.059730	2.058380	0.901945
O39	O	0.190270	2.308380	1.151945
O40	O	0.440270	2.558380	1.401945
O41	O	-0.504435	1.660809	0.309929
O42	O	-0.254435	1.910809	0.559929
O43	O	-0.004435	2.160809	0.809929
O44	O	0.245565	2.410809	1.059929
O45	O	-0.504341	1.466300	0.504487
O46	O	-0.254341	1.716300	0.754487
O47	O	-0.004341	1.966300	1.004487
O48	O	0.245659	2.216300	1.254487
O49	O	-0.651627	1.660929	0.846467
O50	O	-0.401627	1.910929	1.096467
O51	O	-0.151627	2.160929	1.346467
O52	O	0.098373	2.410929	1.596467
O53	O	-0.651699	1.466305	0.651891
O54	O	-0.401699	1.716305	0.901891
O55	O	-0.151699	1.966305	1.151891
O56	O	0.098301	2.216305	1.401891
O57	O	-0.504214	1.808388	0.846491
O58	O	-0.254214	2.058388	1.096491
O59	O	-0.004214	2.308388	1.346491
O60	O	0.245786	2.558388	1.596491
O61	O	-0.846347	1.808199	0.504464
O62	O	-0.596347	2.058199	0.754464
O63	O	-0.346347	2.308199	1.004464
O64	O	-0.096347	2.558199	1.254464
O65	O	-0.846277	1.660822	0.651878
O66	O	-0.596277	1.910822	0.901878
O67	O	-0.346277	2.160822	1.151878
O68	O	-0.096277	2.410822	1.401878
C69	C	-0.578019	1.422755	0.578188
C70	C	-0.328019	1.672755	0.828188
C71	C	-0.078019	1.922755	1.078188
C72	C	0.171981	2.172755	1.328188
C73	C	-0.578041	1.289355	0.578210
C74	C	-0.328041	1.539355	0.828210
C75	C	-0.078041	1.789355	1.078210
C76	C	0.171959	2.039355	1.328210
C77	C	-0.889859	1.734532	0.578192
C78	C	-0.639859	1.984532	0.828192
C79	C	-0.389859	2.234532	1.078192
C80	C	-0.139859	2.484532	1.328192
C81	C	-1.023259	1.734621	0.578228
C82	C	-0.773259	1.984621	0.828228
C83	C	-0.523259	2.234621	1.078228
C84	C	-0.273259	2.484621	1.328228
C85	C	-0.264992	1.734660	0.578237
C86	C	-0.014992	1.984660	0.828237
C87	C	0.235008	2.234660	1.078237
C88	C	0.485008	2.484660	1.328237
C89	C	-0.131592	1.734694	0.578252
C90	C	0.118408	1.984694	0.828252
C91	C	0.368408	2.234694	1.078252
C92	C	0.618408	2.484694	1.328252
C93	C	-0.577901	1.734672	0.891244
C94	C	-0.327901	1.984672	1.141244
C95	C	-0.077901	2.234672	1.391244
C96	C	0.172099	2.484672	1.641244
C97	C	-0.577845	1.734711	1.024644
C98	C	-0.327845	1.984711	1.274644
C99	C	-0.077845	2.234711	1.524644
C100	C	0.172155	2.484711	1.774644
C101	C	-0.578052	2.047622	0.578216
C102	C	-0.328052	2.297622	0.828216
C103	C	-0.078052	2.547622	1.078216
C104	C	0.171948	2.797622	1.328216
C105	C	-0.578059	2.181022	0.578222
C106	C	-0.328059	2.431022	0.828222
C107	C	-0.078059	2.681022	1.078222
C108	C	0.171941	2.931022	1.328222
C109	C	-0.578081	1.734557	0.266377
C110	C	-0.328081	1.984557	0.516377
C111	C	-0.078081	2.234557	0.766377
C112	C	0.171919	2.484557	1.016377
C113	C	-0.577800	1.734750	0.132977
C114	C	-0.327800	1.984750	0.382977
C115	C	-0.077800	2.234750	0.632977
C116	C	0.172200	2.484750	0.882977
