data_functionalizedCrystal
_audit_creation_method	'MofGen! by Chris Wilmer'
_symmetry_space_group_name_H-M	'P1'
_symmetry_Int_Tables_number	1
_symmetry_cell_setting	triclinic
loop_
_symmetry_equiv_pos_as_xyz
  x,y,z
_cell_length_a	14.971486
_cell_length_b	14.971486
_cell_length_c	13.448316
_cell_angle_alpha	90.001801
_cell_angle_beta	89.993189
_cell_angle_gamma	96.385871
loop_
_atom_site_label
_atom_site_type_symbol
_atom_site_fract_x
_atom_site_fract_y
_atom_site_fract_z
O1	O	0.116565	-1.186947	-0.082578
O2	O	0.130524	-0.926547	-0.082605
O3	O	-0.006656	-1.063727	-0.082584
O4	O	0.253744	-1.049768	-0.082599
O5	O	-0.006664	-1.063709	0.082800
O6	O	0.130515	-0.926530	0.082779
O7	O	0.116556	-1.186930	0.082806
Cu8	Cu	0.123535	-1.056728	0.097893
Cu9	Cu	0.123545	-1.056749	-0.097692
O10	O	0.253736	-1.049751	0.082784
C11	C	0.129895	-0.893214	0.000083
C12	C	0.128024	-0.793917	0.000073
C13	C	-0.039985	-1.063094	0.000108
C14	C	-0.139282	-1.061223	0.000107
N15	N	0.123527	-1.056721	0.235457
C16	C	-0.196507	-1.141812	0.000116
C17	C	-0.289807	-1.140049	0.000106
C18	C	-0.325879	-1.057696	0.000093
C19	C	-0.268646	-0.977101	0.000081
C20	C	-0.175349	-0.978865	0.000084
C21	C	-0.463109	-0.973430	0.000077
C22	C	-0.556413	-0.971665	0.000076
C23	C	-0.577567	-1.134614	0.000099
C24	C	-0.484269	-1.136378	0.000102
C25	C	-0.427043	-1.055782	0.000091
C26	C	0.287065	-1.050384	0.000091
C27	C	0.386362	-1.052254	0.000085
C28	C	0.117185	-1.220263	0.000115
C29	C	0.119056	-1.319561	0.000119
C30	C	0.208614	-0.736692	0.000070
C31	C	0.206850	-0.643392	0.000085
C32	C	0.124497	-0.607320	0.000096
C33	C	0.043902	-0.664552	0.000102
C34	C	0.045666	-0.757850	0.000095
C35	C	0.040231	-0.470090	0.000116
C36	C	0.038466	-0.376786	0.000122
C37	C	0.201415	-0.355632	0.000106
C38	C	0.203179	-0.448930	0.000099
C39	C	0.122584	-0.506156	0.000103
N40	N	0.123545	-1.056764	-0.235257
C41	C	0.062809	-1.117483	0.287507
C42	C	0.062809	-1.117488	0.391610
C43	C	0.123531	-1.056735	0.443662
C44	C	0.184252	-0.995967	0.391605
C45	C	0.184248	-0.995958	0.287504
C46	C	0.184258	-0.995992	0.608585
C47	C	0.184264	-0.996002	0.712693
C48	C	0.062819	-1.117522	0.712692
C49	C	0.062815	-1.117513	0.608591
C50	C	0.123537	-1.056745	0.556541
H51	H	-0.336396	-1.205673	0.000115
H52	H	-0.624165	-1.200238	0.000104
C53	C	-0.514545	-1.297271	0.000120
C54	C	-0.444616	-1.226901	0.000116
H55	H	-0.490063	-1.353155	0.000121
H56	H	-0.550500	-1.293190	0.057788
H57	H	-0.550490	-1.293197	-0.057559
H58	H	-0.408676	-1.230971	0.057799
H59	H	-0.408647	-1.230984	-0.057558
H60	H	0.233702	-0.946505	0.566209
H61	H	-0.028593	-0.347419	0.000133
H62	H	-0.298024	-0.910047	0.000065
C63	C	-0.052307	-0.587286	-0.084903
C64	C	-0.048358	-0.532999	0.000118
H65	H	-0.106994	-0.626127	-0.084900
H66	H	-0.049610	-0.550446	-0.142561
H67	H	-0.003002	-0.622113	-0.084897
H68	H	-0.097661	-0.498167	0.000108
H69	H	-0.051065	-0.569844	0.057791
C70	C	-0.649062	-0.875129	0.085074
C71	C	-0.596060	-0.881139	0.000056
H72	H	-0.673531	-0.819238	0.085062
H73	H	-0.696493	-0.922867	0.085078
H74	H	-0.613100	-0.879193	0.142740
H75	H	-0.632024	-0.877082	-0.057611
H76	H	-0.548623	-0.833388	0.000043
H77	H	-0.023152	-0.635175	0.000126
H78	H	0.233709	-0.946530	0.755069
H79	H	-0.019958	-0.804443	0.000097
C80	C	-0.057239	-1.237593	0.297973
C81	C	-0.003942	-1.184263	0.230297
H82	H	-0.098454	-1.278816	0.262654
H83	H	-0.019951	-1.269806	0.338561
H84	H	-0.089469	-1.200322	0.338591
H85	H	0.028294	-1.221534	0.189684
H86	H	-0.041234	-1.152048	0.189692
C87	C	-0.345904	-0.880883	-0.084950
C88	C	-0.400203	-0.884838	0.000066
H89	H	-0.307073	-0.826189	-0.084955
H90	H	-0.311074	-0.930176	-0.084938
H91	H	-0.382742	-0.883585	-0.142618
H92	H	-0.363364	-0.882142	0.057734
H93	H	-0.435036	-0.835531	0.000063
H94	H	0.233689	-0.946478	0.245125
C95	C	0.368093	-0.631854	0.000055
C96	C	0.295437	-0.580490	0.000076
H97	H	0.422784	-0.593019	0.000045
H98	H	0.365392	-0.668686	0.057720
H99	H	0.365383	-0.668682	-0.057627
H100	H	0.298143	-0.543666	0.057762
H101	H	0.298139	-0.543643	-0.057595
H102	H	0.013374	-1.166987	0.566210
C103	C	-0.163804	-0.817621	0.000070
C104	C	-0.112443	-0.890278	0.000077
H105	H	-0.124967	-0.762931	0.000067
H106	H	-0.200627	-0.820329	-0.057599
H107	H	-0.200641	-0.820320	0.057747
H108	H	-0.075610	-0.887583	-0.057605
H109	H	-0.075605	-0.887568	0.057752
H110	H	0.270239	-0.478296	0.000080
C111	C	0.293969	-0.238436	-0.084907
C112	C	0.290010	-0.292733	0.000103
H113	H	0.348660	-0.199601	-0.084909
H114	H	0.291270	-0.275270	-0.142573
H115	H	0.244668	-0.203603	-0.084883
H116	H	0.339308	-0.327571	0.000075
H117	H	0.292718	-0.255896	0.057784
C118	C	-0.058899	-1.136805	0.508684
C119	C	-0.003934	-1.184286	0.448816
H120	H	-0.100109	-1.178047	0.543993
H121	H	-0.022742	-1.100634	0.554584
H122	H	-0.091134	-1.099542	0.468073
H123	H	0.028306	-1.221544	0.489428
H124	H	-0.040096	-1.220472	0.402912
C125	C	-0.091947	-1.169914	0.744743
C126	C	-0.003931	-1.184323	0.769895
H127	H	-0.133149	-1.211161	0.780056
H128	H	-0.101762	-1.110224	0.761823
H129	H	-0.100622	-1.178602	0.675292
H130	H	0.004746	-1.175629	0.839345
H131	H	0.005888	-1.244027	0.752821
C132	C	0.203462	-0.874280	0.508701
C133	C	0.250998	-0.929187	0.448823
H134	H	0.244671	-0.833058	0.544028
H135	H	0.166183	-0.842066	0.468103
H136	H	0.167303	-0.910481	0.554594
H137	H	0.287152	-0.892986	0.402924
H138	H	0.288292	-0.961403	0.489424
H139	H	-0.167145	-1.208874	0.000132
H140	H	0.275675	-0.766054	0.000060
