data_functionalizedCrystal
_audit_creation_method	'MofGen! by Chris Wilmer'
_symmetry_space_group_name_H-M	'P1'
_symmetry_Int_Tables_number	1
_symmetry_cell_setting	triclinic
loop_
_symmetry_equiv_pos_as_xyz
  x,y,z
_cell_length_a	14.044191
_cell_length_b	14.044220
_cell_length_c	11.892095
_cell_angle_alpha	94.243827
_cell_angle_beta	85.747808
_cell_angle_gamma	93.190327
loop_
_atom_site_label
_atom_site_type_symbol
_atom_site_fract_x
_atom_site_fract_y
_atom_site_fract_z
O1	O	1.282758	0.224616	-0.093953
O2	O	1.006086	0.216302	-0.093967
O3	O	1.140268	0.082124	-0.093949
O4	O	1.148575	0.358794	-0.093971
O5	O	1.129079	0.093292	0.094057
O6	O	0.994897	0.227471	0.094039
O7	O	1.271568	0.235784	0.094053
Zn8	Zn	1.131456	0.233401	0.123896
Zn9	Zn	1.146198	0.218686	-0.123810
O10	O	1.137386	0.369963	0.094035
C11	C	0.964870	0.218250	0.000034
C12	C	0.858727	0.207402	0.000029
C13	C	0.613268	0.264503	0.000036
C14	C	0.664393	0.187587	0.000040
C15	C	0.772530	0.198615	0.000034
C16	C	0.505121	0.253477	0.000042
C17	C	1.131038	0.052086	0.000054
C18	C	1.120193	-0.054057	0.000055
C19	C	1.100368	-0.248396	0.000037
C20	C	1.177283	-0.299524	0.000038
C21	C	1.166252	-0.407661	0.000028
C22	C	1.111398	-0.140249	0.000047
C23	C	1.312785	0.233837	0.000049
C24	C	1.418928	0.244684	0.000047
C25	C	1.146617	0.400000	0.000029
C26	C	1.157462	0.506143	0.000021
N27	N	1.121401	0.243444	0.292948
N28	N	1.156260	0.208636	-0.292863
C29	C	1.226219	0.138699	0.529610
C30	C	1.219199	0.145726	0.647951
C31	C	1.100335	0.264520	0.647973
C32	C	1.107356	0.257493	0.529632
C33	C	1.170301	0.194581	0.470455
C34	C	1.177326	0.187559	0.352112
C35	C	1.058458	0.306348	0.352136
C36	C	1.051438	0.313375	0.470477
H37	H	1.251421	-0.262087	-0.000034
H38	H	0.650710	0.338629	0.000026
O39	O	1.002171	-0.297978	0.000050
H40	H	1.008808	-0.376362	0.000059
H41	H	1.228581	0.136336	0.303931
O42	O	1.294105	0.070850	0.465771
H43	H	1.331808	0.033168	0.526788
H44	H	1.264732	0.100220	0.696112
O45	O	1.032449	0.332371	0.711807
H46	H	1.036968	0.327869	0.804035
H47	H	0.626954	0.113450	-0.000034
O48	O	0.983556	0.381235	0.534304
H49	H	0.988072	0.376740	0.626533
O50	O	0.998133	0.366622	0.288337
H51	H	1.013583	0.351164	0.196104
