data_functionalizedCrystal
_audit_creation_method	'MofGen! by Chris Wilmer'
_symmetry_space_group_name_H-M	'P1'
_symmetry_Int_Tables_number	1
_symmetry_cell_setting	triclinic
loop_
_symmetry_equiv_pos_as_xyz
  x,y,z
_cell_length_a	17.077404
_cell_length_b	17.077402
_cell_length_c	17.077395
_cell_angle_alpha	89.972222
_cell_angle_beta	89.984359
_cell_angle_gamma	90.025453
loop_
_atom_site_label
_atom_site_type_symbol
_atom_site_fract_x
_atom_site_fract_y
_atom_site_fract_z
Zn1	Zn	1.200012	-0.312513	-0.443840
Zn2	Zn	1.700012	0.187487	0.056160
Zn3	Zn	1.199923	-0.443785	-0.312572
Zn4	Zn	1.699923	0.056215	0.187428
Zn5	Zn	1.068753	-0.312538	-0.312588
Zn6	Zn	1.568753	0.187462	0.187412
Zn7	Zn	1.068706	-0.443741	-0.443796
Zn8	Zn	1.568706	0.056259	0.056204
O9	O	1.134348	-0.378144	-0.378199
O10	O	1.634348	0.121856	0.121801
O11	O	1.309847	-0.329935	-0.426439
O12	O	1.809847	0.170065	0.073561
O13	O	1.182504	-0.426404	-0.202727
O14	O	1.682504	0.073596	0.297273
O15	O	1.086221	-0.202688	-0.330023
O16	O	1.586221	0.297312	0.169977
O17	O	1.309781	-0.426380	-0.329997
O18	O	1.809781	0.073620	0.170003
O19	O	1.182657	-0.202670	-0.426453
O20	O	1.682657	0.297330	0.073547
O21	O	1.086134	-0.329977	-0.202739
O22	O	1.586134	0.170023	0.297261
O23	O	0.958900	-0.329934	-0.329981
O24	O	1.458900	0.170066	0.170019
O25	O	1.086142	-0.426305	-0.553649
O26	O	1.586142	0.073695	-0.053649
O27	O	0.958866	-0.426329	-0.426379
O28	O	1.458866	0.073671	0.073621
O29	O	1.182612	-0.329892	-0.553681
O30	O	1.682612	0.170108	-0.053681
O31	O	1.182460	-0.553626	-0.329955
O32	O	1.682460	-0.053626	0.170045
O33	O	1.086056	-0.553594	-0.426364
O34	O	1.586056	-0.053594	0.073636
C35	C	0.930401	-0.378130	-0.378177
C36	C	1.430401	0.121870	0.121823
C37	C	0.843151	-0.378143	-0.378187
C38	C	1.343151	0.121857	0.121813
C39	C	1.134264	-0.582092	-0.378170
C40	C	1.634264	-0.082092	0.121830
C41	C	1.134300	-0.669342	-0.378184
C42	C	1.634300	-0.169342	0.121816
C43	C	1.184649	-1.045083	-0.428502
C44	C	1.684649	-0.545083	0.071498
C45	C	1.184613	-0.963103	-0.428483
C46	C	1.684613	-0.463103	0.071517
C47	C	1.134424	-0.922191	-0.378231
C48	C	1.634424	-0.422191	0.121769
C49	C	1.084273	-0.963264	-0.327988
C50	C	1.584273	-0.463264	0.172012
C51	C	1.084313	-1.045243	-0.328003
C52	C	1.584313	-0.545243	0.171997
C53	C	1.084192	-0.792394	-0.327961
C54	C	1.584192	-0.292394	0.172039
C55	C	1.084151	-0.710409	-0.327947
C56	C	1.584151	-0.210409	0.172053
C57	C	1.184493	-0.710254	-0.428441
C58	C	1.684493	-0.210254	0.071559
C59	C	1.184532	-0.792233	-0.428457
C60	C	1.684532	-0.292233	0.071543
C61	C	1.134380	-0.833300	-0.378215
C62	C	1.634380	-0.333300	0.121785
C63	C	0.802163	-0.428411	-0.428301
C64	C	1.302163	0.071589	0.071699
C65	C	0.720183	-0.428413	-0.428313
C66	C	1.220183	0.071587	0.071687
C67	C	0.679191	-0.378150	-0.378207
C68	C	1.179191	0.121850	0.121793
C69	C	0.720184	-0.327876	-0.328091
C70	C	1.220184	0.172124	0.171909
C71	C	0.802163	-0.327871	-0.328083
C72	C	1.302163	0.172129	0.171917
C73	C	0.549314	-0.327891	-0.328110
C74	C	1.049314	0.172109	0.171890
C75	C	0.467330	-0.327897	-0.328117
C76	C	0.967330	0.172103	0.171883
C77	C	0.467334	-0.428434	-0.428340
C78	C	0.967334	0.071566	0.071660
C79	C	0.549313	-0.428429	-0.428332
C80	C	1.049313	0.071571	0.071668
C81	C	0.590300	-0.378155	-0.378215
C82	C	1.090300	0.121845	0.121785
C83	C	1.339093	-0.378159	-0.378221
C84	C	1.839093	0.121841	0.121779
C85	C	1.426342	-0.378166	-0.378231
C86	C	1.926342	0.121834	0.121769
C87	C	1.134382	-0.378091	-0.582943
C88	C	1.634382	0.121909	-0.082943
C89	C	1.134396	-0.378068	-0.670193
C90	C	1.634396	0.121932	-0.170193
C91	C	1.134454	-0.173400	-0.378245
C92	C	1.634454	0.326600	0.121755
C93	C	1.134499	-0.086150	-0.378264
C94	C	1.634499	0.413850	0.121736
C95	C	1.184715	-0.327760	-1.046026
C96	C	1.684715	0.172240	-0.546026
C97	C	1.184699	-0.327787	-0.964045
C98	C	1.684699	0.172213	-0.464045
C99	C	1.134461	-0.377994	-0.923042
C100	C	1.634461	0.122006	-0.423042
C101	C	1.084241	-0.428182	-0.964024
C102	C	1.584241	0.071818	-0.464024
C103	C	1.084262	-0.428158	-1.046003
C104	C	1.584262	0.071842	-0.546003
C105	C	1.084201	-0.428228	-0.793154
C106	C	1.584201	0.071772	-0.293154
C107	C	1.084179	-0.428251	-0.711169
C108	C	1.584179	0.071749	-0.211169
C109	C	1.184638	-0.327857	-0.711196
C110	C	1.684638	0.172143	-0.211196
C111	C	1.184659	-0.327833	-0.793175
C112	C	1.684659	0.172167	-0.293175
C113	C	1.134438	-0.378020	-0.834151
C114	C	1.634438	0.121980	-0.334151
C115	C	1.134360	-0.378141	-0.174251
C116	C	1.634360	0.121859	0.325749
C117	C	1.134498	-0.377942	-0.087002
C118	C	1.634498	0.122058	0.412998
H119	H	1.225511	-1.078388	-0.469431
H120	H	1.725511	-0.578388	0.030569
Cl121	Cl	1.247833	-0.264698	-0.912536
Cl122	Cl	1.747833	0.235302	-0.412536
Cl123	Cl	1.247618	-0.843664	-0.491642
Cl124	Cl	1.747618	-0.343664	0.008358
Cl125	Cl	1.021068	-0.658978	-0.264759
Cl126	Cl	1.521068	-0.158978	0.235241
H127	H	1.043476	-1.078678	-0.287094
H128	H	1.543476	-0.578678	0.212906
H129	H	0.433956	-0.286959	-0.287325
H130	H	0.933956	0.213041	0.212675
Cl131	Cl	1.247547	-0.658628	-0.491598
Cl132	Cl	1.747547	-0.158628	0.008402
H133	H	1.225620	-0.286870	-1.079405
H134	H	1.725620	0.213130	-0.579405
Cl135	Cl	1.021130	-0.491250	-1.097516
Cl136	Cl	1.521130	0.008750	-0.597516
H137	H	1.043253	-0.469116	-0.677787
H138	H	1.543253	0.030884	-0.177787
Cl139	Cl	1.021064	-0.491321	-0.844665
Cl140	Cl	1.521064	0.008679	-0.344665
H141	H	0.433958	-0.469366	-0.469150
H142	H	0.933958	0.030634	0.030850
Cl143	Cl	0.600840	-0.264690	-0.265104
Cl144	Cl	1.100840	0.235310	0.234896
Cl145	Cl	1.021144	-0.844019	-0.264796
Cl146	Cl	1.521144	-0.344019	0.235204
H147	H	0.835533	-0.469344	-0.469100
H148	H	1.335533	0.030656	0.030900
Cl149	Cl	0.600844	-0.491623	-0.491318
Cl150	Cl	1.100844	0.008377	0.008682
H151	H	0.686802	-0.286947	-0.287297
H152	H	1.186802	0.213053	0.212703
H153	H	0.835534	-0.286933	-0.287279
H154	H	1.335534	0.213067	0.212721
Cl155	Cl	1.247829	-0.264728	-0.844721
Cl156	Cl	1.747829	0.235272	-0.344721
H157	H	1.043340	-0.469065	-0.930633
H158	H	1.543340	0.030935	-0.430633
Cl159	Cl	1.247796	-0.264786	-0.659684
Cl160	Cl	1.747796	0.235214	-0.159684
H161	H	1.043411	-0.929948	-0.287067
H162	H	1.543411	-0.429948	0.212933
Cl163	Cl	1.247660	-0.911479	-0.491643
Cl164	Cl	1.747660	-0.411479	0.008357
H165	H	0.686815	-0.469348	-0.469120
H166	H	1.186815	0.030652	0.030880
