data_functionalizedCrystal
_audit_creation_method	'MofGen! by Chris Wilmer'
_symmetry_space_group_name_H-M	'P1'
_symmetry_Int_Tables_number	1
_symmetry_cell_setting	triclinic
loop_
_symmetry_equiv_pos_as_xyz
  x,y,z
_cell_length_a	17.699077
_cell_length_b	16.176319
_cell_length_c	9.065218
_cell_angle_alpha	89.994228
_cell_angle_beta	84.148231
_cell_angle_gamma	89.999297
loop_
_atom_site_label
_atom_site_type_symbol
_atom_site_fract_x
_atom_site_fract_y
_atom_site_fract_z
O1	O	1.005529	-0.068732	0.186522
O2	O	0.785340	-0.068736	0.210803
O3	O	0.899986	-0.068732	-0.016115
O4	O	0.890883	-0.068736	0.413440
O5	O	0.899983	0.068761	-0.016136
O6	O	0.785337	0.068757	0.210782
O7	O	1.005527	0.068761	0.186501
Cu8	Cu	0.895432	0.081313	0.198640
Cu9	Cu	0.895435	-0.081288	0.198665
O10	O	0.890881	0.068757	0.413419
C11	C	0.757135	0.000010	0.209924
C12	C	0.673096	0.000009	0.207319
C13	C	0.633618	0.074957	0.206080
C14	C	0.554656	0.074958	0.203608
C15	C	0.515173	0.000010	0.202386
C16	C	0.554657	-0.074945	0.203621
C17	C	0.633618	-0.074945	0.206082
C18	C	0.236216	-0.074946	0.193693
C19	C	0.157250	-0.074940	0.191236
C20	C	0.157254	0.074957	0.191219
C21	C	0.236215	0.074957	0.193680
C22	C	0.275693	0.000003	0.194907
C23	C	0.361312	0.000003	0.197584
C24	C	0.429554	0.000009	0.199719
C25	C	0.899110	0.000013	-0.071086
C26	C	0.896494	0.000009	-0.234851
C27	C	1.033732	0.000013	0.187380
C28	C	1.117771	0.000009	0.189986
N29	N	0.895437	-0.195654	0.198671
C30	C	0.946299	-0.238916	0.098389
C31	C	0.946302	-0.325463	0.098386
C32	C	0.895439	-0.368746	0.198659
C33	C	0.844574	-0.325477	0.298951
C34	C	0.844575	-0.238932	0.298960
C35	C	0.844568	-0.674506	0.298918
C36	C	0.844569	-0.761057	0.298898
C37	C	0.946295	-0.761037	0.098343
C38	C	0.946296	-0.674492	0.098352
C39	C	0.895435	-0.631230	0.198649
C40	C	0.895433	-0.537386	0.198654
C41	C	0.895436	-0.462589	0.198649
N42	N	0.895436	0.195679	0.198622
C43	C	0.891757	0.000010	0.468390
C44	C	0.894373	0.000009	0.632156
H45	H	0.522518	0.135989	0.202574
H46	H	0.803162	-0.360723	0.380603
H47	H	0.268350	-0.135978	0.194687
C48	C	0.511227	-0.157389	0.202272
C49	C	0.529802	-0.219218	0.074561
C50	C	0.486373	-0.301664	0.073216
C51	C	0.424369	-0.322281	0.199583
C52	C	0.405792	-0.260450	0.327305
C53	C	0.449221	-0.178004	0.328649
H54	H	0.575703	-0.203958	-0.018993
H55	H	0.500126	-0.347436	-0.021332
H56	H	0.392221	-0.383313	0.198588
H57	H	0.359891	-0.275711	0.420858
H58	H	0.435468	-0.132233	0.423198
C59	C	0.113829	0.157410	0.189853
C60	C	0.132413	0.219249	0.062138
C61	C	0.088990	0.301699	0.060778
C62	C	0.026983	0.322311	0.187134
C63	C	0.008396	0.260471	0.314859
C64	C	0.051819	0.178020	0.316218
H65	H	0.178317	0.203992	-0.031407
H66	H	0.102750	0.347477	-0.033773
H67	H	-0.005161	0.383346	0.186128
H68	H	-0.037508	0.275727	0.408404
H69	H	0.038059	0.132242	0.410769
H70	H	0.268358	0.135987	0.194682
C71	C	1.002247	-0.373056	-0.011928
C72	C	1.060456	-0.432559	0.045788
C73	C	1.116403	-0.480154	-0.064529
C74	C	1.114142	-0.468246	-0.232562
C75	C	1.055932	-0.408741	-0.290287
C76	C	0.999984	-0.361146	-0.179970
H77	H	1.062131	-0.441376	0.170184
H78	H	1.159494	-0.524204	-0.021796
H79	H	1.155558	-0.503479	-0.314225
H80	H	1.054256	-0.399923	-0.414683
H81	H	0.956893	-0.317096	-0.222703
C82	C	0.677048	-0.157389	0.207450
C83	C	0.673912	-0.219220	0.079066
C84	C	0.717342	-0.301666	0.080427
C85	C	0.763908	-0.322281	0.210170
C86	C	0.767046	-0.260448	0.338564
C87	C	0.723616	-0.178002	0.337203
H88	H	0.639439	-0.203961	-0.016986
H89	H	0.715019	-0.347439	-0.014619
H90	H	0.796057	-0.383313	0.211177
H91	H	0.801519	-0.275707	0.434616
H92	H	0.725939	-0.132229	0.432249
C93	C	0.788527	-0.191340	0.409083
C94	C	0.732504	-0.238945	0.519241
C95	C	0.676411	-0.191354	0.629282
C96	C	0.676342	-0.096157	0.629165
C97	C	0.732367	-0.048546	0.519002
C98	C	0.788460	-0.096138	0.408961
H99	H	0.732554	-0.309420	0.519332
H100	H	0.634938	-0.226599	0.710832
H101	H	0.634818	-0.060927	0.710624
H102	H	0.732317	0.021929	0.518911
H103	H	0.829933	-0.060893	0.327411
C104	C	0.113817	-0.157389	0.189879
C105	C	0.132388	-0.219213	0.062158
C106	C	0.088955	-0.301657	0.060803
C107	C	0.026952	-0.322276	0.187169
C108	C	0.008379	-0.260450	0.314900
C109	C	0.051811	-0.178006	0.316255
H110	H	0.178289	-0.203951	-0.031395
H111	H	0.102705	-0.347424	-0.033753
H112	H	-0.005199	-0.383305	0.186166
H113	H	-0.037523	-0.275712	0.408452
H114	H	0.038061	-0.132239	0.410810
H115	H	0.665758	0.135989	0.207087
H116	H	0.987715	-0.203681	0.016730
C117	C	0.789124	-0.626928	0.410200
C118	C	0.733549	-0.674543	0.521203
C119	C	0.678346	-0.626963	0.632955
C120	C	0.678718	-0.531768	0.633703
C121	C	0.734295	-0.484148	0.522696
C122	C	0.789499	-0.531728	0.410944
H123	H	0.733272	-0.745016	0.520652
H124	H	0.637204	-0.662215	0.715129
H125	H	0.637853	-0.496546	0.716429
H126	H	0.734573	-0.413675	0.523247
H127	H	0.830641	-0.496477	0.328769
C128	C	1.002252	-0.808625	-0.011977
C129	C	1.002331	-0.903822	-0.011860
C130	C	1.058285	-0.951407	-0.122180
C131	C	1.114158	-0.903796	-0.232618
C132	C	1.114081	-0.808594	-0.232739
C133	C	1.058128	-0.761009	-0.122419
H134	H	0.960968	-0.939072	0.069897
H135	H	1.058341	-1.021882	-0.122090
H136	H	1.155578	-0.939022	-0.314284
H137	H	1.155444	-0.773345	-0.314496
H138	H	1.058071	-0.690534	-0.122509
H139	H	0.987712	-0.639253	0.016697
H140	H	0.803148	-0.796297	0.380557
