data_functionalizedCrystal
_audit_creation_method	'MofGen! by Chris Wilmer'
_symmetry_space_group_name_H-M	'P1'
_symmetry_Int_Tables_number	1
_symmetry_cell_setting	triclinic
loop_
_symmetry_equiv_pos_as_xyz
  x,y,z
_cell_length_a	16.992694
_cell_length_b	17.699083
_cell_length_c	16.176319
_cell_angle_alpha	90.007696
_cell_angle_beta	90.001613
_cell_angle_gamma	86.975619
loop_
_atom_site_label
_atom_site_type_symbol
_atom_site_fract_x
_atom_site_fract_y
_atom_site_fract_z
O1	O	-1.040089	-0.160469	-0.068646
O2	O	-0.811807	-0.158709	-0.068670
O3	O	-0.932397	-0.049802	-0.068650
O4	O	-0.919498	-0.269377	-0.068666
O5	O	-0.932381	-0.049793	0.068843
O6	O	-0.811790	-0.158701	0.068823
O7	O	-1.040072	-0.160461	0.068847
Cu8	Cu	-0.925930	-0.159580	0.081389
Cu9	Cu	-0.925949	-0.159590	-0.081212
O10	O	-0.919482	-0.269368	0.068827
C11	C	-0.782590	-0.156440	0.000073
C12	C	-0.695559	-0.149683	0.000064
C13	C	-0.931927	-0.021572	0.000097
C14	C	-0.930540	0.062533	0.000097
C15	C	-1.069289	-0.162730	0.000102
C16	C	-1.156320	-0.169487	0.000105
C17	C	-0.645194	-0.214881	0.000060
C18	C	-0.563420	-0.208527	0.000072
C19	C	-0.532012	-0.136975	0.000082
C20	C	-0.582383	-0.071772	0.000089
C21	C	-0.664156	-0.078127	0.000083
C22	C	-0.288464	-0.110639	0.000106
C23	C	-0.206685	-0.104290	0.000110
C24	C	-0.187727	-0.241045	0.000095
C25	C	-0.269503	-0.247393	0.000084
C26	C	-0.319867	-0.182190	0.000095
N27	N	-0.448425	-0.130479	0.000092
N28	N	-0.403451	-0.188687	0.000091
C29	C	-0.919952	-0.297598	0.000079
C30	C	-0.921339	-0.381703	0.000073
N31	N	-0.925922	-0.159573	0.195755
C32	C	-1.001324	0.106747	0.000105
C33	C	-1.000017	0.185771	0.000098
C34	C	-0.927924	0.220581	0.000088
C35	C	-0.857135	0.176361	0.000077
C36	C	-0.858443	0.097338	0.000078
C37	C	-0.851857	0.495053	0.000069
C38	C	-0.850554	0.574082	0.000070
C39	C	-0.993430	0.583486	0.000089
C40	C	-0.994739	0.504463	0.000091
C41	C	-0.923950	0.460250	0.000075
C42	C	-0.925368	0.374563	0.000082
C43	C	-0.926505	0.306267	0.000087
N44	N	-0.925963	-0.159592	-0.195578
C45	C	-0.979335	-0.111371	0.239028
C46	C	-0.979339	-0.111370	0.325575
C47	C	-0.925933	-0.159576	0.368847
C48	C	-0.872513	-0.207781	0.325568
C49	C	-0.872506	-0.207777	0.239022
C50	C	-0.872540	-0.207796	0.674596
C51	C	-0.872553	-0.207798	0.761148
C52	C	-0.979373	-0.111390	0.761148
C53	C	-0.979366	-0.111386	0.674603
C54	C	-0.925944	-0.159587	0.631331
C55	C	-0.925940	-0.159586	0.537487
C56	C	-0.925940	-0.159582	0.462690
H57	H	-0.670760	-0.273146	0.000051
C58	C	-0.547836	0.006933	0.000098
H59	H	-0.491921	0.001381	0.000092
H60	H	-0.565133	0.033991	0.048046
H61	H	-0.565133	0.033981	-0.047854
H62	H	-0.791844	0.602420	0.000064
H63	H	-0.829044	-0.247045	0.639371
H64	H	-1.053444	0.476126	0.000103
C65	C	-0.780581	0.048702	0.000071
H66	H	-0.737457	0.080750	0.000071
H67	H	-0.778128	0.017674	-0.047876
H68	H	-0.778115	0.017686	0.048024
H69	H	-0.829025	-0.247028	0.360805
H70	H	-1.022870	-0.072139	0.796389
H71	H	-0.829011	-0.247027	0.203790
H72	H	-0.181116	-0.046020	0.000117
C73	C	-0.304050	-0.326098	0.000069
H74	H	-0.359964	-0.320544	0.000056
H75	H	-0.286758	-0.353156	0.048011
H76	H	-0.286750	-0.353147	-0.047889
H77	H	-1.060030	0.078411	0.000119
C78	C	-0.343854	-0.038919	0.000112
H79	H	-0.313434	0.004603	0.000110
H80	H	-0.376148	-0.038550	0.048058
H81	H	-0.376146	-0.038555	-0.047842
H82	H	-0.794216	0.459064	0.000057
C83	C	-1.077879	0.234404	0.000116
H84	H	-1.121002	0.202355	0.000134
H85	H	-1.080353	0.265421	-0.047830
H86	H	-1.080327	0.265431	0.048070
C87	C	-1.038082	-0.058342	0.191435
H88	H	-1.069888	-0.029630	0.229606
H89	H	-1.070661	-0.087554	0.157663
H90	H	-1.009933	-0.025113	0.157687
H91	H	-0.829060	-0.247055	0.796379
H92	H	-0.146713	-0.294129	0.000087
C93	C	-0.508022	-0.280245	0.000065
H94	H	-0.538439	-0.323768	0.000048
H95	H	-0.475730	-0.280610	0.048015
H96	H	-0.475726	-0.280608	-0.047885
C97	C	-0.719560	-0.006412	0.000086
H98	H	-0.772759	-0.020443	0.000090
H99	H	-0.710055	0.022725	-0.047856
H100	H	-0.710054	0.022722	0.048044
H101	H	-1.051070	0.619494	0.000098
C102	C	-0.777835	0.214649	0.000068
H103	H	-0.787192	0.268045	0.000077
H104	H	-0.748699	0.199761	-0.047881
H105	H	-0.748693	0.199769	0.048018
H106	H	-1.022832	-0.072120	0.360807
C107	C	-1.038110	-0.058357	0.627008
H108	H	-1.069918	-0.029643	0.665176
H109	H	-1.070688	-0.087569	0.593233
H110	H	-1.009959	-0.025130	0.593260
