data_functionalizedCrystal
_audit_creation_method	'MofGen! by Chris Wilmer'
_symmetry_space_group_name_H-M	'P1'
_symmetry_Int_Tables_number	1
_symmetry_cell_setting	triclinic
loop_
_symmetry_equiv_pos_as_xyz
  x,y,z
_cell_length_a	23.532407
_cell_length_b	23.532407
_cell_length_c	11.295483
_cell_angle_alpha	94.064566
_cell_angle_beta	85.923202
_cell_angle_gamma	82.848712
loop_
_atom_site_label
_atom_site_type_symbol
_atom_site_fract_x
_atom_site_fract_y
_atom_site_fract_z
O1	O	0.759115	0.065281	-0.098961
O2	O	1.009115	0.315281	0.151039
O3	O	1.259115	0.565281	0.401039
O4	O	1.509115	0.815281	0.651039
O5	O	0.593252	0.075283	-0.098981
O6	O	0.843252	0.325283	0.151019
O7	O	1.093252	0.575283	0.401019
O8	O	1.343252	0.825283	0.651019
O9	O	0.681184	-0.012649	-0.098949
O10	O	0.931184	0.237351	0.151051
O11	O	1.181184	0.487351	0.401051
O12	O	1.431184	0.737351	0.651051
O13	O	0.671183	0.153213	-0.098993
O14	O	0.921183	0.403213	0.151007
O15	O	1.171183	0.653213	0.401007
O16	O	1.421183	0.903213	0.651007
O17	O	0.673461	-0.004938	0.099099
O18	O	0.923461	0.245062	0.349099
O19	O	1.173461	0.495062	0.599099
O20	O	1.423461	0.745062	0.849099
O21	O	0.585529	0.082994	0.099067
O22	O	0.835529	0.332994	0.349067
O23	O	1.085529	0.582994	0.599067
O24	O	1.335529	0.832994	0.849067
O25	O	0.751392	0.072992	0.099087
O26	O	1.001392	0.322992	0.349087
O27	O	1.251392	0.572992	0.599087
O28	O	1.501392	0.822992	0.849087
Cu29	Cu	0.667755	0.078697	0.117160
Cu30	Cu	0.917755	0.328697	0.367160
Cu31	Cu	1.167755	0.578697	0.617160
Cu32	Cu	1.417755	0.828697	0.867160
Cu33	Cu	0.676889	0.069578	-0.117054
Cu34	Cu	0.926889	0.319578	0.132946
Cu35	Cu	1.176889	0.569578	0.382946
Cu36	Cu	1.426889	0.819578	0.632946
O37	O	0.663460	0.160924	0.099054
O38	O	0.913460	0.410924	0.349054
O39	O	1.163460	0.660924	0.599054
O40	O	1.413460	0.910924	0.849054
C41	C	0.568175	0.078884	0.000040
C42	C	0.818175	0.328884	0.250040
C43	C	1.068175	0.578884	0.500040
C44	C	1.318175	0.828884	0.750040
C45	C	0.504958	0.078118	0.000034
C46	C	0.754958	0.328118	0.250034
C47	C	1.004958	0.578118	0.500034
C48	C	1.254958	0.828118	0.750034
C49	C	0.238789	0.022924	0.000081
C50	C	0.488789	0.272924	0.250081
C51	C	0.738789	0.522924	0.500081
C52	C	0.988789	0.772924	0.750081
C53	C	0.298189	0.023636	0.000080
C54	C	0.548189	0.273636	0.250080
C55	C	0.798189	0.523636	0.500080
C56	C	1.048189	0.773636	0.750080
O57	O	0.334931	-0.020148	0.000133
O58	O	0.584931	0.229852	0.250133
O59	O	0.834931	0.479852	0.500133
O60	O	1.084931	0.729852	0.750133
N61	N	0.320816	0.075911	0.000058
N62	N	0.570816	0.325911	0.250058
N63	N	0.820816	0.575911	0.500058
N64	N	1.070816	0.825911	0.750058
C65	C	0.284039	0.127479	0.000048
C66	C	0.534039	0.377479	0.250048
C67	C	0.784039	0.627479	0.500048
C68	C	1.034039	0.877479	0.750048
O69	O	0.308739	0.172009	0.000031
O70	O	0.558739	0.422009	0.250031
O71	O	0.808739	0.672009	0.500031
O72	O	1.058739	0.922009	0.750031
C73	C	0.224639	0.126767	0.000057
C74	C	0.474639	0.376767	0.250057
C75	C	0.724639	0.626767	0.500057
C76	C	0.974639	0.876767	0.750057
C77	C	0.202016	0.074488	0.000068
C78	C	0.452016	0.324488	0.250068
C79	C	0.702016	0.574488	0.500068
C80	C	0.952016	0.824488	0.750068
C81	C	0.216165	-0.029351	0.000092
C82	C	0.466165	0.220649	0.250092
C83	C	0.716165	0.470649	0.500092
C84	C	0.966165	0.720649	0.750092
C85	C	0.156769	-0.030062	0.000091
C86	C	0.406769	0.219938	0.250091
C87	C	0.656769	0.469938	0.500091
C88	C	0.906769	0.719938	0.750091
C89	C	0.119996	0.021502	0.000077
C90	C	0.369996	0.271502	0.250077
C91	C	0.619996	0.521502	0.500077
C92	C	0.869996	0.771502	0.750077
C93	C	0.142620	0.073777	0.000066
C94	C	0.392620	0.323777	0.250066
C95	C	0.642620	0.573777	0.500066
C96	C	0.892620	0.823777	0.750066
C97	C	0.187863	0.178335	0.000056
C98	C	0.437863	0.428335	0.250056
C99	C	0.687863	0.678335	0.500056
C100	C	0.937863	0.928335	0.750056
C101	C	0.128460	0.177619	0.000066
C102	C	0.378460	0.427619	0.250066
C103	C	0.628460	0.677619	0.500066
C104	C	0.878460	0.927619	0.750066
C105	C	0.105837	0.125339	0.000076
C106	C	0.355837	0.375339	0.250076
C107	C	0.605837	0.625339	0.500076
C108	C	0.855837	0.875339	0.750076
C109	C	0.046452	0.124629	0.000051
C110	C	0.296452	0.374629	0.250051
C111	C	0.546452	0.624629	0.500051
C112	C	0.796452	0.874629	0.750051
N113	N	0.023825	0.072354	0.000073
N114	N	0.273825	0.322354	0.250073
N115	N	0.523825	0.572354	0.500073
N116	N	0.773825	0.822354	0.750073
C117	C	0.060597	0.020790	0.000086
C118	C	0.310597	0.270790	0.250086
C119	C	0.560597	0.520790	0.500086
C120	C	0.810597	0.770790	0.750086
C121	C	0.408782	0.128970	0.000032
C122	C	0.658782	0.378970	0.250032
C123	C	0.908782	0.628970	0.500032
C124	C	1.158782	0.878970	0.750032
C125	C	0.468181	0.129682	0.000014
C126	C	0.718181	0.379682	0.250014
C127	C	0.968181	0.629682	0.500014
C128	C	1.218181	0.879682	0.750014
C129	C	0.482327	0.025838	0.000048
C130	C	0.732327	0.275838	0.250048
C131	C	0.982327	0.525838	0.500048
C132	C	1.232327	0.775838	0.750048
C133	C	0.422927	0.025126	0.000057
C134	C	0.672927	0.275126	0.250057
C135	C	0.922927	0.525126	0.500057
C136	C	1.172927	0.775126	0.750057
C137	C	0.386155	0.076694	0.000054
C138	C	0.636155	0.326694	0.250054
C139	C	0.886155	0.576694	0.500054
C140	C	1.136155	0.826694	0.750054
C141	C	-0.064140	0.019300	0.000082
C142	C	0.185860	0.269300	0.250082
C143	C	0.435860	0.519300	0.500082
C144	C	0.685860	0.769300	0.750082
C145	C	-0.123541	0.018593	0.000075
C146	C	0.126459	0.268593	0.250075
C147	C	0.376459	0.518593	0.500075
C148	C	0.626459	0.768593	0.750075
C149	C	-0.137682	0.122437	0.000047
C150	C	0.112318	0.372437	0.250047
C151	C	0.362318	0.622437	0.500047
C152	C	0.612318	0.872437	0.750047
C153	C	-0.078286	0.123144	0.000048
C154	C	0.171714	0.373144	0.250048
C155	C	0.421714	0.623144	0.500048
C156	C	0.671714	0.873144	0.750048
C157	C	-0.041515	0.071571	0.000069
C158	C	0.208485	0.321571	0.250069
C159	C	0.458485	0.571571	0.500069
C160	C	0.708485	0.821571	0.750069
O161	O	0.009674	0.168390	0.000003
O162	O	0.259674	0.418390	0.250003
O163	O	0.509674	0.668390	0.500003
O164	O	0.759674	0.918390	0.750003
O165	O	0.035888	-0.023732	0.000120
O166	O	0.285888	0.226268	0.250120
O167	O	0.535888	0.476268	0.500120
O168	O	0.785888	0.726268	0.750120
C169	C	0.677068	-0.030009	0.000078
C170	C	0.927068	0.219991	0.250078
C171	C	1.177068	0.469991	0.500078
C172	C	1.427068	0.719991	0.750078
C173	C	0.676302	-0.093226	0.000087
C174	C	0.926302	0.156774	0.250087
C175	C	1.176302	0.406774	0.500087
C176	C	1.426302	0.656774	0.750087
C177	C	0.723537	-0.492331	0.000028
C178	C	0.973537	-0.242331	0.250028
C179	C	1.223537	0.007669	0.500028
C180	C	1.473537	0.257669	0.750028
C181	C	0.722826	-0.551732	0.000019
C182	C	0.972826	-0.301732	0.250019
C183	C	1.222826	-0.051732	0.500019
C184	C	1.472826	0.198268	0.750019
O185	O	0.766614	-0.588478	-0.000020
O186	O	1.016614	-0.338478	0.249980
O187	O	1.266614	-0.088478	0.499980
O188	O	1.516614	0.161522	0.749980
N189	N	0.670550	-0.574358	0.000013
N190	N	0.920550	-0.324358	0.250013
N191	N	1.170550	-0.074358	0.500013
N192	N	1.420550	0.175642	0.750013
C193	C	0.618982	-0.537581	0.000005
C194	C	0.868982	-0.287581	0.250005
C195	C	1.118982	-0.037581	0.500005
C196	C	1.368982	0.212419	0.750005
O197	O	0.574452	-0.562281	-0.000002
O198	O	0.824452	-0.312281	0.249998
O199	O	1.074452	-0.062281	0.499998
O200	O	1.324452	0.187719	0.749998
C201	C	0.619694	-0.478182	0.000005
C202	C	0.869694	-0.228182	0.250005
C203	C	1.119694	0.021818	0.500005
C204	C	1.369694	0.271818	0.750005
C205	C	0.671973	-0.455559	0.000023
C206	C	0.921973	-0.205559	0.250023
C207	C	1.171973	0.044441	0.500023
C208	C	1.421973	0.294441	0.750023
C209	C	0.775812	-0.469707	0.000044
C210	C	1.025812	-0.219707	0.250044
C211	C	1.275812	0.030293	0.500044
C212	C	1.525812	0.280293	0.750044
C213	C	0.776523	-0.410311	0.000056
C214	C	1.026523	-0.160311	0.250056
C215	C	1.276523	0.089689	0.500056
C216	C	1.526523	0.339689	0.750056
C217	C	0.724959	-0.373538	0.000051
C218	C	0.974959	-0.123538	0.250051
C219	C	1.224959	0.126462	0.500051
C220	C	1.474959	0.376462	0.750051
C221	C	0.672684	-0.396162	0.000034
C222	C	0.922684	-0.146162	0.250034
C223	C	1.172684	0.103838	0.500034
C224	C	1.422684	0.353838	0.750034
C225	C	0.568127	-0.441406	-0.000012
C226	C	0.818127	-0.191406	0.249988
C227	C	1.068127	0.058594	0.499988
C228	C	1.318127	0.308594	0.749988
C229	C	0.568844	-0.382004	-0.000012
C230	C	0.818844	-0.132004	0.249988
C231	C	1.068844	0.117996	0.499988
C232	C	1.318844	0.367996	0.749988
C233	C	0.621123	-0.359380	0.000006
C234	C	0.871123	-0.109380	0.250006
C235	C	1.121123	0.140620	0.500006
C236	C	1.371123	0.390620	0.750006
C237	C	0.621831	-0.299993	0.000041
C238	C	0.871831	-0.049993	0.250041
C239	C	1.121831	0.200007	0.500041
C240	C	1.371831	0.450007	0.750041
N241	N	0.674107	-0.277366	0.000046
N242	N	0.924107	-0.027366	0.250046
N243	N	1.174107	0.222634	0.500046
N244	N	1.424107	0.472634	0.750046
C245	C	0.725671	-0.314139	0.000051
C246	C	0.975671	-0.064139	0.250051
C247	C	1.225671	0.185861	0.500051
C248	C	1.475671	0.435861	0.750051
C249	C	0.617491	-0.662324	0.000001
C250	C	0.867491	-0.412324	0.250001
C251	C	1.117491	-0.162324	0.500001
C252	C	1.367491	0.087676	0.750001
C253	C	0.616778	-0.721721	0.000009
C254	C	0.866778	-0.471721	0.250009
C255	C	1.116778	-0.221721	0.500009
C256	C	1.366778	0.028279	0.750009
C257	C	0.720622	-0.735868	0.000021
C258	C	0.970622	-0.485868	0.250021
C259	C	1.220622	-0.235868	0.500021
C260	C	1.470622	0.014132	0.750021
C261	C	0.721334	-0.676469	0.000022
C262	C	0.971334	-0.426469	0.250022
C263	C	1.221334	-0.176469	0.500022
C264	C	1.471334	0.073531	0.750022
C265	C	0.669767	-0.639697	0.000007
C266	C	0.919767	-0.389697	0.250007
C267	C	1.169767	-0.139697	0.500007
C268	C	1.419767	0.110303	0.750007
C269	C	0.727160	-0.189401	0.000076
C270	C	0.977160	0.060599	0.250076
C271	C	1.227160	0.310599	0.500076
C272	C	1.477160	0.560599	0.750076
C273	C	0.727866	-0.129999	0.000092
C274	C	0.977866	0.120001	0.250092
C275	C	1.227866	0.370001	0.500092
C276	C	1.477866	0.620001	0.750092
C277	C	0.624022	-0.115857	0.000074
C278	C	0.874022	0.134143	0.250074
C279	C	1.124022	0.384143	0.500074
C280	C	1.374022	0.634143	0.750074
C281	C	0.623315	-0.175254	0.000064
C282	C	0.873315	0.074746	0.250064
C283	C	1.123315	0.324746	0.500064
C284	C	1.373315	0.574746	0.750064
C285	C	0.674889	-0.212026	0.000061
C286	C	0.924889	0.037974	0.250061
C287	C	1.174889	0.287974	0.500061
C288	C	1.424889	0.537974	0.750061
O289	O	0.578067	-0.263212	0.000074
O290	O	0.828067	-0.013212	0.250074
O291	O	1.078067	0.236788	0.500074
O292	O	1.328067	0.486788	0.750074
O293	O	0.770194	-0.289431	0.000042
O294	O	1.020194	-0.039431	0.250042
O295	O	1.270194	0.210569	0.500042
O296	O	1.520194	0.460569	0.750042
C297	C	0.776469	0.069391	0.000063
C298	C	1.026469	0.319391	0.250063
C299	C	1.276469	0.569391	0.500063
C300	C	1.526469	0.819391	0.750063
C301	C	0.839686	0.070157	0.000062
C302	C	1.089686	0.320157	0.250062
C303	C	1.339686	0.570157	0.500062
C304	C	1.589686	0.820157	0.750062
C305	C	0.667576	0.178284	0.000025
C306	C	0.917576	0.428284	0.250025
C307	C	1.167576	0.678284	0.500025
C308	C	1.417576	0.928284	0.750025
C309	C	0.668343	0.241501	0.000008
C310	C	0.918343	0.491501	0.250008
C311	C	1.168343	0.741501	0.500008
C312	C	1.418343	0.991501	0.750008
N313	N	0.661335	0.085111	0.281894
N314	N	0.911335	0.335111	0.531894
N315	N	1.161335	0.585111	0.781894
N316	N	1.411335	0.835111	1.031894
N317	N	0.683313	0.063159	-0.281788
N318	N	0.933313	0.313159	-0.031788
N319	N	1.183313	0.563159	0.218212
N320	N	1.433313	0.813159	0.468212
C321	C	0.729527	0.016957	0.531209
C322	C	0.979527	0.266957	0.781209
C323	C	1.229527	0.516957	1.031209
C324	C	1.479527	0.766957	1.281209
C325	C	0.724680	0.021808	0.655871
C326	C	0.974680	0.271808	0.905871
C327	C	1.224680	0.521808	1.155871
C328	C	1.474680	0.771808	1.405871
C329	C	0.646790	0.099661	0.655882
C330	C	0.896790	0.349661	0.905882
C331	C	1.146790	0.599661	1.155882
C332	C	1.396790	0.849661	1.405882
C333	C	0.651638	0.094810	0.531220
C334	C	0.901638	0.344810	0.781220
C335	C	1.151638	0.594810	1.031220
C336	C	1.401638	0.844810	1.281220
C337	C	0.693008	0.053457	0.468888
C338	C	0.943008	0.303457	0.718888
C339	C	1.193008	0.553457	0.968888
C340	C	1.443008	0.803457	1.218888
C341	C	0.697858	0.048609	0.344224
C342	C	0.947858	0.298609	0.594224
C343	C	1.197858	0.548609	0.844224
C344	C	1.447858	0.798609	1.094224
C345	C	0.619966	0.126460	0.344237
C346	C	0.869966	0.376460	0.594237
C347	C	1.119966	0.626460	0.844237
C348	C	1.369966	0.876460	1.094237
C349	C	0.615119	0.131311	0.468899
C350	C	0.865119	0.381311	0.718899
C351	C	1.115119	0.631311	0.968899
C352	C	1.365119	0.881311	1.218899
H353	H	0.512278	-0.016148	0.000059
H354	H	0.762278	0.233852	0.250059
H355	H	1.012278	0.483852	0.500059
H356	H	1.262278	0.733852	0.750059
H357	H	0.526851	-0.352066	-0.000026
H358	H	0.776851	-0.102066	0.249974
H359	H	1.026851	0.147934	0.499974
H360	H	1.276851	0.397934	0.749974
H361	H	0.378845	0.170965	0.000020
H362	H	0.628845	0.420965	0.250020
H363	H	0.878845	0.670965	0.500020
H364	H	1.128845	0.920965	0.750020
H365	H	0.246100	-0.071343	0.000107
H366	H	0.496100	0.178657	0.250107
H367	H	0.746100	0.428657	0.500107
H368	H	0.996100	0.678657	0.750107
Cl369	Cl	0.216288	0.244062	0.000044
Cl370	Cl	0.466288	0.494062	0.250044
Cl371	Cl	0.716288	0.744062	0.500044
Cl372	Cl	0.966288	0.994062	0.750044
H373	H	0.580744	-0.193674	0.000083
H374	H	0.830744	0.056326	0.250083
H375	H	1.080744	0.306326	0.500083
H376	H	1.330744	0.556326	0.750083
H377	H	0.582040	-0.085906	0.000074
H378	H	0.832040	0.164094	0.250074
H379	H	1.082040	0.414094	0.500074
H380	H	1.332040	0.664094	0.750074
Cl381	Cl	0.394493	-0.040598	0.000076
Cl382	Cl	0.644493	0.209402	0.250076
Cl383	Cl	0.894493	0.459402	0.500076
Cl384	Cl	1.144493	0.709402	0.750076
Cl385	Cl	0.496614	0.195406	-0.000023
Cl386	Cl	0.746614	0.445406	0.249977
Cl387	Cl	0.996614	0.695406	0.499977
Cl388	Cl	1.246614	0.945406	0.749977
Cl389	Cl	0.082235	0.242451	0.000067
Cl390	Cl	0.332235	0.492451	0.250067
Cl391	Cl	0.582235	0.742451	0.500067
Cl392	Cl	0.832235	0.992451	0.750067
H393	H	0.575496	-0.632386	-0.000001
H394	H	0.825496	-0.382386	0.249999
H395	H	1.075496	-0.132386	0.499999
H396	H	1.325496	0.117614	0.749999
Cl397	Cl	0.791996	-0.235619	0.000074
Cl398	Cl	1.041996	0.014381	0.250074
Cl399	Cl	1.291996	0.264381	0.500074
Cl400	Cl	1.541996	0.514381	0.750074
H401	H	0.817804	-0.499643	0.000044
H402	H	1.067804	-0.249643	0.250044
H403	H	1.317804	0.000357	0.500044
H404	H	1.567804	0.250357	0.750044
H405	H	0.763217	-0.016711	0.480457
H406	H	1.013217	0.233289	0.730457
H407	H	1.263217	0.483289	0.980457
H408	H	1.513217	0.733289	1.230457
Cl409	Cl	0.594779	0.151639	0.734254
Cl410	Cl	0.844779	0.401639	0.984254
Cl411	Cl	1.094779	0.651639	1.234254
Cl412	Cl	1.344779	0.901639	1.484254
Cl413	Cl	-0.049844	0.188866	0.000020
Cl414	Cl	0.200156	0.438866	0.250020
Cl415	Cl	0.450156	0.688866	0.500020
Cl416	Cl	0.700156	0.938866	0.750020
H417	H	0.754417	-0.007915	0.706609
H418	H	1.004417	0.242085	0.956609
H419	H	1.254417	0.492085	1.206609
H420	H	1.504417	0.742085	1.456609
Cl421	Cl	0.749867	-0.003376	0.265866
Cl422	Cl	0.999867	0.246624	0.515866
Cl423	Cl	1.249867	0.496624	0.765866
Cl424	Cl	1.499867	0.746624	1.015866
Cl425	Cl	-0.151977	-0.047135	0.000080
Cl426	Cl	0.098023	0.202865	0.250080
Cl427	Cl	0.348023	0.452865	0.500080
Cl428	Cl	0.598023	0.702865	0.750080
Cl429	Cl	0.787059	-0.648035	0.000043
Cl430	Cl	1.037059	-0.398035	0.250043
Cl431	Cl	1.287059	-0.148035	0.500043
Cl432	Cl	1.537059	0.101965	0.750043
Cl433	Cl	0.502401	-0.469832	-0.000042
Cl434	Cl	0.752401	-0.219832	0.249958
Cl435	Cl	1.002401	0.030168	0.499958
Cl436	Cl	1.252401	0.280168	0.749958
H437	H	0.581434	0.164978	0.519664
H438	H	0.831434	0.414978	0.769664
H439	H	1.081434	0.664978	1.019664
H440	H	1.331434	0.914978	1.269664
Cl441	Cl	-0.183921	0.187256	0.000026
Cl442	Cl	0.066079	0.437256	0.250026
Cl443	Cl	0.316079	0.687256	0.500026
Cl444	Cl	0.566079	0.937256	0.750026
H445	H	0.770439	-0.111582	0.000110
H446	H	1.020439	0.138418	0.250110
H447	H	1.270439	0.388418	0.500110
H448	H	1.520439	0.638418	0.750110
H449	H	0.819094	-0.391897	0.000065
H450	H	1.069094	-0.141897	0.250065
H451	H	1.319094	0.108103	0.500065
H452	H	1.569094	0.358103	0.750065
Cl453	Cl	0.574058	0.172351	0.265880
Cl454	Cl	0.824058	0.422351	0.515880
Cl455	Cl	1.074058	0.672351	0.765880
Cl456	Cl	1.324058	0.922351	1.015880
H457	H	0.762609	-0.765820	0.000021
H458	H	1.012609	-0.515820	0.250021
H459	H	1.262609	-0.265820	0.500021
H460	H	1.512609	-0.015820	0.750021
H461	H	-0.034207	-0.022695	0.000099
H462	H	0.215793	0.227305	0.250099
H463	H	0.465793	0.477305	0.500099
H464	H	0.715793	0.727305	0.750099
H465	H	0.574206	-0.740135	0.000015
H466	H	0.824206	-0.490135	0.250015
H467	H	1.074206	-0.240135	0.500015
H468	H	1.324206	0.009865	0.750015
H469	H	0.138355	-0.072633	0.000104
H470	H	0.388355	0.177367	0.250104
H471	H	0.638355	0.427367	0.500104
H472	H	0.888355	0.677367	0.750104
