data_functionalizedCrystal
_audit_creation_method	'MofGen! by Chris Wilmer'
_symmetry_space_group_name_H-M	'P1'
_symmetry_Int_Tables_number	1
_symmetry_cell_setting	triclinic
loop_
_symmetry_equiv_pos_as_xyz
  x,y,z
_cell_length_a	6.817900
_cell_length_b	9.109307
_cell_length_c	10.992410
_cell_angle_alpha	97.412812
_cell_angle_beta	108.764651
_cell_angle_gamma	111.764999
loop_
_atom_site_label
_atom_site_type_symbol
_atom_site_fract_x
_atom_site_fract_y
_atom_site_fract_z
V1	V	-4.146598	-0.225357	-0.425444
O2	O	-4.070821	0.010829	-0.391773
O3	O	-4.155972	-0.446846	-0.447129
O4	O	-4.123693	-0.221891	-0.599774
O5	O	-4.103324	-0.215683	-0.238071
V6	V	-4.619437	-0.197107	-0.400045
O7	O	-4.431294	-0.287328	-0.481159
O8	O	-4.784938	-0.135137	-0.344330
O9	O	-4.386856	0.024382	-0.378360
O10	O	-4.812610	-0.433294	-0.433716
O11	O	-4.780108	-0.206781	-0.587418
O12	O	-4.419135	-0.200573	-0.225715
C13	C	-4.014202	-0.500840	-0.446763
C14	C	-4.103323	-0.681910	-0.465655
C15	C	-3.973025	-0.213886	-0.641476
C16	C	-4.035963	-0.212517	-0.784153
C17	C	-3.901296	-0.200046	-0.977902
C18	C	-3.836047	-0.202145	-0.829650
C19	C	-4.257034	-0.373117	-0.878968
C20	C	-4.321143	-0.371696	-1.027377
C21	C	-4.154268	-0.060717	-0.955053
C22	C	-4.083450	-0.059956	-0.805956
C23	C	-4.191970	0.078367	-0.378723
C24	C	-4.082089	0.259435	-0.359840
C25	C	-4.233145	-0.208584	-0.184007
C26	C	-4.149443	-0.209944	-0.041327
H27	H	-3.995769	-0.652255	-0.254767
H28	H	-4.227532	-0.486386	-0.865853
N29	N	-4.211593	-0.792668	-0.597489
N30	N	-4.231580	-0.737602	-0.696974
H31	H	-4.308041	-0.815823	-0.790082
H32	H	-4.033847	0.061239	-0.961963
N33	N	-3.628989	-0.057288	-0.746778
N34	N	-3.447581	-0.029840	-0.764063
H35	H	-3.301333	0.072469	-0.705543
N36	N	-3.733338	-0.054177	-0.985439
N37	N	-3.794554	0.044191	-1.037649
H38	H	-3.675934	0.147218	-1.042979
H39	H	-3.891750	-0.307267	-1.037718
H40	H	-3.794473	-0.310855	-0.816823
N41	N	-4.321973	-0.513451	-1.101045
N42	N	-4.275287	-0.612739	-1.042704
H43	H	-4.275867	-0.712857	-1.094726
H44	H	-3.923142	0.058849	-0.740497
H45	H	-4.505150	-0.385662	-1.071549
N46	N	-4.448081	-0.389899	-0.844683
N47	N	-4.423375	-0.283429	-0.749758
H48	H	-4.558300	-0.295276	-0.725541
H49	H	-4.225292	-0.058070	-0.773236
H50	H	-4.334090	-0.066554	-0.996537
