data_functionalizedCrystal
_audit_creation_method	'MofGen! by Chris Wilmer'
_symmetry_space_group_name_H-M	'P1'
_symmetry_Int_Tables_number	1
_symmetry_cell_setting	triclinic
loop_
_symmetry_equiv_pos_as_xyz
  x,y,z
_cell_length_a	18.215405
_cell_length_b	18.050591
_cell_length_c	18.215399
_cell_angle_alpha	90.025700
_cell_angle_beta	90.030551
_cell_angle_gamma	90.020891
loop_
_atom_site_label
_atom_site_type_symbol
_atom_site_fract_x
_atom_site_fract_y
_atom_site_fract_z
Zn1	Zn	-0.293070	1.135345	0.416218
Zn2	Zn	0.040263	1.468678	0.749551
Zn3	Zn	0.373596	1.802011	1.082884
Zn4	Zn	-0.416141	1.135252	0.293146
Zn5	Zn	-0.082808	1.468586	0.626479
Zn6	Zn	0.250525	1.801919	0.959812
Zn7	Zn	-0.293085	1.011154	0.293152
Zn8	Zn	0.040249	1.344487	0.626486
Zn9	Zn	0.373582	1.677820	0.959819
Zn10	Zn	-0.416091	1.011119	0.416158
Zn11	Zn	-0.082758	1.344453	0.749491
Zn12	Zn	0.250576	1.677786	1.082825
O13	O	-0.354597	1.073217	0.354669
O14	O	-0.021264	1.406551	0.688002
O15	O	0.312070	1.739884	1.021335
O16	O	-0.309411	1.239257	0.399914
O17	O	0.023922	1.572590	0.733247
O18	O	0.357256	1.905924	1.066581
O19	O	-0.399845	1.118766	0.190162
O20	O	-0.066512	1.452099	0.523496
O21	O	0.266822	1.785433	0.856829
O22	O	-0.190099	1.027681	0.309505
O23	O	0.143235	1.361014	0.642838
O24	O	0.476568	1.694348	0.976172
O25	O	-0.399831	1.239189	0.309494
O26	O	-0.066498	1.572523	0.642827
O27	O	0.266836	1.905856	0.976160
O28	O	-0.190088	1.118924	0.399921
O29	O	0.143245	1.452257	0.733254
O30	O	0.476579	1.785590	1.066587
O31	O	-0.309436	1.027591	0.190167
O32	O	0.023898	1.360925	0.523501
O33	O	0.357231	1.694258	0.856834
O34	O	-0.309387	0.907224	0.309447
O35	O	0.023947	1.240558	0.642781
O36	O	0.357280	1.573891	0.976114
O37	O	-0.399745	1.027622	0.519150
O38	O	-0.066411	1.360956	0.852484
O39	O	0.266922	1.694289	1.185817
O40	O	-0.399759	0.907199	0.399819
O41	O	-0.066426	1.240533	0.733152
O42	O	0.266908	1.573866	1.066486
O43	O	-0.309362	1.118890	0.519194
O44	O	0.023971	1.452224	0.852527
O45	O	0.357305	1.785557	1.185861
O46	O	-0.519119	1.118733	0.309436
O47	O	-0.185786	1.452066	0.642769
O48	O	0.147548	1.785399	0.976103
O49	O	-0.519082	1.027533	0.399813
O50	O	-0.185749	1.360866	0.733146
O51	O	0.147585	1.694199	1.066479
C52	C	-0.545803	1.073139	0.354633
C53	C	-0.212470	1.406472	0.687966
C54	C	0.120864	1.739806	1.021300
C55	C	-0.627602	1.073173	0.354643
C56	C	-0.294269	1.406507	0.687976
C57	C	0.039065	1.739840	1.021309
C58	C	-0.354569	0.880265	0.354628
C59	C	-0.021236	1.213599	0.687961
C60	C	0.312097	1.546932	1.021295
C61	C	-0.354575	0.797720	0.354628
C62	C	-0.021242	1.131053	0.687961
C63	C	0.312091	1.464386	1.021295
C64	C	-0.815791	1.120773	0.307670
C65	C	-0.482457	1.454106	0.641003
C66	C	-0.149124	1.787439	0.974337
C67	C	-0.892650	1.120806	0.307688
C68	C	-0.559316	1.454139	0.641021
C69	C	-0.225983	1.787473	0.974355
C70	C	-0.892651	1.025757	0.401720
C71	C	-0.559318	1.359090	0.735053
C72	C	-0.225984	1.692424	1.068387
C73	C	-0.815794	1.025728	0.401705
C74	C	-0.482460	1.359062	0.735039
C75	C	-0.149127	1.692395	1.068372
C76	C	-0.777365	1.073235	0.354676
C77	C	-0.444032	1.406568	0.688010
C78	C	-0.110699	1.739902	1.021343
C79	C	-0.931082	1.073297	0.354709
C80	C	-0.597748	1.406630	0.688042
C81	C	-0.264415	1.739964	1.021375
C82	C	-1.014415	1.073333	0.354728
C83	C	-0.681082	1.406666	0.688062
C84	C	-0.347749	1.739999	1.021395
C85	C	-0.694027	1.073201	0.354657
C86	C	-0.360693	1.406534	0.687991
C87	C	-0.027360	1.739867	1.021324
C88	C	-0.305374	0.598261	0.305597
C89	C	0.027959	0.931594	0.638930
C90	C	0.361293	1.264928	0.972264
C91	C	-0.372499	0.548844	0.287483
C92	C	-0.039165	0.882177	0.620817
C93	C	0.294168	1.215511	0.954150
C94	C	-0.354598	0.646589	0.354661
C95	C	-0.021264	0.979923	0.687994
C96	C	0.312069	1.313256	1.021328
C97	C	-0.287496	0.548925	0.372773
C98	C	0.045837	0.882258	0.706106
C99	C	0.379170	1.215591	1.039440
C100	C	-0.354613	0.500604	0.354692
C101	C	-0.021280	0.833937	0.688025
C102	C	0.312053	1.167271	1.021359
C103	C	-0.421758	0.598259	0.336512
C104	C	-0.088424	0.931592	0.669846
C105	C	0.244909	1.264926	1.003179
C106	C	-0.336710	0.598344	0.421833
C107	C	-0.003377	0.931678	0.755167
C108	C	0.329957	1.265011	1.088500
C109	C	-0.403881	0.548949	0.403745
C110	C	-0.070548	0.882283	0.737078
C111	C	0.262786	1.215616	1.070412
C112	C	-0.354588	0.730687	0.354642
C113	C	-0.021254	1.064021	0.687975
C114	C	0.312079	1.397354	1.021308
C115	C	-0.354631	0.416508	0.354712
C116	C	-0.021298	0.749841	0.688045
C117	C	0.312036	1.083174	1.021378
C118	C	-0.162644	1.073316	0.354720
C119	C	0.170689	1.406650	0.688054
C120	C	0.504023	1.739983	1.021387
C121	C	-0.080845	1.073359	0.354742
C122	C	0.252488	1.406692	0.688076
C123	C	0.585822	1.740025	1.021409
C124	C	-0.354546	1.073263	0.546622
C125	C	-0.021213	1.406596	0.879955
C126	C	0.312121	1.739929	1.213288
C127	C	-0.354524	1.073282	0.628420
C128	C	-0.021191	1.406615	0.961754
C129	C	0.312142	1.739949	1.295087
C130	C	-0.354625	1.266923	0.354710
C131	C	-0.021292	1.600256	0.688043
C132	C	0.312042	1.933590	1.021376
C133	C	-0.354637	1.349469	0.354727
C134	C	-0.021304	1.682802	0.688061
C135	C	0.312030	2.016135	1.021394
C136	C	-0.354594	1.073215	0.163462
C137	C	-0.021261	1.406548	0.496796
C138	C	0.312072	1.739882	0.830129
C139	C	-0.354409	1.073340	0.081664
C140	C	-0.021075	1.406673	0.414997
C141	C	0.312258	1.740006	0.748331
C142	C	-0.307418	1.120822	0.816639
C143	C	0.025915	1.454156	1.149972
C144	C	0.359249	1.787489	1.483305
C145	C	-0.307397	1.120831	0.893497
C146	C	0.025937	1.454165	1.226831
C147	C	0.359270	1.787498	1.560164
C148	C	-0.401517	1.025794	0.893440
C149	C	-0.068184	1.359128	1.226774
C150	C	0.265150	1.692461	1.560107
C151	C	-0.401534	1.025782	0.816583
C152	C	-0.068201	1.359115	1.149916
C153	C	0.265132	1.692449	1.483250
C154	C	-0.354486	1.073300	0.778184
C155	C	-0.021153	1.406634	1.111517
C156	C	0.312181	1.739967	1.444851
C157	C	-0.354447	1.073321	0.931900
C158	C	-0.021114	1.406655	1.265234
C159	C	0.312219	1.739988	1.598567
C160	C	-0.354424	1.073331	1.015234
C161	C	-0.021091	1.406664	1.348567
C162	C	0.312242	1.739997	1.681901
C163	C	-0.354508	1.073290	0.694845
C164	C	-0.021174	1.406624	1.028178
C165	C	0.312159	1.739957	1.361512
H166	H	-0.784504	1.159457	0.269377
H167	H	-0.451171	1.492790	0.602711
H168	H	-0.117838	1.826123	0.936044
N169	N	-0.934095	1.172080	0.256990
N170	N	-0.600762	1.505414	0.590324
N171	N	-0.267428	1.838747	0.923657
H172	H	-0.898086	1.202169	0.227198
H173	H	-0.564753	1.535503	0.560531
H174	H	-0.231419	1.868836	0.893865
H175	H	-0.966032	1.141884	0.222909
H176	H	-0.632699	1.475217	0.556242
H177	H	-0.299366	1.808551	0.889576
N178	N	-0.256675	1.172070	0.775221
N179	N	0.076658	1.505404	1.108554
N180	N	0.409992	1.838737	1.441887
H181	H	-0.226854	1.202175	0.811247
H182	H	0.106479	1.535509	1.144580
H183	H	0.439813	1.868842	1.477914
H184	H	-0.222622	1.141852	0.743333
H185	H	0.110711	1.475186	1.076666
H186	H	0.444045	1.808519	1.409999
N187	N	-0.934098	0.974517	0.452439
N188	N	-0.600765	1.307850	0.785772
N189	N	-0.267432	1.641183	1.119105
H190	H	-0.988618	0.981745	0.445314
H191	H	-0.655285	1.315078	0.778647
H192	H	-0.321952	1.648412	1.111981
H193	H	-0.920709	0.921480	0.440924
H194	H	-0.587375	1.254814	0.774257
H195	H	-0.254042	1.588147	1.107590
N196	N	-0.256623	1.172078	0.934974
N197	N	0.076711	1.505412	1.268307
N198	N	0.410044	1.838745	1.601641
H199	H	-0.226820	1.202174	0.898984
H200	H	0.106513	1.535507	1.232317
H201	H	0.439847	1.868841	1.565650
H202	H	-0.286568	1.206438	0.966870
H203	H	0.046765	1.539771	1.300203
H204	H	0.380098	1.873105	1.633536
N205	N	-0.452259	0.974554	0.934870
N206	N	-0.118925	1.307888	1.268203
N207	N	0.214408	1.641221	1.601537
H208	H	-0.504847	0.986057	0.921485
H209	H	-0.171513	1.319391	1.254819
H210	H	0.161820	1.652724	1.588152
H211	H	-0.440763	0.921514	0.921472
H212	H	-0.107430	1.254848	1.254805
H213	H	0.225903	1.588181	1.588139
H214	H	-0.387640	0.527102	0.230690
H215	H	-0.054307	0.860436	0.564023
H216	H	0.279027	1.193769	0.897357
H217	H	-0.439862	0.987079	0.785273
H218	H	-0.106529	1.320412	1.118606
H219	H	0.226805	1.653745	1.451939
H220	H	-0.445563	0.527434	0.445250
H221	H	-0.112229	0.860767	0.778584
H222	H	0.221104	1.194101	1.111917
H223	H	-0.784506	0.987017	0.439987
H224	H	-0.451172	1.320350	0.773320
H225	H	-0.117839	1.653684	1.106653
N226	N	-0.250294	0.626950	0.250583
N227	N	0.083040	0.960284	0.583917
N228	N	0.416373	1.293617	0.917250
H229	H	-0.263912	0.608943	0.199866
H230	H	0.069421	0.942276	0.533199
H231	H	0.402755	1.275609	0.866533
H232	H	-0.250372	0.682897	0.251357
H233	H	0.082961	1.016230	0.584690
H234	H	0.416295	1.349563	0.918023
N235	N	-0.212325	0.520212	0.393052
N236	N	0.121009	0.853546	0.726385
N237	N	0.454342	1.186879	1.059719
H238	H	-0.175180	0.538150	0.355941
H239	H	0.158153	0.871483	0.689275
H240	H	0.491486	1.204816	1.022608
H241	H	-0.198489	0.538997	0.443431
H242	H	0.134845	0.872330	0.776764
H243	H	0.468178	1.205664	1.110097
H244	H	-0.478528	0.619840	0.321143
H245	H	-0.145195	0.953173	0.654477
H246	H	0.188139	1.286506	0.987810
N247	N	-0.316635	0.627167	0.497042
N248	N	0.016698	0.960500	0.830376
N249	N	0.350032	1.293834	1.163709
H250	H	-0.265906	0.609254	0.510670
H251	H	0.067428	0.942587	0.844003
H252	H	0.400761	1.275921	1.177336
H253	H	-0.317296	0.683112	0.496533
H254	H	0.016037	1.016445	0.829867
H255	H	0.349371	1.349779	1.163200
