data_functionalizedCrystal
_audit_creation_method	'MofGen! by Chris Wilmer'
_symmetry_space_group_name_H-M	'P1'
_symmetry_Int_Tables_number	1
_symmetry_cell_setting	triclinic
loop_
_symmetry_equiv_pos_as_xyz
  x,y,z
_cell_length_a	14.971482
_cell_length_b	19.288865
_cell_length_c	13.448316
_cell_angle_alpha	89.988163
_cell_angle_beta	89.993798
_cell_angle_gamma	83.374428
loop_
_atom_site_label
_atom_site_type_symbol
_atom_site_fract_x
_atom_site_fract_y
_atom_site_fract_z
O1	O	1.186460	0.090505	-0.082691
O2	O	1.686460	0.590505	0.417309
O3	O	0.926001	0.101347	-0.082697
O4	O	1.426001	0.601347	0.417303
O5	O	1.063757	-0.005180	-0.082674
O6	O	1.563757	0.494820	0.417326
O7	O	1.048704	0.197032	-0.082714
O8	O	1.548704	0.697032	0.417286
O9	O	1.063739	-0.005186	0.082710
O10	O	1.563739	0.494814	0.582710
O11	O	0.925984	0.101341	0.082687
O12	O	1.425984	0.601341	0.582687
O13	O	1.186443	0.090499	0.082693
O14	O	1.686443	0.590499	0.582693
Cu15	Cu	1.056212	0.095919	0.097791
Cu16	Cu	1.556212	0.595919	0.597791
Cu17	Cu	1.056232	0.095927	-0.097795
Cu18	Cu	1.556232	0.595927	0.402205
O19	O	1.048687	0.197026	0.082670
O20	O	1.548687	0.697026	0.582670
C21	C	0.892670	0.100860	-0.000006
C22	C	1.392670	0.600860	0.499994
C23	C	0.793381	0.099408	-0.000007
C24	C	1.293381	0.599408	0.499993
C25	C	0.746730	0.098721	0.090145
C26	C	1.246730	0.598721	0.590145
C27	C	0.653439	0.097346	0.090146
C28	C	1.153439	0.597346	0.590146
C29	C	0.606800	0.096663	-0.000006
C30	C	1.106800	0.596663	0.499994
C31	C	0.653457	0.097348	-0.090164
C32	C	1.153457	0.597348	0.409836
C33	C	0.746747	0.098718	-0.090165
C34	C	1.246747	0.598718	0.409835
C35	C	0.459010	0.094494	-0.090157
C36	C	0.959010	0.594494	0.409843
C37	C	0.365713	0.093125	-0.090158
C38	C	0.865713	0.593125	0.409842
C39	C	0.365703	0.093121	0.090153
C40	C	0.865703	0.593121	0.590153
C41	C	0.458993	0.094492	0.090153
C42	C	0.958993	0.594492	0.590153
C43	C	0.505643	0.095178	-0.000006
C44	C	1.005643	0.595178	0.499994
C45	C	1.063264	-0.031061	0.000021
C46	C	1.563264	0.468939	0.500021
C47	C	1.061810	-0.108169	0.000030
C48	C	1.561810	0.391831	0.500030
C49	C	1.142639	-0.152603	0.000036
C50	C	1.642639	0.347397	0.500036
C51	C	1.141273	-0.225054	0.000021
C52	C	1.641273	0.274946	0.500021
C53	C	1.059073	-0.253069	0.000018
C54	C	1.559073	0.246931	0.500018
C55	C	0.978234	-0.208626	0.000006
C56	C	1.478234	0.291374	0.500006
C57	C	0.979602	-0.136176	0.000011
C58	C	1.479602	0.363824	0.500011
C59	C	0.994449	-0.361569	0.057947
C60	C	1.494449	0.138431	0.557947
C61	C	0.993084	-0.434018	0.057947
C62	C	1.493084	0.065982	0.557947
C63	C	1.054850	-0.476528	-0.000004
C64	C	1.554850	0.023472	0.499996
C65	C	1.117996	-0.446583	-0.057943
C66	C	1.617996	0.053417	0.442057
C67	C	1.119364	-0.374133	-0.057938
C68	C	1.619364	0.125867	0.442062
C69	C	1.057581	-0.331628	0.000011
C70	C	1.557581	0.168372	0.500011
C71	C	1.134203	-0.599523	-0.000016
C72	C	1.634203	-0.099523	0.499984
C73	C	1.132834	-0.671975	-0.000038
C74	C	1.632834	-0.171975	0.499962
C75	C	0.969793	-0.655545	-0.000043
C76	C	1.469793	-0.155545	0.499957
C77	C	0.971165	-0.583094	-0.000031
C78	C	1.471165	-0.083094	0.499969
C79	C	1.053372	-0.555088	-0.000013
C80	C	1.553372	-0.055088	0.499987
C81	C	1.219774	0.090986	-0.000001
C82	C	1.719774	0.590986	0.499999
C83	C	1.319063	0.092438	-0.000006
C84	C	1.819063	0.592438	0.499994
C85	C	1.049180	0.222907	-0.000027
C86	C	1.549180	0.722907	0.499973
C87	C	1.050634	0.300015	-0.000042
C88	C	1.550634	0.800015	0.499958
N89	N	1.056204	0.095913	0.235355
N90	N	1.556204	0.595913	0.735355
N91	N	1.056247	0.095927	-0.235359
N92	N	1.556247	0.595927	0.264641
C93	C	1.117221	0.048762	0.287406
C94	C	1.617221	0.548762	0.787406
C95	C	1.117226	0.048762	0.391509
C96	C	1.617226	0.548762	0.891509
C97	C	1.056219	0.095916	0.443560
C98	C	1.556219	0.595916	0.943560
C99	C	0.995195	0.143069	0.391502
C100	C	1.495195	0.643069	0.891502
C101	C	0.995186	0.143066	0.287400
C102	C	1.495186	0.643066	0.787400
C103	C	0.995220	0.143074	0.608482
C104	C	1.495220	0.643074	1.108482
C105	C	0.995230	0.143078	0.712590
C106	C	1.495230	0.643078	1.212590
C107	C	1.117260	0.048770	0.712590
C108	C	1.617260	0.548770	1.212590
C109	C	1.117251	0.048767	0.608489
C110	C	1.617251	0.548767	1.108489
C111	C	1.056229	0.095921	0.556438
C112	C	1.556229	0.595921	1.056438
H113	H	0.615476	0.096787	-0.163567
H114	H	1.115476	0.596787	0.336433
H115	H	1.166947	0.010375	0.754976
H116	H	1.666947	0.510375	1.254976
H117	H	0.615463	0.096774	0.163557
H118	H	1.115463	0.596774	0.663557
H119	H	0.913780	-0.099997	0.000006
H120	H	1.413780	0.400003	0.500006
H121	H	0.784728	0.099279	-0.163576
H122	H	1.284728	0.599279	0.336424
H123	H	1.198657	-0.708153	-0.000038
H124	H	1.698657	-0.208153	0.499962
H125	H	0.941663	-0.458393	0.105119
H126	H	1.441663	0.041607	0.605119
F127	F	1.186562	-0.342265	-0.119603
F128	F	1.686562	0.157735	0.380397
H129	H	0.945499	0.181460	0.245022
H130	H	1.445499	0.681460	0.745022
H131	H	0.945550	0.181475	0.754965
H132	H	1.445550	0.681475	1.254965
F133	F	0.508657	0.095222	-0.186116
F134	F	1.008657	0.595222	0.313884
H135	H	1.209578	-0.129805	0.000048
H136	H	1.709578	0.370195	0.500048
F137	F	0.316053	0.092391	0.186108
F138	F	0.816053	0.592391	0.686108
H139	H	1.168291	-0.481194	-0.105134
H140	H	1.668291	0.018806	0.394866
H141	H	1.201142	-0.576719	-0.000006
H142	H	1.701142	-0.076719	0.499994
F143	F	1.182159	-0.001423	0.232019
F144	F	1.682159	0.498577	0.732019
H145	H	0.902865	-0.678354	-0.000050
H146	H	1.402865	-0.178354	0.499950
H147	H	1.207095	-0.261239	0.000022
H148	H	1.707095	0.238761	0.500022
F149	F	0.508628	0.095225	0.186102
F150	F	1.008628	0.595225	0.686102
F151	F	0.885134	-0.535802	-0.000034
F152	F	1.385134	-0.035802	0.499966
H153	H	0.945517	0.181460	0.433888
H154	H	1.445517	0.681460	0.933888
H155	H	1.166910	0.010368	0.433888
H156	H	1.666910	0.510368	0.933888
F157	F	0.928706	-0.316332	0.119633
F158	F	1.428706	0.183668	0.619633
F159	F	0.890752	-0.238442	-0.000004
F160	F	1.390752	0.261558	0.499996
F161	F	0.930269	0.193259	0.553090
F162	F	1.430269	0.693259	1.053090
H163	H	1.166933	0.010374	0.566109
H164	H	1.666933	0.510374	1.066109
F165	F	0.316078	0.092397	-0.186107
F166	F	0.816078	0.592397	0.313893
H167	H	0.784697	0.099282	0.163557
H168	H	1.284697	0.599282	0.663557
