data_functionalizedCrystal
_audit_creation_method	'MofGen! by Chris Wilmer'
_symmetry_space_group_name_H-M	'P1'
_symmetry_Int_Tables_number	1
_symmetry_cell_setting	triclinic
loop_
_symmetry_equiv_pos_as_xyz
  x,y,z
_cell_length_a	17.917603
_cell_length_b	21.606444
_cell_length_c	21.606444
_cell_angle_alpha	60.003167
_cell_angle_beta	90.000228
_cell_angle_gamma	57.010312
loop_
_atom_site_label
_atom_site_type_symbol
_atom_site_fract_x
_atom_site_fract_y
_atom_site_fract_z
Zr1	Zr	0.754900	0.620466	-0.052708
O2	O	0.629776	0.759024	-0.156248
O3	O	0.793258	0.488454	-0.020970
O4	O	0.793260	0.617566	-0.150083
O5	O	0.629771	0.629916	0.074714
O6	O	0.922217	0.607833	-0.145216
O7	O	0.629774	0.629912	-0.027136
O8	O	0.922213	0.376874	0.085743
O9	O	0.629775	0.860875	-0.156245
O10	O	0.905855	0.533064	-0.003799
O11	O	0.809613	0.540331	0.068579
O12	O	0.809616	0.692345	-0.083435
O13	O	0.713374	0.699612	-0.011058
Zr14	Zr	0.960567	0.604950	0.117493
Zr15	Zr	0.960571	0.604942	-0.044946
Zr16	Zr	0.754895	0.620473	0.109731
Zr17	Zr	0.754897	0.782907	-0.052703
Zr18	Zr	0.960569	0.442509	0.117487
O19	O	0.922208	0.736962	0.085755
O20	O	0.922215	0.736952	-0.145212
O21	O	0.629770	0.759035	0.074718
O22	O	1.085690	0.466392	0.221033
O23	O	1.085697	0.466381	-0.009934
O24	O	0.793251	0.488464	0.209996
O25	O	1.085695	0.595500	-0.009929
O26	O	0.922206	0.607849	0.214867
O27	O	0.793249	0.617583	0.210001
O28	O	1.085692	0.595504	0.091920
O29	O	0.793257	0.848536	-0.150075
O30	O	0.922210	0.376880	0.214860
O31	O	1.085691	0.364541	0.221030
O32	O	1.085695	0.364535	0.091913
O33	O	0.629771	0.860881	-0.027128
O34	O	0.793253	0.848542	-0.020958
O35	O	0.905850	0.533071	0.148220
O36	O	1.002092	0.525804	0.075843
O37	O	0.905853	0.685084	-0.003794
O38	O	0.809611	0.692352	0.068583
C39	C	0.857736	0.409520	0.032386
C40	C	0.857737	0.340559	0.032384
C41	C	0.907972	0.304369	-0.005398
C42	C	0.907975	0.239568	-0.005392
C43	C	0.857737	0.210965	0.032390
C44	C	0.807501	0.247159	0.070176
C45	C	0.807504	0.311953	0.070175
C46	C	0.807490	-0.014150	0.070182
C47	C	0.807488	-0.078947	0.070178
C48	C	0.907961	-0.086534	-0.005386
C49	C	0.907964	-0.021740	-0.005387
C50	C	0.857732	0.014444	0.032403
C51	C	0.857730	0.084707	0.032398
C52	C	0.857733	0.140709	0.032391
C53	C	0.600469	0.632126	0.022683
C54	C	0.513156	0.638716	0.019388
C55	C	0.353312	0.650754	0.013370
C56	C	0.362147	0.574666	0.051412
C57	C	0.273205	0.581364	0.048064
C58	C	0.442261	0.644057	0.016718
C59	C	1.114997	0.593290	0.042101
C60	C	1.202310	0.586700	0.045396
C61	C	0.857739	0.612699	-0.170793
C62	C	0.857741	0.612696	-0.239753
C63	C	0.857730	0.815896	0.032399
C64	C	0.857729	0.884856	0.032401
C65	C	0.807492	0.695862	-0.704633
C66	C	0.807490	0.695860	-0.639835
C67	C	0.857727	0.612714	-0.565869
C68	C	0.907962	0.529566	-0.556700
C69	C	0.907958	0.529570	-0.621497
C70	C	0.907978	0.529549	-0.295381
C71	C	0.907980	0.529552	-0.230583
C72	C	0.807510	0.695840	-0.313720
C73	C	0.807506	0.695844	-0.378517
C74	C	0.857736	0.612696	-0.369343
C75	C	0.857736	0.612700	-0.439604
C76	C	0.857733	0.612709	-0.495608
C77	C	0.857727	0.612717	0.235578
C78	C	0.857725	0.612720	0.304537
C79	C	1.115000	0.390102	0.042095
C80	C	1.202314	0.314552	0.045388
C81	C	0.857730	0.409529	0.235572
C82	C	0.857729	0.340572	0.304529
C83	C	1.114994	0.390111	0.245281
C84	C	1.202306	0.314564	0.317533
C85	C	0.600472	0.835305	-0.180496
C86	C	0.513160	0.910852	-0.252748
C87	C	0.600466	0.835314	0.022690
C88	C	0.513152	0.910864	0.019397
C89	C	0.857736	0.815887	-0.170787
C90	C	0.857737	0.884844	-0.239744
C91	C	1.193083	0.282862	0.005355
C92	C	1.275116	0.211884	0.008434
C93	C	1.366379	0.172592	0.051550
C94	C	1.375608	0.204288	0.091583
C95	C	1.293576	0.275269	0.088500
C96	C	0.907963	0.304399	0.378490
C97	C	0.907958	0.239616	0.443289
C98	C	0.857725	0.211002	0.434124
C99	C	0.807484	0.247182	0.360155
C100	C	0.807484	0.311968	0.295358
C101	C	1.293554	0.275292	0.313683
C102	C	1.375601	0.204316	0.381566
C103	C	1.366398	0.172608	0.453298
C104	C	1.275140	0.211887	0.457145
C105	C	1.193095	0.282867	0.389263
C106	C	0.421912	0.950132	-0.248899
C107	C	0.339865	1.021128	-0.316782
C108	C	0.349069	1.052839	-0.388513
C109	C	0.440327	1.013556	-0.392360
C110	C	0.522371	0.942565	-0.324478
C111	C	0.522384	0.942560	0.059422
C112	C	0.440351	1.013556	0.056326
C113	C	0.349087	1.052850	0.013208
C114	C	0.339858	1.021151	-0.026822
C115	C	0.421890	0.950161	-0.023730
C116	C	0.907981	0.913437	-0.230555
C117	C	0.908001	0.978219	-0.295340
C118	C	0.857771	1.014413	-0.369315
C119	C	0.807525	0.985814	-0.378503
C120	C	0.807512	0.921028	-0.313717
H121	H	0.948881	0.210101	-0.036156
C122	C	1.476004	0.161050	0.139017
C123	C	1.546228	0.164641	0.099131
C124	C	1.646627	0.121392	0.146571
C125	C	1.676800	0.074554	0.233897
C126	C	1.606574	0.070961	0.273788
C127	C	1.506176	0.114209	0.226348
H128	H	1.523894	0.199315	0.034483
H129	H	1.698613	0.124052	0.117041
H130	H	1.751121	0.042539	0.269015
H131	H	1.628909	0.036287	0.338437
H132	H	1.454190	0.111550	0.255879
H133	H	0.265541	1.053156	-0.061928
H134	H	0.948868	0.001550	-0.036156
H135	H	0.766606	0.763543	-0.321184
C136	C	0.752269	1.025640	-0.459879
C137	C	0.806135	1.012675	-0.513305
C138	C	0.750873	1.052510	-0.594684
C139	C	0.641745	1.105309	-0.622638
C140	C	0.587873	1.118277	-0.569211
C141	C	0.643135	1.078442	-0.487832
H142	H	0.886923	0.973587	-0.492613
H143	H	0.790753	1.042910	-0.634234
H144	H	0.600837	1.134797	-0.682879
H145	H	0.507085	1.157364	-0.589903
H146	H	0.603255	1.088042	-0.448282
C147	C	0.963235	0.199820	0.524649
C148	C	1.044731	0.095675	0.583182
C149	C	1.100008	0.055881	0.664539
C150	C	1.073791	0.120232	0.687363
C151	C	0.992291	0.224383	0.628828
C152	C	0.937014	0.264177	0.547471
H153	H	1.064142	0.048033	0.566288
H154	H	1.160340	-0.021219	0.707870
H155	H	1.114711	0.090774	0.747588
H156	H	0.972880	0.272025	0.645723
H157	H	0.876682	0.341277	0.504140
C158	C	0.411726	0.915289	-0.067751
C159	C	0.311335	0.958511	-0.115169
C160	C	0.301163	0.923643	-0.159192
C161	C	0.391382	0.845552	-0.155796
C162	C	0.491780	0.802325	-0.108375
C163	C	0.501952	0.837194	-0.064353
H164	H	0.244543	1.016323	-0.117685
H165	H	0.226840	0.955642	-0.194296
H166	H	0.383852	0.819740	-0.188384
H167	H	0.558572	0.744513	-0.105859
H168	H	0.576275	0.805194	-0.029249
H169	H	1.433167	0.114795	0.054055
C170	C	0.258813	1.130925	-0.463180
C171	C	0.158444	1.174081	-0.458937
C172	C	0.068185	1.252165	-0.533601
C173	C	0.078295	1.287091	-0.612508
C174	C	0.178668	1.243934	-0.616755
C175	C	0.268927	1.165851	-0.542091
H176	H	0.150956	1.148227	-0.400523
H177	H	-0.006118	1.284112	-0.530458
H178	H	0.011480	1.344893	-0.667779
H179	H	0.186156	1.269789	-0.675169
H180	H	0.343230	1.133904	-0.545234
C181	C	0.752242	0.351767	0.111734
C182	C	0.696979	0.320310	0.153292
C183	C	0.641720	0.360120	0.194856
C184	C	0.641725	0.431387	0.194860
C185	C	0.696991	0.462849	0.153300
C186	C	0.752249	0.423039	0.111737
H187	H	0.696973	0.267550	0.153291
H188	H	0.600809	0.336830	0.225622
H189	H	0.600820	0.460857	0.225628
H190	H	0.696996	0.515608	0.153302
H191	H	0.793161	0.446329	0.080971
C192	C	1.303695	0.310163	0.234785
C193	C	1.404077	0.266959	0.230567
C194	C	1.414228	0.301829	0.151671
C195	C	1.323996	0.379903	0.076993
C196	C	1.223606	0.423112	0.081208
C197	C	1.213456	0.388242	0.160104
H198	H	1.470879	0.209160	0.285850
H199	H	1.488543	0.269842	0.148551
H200	H	1.331510	0.405716	0.018589
H201	H	1.156805	0.480912	0.025924
H202	H	1.139141	0.420229	0.163224
H203	H	0.766587	0.763563	-0.647309
H204	H	1.118779	0.314853	-0.029763
C205	C	0.252862	0.745546	-0.034030
C206	C	0.162726	0.752187	-0.037354
C207	C	0.062266	0.846978	-0.084756
C208	C	0.051943	0.935128	-0.128833
C209	C	0.142082	0.928490	-0.125510
C210	C	0.242542	0.833699	-0.078109
H211	H	0.170365	0.686931	-0.004724
H212	H	-0.004461	0.851891	-0.087215
H213	H	-0.022423	1.005297	-0.163923
H214	H	0.134443	0.993746	-0.158141
H215	H	0.309268	0.828786	-0.075649
H216	H	0.766587	0.763569	-0.764856
H217	H	0.766602	0.763549	-0.438741
C218	C	0.963237	0.438086	-0.149215
C219	C	1.018485	0.346627	-0.139122
C220	C	1.073739	0.255167	-0.057757
C221	C	1.073746	0.255167	0.013515
C222	C	1.018496	0.346630	0.003424
C223	C	0.963242	0.438090	-0.077941
H224	H	1.018482	0.346623	-0.191884
H225	H	1.114639	0.187460	-0.050287
H226	H	1.114648	0.187463	0.073746
H227	H	1.018499	0.346633	0.056186
H228	H	0.922342	0.505797	-0.085411
H229	H	0.766593	0.897755	-0.321210
H230	H	0.948876	0.327657	-0.036168
H231	H	0.857789	1.067166	-0.422061
H232	H	1.449900	0.172342	0.378420
C233	C	1.456653	0.094524	0.527965
C234	C	1.557022	0.051326	0.523722
C235	C	1.647281	-0.026760	0.598386
C236	C	1.637171	-0.061649	0.677293
C237	C	1.536798	-0.018451	0.681539
C238	C	1.446539	0.059636	0.606875
H239	H	1.564510	0.077153	0.465307
H240	H	1.721584	-0.058738	0.595242
H241	H	1.703986	-0.119453	0.732564
H242	H	1.529310	-0.044277	0.739954
H243	H	1.372236	0.091614	0.610019
H244	H	1.301106	0.301062	0.121104
H245	H	1.267582	0.186087	-0.024166
H246	H	0.265567	1.053101	-0.313634
H247	H	0.948866	-0.116006	-0.036153
H248	H	0.948882	0.461845	-0.287902
H249	H	0.948861	0.461868	-0.496471
H250	H	1.267660	0.186061	0.515558
H251	H	0.766577	-0.102234	0.100948
H252	H	0.948860	0.461867	-0.614026
H253	H	0.766592	0.015301	0.100956
C254	C	1.092722	0.326051	0.393505
C255	C	1.082611	0.291160	0.472411
C256	C	0.982240	0.334340	0.476660
C257	C	0.891981	0.412411	0.402002
C258	C	0.902090	0.447306	0.323090
C259	C	1.002461	0.404126	0.318841
H260	H	1.149428	0.233364	0.527683
H261	H	0.974757	0.308508	0.535077
H262	H	0.817681	0.444375	0.405147
H263	H	0.835272	0.505103	0.267819
H264	H	1.009943	0.429959	0.260425
C265	C	0.622744	0.899356	-0.328720
C266	C	0.632856	0.934242	-0.407627
C267	C	0.733226	0.891039	-0.411875
C268	C	0.823485	0.812950	-0.337218
C269	C	0.813376	0.778060	-0.258305
C270	C	0.713005	0.821263	-0.254057
H271	H	0.566038	0.992052	-0.462898
H272	H	0.740709	0.916867	-0.470292
H273	H	0.897785	0.780969	-0.340363
H274	H	0.880194	0.720251	-0.203034
H275	H	0.705523	0.795435	-0.195640
C276	C	0.622767	0.899351	0.106851
C277	C	0.632900	0.934238	0.150866
C278	C	0.733280	0.891039	0.198293
C279	C	0.823526	0.812953	0.201704
C280	C	0.813395	0.778062	0.157688
C281	C	0.713016	0.821261	0.110261
H282	H	0.566092	0.992046	0.148342
H283	H	0.740779	0.916868	0.230876
H284	H	0.897833	0.780975	0.236812
H285	H	0.880204	0.720255	0.160212
H286	H	0.705517	0.795432	0.077677
H287	H	0.766602	0.223860	0.100944
H288	H	0.857733	0.158248	0.486893
H289	H	0.948870	0.327689	0.385967
H290	H	0.436510	0.504495	0.086495
H291	H	0.766585	0.223874	0.352704
H292	H	0.414400	0.924318	-0.190498
H293	H	0.447809	1.039384	-0.450772
H294	H	0.766580	0.341412	0.235137
H295	H	0.447884	1.039353	0.088927
H296	H	0.282299	1.110655	0.010696
H297	H	0.948884	0.883978	-0.170327
H298	H	0.948915	1.001497	-0.287845
