data_functionalizedCrystal
_audit_creation_method	'MofGen! by Chris Wilmer'
_symmetry_space_group_name_H-M	'P1'
_symmetry_Int_Tables_number	1
_symmetry_cell_setting	triclinic
loop_
_symmetry_equiv_pos_as_xyz
  x,y,z
_cell_length_a	11.026607
_cell_length_b	26.809956
_cell_length_c	11.026607
_cell_angle_alpha	89.992486
_cell_angle_beta	108.586017
_cell_angle_gamma	90.010075
loop_
_atom_site_label
_atom_site_type_symbol
_atom_site_fract_x
_atom_site_fract_y
_atom_site_fract_z
O1	O	1.726739	0.041478	0.533608
O2	O	1.360160	0.041479	0.472844
O3	O	1.513068	0.041477	0.319936
O4	O	1.573831	0.041481	0.686516
O5	O	1.513037	-0.041482	0.319958
O6	O	1.360129	-0.041480	0.472866
O7	O	1.726709	-0.041481	0.533630
Zn8	Zn	1.543414	-0.054652	0.503251
Zn9	Zn	1.543454	0.054650	0.503223
O10	O	1.573801	-0.041479	0.686538
C11	C	1.312485	-0.000000	0.461645
C12	C	1.170471	-0.000000	0.428228
N13	N	1.543396	-0.129248	0.503272
C14	C	1.116821	0.000001	0.520498
C15	C	0.970043	0.000001	0.485962
C16	C	1.611156	-0.473875	0.435534
C17	C	1.611182	-0.682753	0.435521
O18	O	1.668743	-0.709757	0.377924
N19	N	1.543455	-0.708875	0.503196
C20	C	1.475710	-0.682775	0.570872
O21	O	1.418095	-0.709786	0.628423
C22	C	1.475678	-0.473898	0.570877
C23	C	1.543419	-0.447778	0.503208
C24	C	1.678890	-0.447755	0.367869
C25	C	1.678889	-0.395539	0.367879
C26	C	1.611153	-0.369442	0.435553
C27	C	1.543418	-0.395562	0.503217
C28	C	1.407927	-0.447799	0.638545
C29	C	1.407922	-0.395576	0.638537
C30	C	1.475663	-0.369457	0.570868
C31	C	1.475680	-0.317249	0.570901
N32	N	1.543407	-0.291127	0.503226
C33	C	1.611143	-0.317223	0.435552
C34	C	1.475734	-0.792438	0.570867
C35	C	1.475744	-0.844657	0.570868
C36	C	1.611214	-0.844631	0.435515
C37	C	1.611210	-0.792411	0.435522
C38	C	1.543461	-0.766316	0.503192
C39	C	1.611135	-0.207565	0.435578
C40	C	1.611132	-0.155345	0.435598
C41	C	1.475658	-0.155375	0.570945
C42	C	1.475666	-0.207591	0.570931
C43	C	1.543407	-0.233685	0.503238
O44	O	1.418137	-0.290212	0.628456
O45	O	1.668727	-0.290203	0.377987
C46	C	1.611157	-0.526091	0.435524
C47	C	1.543422	-0.552211	0.503189
C48	C	1.475686	-0.526114	0.570863
C49	C	1.543432	-0.604430	0.503190
C50	C	1.611168	-0.630527	0.435516
C51	C	1.678895	-0.604404	0.367841
C52	C	1.678893	-0.552188	0.367850
C53	C	1.407960	-0.552237	0.638538
C54	C	1.407968	-0.604453	0.638524
C55	C	1.475704	-0.630550	0.570850
C56	C	1.774384	-0.000000	0.544828
C57	C	1.916398	0.000003	0.578245
C58	C	1.501843	-0.000002	0.272287
C59	C	1.468426	-0.000000	0.130273
N60	N	1.543480	0.129246	0.503194
C61	C	1.560695	0.000000	0.076624
C62	C	1.526160	0.000002	-0.070155
C63	C	1.585026	0.000001	0.734187
C64	C	1.618443	0.000003	0.876200
H65	H	1.179555	-0.000001	0.625061
H66	H	0.907314	0.000013	0.381393
H67	H	1.665258	-0.000003	0.139357
Br68	Br	1.351868	0.000010	-0.174697
H69	H	1.666370	-0.771148	0.380419
H70	H	1.107738	0.000012	0.323666
Br71	Br	1.294141	0.000007	0.025727
H72	H	0.979125	0.000000	0.682816
Br73	Br	1.770828	-0.483163	0.276012
Br74	Br	1.703071	-0.242970	0.343707
H75	H	1.666300	-0.134079	0.380495
H76	H	1.734045	-0.374275	0.312773
H77	H	1.352809	-0.625716	0.693640
Br78	Br	1.703141	-0.880059	0.343673
Br79	Br	1.383783	-0.757028	0.662716
Br80	Br	1.383832	-0.880099	0.662733
H81	H	1.352765	-0.469058	0.693646
Br82	Br	1.770830	-0.639831	0.276005
Br83	Br	1.792736	0.000007	-0.019260
Br84	Br	1.315964	-0.360165	0.730375
H85	H	1.420520	-0.228858	0.626049
H86	H	1.420512	-0.134119	0.626049
H87	H	1.734055	-0.530925	0.312748
Br88	Br	1.316022	-0.516827	0.730389
