data_functionalizedCrystal
_audit_creation_method	'MofGen! by Chris Wilmer'
_symmetry_space_group_name_H-M	'P1'
_symmetry_Int_Tables_number	1
_symmetry_cell_setting	triclinic
loop_
_symmetry_equiv_pos_as_xyz
  x,y,z
_cell_length_a	19.288866
_cell_length_b	19.288865
_cell_length_c	17.766277
_cell_angle_alpha	90.011603
_cell_angle_beta	90.007831
_cell_angle_gamma	83.136446
loop_
_atom_site_label
_atom_site_type_symbol
_atom_site_fract_x
_atom_site_fract_y
_atom_site_fract_z
O1	O	-0.921353	-0.086652	-0.062576
O2	O	-0.421353	0.413348	0.437424
O3	O	-0.719092	-0.098340	-0.062584
O4	O	-0.219092	0.401660	0.437416
O5	O	-0.826067	0.008634	-0.062565
O6	O	-0.326067	0.508634	0.437435
O7	O	-0.814378	-0.193626	-0.062595
O8	O	-0.314378	0.306374	0.437405
O9	O	-0.826048	0.008640	0.062624
O10	O	-0.326048	0.508640	0.562624
O11	O	-0.719073	-0.098335	0.062604
O12	O	-0.219073	0.401665	0.562604
O13	O	-0.921334	-0.086647	0.062613
O14	O	-0.421334	0.413353	0.562613
Cu15	Cu	-0.820202	-0.092490	0.074039
Cu16	Cu	-0.320202	0.407510	0.574039
Cu17	Cu	-0.820224	-0.092496	-0.074011
Cu18	Cu	-0.320224	0.407504	0.425989
O19	O	-0.814359	-0.193621	0.062593
O20	O	-0.314359	0.306379	0.562593
C21	C	-0.693206	-0.097961	0.000009
C22	C	-0.193206	0.402039	0.500009
C23	C	-0.616103	-0.096832	0.000006
C24	C	-0.116103	0.403168	0.500006
N25	N	-0.820191	-0.092485	0.178170
N26	N	-0.320191	0.407515	0.678170
C27	C	-0.825681	0.034513	0.000032
C28	C	-0.325681	0.534513	0.500032
C29	C	-0.824552	0.111617	0.000038
C30	C	-0.324552	0.611617	0.500038
C31	C	-0.060547	-0.088701	-0.068224
C32	C	0.439453	0.411299	0.431776
C33	C	-0.132995	-0.089757	-0.068227
C34	C	0.367005	0.410243	0.431773
C35	C	-0.169213	-0.090286	0.000013
C36	C	0.330787	0.409714	0.500013
C37	C	-0.132980	-0.089740	0.068261
C38	C	0.367020	0.410260	0.568261
C39	C	-0.060535	-0.088676	0.068262
C40	C	0.439465	0.411324	0.568262
C41	C	-0.278533	-0.132651	0.052287
C42	C	0.221467	0.367349	0.552287
C43	C	-0.350976	-0.133719	0.052283
C44	C	0.149024	0.366281	0.552283
C45	C	-0.392659	-0.093565	0.000013
C46	C	0.107341	0.406435	0.500013
C47	C	-0.361888	-0.052350	-0.052267
C48	C	0.138112	0.447650	0.447733
C49	C	-0.289443	-0.051286	-0.052266
C50	C	0.210557	0.448714	0.447734
C51	C	-0.247768	-0.091439	0.000019
C52	C	0.252232	0.408561	0.500019
C53	C	-0.507440	-0.095252	-0.068234
C54	C	-0.007440	0.404748	0.431766
C55	C	-0.579889	-0.096304	-0.068234
C56	C	-0.079889	0.403696	0.431766
C57	C	-0.579872	-0.096294	0.068256
C58	C	-0.079872	0.403706	0.568256
C59	C	-0.507425	-0.095234	0.068254
C60	C	-0.007425	0.404766	0.568254
C61	C	-0.471213	-0.094717	0.000007
C62	C	0.028787	0.405283	0.500007
C63	C	0.052780	-0.087026	0.000018
C64	C	0.552780	0.412974	0.500018
C65	C	-0.024323	-0.088158	0.000015
C66	C	0.475677	0.411842	0.500015
C67	C	-0.814745	-0.219500	-0.000005
C68	C	-0.314745	0.280500	0.499995
C69	C	-0.815874	-0.296604	-0.000016
C70	C	-0.315874	0.203396	0.499984
C71	C	-0.887320	0.156313	0.000045
C72	C	-0.387320	0.656313	0.500045
C73	C	-0.886259	0.228760	0.000033
C74	C	-0.386259	0.728760	0.500033
C75	C	-0.822427	0.256508	0.000029
C76	C	-0.322427	0.756508	0.500029
C77	C	-0.759651	0.211802	0.000019
C78	C	-0.259651	0.711802	0.500019
C79	C	-0.760714	0.139357	0.000023
C80	C	-0.260714	0.639357	0.500023
C81	C	-0.772241	0.364797	0.043878
C82	C	-0.272241	0.864797	0.543878
C83	C	-0.771181	0.437242	0.043878
C84	C	-0.271181	0.937242	0.543878
C85	C	-0.819148	0.479954	0.000012
C86	C	-0.319148	0.979954	0.500012
C87	C	-0.868186	0.450213	-0.043844
C88	C	-0.368186	0.950213	0.456156
C89	C	-0.869248	0.377768	-0.043840
C90	C	-0.369248	0.877768	0.456160
C91	C	-0.821268	0.335062	0.000024
C92	C	-0.321268	0.835062	0.500024
C93	C	-0.880770	0.603206	0.000005
C94	C	-0.380770	1.103206	0.500005
C95	C	-0.879706	0.675654	-0.000012
C96	C	-0.379706	1.175654	0.499988
C97	C	-0.753096	0.658694	-0.000018
C98	C	-0.253096	1.158694	0.499982
C99	C	-0.754161	0.586247	-0.000009
C100	C	-0.254161	1.086247	0.499991
C101	C	-0.818000	0.558508	0.000006
C102	C	-0.318000	1.058508	0.500006
N103	N	-0.820240	-0.092496	-0.178141
N104	N	-0.320240	0.407504	0.321859
C105	C	-0.867575	-0.045140	0.217565
C106	C	-0.367575	0.454860	0.717565
C107	C	-0.867579	-0.045137	0.296367
C108	C	-0.367579	0.454863	0.796367
C109	C	-0.820206	-0.092491	0.335770
C110	C	-0.320206	0.407509	0.835770
C111	C	-0.772813	-0.139839	0.296365
C112	C	-0.272813	0.360161	0.796365
C113	C	-0.772806	-0.139837	0.217565
C114	C	-0.272806	0.360163	0.717565
C115	C	-0.810907	-0.155778	0.460598
C116	C	-0.310907	0.344222	0.960598
C117	C	-0.810919	-0.155782	0.539397
C118	C	-0.310919	0.344218	1.039397
C119	C	-0.820225	-0.092499	0.578816
C120	C	-0.320225	0.407501	1.078816
C121	C	-0.829532	-0.029210	0.539427
C122	C	-0.329532	0.470790	1.039427
C123	C	-0.829525	-0.029207	0.460627
C124	C	-0.329525	0.470793	0.960627
C125	C	-0.820208	-0.092499	0.421216
C126	C	-0.320208	0.407501	0.921216
C127	C	-0.867615	-0.045146	0.703658
C128	C	-0.367615	0.454854	1.203658
C129	C	-0.867614	-0.045142	0.782461
C130	C	-0.367614	0.454858	1.282461
C131	C	-0.772852	-0.139851	0.782458
C132	C	-0.272852	0.360149	1.282458
C133	C	-0.772850	-0.139849	0.703656
C134	C	-0.272850	0.360151	1.203656
C135	C	-0.820235	-0.092498	0.664261
C136	C	-0.320235	0.407502	1.164261
H137	H	-0.162494	-0.090203	-0.123797
H138	H	0.337506	0.409797	0.376203
N139	N	-0.918727	0.005919	0.824959
N140	N	-0.418727	0.505919	1.324959
H141	H	-0.949387	-0.020559	0.857639
H142	H	-0.449387	0.479441	1.357639
H143	H	-0.892241	0.036597	0.857625
H144	H	-0.392241	0.536597	1.357625
H145	H	-0.803318	-0.207314	0.428510
H146	H	-0.303318	0.292686	0.928510
N147	N	-0.922132	0.345693	-0.091142
N148	N	-0.422132	0.845693	0.408858
H149	H	-0.897069	0.312209	-0.128645
H150	H	-0.397069	0.812209	0.371355
H151	H	-0.952384	0.319677	-0.057488
H152	H	-0.452384	0.819677	0.442512
H153	H	-0.803345	-0.207316	0.571462
H154	H	-0.303345	0.292684	1.071462
N155	N	-0.233580	-0.175962	0.108672
N156	N	0.266420	0.324038	0.608672
H157	H	-0.239386	-0.226914	0.101691
H158	H	0.260614	0.273086	0.601691
H159	H	-0.183039	-0.168975	0.100713
H160	H	0.316961	0.331025	0.600713
N161	N	-0.693011	0.091143	0.000016
N162	N	-0.193011	0.591143	0.500016
H163	H	-0.652411	0.119711	0.000009
H164	H	-0.152411	0.619711	0.500009
H165	H	-0.690687	0.060728	0.046428
H166	H	-0.190687	0.560728	0.546428
H167	H	-0.031068	-0.088276	-0.123797
H168	H	0.468932	0.411724	0.376203
H169	H	-0.837109	0.022321	0.571521
H170	H	-0.337109	0.522321	1.071521
N171	N	-0.172040	-0.090308	0.141864
N172	N	0.327960	0.409692	0.641864
H173	H	-0.223430	-0.091067	0.131509
H174	H	0.276570	0.408933	0.631509
H175	H	-0.153605	-0.133169	0.171660
H176	H	0.346395	0.366831	0.671660
H177	H	-0.376021	-0.167295	0.094837
H178	H	0.123979	0.332705	0.594837
N179	N	-0.256253	-0.006835	-0.108644
N180	N	0.243747	0.493165	0.391356
H181	H	-0.293647	0.018444	-0.141760
H182	H	0.206353	0.518444	0.358240
H183	H	-0.230849	0.028357	-0.081081
H184	H	0.269151	0.528357	0.418919
N185	N	-0.021460	-0.088090	0.141866
N186	N	0.478540	0.411910	0.641866
H187	H	-0.055458	-0.088103	0.185095
H188	H	0.444542	0.411897	0.685095
H189	H	0.014037	-0.130943	0.145060
H190	H	0.514037	0.369057	0.645060
N191	N	-0.406834	-0.009040	-0.108654
N192	N	0.093166	0.490960	0.391346
H193	H	-0.457397	-0.015964	-0.100723
H194	H	0.042603	0.484036	0.399277
H195	H	-0.400965	0.041893	-0.101650
H196	H	0.099035	0.541893	0.398350
H197	H	-0.703049	0.549855	-0.000010
H198	H	-0.203049	1.049855	0.499990
N199	N	-0.956171	0.126394	0.000059
N200	N	-0.456171	0.626394	0.500059
H201	H	-0.995774	0.165706	0.000061
H202	H	-0.495774	0.665706	0.500061
H203	H	-0.959380	0.096696	-0.046348
H204	H	-0.459380	0.596696	0.453652
N205	N	-0.953961	0.276980	0.000038
N206	N	-0.453961	0.776980	0.500038
H207	H	-0.994563	0.248414	0.000047
H208	H	-0.494563	0.748414	0.500047
H209	H	-0.956264	0.307416	0.046446
H210	H	-0.456264	0.807416	0.546446
H211	H	-0.907244	0.484988	-0.079564
H212	H	-0.407244	0.984988	0.420436
N213	N	-0.947411	0.723864	0.000001
N214	N	-0.447411	1.223864	0.500001
H215	H	-0.937053	0.773968	-0.000007
H216	H	-0.437053	1.273968	0.499993
H217	H	-0.975253	0.714891	-0.046401
H218	H	-0.475253	1.214891	0.453599
H219	H	-0.477931	-0.094795	0.123822
H220	H	0.022069	0.405205	0.623822
N221	N	-0.468376	-0.094691	-0.141838
N222	N	0.031624	0.405309	0.358162
H223	H	-0.502321	-0.095189	-0.185070
H224	H	-0.002321	0.404811	0.314930
H225	H	-0.444081	-0.051202	-0.144806
H226	H	0.055919	0.448798	0.355194
H227	H	-0.609383	-0.096740	-0.123805
H228	H	-0.109383	0.403260	0.376195
N229	N	-0.618927	-0.096856	0.141860
N230	N	-0.118927	0.403144	0.641860
H231	H	-0.670318	-0.097610	0.131506
H232	H	-0.170318	0.402390	0.631506
H233	H	-0.600496	-0.139717	0.171658
H234	H	-0.100496	0.360283	0.671658
N235	N	-0.721720	-0.190913	0.338865
N236	N	-0.221720	0.309087	0.838865
H237	H	-0.729557	-0.240191	0.325134
H238	H	-0.229557	0.259809	0.825134
H239	H	-0.672473	-0.182974	0.325152
H240	H	-0.172473	0.317026	0.825152
N241	N	-0.949619	0.573279	0.000018
N242	N	-0.449619	1.073279	0.500018
H243	H	-0.989223	0.612591	0.000014
H244	H	-0.489223	1.112591	0.500014
H245	H	-0.952824	0.543577	-0.046387
H246	H	-0.452824	1.043577	0.453613
H247	H	-0.734268	-0.178405	0.671578
H248	H	-0.234268	0.321595	1.171578
H249	H	-0.906157	-0.006582	0.185492
H250	H	-0.406157	0.493418	0.685492
N251	N	-0.721695	-0.190901	0.175068
N252	N	-0.221695	0.309099	0.675068
H253	H	-0.691681	-0.220898	0.211984
H254	H	-0.191681	0.279102	0.711984
H255	H	-0.748183	-0.221542	0.142359
H256	H	-0.248183	0.278458	0.642359
N257	N	-0.684247	0.688611	-0.000030
N258	N	-0.184247	1.188611	0.499970
H259	H	-0.693097	0.741288	-0.000034
H260	H	-0.193097	1.241288	0.499966
H261	H	-0.656780	0.672257	0.046378
H262	H	-0.156780	1.172257	0.546378
H263	H	-0.733179	0.330027	0.079603
H264	H	-0.233179	0.830027	0.579603
N265	N	-0.690803	0.241725	0.000011
N266	N	-0.190803	0.741725	0.500011
H267	H	-0.699653	0.294401	0.000012
H268	H	-0.199653	0.794401	0.500012
H269	H	-0.663337	0.225368	0.046418
H270	H	-0.163337	0.725368	0.546418
H271	H	-0.906166	-0.006581	0.328449
H272	H	-0.406166	0.493419	0.828449
H273	H	-0.731249	0.461450	0.079584
H274	H	-0.231249	0.961450	0.579584
N275	N	-0.839561	0.039048	0.418141
N276	N	-0.339561	0.539048	0.918141
H277	H	-0.845458	0.079140	0.455064
H278	H	-0.345458	0.579140	0.955064
H279	H	-0.797376	0.042996	0.385459
H280	H	-0.297376	0.542996	0.885459
H281	H	-0.906197	-0.006588	0.671581
H282	H	-0.406197	0.493412	1.171581
H283	H	-0.734277	-0.178405	0.814539
H284	H	-0.234277	0.321595	1.314539
