data_functionalizedCrystal
_audit_creation_method	'MofGen! by Chris Wilmer'
_symmetry_space_group_name_H-M	'P1'
_symmetry_Int_Tables_number	1
_symmetry_cell_setting	triclinic
loop_
_symmetry_equiv_pos_as_xyz
  x,y,z
_cell_length_a	23.532407
_cell_length_b	8.559649
_cell_length_c	7.088929
_cell_angle_alpha	84.674985
_cell_angle_beta	83.810936
_cell_angle_gamma	103.686329
loop_
_atom_site_label
_atom_site_type_symbol
_atom_site_fract_x
_atom_site_fract_y
_atom_site_fract_z
O1	O	-0.012759	-2.103931	-0.158953
O2	O	0.016674	-1.638258	-0.158972
O3	O	-0.081561	-1.885141	-0.158927
O4	O	0.085477	-1.857049	-0.158998
O5	O	-0.094716	-1.918135	0.159054
O6	O	0.003519	-1.671252	0.159009
O7	O	-0.025913	-2.136925	0.159028
Cu8	Cu	-0.012398	-1.907101	0.188053
Cu9	Cu	0.003159	-1.868082	-0.187997
O10	O	0.072322	-1.890043	0.158983
C11	C	0.012327	-1.595190	0.000017
C12	C	0.018967	-1.417704	0.000011
C13	C	-0.109325	-1.900923	0.000069
C14	C	-0.172453	-1.898774	0.000083
C15	C	-0.021566	-2.179993	0.000035
C16	C	-0.028205	-2.357478	0.000029
C17	C	-0.577085	-2.031375	-0.000016
C18	C	-0.636401	-2.029376	-0.000031
O19	O	-0.678272	-2.152300	-0.000096
N20	N	-0.652904	-1.882606	-0.000035
C21	C	-0.610085	-1.737825	-0.000045
O22	O	-0.629568	-1.612802	-0.000052
C23	C	-0.550769	-1.739824	-0.000044
C24	C	-0.534272	-1.886605	-0.000020
C25	C	-0.560586	-2.178143	0.000006
C26	C	-0.501274	-2.180142	0.000024
C27	C	-0.458461	-2.035372	0.000020
C28	C	-0.474960	-1.888603	-0.000002
C29	C	-0.507952	-1.595042	-0.000067
C30	C	-0.448633	-1.597054	-0.000067
C31	C	-0.432135	-1.743835	-0.000043
C32	C	-0.372834	-1.745832	0.000013
N33	N	-0.356332	-1.892601	0.000017
C34	C	-0.399145	-2.037371	0.000021
C35	C	-0.734653	-1.733637	-0.000050
C36	C	-0.793968	-1.731637	-0.000037
C37	C	-0.820279	-2.023189	-0.000027
C38	C	-0.760964	-2.025188	-0.000026
C39	C	-0.718150	-1.880406	-0.000045
C40	C	-0.274584	-2.041558	0.000061
C41	C	-0.215266	-2.043544	0.000087
C42	C	-0.188959	-1.751993	0.000066
C43	C	-0.248272	-1.750006	0.000050
C44	C	-0.291084	-1.894801	0.000041
O45	O	-0.330931	-1.622971	0.000071
O46	O	-0.379652	-2.162371	0.000003
C47	C	0.100086	-1.874260	-0.000016
C48	C	0.163214	-1.876407	-0.000044
N49	N	-0.023341	-1.934557	0.452546
N50	N	0.014096	-1.840639	-0.452490
H51	H	-0.201838	-2.163076	0.000111
H52	H	-0.062136	-2.031909	0.534220
H53	H	-0.261707	-1.630491	0.000084
Br54	Br	0.078763	-1.678406	0.411402
H55	H	-0.747536	-2.144710	-0.000008
H56	H	-0.595440	-2.296039	0.000002
Br57	Br	-0.332677	-2.238066	0.000046
Br58	Br	-0.676553	-1.537129	-0.000060
H59	H	-0.073670	-1.441697	0.000038
Br60	Br	0.094753	-1.277326	-0.000048
Br61	Br	-0.478892	-2.379349	0.000002
H62	H	-0.855149	-2.141068	-0.000031
Br63	Br	-0.130845	-1.555529	0.000062
H64	H	-0.807395	-1.612117	-0.000024
H65	H	-0.521372	-1.475517	-0.000098
H66	H	-0.413775	-1.479152	-0.000086
