data_functionalizedCrystal
_audit_creation_method	'MofGen! by Chris Wilmer'
_symmetry_space_group_name_H-M	'P1'
_symmetry_Int_Tables_number	1
_symmetry_cell_setting	triclinic
loop_
_symmetry_equiv_pos_as_xyz
  x,y,z
_cell_length_a	18.050589
_cell_length_b	19.077142
_cell_length_c	18.050582
_cell_angle_alpha	87.685367
_cell_angle_beta	90.018912
_cell_angle_gamma	92.276109
loop_
_atom_site_label
_atom_site_type_symbol
_atom_site_fract_x
_atom_site_fract_y
_atom_site_fract_z
Zn1	Zn	-0.341407	-1.075935	0.465532
Zn2	Zn	0.158593	-0.575935	0.965532
Zn3	Zn	-0.465588	-1.075848	0.341347
Zn4	Zn	0.034412	-0.575848	0.841347
Zn5	Zn	-0.336420	-0.958245	0.336368
Zn6	Zn	0.163580	-0.458245	0.836368
Zn7	Zn	-0.460558	-0.958198	0.460510
Zn8	Zn	0.039442	-0.458198	0.960510
O9	O	-0.400993	-1.017057	0.400939
O10	O	0.099007	-0.517057	0.900939
O11	O	-0.362071	-1.174414	0.453244
O12	O	0.137929	-0.674414	0.953244
O13	O	-0.448472	-1.060232	0.236762
O14	O	0.051528	-0.560232	0.736762
O15	O	-0.233160	-0.973913	0.353520
O16	O	0.266840	-0.473913	0.853520
O17	O	-0.453307	-1.174350	0.362006
O18	O	0.046693	-0.674350	0.862006
O19	O	-0.236823	-1.060379	0.448416
O20	O	0.263177	-0.560379	0.948416
O21	O	-0.353573	-0.973829	0.233103
O22	O	0.146427	-0.473829	0.733103
O23	O	-0.348696	-0.859749	0.348651
O24	O	0.151304	-0.359749	0.848651
O25	O	-0.444734	-0.973832	0.565102
O26	O	0.055266	-0.473832	1.065102
O27	O	-0.439899	-0.859714	0.439857
O28	O	0.060101	-0.359714	0.939857
O29	O	-0.357194	-1.060333	0.568791
O30	O	0.142806	-0.560333	1.068791
O31	O	-0.568843	-1.060186	0.357137
O32	O	-0.068843	-0.560186	0.857137
O33	O	-0.565147	-0.973748	0.444685
O34	O	-0.065147	-0.473748	0.944685
C35	C	-0.393211	-0.834194	0.393169
C36	C	0.106789	-0.334194	0.893169
C37	C	-0.389900	-0.755964	0.389862
C38	C	0.110100	-0.255964	0.889862
C39	C	-0.593942	-1.016972	0.400923
C40	C	-0.093942	-0.516972	0.900923
C41	C	-0.676489	-1.017000	0.400944
C42	C	-0.176489	-0.517000	0.900944
C43	C	-0.435900	-0.719212	0.435721
C44	C	0.064100	-0.219212	0.935721
C45	C	-0.432779	-0.645707	0.432617
C46	C	0.067221	-0.145707	0.932617
C47	C	-0.383661	-0.608956	0.383652
C48	C	0.116339	-0.108956	0.883652
C49	C	-0.337655	-0.645713	0.337792
C50	C	0.162345	-0.145713	0.837792
C51	C	-0.340773	-0.719217	0.340899
C52	C	0.159227	-0.219217	0.840899
C53	C	-0.369232	-0.389124	0.369277
C54	C	0.130768	0.110876	0.869277
C55	C	-0.366120	-0.315615	0.366171
C56	C	0.133880	0.184385	0.866171
C57	C	-0.461243	-0.315614	0.460999
C58	C	0.038757	0.184386	0.960999
C59	C	-0.464360	-0.389119	0.464099
C60	C	0.035640	0.110881	0.964099
C61	C	-0.418352	-0.425870	0.418241
C62	C	0.081648	0.074130	0.918241
N63	N	-0.380471	-0.533822	0.380477
N64	N	0.119529	-0.033822	0.880477
N65	N	-0.421538	-0.501003	0.421421
N66	N	0.078462	-0.001003	0.921421
C67	C	-0.873959	-0.970041	0.448538
C68	C	-0.373959	-0.470041	0.948538
C69	C	-0.922665	-0.952889	0.380043
C70	C	-0.422665	-0.452889	0.880043
C71	C	-0.827622	-1.017069	0.400957
C72	C	-0.327622	-0.517069	0.900957
C73	C	-0.925999	-1.034256	0.469460
C74	C	-0.425999	-0.534256	0.969460
C75	C	-0.973610	-1.017134	0.400975
C76	C	-0.473610	-0.517134	0.900975
C77	C	-0.875240	-0.999883	0.332425
C78	C	-0.375240	-0.499883	0.832425
C79	C	-0.878571	-1.081279	0.421889
C80	C	-0.378571	-0.581279	0.921889
C81	C	-0.927255	-1.064151	0.353349
C82	C	-0.427255	-0.564151	0.853349
C83	C	-0.743522	-1.017029	0.400947
C84	C	-0.243522	-0.517029	0.900947
C85	C	-1.057708	-1.017174	0.400977
C86	C	-0.557708	-0.517174	0.900977
C87	C	-0.207292	-1.017161	0.400972
C88	C	0.292708	-0.517161	0.900972
C89	C	-0.124748	-1.017206	0.400986
C90	C	0.375252	-0.517206	0.900986
C91	C	-0.400959	-1.017087	0.594646
C92	C	0.099041	-0.517087	1.094646
C93	C	-0.400945	-1.017100	0.677193
C94	C	0.099055	-0.517100	1.177193
C95	C	-0.408802	-0.200633	0.408732
C96	C	0.091198	0.299367	0.908732
C97	C	-0.412120	-0.278863	0.412030
C98	C	0.087880	0.221137	0.912030
C99	C	-0.400975	-1.017067	0.207988
C100	C	0.099025	-0.517067	0.707988
C101	C	-0.400786	-1.017190	0.125448
C102	C	0.099214	-0.517190	0.625448
C103	C	-0.448470	-0.970105	0.924014
C104	C	0.051530	-0.470105	1.424014
C105	C	-0.380002	-0.952913	0.873892
C106	C	0.119998	-0.452913	1.373892
C107	C	-0.400838	-1.017159	0.974316
C108	C	0.099162	-0.517159	1.474316
C109	C	-0.469353	-1.034289	0.877353
C110	C	0.030647	-0.534289	1.377353
C111	C	-0.400894	-1.017129	0.828329
C112	C	0.099106	-0.517129	1.328329
C113	C	-0.332333	-0.999935	0.925280
C114	C	0.167667	-0.499935	1.425280
C115	C	-0.421731	-1.081340	0.928746
C116	C	0.078269	-0.581340	1.428746
C117	C	-0.353217	-1.064173	0.878648
C118	C	0.146783	-0.564173	1.378648
C119	C	-0.400807	-1.017176	1.058415
C120	C	0.099193	-0.517176	1.558415
C121	C	-0.400918	-1.017113	0.744232
C122	C	0.099082	-0.517113	1.244232
H123	H	-0.475900	-0.749130	0.475592
H124	H	0.024100	-0.249130	0.975592
H125	H	-0.362351	-0.898624	0.849888
H126	H	0.137649	-0.398624	1.349888
O127	O	-0.505890	-0.279989	0.505655
O128	O	-0.005890	0.220011	1.005655
C129	C	-0.490504	-0.297973	0.580459
C130	C	0.009496	0.202027	1.080459
H131	H	-0.464225	-0.351355	0.584298
H132	H	0.035775	0.148645	1.084298
H133	H	-0.544250	-0.300475	0.613780
H134	H	-0.044250	0.199525	1.113780
H135	H	-0.450598	-0.256631	0.603786
H136	H	0.049402	0.243369	1.103786
H137	H	-0.439402	-1.135614	0.952766
H138	H	0.060598	-0.635614	1.452766
O139	O	-0.318495	-0.279873	0.318542
O140	O	0.181505	0.220127	0.818542
C141	C	-0.358890	-0.237298	0.268713
C142	C	0.141110	0.262702	0.768713
H143	H	-0.418308	-0.259429	0.264929
H144	H	0.081692	0.240571	0.764929
H145	H	-0.331891	-0.236434	0.211581
H146	H	0.168109	0.263566	0.711581
H147	H	-0.359134	-0.181605	0.289334
H148	H	0.140866	0.318395	0.789334
H149	H	-0.274395	-0.985372	0.946264
H150	H	0.225605	-0.485372	1.446264
H151	H	-0.950456	-1.103949	0.313071
H152	H	-0.450456	-0.603949	0.813071
O153	O	-0.496336	-0.922572	0.947949
O154	O	0.003664	-0.422572	1.447949
C155	C	-0.457366	-0.872380	0.989834
C156	C	0.042634	-0.372380	1.489834
H157	H	-0.404327	-0.895641	1.012491
H158	H	0.095673	-0.395641	1.512491
H159	H	-0.493513	-0.857057	1.037890
H160	H	0.006487	-0.357057	1.537890
H161	H	-0.442745	-0.823858	0.952995
H162	H	0.057255	-0.323858	1.452995
O163	O	-0.848906	-0.982512	0.263246
O164	O	-0.348906	-0.482512	0.763246
C165	C	-0.908803	-0.970385	0.214870
C166	C	-0.408803	-0.470385	0.714870
H167	H	-0.960995	-0.998893	0.238048
H168	H	-0.460995	-0.498893	0.738048
H169	H	-0.895748	-0.990814	0.158036
H170	H	-0.395748	-0.490814	0.658036
H171	H	-0.918101	-0.911643	0.209406
H172	H	-0.418101	-0.411643	0.709406
H173	H	-0.312912	-1.103952	0.858801
H174	H	0.187088	-0.603952	1.358801
O175	O	-0.324513	-0.424708	0.324659
O176	O	0.175487	0.075292	0.824659
C177	C	-0.280481	-0.376506	0.280789
C178	C	0.219519	0.123494	0.780789
H179	H	-0.308679	-0.324100	0.275947
H180	H	0.191321	0.175900	0.775947
H181	H	-0.273369	-0.397726	0.223188
H182	H	0.226631	0.102274	0.723188
H183	H	-0.223788	-0.368715	0.307757
H184	H	0.276212	0.131285	0.807757
O185	O	-0.855365	-1.145986	0.443156
O186	O	-0.355365	-0.645986	0.943156
C187	C	-0.881214	-1.163878	0.515430
C188	C	-0.381214	-0.663878	1.015430
H189	H	-0.893004	-1.113990	0.545309
H190	H	-0.393004	-0.613990	1.045309
H191	H	-0.837243	-1.194062	0.547195
H192	H	-0.337243	-0.694062	1.047195
H193	H	-0.934293	-1.198049	0.512230
H194	H	-0.434293	-0.698049	1.012230
H195	H	-0.303310	-0.749139	0.303560
H196	H	0.196690	-0.249139	0.803560
O197	O	-0.846140	-0.922435	0.496379
O198	O	-0.346140	-0.422435	0.996379
C199	C	-0.868535	-0.854843	0.474049
C200	C	-0.368535	-0.354843	0.974049
H201	H	-0.882362	-0.853559	0.412394
H202	H	-0.382362	-0.353559	0.912394
H203	H	-0.821693	-0.814664	0.484689
H204	H	-0.321693	-0.314664	0.984689
H205	H	-0.919656	-0.841648	0.507007
H206	H	-0.419656	-0.341648	1.007007
H207	H	-0.297659	-0.615784	0.297926
H208	H	0.202341	-0.115784	0.797926
O209	O	-0.538502	-1.051513	0.852296
O210	O	-0.038502	-0.551513	1.352296
C211	C	-0.588500	-1.001769	0.875320
C212	C	-0.088500	-0.501769	1.375320
H213	H	-0.565334	-0.974980	0.926181
H214	H	-0.065334	-0.474980	1.426181
H215	H	-0.644107	-1.029339	0.889808
H216	H	-0.144107	-0.529339	1.389808
H217	H	-0.596490	-0.960766	0.828593
H218	H	-0.096490	-0.460766	1.328593
H219	H	-0.942140	-0.898619	0.362354
H220	H	-0.442140	-0.398619	0.862354
H221	H	-0.470238	-0.615787	0.469959
H222	H	0.029762	-0.115787	0.969959
O223	O	-0.952447	-1.051613	0.538600
O224	O	-0.452447	-0.551613	1.038600
C225	C	-0.892602	-1.063084	0.587229
C226	C	-0.392602	-0.563084	1.087229
H227	H	-0.841921	-1.077048	0.554031
H228	H	-0.341921	-0.577048	1.054031
H229	H	-0.908133	-1.108093	0.628477
H230	H	-0.408133	-0.608093	1.128477
H231	H	-0.879361	-1.013389	0.618501
H232	H	-0.379361	-0.513389	1.118501
O233	O	-0.511969	-0.424891	0.511712
O234	O	-0.011969	0.075109	1.011712
C235	C	-0.471554	-0.467427	0.561561
C236	C	0.028446	0.032573	1.061561
H237	H	-0.415707	-0.478455	0.535926
H238	H	0.084293	0.021545	1.035926
H239	H	-0.504009	-0.519105	0.573653
H240	H	-0.004009	-0.019105	1.073653
H241	H	-0.462264	-0.439118	0.615410
H242	H	0.037736	0.060882	1.115410
