data_functionalizedCrystal
_audit_creation_method	'MofGen! by Chris Wilmer'
_symmetry_space_group_name_H-M	'P1'
_symmetry_Int_Tables_number	1
_symmetry_cell_setting	triclinic
loop_
_symmetry_equiv_pos_as_xyz
  x,y,z
_cell_length_a	6.817900
_cell_length_b	17.253917
_cell_length_c	16.255661
_cell_angle_alpha	99.041633
_cell_angle_beta	103.488922
_cell_angle_gamma	102.659311
loop_
_atom_site_label
_atom_site_type_symbol
_atom_site_fract_x
_atom_site_fract_y
_atom_site_fract_z
V1	V	-4.027639	-0.111964	-0.271952
O2	O	-4.014151	0.004712	-0.258508
O3	O	-3.980096	-0.221362	-0.278043
O4	O	-3.979189	-0.110535	-0.386932
O5	O	-4.015065	-0.106883	-0.148865
V6	V	-4.511162	-0.097973	-0.256264
O7	O	-4.288896	-0.142653	-0.306365
O8	O	-4.700102	-0.067284	-0.221851
O9	O	-4.335498	0.011425	-0.250173
O10	O	-4.642046	-0.214649	-0.269708
O11	O	-4.641133	-0.103054	-0.379351
O12	O	-4.336405	-0.099402	-0.141284
C13	C	-3.825307	-0.248022	-0.275804
C14	C	-3.867722	-0.337458	-0.281551
C15	C	-3.847325	-0.367795	-0.205906
C16	C	-3.887198	-0.451831	-0.211308
C17	C	-3.947453	-0.505528	-0.292356
C18	C	-3.967856	-0.475187	-0.368007
C19	C	-3.927998	-0.391153	-0.362604
C20	C	-4.070997	-0.758108	-0.316916
C21	C	-4.110849	-0.842147	-0.322313
C22	C	-4.030192	-0.818786	-0.165614
C23	C	-3.990325	-0.734751	-0.160218
C24	C	-4.010742	-0.704416	-0.235869
N25	N	-3.988204	-0.591427	-0.297880
N26	N	-3.970005	-0.618520	-0.230345
C27	C	-3.824149	-0.106650	-0.414702
C28	C	-3.865825	-0.106206	-0.508751
C29	C	-3.776337	-0.100898	-0.731187
C30	C	-3.933320	-0.169400	-0.805607
C31	C	-3.942202	-0.105373	-0.680940
C32	C	-3.859503	-0.036087	-0.774100
C33	C	-4.015964	-0.104564	-0.847265
C34	C	-4.098668	-0.173935	-0.754134
C35	C	-4.024788	-0.040562	-0.722608
C36	C	-4.181908	-0.109083	-0.797010
C37	C	-3.899705	-0.105839	-0.585124
C38	C	-4.058478	-0.104104	-0.943080
C39	C	-4.153629	0.038081	-0.252409
C40	C	-4.090453	0.127516	-0.246668
C41	C	-4.154787	-0.103290	-0.113509
C42	C	-4.092350	-0.103730	-0.019459
H43	H	-4.013578	-0.843493	-0.104023
O44	O	-3.739674	0.033437	-0.785384
C45	C	-3.870131	0.077216	-0.826694
H46	H	-4.029394	0.033803	-0.863756
H47	H	-3.795840	0.107110	-0.873803
H48	H	-3.890651	0.126137	-0.775929
H49	H	-4.159908	-0.885867	-0.388316
O50	O	-3.788914	-0.315752	-0.127108
C51	C	-3.779425	-0.360552	-0.061500
H52	H	-3.882910	-0.425305	-0.089894
H53	H	-3.836740	-0.330296	-0.007555
H54	H	-3.610956	-0.362282	-0.034000
H55	H	-3.870591	-0.476527	-0.149710
H56	H	-4.062932	0.013911	-0.686568
O57	O	-4.218585	-0.243487	-0.742947
C58	C	-4.177488	-0.243088	-0.653739
H59	H	-4.015948	-0.200828	-0.617851
H60	H	-4.182468	-0.307406	-0.643940
H61	H	-4.300812	-0.220709	-0.627290
H62	H	-3.941275	-0.691035	-0.094220
H63	H	-4.087599	-0.733420	-0.378516
H64	H	-4.016933	-0.518914	-0.433998
O65	O	-3.948132	-0.361649	-0.436070
C66	C	-4.100515	-0.317625	-0.441914
H67	H	-4.210599	-0.339051	-0.402081
H68	H	-4.193820	-0.328309	-0.512587
H69	H	-4.020351	-0.249917	-0.415799
O70	O	-3.571471	-0.097016	-0.696982
C71	C	-3.523608	-0.165094	-0.739814
H72	H	-3.673130	-0.216456	-0.770059
H73	H	-3.408686	-0.186288	-0.691203
H74	H	-3.450306	-0.147589	-0.792812
O75	O	-3.887544	-0.234290	-0.848661
C76	C	-3.731894	-0.206479	-0.889037
H77	H	-3.733418	-0.142701	-0.899189
H78	H	-3.764339	-0.249461	-0.954434
H79	H	-3.572068	-0.204789	-0.846141
H80	H	-4.353809	-0.112562	-0.825608
