data_functionalizedCrystal
_audit_creation_method	'MofGen! by Chris Wilmer'
_symmetry_space_group_name_H-M	'P1'
_symmetry_Int_Tables_number	1
_symmetry_cell_setting	triclinic
loop_
_symmetry_equiv_pos_as_xyz
  x,y,z
_cell_length_a	16.992694
_cell_length_b	10.723023
_cell_length_c	15.455313
_cell_angle_alpha	92.691554
_cell_angle_beta	87.142206
_cell_angle_gamma	87.567885
loop_
_atom_site_label
_atom_site_type_symbol
_atom_site_fract_x
_atom_site_fract_y
_atom_site_fract_z
O1	O	1.045219	0.259622	-0.072019
O2	O	0.816919	0.256716	-0.072044
O3	O	0.936335	0.077046	-0.072027
O4	O	0.925803	0.439291	-0.072036
O5	O	0.929506	0.087275	0.072234
O6	O	0.810090	0.266945	0.072217
O7	O	1.038390	0.269851	0.072242
Cu8	Cu	0.923616	0.269332	0.085402
Cu9	Cu	0.931693	0.257235	-0.085204
O10	O	0.918974	0.449520	0.072225
C11	C	0.784272	0.258094	0.000083
C12	C	0.697168	0.246945	0.000073
C13	C	0.647506	0.354505	0.000071
C14	C	0.565663	0.344024	0.000084
C15	C	0.533483	0.225982	0.000091
C16	C	0.583152	0.118414	0.000096
C17	C	0.664993	0.128896	0.000090
C18	C	0.289651	0.182535	0.000116
C19	C	0.207803	0.172061	0.000119
C20	C	0.190320	0.397673	0.000108
C21	C	0.272164	0.408144	0.000097
C22	C	0.321825	0.300577	0.000106
N23	N	0.449826	0.215266	0.000101
N24	N	0.405480	0.311295	0.000103
C25	C	0.932154	0.035595	0.000102
C26	C	0.929862	-0.103157	0.000099
C27	C	0.922932	-0.303124	0.074824
C28	C	0.925302	-0.159717	0.074829
C29	C	1.071037	0.268473	0.000113
C30	C	1.158141	0.279621	0.000117
C31	C	0.923155	0.490971	0.000094
C32	C	0.925448	0.629723	0.000091
N33	N	0.917942	0.277840	0.205396
N34	N	0.937373	0.248717	-0.205198
C35	C	0.968692	0.201542	0.250798
C36	C	0.964408	0.207989	0.341605
C37	C	0.909377	0.290741	0.387009
C38	C	0.858621	0.367042	0.341602
C39	C	0.862902	0.360588	0.250796
C40	C	0.890899	0.318565	0.658588
C41	C	0.886623	0.325015	0.749400
C42	C	0.992409	0.165960	0.749397
C43	C	0.996688	0.159518	0.658590
C44	C	0.945930	0.235815	0.613190
N45	N	0.904998	0.297335	0.479829
N46	N	0.950306	0.229213	0.520372
H47	H	0.705428	0.041309	0.000091
H48	H	0.923156	-0.101988	0.138811
H49	H	0.821575	0.422717	0.213831
C50	C	0.547756	-0.011430	0.000103
H51	H	0.491902	-0.002271	0.000097
H52	H	0.562386	-0.052497	0.050409
H53	H	0.567138	-0.059625	-0.050211
H54	H	0.932015	-0.160879	-0.063886
H55	H	1.041499	0.092135	0.621624
C56	C	0.930726	-0.304537	-0.086343
H57	H	0.931992	-0.365264	-0.133231
H58	H	0.977387	-0.258859	-0.089561
H59	H	0.886043	-0.248945	-0.089570
H60	H	0.298359	0.504266	0.000081
H61	H	0.673700	0.450628	0.000064
H62	H	1.013507	0.134162	0.213836
C63	C	0.917656	-0.368870	0.161256
H64	H	0.916761	-0.456632	0.149914
H65	H	0.870810	-0.340315	0.193586
H66	H	0.962154	-0.350236	0.193588
C67	C	1.020230	0.124062	0.391547
H68	H	1.009794	0.139742	0.452130
H69	H	1.073361	0.141832	0.376660
H70	H	1.011962	0.038818	0.376670
C71	C	0.826087	0.416042	0.799348
H72	H	0.830816	0.408966	0.859930
H73	H	0.774358	0.396155	0.784482
H74	H	0.835755	0.499172	0.784455
C75	C	0.344267	0.064215	0.000119
H76	H	0.313379	-0.007585	0.000116
H77	H	0.374182	0.067178	0.050425
H78	H	0.378932	0.060043	-0.050195
H79	H	0.849571	0.380691	0.621631
C80	C	1.048231	0.082029	0.799338
H81	H	1.037797	0.097713	0.859922
H82	H	1.101362	0.099793	0.784448
H83	H	1.039958	-0.003213	0.784464
C84	C	0.798064	0.458030	0.391540
H85	H	0.768440	0.502526	0.351492
H86	H	0.824866	0.515375	0.426967
H87	H	0.763505	0.412303	0.426958
C88	C	0.511038	0.462341	0.000079
H89	H	0.541925	0.534142	0.000062
H90	H	0.476375	0.466516	0.050389
H91	H	0.481122	0.459368	-0.050232
H92	H	0.149877	0.485248	0.000103
H93	H	0.181606	0.075931	0.000124
