data_functionalizedCrystal
_audit_creation_method	'MofGen! by Chris Wilmer'
_symmetry_space_group_name_H-M	'P1'
_symmetry_Int_Tables_number	1
_symmetry_cell_setting	triclinic
loop_
_symmetry_equiv_pos_as_xyz
  x,y,z
_cell_length_a	10.654550
_cell_length_b	9.730223
_cell_length_c	10.654551
_cell_angle_alpha	89.997362
_cell_angle_beta	95.514820
_cell_angle_gamma	90.000043
loop_
_atom_site_label
_atom_site_type_symbol
_atom_site_fract_x
_atom_site_fract_y
_atom_site_fract_z
O1	O	-1.667840	-0.114181	0.176399
O2	O	-1.302361	-0.114206	0.193205
O3	O	-1.493503	-0.114190	0.002062
O4	O	-1.476698	-0.114197	0.367541
O5	O	-1.493490	0.114390	0.002057
O6	O	-1.302349	0.114374	0.193199
O7	O	-1.667827	0.114398	0.176393
Zn8	Zn	-1.485086	0.150678	0.184795
Zn9	Zn	-1.485103	-0.150486	0.184802
O10	O	-1.476686	0.114383	0.367535
C11	C	-1.255557	0.000081	0.191968
C12	C	-1.116114	0.000071	0.188276
C13	C	-1.492262	0.000097	-0.044738
C14	C	-1.488570	0.000091	-0.184181
C15	C	-1.714632	0.000109	0.177630
C16	C	-1.854075	0.000109	0.181322
N17	N	-1.485084	0.356214	0.184790
C18	C	-1.036629	0.000073	0.300818
C19	C	-0.905608	0.000097	0.297341
C20	C	-0.933570	0.000112	0.068772
C21	C	-1.064589	0.000097	0.072249
N22	N	-1.485114	-0.356022	0.184798
C23	C	-1.569751	0.428147	0.100188
C24	C	-1.569763	0.572030	0.100189
C25	C	-1.400439	0.572035	0.269404
C26	C	-1.400421	0.428154	0.269396
C27	C	-1.486844	-0.124510	-0.249682
C28	C	-1.483364	-0.124511	-0.380703
C29	C	-1.483342	0.124699	-0.380710
C30	C	-1.486813	0.124699	-0.249691
C31	C	-1.477926	0.000092	0.414336
C32	C	-1.481619	0.000089	0.553779
H33	H	-0.840896	0.000101	0.388984
O34	O	-1.488354	-0.245468	-0.185893
C35	C	-1.381756	-0.252934	-0.096863
H36	H	-1.346092	-0.144746	-0.072802
H37	H	-1.304384	-0.314401	-0.138075
C38	C	-1.461813	-0.457080	-0.005993
C39	C	-1.418016	-0.324201	0.023566
H40	H	-1.484176	-0.501046	0.068291
H41	H	-1.533628	-0.452053	-0.065977
H42	H	-1.397329	-0.508284	-0.040339
H43	H	-1.482505	-0.272994	0.057896
H44	H	-1.346212	-0.329220	0.083559
H45	H	-1.488211	0.226170	-0.196358
O46	O	-1.481596	0.245861	-0.444150
C47	C	-1.483895	0.355837	-0.358240
H48	H	-1.446677	0.319305	-0.259991
H49	H	-1.584840	0.394156	-0.356603
C50	C	-1.446031	0.518423	-0.519998
C51	C	-1.400309	0.473557	-0.399329
H52	H	-1.394476	0.591042	-0.545345
H53	H	-1.444487	0.444332	-0.577879
H54	H	-1.530151	0.550347	-0.518618
H55	H	-1.316196	0.441619	-0.400714
H56	H	-1.401837	0.547647	-0.341449
O57	O	-1.652056	0.358171	0.018145
C58	C	-1.730094	0.274854	0.086071
H59	H	-1.733160	0.318198	0.185132
H60	H	-1.690783	0.165837	0.092311
C61	C	-1.860531	0.219321	-0.103640
C62	C	-1.864306	0.272563	0.018024
H63	H	-1.943318	0.217901	-0.145616
H64	H	-1.807953	0.275449	-0.149405
H65	H	-1.827766	0.128478	-0.098423
H66	H	-1.897055	0.363410	0.012805
H67	H	-1.916892	0.216450	0.063787
H68	H	-1.078576	0.000062	0.395294
O69	O	-0.883307	0.000065	-0.043823
C70	C	-0.750622	0.000109	-0.022763
H71	H	-0.720709	-0.043169	0.074978
H72	H	-0.714112	0.109773	-0.029168
C73	C	-0.732152	-0.036368	-0.243188
C74	C	-0.695412	-0.089533	-0.123144
H75	H	-0.698093	-0.091657	-0.305109
H76	H	-0.821544	-0.036392	-0.257378
H77	H	-0.701724	0.055019	-0.248507
H78	H	-0.725853	-0.180911	-0.117821
H79	H	-0.606023	-0.089527	-0.108955
O80	O	-1.318330	0.642133	0.351548
C81	C	-1.336480	0.784551	0.333397
H82	H	-1.435922	0.804192	0.287386
H83	H	-1.264858	0.825405	0.269747
C84	C	-1.196591	0.834281	0.518216
C85	C	-1.318731	0.858405	0.461714
H86	H	-1.185637	0.879840	0.597366
H87	H	-1.184359	0.738331	0.530442
H88	H	-1.136919	0.868325	0.465161
H89	H	-1.378400	0.824345	0.514761
H90	H	-1.330974	0.954351	0.449499
H91	H	-1.481955	-0.225973	-0.434027
H92	H	-1.129309	0.000100	-0.019401
O93	O	-1.318347	0.358120	0.351642
C94	C	-1.386266	0.274900	0.429766
H95	H	-1.484102	0.253340	0.380656
H96	H	-1.395607	0.330336	0.522672
C97	C	-1.195514	0.164714	0.516257
C98	C	-1.315675	0.138224	0.455936
H99	H	-1.151969	0.080408	0.532406
H100	H	-1.149754	0.220784	0.463628
H101	H	-1.203315	0.210914	0.593672
H102	H	-1.307872	0.092041	0.378516
H103	H	-1.361433	0.082142	0.508553
H104	H	-1.638705	0.630594	0.031297
