data_functionalizedCrystal
_audit_creation_method	'MofGen! by Chris Wilmer'
_symmetry_space_group_name_H-M	'P1'
_symmetry_Int_Tables_number	1
_symmetry_cell_setting	triclinic
loop_
_symmetry_equiv_pos_as_xyz
  x,y,z
_cell_length_a	13.339070
_cell_length_b	13.262522
_cell_length_c	9.130307
_cell_angle_alpha	74.082727
_cell_angle_beta	89.998979
_cell_angle_gamma	80.570526
loop_
_atom_site_label
_atom_site_type_symbol
_atom_site_fract_x
_atom_site_fract_y
_atom_site_fract_z
O1	O	-0.136404	1.432378	-0.692349
O2	O	-0.151242	1.131119	-0.572349
O3	O	0.003585	1.247174	-0.618581
O4	O	-0.291232	1.316323	-0.646116
O5	O	0.003587	1.247168	-0.374980
O6	O	-0.151241	1.131113	-0.328748
O7	O	-0.136403	1.432373	-0.448748
Cu8	Cu	-0.143822	1.281742	-0.366505
Cu9	Cu	-0.143824	1.281749	-0.654592
O10	O	-0.291231	1.316318	-0.402515
C11	C	-0.150411	1.091770	-0.434876
C12	C	-0.147923	0.974529	-0.388176
C13	C	-0.146755	0.919454	-0.233442
C14	C	-0.144408	0.809299	-0.189552
C15	C	-0.143237	0.754209	-0.300394
C16	C	-0.144412	0.809286	-0.455132
C17	C	-0.146751	0.919450	-0.499025
C18	C	-0.143233	0.754206	-0.565977
C19	C	-0.144408	0.809282	-0.720716
C20	C	-0.146748	0.919436	-0.764601
C21	C	-0.147919	0.974526	-0.653760
C22	C	-0.140894	0.644041	-0.522084
C23	C	-0.140890	0.644038	-0.787668
C24	C	-0.143237	0.754193	-0.831557
C25	C	-0.328969	1.328001	-0.528967
C26	C	-0.441417	1.362819	-0.542833
C27	C	-0.805074	1.092096	-0.435017
C28	C	-0.699424	1.059380	-0.421965
C29	C	-0.634918	1.135237	-0.452181
C30	C	-0.676071	1.243816	-0.495452
C31	C	-0.781731	1.276535	-0.508494
C32	C	-0.611574	1.319676	-0.525658
C33	C	-0.652728	1.428254	-0.568928
C34	C	-0.758378	1.460968	-0.581970
C35	C	-0.822885	1.385111	-0.551753
C36	C	-0.505914	1.286956	-0.512615
C37	C	-0.482571	1.471395	-0.586092
C38	C	-0.588221	1.504111	-0.599145
C39	C	0.041324	1.235490	-0.492132
C40	C	0.153772	1.200672	-0.478276
C41	C	-0.137234	1.471721	-0.586224
C42	C	-0.139722	1.588962	-0.632933
N43	N	-0.143820	1.281745	-0.163883
N44	N	-0.143817	1.281752	-0.857216
C45	C	-0.006760	1.384581	-0.204860
C46	C	0.061767	1.436007	-0.148684
C47	C	0.061768	1.436017	0.004645
C48	C	-0.006764	1.384594	0.101806
C49	C	-0.075291	1.333168	0.045630
C50	C	-0.075286	1.333166	-0.107706
C51	C	-0.212344	1.230326	0.086609
C52	C	-0.212352	1.230321	-0.066722
C53	C	-0.280876	1.178903	0.183770
C54	C	-0.349410	1.127482	0.127592
C55	C	-0.349409	1.127475	-0.025748
C56	C	-0.280879	1.178895	-0.122898
H57	H	-0.149834	1.064224	-0.689487
O58	O	-0.139935	0.590518	-0.895307
C59	C	-0.224903	0.479718	-1.005252
C60	C	-0.226126	0.540312	-0.883318
H61	H	-0.294570	0.439093	-0.995580
H62	H	-0.226201	0.537965	-1.123428
H63	H	-0.152980	0.417173	-0.986949
H64	H	-0.298038	0.602857	-0.901478
H65	H	-0.224774	0.482000	-0.765186
H66	H	-0.006751	1.384594	0.226658
H67	H	-0.147701	0.964316	-0.143211
O68	O	-0.420024	1.545192	-0.615688
C69	C	-0.367692	1.692775	-0.800725
C70	C	-0.438606	1.609282	-0.767411
H71	H	-0.382675	1.744600	-0.923400
H72	H	-0.382722	1.744761	-0.719559
H73	H	-0.285117	1.650718	-0.783897
H74	H	-0.521206	1.651251	-0.784255
H75	H	-0.423488	1.557302	-0.848570
O76	O	-0.465776	1.181534	-0.470550
C77	C	-0.313364	1.049382	-0.417989
C78	C	-0.358683	1.168814	-0.465605
H79	H	-0.226773	1.039059	-0.414007
H80	H	-0.339827	1.010303	-0.300454
H81	H	-0.339954	1.010362	-0.504369
H82	H	-0.332113	1.207925	-0.379330
H83	H	-0.332225	1.207814	-0.583176
H84	H	-0.143438	0.764461	-0.063564
H85	H	-0.139945	0.599210	-0.396096
H86	H	-0.147691	0.964275	-0.890598
O87	O	-0.659618	0.953874	-0.379985
C88	C	-0.693928	0.774390	-0.308385
C89	C	-0.739143	0.893848	-0.355950
H90	H	-0.758201	0.725826	-0.288908
H91	H	-0.645075	0.754395	-0.402382
H92	H	-0.645020	0.754515	-0.198538
H93	H	-0.788097	0.913808	-0.465762
H94	H	-0.787937	0.913781	-0.261862
O95	O	-0.867777	1.018461	-0.405940
C96	C	-1.000666	0.948414	-0.504186
C97	C	-0.929695	1.031852	-0.537337
H98	H	-1.050759	0.959227	-0.610388
H99	H	-0.953162	0.865163	-0.471109
H100	H	-1.050669	0.959131	-0.406463
H101	H	-0.879678	1.021235	-0.635082
H102	H	-0.977259	1.115073	-0.570325
H103	H	-0.791881	1.549380	-0.617186
O104	O	-0.628371	1.609539	-0.641085
C105	C	-0.780798	1.741671	-0.693830
C106	C	-0.735464	1.622243	-0.646285
H107	H	-0.867388	1.751980	-0.698081
H108	H	-0.754352	1.780756	-0.607429
H109	H	-0.754204	1.780695	-0.811296
H110	H	-0.762037	1.583127	-0.528852
H111	H	-0.761905	1.583236	-0.732785
H112	H	-0.144194	0.799052	-0.957547
O113	O	-0.416118	1.077664	-0.080303
C114	C	-0.591941	1.067289	-0.122993
C115	C	-0.516504	1.123808	-0.061196
H116	H	-0.673118	1.104559	-0.107539
H117	H	-0.580265	1.076139	-0.249300
H118	H	-0.578276	0.979263	-0.057788
H119	H	-0.530122	1.211852	-0.126286
H120	H	-0.528198	1.114871	0.065125
H121	H	-0.141328	0.664516	-0.264650
H122	H	0.117572	1.477888	0.050383
H123	H	-0.548893	1.108593	-0.441555
O124	O	-0.415869	1.077357	0.221977
C125	C	-0.474367	0.911894	0.334763
C126	C	-0.399029	0.968523	0.227854
H127	H	-0.460792	0.823897	0.339525
H128	H	-0.462587	0.920636	0.454056
H129	H	-0.555555	0.949252	0.289766
H130	H	-0.317811	0.931203	0.272713
H131	H	-0.410898	0.959788	0.108579
H132	H	-0.908915	1.411744	-0.562390
O133	O	0.128453	1.485823	-0.242982
C134	C	0.304252	1.496231	-0.294095
C135	C	0.228857	1.439706	-0.187180
H136	H	0.385444	1.458984	-0.249003
H137	H	0.292539	1.487357	-0.413328
H138	H	0.290578	1.584263	-0.299054
H139	H	0.242484	1.351657	-0.182092
H140	H	0.240587	1.448667	-0.068003
H141	H	-0.006762	1.384589	-0.329715
H142	H	-0.280869	1.178908	0.308620
H143	H	-0.280875	1.178899	-0.247751
