data_functionalizedCrystal
_audit_creation_method	'MofGen! by Chris Wilmer'
_symmetry_space_group_name_H-M	'P1'
_symmetry_Int_Tables_number	1
_symmetry_cell_setting	triclinic
loop_
_symmetry_equiv_pos_as_xyz
  x,y,z
_cell_length_a	18.215407
_cell_length_b	14.908520
_cell_length_c	18.215399
_cell_angle_alpha	93.269364
_cell_angle_beta	89.980167
_cell_angle_gamma	93.321174
loop_
_atom_site_label
_atom_site_type_symbol
_atom_site_fract_x
_atom_site_fract_y
_atom_site_fract_z
Zn1	Zn	1.108178	-0.359158	-0.433017
Zn2	Zn	1.100989	-0.510027	-0.317051
Zn3	Zn	0.985109	-0.359188	-0.309966
Zn4	Zn	0.977982	-0.509977	-0.440073
O5	O	1.043064	-0.434588	-0.375027
O6	O	1.210208	-0.379180	-0.417646
O7	O	1.085592	-0.490052	-0.213128
O8	O	1.007425	-0.232939	-0.320371
O9	O	1.204927	-0.490023	-0.332446
O10	O	1.097843	-0.232917	-0.410776
O11	O	1.000455	-0.379230	-0.207923
O12	O	0.881180	-0.379182	-0.327213
O13	O	0.995278	-0.489937	-0.542120
O14	O	0.875943	-0.489966	-0.422802
O15	O	1.090932	-0.379131	-0.536936
O16	O	1.078681	-0.636266	-0.339288
O17	O	0.988308	-0.636229	-0.429672
C18	C	0.851859	-0.434572	-0.375005
C19	C	0.770059	-0.434587	-0.375014
C20	C	0.579154	-0.492363	-0.424733
C21	C	0.502295	-0.492366	-0.424742
C22	C	0.507726	-0.376828	-0.325338
C23	C	0.584584	-0.376822	-0.325333
C24	C	0.620295	-0.434594	-0.375029
C25	C	0.466579	-0.434604	-0.375044
C26	C	0.383245	-0.434606	-0.375053
C27	C	0.703635	-0.434591	-0.375021
C28	C	1.031961	-0.668981	-0.386030
C29	C	1.027278	-0.769256	-0.390762
C30	C	1.112681	-0.957660	-0.305613
C31	C	1.108284	-1.051877	-0.310057
C32	C	1.014091	-1.051908	-0.404097
C33	C	1.018488	-0.957691	-0.399653
C34	C	1.067784	-0.910570	-0.350409
C35	C	1.072177	-0.816352	-0.345962
C36	C	0.977988	-0.816385	-0.440005
C37	C	0.973591	-0.910602	-0.444449
C38	C	1.235017	-0.434604	-0.375049
C39	C	1.316815	-0.434611	-0.375059
C40	C	1.043112	-0.434526	-0.566977
C41	C	1.043133	-0.434499	-0.648775
C42	C	1.054231	-0.199279	-0.363996
C43	C	1.058990	-0.099004	-0.359296
C44	C	1.092959	-0.376748	-0.834268
C45	C	1.092969	-0.376722	-0.911126
C46	C	0.993364	-0.492110	-0.916513
C47	C	0.993351	-0.492131	-0.839656
C48	C	1.043153	-0.434452	-0.798536
C49	C	1.043176	-0.434404	-0.952250
C50	C	1.043186	-0.434376	-1.035582
C51	C	1.043142	-0.434478	-0.715198
C52	C	1.043062	-0.434585	-0.183820
C53	C	1.043196	-0.434357	-0.102011
H54	H	0.608228	-0.539403	-0.465200
H55	H	1.152815	-0.919293	-0.265511
H56	H	0.478640	-0.329793	-0.284876
H57	H	0.468801	-0.539406	-0.465216
C58	C	0.629127	-0.314063	-0.271282
C59	C	0.581403	-0.263492	-0.227744
C60	C	0.622409	-0.205680	-0.177944
H61	H	0.660986	-0.274717	-0.297556
H62	H	0.657450	-0.348503	-0.240749
H63	H	0.553092	-0.229055	-0.258274
H64	H	0.549544	-0.302814	-0.201454
H65	H	0.650732	-0.240120	-0.147410
H66	H	0.654266	-0.166340	-0.204223
H67	H	0.590034	-0.171366	-0.148392
H68	H	1.133509	-0.329780	-0.800790
C69	C	1.125770	-0.765352	-0.292478
C70	C	1.164161	-0.826762	-0.254214
C71	C	1.213545	-0.779816	-0.204946
H72	H	1.099434	-0.728650	-0.258587
H73	H	1.159573	-0.728560	-0.318910
H74	H	1.130362	-0.863538	-0.227784
H75	H	1.190512	-0.863465	-0.288086
H76	H	1.247349	-0.743024	-0.231378
H77	H	1.187204	-0.743117	-0.171061
H78	H	1.239605	-0.821476	-0.178983
C79	C	1.157064	-1.102841	-0.261331
C80	C	1.201161	-1.041404	-0.217244
C81	C	1.246101	-1.088319	-0.172341
H82	H	1.187463	-1.139543	-0.291163
H83	H	1.127231	-1.139629	-0.230932
H84	H	1.230991	-1.004631	-0.247639
H85	H	1.170781	-1.004700	-0.187397
H86	H	1.216269	-1.125107	-0.141942
H87	H	1.276496	-1.125019	-0.202178
H88	H	1.276022	-1.046641	-0.142418
C89	C	0.920051	-0.961603	-0.497984
C90	C	0.881685	-0.900195	-0.536275
C91	C	0.832363	-0.947142	-0.585604
H92	H	0.886222	-0.998420	-0.471619
H93	H	0.946455	-0.998280	-0.531849
H94	H	0.855283	-0.863533	-0.502415
H95	H	0.915495	-0.863377	-0.562654
H96	H	0.858767	-0.983819	-0.619469
H97	H	0.798539	-0.983956	-0.559234
H98	H	0.806331	-0.905484	-0.611595
C99	C	1.147079	-0.314218	-0.950024
C100	C	1.191819	-0.365283	-0.996568
C101	C	1.241666	-0.307729	-1.032421
H102	H	1.176806	-0.279847	-0.914610
H103	H	1.120812	-0.274914	-0.978198
H104	H	1.218083	-0.404571	-0.968396
H105	H	1.162112	-0.399651	-1.031996
H106	H	1.215399	-0.268426	-1.060595
H107	H	1.271387	-0.273362	-0.997002
H108	H	1.272023	-0.342368	-1.064010
H109	H	0.952819	-0.539073	-0.950002
H110	H	0.941427	-0.778034	-0.476478
C111	C	0.939241	-0.554885	-0.800993
C112	C	0.895648	-0.605417	-0.853453
C113	C	0.845802	-0.663238	-0.817865
H114	H	0.908739	-0.520481	-0.769390
H115	H	0.965507	-0.594249	-0.772876
H116	H	0.869384	-0.566058	-0.881558
H117	H	0.926130	-0.639839	-0.885059
H118	H	0.872067	-0.702602	-0.789747
H119	H	0.815304	-0.628826	-0.786263
H120	H	0.816222	-0.697536	-0.853453
C121	C	0.960594	-1.103240	-0.457486
C122	C	0.966346	-1.195830	-0.451775
C123	C	0.917068	-1.243145	-0.500938
H124	H	0.972001	-1.087860	-0.506248
H125	H	0.911852	-1.087920	-0.445935
H126	H	1.015077	-1.211144	-0.463331
H127	H	0.954932	-1.211237	-0.403024
H128	H	0.868326	-1.227824	-0.489388
H129	H	0.928480	-1.227756	-0.549698
H130	H	0.920959	-1.305971	-0.497066
