data_functionalizedCrystal
_audit_creation_method	'MofGen! by Chris Wilmer'
_symmetry_space_group_name_H-M	'P1'
_symmetry_Int_Tables_number	1
_symmetry_cell_setting	triclinic
loop_
_symmetry_equiv_pos_as_xyz
  x,y,z
_cell_length_a	19.851628
_cell_length_b	14.446369
_cell_length_c	14.446369
_cell_angle_alpha	90.000003
_cell_angle_beta	60.005212
_cell_angle_gamma	59.995536
loop_
_atom_site_label
_atom_site_type_symbol
_atom_site_fract_x
_atom_site_fract_y
_atom_site_fract_z
Zr1	Zr	0.737372	-0.121576	0.891786
O2	O	0.877904	-0.269386	0.743991
O3	O	0.596840	-0.076258	0.937084
O4	O	0.737380	-0.269388	0.937087
O5	O	0.737358	0.076081	0.743996
O6	O	0.737386	-0.269396	1.089416
O7	O	0.737364	-0.076256	0.743987
O8	O	0.485986	0.076079	1.089410
O9	O	0.988758	-0.269394	0.744001
O10	O	0.654647	-0.056944	1.070096
O11	O	0.654638	0.056750	0.956421
O12	O	0.820105	-0.170636	0.956424
O13	O	0.820096	-0.056942	0.842749
Zr14	Zr	0.737372	0.121371	1.134746
Zr15	Zr	0.737382	-0.121589	1.134733
Zr16	Zr	0.737362	0.121384	0.891799
Zr17	Zr	0.914171	-0.121587	0.891803
Zr18	Zr	0.560572	0.121383	1.134729
O19	O	0.877904	0.076053	1.089448
O20	O	0.877918	-0.269405	1.089430
O21	O	0.877890	0.076072	0.744009
O22	O	0.596840	0.269182	1.282542
O23	O	0.596854	-0.076276	1.282523
O24	O	0.596826	0.269200	0.937103
O25	O	0.737386	-0.076285	1.282537
O26	O	0.737364	0.269183	1.089445
O27	O	0.737358	0.269191	0.937116
O28	O	0.737380	0.076052	1.282545
O29	O	0.988765	-0.269404	0.937112
O30	O	0.485978	0.269200	1.089421
O31	O	0.485986	0.269189	1.282531
O32	O	0.485994	0.076068	1.282521
O33	O	0.988750	-0.076273	0.744012
O34	O	0.988758	-0.076283	0.937122
O35	O	0.654638	0.170431	1.070108
O36	O	0.654647	0.056738	1.183783
O37	O	0.820105	-0.056954	1.070112
O38	O	0.820096	0.056739	0.956437
C39	C	0.516223	-0.000088	1.013245
C40	C	0.441167	-0.000083	1.013238
C41	C	0.737360	-0.000086	0.709377
C42	C	0.737356	-0.000080	0.606239
C43	C	0.737360	0.303804	1.013282
C44	C	0.737356	0.406947	1.013288
C45	C	0.259803	0.061898	0.951276
C46	C	0.270144	-0.045003	0.906350
C47	C	0.303747	-0.000099	1.013256
C48	C	0.159691	0.106776	1.058148
C49	C	0.171002	-0.000105	1.013273
C50	C	0.315122	-0.107062	0.968267
C51	C	0.204623	0.044794	1.120125
C52	C	0.214997	-0.062171	1.075225
C53	C	0.380218	-0.000094	1.013244
C54	C	0.094537	-0.000121	1.013284
C55	C	0.958521	-0.000117	1.013287
C56	C	1.033577	-0.000122	1.013295
C57	C	0.737384	-0.304008	1.013250
C58	C	0.737388	-0.407151	1.013244
C59	C	0.633012	0.625319	1.084608
C60	C	0.632942	0.518087	1.085017
C61	C	0.789193	0.410272	1.065588
C62	C	0.788530	0.518041	1.066103
C63	C	0.790672	0.516671	0.889552
C64	C	0.788706	0.410702	0.889755
C65	C	0.633012	0.071253	0.531251
C66	C	0.632942	0.071662	0.638579
C67	C	0.789186	0.052218	0.531687
C68	C	0.788523	0.052733	0.424829
C69	C	0.790679	-0.123827	0.423246
C70	C	0.788713	-0.123625	0.531917
C71	C	0.737384	-0.000118	1.317156
C72	C	0.737388	-0.000124	1.420293
C73	C	0.516235	-0.000104	1.317134
C74	C	0.441183	-0.000105	1.420264
C75	C	0.516211	0.303818	1.013261
C76	C	0.441151	0.406966	1.013259
C77	C	0.516223	0.303802	1.317151
C78	C	0.441167	0.406944	1.420286
C79	C	0.958521	-0.304006	0.709382
C80	C	1.033577	-0.407149	0.606246
C81	C	0.958509	-0.000100	0.709398
C82	C	1.033561	-0.000100	0.606268
C83	C	0.958533	-0.304023	1.013271
C84	C	1.033593	-0.407171	1.013273
C85	C	0.405938	-0.059456	1.409352
C86	C	0.335428	-0.059479	1.506244
C87	C	0.300161	-0.000144	1.614048
C88	C	0.335413	0.059209	1.624958
C89	C	0.405926	0.059225	1.528067
C90	C	0.405902	0.514756	1.072602
C91	C	0.335385	0.611684	1.072596
C92	C	0.300113	0.600819	1.013254
C93	C	0.335369	0.493017	0.953903
C94	C	0.405889	0.396092	0.953903
C95	C	0.405924	0.396034	1.528067
C96	C	0.335411	0.492938	1.624983
C97	C	0.300137	0.600751	1.614116
C98	C	0.335386	0.611659	1.506323
C99	C	0.405903	0.514756	1.409410
C100	C	1.068828	-0.396239	0.498465
C101	C	1.139363	-0.493143	0.401549
C102	C	1.174641	-0.600955	0.412416
C103	C	1.139387	-0.611863	0.520209
C104	C	1.068858	-0.514961	0.617122
C105	C	1.068813	0.059241	0.617181
C106	C	1.139342	0.059238	0.520288
C107	C	1.174612	-0.000101	0.412484
C108	C	1.139357	-0.059449	0.401574
C109	C	1.068834	-0.059452	0.498465
C110	C	1.068842	-0.396269	1.072627
C111	C	1.139360	-0.493178	1.072651
C112	C	1.174632	-0.600988	1.013313
C113	C	1.139376	-0.611887	0.953957
C114	C	1.068854	-0.514979	0.953940
H115	H	0.279542	0.114245	0.898795
H116	H	1.232036	-0.000090	0.333598
H117	H	0.306640	0.484188	0.905588
F118	F	1.176902	-0.122594	0.286832
H119	H	1.040133	-0.107771	0.489564
H120	H	1.040108	-0.308461	0.489595
H121	H	0.242744	-0.000165	1.692934
F122	F	0.297906	0.481305	1.739693
F123	F	0.297873	0.726403	1.135771
H124	H	1.168120	-0.699656	0.529044
F125	F	0.747026	-0.180935	0.417858
H126	H	0.750922	-0.162695	0.583334
H127	H	1.168058	-0.484282	1.120984
H128	H	0.864889	-0.181276	0.506401
F129	F	1.176867	-0.481510	0.286840
H130	H	1.232070	-0.679851	0.333494
F131	F	1.031316	-0.281540	1.135788
F132	F	0.742140	0.407487	1.183435
H133	H	0.381523	-0.197490	0.930202
F134	F	0.888359	0.307375	0.814487
H135	H	0.867570	-0.177258	0.345036
F136	F	1.249689	-0.704117	1.013338
H137	H	0.592247	0.161957	0.532284
H138	H	1.040157	-0.523857	0.704880
F139	F	0.443392	0.281377	0.890745
F140	F	1.176930	-0.726635	0.890801
H141	H	0.242691	0.679751	1.013263
F142	F	0.888616	-0.010832	0.322124
F143	F	1.031354	-0.526598	0.890754
F144	F	0.305385	-0.094645	0.788229
F145	F	0.297835	0.726411	1.494775
F146	F	0.189461	-0.130795	1.143727
F147	F	0.891175	0.480787	0.819729
F148	F	0.740372	0.171714	0.425179
H149	H	0.865958	0.002737	0.504461
H150	H	0.434588	0.523655	1.321653
F151	F	1.031291	0.122399	0.731905
F152	F	0.747012	0.582049	0.832444
F153	F	1.176848	0.122411	0.531924
F154	F	0.072859	0.224915	1.107766
F155	F	0.169399	0.094467	1.238221
H156	H	0.592270	0.519703	1.049941
H157	H	0.592044	0.679280	1.049705
H158	H	0.434635	0.308256	1.536937
H159	H	0.592251	0.680301	1.175303
H160	H	0.242717	0.679646	1.693038
H161	H	0.592020	0.520542	1.176265
H162	H	0.751696	0.568389	1.157124
H163	H	0.865110	0.491385	1.017479
F164	F	0.742127	0.170076	0.599134
F165	F	0.443424	0.122405	1.539699
F166	F	0.739297	0.411395	0.838689
F167	F	0.889541	0.307969	1.000927
F168	F	0.443425	0.526345	1.135771
H169	H	0.306735	-0.107811	1.497338
F170	F	0.579786	0.025818	0.709516
F171	F	0.297866	0.122356	1.739701
H172	H	0.592047	0.036356	0.533579
H173	H	0.434652	-0.107787	1.321581
F174	F	0.579447	0.190941	0.708880
