data_functionalizedCrystal
_audit_creation_method	'MofGen! by Chris Wilmer'
_symmetry_space_group_name_H-M	'P1'
_symmetry_Int_Tables_number	1
_symmetry_cell_setting	triclinic
loop_
_symmetry_equiv_pos_as_xyz
  x,y,z
_cell_length_a	15.072220
_cell_length_b	9.065218
_cell_length_c	15.995343
_cell_angle_alpha	84.252535
_cell_angle_beta	90.005852
_cell_angle_gamma	90.012623
loop_
_atom_site_label
_atom_site_type_symbol
_atom_site_fract_x
_atom_site_fract_y
_atom_site_fract_z
O1	O	-0.073796	-1.957523	-0.122766
O2	O	-0.073798	-1.528000	-0.132837
O3	O	-0.073780	-1.754509	-0.006003
O4	O	-0.073813	-1.731014	-0.249601
O5	O	0.073785	-1.754453	-0.006009
O6	O	0.073767	-1.527944	-0.132843
O7	O	0.073769	-1.957467	-0.122773
Zn8	Zn	0.097198	-1.742697	-0.127809
Zn9	Zn	-0.097226	-1.742770	-0.127800
O10	O	0.073752	-1.730958	-0.249607
C11	C	-0.000015	-1.473009	-0.131872
C12	C	-0.000015	-1.309234	-0.128978
N13	N	0.229886	-1.742657	-0.127815
N14	N	-0.229915	-1.742822	-0.127788
C15	C	0.589088	-1.742767	-0.127797
C16	C	0.551472	-1.621160	-0.195430
C17	C	0.448646	-1.621439	-0.195682
C18	C	0.410884	-1.742711	-0.127806
C19	C	0.448173	-1.896644	-0.148055
C20	C	0.551030	-1.895962	-0.148537
C21	C	0.551200	-1.711815	-0.039723
C22	C	0.448337	-1.708283	-0.040282
C23	C	0.310170	-1.742689	-0.127809
C24	C	0.689801	-1.742800	-0.127796
C25	C	0.000005	-1.753512	0.025196
C26	C	0.000012	-1.750606	0.118169
C27	C	-0.000015	-2.012459	-0.123738
C28	C	-0.000021	-2.176233	-0.126631
C29	C	-0.000035	-1.731956	-0.280806
C30	C	-0.000048	-1.734861	-0.373779
C31	C	-0.000009	-1.745331	0.288395
C32	C	-0.000011	-1.581827	0.312981
C33	C	-0.000356	-1.578751	0.409682
C34	C	-0.000028	-1.740136	0.455995
C35	C	-0.084125	-1.822381	0.426276
C36	C	-0.084185	-1.824320	0.329469
C37	C	0.083630	-1.826650	0.329547
C38	C	0.084725	-1.820613	0.426088
C39	C	-0.000041	-1.737209	0.550715
C40	C	-0.000001	-1.748263	0.193675
H41	H	0.423436	-1.507018	-0.183446
H42	H	0.423710	-1.989297	-0.100154
H43	H	0.577193	-1.602006	-0.020541
H44	H	-0.060998	-1.514726	0.428603
H45	H	-0.087769	-1.944224	0.313986
H46	H	-0.087016	-1.941157	0.457221
H47	H	0.423966	-1.595049	-0.024942
H48	H	0.422395	-1.924571	-0.211598
H49	H	0.146942	-1.760722	0.445105
H50	H	0.422636	-1.791102	0.012496
H51	H	0.147395	-1.775040	0.301671
H52	H	0.575525	-1.800498	0.010621
H53	H	0.059911	-1.514358	0.429191
H54	H	-0.147289	-1.768074	0.303107
H55	H	0.084447	-1.946995	0.314615
H56	H	0.060288	-1.518428	0.285456
H57	H	-0.060229	-1.519506	0.284467
H58	H	-0.146950	-1.765995	0.446792
H59	H	0.577301	-1.640652	-0.260395
H60	H	0.576234	-1.506369	-0.183377
H61	H	0.090057	-1.938375	0.458143
H62	H	0.424023	-1.641204	-0.261017
H63	H	0.575912	-1.989280	-0.101282
H64	H	0.575003	-1.923238	-0.212805
