data_functionalizedCrystal
_audit_creation_method	'MofGen! by Chris Wilmer'
_symmetry_space_group_name_H-M	'P1'
_symmetry_Int_Tables_number	1
_symmetry_cell_setting	triclinic
loop_
_symmetry_equiv_pos_as_xyz
  x,y,z
_cell_length_a	13.897449
_cell_length_b	18.050589
_cell_length_c	18.050582
_cell_angle_alpha	89.981795
_cell_angle_beta	89.986245
_cell_angle_gamma	90.029500
loop_
_atom_site_label
_atom_site_type_symbol
_atom_site_fract_x
_atom_site_fract_y
_atom_site_fract_z
Zn1	Zn	1.474566	-0.295681	-0.419912
Zn2	Zn	1.474450	-0.419865	-0.295731
Zn3	Zn	1.313274	-0.295696	-0.295739
Zn4	Zn	1.313207	-0.419837	-0.419882
O5	O	1.393874	-0.357770	-0.357816
O6	O	1.609532	-0.312160	-0.403449
O7	O	1.453049	-0.403411	-0.191808
O8	O	1.334747	-0.191769	-0.312226
O9	O	1.609447	-0.403397	-0.312214
O10	O	1.453247	-0.191759	-0.403455
O11	O	1.334634	-0.312185	-0.191813
O12	O	1.178284	-0.312158	-0.312197
O13	O	1.334632	-0.403350	-0.523811
O14	O	1.178234	-0.403364	-0.403405
O15	O	1.453181	-0.312133	-0.523833
O16	O	1.452984	-0.523786	-0.312185
O17	O	1.334519	-0.523765	-0.403398
C18	C	1.143260	-0.357760	-0.357799
C19	C	1.036046	-0.357773	-0.357810
C20	C	0.839751	-0.357776	-0.357829
C21	C	0.948983	-0.357772	-0.357816
C22	C	1.393758	-0.550722	-0.357804
C23	C	1.393796	-0.633268	-0.357823
C24	C	1.329438	-0.832734	-0.407408
C25	C	1.305932	-0.882168	-0.339641
C26	C	1.393891	-0.784398	-0.357833
C27	C	1.417444	-0.882045	-0.425608
C28	C	1.393981	-0.930383	-0.357848
C29	C	1.370338	-0.832745	-0.290030
C30	C	1.481891	-0.832617	-0.376043
C31	C	1.458419	-0.882029	-0.308229
C32	C	1.393837	-0.700300	-0.357825
C33	C	1.394035	-1.014479	-0.357849
C34	C	1.645467	-0.357780	-0.357834
C35	C	1.752681	-0.357785	-0.357841
C36	C	1.393912	-0.357737	-0.551522
C37	C	1.393928	-0.357723	-0.634068
C38	C	1.394017	-0.164064	-0.357845
C39	C	1.394078	-0.081518	-0.357857
C40	C	1.329510	-0.407258	-0.833507
C41	C	1.417513	-0.425410	-0.882898
C42	C	1.393976	-0.357666	-0.785198
C43	C	1.306021	-0.339493	-0.882888
C44	C	1.394014	-0.357613	-0.931183
C45	C	1.482025	-0.375853	-0.833502
C46	C	1.370473	-0.289905	-0.833488
C47	C	1.458537	-0.308031	-0.882857
C48	C	1.393952	-0.357699	-0.701100
C49	C	1.394047	-0.357580	-1.015280
C50	C	1.393892	-0.357749	-0.164864
C51	C	1.394063	-0.357554	-0.082319
H52	H	1.274853	-0.811088	-0.449272
H53	H	1.231622	-0.324145	-0.904582
H54	H	1.350366	-0.811179	-0.232704
H55	H	1.231555	-0.903950	-0.324253
H56	H	1.513133	-0.266070	-0.904390
F57	F	1.529714	-0.910144	-0.253380
F58	F	1.579087	-0.804148	-0.396198
H59	H	1.437330	-0.903701	-0.482918
F60	F	1.258320	-0.462145	-0.805182
H61	H	1.437415	-0.482692	-0.904601
H62	H	1.556445	-0.391267	-0.811900
H63	H	1.350545	-0.232640	-0.811769
