data_functionalizedCrystal
_audit_creation_method	'MofGen! by Chris Wilmer'
_symmetry_space_group_name_H-M	'P1'
_symmetry_Int_Tables_number	1
_symmetry_cell_setting	triclinic
loop_
_symmetry_equiv_pos_as_xyz
  x,y,z
_cell_length_a	19.805407
_cell_length_b	14.908520
_cell_length_c	19.805399
_cell_angle_alpha	93.270609
_cell_angle_beta	89.980427
_cell_angle_gamma	93.320773
loop_
_atom_site_label
_atom_site_type_symbol
_atom_site_fract_x
_atom_site_fract_y
_atom_site_fract_z
Zn1	Zn	1.019204	-0.359181	-0.398269
Zn2	Zn	1.519204	0.140819	0.101731
Zn3	Zn	1.012594	-0.510047	-0.291612
Zn4	Zn	1.512594	-0.010047	0.208388
Zn5	Zn	0.906017	-0.359206	-0.285095
Zn6	Zn	1.406017	0.140794	0.214905
Zn7	Zn	0.899460	-0.509999	-0.404757
Zn8	Zn	1.399460	-0.009999	0.095243
O9	O	0.959319	-0.434608	-0.344934
O10	O	1.459319	0.065392	0.155066
O11	O	1.113043	-0.379203	-0.384134
O12	O	1.613043	0.120797	0.115866
O13	O	0.998435	-0.490068	-0.196033
O14	O	1.498435	0.009932	0.303967
O15	O	0.926542	-0.232958	-0.294665
O16	O	1.426542	0.267042	0.205335
O17	O	1.108187	-0.490044	-0.305773
O18	O	1.608187	0.009956	0.194227
O19	O	1.009699	-0.232939	-0.377814
O20	O	1.509699	0.267061	0.122186
O21	O	0.920133	-0.379246	-0.191244
O22	O	1.420133	0.120754	0.308756
O23	O	0.810431	-0.379199	-0.300956
O24	O	1.310431	0.120801	0.199044
O25	O	0.915366	-0.489962	-0.498612
O26	O	1.415366	0.010038	0.001388
O27	O	0.805614	-0.489986	-0.388871
O28	O	1.305614	0.010014	0.111129
O29	O	1.003341	-0.379157	-0.493845
O30	O	1.503341	0.120843	0.006155
O31	O	0.992077	-0.636286	-0.312064
O32	O	1.492077	-0.136286	0.187936
O33	O	0.908957	-0.636250	-0.395191
O34	O	1.408957	-0.136250	0.104809
C35	C	0.783463	-0.434591	-0.344911
C36	C	1.283463	0.065409	0.155089
C37	C	0.708231	-0.434605	-0.344918
C38	C	1.208231	0.065395	0.155082
C39	C	0.670392	-0.492379	-0.390629
C40	C	1.170392	0.007621	0.109371
C41	C	0.599704	-0.492380	-0.390639
C42	C	1.099704	0.007620	0.109361
C43	C	0.566855	-0.434612	-0.344934
C44	C	1.066855	0.065388	0.155066
C45	C	0.604699	-0.376832	-0.299220
C46	C	1.104699	0.123168	0.200780
C47	C	0.675386	-0.376827	-0.299214
C48	C	1.175386	0.123173	0.200786
C49	C	0.319625	-0.376852	-0.299244
C50	C	0.819625	0.123148	0.200756
C51	C	0.248932	-0.376864	-0.299252
C52	C	0.748932	0.123136	0.200748
C53	C	0.243942	-0.492406	-0.390668
C54	C	0.743942	0.007594	0.109332
C55	C	0.314629	-0.492400	-0.390662
C56	C	0.814629	0.007600	0.109338
C57	C	0.352467	-0.434618	-0.344952
C58	C	0.852467	0.065382	0.155048
C59	C	0.429116	-0.434615	-0.344943
C60	C	0.929116	0.065385	0.155057
C61	C	0.490208	-0.434618	-0.344939
C62	C	0.990208	0.065382	0.155061
C63	C	0.949107	-0.669002	-0.355053
C64	C	1.449107	-0.169002	0.144947
C65	C	0.944800	-0.769277	-0.359405
C66	C	1.444800	-0.269277	0.140595
C67	C	1.023348	-0.957679	-0.281093
C68	C	1.523348	-0.457679	0.218907
C69	C	1.019304	-1.051896	-0.285180
C70	C	1.519304	-0.551896	0.214820
C71	C	0.932671	-1.051929	-0.371669
C72	C	1.432671	-0.551929	0.128331
C73	C	0.936715	-0.957712	-0.367582
C74	C	1.436715	-0.457712	0.132418
C75	C	0.982055	-0.910590	-0.322292
C76	C	1.482055	-0.410590	0.177708
C77	C	0.986095	-0.816372	-0.318202
C78	C	1.486095	-0.316372	0.181798
C79	C	0.899466	-0.816407	-0.404694
C80	C	1.399466	-0.316407	0.095306
C81	C	0.895421	-0.910624	-0.408781
C82	C	1.395421	-0.410624	0.091219
C83	C	1.135861	-0.434626	-0.344957
C84	C	1.635861	0.065374	0.155043
C85	C	1.211092	-0.434634	-0.344967
C86	C	1.711092	0.065366	0.155033
C87	C	0.959359	-0.434551	-0.521474
C88	C	1.459359	0.065449	-0.021474
C89	C	0.959376	-0.434527	-0.596705
C90	C	1.459376	0.065473	-0.096705
C91	C	0.969589	-0.199299	-0.334789
C92	C	1.469589	0.300701	0.165211
C93	C	0.973966	-0.099024	-0.330466
C94	C	1.473966	0.400976	0.169534
C95	C	1.005186	-0.376828	-0.629568
C96	C	1.505186	0.123172	-0.129568
C97	C	1.005194	-0.376802	-0.700255
C98	C	1.505194	0.123198	-0.200255
C99	C	0.959395	-0.434480	-0.738078
C100	C	1.459395	0.065520	-0.238078
C101	C	0.913581	-0.492182	-0.705210
C102	C	1.413581	0.007818	-0.205210
C103	C	0.913570	-0.492203	-0.634524
C104	C	1.413570	0.007797	-0.134524
C105	C	0.913622	-0.492098	-0.990280
C106	C	1.413622	0.007902	-0.490280
C107	C	0.913638	-0.492074	-1.060971
C108	C	1.413638	0.007926	-0.560971
C109	C	1.005247	-0.376697	-1.056011
C110	C	1.505247	0.123303	-0.556011
C111	C	1.005236	-0.376718	-0.985325
C112	C	1.505236	0.123282	-0.485325
C113	C	0.959419	-0.434416	-0.952463
C114	C	1.459419	0.065584	-0.452463
C115	C	0.959410	-0.434442	-0.875816
C116	C	1.459410	0.065558	-0.375816
C117	C	0.959407	-0.434459	-0.814725
C118	C	1.459407	0.065541	-0.314725
C119	C	0.959320	-0.434600	-0.169077
C120	C	1.459320	0.065400	0.330923
C121	C	0.959445	-0.434370	-0.093836
C122	C	1.459445	0.065630	0.406164
H123	H	0.577948	-0.329793	-0.262009
H124	H	1.077948	0.170207	0.237991
H125	H	0.858509	-0.949003	-0.445657
H126	H	1.358509	-0.449003	0.054343
H127	H	1.042499	-0.329820	-0.727009
H128	H	1.542499	0.170180	-0.227009
H129	H	0.876340	-0.539044	-1.091765
H130	H	1.376340	-0.039044	-0.591765
H131	H	0.876288	-0.539141	-0.736011
H132	H	1.376288	-0.039141	-0.236011
H133	H	0.876260	-0.539178	-0.607768
H134	H	1.376260	-0.039178	-0.107768
H135	H	0.697132	-0.539423	-0.427846
H136	H	1.197132	-0.039423	0.072154
H137	H	0.568898	-0.539426	-0.427861
H138	H	1.068898	-0.039426	0.072139
C139	C	0.717013	-0.313275	-0.248933
C140	C	1.217013	0.186725	0.251067
C141	C	0.711760	-0.210728	-0.250159
C142	C	1.211760	0.289272	0.249841
C143	C	0.753387	-0.147170	-0.199879
C144	C	1.253387	0.352830	0.300121
C145	C	0.800267	-0.186158	-0.148373
C146	C	1.300267	0.313842	0.351627
C147	C	0.805523	-0.288711	-0.147145
C148	C	1.305523	0.211289	0.352855
C149	C	0.763896	-0.352269	-0.197425
C150	C	1.263896	0.147731	0.302575
H151	H	0.677054	-0.181861	-0.288289
H152	H	1.177054	0.318139	0.211711
H153	H	0.749496	-0.071253	-0.200789
H154	H	1.249496	0.428747	0.299211
H155	H	0.831082	-0.139109	-0.111153
H156	H	1.331082	0.360891	0.388847
H157	H	0.840228	-0.317578	-0.109015
H158	H	1.340228	0.182422	0.390985
H159	H	0.767786	-0.428185	-0.196515
H160	H	1.267786	0.071815	0.303485
C161	C	0.350763	-0.555945	-0.440939
C162	C	0.850763	-0.055945	0.059061
C163	C	0.401081	-0.516938	-0.492435
C164	C	0.901081	-0.016938	0.007565
C165	C	0.437215	-0.580481	-0.542714
C166	C	0.937215	-0.080481	-0.042714
C167	C	0.423030	-0.683031	-0.541497
C168	C	0.923030	-0.183031	-0.041497
C169	C	0.372709	-0.722043	-0.489999
C170	C	0.872709	-0.222043	0.010001
C171	C	0.336576	-0.658500	-0.439720
C172	C	0.836576	-0.158500	0.060280
H173	H	0.411584	-0.441019	-0.493338
H174	H	0.911584	0.058981	0.006662
H175	H	0.474465	-0.551601	-0.580837
H176	H	0.974465	-0.051601	-0.080837
H177	H	0.449778	-0.730069	-0.578717
H178	H	0.949778	-0.230069	-0.078717
H179	H	0.362207	-0.797962	-0.489096
H180	H	0.862207	-0.297962	0.010904
H181	H	0.299325	-0.687380	-0.401597
H182	H	0.799325	-0.187380	0.098403
H183	H	1.023011	-0.778006	-0.281323
H184	H	1.523011	-0.278006	0.218677
H185	H	1.060261	-0.919312	-0.244211
H186	H	1.560261	-0.419312	0.255789
C187	C	0.361239	-0.313319	-0.248945
C188	C	0.861239	0.186681	0.251055
C189	C	0.325104	-0.249797	-0.198657
C190	C	0.825104	0.250203	0.301343
C191	C	0.366721	-0.186271	-0.148348
C192	C	0.866721	0.313729	0.351652
C193	C	0.444475	-0.186267	-0.148326
C194	C	0.944475	0.313733	0.351674
C195	C	0.480615	-0.249791	-0.198616
C196	C	0.980615	0.250209	0.301384
C197	C	0.438997	-0.313317	-0.248925
C198	C	0.938997	0.186683	0.251075
H199	H	0.267542	-0.249798	-0.198672
H200	H	0.767542	0.250202	0.301328
H201	H	0.339968	-0.139246	-0.111121
H202	H	0.839968	0.360754	0.388879
H203	H	0.475283	-0.139241	-0.111085
H204	H	0.975283	0.360759	0.388915
H205	H	0.538176	-0.249790	-0.198601
H206	H	1.038176	0.250210	0.301399
H207	H	0.465750	-0.360342	-0.286152
H208	H	0.965750	0.139658	0.213848
H209	H	1.042533	-0.329753	-0.954533
H210	H	1.542533	0.170247	-0.454533
C211	C	0.863231	-0.555571	-0.954138
C212	C	1.363231	-0.055571	-0.454138
C213	C	0.812859	-0.619020	-0.995745
C214	C	1.312859	-0.119020	-0.495745
C215	C	0.762466	-0.682499	-0.959599
C216	C	1.262466	-0.182499	-0.459599
C217	C	0.762445	-0.682529	-0.881848
C218	C	1.262445	-0.182529	-0.381848
C219	C	0.812819	-0.619078	-0.840237
C220	C	1.312819	-0.119078	-0.340237
C221	C	0.863212	-0.555599	-0.876382
C222	C	1.363212	-0.055599	-0.376382
H223	H	0.812873	-0.619000	-1.053305
H224	H	1.312873	-0.119000	-0.553305
H225	H	0.725176	-0.729470	-0.990403
H226	H	1.225176	-0.229470	-0.490403
H227	H	0.725141	-0.729520	-0.855091
H228	H	1.225141	-0.229520	-0.355091
H229	H	0.812805	-0.619098	-0.782676
H230	H	1.312805	-0.119098	-0.282676
H231	H	0.900502	-0.508628	-0.845578
H232	H	1.400502	-0.008628	-0.345578
C233	C	1.064725	-1.103694	-0.239859
C234	C	1.564725	-0.603694	0.260141
C235	C	1.114595	-1.051858	-0.190044
C236	C	1.614595	-0.551858	0.309956
C237	C	1.160019	-1.103657	-0.144721
C238	C	1.660019	-0.603657	0.355279
C239	C	1.155574	-1.207292	-0.149214
C240	C	1.655574	-0.707292	0.350786
C241	C	1.105703	-1.259134	-0.199031
C242	C	1.605703	-0.759134	0.300969
C243	C	1.060278	-1.207335	-0.244354
C244	C	1.560278	-0.707335	0.255646
H245	H	1.117887	-0.975136	-0.186716
H246	H	1.617887	-0.475136	0.313284
H247	H	1.196938	-1.065279	-0.107843
H248	H	1.696938	-0.565279	0.392157
H249	H	1.189200	-1.245636	-0.115664
H250	H	1.689200	-0.745636	0.384336
H251	H	1.102411	-1.335856	-0.202359
H252	H	1.602411	-0.835856	0.297641
H253	H	1.023360	-1.245713	-0.281232
H254	H	1.523360	-0.745713	0.218768
H255	H	0.865840	-0.778057	-0.438239
H256	H	1.365840	-0.278057	0.061761
C257	C	0.202319	-0.555962	-0.440958
C258	C	0.702319	-0.055962	0.059042
C259	C	0.124566	-0.555971	-0.440974
C260	C	0.624566	-0.055971	0.059026
C261	C	0.082945	-0.619526	-0.491260
C262	C	0.582945	-0.119526	0.008740
C263	C	0.119078	-0.683073	-0.541531
C264	C	0.619078	-0.183073	-0.041531
C265	C	0.196836	-0.683066	-0.541517
C266	C	0.696836	-0.183066	-0.041517
C267	C	0.238456	-0.619511	-0.491231
C268	C	0.738456	-0.119511	0.008769
H269	H	0.097814	-0.508927	-0.403758
H270	H	0.597814	-0.008927	0.096242
H271	H	0.025384	-0.619531	-0.491270
H272	H	0.525384	-0.119531	0.008730
H273	H	0.088268	-0.730121	-0.578757
H274	H	0.588268	-0.230121	-0.078757
H275	H	0.223587	-0.730110	-0.578733
H276	H	0.723587	-0.230110	-0.078733
H277	H	0.296018	-0.619506	-0.491221
H278	H	0.796018	-0.119506	0.008779
H279	H	0.222189	-0.329817	-0.262033
H280	H	0.722189	0.170183	0.237967
H281	H	0.895762	-1.090312	-0.408547
H282	H	1.395762	-0.590312	0.091453
H283	H	1.042483	-0.329862	-0.598777
H284	H	1.542483	0.170138	-0.098777
H285	H	1.042551	-0.329713	-1.082776
H286	H	1.542551	0.170287	-0.582776
