data_functionalizedCrystal
_audit_creation_method	'MofGen! by Chris Wilmer'
_symmetry_space_group_name_H-M	'P1'
_symmetry_Int_Tables_number	1
_symmetry_cell_setting	triclinic
loop_
_symmetry_equiv_pos_as_xyz
  x,y,z
_cell_length_a	12.837943
_cell_length_b	9.016244
_cell_length_c	12.784905
_cell_angle_alpha	90.001434
_cell_angle_beta	83.968130
_cell_angle_gamma	90.006412
loop_
_atom_site_label
_atom_site_type_symbol
_atom_site_fract_x
_atom_site_fract_y
_atom_site_fract_z
O1	O	1.350778	0.123305	0.273811
O2	O	1.050191	0.123314	0.260285
O3	O	1.222481	0.123305	0.114549
O4	O	1.178488	0.123314	0.419548
O5	O	1.222457	-0.123376	0.114550
O6	O	1.050168	-0.123367	0.260287
O7	O	1.350754	-0.123376	0.273813
Cu8	Cu	1.200459	-0.145895	0.267050
Cu9	Cu	1.200487	0.145834	0.267048
O10	O	1.178465	-0.123366	0.419549
C11	C	1.011971	-0.000025	0.255717
C12	C	0.898122	-0.000021	0.242089
N13	N	1.200447	-0.351081	0.267051
C14	C	0.642396	-0.000037	0.405920
C15	C	0.535424	-0.000035	0.393121
C16	C	0.577204	-0.000025	0.203691
C17	C	0.684176	-0.000028	0.216491
C18	C	0.716768	-0.000031	0.317609
C19	C	0.823742	-0.000023	0.330407
C20	C	0.865519	-0.000024	0.140978
C21	C	0.758547	-0.000022	0.128179
C22	C	1.108055	-0.586109	0.344700
C23	C	1.108209	-0.414218	0.345037
C24	C	1.305470	-0.413422	0.301913
C25	C	1.304952	-0.585367	0.302476
C26	C	1.188911	-0.585627	0.154359
C27	C	1.186374	-0.413673	0.154850
C28	C	1.388975	-0.000033	0.278381
C29	C	1.502823	-0.000027	0.292009
C30	C	1.225330	-0.000034	0.075240
C31	C	1.233843	-0.000028	-0.041892
N32	N	1.200507	0.351020	0.267039
C33	C	1.060400	-0.000037	-0.255843
C34	C	1.068394	-0.000031	-0.365898
C35	C	1.257824	-0.000021	-0.372060
C36	C	1.249830	-0.000027	-0.262004
C37	C	1.151115	-0.000032	-0.203899
C38	C	1.143122	-0.000027	-0.093842
C39	C	1.332550	-0.000028	-0.100006
C40	C	1.340544	-0.000022	-0.210061
C41	C	1.175616	-0.000025	0.458858
C42	C	1.167103	-0.000021	0.575990
H43	H	0.850275	-0.000029	0.412743
H44	H	1.338192	-0.000034	-0.419387
H45	H	1.316683	-0.625454	0.384984
Cl46	Cl	0.683373	-0.000022	0.533036
Cl47	Cl	1.446598	-0.000011	-0.034700
H48	H	1.109169	-0.372929	0.128646
Cl49	Cl	0.954348	-0.000041	-0.431195
H50	H	1.114281	-0.629300	0.427611
H51	H	1.375492	-0.372521	0.247309
Cl52	Cl	0.441931	-0.000047	0.504147
Cl53	Cl	1.019025	-0.000031	-0.020797
H54	H	0.550648	-0.000145	0.121365
H55	H	0.731995	-0.000035	0.045851
Cl56	Cl	0.936306	-0.000025	-0.182793
Cl57	Cl	1.117999	-0.350676	0.473797
H58	H	1.250093	-0.370701	0.093512
H59	H	0.926085	-0.000009	0.069068
H60	H	1.029825	-0.372072	0.322664
H61	H	1.420915	-0.000024	-0.257385
Cl62	Cl	0.986607	-0.649978	0.310465
H63	H	1.375369	-0.626953	0.248723
Cl64	Cl	1.293180	-0.648397	0.064934
H65	H	1.114536	-0.629073	0.123531
Cl66	Cl	1.324405	-0.346916	0.427955
