data_functionalizedCrystal
_audit_creation_method	'MofGen! by Chris Wilmer'
_symmetry_space_group_name_H-M	'P1'
_symmetry_Int_Tables_number	1
_symmetry_cell_setting	triclinic
loop_
_symmetry_equiv_pos_as_xyz
  x,y,z
_cell_length_a	23.096457
_cell_length_b	23.096457
_cell_length_c	15.698487
_cell_angle_alpha	120.001007
_cell_angle_beta	59.997051
_cell_angle_gamma	90.004262
loop_
_atom_site_label
_atom_site_type_symbol
_atom_site_fract_x
_atom_site_fract_y
_atom_site_fract_z
Zr1	Zr	0.075944	0.557797	-0.932352
O2	O	0.168396	0.586142	-0.932360
O3	O	0.047604	0.465345	-0.932354
O4	O	0.168393	0.465352	-1.110074
O5	O	-0.047675	0.681412	-0.614446
O6	O	0.168389	0.465354	-1.250252
O7	O	0.047608	0.586135	-0.754640
O8	O	-0.047681	0.465342	-0.932343
O9	O	0.168395	0.681425	-0.932354
O10	O	0.035512	0.527117	-1.036962
O11	O	-0.035592	0.598220	-0.827724
O12	O	0.106621	0.598228	-1.036966
O13	O	0.035516	0.669331	-0.827727
Zr14	Zr	-0.076027	0.709757	-0.932326
Zr15	Zr	0.075937	0.557801	-1.155919
Zr16	Zr	-0.076020	0.709754	-0.708758
Zr17	Zr	0.075941	0.709763	-0.932343
Zr18	Zr	-0.076024	0.557792	-0.932335
O19	O	-0.047687	0.802209	-0.932324
O20	O	0.168386	0.586147	-1.250244
O21	O	-0.047677	0.802205	-0.614439
O22	O	-0.168479	0.681413	-0.932318
O23	O	0.047594	0.465350	-1.250238
O24	O	-0.168469	0.681408	-0.614433
O25	O	0.047592	0.586142	-1.250231
O26	O	-0.168476	0.802202	-0.754604
O27	O	-0.168471	0.802200	-0.614426
O28	O	-0.047690	0.681420	-1.110037
O29	O	0.168389	0.681428	-1.110061
O30	O	-0.168472	0.586127	-0.754617
O31	O	-0.168477	0.586130	-0.932323
O32	O	-0.047686	0.465344	-1.110050
O33	O	0.047603	0.802210	-0.754628
O34	O	0.047598	0.802213	-0.932334
O35	O	-0.106704	0.669326	-0.827712
O36	O	-0.035599	0.598223	-1.036950
O37	O	0.035510	0.669335	-1.036954
O38	O	-0.035595	0.740438	-0.827715
C39	C	-0.000038	0.443692	-0.932350
C40	C	-0.000037	0.379178	-0.932354
C41	C	0.037063	-0.118438	-1.041544
C42	C	0.037069	-0.057824	-1.041551
C43	C	-0.000047	0.009603	-0.932332
C44	C	-0.037157	0.016415	-0.823098
C45	C	-0.037157	-0.044198	-0.823094
N46	N	-0.060453	0.132400	-0.851034
N47	N	-0.060452	0.189977	-0.851045
C48	C	-0.000049	0.192231	-0.932337
N49	N	0.060352	0.134725	-1.013635
N50	N	0.060350	0.077141	-1.013627
C51	C	-0.000051	0.075333	-0.932324
C52	C	0.037070	0.251138	-1.041571
C53	C	0.037079	0.311754	-1.041574
C54	C	-0.037154	0.385994	-0.823118
C55	C	-0.037156	0.325378	-0.823118
C56	C	-0.000045	0.257952	-0.932349
C57	C	-0.190130	0.633770	-0.932318
C58	C	-0.254645	0.633768	-0.932311
C59	C	-0.284937	0.686257	-0.932321
C60	C	-0.345553	0.686264	-0.932319
C61	C	-0.375867	0.633771	-0.932331
C62	C	-0.345570	0.581277	-0.932314
C63	C	-0.284959	0.581275	-0.932304
N64	N	-0.447857	0.571524	-1.000551
N65	N	-0.505435	0.571528	-1.000563
C66	C	-0.558487	0.633772	-0.932359
N67	N	-0.551782	0.696016	-0.864158
N68	N	-0.494197	0.696012	-0.864151
C69	C	-0.441591	0.633766	-0.932342
C70	C	-0.654507	0.686273	-0.932366
C71	C	-0.715127	0.686280	-0.932357
C72	C	-0.715139	0.581287	-0.932364
C73	C	-0.654524	0.581285	-0.932361
C74	C	-0.624210	0.633778	-0.932368
C75	C	0.190048	0.633784	-0.932360
C76	C	0.254562	0.633787	-0.932367
C77	C	-0.000033	0.633773	-0.652690
C78	C	-0.000030	0.633772	-0.557779
C79	C	-0.000045	0.823863	-0.932328
C80	C	-0.000046	0.888376	-0.932324
C81	C	-0.000030	0.633774	-0.480696
C82	C	-0.000037	0.633777	-0.383988
C83	C	-0.000048	0.633780	-0.211990
C84	C	-0.000046	0.633776	-0.306908
C85	C	0.190042	0.443703	-1.212020
C86	C	0.254555	0.379193	-1.306941
C87	C	-0.000047	0.443696	-1.211999
C88	C	-0.000048	0.379184	-1.306913
C89	C	-0.190121	0.633766	-0.652669
C90	C	-0.254633	0.633762	-0.557752
C91	C	-0.000036	0.823859	-0.652679
C92	C	-0.000034	0.888371	-0.557764
C93	C	-0.190125	0.823852	-0.652658
C94	C	-0.254638	0.888361	-0.557737
C95	C	0.190039	0.633788	-1.212009
C96	C	0.254550	0.633792	-1.306926
C97	C	0.321975	0.386018	-1.351528
C98	C	0.382598	0.325410	-1.440730
C99	C	0.375798	0.257978	-1.485336
C100	C	0.308371	0.251155	-1.440745
C101	C	0.247750	0.311762	-1.351551
C102	C	0.037077	0.311766	-1.351501
C103	C	0.037089	0.251144	-1.440696
C104	C	-0.000028	0.257942	-1.485294
C105	C	-0.037154	0.325368	-1.440702
C106	C	-0.037162	0.385988	-1.351515
C107	C	-0.322054	0.670884	-0.513162
C108	C	-0.382675	0.670894	-0.423964
C109	C	-0.375874	0.633779	-0.379364
C110	C	-0.308446	0.596657	-0.423958
C111	C	-0.247826	0.596651	-0.513148
C112	C	-0.037153	0.955789	-0.513186
C113	C	-0.037149	1.016411	-0.424016
C114	C	-0.000030	1.009612	-0.379421
C115	C	0.037094	0.942187	-0.424009
C116	C	0.037093	0.881567	-0.513183
C117	C	-0.247816	0.955782	-0.513153
C118	C	-0.308426	1.016401	-0.423952
C119	C	-0.375858	1.009599	-0.379342
C120	C	-0.382679	0.942171	-0.423929
C121	C	-0.322069	0.881554	-0.513123
C122	C	0.247726	0.670911	-1.351503
C123	C	0.308336	0.670912	-1.440700
C124	C	0.375769	0.633799	-1.485312
C125	C	0.382591	0.596675	-1.440731
C126	C	0.321983	0.596670	-1.351542
H127	H	-0.067376	-0.038644	-0.734151
H128	H	-0.327605	0.701110	-0.549462
H129	H	0.425115	0.633809	-1.557935
H130	H	0.192824	0.701136	-1.315190
H131	H	-0.327634	0.826659	-0.549420
H132	H	0.067291	0.196237	-1.130513
H133	H	-0.425205	1.058963	-0.306714
H134	H	0.302845	0.196243	-1.477078
H135	H	-0.000035	1.058979	-0.306809
H136	H	0.192856	0.306195	-1.315250
H137	H	-0.302859	1.071297	-0.387663
H138	H	0.425165	0.208634	-1.557964
H139	H	-0.067376	0.071319	-0.734171
H140	H	-0.260296	0.538531	-0.932296
H141	H	-0.067373	0.330893	-1.477028
H142	H	-0.425240	0.633790	-0.306740
H143	H	0.067315	0.936662	-0.387686
H144	H	-0.067384	0.961338	-0.549478
H145	H	0.067310	0.306216	-1.315212
H146	H	0.437494	0.330980	-1.477021
H147	H	0.067321	0.196249	-1.476988
H148	H	-0.000016	0.208576	-1.557914
H149	H	0.302767	0.701146	-1.476982
H150	H	-0.437590	0.936643	-0.387595
H151	H	-0.629858	0.538540	-0.932359
H152	H	0.067317	0.826674	-0.549468
H153	H	0.067302	0.306201	-1.130515
H154	H	-0.437572	0.701124	-0.387671
H155	H	-0.739792	0.729027	-0.932358
H156	H	-0.067381	1.071306	-0.387723
H157	H	0.327549	0.566445	-1.315251
H158	H	-0.192914	0.961334	-0.549463
H159	H	-0.067397	0.440881	-1.315214
H160	H	-0.067371	0.440894	-0.734189
H161	H	0.067289	-0.063374	-1.130493
H162	H	-0.302918	0.566439	-0.387631
H163	H	-0.192931	0.566418	-0.549451
H164	H	-0.067378	0.330930	-0.734180
H165	H	0.437503	0.566459	-1.477068
H166	H	0.067282	-0.173336	-1.130485
H167	H	-0.370223	0.729010	-0.932323
H168	H	-0.260260	0.729002	-0.932323
H169	H	-0.370257	0.538537	-0.932321
H170	H	-0.629826	0.729018	-0.932365
H171	H	-0.739823	0.538548	-0.932366
H172	H	0.327525	0.440919	-1.315218
