data_functionalizedCrystal
_audit_creation_method	'MofGen! by Chris Wilmer'
_symmetry_space_group_name_H-M	'P1'
_symmetry_Int_Tables_number	1
_symmetry_cell_setting	triclinic
loop_
_symmetry_equiv_pos_as_xyz
  x,y,z
_cell_length_a	12.594517
_cell_length_b	16.120847
_cell_length_c	12.594509
_cell_angle_alpha	92.922032
_cell_angle_beta	89.992249
_cell_angle_gamma	87.105882
loop_
_atom_site_label
_atom_site_type_symbol
_atom_site_fract_x
_atom_site_fract_y
_atom_site_fract_z
Zn1	Zn	-1.605878	-0.332023	0.580016
Zn2	Zn	-1.596787	-0.471454	0.393026
Zn3	Zn	-1.427881	-0.332044	0.402086
Zn4	Zn	-1.418887	-0.471381	0.571003
O5	O	-1.512358	-0.401726	0.486533
O6	O	-1.753616	-0.350541	0.555192
O7	O	-1.574340	-0.453000	0.245279
O8	O	-1.459061	-0.215376	0.433252
O9	O	-1.746937	-0.452980	0.417811
O10	O	-1.589835	-0.215360	0.563976
O11	O	-1.450246	-0.350576	0.251935
O12	O	-1.277743	-0.350505	0.424512
O13	O	-1.443732	-0.452856	0.721147
O14	O	-1.271135	-0.452876	0.548615
O15	O	-1.581114	-0.350470	0.727769
O16	O	-1.565619	-0.588110	0.409072
O17	O	-1.434917	-0.588057	0.539830
C18	C	-1.235820	-0.401686	0.486569
C19	C	-1.117514	-0.401689	0.486609
C20	C	-1.044691	-0.457475	0.553969
C21	C	-0.978779	-0.381459	0.585064
C22	C	-0.972623	-0.477761	0.455500
C23	C	-1.053163	-0.325632	0.517758
C24	C	-1.047010	-0.421985	0.388145
C25	C	-0.981134	-0.345917	0.419207
C26	C	-1.498334	-0.618333	0.472513
C27	C	-1.492432	-0.710999	0.466551
C28	C	-1.512434	-0.401653	0.764158
C29	C	-1.512466	-0.401622	0.882466
C30	C	-0.789977	-0.401759	0.486513
C31	C	-0.908282	-0.401753	0.486548
C32	C	-1.526465	-0.184272	0.500630
C33	C	-1.532477	-0.091606	0.506638
C34	C	-1.543472	0.078055	0.517603
C35	C	-1.481441	0.119345	0.455589
C36	C	-1.487558	0.213750	0.461690
C37	C	-1.537356	-0.016359	0.511503
C38	C	-1.512347	-0.401738	0.209991
C39	C	-1.512536	-0.401534	0.091699
C40	C	-1.437769	-0.457278	0.948119
C41	C	-1.533577	-0.477656	1.017570
C42	C	-1.416738	-0.381193	1.023818
C43	C	-1.608322	-0.422040	0.950355
C44	C	-1.491420	-0.325541	0.956599
C45	C	-1.587297	-0.345891	1.026020
H46	H	-1.077044	-0.439153	0.304924
O47	O	-1.362330	-0.513457	0.907571
C48	C	-1.176275	-0.556314	0.900407
C49	C	-1.261596	-0.492645	0.946426
H50	H	-1.094809	-0.539501	0.931786
H51	H	-1.194361	-0.621129	0.925339
H52	H	-1.176488	-0.555418	0.809956
H53	H	-1.261429	-0.493467	1.036880
H54	H	-1.243478	-0.427860	0.921411
O55	O	-1.078184	-0.513746	0.621858
C56	C	-1.173880	-0.637718	0.642070
C57	C	-1.135992	-0.574068	0.565064
H58	H	-1.220645	-0.686493	0.596187
H59	H	-1.102095	-0.669311	0.681262
H60	H	-1.227015	-0.604428	0.705794
H61	H	-1.082878	-0.607294	0.501280
H62	H	-1.207825	-0.542477	0.525953
O63	O	-0.947742	-0.289669	0.351235
C64	C	-0.798057	-0.226943	0.274330
C65	C	-0.835731	-0.290690	0.351312
H66	H	-0.707495	-0.227735	0.274383
H67	H	-0.827291	-0.243654	0.190663
H68	H	-0.831510	-0.162198	0.301011
H69	H	-0.802294	-0.355458	0.324728
H70	H	-0.806511	-0.273908	0.434962
H71	H	-0.937401	-0.542067	0.429217
H72	H	-1.551416	-0.541958	1.044514
O73	O	-1.470168	-0.248894	0.924233
C74	C	-1.447167	-0.162950	0.775723
C75	C	-1.471287	-0.249787	0.812235
H76	H	-1.448042	-0.163648	0.685169
H77	H	-1.510054	-0.115270	0.809035
H78	H	-1.365466	-0.145658	0.805944
H79	H	-1.552959	-0.267157	0.782026
H80	H	-1.408336	-0.297416	0.778934
O81	O	-1.704883	-0.442728	0.911893
C82	C	-1.813196	-0.465934	0.756544
C83	C	-1.703790	-0.442509	0.799961
H84	H	-1.812355	-0.465748	0.666043
H85	H	-1.831340	-0.530572	0.782084
H86	H	-1.876919	-0.418761	0.789378
H87	H	-1.639996	-0.489626	0.767147
H88	H	-1.685737	-0.377851	0.774430
H89	H	-1.423738	0.083793	0.397917
O90	O	-1.612286	0.120588	0.586306
C91	C	-1.681123	0.254838	0.655163
C92	C	-1.603160	0.206760	0.577298
H93	H	-1.673756	0.324517	0.647923
H94	H	-1.765885	0.237819	0.635373
H95	H	-1.661393	0.237763	0.739901
H96	H	-1.622793	0.223810	0.492533
H97	H	-1.518422	0.223784	0.597180
O98	O	-1.662853	-0.289688	1.066280
C99	C	-1.801643	-0.187229	1.027962
C100	C	-1.716128	-0.250857	0.982227
H101	H	-1.844724	-0.155804	0.960028
H102	H	-1.861184	-0.220413	1.076732
H103	H	-1.762270	-0.138320	1.081000
H104	H	-1.755408	-0.299783	0.929143
H105	H	-1.656595	-0.217614	0.933519
H106	H	-1.335752	-0.363950	1.056042
H107	H	-0.948767	-0.364314	0.668308
H108	H	-1.088251	-0.261307	0.544138
