data_functionalizedCrystal
_audit_creation_method	'MofGen! by Chris Wilmer'
_symmetry_space_group_name_H-M	'P1'
_symmetry_Int_Tables_number	1
_symmetry_cell_setting	triclinic
loop_
_symmetry_equiv_pos_as_xyz
  x,y,z
_cell_length_a	19.288840
_cell_length_b	14.044190
_cell_length_c	12.503567
_cell_angle_alpha	93.836914
_cell_angle_beta	86.481954
_cell_angle_gamma	88.158896
loop_
_atom_site_label
_atom_site_type_symbol
_atom_site_fract_x
_atom_site_fract_y
_atom_site_fract_z
O1	O	0.932627	0.112591	-0.089514
O2	O	1.432627	0.612591	0.410486
O3	O	0.731389	0.128565	-0.089478
O4	O	1.231389	0.628565	0.410522
O5	O	0.828984	-0.017392	-0.089475
O6	O	1.328984	0.482608	0.410525
O7	O	0.835032	0.258548	-0.089518
O8	O	1.335032	0.758548	0.410482
O9	O	0.821635	-0.006404	0.089168
O10	O	1.321635	0.493596	0.589168
O11	O	0.724040	0.139553	0.089164
O12	O	1.224040	0.639553	0.589164
O13	O	0.925278	0.123579	0.089128
O14	O	1.425278	0.623579	0.589128
Cu15	Cu	0.823988	0.132570	0.105457
Cu16	Cu	1.323988	0.632570	0.605457
Cu17	Cu	0.832679	0.119574	-0.105808
Cu18	Cu	1.332679	0.619574	0.394192
O19	O	0.827683	0.269537	0.089124
O20	O	1.327683	0.769537	0.589124
C21	C	0.701805	0.133549	-0.000152
C22	C	1.201805	0.633549	0.499848
C23	C	0.624602	0.132019	-0.000138
C24	C	1.124602	0.632019	0.499862
C25	C	0.592357	0.125294	-0.097518
C26	C	1.092357	0.625294	0.402482
C27	C	0.519817	0.123844	-0.097531
C28	C	1.019817	0.623844	0.402469
C29	C	0.479526	0.129101	-0.000158
C30	C	0.979526	0.629101	0.499842
C31	C	0.511779	0.135833	0.097235
C32	C	1.011779	0.635833	0.597235
C33	C	0.584317	0.137292	0.097245
C34	C	1.084317	0.637292	0.597245
C35	C	0.363414	0.075874	0.074437
C36	C	0.863414	0.575874	0.574437
C37	C	0.290877	0.074409	0.074423
C38	C	0.790877	0.574409	0.574423
C39	C	0.255794	0.124605	-0.000186
C40	C	0.755794	0.624605	0.499814
C41	C	0.293258	0.176254	-0.074798
C42	C	0.793258	0.676254	0.425202
C43	C	0.365796	0.177713	-0.074788
C44	C	0.865796	0.677713	0.425212
C45	C	0.400870	0.127520	-0.000158
C46	C	0.900870	0.627520	0.499842
C47	C	0.144894	0.116309	-0.097587
C48	C	0.644894	0.616309	0.402413
C49	C	0.072353	0.114865	-0.097596
C50	C	0.572353	0.614865	0.402404
C51	C	0.064316	0.126845	0.097174
C52	C	0.564316	0.626845	0.597174
C53	C	0.136856	0.128298	0.097180
C54	C	0.636856	0.628298	0.597180
C55	C	0.177141	0.123025	-0.000204
C56	C	0.677141	0.623025	0.499796
C57	C	0.822665	-0.047201	-0.000150
C58	C	1.322665	0.452799	0.499850
C59	C	0.814774	-0.152391	-0.000139
C60	C	1.314774	0.347609	0.499861
C61	C	0.856308	-0.402863	-0.000188
C62	C	1.356308	0.097137	0.499812
C63	C	0.800363	-0.344988	-0.000171
C64	C	1.300363	0.155012	0.499829
C65	C	0.808383	-0.237817	-0.000153
C66	C	1.308383	0.262183	0.499847
C67	C	0.848289	-0.510044	-0.000206
C68	C	1.348289	-0.010044	0.499794
C69	C	0.954863	0.118595	-0.000200
C70	C	1.454863	0.618595	0.499800
C71	C	1.032066	0.120124	-0.000222
C72	C	1.532066	0.620124	0.499778
C73	C	0.834003	0.299345	-0.000203
C74	C	1.334003	0.799345	0.499797
C75	C	0.841894	0.404535	-0.000221
C76	C	1.341894	0.904535	0.499779
N77	N	0.817881	0.141709	0.254050
N78	N	1.317881	0.641709	0.754050
C79	C	0.847770	0.096991	0.526484
C80	C	1.347770	0.596991	1.026484
C81	C	0.808902	0.155154	0.473159
C82	C	1.308902	0.655154	0.973159
C83	C	0.813899	0.147671	0.351235
C84	C	1.313899	0.647671	0.851235
C85	C	0.842774	0.104473	0.648419
C86	C	1.342774	0.604473	1.148419
N87	N	0.838789	0.110439	0.745600
N88	N	1.338789	0.610439	1.245600
H89	H	0.493558	0.118369	-0.176833
H90	H	0.993558	0.618369	0.323167
H91	H	0.884797	0.041582	0.480576
H92	H	1.384797	0.541582	0.980576
C93	C	0.929146	-0.361078	-0.000178
C94	C	1.429146	0.138922	0.499822
H95	H	0.963196	-0.411482	-0.000194
H96	H	1.463196	0.088518	0.499806
H97	H	0.932021	-0.319173	0.062127
H98	H	1.432021	0.180827	0.562127
H99	H	0.937160	-0.326804	-0.062474
H100	H	1.437160	0.173196	0.437526
H101	H	0.177696	0.112026	-0.176882
H102	H	0.677696	0.612026	0.323118
H103	H	0.771873	0.210568	0.519073
H104	H	1.271873	0.710568	1.019073
C105	C	0.406997	0.234657	-0.156728
C106	C	0.906997	0.734657	0.343272
H107	H	0.455218	0.228369	-0.146002
H108	H	0.955218	0.728369	0.353998
H109	H	0.392459	0.300106	-0.147225
H110	H	0.892459	0.800106	0.352775
H111	H	0.398736	0.210651	-0.227481
H112	H	0.898736	0.710651	0.272519
C113	C	0.636666	0.119508	-0.204635
C114	C	1.136666	0.619508	0.295365
H115	H	0.607068	0.115303	-0.262634
H116	H	1.107068	0.615303	0.237366
H117	H	0.667013	0.064582	-0.208675
H118	H	1.167013	0.564582	0.291325
H119	H	0.663246	0.175086	-0.208687
H120	H	1.163246	0.675086	0.291313
C121	C	0.727521	-0.386775	-0.000159
C122	C	1.227521	0.113225	0.499841
H123	H	0.731613	-0.454368	-0.000162
H124	H	1.231613	0.045632	0.499838
H125	H	0.705565	-0.369692	-0.062444
H126	H	1.205565	0.130308	0.437556
H127	H	0.700449	-0.362058	0.062157
H128	H	1.200449	0.137942	0.562157
C129	C	0.249673	0.017581	0.156471
C130	C	0.749673	0.517581	0.656471
H131	H	0.201449	0.023884	0.145767
H132	H	0.701449	0.523884	0.645767
H133	H	0.257970	0.041673	0.227171
H134	H	0.757970	0.541673	0.727171
H135	H	0.264173	-0.047891	0.147074
H136	H	0.764173	0.452109	0.647074
H137	H	0.046101	0.109394	-0.176898
H138	H	0.546101	0.609394	0.323102
C139	C	0.254677	0.231477	-0.156869
C140	C	0.754677	0.731477	0.343131
H141	H	0.206110	0.223223	-0.146183
H142	H	0.706110	0.723223	0.353817
H143	H	0.270144	0.207854	-0.227560
H144	H	0.770144	0.707854	0.272440
H145	H	0.263964	0.297429	-0.147478
H146	H	0.763964	0.797429	0.352522
C147	C	0.402001	0.020657	0.156511
C148	C	0.902001	0.520657	0.656511
H149	H	0.450566	0.028930	0.145839
H150	H	0.950566	0.528930	0.645839
H151	H	0.392718	-0.045292	0.147129
H152	H	0.892718	0.454708	0.647129
H153	H	0.386531	0.044287	0.227204
H154	H	0.886531	0.544287	0.727204
H155	H	0.478969	0.140115	0.176517
H156	H	0.978969	0.640115	0.676517
C157	C	0.019994	0.132941	0.204282
C158	C	0.519994	0.632941	0.704282
H159	H	-0.027829	0.131199	0.190330
H160	H	0.472171	0.631199	0.690330
H161	H	0.028442	0.190970	0.244061
H162	H	0.528442	0.690970	0.744061
H163	H	0.032012	0.080492	0.244528
H164	H	0.532012	0.580492	0.744528
H165	H	0.163109	0.133768	0.176478
H166	H	0.663109	0.633768	0.676478
H167	H	0.610569	0.142770	0.176547
H168	H	1.110569	0.642770	0.676547
