data_functionalizedCrystal
_audit_creation_method	'MofGen! by Chris Wilmer'
_symmetry_space_group_name_H-M	'P1'
_symmetry_Int_Tables_number	1
_symmetry_cell_setting	triclinic
loop_
_symmetry_equiv_pos_as_xyz
  x,y,z
_cell_length_a	10.540510
_cell_length_b	16.776229
_cell_length_c	17.699092
_cell_angle_alpha	89.995030
_cell_angle_beta	83.899839
_cell_angle_gamma	89.992634
loop_
_atom_site_label
_atom_site_type_symbol
_atom_site_fract_x
_atom_site_fract_y
_atom_site_fract_z
O1	O	1.683970	-0.066290	0.106554
O2	O	2.183970	0.433710	0.606554
O3	O	1.314369	-0.066290	0.116627
O4	O	1.814369	0.433710	0.616627
O5	O	1.509606	-0.066288	0.001469
O6	O	2.009606	0.433712	0.501469
O7	O	1.488733	-0.066292	0.221712
O8	O	1.988733	0.433708	0.721712
O9	O	1.509580	0.066288	0.001462
O10	O	2.009580	0.566288	0.501462
O11	O	1.314343	0.066286	0.116620
O12	O	1.814343	0.566286	0.616620
O13	O	1.683944	0.066287	0.106547
O14	O	2.183944	0.566287	0.606547
Zn15	Zn	1.499139	0.087336	0.111582
Zn16	Zn	1.999139	0.587336	0.611582
Zn17	Zn	1.499174	-0.087339	0.111592
Zn18	Zn	1.999174	0.412661	0.611592
O19	O	1.488707	0.066285	0.221705
O20	O	1.988707	0.566285	0.721705
C21	C	1.267066	-0.000002	0.115873
C22	C	1.767066	0.499998	0.615873
C23	C	1.126157	-0.000002	0.113627
C24	C	1.626157	0.499998	0.613627
N25	N	1.499125	0.206547	0.111575
N26	N	1.999125	0.706547	0.611575
N27	N	1.499198	-0.206551	0.111593
N28	N	1.999198	0.293449	0.611593
C29	C	0.907242	-0.000308	0.193627
C30	C	1.407242	0.499692	0.693627
C31	C	1.053794	-0.000004	0.196022
C32	C	1.553794	0.499996	0.696022
C33	C	1.082152	0.075704	0.071444
C34	C	1.582152	0.575704	0.571444
C35	C	0.935424	0.075763	0.069632
C36	C	1.435424	0.575763	0.569632
C37	C	0.935678	-0.075001	0.067925
C38	C	1.435678	0.424999	0.567925
C39	C	1.081948	-0.075997	0.071833
C40	C	1.581948	0.424003	0.571833
C41	C	1.731247	-0.000003	0.107301
C42	C	2.231247	0.499997	0.607301
C43	C	1.872156	-0.000008	0.109547
C44	C	2.372156	0.499992	0.609547
C45	C	1.508843	-0.000001	-0.026737
C46	C	2.008843	0.499999	0.473263
C47	C	1.506594	-0.000005	-0.110769
C48	C	2.006594	0.499995	0.389231
C49	C	1.585603	0.248265	0.060604
C50	C	2.085603	0.748265	0.560604
C51	C	1.585610	0.331717	0.060604
C52	C	2.085610	0.831717	0.560604
C53	C	1.499145	0.373450	0.111578
C54	C	1.999145	0.873450	0.611578
C55	C	1.412658	0.331726	0.162551
C56	C	1.912658	0.831726	0.662551
C57	C	1.412646	0.248276	0.162548
C58	C	1.912646	0.748276	0.662548
C59	C	1.412704	0.668273	0.162566
C60	C	1.912704	1.168273	0.662566
C61	C	1.412725	0.751730	0.162568
C62	C	1.912725	1.251730	0.662568
C63	C	1.585668	0.751715	0.060623
C64	C	2.085668	1.251715	0.560623
C65	C	1.585656	0.668264	0.060619
C66	C	2.085656	1.168264	0.560619
C67	C	1.499165	0.626548	0.111589
C68	C	1.999165	1.126548	0.611589
C69	C	1.499157	0.536060	0.111588
C70	C	1.999157	1.036060	0.611588
C71	C	1.499158	0.463937	0.111583
C72	C	1.999158	0.963937	0.611583
C73	C	1.505555	-0.072273	-0.150239
C74	C	2.005555	0.427727	0.349761
C75	C	1.503433	-0.072274	-0.229196
C76	C	2.003433	0.427726	0.270804
C77	C	1.502361	-0.000006	-0.268681
C78	C	2.002361	0.499994	0.231319
C79	C	1.503396	0.072268	-0.229205
C80	C	2.003396	0.572268	0.270795
C81	C	1.505509	0.072268	-0.150249
C82	C	2.005509	0.572268	0.349751
C83	C	1.494876	0.072269	-0.547625
C84	C	1.994876	0.572269	-0.047625
C85	C	1.492767	0.072264	-0.626587
C86	C	1.992767	0.572264	-0.126587
C87	C	1.492800	-0.072273	-0.626571
C88	C	1.992800	0.427727	-0.126571
C89	C	1.494913	-0.072273	-0.547615
C90	C	1.994913	0.427727	-0.047615
C91	C	1.495942	0.000000	-0.508146
C92	C	1.995942	0.500000	-0.008146
C93	C	1.498240	0.000001	-0.422532
C94	C	1.998240	0.500001	0.077468
C95	C	1.500072	-0.000005	-0.354294
C96	C	2.000072	0.499995	0.145706
C97	C	1.489469	-0.000004	0.249910
C98	C	1.989469	0.499996	0.749910
C99	C	1.491719	-0.000006	0.333942
C100	C	1.991719	0.499994	0.833942
H101	H	0.864714	-0.054602	0.225730
H102	H	1.364714	0.445398	0.725730
N103	N	0.851919	0.067418	0.233655
N104	N	1.351919	0.567418	0.733655
N105	N	0.786763	0.115904	0.200528
N106	N	1.286763	0.615904	0.700528
H107	H	0.747689	0.163738	0.228795
H108	H	1.247689	0.663738	0.728795
N109	N	1.324347	0.625681	0.214631
N110	N	1.824347	1.125681	0.714631
N111	N	1.247154	0.662955	0.260138
N112	N	1.747154	1.162955	0.760138
H113	H	1.184745	0.632871	0.296911
H114	H	1.684745	1.132871	0.796911
N115	N	1.506625	-0.146096	-0.109908
N116	N	2.006625	0.353904	0.390092
N117	N	1.418362	-0.162221	-0.059353
N118	N	1.918362	0.337779	0.440647
H119	H	1.419112	-0.214361	-0.030871
H120	H	1.919112	0.285639	0.469129
N121	N	1.324334	0.374365	0.214610
N122	N	1.824334	0.874365	0.714610
N123	N	1.324355	0.448873	0.214608
N124	N	1.824355	0.948873	0.714608
H125	H	1.261975	0.478987	0.251376
H126	H	1.761975	0.978987	0.751376
N127	N	1.673958	0.625624	0.008548
N128	N	2.173958	1.125624	0.508548
N129	N	1.673930	0.551116	0.008550
N130	N	2.173930	1.051116	0.508550
H131	H	1.736291	0.521000	-0.028228
H132	H	2.236291	1.021000	0.471772
H133	H	1.506337	0.131117	-0.118112
H134	H	2.006337	0.631117	0.381888
H135	H	1.502592	-0.131122	-0.261329
H136	H	2.002592	0.368878	0.238671
N137	N	1.324315	0.205647	0.214605
N138	N	1.824315	0.705647	0.714605
N139	N	1.245598	0.159095	0.190137
N140	N	1.745598	0.659095	0.690137
H141	H	1.183208	0.128988	0.226902
H142	H	1.683208	0.628988	0.726902
N143	N	1.142975	0.079266	-0.004652
N144	N	1.642975	0.579266	0.495348
N145	N	1.077221	0.079025	-0.059410
N146	N	1.577221	0.579025	0.440590
H147	H	1.120180	0.081543	-0.113154
H148	H	1.620180	0.581543	0.386846
H149	H	1.656018	0.214292	0.019098
H150	H	2.156018	0.714292	0.519098
H151	H	1.132114	-0.080568	0.011678
H152	H	1.632114	0.419432	0.511678
N153	N	1.502282	0.146095	-0.269525
N154	N	2.002282	0.646095	0.230475
N155	N	1.413062	0.194481	-0.254210
N156	N	1.913062	0.694481	0.245790
H157	H	1.412274	0.246624	-0.282684
H158	H	1.912274	0.746624	0.217316
H159	H	1.082549	-0.054276	0.229022
H160	H	1.582549	0.445724	0.729022
H161	H	1.491956	-0.131122	-0.658717
H162	H	1.991956	0.368878	-0.158717
N163	N	1.496020	-0.146100	-0.507296
N164	N	1.996020	0.353900	-0.007296
N165	N	1.495091	-0.210622	-0.542547
N166	N	1.995091	0.289378	-0.042547
H167	H	1.495870	-0.262765	-0.514072
H168	H	1.995870	0.237235	-0.014072
H169	H	1.491891	0.131117	-0.658733
H170	H	1.991891	0.631117	-0.158733
H171	H	1.656090	0.785690	0.019117
H172	H	2.156090	1.285690	0.519117
H173	H	1.495739	0.131119	-0.515500
H174	H	1.995739	0.631119	-0.015500
N175	N	0.909280	-0.075646	-0.009676
N176	N	1.409280	0.424354	0.490324
N177	N	0.850214	-0.132861	-0.034617
N178	N	1.350214	0.367139	0.465383
H179	H	0.831562	-0.133308	-0.089420
H180	H	1.331562	0.366692	0.410580
N181	N	1.088632	0.068155	0.237720
N182	N	1.588632	0.568155	0.737720
N183	N	1.004658	0.115653	0.265135
N184	N	1.504658	0.615653	0.765135
H185	H	1.029255	0.163780	0.294607
H186	H	1.529255	0.663780	0.794607
N187	N	0.884313	0.146751	0.105805
N188	N	1.384313	0.646751	0.605805
N189	N	0.899540	0.160182	0.173719
N190	N	1.399540	0.660182	0.673719
H191	H	0.863452	0.210318	0.199270
H192	H	1.363452	0.710318	0.699270
N193	N	0.907970	0.080101	-0.007672
N194	N	1.407970	0.580101	0.492328
N195	N	0.844832	0.137261	-0.029271
N196	N	1.344832	0.637261	0.470729
H197	H	0.825445	0.140331	-0.083866
H198	H	1.325445	0.640331	0.416134
N199	N	1.120159	0.146377	0.108200
N200	N	1.620159	0.646377	0.608200
N201	N	1.080740	0.159152	0.176240
N202	N	1.580740	0.659152	0.676240
H203	H	1.107580	0.209063	0.202205
H204	H	1.607580	0.709063	0.702205
H205	H	1.656025	0.365684	0.019099
H206	H	2.156025	0.865684	0.519099
H207	H	0.892667	-0.132383	0.093912
H208	H	1.392667	0.367617	0.593912
H209	H	1.110018	-0.132004	0.102525
H210	H	1.610018	0.367996	0.602525
N211	N	1.324390	0.794348	0.214645
N212	N	1.824390	1.294348	0.714645
N213	N	1.247173	0.757093	0.260149
N214	N	1.747173	1.257093	0.760149
H215	H	1.184789	0.787192	0.296928
H216	H	1.684789	1.287192	0.796928
