data_functionalizedCrystal
_audit_creation_method	'MofGen! by Chris Wilmer'
_symmetry_space_group_name_H-M	'P1'
_symmetry_Int_Tables_number	1
_symmetry_cell_setting	triclinic
loop_
_symmetry_equiv_pos_as_xyz
  x,y,z
_cell_length_a	16.109302
_cell_length_b	17.699092
_cell_length_c	14.586319
_cell_angle_alpha	89.997896
_cell_angle_beta	89.994552
_cell_angle_gamma	83.374074
loop_
_atom_site_label
_atom_site_type_symbol
_atom_site_fract_x
_atom_site_fract_y
_atom_site_fract_z
O1	O	1.102966	0.097287	-0.076278
O2	O	1.436299	0.430620	0.257055
O3	O	1.769633	0.763953	0.590389
O4	O	0.860884	0.109393	-0.076270
O5	O	1.194217	0.442726	0.257063
O6	O	1.527550	0.776060	0.590396
O7	O	0.988761	-0.006839	-0.076272
O8	O	1.322094	0.326494	0.257061
O9	O	1.655427	0.659828	0.590394
O10	O	0.975089	0.213519	-0.076276
O11	O	1.308422	0.546852	0.257057
O12	O	1.641756	0.880186	0.590391
O13	O	0.988752	-0.006841	0.076208
O14	O	1.322085	0.326493	0.409542
O15	O	1.655418	0.659826	0.742875
O16	O	0.860875	0.109391	0.076210
O17	O	1.194208	0.442725	0.409544
O18	O	1.527541	0.776058	0.742877
O19	O	1.102957	0.097285	0.076203
O20	O	1.436290	0.430618	0.409536
O21	O	1.769624	0.763952	0.742869
Cu22	Cu	0.981915	0.103338	0.090129
Cu23	Cu	1.315248	0.436671	0.423463
Cu24	Cu	1.648582	0.770005	0.756796
Cu25	Cu	0.981926	0.103340	-0.090197
Cu26	Cu	1.315259	0.436673	0.243136
Cu27	Cu	1.648592	0.770007	0.576470
O28	O	0.975080	0.213517	0.076205
O29	O	1.308413	0.546851	0.409538
O30	O	1.641747	0.880184	0.742871
C31	C	0.829905	0.108902	-0.000029
C32	C	1.163239	0.442235	0.333304
C33	C	1.496572	0.775568	0.666638
C34	C	0.737612	0.107431	-0.000026
C35	C	1.070946	0.440765	0.333307
C36	C	1.404279	0.774098	0.666640
C37	C	0.525272	0.104030	0.083082
C38	C	0.858606	0.437363	0.416415
C39	C	1.191939	0.770697	0.749749
C40	C	0.438555	0.102640	0.083079
C41	C	0.771888	0.435974	0.416412
C42	C	1.105221	0.769307	0.749746
C43	C	0.438575	0.102646	-0.083164
C44	C	0.771908	0.435979	0.250169
C45	C	1.105241	0.769313	0.583503
C46	C	0.525292	0.104030	-0.083160
C47	C	0.858625	0.437364	0.250173
C48	C	1.191958	0.770697	0.583507
C49	C	0.568638	0.104726	-0.000034
C50	C	0.901971	0.438060	0.333299
C51	C	1.235304	0.771393	0.666633
C52	C	0.395203	0.101952	-0.000041
C53	C	0.728536	0.435285	0.333292
C54	C	1.061870	0.768619	0.666625
C55	C	0.301180	0.100445	-0.000046
C56	C	0.634513	0.433778	0.333288
C57	C	0.967847	0.767112	0.666621
C58	C	0.662667	0.106232	-0.000030
C59	C	0.996000	0.439565	0.333304
C60	C	1.329334	0.772898	0.666637
C61	C	0.988265	-0.035037	-0.000033
C62	C	1.321599	0.298296	0.333300
C63	C	1.654932	0.631629	0.666633
C64	C	0.986792	-0.119057	-0.000037
C65	C	1.320125	0.214276	0.333296
C66	C	1.653459	0.547609	0.666629
C67	C	0.986107	-0.158525	-0.083156
C68	C	1.319440	0.174809	0.250178
C69	C	1.652773	0.508142	0.583511
C70	C	0.984717	-0.237470	-0.083157
C71	C	1.318051	0.095864	0.250177
C72	C	1.651384	0.429197	0.583510
C73	C	0.984019	-0.276946	-0.000039
C74	C	1.317352	0.056387	0.333295
C75	C	1.650686	0.389720	0.666628
C76	C	0.984702	-0.237473	0.083086
C77	C	1.318035	0.095860	0.416419
C78	C	1.651369	0.429193	0.749753
C79	C	0.986085	-0.158529	0.083086
C80	C	1.319419	0.174804	0.416420
C81	C	1.652752	0.508138	0.749753
C82	C	0.979121	-0.555846	0.083088
C83	C	1.312455	-0.222513	0.416421
C84	C	1.645788	0.110820	0.749754
C85	C	0.977740	-0.634796	0.083081
C86	C	1.311073	-0.301463	0.416414
C87	C	1.644407	0.031870	0.749748
C88	C	0.977753	-0.634787	-0.083155
C89	C	1.311086	-0.301454	0.250178
C90	C	1.644420	0.031880	0.583511
C91	C	0.979136	-0.555843	-0.083155
C92	C	1.312470	-0.222509	0.250178
C93	C	1.645803	0.110824	0.583511
C94	C	0.979815	-0.516376	-0.000031
C95	C	1.313148	-0.183042	0.333302
C96	C	1.646482	0.150291	0.666635
C97	C	0.981320	-0.430775	-0.000031
C98	C	1.314653	-0.097441	0.333302
C99	C	1.647987	0.235892	0.666636
C100	C	0.982520	-0.362547	-0.000038
C101	C	1.315853	-0.029214	0.333296
C102	C	1.649187	0.304120	0.666629
C103	C	1.133936	0.097776	-0.000041
C104	C	1.467269	0.431110	0.333293
C105	C	1.800602	0.764443	0.666626
C106	C	1.226228	0.099247	-0.000049
C107	C	1.559562	0.432580	0.333284
C108	C	1.892895	0.765914	0.666617
C109	C	0.975576	0.241716	-0.000036
C110	C	1.308909	0.575049	0.333297
C111	C	1.642242	0.908382	0.666630
C112	C	0.977049	0.325736	-0.000038
C113	C	1.310382	0.659069	0.333295
C114	C	1.643715	0.992402	0.666629
N115	N	0.981914	0.103336	0.216961
N116	N	1.315247	0.436670	0.550294
N117	N	1.648581	0.770003	0.883628
N118	N	0.981934	0.103336	-0.217029
N119	N	1.315267	0.436669	0.116305
N120	N	1.648600	0.770003	0.449638
C121	C	1.038556	0.051886	0.451967
C122	C	1.371890	0.385219	0.785300
C123	C	1.705223	0.718553	1.118633
C124	C	1.038559	0.051884	0.547948
C125	C	1.371892	0.385217	0.881281
C126	C	1.705226	0.718551	1.214615
C127	C	0.925285	0.154789	0.547959
C128	C	1.258618	0.488122	0.881292
C129	C	1.591952	0.821456	1.214626
C130	C	0.925279	0.154786	0.451980
C131	C	1.258613	0.488120	0.785313
C132	C	1.591946	0.821453	1.118646
C133	C	0.981920	0.103336	0.403986
C134	C	1.315253	0.436669	0.737319
C135	C	1.648586	0.770003	1.070652
C136	C	0.981928	0.103336	0.595947
C137	C	1.315261	0.436670	0.929280
C138	C	1.648594	0.770003	1.262613
C139	C	0.981930	0.103335	0.700014
C140	C	1.315263	0.436668	1.033347
C141	C	1.648597	0.770001	1.366680
C142	C	0.981917	0.103336	0.299912
C143	C	1.315250	0.436670	0.633245
C144	C	1.648583	0.770003	0.966579
H145	H	0.403272	0.102080	-0.150842
H146	H	0.736605	0.435414	0.182491
H147	H	1.069938	0.768747	0.515825
H148	H	0.403250	0.102074	0.150760
H149	H	0.736584	0.435407	0.484094
H150	H	1.069917	0.768740	0.817427
H151	H	0.560601	0.104595	-0.150847
H152	H	0.893934	0.437929	0.182486
H153	H	1.227268	0.771262	0.515819
H154	H	0.986680	-0.126389	-0.150840
H155	H	1.320013	0.206944	0.182493
H156	H	1.653346	0.540278	0.515826
H157	H	0.984163	-0.269601	-0.150840
H158	H	1.317496	0.063732	0.182493
H159	H	1.650829	0.397066	0.515827
F160	F	0.864992	0.209546	0.400911
F161	F	1.198326	0.542880	0.734244
F162	F	1.531659	0.876213	1.067577
F163	F	1.098836	-0.002874	0.400892
F164	F	1.432170	0.330459	0.734225
F165	F	1.765503	0.663792	1.067559
H166	H	0.977196	-0.666930	-0.150839
H167	H	1.310530	-0.333597	0.182494
H168	H	1.643863	-0.000263	0.515828
F169	F	0.571402	0.104767	0.171552
F170	F	0.904735	0.438101	0.504885
F171	F	1.238069	0.771434	0.838218
H172	H	0.984128	-0.269621	0.150762
H173	H	1.317462	0.063713	0.484096
H174	H	1.650795	0.397046	0.817429
H175	H	0.979709	-0.523705	-0.150839
H176	H	1.313042	-0.190372	0.182495
H177	H	1.646376	0.142961	0.515828
H178	H	1.084677	0.009988	0.587011
H179	H	1.418010	0.343321	0.920345
H180	H	1.751343	0.676655	1.253678
F181	F	0.979833	-0.513851	0.171556
F182	F	1.313166	-0.180518	0.504889
F183	F	1.646499	0.152815	0.838222
F184	F	0.976996	-0.676809	0.171551
F185	F	1.310329	-0.343475	0.504885
F186	F	1.643662	-0.010142	0.838218
F187	F	0.986814	-0.116525	0.171552
F188	F	1.320147	0.216808	0.504885
F189	F	1.653480	0.550142	0.838219
H190	H	0.879171	0.196680	0.587045
H191	H	1.212504	0.530013	0.920378
H192	H	1.545837	0.863347	1.253712
