data_functionalizedCrystal
_audit_creation_method	'MofGen! by Chris Wilmer'
_symmetry_space_group_name_H-M	'P1'
_symmetry_Int_Tables_number	1
_symmetry_cell_setting	triclinic
loop_
_symmetry_equiv_pos_as_xyz
  x,y,z
_cell_length_a	18.215405
_cell_length_b	18.215407
_cell_length_c	18.215399
_cell_angle_alpha	89.982223
_cell_angle_beta	90.030551
_cell_angle_gamma	89.979495
loop_
_atom_site_label
_atom_site_type_symbol
_atom_site_fract_x
_atom_site_fract_y
_atom_site_fract_z
Zn1	Zn	-0.293078	-1.125072	0.416062
Zn2	Zn	-0.416149	-1.124980	0.292990
Zn3	Zn	-0.293092	-1.002004	0.293014
Zn4	Zn	-0.416098	-1.001970	0.416020
O5	O	-0.354604	-1.063507	0.354521
O6	O	-0.309419	-1.228044	0.399744
O7	O	-0.399852	-1.108643	0.190009
O8	O	-0.190105	-1.018382	0.309364
O9	O	-0.399839	-1.227977	0.309324
O10	O	-0.190095	-1.108799	0.399767
O11	O	-0.309443	-1.018293	0.190026
O12	O	-0.309393	-0.899016	0.309323
O13	O	-0.399752	-1.018324	0.519010
O14	O	-0.399765	-0.898991	0.399695
O15	O	-0.309369	-1.108766	0.519041
O16	O	-0.519127	-1.108610	0.309283
O17	O	-0.519089	-1.018235	0.399672
C18	C	-0.354575	-0.872300	0.354507
C19	C	-0.354581	-0.790502	0.354519
C20	C	-0.307590	-0.602342	0.401673
C21	C	-0.307594	-0.525483	0.401675
C22	C	-0.401607	-0.525424	0.307375
C23	C	-0.401599	-0.602281	0.307370
C24	C	-0.354591	-0.640738	0.354523
C25	C	-0.354603	-0.487022	0.354530
C26	C	-0.354608	-0.403688	0.354532
C27	C	-0.354586	-0.724077	0.354521
C28	C	-0.545810	-1.063429	0.354486
C29	C	-0.627609	-1.063463	0.354496
C30	C	-0.815798	-1.110632	0.307517
C31	C	-0.892657	-1.110665	0.307534
C32	C	-0.892658	-1.016476	0.401579
C33	C	-0.815800	-1.016447	0.401565
C34	C	-0.777373	-1.063524	0.354529
C35	C	-0.931089	-1.063586	0.354562
C36	C	-1.014422	-1.063621	0.354581
C37	C	-0.694034	-1.063490	0.354510
C38	C	-0.162651	-1.063605	0.354573
C39	C	-0.080852	-1.063647	0.354595
C40	C	-0.354553	-1.063552	0.546474
C41	C	-0.354532	-1.063571	0.628273
C42	C	-0.354625	-0.255460	0.354534
C43	C	-0.354614	-0.337259	0.354535
C44	C	-0.354602	-1.063504	0.163315
C45	C	-0.354416	-1.063628	0.081517
C46	C	-0.307426	-1.110681	0.816485
C47	C	-0.307404	-1.110690	0.893344
C48	C	-0.401524	-1.016513	0.893300
C49	C	-0.401541	-1.016501	0.816443
C50	C	-0.354493	-1.063589	0.778037
C51	C	-0.354454	-1.063610	0.931753
C52	C	-0.354432	-1.063619	1.015087
C53	C	-0.354515	-1.063579	0.694698
H54	H	-0.269320	-0.494224	0.440069
N55	N	-0.452315	-0.965711	0.774970
H56	H	-0.445184	-0.972848	0.720454
H57	H	-0.440853	-0.913158	0.788398
N58	N	-0.452276	-0.965729	0.934714
H59	H	-0.440840	-0.913152	0.921330
H60	H	-0.445109	-0.972938	0.989225
N61	N	-0.452304	-0.483945	0.256517
H62	H	-0.445178	-0.429430	0.263675
H63	H	-0.504877	-0.497370	0.267874
N64	N	-0.774346	-1.161410	0.256796
H65	H	-0.787768	-1.150022	0.204205
H66	H	-0.787691	-1.213969	0.268344
H67	H	-0.923940	-1.149026	0.269253
N68	N	-0.934105	-0.965699	0.452305
H69	H	-0.988625	-0.972862	0.445180
H70	H	-0.920715	-0.913143	0.440798
H71	H	-0.439874	-0.633544	0.268971
N72	N	-0.774349	-0.965638	0.452275
H73	H	-0.810354	-0.935815	0.482070
H74	H	-0.742506	-0.931589	0.422280
H75	H	-0.269076	-1.149035	0.924645
N76	N	-0.256891	-0.643822	0.452528
H77	H	-0.227116	-0.607832	0.482396
H78	H	-0.222794	-0.675709	0.422631
N79	N	-0.256683	-1.161465	0.775060
H80	H	-0.226862	-1.191298	0.811082
H81	H	-0.222630	-1.131520	0.743176
