data_functionalizedCrystal
_audit_creation_method	'MofGen! by Chris Wilmer'
_symmetry_space_group_name_H-M	'P1'
_symmetry_Int_Tables_number	1
_symmetry_cell_setting	triclinic
loop_
_symmetry_equiv_pos_as_xyz
  x,y,z
_cell_length_a	10.685980
_cell_length_b	10.685194
_cell_length_c	11.169409
_cell_angle_alpha	94.405531
_cell_angle_beta	94.396777
_cell_angle_gamma	98.380820
loop_
_atom_site_label
_atom_site_type_symbol
_atom_site_fract_x
_atom_site_fract_y
_atom_site_fract_z
Zn1	Zn	1.901989	-0.356539	0.791478
Zn2	Zn	1.885604	-0.568874	0.574103
Zn3	Zn	1.689703	-0.372883	0.574111
Zn4	Zn	1.673457	-0.585028	0.758071
O5	O	1.787688	-0.470831	0.674441
O6	O	2.077442	-0.371106	0.776621
O7	O	1.859560	-0.542955	0.406144
O8	O	1.731519	-0.193069	0.616930
O9	O	2.065404	-0.527107	0.616917
O10	O	1.887484	-0.181061	0.776628
O11	O	1.715632	-0.398961	0.406150
O12	O	1.509921	-0.414625	0.584536
O13	O	1.703831	-0.554639	0.930462
O14	O	1.497986	-0.570486	0.719690
O15	O	1.871732	-0.386769	0.955006
O16	O	1.843807	-0.748663	0.584522
O17	O	1.687944	-0.760531	0.719682
C18	C	1.457897	-0.496083	0.648489
C19	C	1.316808	-0.506916	0.637413
C20	C	1.762369	-0.800656	0.648505
C21	C	1.751653	-0.941747	0.637459
C22	C	2.118768	-0.445481	0.700494
C23	C	2.259854	-0.434679	0.711597
C24	C	1.787797	-0.470683	0.987502
C25	C	1.787843	-0.470619	1.120910
C26	C	1.813141	-0.139716	0.700506
C27	C	1.823988	0.001386	0.711614
C28	C	1.787661	-0.470882	0.362610
C29	C	1.787888	-0.470568	0.229250
H30	H	1.319030	-0.364538	0.783581
Br31	Br	1.218178	-0.623814	0.517406
H32	H	1.894116	-0.939362	0.783558
H33	H	1.681510	-1.001009	0.565521
