data_functionalizedCrystal
_audit_creation_method	'MofGen! by Chris Wilmer'
_symmetry_space_group_name_H-M	'P1'
_symmetry_Int_Tables_number	1
_symmetry_cell_setting	triclinic
loop_
_symmetry_equiv_pos_as_xyz
  x,y,z
_cell_length_a	10.685980
_cell_length_b	12.594509
_cell_length_c	10.686285
_cell_angle_alpha	85.604965
_cell_angle_beta	89.665709
_cell_angle_gamma	85.604980
loop_
_atom_site_label
_atom_site_type_symbol
_atom_site_fract_x
_atom_site_fract_y
_atom_site_fract_z
Zn1	Zn	1.956328	-0.705749	-0.352406
Zn2	Zn	2.456328	-0.205749	0.147594
Zn3	Zn	1.972327	-0.515256	-0.562212
Zn4	Zn	2.472327	-0.015256	-0.062212
Zn5	Zn	1.746541	-0.513155	-0.368535
Zn6	Zn	2.246541	-0.013155	0.131465
Zn7	Zn	1.762637	-0.678580	-0.578193
Zn8	Zn	2.262637	-0.178580	-0.078193
O9	O	1.859458	-0.603185	-0.465336
O10	O	2.359458	-0.103185	0.034664
O11	O	2.134002	-0.692730	-0.366799
O12	O	2.634002	-0.192730	0.133201
O13	O	1.942335	-0.366025	-0.536583
O14	O	2.442335	0.133975	-0.036583
O15	O	1.760938	-0.549194	-0.190849
O16	O	2.260938	-0.049194	0.309151
O17	O	2.145757	-0.552776	-0.520942
O18	O	2.645757	-0.052776	-0.020942
O19	O	1.915067	-0.690692	-0.178998
O20	O	2.415067	-0.190692	0.321002
O21	O	1.776452	-0.364481	-0.394289
O22	O	2.276452	0.135519	0.105711
O23	O	1.573124	-0.522849	-0.409785
O24	O	2.073124	-0.022849	0.090215
O25	O	1.788371	-0.831136	-0.548179
O26	O	2.288371	-0.331136	-0.048179
O27	O	1.584950	-0.644386	-0.563819
O28	O	2.084950	-0.144386	-0.063819
O29	O	1.930675	-0.851097	-0.382294
O30	O	2.430675	-0.351097	0.117706
O31	O	1.957943	-0.526431	-0.739879
O32	O	2.457943	-0.026431	-0.239879
O33	O	1.803885	-0.646423	-0.751620
O34	O	2.303885	-0.146423	-0.251620
C35	C	1.533518	-0.580442	-0.490288
C36	C	2.033518	-0.080442	0.009712
C37	C	1.394082	-0.570735	-0.500992
C38	C	1.894082	-0.070735	-0.000992
C39	C	1.859534	-0.880818	-0.465220
C40	C	2.359534	-0.380818	0.034780
C41	C	1.859566	-0.999129	-0.465170
C42	C	2.359566	-0.499129	0.034830
C43	C	1.782190	-1.057530	-0.555346
C44	C	2.282190	-0.557530	-0.055346
C45	C	1.899015	-1.134471	-0.577224
C46	C	2.399015	-0.634471	-0.077224
C47	C	1.742824	-1.132999	-0.443209
C48	C	2.242824	-0.632999	0.056791
C49	C	1.976455	-1.074512	-0.487105
C50	C	2.476455	-0.574512	0.012895
C51	C	1.820184	-1.073032	-0.353043
C52	C	2.320184	-0.573032	0.146957
C53	C	1.937085	-1.149948	-0.374872
C54	C	2.437085	-0.649948	0.125128
C55	C	2.186671	-0.626018	-0.440289
C56	C	2.686671	-0.126018	0.059711
C57	C	2.326110	-0.635748	-0.429615
C58	C	2.826110	-0.135748	0.070385
C59	C	1.884431	-0.583732	-0.791264
C60	C	2.384431	-0.083732	-0.291264
C61	C	1.895229	-0.575454	-0.930688
C62	C	2.395229	-0.075454	-0.430688
C63	C	1.859448	-0.326642	-0.465356
C64	C	2.359448	0.173358	0.034644
C65	C	1.859632	-0.208370	-0.465034
C66	C	2.359632	0.291630	0.034966
C67	C	1.834422	-0.622739	-0.138134
C68	C	2.334422	-0.122739	0.361866
C69	C	1.823753	-0.631072	0.001301
C70	C	2.323753	-0.131072	0.501301
H71	H	1.932360	-1.161614	-0.671989
H72	H	2.432360	-0.661614	-0.171989
N73	N	1.386936	-0.714881	-0.342670
N74	N	1.886936	-0.214881	0.157330
N75	N	1.503918	-0.722918	-0.333797
N76	N	2.003918	-0.222918	0.166203
H77	H	1.546886	-0.778806	-0.272389
H78	H	2.046886	-0.278806	0.227611
N79	N	1.333249	-0.491581	-0.587920
N80	N	1.833249	0.008419	-0.087920
N81	N	1.216266	-0.483532	-0.596785
N82	N	1.716266	0.016468	-0.096785
H83	H	1.173300	-0.427629	-0.658174
H84	H	1.673300	0.072371	-0.158174
N85	N	1.982339	-0.507742	-0.991449
N86	N	2.482339	-0.007742	-0.491449
N87	N	1.943841	-0.432506	-1.068047
N88	N	2.443841	0.067494	-0.568047
H89	H	2.005359	-0.384682	-1.110961
H90	H	2.505359	0.115318	-0.610961
H91	H	1.716819	-1.017309	-0.631709
H92	H	2.216819	-0.517309	-0.131709
H93	H	2.075247	-1.048746	-0.505731
H94	H	2.575247	-0.548746	-0.005731
N95	N	2.019316	-1.200164	-0.279128
N96	N	2.519316	-0.700164	0.220872
N97	N	2.133424	-1.184466	-0.281960
N98	N	2.633424	-0.684466	0.218040
H99	H	2.191504	-1.219931	-0.214345
H100	H	2.691504	-0.719931	0.285655
N101	N	1.736645	-0.698768	-0.937926
N102	N	2.236645	-0.198768	-0.437926
N103	N	1.775144	-0.773998	-0.861320
N104	N	2.275144	-0.273998	-0.361320
H105	H	1.713624	-0.821812	-0.818390
H106	H	2.213624	-0.321812	-0.318390
H107	H	1.786807	-1.045861	-0.258308
H108	H	2.286807	-0.545861	0.241692
N109	N	1.618945	-1.165481	-0.419939
N110	N	2.118945	-0.665481	0.080061
N111	N	1.597996	-1.226946	-0.325975
N112	N	2.097996	-0.726946	0.174025
H113	H	1.510505	-1.249883	-0.309546
H114	H	2.010505	-0.749883	0.190454
