data_functionalizedCrystal
_audit_creation_method	'MofGen! by Chris Wilmer'
_symmetry_space_group_name_H-M	'P1'
_symmetry_Int_Tables_number	1
_symmetry_cell_setting	triclinic
loop_
_symmetry_equiv_pos_as_xyz
  x,y,z
_cell_length_a	15.995350
_cell_length_b	15.995350
_cell_length_c	15.072220
_cell_angle_alpha	90.008851
_cell_angle_beta	90.001101
_cell_angle_gamma	96.507625
loop_
_atom_site_label
_atom_site_type_symbol
_atom_site_fract_x
_atom_site_fract_y
_atom_site_fract_z
O1	O	0.107921	-1.110996	-0.073703
O2	O	0.121249	-0.867221	-0.073721
O3	O	-0.007303	-0.995772	-0.073710
O4	O	0.236472	-0.982444	-0.073713
O5	O	-0.007296	-0.995740	0.073855
O6	O	0.121256	-0.867189	0.073844
O7	O	0.107928	-1.110964	0.073862
Zn8	Zn	0.114593	-0.989071	0.097283
Zn9	Zn	0.114584	-0.989113	-0.097141
O10	O	0.236480	-0.982413	0.073852
C11	C	0.120701	-0.836010	0.000060
C12	C	0.119049	-0.743060	0.000053
C13	C	-0.038494	-0.995205	0.000070
C14	C	-0.131444	-0.993553	0.000065
C15	C	0.108476	-1.142175	0.000080
C16	C	0.110127	-1.235125	0.000081
C17	C	-0.469192	-0.987621	0.000068
C18	C	-0.421758	-0.896069	-0.000270
C19	C	-0.325068	-0.897721	0.000063
C20	C	-0.301631	-0.990564	0.000066
C21	C	-0.342705	-1.035702	0.084335
C22	C	-0.439341	-1.033402	0.084405
C23	C	-0.439707	-1.035330	-0.083404
C24	C	-0.342761	-1.035308	-0.084518
C25	C	-0.206934	-0.992231	0.000068
C26	C	-0.563890	-0.985956	0.000072
C27	C	0.267671	-0.982980	0.000069
C28	C	0.360621	-0.984631	0.000069
N29	N	0.114599	-0.989049	0.229971
C30	C	0.113117	-0.405312	0.000071
C31	C	0.021565	-0.452746	0.000401
C32	C	0.023217	-0.549436	0.000063
C33	C	0.116060	-0.572873	0.000063
C34	C	0.161212	-0.531804	-0.084201
C35	C	0.158912	-0.435168	-0.084266
C36	C	0.160812	-0.434793	0.083543
C37	C	0.160790	-0.531738	0.084651
C38	C	0.117727	-0.667570	0.000055
C39	C	0.111452	-0.310614	0.000073
N40	N	0.114571	-0.989142	-0.229830
C41	C	0.114580	-0.989112	0.589173
C42	C	0.183135	-0.920095	0.551560
C43	C	0.183385	-0.920254	0.448735
C44	C	0.114590	-0.989080	0.410969
C45	C	0.133671	-1.076445	0.448266
C46	C	0.134159	-1.076058	0.551124
C47	C	0.026741	-0.971542	0.551272
C48	C	0.027327	-0.969537	0.448409
C49	C	0.114593	-0.989067	0.310255
C50	C	0.114579	-0.989130	0.689886
H51	H	-0.296649	-0.862238	-0.060344
H52	H	-0.471588	-1.100617	0.088231
H53	H	0.229421	-0.545929	-0.087335
H54	H	-0.026078	-1.016540	0.422704
H55	H	0.248570	-0.931473	0.424121
H56	H	-0.441349	-0.859626	0.059819
C57	C	-0.042184	-1.039525	0.584137
C58	C	-0.018932	-1.110636	0.645057
C59	C	-0.087849	-1.178620	0.677928
C60	C	-0.180018	-1.175493	0.649879
C61	C	-0.203274	-1.104379	0.588956
C62	C	-0.134357	-1.036395	0.556085
H63	H	0.049300	-1.112953	0.665823
H64	H	-0.070633	-1.231263	0.723027
H65	H	-0.231034	-1.225818	0.674212
H66	H	-0.271506	-1.102062	0.568189
H67	H	-0.151573	-0.983752	0.510985
H68	H	-0.440293	-0.859490	-0.060701
C69	C	0.249709	-0.391591	-0.089447
C70	C	0.276732	-0.332919	-0.167821
C71	C	0.367525	-0.289344	-0.173011
C72	C	0.431296	-0.304440	-0.099826
C73	C	0.404275	-0.363115	-0.021446
C74	C	0.313481	-0.406690	-0.016257
H75	H	0.229523	-0.321741	-0.222002
H76	H	0.387527	-0.245909	-0.231033
H77	H	0.498507	-0.272183	-0.103668
H78	H	0.451483	-0.374293	0.032734
H79	H	0.293479	-0.450125	0.041766
C80	C	0.270698	-0.935086	0.586434
C81	C	0.288094	-0.933911	0.686941
C82	C	0.375654	-0.948928	0.721804
C83	C	0.445817	-0.965121	0.656160
C84	C	0.428423	-0.966297	0.555647
C85	C	0.340863	-0.951280	0.520784
H86	H	0.236153	-0.921923	0.735541
H87	H	0.388529	-0.948058	0.796211
H88	H	0.510634	-0.976238	0.681968
H89	H	0.480364	-0.978285	0.507047
H90	H	0.327988	-0.952151	0.446377
C91	C	0.220701	-1.096966	0.583530
C92	C	0.288887	-1.113899	0.515818
C93	C	0.375432	-1.134805	0.548219
C94	C	0.393790	-1.138778	0.648332
C95	C	0.325603	-1.121845	0.716051
C96	C	0.239058	-1.100939	0.683650
H97	H	0.275298	-1.110958	0.441702
H98	H	0.425909	-1.147340	0.498088
H99	H	0.457856	-1.154254	0.672317
H100	H	0.339191	-1.124786	0.790166
H101	H	0.188581	-1.088404	0.733780
H102	H	-0.315516	-1.002306	-0.146857
H103	H	-0.012521	-0.577307	-0.060446
C104	C	-0.024736	-0.587832	0.081659
C105	C	-0.032627	-0.683535	0.097330
C106	C	-0.080586	-0.721927	0.178927
C107	C	-0.120654	-0.664616	0.244853
C108	C	-0.112765	-0.568907	0.229184
C109	C	-0.064805	-0.530516	0.147587
H110	H	-0.002965	-0.725966	0.048525
H111	H	-0.086426	-0.792777	0.190525
H112	H	-0.156156	-0.693036	0.305256
H113	H	-0.142427	-0.526477	0.277988
H114	H	-0.058965	-0.459665	0.135988
C115	C	0.116620	-0.568750	0.169004
C116	C	0.077511	-0.510726	0.234929
C117	C	0.033514	-0.547813	0.319343
C118	C	0.028625	-0.642923	0.337833
C119	C	0.067735	-0.700953	0.271906
C120	C	0.111733	-0.663867	0.187491
H121	H	0.081129	-0.440314	0.221243
H122	H	0.004562	-0.504854	0.368146
H123	H	-0.003945	-0.670377	0.400321
H124	H	0.064117	-0.771365	0.285591
H125	H	0.140685	-0.706825	0.138688
H126	H	0.086195	-1.129019	0.576003
C127	C	-0.027878	-0.427694	0.082027
C128	C	0.014268	-0.363857	0.149385
C129	C	-0.035178	-0.338794	0.231010
C130	C	-0.126771	-0.377567	0.245278
C131	C	-0.168923	-0.441407	0.177919
C132	C	-0.119476	-0.466470	0.096294
H133	H	0.082076	-0.335152	0.138824
H134	H	-0.003974	-0.291535	0.280874
H135	H	-0.163374	-0.359014	0.305702
H136	H	-0.236730	-0.470112	0.188479
H137	H	-0.150681	-0.513729	0.046430
H138	H	0.085068	-1.129029	0.423801
H139	H	0.228494	-0.547102	0.089741
H140	H	-0.014865	-0.433165	-0.059694
C141	C	-0.464067	-0.988890	0.169492
C142	C	-0.395914	-0.955681	0.236903
C143	C	-0.420635	-0.911165	0.321990
C144	C	-0.513507	-0.899857	0.339665
C145	C	-0.581666	-0.933067	0.272252
C146	C	-0.556945	-0.977584	0.187165
H147	H	-0.327159	-0.964051	0.223820
H148	H	-0.370179	-0.886581	0.371893
H149	H	-0.531807	-0.866904	0.402652
H150	H	-0.650421	-0.924698	0.285335
H151	H	-0.607401	-1.002168	0.137262
C152	C	0.167985	-0.832067	0.584928
C153	C	0.093186	-0.821771	0.646746
C154	C	0.078008	-0.733735	0.680082
C155	C	0.137629	-0.655995	0.651599
C156	C	0.212433	-0.666289	0.589777
C157	C	0.227611	-0.754325	0.556442
H158	H	0.049046	-0.879321	0.667834
H159	H	0.022632	-0.726115	0.725846
H160	H	0.126393	-0.590825	0.676276
H161	H	0.256573	-0.608738	0.568689
H162	H	0.282987	-0.761944	0.510677
H163	H	0.129845	-0.560191	-0.146912
C164	C	0.251999	-0.391883	0.084323
C165	C	0.312110	-0.410454	0.159792
C166	C	0.403292	-0.367539	0.160564
C167	C	0.434364	-0.306053	0.085866
C168	C	0.374252	-0.287479	0.010391
C169	C	0.283070	-0.330394	0.009620
H170	H	0.289109	-0.455973	0.215093
H171	H	0.447790	-0.381289	0.216436
H172	H	0.501862	-0.274285	0.086438
H173	H	0.397252	-0.241961	-0.044909
H174	H	0.238571	-0.316644	-0.046252
C175	C	-0.323622	-1.127846	0.088583
C176	C	-0.270394	-1.163261	0.015406
C177	C	-0.251309	-1.255405	0.019652
C178	C	-0.285452	-1.312134	0.097075
C179	C	-0.338683	-1.276720	0.170257
C180	C	-0.357768	-1.184576	0.166011
H181	H	-0.245116	-1.121266	-0.041912
H182	H	-0.211904	-1.281620	-0.034522
H183	H	-0.271324	-1.380344	0.100218
H184	H	-0.363960	-1.318715	0.227575
H185	H	-0.397173	-1.158361	0.220186
H186	H	-0.314320	-1.004325	0.147042
H187	H	0.197002	-1.092297	0.422498
H188	H	0.008392	-0.909219	0.577258
C189	C	0.168047	-0.832520	0.414662
C190	C	0.155482	-0.761824	0.481046
C191	C	0.140152	-0.674085	0.446979
C192	C	0.137385	-0.657042	0.346528
C193	C	0.149950	-0.727739	0.280138
C194	C	0.165281	-0.815479	0.314205
H195	H	0.157530	-0.774439	0.555412
H196	H	0.130850	-0.621750	0.496126
H197	H	0.126036	-0.592092	0.321310
H198	H	0.147903	-0.715125	0.205773
H199	H	0.174582	-0.867814	0.265058
H200	H	-0.297200	-0.861974	0.060568
C201	C	0.007761	-0.882720	0.415470
C202	C	0.001177	-0.865775	0.315283
C203	C	-0.018383	-0.778958	0.282333
C204	C	-0.031360	-0.709087	0.349570
C205	C	-0.024776	-0.726031	0.449764
C206	C	-0.005215	-0.812847	0.482714
H207	H	0.010783	-0.917499	0.265504
H208	H	-0.023257	-0.766416	0.208162
H209	H	-0.045839	-0.644821	0.325178
H210	H	-0.034382	-0.674306	0.499542
H211	H	-0.000342	-0.825390	0.556884
H212	H	-0.327400	-1.103014	-0.089603
C213	C	0.114417	-0.410446	-0.169355
C214	C	0.081222	-0.478601	-0.236774
C215	C	0.036725	-0.453885	-0.321864
C216	C	0.025423	-0.361012	-0.339536
C217	C	0.058619	-0.292851	-0.272115
C218	C	0.103116	-0.317568	-0.187025
H219	H	0.089588	-0.547356	-0.223694
H220	H	0.012151	-0.504343	-0.371773
H221	H	-0.007516	-0.342716	-0.402525
H222	H	0.050254	-0.224096	-0.285195
H223	H	0.127690	-0.267110	-0.137116
H224	H	-0.471468	-1.102831	-0.083968
H225	H	-0.460250	-1.005411	-0.147274
H226	H	0.130885	-0.414244	0.147414
