data_functionalizedCrystal
_audit_creation_method	'MofGen! by Chris Wilmer'
_symmetry_space_group_name_H-M	'P1'
_symmetry_Int_Tables_number	1
_symmetry_cell_setting	triclinic
loop_
_symmetry_equiv_pos_as_xyz
  x,y,z
_cell_length_a	17.917603
_cell_length_b	14.395555
_cell_length_c	14.395555
_cell_angle_alpha	90.002623
_cell_angle_beta	57.013199
_cell_angle_gamma	63.034021
loop_
_atom_site_label
_atom_site_type_symbol
_atom_site_fract_x
_atom_site_fract_y
_atom_site_fract_z
Zr1	Zr	0.818588	0.941281	-0.168224
O2	O	0.974615	0.801789	-0.325394
O3	O	0.662562	0.977914	-0.113915
O4	O	0.818581	0.986753	-0.316545
O5	O	0.818601	0.792950	0.030104
O6	O	0.818576	1.139627	-0.316537
O7	O	0.818595	0.792950	-0.122763
O8	O	0.539486	1.123816	0.045932
O9	O	1.097691	0.808760	-0.332366
O10	O	0.726734	1.115030	-0.098150
O11	O	0.726742	1.000941	0.015926
O12	O	0.910435	1.011348	-0.222645
O13	O	0.910443	0.897259	-0.108569
Zr14	Zr	0.818588	1.185096	0.075594
Zr15	Zr	0.818579	1.185097	-0.168211
Zr16	Zr	0.818597	0.941280	0.075581
Zr17	Zr	1.014881	0.952399	-0.179343
Zr18	Zr	0.622296	1.173977	0.086713
O19	O	0.974615	1.148462	0.021285
O20	O	0.974602	1.148464	-0.325375
O21	O	0.974627	0.801787	0.021265
O22	O	0.662562	1.324587	0.232764
O23	O	0.662550	1.324589	-0.113895
O24	O	0.662575	0.977912	0.232745
O25	O	0.818576	1.333427	-0.122733
O26	O	0.818595	1.139624	0.223915
O27	O	0.818601	0.986750	0.223907
O28	O	0.818581	1.333426	0.030133
O29	O	1.097684	1.002561	-0.332355
O30	O	0.539493	1.123815	0.239725
O31	O	0.539486	1.317616	0.239736
O32	O	0.539479	1.317617	0.045943
O33	O	1.097698	0.808759	-0.138573
O34	O	1.097691	1.002560	-0.138562
O35	O	0.726742	1.115029	0.130015
O36	O	0.726734	1.229117	0.015939
O37	O	0.910435	1.125435	-0.108556
O38	O	0.910443	1.011346	0.005520
C39	C	0.573057	1.049281	-0.032407
C40	C	0.489725	1.044561	-0.027686
C41	C	0.337156	1.035937	-0.019067
C42	C	0.300015	1.090436	-0.073561
C43	C	0.215121	1.085638	-0.068764
C44	C	0.422059	1.040734	-0.023861
C45	C	0.818599	0.758212	-0.046332
C46	C	0.818603	0.654705	-0.046338
C47	C	0.918765	0.537584	-0.114208
C48	C	0.868691	0.503913	-0.156446
C49	C	0.868673	0.503953	-0.004108
C50	C	0.768529	0.622397	-0.088638
C51	C	0.768525	0.622435	0.063759
C52	C	0.718378	0.588833	0.021552
C53	C	1.064120	1.077095	-0.060223
C54	C	1.147451	1.081815	-0.064943
C55	C	0.818577	1.063190	-0.351278
C56	C	0.818573	1.063190	-0.454780
C57	C	0.818577	1.368165	-0.046298
C58	C	0.818573	1.471671	-0.046292
C59	C	0.718412	1.119728	-0.447488
C60	C	0.768486	1.015288	-0.543352
C61	C	0.768504	1.167604	-0.543344
C62	C	0.868648	0.958687	-0.549280
C63	C	0.868652	1.111080	-0.549257
C64	C	0.918799	1.006580	-0.645143
C65	C	0.818599	1.063187	0.258648
C66	C	0.818603	1.063186	0.362150
C67	C	0.573046	1.354258	-0.032390
C68	C	0.489711	1.453044	-0.027664
C69	C	0.573068	1.049279	0.272556
C70	C	0.489740	1.044559	0.380778
C71	C	0.573057	1.354256	0.272573
C72	C	0.489725	1.453042	0.380801
C73	C	1.064120	0.772120	-0.365203
C74	C	1.147451	0.673335	-0.473431
C75	C	1.064131	0.772119	-0.060240
C76	C	1.147466	0.673332	-0.064966
C77	C	1.064109	1.077097	-0.365186
C78	C	1.147436	1.081818	-0.473408
C79	C	0.450576	1.439883	-0.085008
C80	C	0.372284	1.532694	-0.080591
C81	C	0.333124	1.638666	-0.018822
C82	C	0.372267	1.651825	0.038524
C83	C	0.450562	1.559015	0.034099
C84	C	0.450609	1.101894	0.491164
C85	C	0.372325	1.097455	0.592859
C86	C	0.333168	1.035686	0.584165
C87	C	0.372307	0.978344	0.473768
C88	C	0.450595	0.982777	0.372075
C89	C	0.450588	1.558996	0.372079
C90	C	0.372300	1.651826	0.473760
C91	C	0.333146	1.638699	0.584163
C92	C	0.372292	1.532733	0.592882
C93	C	0.450583	1.439906	0.491201
C94	C	1.186598	0.567381	-0.464709
C95	C	1.264910	0.474553	-0.566392
C96	C	1.304068	0.487680	-0.676795
C97	C	1.264918	0.593645	-0.685514
C98	C	1.186613	0.686471	-0.583832
C99	C	1.186609	0.686494	-0.007632
C100	C	1.264922	0.593684	-0.012078
C101	C	1.304085	0.487712	-0.073850
C102	C	1.264939	0.474553	-0.131191
C103	C	1.186633	0.567362	-0.126752
C104	C	1.186568	1.143597	-0.464677
C105	C	1.264853	1.148054	-0.566353
C106	C	1.304009	1.090725	-0.676759
C107	C	1.264870	1.028943	-0.685488
C108	C	1.186582	1.024493	-0.583813
H109	H	1.003461	0.516938	-0.171683
H110	H	0.269421	1.032086	0.666979
H111	H	0.482459	1.353604	-0.135321
F112	F	0.330623	0.912609	0.464534
H113	H	0.331977	1.140697	-0.123817
F114	F	1.387408	0.388875	-0.785005
H115	H	1.154720	0.556671	-0.374823
H116	H	1.154699	1.190282	-0.374788
H117	H	0.340424	1.521958	-0.127289
F118	F	0.607711	1.182113	-0.336965
H119	H	0.340401	1.522061	0.682785
H120	H	0.482481	1.152194	0.498264
H121	H	0.726153	1.255912	-0.541839
H122	H	1.154740	0.772741	-0.590947
H123	H	1.154729	0.974181	-0.590938
F124	F	0.295380	0.970250	0.046622
F125	F	0.249793	1.737434	-0.014122
F126	F	0.924018	0.437093	-0.278117
F127	F	1.306602	0.607599	-0.803022
F128	F	1.306627	0.361761	-0.196927
F129	F	0.713255	0.688994	-0.135463
F130	F	0.330576	1.764617	0.104262
F131	F	0.492199	1.573039	0.095144
F132	F	1.144976	0.553337	-0.187772
F133	F	1.306498	1.213806	-0.557039
F134	F	1.387334	1.095469	-0.784962
H135	H	0.910945	1.151616	-0.550676
H136	H	1.154729	0.772773	0.042677
H137	H	0.910952	0.870338	-0.550860
H138	H	1.296782	0.604420	0.034621
F139	F	1.306561	0.967926	-0.803001
F140	F	0.330682	1.158494	0.710340
H141	H	0.633613	0.609689	0.078957
H142	H	0.726232	0.673553	0.156826
F143	F	0.713161	0.962333	-0.541440
F144	F	0.924031	0.437153	0.042552
F145	F	1.029591	0.943995	-0.755504
H146	H	0.482446	0.936091	0.282198
H147	H	0.482456	1.569705	0.282193
H148	H	0.269396	1.714293	0.666948
F149	F	0.330650	1.764591	0.464456
H150	H	0.482439	1.353637	0.498319
F151	F	1.306560	0.361787	-0.557088
H152	H	1.367847	0.412150	-0.077455
