data_functionalizedCrystal
_audit_creation_method	'MofGen! by Chris Wilmer'
_symmetry_space_group_name_H-M	'P1'
_symmetry_Int_Tables_number	1
_symmetry_cell_setting	triclinic
loop_
_symmetry_equiv_pos_as_xyz
  x,y,z
_cell_length_a	21.395364
_cell_length_b	18.215405
_cell_length_c	21.395355
_cell_angle_alpha	89.983159
_cell_angle_beta	89.975448
_cell_angle_gamma	90.037683
loop_
_atom_site_label
_atom_site_type_symbol
_atom_site_fract_x
_atom_site_fract_y
_atom_site_fract_z
Zn1	Zn	0.957894	-0.292776	-0.354269
Zn2	Zn	0.957811	-0.415824	-0.249494
Zn3	Zn	0.853109	-0.292808	-0.249506
Zn4	Zn	0.853093	-0.415837	-0.354235
O5	O	0.905477	-0.354311	-0.301876
O6	O	1.045561	-0.309080	-0.340380
O7	O	0.943894	-0.399514	-0.161818
O8	O	0.867050	-0.189820	-0.263422
O9	O	1.045500	-0.399483	-0.263403
O10	O	0.944035	-0.189796	-0.340391
O11	O	0.866970	-0.309135	-0.161826
O12	O	0.765429	-0.309147	-0.263388
O13	O	0.867023	-0.399505	-0.441917
O14	O	0.765417	-0.399536	-0.340332
O15	O	0.944020	-0.309092	-0.441942
O16	O	0.943878	-0.518810	-0.263369
O17	O	0.866942	-0.518820	-0.340322
C18	C	0.742689	-0.354347	-0.301858
C19	C	0.673048	-0.354380	-0.301866
C20	C	0.640389	-0.307384	-0.342010
C21	C	0.574953	-0.307365	-0.342012
C22	C	0.542179	-0.354354	-0.301877
C23	C	0.574846	-0.401353	-0.261725
C24	C	0.640280	-0.401366	-0.261719
C25	C	0.438463	-0.420629	-0.296841
C26	C	0.373030	-0.420618	-0.296851
C27	C	0.340359	-0.354314	-0.301891
C28	C	0.373128	-0.288020	-0.306934
C29	C	0.438563	-0.288033	-0.306928
C30	C	0.471227	-0.354345	-0.301878
C31	C	0.236747	-0.307293	-0.342040
C32	C	0.171311	-0.307272	-0.342038
C33	C	0.171205	-0.401267	-0.261754
C34	C	0.236640	-0.401281	-0.261753
C35	C	0.269407	-0.354295	-0.301899
C36	C	0.905417	-0.545518	-0.301854
C37	C	0.905448	-0.627317	-0.301866
C38	C	0.945553	-0.815437	-0.341998
C39	C	0.945576	-0.892296	-0.342010
C40	C	0.865477	-0.892434	-0.261792
C41	C	0.865452	-0.815576	-0.261784
C42	C	0.905493	-0.777080	-0.301886
C43	C	0.905542	-0.930796	-0.301906
C44	C	0.905566	-1.014130	-0.301918
C45	C	0.905468	-0.693741	-0.301875
C46	C	1.068900	-0.354276	-0.301894
C47	C	1.138541	-0.354261	-0.301902
C48	C	0.905529	-0.354297	-0.465299
C49	C	0.905551	-0.354290	-0.534940
C50	C	0.905554	-0.162358	-0.301911
C51	C	0.905587	-0.080560	-0.301926
C52	C	0.945641	-0.307210	-0.567668
C53	C	0.945641	-0.307179	-0.633103
C54	C	0.905556	-0.354240	-0.665809
C55	C	0.865457	-0.401323	-0.633074
C56	C	0.865455	-0.401348	-0.567639
C57	C	0.900588	-0.420506	-0.769476
C58	C	0.900594	-0.420482	-0.834909
C59	C	0.905560	-0.354162	-0.867630
C60	C	0.910531	-0.287865	-0.834909
C61	C	0.910529	-0.287890	-0.769475
C62	C	0.905554	-0.354218	-0.736761
C63	C	0.945651	-0.307044	-0.971309
C64	C	0.945646	-0.307011	-1.036746
C65	C	0.865466	-0.401162	-1.036715
C66	C	0.865468	-0.401189	-0.971280
C67	C	0.905564	-0.354131	-0.938581
C68	C	0.905461	-0.354273	-0.139088
C69	C	0.905560	-0.354072	-0.069447
H70	H	0.263231	-0.439553	-0.229066
H71	H	0.978157	-0.784095	-0.374652
H72	H	0.832822	-0.439473	-1.063344
C73	C	0.915995	-0.214968	-0.733482
C74	C	0.921460	-0.142014	-0.769464
C75	C	0.926925	-0.069091	-0.733471
C76	C	0.926926	-0.069123	-0.661496
C77	C	0.921460	-0.142079	-0.625510
C78	C	0.915994	-0.215002	-0.661503
H79	H	0.921460	-0.141988	-0.822748
H80	H	0.930971	-0.015084	-0.760111
H81	H	0.930971	-0.015141	-0.634852
H82	H	0.921460	-0.142105	-0.572226
H83	H	0.911949	-0.269009	-0.634864
C84	C	0.989646	-0.934490	-0.386130
C85	C	0.962490	-0.987334	-0.435304
C86	C	1.006561	-1.029528	-0.479427
C87	C	1.077788	-1.018878	-0.474375
C88	C	1.104947	-0.966032	-0.425199
C89	C	1.060876	-0.923838	-0.381077
H90	H	0.909761	-0.995219	-0.439045
H91	H	0.986456	-1.068648	-0.515830
H92	H	1.110412	-1.050113	-0.507038
H93	H	1.157676	-0.958146	-0.421458
H94	H	1.080981	-0.884718	-0.344673
H95	H	0.896377	-0.474497	-0.742840
H96	H	0.832827	-0.784344	-0.229120
C97	C	0.821438	-0.934781	-0.217678
C98	C	0.821466	-1.019321	-0.217681
C99	C	0.777427	-1.061667	-0.173564
C100	C	0.733359	-1.019473	-0.129443
C101	C	0.733330	-0.934928	-0.129437
C102	C	0.777369	-0.892582	-0.173555
H103	H	0.854088	-1.050560	-0.250344
H104	H	0.777449	-1.124253	-0.173568
H105	H	0.700759	-1.050820	-0.096784
H106	H	0.700707	-0.903689	-0.096774
H107	H	0.777347	-0.829997	-0.173550
C108	C	0.676210	-0.453069	-0.217562
C109	C	0.721166	-0.510903	-0.244623
C110	C	0.757097	-0.562607	-0.200466
C111	C	0.748072	-0.556477	-0.129249
C112	C	0.703114	-0.498641	-0.102184
C113	C	0.667183	-0.446936	-0.146340
H114	H	0.727848	-0.515443	-0.297346
H115	H	0.790378	-0.605421	-0.220502
H116	H	0.774671	-0.594751	-0.096561
H117	H	0.696432	-0.494101	-0.049461
H118	H	0.633902	-0.404122	-0.126305
C119	C	0.989739	-0.255437	-0.531702
C120	C	0.962610	-0.197679	-0.486709
C121	C	1.006705	-0.145903	-0.450743
C122	C	1.077931	-0.151885	-0.459769
C123	C	1.105064	-0.209646	-0.504763
C124	C	1.060968	-0.261422	-0.540730
H125	H	0.909881	-0.193249	-0.480026
H126	H	0.986619	-0.103145	-0.417435
H127	H	1.110573	-0.113557	-0.433144
H128	H	1.157792	-0.214076	-0.511447
H129	H	1.081054	-0.304180	-0.574038
H130	H	0.465241	-0.234054	-0.311032
H131	H	0.263428	-0.269029	-0.374725
C132	C	0.989748	-0.255394	-0.669113
C133	C	1.033852	-0.203635	-0.633146
C134	C	1.077961	-0.151853	-0.669154
C135	C	1.077966	-0.151830	-0.741129
C136	C	1.033860	-0.203591	-0.777100
C137	C	0.989751	-0.255373	-0.741092
H138	H	1.033851	-0.203650	-0.579862
H139	H	1.110612	-0.113536	-0.642526
H140	H	1.110618	-0.113498	-0.767785
H141	H	1.033861	-0.203576	-0.830384
H142	H	0.957101	-0.293690	-0.767721
H143	H	0.914575	-0.233861	-0.861549
C144	C	0.474398	-0.493570	-0.291301
C145	C	0.546373	-0.493588	-0.291296
C146	C	0.582307	-0.566525	-0.285757
C147	C	0.546266	-0.639445	-0.280223
C148	C	0.474287	-0.639430	-0.280228
C149	C	0.438353	-0.566492	-0.285767
H150	H	0.573056	-0.439606	-0.295393
H151	H	0.635591	-0.566536	-0.285754
H152	H	0.572866	-0.693438	-0.276123
H153	H	0.447603	-0.693412	-0.276131
H154	H	0.385069	-0.566481	-0.285770
C155	C	0.989748	-0.255276	-0.935334
C156	C	0.984665	-0.171611	-0.944320
C157	C	1.028761	-0.119843	-0.908346
C158	C	1.077940	-0.151740	-0.863385
C159	C	1.083025	-0.235409	-0.854396
C160	C	1.038929	-0.287177	-0.890371
H161	H	0.948258	-0.147996	-0.977605
H162	H	1.024997	-0.057906	-0.915000
H163	H	1.110583	-0.113418	-0.836755
H164	H	1.119432	-0.259024	-0.821112
H165	H	1.042693	-0.349114	-0.883717
H166	H	0.548357	-0.269092	-0.374701
H167	H	0.978292	-0.268669	-1.063392
H168	H	0.346354	-0.474598	-0.292748
H169	H	0.832826	-0.439531	-0.944633
C170	C	0.895057	-0.493465	-0.870801
C171	C	0.947403	-0.517398	-0.915803
C172	C	0.941832	-0.590411	-0.951647
C173	C	0.883915	-0.639491	-0.942488
C174	C	0.831565	-0.615559	-0.897483
C175	C	0.837136	-0.542546	-0.861640
H176	H	0.990280	-0.481065	-0.922585
H177	H	0.980585	-0.608127	-0.984962
H178	H	0.879791	-0.693540	-0.969021
H179	H	0.788688	-0.651892	-0.890702
H180	H	0.798383	-0.524830	-0.828325
C181	C	0.821367	-0.453095	-0.669049
C182	C	0.826448	-0.536758	-0.660053
C183	C	0.782355	-0.588530	-0.696028
C184	C	0.733183	-0.556639	-0.740999
C185	C	0.728101	-0.472971	-0.749996
C186	C	0.772193	-0.421199	-0.714021
H187	H	0.862850	-0.560370	-0.626762
H188	H	0.786118	-0.650467	-0.689368
H189	H	0.700543	-0.594964	-0.767630
H190	H	0.691699	-0.449359	-0.783288
H191	H	0.768431	-0.359262	-0.720682
C192	C	0.821352	-0.453141	-0.531637
C193	C	0.772174	-0.421278	-0.486633
C194	C	0.728071	-0.473071	-0.450630
C195	C	0.733146	-0.556729	-0.459632
C196	C	0.782326	-0.588597	-0.504639
C197	C	0.826429	-0.536803	-0.540641
H198	H	0.768416	-0.359345	-0.479967
H199	H	0.691665	-0.449480	-0.417313
H200	H	0.700498	-0.595070	-0.432981
H201	H	0.786085	-0.650529	-0.511304
H202	H	0.862836	-0.560394	-0.573958
C203	C	0.676432	-0.255694	-0.386163
C204	C	0.640502	-0.203993	-0.430318
C205	C	0.676547	-0.152301	-0.474470
C206	C	0.748522	-0.152308	-0.474467
C207	C	0.784456	-0.204011	-0.430310
C208	C	0.748411	-0.255703	-0.386158
H209	H	0.587218	-0.203986	-0.430323
H210	H	0.649945	-0.114027	-0.507158
H211	H	0.775204	-0.114042	-0.507150
H212	H	0.837740	-0.204018	-0.430305
H213	H	0.775012	-0.293977	-0.353470
H214	H	0.346529	-0.234029	-0.311038
H215	H	0.144721	-0.268998	-0.374727
H216	H	0.144521	-0.439527	-0.229075
H217	H	0.548158	-0.439612	-0.229046
