data_functionalizedCrystal
_audit_creation_method	'MofGen! by Chris Wilmer'
_symmetry_space_group_name_H-M	'P1'
_symmetry_Int_Tables_number	1
_symmetry_cell_setting	triclinic
loop_
_symmetry_equiv_pos_as_xyz
  x,y,z
_cell_length_a	14.560438
_cell_length_b	14.446369
_cell_length_c	14.560438
_cell_angle_alpha	90.001510
_cell_angle_beta	60.000905
_cell_angle_gamma	59.998281
loop_
_atom_site_label
_atom_site_type_symbol
_atom_site_fract_x
_atom_site_fract_y
_atom_site_fract_z
Zr1	Zr	1.005228	0.891770	-0.120475
O2	O	1.196839	0.743957	-0.267125
O3	O	0.813624	0.937082	-0.075521
O4	O	1.005228	0.937077	-0.267122
O5	O	1.005233	0.743965	0.075616
O6	O	1.005220	1.089414	-0.267116
O7	O	1.005236	0.743961	-0.075524
O8	O	0.662476	1.089423	0.075623
O9	O	1.347977	0.743957	-0.267122
O10	O	0.892425	1.070095	-0.056342
O11	O	0.892429	0.956410	0.056449
O12	O	1.118018	0.956405	-0.169136
O13	O	1.118022	0.842720	-0.056346
Zr14	Zr	1.005211	1.134736	0.120586
Zr15	Zr	1.005215	1.134730	-0.120466
Zr16	Zr	1.005224	0.891776	0.120577
Zr17	Zr	1.246276	0.891770	-0.120470
Zr18	Zr	0.764163	1.134735	0.120582
O19	O	1.196815	1.089424	0.075633
O20	O	1.196821	1.089415	-0.267112
O21	O	1.196834	0.743966	0.075620
O22	O	0.813600	1.282549	0.267237
O23	O	0.813606	1.282540	-0.075508
O24	O	0.813619	0.937091	0.267224
O25	O	1.005206	1.282540	-0.075505
O26	O	1.005211	1.089428	0.267233
O27	O	1.005219	0.937091	0.267228
O28	O	1.005204	1.282544	0.075636
O29	O	1.347967	0.937078	-0.267115
O30	O	0.662472	1.089428	0.267227
O31	O	0.662462	1.282548	0.267234
O32	O	0.662465	1.282543	0.075630
O33	O	1.347974	0.743962	-0.075518
O34	O	1.347964	0.937083	-0.075511
O35	O	0.892421	1.070101	0.169248
O36	O	0.892417	1.183785	0.056457
O37	O	1.118010	1.070095	-0.056337
O38	O	1.118014	0.956411	0.056453
C39	C	0.703706	1.013252	0.000050
C40	C	0.601375	1.013252	0.000048
C41	C	0.553296	1.072592	-0.058827
C42	C	0.457137	1.072596	-0.058817
C43	C	0.457147	0.953912	0.058946
C44	C	0.553298	0.953915	0.058942
C45	C	1.005236	0.709347	0.000045
C46	C	1.005242	0.606204	0.000041
C47	C	1.147508	0.387833	-0.070740
C48	C	1.147605	0.495065	-0.071138
C49	C	0.934571	0.602879	-0.051851
C50	C	0.935474	0.495110	-0.052370
C51	C	0.932541	0.496478	0.122804
C52	C	0.935222	0.602447	0.122611
C53	C	1.306733	1.013253	0.000062
C54	C	1.409064	1.013254	0.000063
C55	C	1.005225	1.013245	-0.301464
C56	C	1.005226	1.013242	-0.403797
C57	C	1.005203	1.317159	0.000067
C58	C	1.005197	1.420302	0.000071
C59	C	1.122982	0.953899	-0.510750
C60	C	1.122975	0.953912	-0.606899
C61	C	0.887449	1.072614	-0.489127
C62	C	0.887456	1.072607	-0.392980
C63	C	1.005215	1.013261	0.301575
C64	C	1.005213	1.013263	0.403908
C65	C	0.703689	1.317158	0.000061
C66	C	0.601353	1.420301	0.000063
C67	C	0.703701	1.013260	0.301570
C68	C	0.601368	1.013262	0.403901
C69	C	0.703684	1.317166	0.301581
C70	C	0.601346	1.420311	0.403916
C71	C	1.306755	0.709340	-0.301469
C72	C	1.409093	0.606194	-0.403804
C73	C	1.306750	0.709347	0.000050
C74	C	1.409087	0.606205	0.000049
C75	C	1.306739	1.013246	-0.301458
C76	C	1.409071	1.013243	-0.403789
C77	C	0.553276	1.409415	-0.058813
C78	C	0.457128	1.506333	-0.058815
C79	C	0.457137	1.625018	0.058944
C80	C	0.553290	1.528102	0.058939
C81	C	0.553286	1.072608	0.510856
C82	C	0.457142	1.072597	0.607003
C83	C	0.457168	0.953894	0.489226
C84	C	0.553316	0.953899	0.393081
C85	C	0.553263	1.528111	0.393120
C86	C	0.457113	1.625024	0.489278
C87	C	0.457135	1.506322	0.607024
C88	C	0.553289	1.409412	0.510867
H89	H	0.417992	0.905600	0.106894
H90	H	0.592390	1.536992	0.306039
H91	H	0.791564	1.120945	-0.480334
H92	H	0.791560	1.120937	-0.305887
H93	H	0.418031	0.905565	0.480430
H94	H	1.218878	0.905560	-0.519564
H95	H	1.218864	0.905590	-0.693983
F96	F	0.604472	1.294673	0.522360
H97	H	0.829896	0.681148	-0.002759
F98	F	0.604430	1.294688	-0.121479
F99	F	0.405980	1.494734	0.720854
F100	F	0.604457	1.135748	-0.121503
H101	H	0.417993	1.120918	-0.106757
F102	F	0.405968	1.494740	-0.121482
H103	H	0.983659	0.605012	-0.141309
F104	F	0.604462	0.890761	0.121616
F105	F	0.604425	1.135785	0.522375
H106	H	0.417991	1.712799	0.106881
H107	H	0.978074	0.446455	0.166153
F108	F	0.604464	1.539691	0.121602
H109	H	0.417968	1.712797	0.480481
F110	F	0.405977	1.135757	0.720832
H111	H	1.203334	0.493306	-0.036601
F112	F	1.220516	0.317306	-0.025478
H113	H	1.203091	0.332846	-0.160730
H114	H	0.592469	0.905567	0.305987
F115	F	1.002557	0.601793	0.173292
H116	H	1.203394	0.492617	-0.161674
H117	H	0.827708	0.523918	0.175813
F118	F	1.001131	0.429296	-0.170419
H119	H	0.831360	0.681607	0.179809
F120	F	0.799005	0.529945	0.010672
