data_functionalizedCrystal
_audit_creation_method	'MofGen! by Chris Wilmer'
_symmetry_space_group_name_H-M	'P1'
_symmetry_Int_Tables_number	1
_symmetry_cell_setting	triclinic
loop_
_symmetry_equiv_pos_as_xyz
  x,y,z
_cell_length_a	16.959455
_cell_length_b	16.959453
_cell_length_c	12.759393
_cell_angle_alpha	89.966032
_cell_angle_beta	89.972329
_cell_angle_gamma	90.017008
loop_
_atom_site_label
_atom_site_type_symbol
_atom_site_fract_x
_atom_site_fract_y
_atom_site_fract_z
Zn1	Zn	1.208441	-0.314706	-0.594183
Zn2	Zn	1.208347	-0.446905	-0.418493
Zn3	Zn	1.076253	-0.314738	-0.418498
Zn4	Zn	1.076235	-0.446840	-0.594109
O5	O	1.142319	-0.380797	-0.506321
O6	O	1.319040	-0.332257	-0.570907
O7	O	1.190793	-0.429414	-0.271472
O8	O	1.093835	-0.204123	-0.441836
O9	O	1.318970	-0.429383	-0.441827
O10	O	1.190953	-0.204099	-0.570911
O11	O	1.093744	-0.332311	-0.271476
O12	O	0.965640	-0.332247	-0.441764
O13	O	1.093804	-0.429271	-0.741140
O14	O	0.965626	-0.429302	-0.570785
O15	O	1.190935	-0.332193	-0.741195
O16	O	1.190775	-0.557507	-0.441756
O17	O	1.093713	-0.557459	-0.570781
C18	C	0.936953	-0.380771	-0.506268
C19	C	0.849096	-0.380779	-0.506270
C20	C	0.477574	-0.431321	-0.439075
C21	C	0.477667	-0.330339	-0.573695
C22	C	0.560213	-0.330326	-0.573669
C23	C	0.601443	-0.380812	-0.506347
C24	C	0.560127	-0.431311	-0.439050
C25	C	0.601535	-0.279834	-0.640972
C26	C	0.684086	-0.279820	-0.640950
C27	C	0.725318	-0.330302	-0.573622
C28	C	0.683997	-0.380802	-0.506321
C29	C	0.725227	-0.431288	-0.438999
C30	C	0.683907	-0.481785	-0.371692
C31	C	0.601359	-0.481793	-0.371721
C32	C	0.807866	-0.330294	-0.573593
C33	C	0.807780	-0.431278	-0.438973
C34	C	1.142253	-0.586163	-0.506282
C35	C	1.142297	-0.674020	-0.506301
C36	C	1.192953	-1.045425	-0.573657
C37	C	1.091906	-1.045566	-0.439141
C38	C	1.091876	-0.963020	-0.439116
C39	C	1.142385	-0.921673	-0.506365
C40	C	1.192924	-0.962871	-0.573637
C41	C	1.041333	-0.921816	-0.371853
C42	C	1.041301	-0.839265	-0.371827
C43	C	1.091815	-0.797916	-0.439071
C44	C	1.142356	-0.839119	-0.506345
C45	C	1.192865	-0.797772	-0.573594
C46	C	1.243411	-0.838974	-0.640863
C47	C	1.243437	-0.921523	-0.640881
C48	C	1.091788	-0.715367	-0.439053
C49	C	1.192836	-0.715219	-0.573574
C50	C	1.348487	-0.380824	-0.506375
C51	C	1.436344	-0.380835	-0.506398
C52	C	1.142378	-0.380721	-0.780354
C53	C	1.142403	-0.380689	-0.897131
C54	C	1.142407	-0.174629	-0.506383
C55	C	1.142444	-0.086772	-0.506409
C56	C	1.192984	-0.330132	-0.952023
C57	C	1.192997	-0.330098	-1.061747
C58	C	1.091848	-0.431184	-1.061678
C59	C	1.091831	-0.431214	-0.951956
C60	C	1.142305	-0.380816	-0.233354
C61	C	1.142433	-0.380625	-0.116577
H62	H	0.443928	-0.472432	-0.384273
H63	H	1.234108	-1.078975	-0.628424
C64	C	1.298245	-0.966163	-0.714100
C65	C	1.280983	-0.946014	-0.818015
C66	C	1.331453	-0.987120	-0.885498
H67	H	1.291065	-1.021258	-0.704623
H68	H	1.351376	-0.952608	-0.698874
H69	H	1.227866	-0.959576	-0.833235
H70	H	1.288168	-0.890927	-0.827525
H71	H	1.384583	-0.973564	-0.870272
H72	H	1.324269	-1.042213	-0.876011
H73	H	1.319753	-0.973450	-0.956010
H74	H	0.444093	-0.289241	-0.628511
H75	H	1.050675	-0.472321	-1.106329
C76	C	1.247774	-0.670289	-0.646416
C77	C	1.298455	-0.622910	-0.586987
C78	C	1.349080	-0.581519	-0.654052
H79	H	1.217599	-0.638018	-0.692169
H80	H	1.277924	-0.706627	-0.686459
H81	H	1.268308	-0.586576	-0.546962
H82	H	1.328646	-0.655161	-0.541237
H83	H	1.379230	-0.617857	-0.694095
H84	H	1.318899	-0.549253	-0.699802
H85	H	1.383478	-0.549373	-0.613740
H86	H	0.567959	-0.238736	-0.695789
C87	C	1.037011	-0.486241	-0.892405
C88	C	1.054204	-0.564445	-0.919051
C89	C	1.003729	-0.615152	-0.864202
H90	H	0.983881	-0.474765	-0.910323
H91	H	1.044251	-0.479072	-0.819197
H92	H	1.046958	-0.571610	-0.992242
H93	H	1.107325	-0.575944	-0.901129
H94	H	1.010968	-0.607984	-0.790994
H95	H	0.950602	-0.603670	-0.882125
H96	H	1.015392	-0.668219	-0.882266
C97	C	0.852399	-0.486181	-0.365839
C98	C	0.798543	-0.530415	-0.306925
C99	C	0.839616	-0.581007	-0.239555
H100	H	0.884589	-0.455990	-0.320033
H101	H	0.884596	-0.520698	-0.405916
H102	H	0.766359	-0.495903	-0.266851
H103	H	0.766352	-0.560623	-0.352704
H104	H	0.871813	-0.615524	-0.279632
H105	H	0.871804	-0.550810	-0.193755
H106	H	0.803082	-0.611031	-0.199581
H107	H	1.234161	-0.288990	-0.907388
C108	C	0.729086	-0.225079	-0.713976
C109	C	0.810203	-0.235884	-0.699563
C110	C	0.851683	-0.185477	-0.766823
H111	H	0.715650	-0.171927	-0.698797
H112	H	0.715641	-0.236720	-0.784567
H113	H	0.823643	-0.224238	-0.628988
H114	H	0.823662	-0.289026	-0.714750
H115	H	0.838238	-0.197118	-0.837414
H116	H	0.838241	-0.132328	-0.751638
H117	H	0.906725	-0.192807	-0.757060
C118	C	0.986460	-0.794392	-0.298902
C119	C	0.997232	-0.713249	-0.313289
C120	C	0.946721	-0.671887	-0.246138
H121	H	0.998011	-0.807863	-0.228289
H122	H	0.933332	-0.807899	-0.314221
H123	H	1.050347	-0.699749	-0.297964
H124	H	0.985675	-0.699756	-0.383889
H125	H	0.893593	-0.685394	-0.261456
H126	H	0.958276	-0.685364	-0.175529
H127	H	0.954017	-0.616828	-0.255897
C128	C	1.298118	-0.793975	-0.713937
C129	C	1.253311	-0.746564	-0.781184
C130	C	1.303678	-0.705089	-0.848502
H131	H	1.328245	-0.830239	-0.754105
H132	H	1.332543	-0.761723	-0.673811
H133	H	1.218899	-0.778813	-0.821306
H134	H	1.223186	-0.710286	-0.741045
H135	H	1.338104	-0.672837	-0.808376
H136	H	1.333803	-0.741358	-0.888662
H137	H	1.273285	-0.672910	-0.894130
C138	C	1.037157	-1.090597	-0.366169
C139	C	1.048013	-1.171708	-0.380568
C140	C	0.997600	-1.213218	-0.313350
H141	H	0.984004	-1.077190	-0.381397
H142	H	1.048761	-1.077149	-0.295569
H143	H	1.036403	-1.185151	-0.451153
H144	H	1.101155	-1.185139	-0.365333
H145	H	1.009204	-1.199770	-0.242749
H146	H	0.944450	-1.199805	-0.328583
H147	H	1.004964	-1.268256	-0.323103
C148	C	0.986367	-0.966669	-0.298978
C149	C	0.908141	-0.946653	-0.321764
C150	C	0.857484	-0.987969	-0.254659
H151	H	0.997850	-0.953209	-0.228360
H152	H	0.993577	-1.021739	-0.308635
H153	H	0.900934	-0.891595	-0.312098
H154	H	0.896633	-0.960114	-0.392369
H155	H	0.864694	-1.043039	-0.264316
H156	H	0.868974	-0.974506	-0.184045
H157	H	0.804402	-0.974400	-0.270117
H158	H	1.234183	-0.288929	-1.106435
H159	H	0.717488	-0.522894	-0.316884
H160	H	0.567709	-0.522905	-0.316924
H161	H	1.050631	-0.681824	-0.384287
H162	H	0.841505	-0.289181	-0.628395
