data_functionalizedCrystal
_audit_creation_method	'MofGen! by Chris Wilmer'
_symmetry_space_group_name_H-M	'P1'
_symmetry_Int_Tables_number	1
_symmetry_cell_setting	triclinic
loop_
_symmetry_equiv_pos_as_xyz
  x,y,z
_cell_length_a	23.532407
_cell_length_b	23.532407
_cell_length_c	22.610064
_cell_angle_alpha	90.008651
_cell_angle_beta	89.997005
_cell_angle_gamma	97.151322
loop_
_atom_site_label
_atom_site_type_symbol
_atom_site_fract_x
_atom_site_fract_y
_atom_site_fract_z
O1	O	0.069128	-0.755268	-0.049117
O2	O	0.402462	-0.421935	0.284217
O3	O	0.735795	-0.088601	0.617550
O4	O	0.079132	-0.589405	-0.049135
O5	O	0.412465	-0.256071	0.284198
O6	O	0.745798	0.077262	0.617532
O7	O	-0.008802	-0.677338	-0.049114
O8	O	0.324532	-0.344005	0.284219
O9	O	0.657865	-0.010671	0.617552
O10	O	0.157062	-0.667335	-0.049137
O11	O	0.490395	-0.334001	0.284196
O12	O	0.823728	-0.000668	0.617529
O13	O	-0.008792	-0.677313	0.049255
O14	O	0.324542	-0.343980	0.382588
O15	O	0.657875	-0.010647	0.715921
O16	O	0.079142	-0.589380	0.049234
O17	O	0.412475	-0.256047	0.382568
O18	O	0.745808	0.077287	0.715901
O19	O	0.069138	-0.755243	0.049252
O20	O	0.402472	-0.421910	0.382586
O21	O	0.735805	-0.088577	0.715919
Zn22	Zn	0.074142	-0.672308	0.064862
Zn23	Zn	0.407475	-0.338974	0.398195
Zn24	Zn	0.740808	-0.005641	0.731528
Zn25	Zn	0.074128	-0.672340	-0.064744
Zn26	Zn	0.407462	-0.339007	0.268589
Zn27	Zn	0.740795	-0.005674	0.601923
O28	O	0.157072	-0.667310	0.049232
O29	O	0.490405	-0.333977	0.382565
O30	O	0.823738	-0.000643	0.715899
C31	C	0.078882	-0.568176	0.000048
C32	C	0.412215	-0.234843	0.333381
C33	C	0.745549	0.098490	0.666714
C34	C	0.078116	-0.504959	0.000041
C35	C	0.411449	-0.171626	0.333374
C36	C	0.744783	0.161707	0.666708
N37	N	0.074150	-0.672290	0.153314
N38	N	0.407484	-0.338956	0.486647
N39	N	0.740817	-0.005623	0.819981
C40	C	-0.030013	-0.677071	0.000072
C41	C	0.303321	-0.343738	0.333405
C42	C	0.636654	-0.010404	0.666738
C43	C	-0.093230	-0.676305	0.000076
C44	C	0.240104	-0.342972	0.333409
C45	C	0.573437	-0.009638	0.666743
C46	C	-0.492333	-0.723539	0.000049
C47	C	-0.158999	-0.390205	0.333382
C48	C	0.174334	-0.056872	0.666716
C49	C	-0.551733	-0.722827	0.000044
C50	C	-0.218400	-0.389494	0.333378
C51	C	0.114934	-0.056160	0.666711
O52	O	-0.588478	-0.766613	0.000027
O53	O	-0.255144	-0.433280	0.333361
O54	O	0.078189	-0.099946	0.666694
N55	N	-0.574359	-0.670551	0.000039
N56	N	-0.241026	-0.337217	0.333372
N57	N	0.092307	-0.003884	0.666706
C58	C	-0.537582	-0.618983	0.000032
C59	C	-0.204248	-0.285649	0.333366
C60	C	0.129085	0.047684	0.666699
O61	O	-0.562281	-0.574452	0.000027
O62	O	-0.228948	-0.241119	0.333360
O63	O	0.104385	0.092215	0.666693
C64	C	-0.478182	-0.619695	0.000033
C65	C	-0.144849	-0.286361	0.333366
C66	C	0.188484	0.046972	0.666699
C67	C	-0.455560	-0.671974	0.000044
C68	C	-0.122227	-0.338641	0.333377
C69	C	0.211107	-0.005308	0.666711
C70	C	-0.469710	-0.775814	0.000060
C71	C	-0.136376	-0.442481	0.333393
C72	C	0.196957	-0.109147	0.666726
C73	C	-0.410313	-0.776525	0.000065
C74	C	-0.076980	-0.443192	0.333399
C75	C	0.256353	-0.109859	0.666732
C76	C	-0.373540	-0.724961	0.000060
C77	C	-0.040207	-0.391628	0.333394
C78	C	0.293126	-0.058294	0.666727
C79	C	-0.396164	-0.672685	0.000050
C80	C	-0.062830	-0.339352	0.333383
C81	C	0.270503	-0.006019	0.666716
C82	C	-0.441406	-0.568127	0.000022
C83	C	-0.108073	-0.234794	0.333355
C84	C	0.225261	0.098540	0.666688
C85	C	-0.382004	-0.568844	0.000021
C86	C	-0.048670	-0.235510	0.333355
C87	C	0.284663	0.097823	0.666688
C88	C	-0.359381	-0.621123	0.000033
C89	C	-0.026048	-0.287790	0.333366
C90	C	0.307286	0.045543	0.666699
C91	C	-0.299995	-0.621832	0.000050
C92	C	0.033339	-0.288499	0.333384
C93	C	0.366672	0.044834	0.666717
N94	N	-0.277368	-0.674109	0.000056
N95	N	0.055965	-0.340775	0.333389
N96	N	0.389298	-0.007442	0.666722
C97	C	-0.314141	-0.725673	0.000061
C98	C	0.019192	-0.392340	0.333394
C99	C	0.352525	-0.059006	0.666727
C100	C	-0.662324	-0.617491	0.000031
C101	C	-0.328991	-0.284158	0.333364
C102	C	0.004343	0.049176	0.666697
C103	C	-0.721722	-0.616778	0.000034
C104	C	-0.388389	-0.283445	0.333368
C105	C	-0.055055	0.049888	0.666701
C106	C	-0.735869	-0.720623	0.000045
C107	C	-0.402536	-0.387290	0.333379
C108	C	-0.069203	-0.053957	0.666712
C109	C	-0.676470	-0.721335	0.000046
C110	C	-0.343137	-0.388002	0.333379
C111	C	-0.009804	-0.054669	0.666712
C112	C	-0.639698	-0.669767	0.000036
C113	C	-0.306365	-0.336434	0.333369
C114	C	0.026969	-0.003101	0.666702
C115	C	-0.189405	-0.727163	0.000073
C116	C	0.143929	-0.393829	0.333406
C117	C	0.477262	-0.060496	0.666740
C118	C	-0.130003	-0.727869	0.000081
C119	C	0.203331	-0.394536	0.333414
C120	C	0.536664	-0.061203	0.666748
C121	C	-0.115860	-0.624025	0.000067
C122	C	0.217473	-0.290691	0.333400
C123	C	0.550806	0.042642	0.666734
C124	C	-0.175257	-0.623318	0.000062
C125	C	0.158076	-0.289985	0.333395
C126	C	0.491409	0.043349	0.666729
C127	C	-0.212029	-0.674891	0.000063
C128	C	0.121305	-0.341558	0.333396
C129	C	0.454638	-0.008225	0.666730
O130	O	-0.263215	-0.578070	0.000065
O131	O	0.070118	-0.244736	0.333398
O132	O	0.403451	0.088597	0.666732
O133	O	-0.289433	-0.770196	0.000058
O134	O	0.043900	-0.436863	0.333392
O135	O	0.377233	-0.103529	0.666725
C136	C	0.178283	-0.667577	0.000045
C137	C	0.511616	-0.334244	0.333378
C138	C	0.844949	-0.000910	0.666711
C139	C	0.241500	-0.668343	0.000036
C140	C	0.574833	-0.335010	0.333370
C141	C	0.908167	-0.001676	0.666703
C142	C	0.069388	-0.776472	0.000069
C143	C	0.402722	-0.443138	0.333402
C144	C	0.736055	-0.109805	0.666735
C145	C	0.070154	-0.839689	0.000071
C146	C	0.403487	-0.506355	0.333405
C147	C	0.736821	-0.173022	0.666738
C148	C	0.125350	-0.105856	0.000061
C149	C	0.458683	0.227477	0.333395
C150	C	0.792016	0.560810	0.666728
C151	C	0.124638	-0.046456	0.000065
C152	C	0.457971	0.286877	0.333398
C153	C	0.791305	0.620211	0.666732
O154	O	0.168424	-0.009711	0.000081
O155	O	0.501757	0.323622	0.333414
O156	O	0.835091	0.656955	0.666747
N157	N	0.072362	-0.023830	0.000071
N158	N	0.405695	0.309504	0.333405
N159	N	0.739028	0.642837	0.666738
C160	C	0.020794	-0.060607	0.000080
C161	C	0.354127	0.272726	0.333413
C162	C	0.687460	0.606059	0.666746
O163	O	-0.023737	-0.035908	0.000086
O164	O	0.309596	0.297426	0.333419
O165	O	0.642930	0.630759	0.666753
C166	C	0.021506	-0.120006	0.000080
C167	C	0.354839	0.213327	0.333414
C168	C	0.688172	0.546660	0.666747
C169	C	0.073785	-0.142629	0.000068
C170	C	0.407119	0.190704	0.333401
C171	C	0.740452	0.524038	0.666735
C172	C	0.177625	-0.128479	0.000050
C173	C	0.510958	0.204854	0.333383
C174	C	0.844292	0.538187	0.666716
C175	C	0.178336	-0.187876	0.000045
C176	C	0.511670	0.145458	0.333378
C177	C	0.845003	0.478791	0.666712
C178	C	0.126772	-0.224649	0.000052
C179	C	0.460105	0.108685	0.333385
C180	C	0.793439	0.442018	0.666718
C181	C	0.074497	-0.202025	0.000063
C182	C	0.407830	0.131308	0.333397
C183	C	0.741163	0.464641	0.666730
C184	C	-0.030062	-0.156783	0.000093
C185	C	0.303271	0.176550	0.333426
C186	C	0.636605	0.509884	0.666760
C187	C	-0.029345	-0.216185	0.000094
C188	C	0.303988	0.117148	0.333427
C189	C	0.637321	0.450481	0.666761
C190	C	0.022934	-0.238808	0.000082
C191	C	0.356268	0.094525	0.333415
C192	C	0.689601	0.427859	0.666748
C193	C	0.023643	-0.298194	0.000065
C194	C	0.356977	0.035139	0.333398
C195	C	0.690310	0.368472	0.666732
N196	N	0.075920	-0.320820	0.000059
N197	N	0.409253	0.012513	0.333392
N198	N	0.742586	0.345846	0.666726
C199	C	0.127484	-0.284048	0.000052
C200	C	0.460817	0.049286	0.333386
C201	C	0.794151	0.382619	0.666719
C202	C	0.019302	0.064135	0.000080
C203	C	0.352635	0.397468	0.333413
C204	C	0.685969	0.730802	0.666746
C205	C	0.018589	0.123533	0.000075
C206	C	0.351923	0.456866	0.333408
C207	C	0.685256	0.790200	0.666742
C208	C	0.122434	0.137680	0.000061
C209	C	0.455768	0.471014	0.333395
C210	C	0.789101	0.804347	0.666728
C211	C	0.123146	0.078281	0.000062
C212	C	0.456480	0.411615	0.333395
C213	C	0.789813	0.744948	0.666729
C214	C	0.071578	0.041509	0.000074
C215	C	0.404912	0.374842	0.333407
C216	C	0.738245	0.708176	0.666740
C217	C	0.128974	-0.408784	0.000042
C218	C	0.462307	-0.075451	0.333375
C219	C	0.795640	0.257882	0.666708
C220	C	0.129680	-0.468186	0.000034
C221	C	0.463014	-0.134853	0.333368
C222	C	0.796347	0.198480	0.666701
C223	C	0.025836	-0.482329	0.000051
C224	C	0.359169	-0.148995	0.333384
C225	C	0.692503	0.184338	0.666718
C226	C	0.025129	-0.422932	0.000055
C227	C	0.358462	-0.089598	0.333389
C228	C	0.691796	0.243735	0.666722
C229	C	0.076702	-0.386160	0.000052
C230	C	0.410036	-0.052827	0.333386
C231	C	0.743369	0.280506	0.666719
O232	O	-0.020119	-0.334974	0.000052
O233	O	0.313214	-0.001640	0.333385
O234	O	0.646547	0.331693	0.666719
O235	O	0.172007	-0.308755	0.000054
O236	O	0.505340	0.024578	0.333387
O237	O	0.838674	0.357911	0.666721
N238	N	0.074115	-0.672363	-0.153196
N239	N	0.407449	-0.339030	0.180137
N240	N	0.740782	-0.005696	0.513470
C241	C	0.039758	-0.637982	0.438156
C242	C	0.373091	-0.304649	0.771490
C243	C	0.706425	0.028685	1.104823
C244	C	0.039761	-0.637977	0.376236
C245	C	0.373094	-0.304643	0.709570
C246	C	0.706427	0.028690	1.042903
O247	O	0.010521	-0.608784	0.344213
O248	O	0.343854	-0.275450	0.677546
O249	O	0.677188	0.057883	1.010879
N250	N	0.074132	-0.672313	0.345266
N251	N	0.407465	-0.338980	0.678600
N252	N	0.740799	-0.005647	1.011933
C253	C	0.108498	-0.706662	0.376219
C254	C	0.441832	-0.373329	0.709553
C255	C	0.775165	-0.039995	1.042886
O256	O	0.137734	-0.735868	0.344191
O257	O	0.471067	-0.402535	0.677525
O258	O	0.804400	-0.069201	1.010858
C259	C	0.108492	-0.706670	0.438138
C260	C	0.441826	-0.373337	0.771472
C261	C	0.775159	-0.040004	1.104805
C262	C	0.074123	-0.672327	0.469105
C263	C	0.407456	-0.338994	0.802438
C264	C	0.740790	-0.005660	1.135772
C265	C	0.005391	-0.603642	0.469123
C266	C	0.338724	-0.270309	0.802457
C267	C	0.672058	0.063025	1.135790
C268	C	0.005389	-0.603647	0.531039
C269	C	0.338723	-0.270314	0.864372
C270	C	0.672056	0.063020	1.197706
C271	C	0.039754	-0.637992	0.561988
C272	C	0.373088	-0.304658	0.895321
C273	C	0.706421	0.028675	1.228654
C274	C	0.074121	-0.672332	0.531021
C275	C	0.407455	-0.338998	0.864354
C276	C	0.740788	-0.005665	1.197687
C277	C	0.142855	-0.741022	0.469090
C278	C	0.476188	-0.407688	0.802423
C279	C	0.809522	-0.074355	1.135757
C280	C	0.142846	-0.741027	0.531013
C281	C	0.476179	-0.407694	0.864346
C282	C	0.809512	-0.074361	1.197680
C283	C	0.108476	-0.706684	0.561980
C284	C	0.441810	-0.373351	0.895313
C285	C	0.775143	-0.040017	1.228647
C286	C	0.108484	-0.706681	0.623885
C287	C	0.441818	-0.373348	0.957218
C288	C	0.775151	-0.040015	1.290552
N289	N	0.074113	-0.672345	0.654855
N290	N	0.407446	-0.339011	0.988188
N291	N	0.740780	-0.005678	1.321522
C292	C	0.039748	-0.638000	0.623906
C293	C	0.373081	-0.304667	0.957240
C294	C	0.706415	0.028667	1.290573
C295	C	0.108508	-0.706643	0.246186
C296	C	0.441841	-0.373310	0.579519
C297	C	0.775175	-0.039977	0.912852
C298	C	0.108518	-0.706632	0.184268
C299	C	0.441851	-0.373299	0.517602
C300	C	0.775185	-0.039966	0.850935
C301	C	0.039779	-0.637948	0.184289
C302	C	0.373113	-0.304614	0.517623
C303	C	0.706446	0.028719	0.850956
C304	C	0.039773	-0.637956	0.246208
C305	C	0.373106	-0.304622	0.579542
C306	C	0.706440	0.028711	0.912875
C307	C	0.074137	-0.672307	0.277156
C308	C	0.407470	-0.338973	0.610489
C309	C	0.740804	-0.005640	0.943823
C310	C	0.039747	-0.638012	0.753934
C311	C	0.373081	-0.304679	1.087267
C312	C	0.706414	0.028655	1.420600
C313	C	0.039750	-0.638018	0.815855
C314	C	0.373084	-0.304685	1.149188
C315	C	0.706417	0.028648	1.482521
C316	C	0.108486	-0.706705	0.815828
C317	C	0.441820	-0.373372	1.149161
C318	C	0.775153	-0.040038	1.482495
C319	C	0.108486	-0.706697	0.753912
C320	C	0.441819	-0.373364	1.087246
C321	C	0.775153	-0.040030	1.420579
C322	C	0.074112	-0.672349	0.722967
C323	C	0.407445	-0.339016	1.056300
C324	C	0.740778	-0.005682	1.389633
O325	O	0.137707	-0.735861	0.655948
O326	O	0.471041	-0.402528	0.989281
O327	O	0.804374	-0.069195	1.322615
O328	O	0.010512	-0.608804	0.655942
O329	O	0.343845	-0.275471	0.989275
O330	O	0.677179	0.057862	1.322609
H331	H	-0.111587	-0.770443	0.000092
H332	H	0.221746	-0.437110	0.333425
H333	H	0.555080	-0.103777	0.666759
H334	H	-0.017441	-0.404512	0.000056
H335	H	0.315892	-0.071178	0.333390
H336	H	0.649225	0.262155	0.666723
Br337	Br	-0.044141	-0.532246	0.000061
Br338	Br	0.289193	-0.198912	0.333395
Br339	Br	0.622526	0.134421	0.666728
Br340	Br	-0.332101	-0.498854	0.000005
Br341	Br	0.001232	-0.165521	0.333339
Br342	Br	0.334566	0.167812	0.666672
Br343	Br	-0.519606	-0.845804	0.000066
Br344	Br	-0.186272	-0.512471	0.333399
Br345	Br	0.147061	-0.179137	0.666732
H346	H	0.170829	-0.769001	0.556207
H347	H	0.504162	-0.435668	0.889541
H348	H	0.837495	-0.102335	1.222874
Br349	Br	-0.645775	-0.792288	0.000062
Br350	Br	-0.312441	-0.458955	0.333396
Br351	Br	0.020892	-0.125622	0.666729
Br352	Br	-0.785787	-0.790604	0.000050
Br353	Br	-0.452454	-0.457271	0.333383
Br354	Br	-0.119120	-0.123937	0.666716
Br355	Br	0.155154	-0.753262	0.288180
Br356	Br	0.488487	-0.419929	0.621513
Br357	Br	0.821820	-0.086596	0.954847
Br358	Br	-0.006894	-0.591403	0.857878
Br359	Br	0.326439	-0.258070	1.191211
Br360	Br	0.659773	0.075263	1.524544
H361	H	-0.391900	-0.819097	0.000072
H362	H	-0.058567	-0.485763	0.333405
H363	H	0.274767	-0.152430	0.666739
Br364	Br	0.200636	-0.498884	0.000014
Br365	Br	0.533969	-0.165551	0.333347
Br366	Br	0.867303	0.167782	0.666681
Br367	Br	-0.052364	0.154227	0.000074
Br368	Br	0.280969	0.487561	0.333407
Br369	Br	0.614302	0.820894	0.666740
Br370	Br	-0.101018	-0.126097	0.000097
Br371	Br	0.232316	0.207237	0.333430
Br372	Br	0.565649	0.540570	0.666763
Br373	Br	-0.239299	-0.797156	0.000074
Br374	Br	0.094034	-0.463823	0.333407
Br375	Br	0.427367	-0.130489	0.666740
Br376	Br	-0.472092	-0.497171	0.000004
Br377	Br	-0.138759	-0.163838	0.333337
Br378	Br	0.194574	0.169495	0.666671
Br379	Br	0.189518	-0.787618	0.427079
Br380	Br	0.522851	-0.454285	0.760413
Br381	Br	0.856184	-0.120951	1.093746
Br382	Br	-0.050690	0.014235	0.000090
Br383	Br	0.282643	0.347568	0.333424
Br384	Br	0.615977	0.680901	0.666757
Br385	Br	-0.612424	-0.547499	0.000022
Br386	Br	-0.279090	-0.214166	0.333355
Br387	Br	0.054243	0.119168	0.666689
H388	H	-0.071339	-0.246123	0.000104
H389	H	0.261994	0.087210	0.333437
H390	H	0.595327	0.420543	0.666771
H391	H	0.011757	-0.610043	0.728745
H392	H	0.345090	-0.276709	1.062078
H393	H	0.678423	0.056624	1.395412
H394	H	-0.022600	-0.575683	0.556247
H395	H	0.310734	-0.242350	0.889580
H396	H	0.644067	0.090983	1.222913
H397	H	0.220908	-0.206289	0.000035
H398	H	0.554241	0.127044	0.333368
H399	H	0.887574	0.460378	0.666702
Br400	Br	0.198967	-0.358890	0.000039
Br401	Br	0.532300	-0.025556	0.333372
Br402	Br	0.865634	0.307777	0.666706
Br403	Br	-0.041249	-0.557020	0.427133
Br404	Br	0.292085	-0.223687	0.760466
Br405	Br	0.625418	0.109647	1.093800
Br406	Br	0.247615	-0.078583	0.000041
Br407	Br	0.580948	0.254750	0.333374
Br408	Br	0.914282	0.588083	0.666707
Br409	Br	-0.752416	-0.545825	0.000033
Br410	Br	-0.419083	-0.212491	0.333366
Br411	Br	-0.085750	0.120842	0.666700
H412	H	0.165717	0.059867	0.000055
H413	H	0.499050	0.393200	0.333389
H414	H	0.832384	0.726533	0.666722
Br415	Br	-0.006873	-0.591346	0.288228
Br416	Br	0.326461	-0.258012	0.621561
Br417	Br	0.659794	0.075321	0.954895
H418	H	0.164421	0.167632	0.000059
H419	H	0.497754	0.500965	0.333392
H420	H	0.831087	0.834299	0.666725
H421	H	-0.193677	-0.580748	0.000069
H422	H	0.139656	-0.247414	0.333403
H423	H	0.472989	0.085919	0.666736
H424	H	0.011797	-0.609982	0.159080
H425	H	0.345131	-0.276649	0.492413
H426	H	0.678464	0.056685	0.825746
H427	H	-0.085909	-0.582043	0.000065
H428	H	0.247424	-0.248709	0.333398
H429	H	0.580757	0.084624	0.666732
Br430	Br	0.155178	-0.753229	0.142249
Br431	Br	0.488511	-0.419895	0.475583
Br432	Br	0.821845	-0.086562	0.808916
H433	H	0.136480	-0.734654	0.728698
H434	H	0.469814	-0.401320	1.062031
H435	H	0.803147	-0.067987	1.395365
H436	H	0.136467	-0.734666	0.841038
H437	H	0.469800	-0.401333	1.174371
H438	H	0.803134	-0.068000	1.507704
