data_functionalizedCrystal
_audit_creation_method	'MofGen! by Chris Wilmer'
_symmetry_space_group_name_H-M	'P1'
_symmetry_Int_Tables_number	1
_symmetry_cell_setting	triclinic
loop_
_symmetry_equiv_pos_as_xyz
  x,y,z
_cell_length_a	15.297475
_cell_length_b	18.101395
_cell_length_c	15.296720
_cell_angle_alpha	99.643705
_cell_angle_beta	91.617114
_cell_angle_gamma	80.333681
loop_
_atom_site_label
_atom_site_type_symbol
_atom_site_fract_x
_atom_site_fract_y
_atom_site_fract_z
Zn1	Zn	1.253296	-0.576346	-0.726580
Zn2	Zn	1.753296	-0.076346	-0.226580
Zn3	Zn	1.278539	-0.682980	-0.580092
Zn4	Zn	1.778539	-0.182980	-0.080092
Zn5	Zn	1.132181	-0.534744	-0.554822
Zn6	Zn	1.632181	-0.034744	-0.054822
Zn7	Zn	1.106767	-0.675701	-0.701220
Zn8	Zn	1.606767	-0.175701	-0.201220
O9	O	1.192696	-0.617443	-0.640678
O10	O	1.692696	-0.117443	-0.140678
O11	O	1.379219	-0.610949	-0.728336
O12	O	1.879219	-0.110949	-0.228336
O13	O	1.280325	-0.648952	-0.454165
O14	O	1.780325	-0.148952	0.045835
O15	O	1.148319	-0.436645	-0.577643
O16	O	1.648319	0.063355	-0.077643
O17	O	1.397765	-0.689292	-0.620712
O18	O	1.897765	-0.189292	-0.120712
O19	O	1.237301	-0.467210	-0.703833
O20	O	1.737301	0.032790	-0.203833
O21	O	1.172796	-0.540044	-0.435600
O22	O	1.672796	-0.040044	0.064400
O23	O	1.006236	-0.532985	-0.553053
O24	O	1.506236	-0.032985	-0.053053
O25	O	1.105004	-0.676885	-0.827159
O26	O	1.605004	-0.176885	-0.327159
O27	O	0.987564	-0.636545	-0.660612
O28	O	1.487564	-0.136545	-0.160612
O29	O	1.212658	-0.603890	-0.845790
O30	O	1.712658	-0.103890	-0.345790
O31	O	1.255681	-0.785632	-0.596122
O32	O	1.755681	-0.285632	-0.096122
O33	O	1.129481	-0.780284	-0.685115
O34	O	1.629481	-0.280284	-0.185115
C35	C	0.965117	-0.579462	-0.601339
C36	C	1.465117	-0.079462	-0.101339
C37	C	0.867755	-0.563233	-0.584530
C38	C	1.367755	-0.063233	-0.084530
C39	C	1.192583	-0.809831	-0.640632
C40	C	1.692583	-0.309831	-0.140632
C41	C	1.192610	-0.892152	-0.640656
C42	C	1.692610	-0.392152	-0.140656
C43	C	0.554578	-0.733434	-0.760815
C44	C	1.054578	-0.233434	-0.260815
C45	C	0.646055	-0.748686	-0.776605
C46	C	1.146055	-0.248686	-0.276605
C47	C	0.701484	-0.702324	-0.728588
C48	C	1.201484	-0.202324	-0.228588
C49	C	0.665428	-0.640708	-0.664778
C50	C	1.165428	-0.140708	-0.164778
C51	C	0.573942	-0.625457	-0.648981
C52	C	1.073942	-0.125457	-0.148981
C53	C	0.720849	-0.594348	-0.616754
C54	C	1.220849	-0.094348	-0.116754
C55	C	0.684792	-0.532731	-0.552944
C56	C	1.184792	-0.032731	-0.052944
C57	C	0.593315	-0.517483	-0.537151
C58	C	1.093315	-0.017483	-0.037151
C59	C	0.537886	-0.563845	-0.585167
C60	C	1.037886	-0.063845	-0.085167
C61	C	0.812334	-0.609598	-0.632551
C62	C	1.312334	-0.109598	-0.132551
C63	C	0.831699	-0.501621	-0.520717
C64	C	1.331699	-0.001621	-0.020717
C65	C	0.740221	-0.486369	-0.504927
C66	C	1.240221	0.013631	-0.004927
C67	C	1.192794	-1.191281	-0.640736
C68	C	1.692794	-0.691281	-0.140736
C69	C	1.113520	-1.156667	-0.696923
C70	C	1.613520	-0.656667	-0.196923
C71	C	1.113236	-1.070971	-0.696656
C72	C	1.613236	-0.570971	-0.196656
C73	C	1.192702	-1.042879	-0.640697
C74	C	1.692702	-0.542879	-0.140697
C75	C	1.183698	-1.059025	-0.544069
C76	C	1.683698	-0.559025	-0.044069
C77	C	1.183193	-1.144646	-0.544399
C78	C	1.683193	-0.644646	-0.044399
C79	C	1.281361	-1.177858	-0.680391
C80	C	1.781361	-0.677858	-0.180391
C81	C	1.280465	-1.092353	-0.682321
C82	C	1.780465	-0.592353	-0.182321
C83	C	1.192653	-0.959009	-0.640670
C84	C	1.692653	-0.459009	-0.140670
C85	C	1.192842	-1.275150	-0.640757
C86	C	1.692842	-0.775150	-0.140757
C87	C	1.421163	-0.655573	-0.680172
C88	C	1.921163	-0.155573	-0.180172
C89	C	1.518521	-0.671822	-0.697001
C90	C	2.018521	-0.171822	-0.197001
C91	C	1.153180	-0.644216	-0.869145
C92	C	1.653180	-0.144216	-0.369145
C93	C	1.136341	-0.655626	-0.966504
C94	C	1.636341	-0.155626	-0.466504
C95	C	1.192829	-0.424310	-0.640748
C96	C	1.692829	0.075690	-0.140748
C97	C	1.192886	-0.342008	-0.640777
C98	C	1.692886	0.157992	-0.140777
C99	C	1.313081	-0.535774	-1.279745
C100	C	1.813081	-0.035774	-0.779745
C101	C	1.328908	-0.525057	-1.188272
C102	C	1.828908	-0.025057	-0.688272
C103	C	1.280767	-0.557698	-1.132826
C104	C	1.780767	-0.057698	-0.632826
C105	C	1.216797	-0.601059	-1.168860
C106	C	1.716797	-0.101059	-0.668860
C107	C	1.200974	-0.611782	-1.260343
C108	C	1.700974	-0.111782	-0.760343
C109	C	1.168660	-0.633706	-1.113424
C110	C	1.668660	-0.133706	-0.613424
C111	C	1.104691	-0.677067	-1.149458
C112	C	1.604691	-0.177067	-0.649458
C113	C	1.088870	-0.687788	-1.240932
C114	C	1.588870	-0.187788	-0.740932
C115	C	1.137010	-0.655147	-1.296378
C116	C	1.637010	-0.155147	-0.796378
C117	C	1.184484	-0.622982	-1.021941
C118	C	1.684484	-0.122982	-0.521941
C119	C	1.072377	-0.698990	-1.002539
C120	C	1.572377	-0.198990	-0.502539
C121	C	1.056550	-0.709707	-1.094012
C122	C	1.556550	-0.209707	-0.594012
C123	C	1.232108	-0.590728	-0.413109
C124	C	1.732108	-0.090728	0.086891
C125	C	1.249117	-0.579139	-0.315780
C126	C	1.749117	-0.079139	0.184220
H127	H	0.841682	-0.659767	-0.684506
H128	H	1.341682	-0.159767	-0.184506
O129	O	1.365001	-0.500580	-1.339550
O130	O	1.865001	-0.000580	-0.839550
H131	H	1.412144	-0.468629	-1.299129
H132	H	1.912144	0.031371	-0.799129
H133	H	1.117108	-1.187859	-0.768267
H134	H	1.617108	-0.687859	-0.268267
O135	O	1.289858	-1.080097	-0.776616
O136	O	1.789858	-0.580097	-0.276616
H137	H	1.232340	-1.096841	-0.816281
H138	H	1.732340	-0.596841	-0.316281
O139	O	1.297836	-0.546146	-1.034165
O140	O	1.797836	-0.046146	-0.534165
H141	H	1.235952	-0.517331	-0.998628
H142	H	1.735952	-0.017331	-0.498628
H143	H	0.509441	-0.771179	-0.799898
H144	H	1.009441	-0.271179	-0.299898
O145	O	1.361146	-1.068603	-0.633731
O146	O	1.861146	-0.568603	-0.133731
H147	H	1.339858	-1.020953	-0.578909
H148	H	1.839858	-0.520953	-0.078909
H149	H	0.775969	-0.714747	-0.741449
H150	H	1.275969	-0.214747	-0.241449
H151	H	1.120211	-1.024067	-0.512101
H152	H	1.620211	-0.524067	-0.012101
O153	O	0.684946	-0.815140	-0.845422
O154	O	1.184946	-0.315140	-0.345422
H155	H	0.718939	-0.794238	-0.897252
H156	H	1.218939	-0.294238	-0.397252
O157	O	0.439222	-0.547380	-0.568109
O158	O	0.939222	-0.047380	-0.068109
H159	H	0.426536	-0.550483	-0.497837
H160	H	0.926536	-0.050483	0.002163
H161	H	1.340226	-1.200698	-0.639662
H162	H	1.840226	-0.700698	-0.139662
H163	H	1.047932	-1.165050	-0.669664
H164	H	1.547932	-0.665050	-0.169664
O165	O	0.554420	-0.451028	-0.468325
O166	O	1.054420	0.048972	0.031675
H167	H	0.608327	-0.421347	-0.437595
H168	H	1.108327	0.078653	0.062405
O169	O	1.025855	-1.026293	-0.660188
O170	O	1.525855	-0.526293	-0.160188
H171	H	1.038061	-0.985606	-0.600093
H172	H	1.538061	-0.485606	-0.100093
O173	O	0.701319	-0.419930	-0.436086
O174	O	1.201319	0.080070	0.063914
H175	H	0.652859	-0.379966	-0.468167
H176	H	1.152859	0.120034	0.031833
H177	H	1.236568	-0.587677	-0.992611
H178	H	1.736568	-0.087677	-0.492611
H179	H	1.036788	-0.723102	-1.270269
H180	H	1.536788	-0.223102	-0.770269
O181	O	0.891469	-0.451606	-0.468923
O182	O	1.391469	0.048394	0.031077
H183	H	0.961137	-0.472556	-0.490635
H184	H	1.461137	0.027444	0.009365
H185	H	1.380994	-0.489755	-1.158940
H186	H	1.880994	0.010245	-0.658940
H187	H	1.117017	-1.060550	-0.767804
H188	H	1.617017	-0.560550	-0.267804
H189	H	1.118926	-1.151038	-0.512667
H190	H	1.618926	-0.651038	-0.012667
O191	O	0.987556	-0.756475	-1.132880
O192	O	1.487556	-0.256475	-0.632880
H193	H	0.984647	-0.758448	-1.205804
H194	H	1.484647	-0.258448	-0.705804
H195	H	1.239294	-1.167074	-0.500248
H196	H	1.739294	-0.667074	-0.000248
O197	O	1.258702	-1.034496	-0.486166
O198	O	1.758702	-0.534496	0.013834
H199	H	1.257475	-0.972661	-0.483373
H200	H	1.757475	-0.472661	0.016627
O201	O	1.296366	-1.221712	-0.773254
O202	O	1.796366	-0.721712	-0.273254
H203	H	1.240859	-1.253568	-0.792181
H204	H	1.740859	-0.753568	-0.292181
O205	O	1.119935	-0.666707	-1.395041
O206	O	1.619935	-0.166707	-0.895041
H207	H	1.164157	-0.636724	-1.427538
H208	H	1.664157	-0.136724	-0.927538
O209	O	1.020442	-0.734196	-0.942749
O210	O	1.520442	-0.234196	-0.442749
H211	H	1.042183	-0.719447	-0.873084
H212	H	1.542183	-0.219447	-0.373084
