data_functionalizedCrystal
_audit_creation_method	'MofGen! by Chris Wilmer'
_symmetry_space_group_name_H-M	'P1'
_symmetry_Int_Tables_number	1
_symmetry_cell_setting	triclinic
loop_
_symmetry_equiv_pos_as_xyz
  x,y,z
_cell_length_a	23.204063
_cell_length_b	23.204065
_cell_length_c	23.204116
_cell_angle_alpha	59.997987
_cell_angle_beta	89.998953
_cell_angle_gamma	60.000253
loop_
_atom_site_label
_atom_site_type_symbol
_atom_site_fract_x
_atom_site_fract_y
_atom_site_fract_z
O1	O	-0.491197	-0.412484	0.017135
O2	O	-0.407392	-0.294473	-0.017070
O3	O	-0.407389	-0.412483	0.100940
O4	O	-0.491200	-0.294474	-0.100875
O5	O	-0.311538	-0.508333	0.100940
O6	O	-0.311541	-0.390323	-0.017071
O7	O	-0.395346	-0.508335	0.017135
Zn8	Zn	-0.338225	-0.464547	0.000032
Zn9	Zn	-0.464513	-0.338260	0.000033
O10	O	-0.395349	-0.390324	-0.100876
C11	C	-0.310652	-0.181456	-0.024838
C12	C	-0.346214	-0.110333	-0.019942
C13	C	-0.241294	-0.215971	-0.025323
C14	C	-0.310655	-0.285810	-0.024846
C15	C	-0.346219	-0.326263	-0.019957
C16	C	-0.241297	-0.320167	-0.025331
C17	C	-0.206293	-0.285815	-0.024838
C18	C	-0.130274	-0.326273	-0.019941
C19	C	-0.345497	-0.215967	-0.025331
C20	C	-0.658540	-0.590043	0.035860
C21	C	-0.734559	-0.549588	0.030967
C22	C	-0.623539	-0.659889	0.036349
C23	C	-0.554183	-0.590040	0.035855
C24	C	-0.518621	-0.549582	0.030958
C25	C	-0.519339	-0.659886	0.036344
C26	C	-0.554182	-0.694402	0.035859
C27	C	-0.518619	-0.765527	0.030967
C28	C	-0.623539	-0.555686	0.036345
C29	C	-0.489889	-0.822989	0.027012
C30	C	-0.795974	-0.516903	0.027013
C31	C	-0.489891	-0.516895	0.027000
C32	C	-0.453845	-0.895077	0.022052
C33	C	-0.873022	-0.475899	0.022054
C34	C	-0.453848	-0.475888	0.022036
C35	C	-0.554187	-0.212776	-0.445775
C36	C	-0.518624	-0.253233	-0.481336
C37	C	-0.623545	-0.142931	-0.480619
C38	C	-0.554188	-0.212775	-0.341416
C39	C	-0.518626	-0.253231	-0.265397
C40	C	-0.623546	-0.142930	-0.376419
C41	C	-0.658547	-0.108416	-0.445777
C42	C	-0.734566	-0.037291	-0.481340
C43	C	-0.519344	-0.247131	-0.376417
C44	C	-0.795982	0.020169	-0.510072
C45	C	-0.489893	-0.285920	-0.510065
C46	C	-0.489896	-0.285917	-0.203980
C47	C	-0.873032	0.092257	-0.546117
C48	C	-0.453848	-0.326925	-0.546108
C49	C	-0.453852	-0.326922	-0.126930
O50	O	0.100922	-0.508345	0.017151
O51	O	-0.100892	-0.390333	-0.017055
O52	O	0.017109	-0.508348	0.100956
O53	O	-0.017080	-0.390330	-0.100860
O54	O	0.017112	-0.412502	0.100963
O55	O	-0.100890	-0.294486	-0.017048
O56	O	0.100924	-0.412499	0.017158
Zn57	Zn	0.000018	-0.338275	0.000056
Zn58	Zn	0.000014	-0.464556	0.000047
O59	O	-0.017077	-0.294483	-0.100853
O60	O	-0.395342	0.083766	0.017156
O61	O	-0.311534	-0.083842	-0.017048
O62	O	-0.311538	-0.083852	0.100962
O63	O	-0.395338	0.083777	-0.100854
O64	O	-0.407391	-0.083849	0.100954
O65	O	-0.407387	-0.083839	-0.017056
O66	O	-0.491195	0.083770	0.017149
Zn67	Zn	-0.464510	-0.000034	0.000045
Zn68	Zn	-0.338219	-0.000039	0.000055
O69	O	-0.491191	0.083780	-0.100861
O70	O	-1.100901	0.281028	-0.592582
O71	O	-0.899087	0.113413	-0.508770
O72	O	-1.017091	0.113409	-0.508767
O73	O	-0.982897	0.281032	-0.592584
O74	O	-1.017088	0.113407	-0.604617
O75	O	-0.899085	0.113411	-0.604619
O76	O	-1.100898	0.281026	-0.688432
Zn77	Zn	-0.999991	0.197218	-0.661744
Zn78	Zn	-0.999994	0.197221	-0.535458
O79	O	-0.982895	0.281030	-0.688434
O80	O	-0.407389	-0.412483	-0.688416
O81	O	-0.491197	-0.294477	-0.604610
O82	O	-0.491195	-0.412486	-0.604605
O83	O	-0.407390	-0.294474	-0.688421
O84	O	-0.395343	-0.508338	-0.508754
O85	O	-0.395345	-0.390329	-0.508759
O86	O	-0.311537	-0.508334	-0.592565
Zn87	Zn	-0.338222	-0.464550	-0.535443
Zn88	Zn	-0.464511	-0.338262	-0.661732
O89	O	-0.311539	-0.390326	-0.592570
C90	C	-0.206294	-0.621360	0.310702
C91	C	-0.130275	-0.692485	0.346265
C92	C	-0.241296	-0.586846	0.345545
C93	C	-0.310654	-0.517001	0.206342
C94	C	-0.346216	-0.476544	0.130323
C95	C	-0.345497	-0.482645	0.241343
C96	C	-0.310653	-0.517001	0.310701
C97	C	-0.346216	-0.476544	0.346263
C98	C	-0.241296	-0.586846	0.241345
C99	C	0.024887	-0.517030	0.310724
C100	C	0.019993	-0.476577	0.346290
C101	C	0.025371	-0.586874	0.345565
C102	C	0.024889	-0.517022	0.206362
C103	C	0.019998	-0.476562	0.130342
C104	C	0.025374	-0.586867	0.241361
C105	C	0.024884	-0.621384	0.310718
C106	C	0.019987	-0.692509	0.346278
C107	C	0.025377	-0.482671	0.241366
C108	C	-0.310656	-0.285855	0.310709
C109	C	-0.346220	-0.326314	0.346266
C110	C	-0.241298	-0.320218	0.345555
C111	C	-0.310655	-0.181484	0.206357
C112	C	-0.346217	-0.110348	0.130340
C113	C	-0.241296	-0.216005	0.241362
C114	C	-0.206295	-0.285860	0.310717
C115	C	-0.130275	-0.326323	0.346282
C116	C	-0.345499	-0.216001	0.241354
C117	C	-0.035774	-0.108410	-0.445754
C118	C	-0.030877	-0.037285	-0.481314
C119	C	-0.036262	-0.142920	-0.480600
C120	C	-0.035780	-0.212771	-0.341397
C121	C	-0.030889	-0.253231	-0.265377
C122	C	-0.036268	-0.247124	-0.376401
C123	C	-0.035777	-0.212765	-0.445759
C124	C	-0.030883	-0.253218	-0.481324
C125	C	-0.036265	-0.142927	-0.376396
C126	C	-0.026928	-0.285901	-0.510056
C127	C	-0.026920	0.020175	-0.510042
C128	C	-0.026936	-0.285920	-0.203961
C129	C	-0.021967	-0.326903	-0.546103
C130	C	-0.021955	0.092262	-0.546083
C131	C	-0.021978	-0.326928	-0.126911
O132	O	-0.017120	-0.390358	0.491266
O133	O	0.017098	-0.508368	0.407461
O134	O	-0.100916	-0.390357	0.407446
O135	O	0.100893	-0.508369	0.491281
O136	O	-0.100904	-0.294507	0.311599
O137	O	0.017110	-0.412518	0.311614
O138	O	-0.017109	-0.294509	0.395420
Zn139	Zn	0.000002	-0.338295	0.338299
Zn140	Zn	-0.000013	-0.464581	0.464581
O141	O	0.100905	-0.412519	0.395435
C142	C	-0.658539	0.410016	-0.445751
C143	C	-0.734559	0.450479	-0.481316
C144	C	-0.623536	0.444375	-0.480590
C145	C	-0.554179	0.305641	-0.341392
C146	C	-0.518616	0.234505	-0.265374
C147	C	-0.519335	0.340158	-0.376388
C148	C	-0.554178	0.410013	-0.445743
C149	C	-0.518614	0.450471	-0.481300
C150	C	-0.623537	0.340162	-0.376396
C151	C	-0.489883	0.483159	-0.510025
C152	C	-0.795975	0.483170	-0.510049
C153	C	-0.489886	0.177036	-0.203959
C154	C	-0.453838	0.524167	-0.546063
C155	C	-0.873025	0.524182	-0.546095
C156	C	-0.453842	0.104937	-0.126912
H157	H	-0.213196	-0.187082	-0.026109
C158	C	-0.421532	-0.177321	-0.026533
C159	C	-0.464072	-0.097226	-0.087250
C160	C	-0.534118	-0.061608	-0.088389
H161	H	-0.424331	-0.176956	0.014136
H162	H	-0.437396	-0.207852	-0.026801
H163	H	-0.448213	-0.066703	-0.086976
H164	H	-0.461295	-0.097568	-0.127929
H165	H	-0.549982	-0.092138	-0.088657
H166	H	-0.536910	-0.061248	-0.047717
H167	H	-0.562992	-0.007263	-0.129588
H168	H	-0.462356	-0.303332	-0.348318
C169	C	0.026264	-0.625308	0.203868
C170	C	-0.033819	-0.625605	0.200409
C171	C	-0.033032	-0.660994	0.165866
H172	H	0.067368	-0.679692	0.229200
H173	H	0.026437	-0.594715	0.157439
H174	H	-0.033985	-0.656198	0.246829
H175	H	-0.074932	-0.571231	0.175072
H176	H	-0.032859	-0.630402	0.119438
H177	H	0.008074	-0.715376	0.191203
H178	H	-0.073801	-0.661194	0.163510
C179	C	0.026313	-0.407655	0.203940
C180	C	-0.033756	-0.343816	0.200494
C181	C	-0.032915	-0.274705	0.166028
H182	H	0.026502	-0.391942	0.157514
H183	H	0.067440	-0.419791	0.229335
H184	H	-0.074872	-0.331682	0.175098
H185	H	-0.033958	-0.359503	0.246910
H186	H	0.008212	-0.286841	0.191424
H187	H	-0.032724	-0.259000	0.119604
H188	H	-0.073667	-0.231385	0.163692
C189	C	-0.203771	-0.177507	0.204028
C190	C	-0.184372	-0.154379	0.241603
C191	C	-0.149792	-0.118926	0.207242
H192	H	-0.234496	-0.130843	0.157621
H193	H	-0.162737	-0.215820	0.201649
H194	H	-0.225400	-0.116068	0.243974
H195	H	-0.153639	-0.201028	0.288008
H196	H	-0.108758	-0.157239	0.204863
H197	H	-0.180521	-0.072265	0.160836
H198	H	-0.136620	-0.103236	0.232735
C199	C	-0.037281	-0.322086	-0.339046
C200	C	-0.037591	-0.344919	-0.384573
C201	C	-0.038515	-0.413974	-0.350186
H202	H	-0.078421	-0.310001	-0.325828
H203	H	0.003453	-0.365534	-0.298057
H204	H	-0.078321	-0.301481	-0.425549
H205	H	0.003546	-0.357021	-0.397794
H206	H	0.002220	-0.457422	-0.309197
H207	H	-0.079655	-0.401882	-0.336970
H208	H	-0.038718	-0.429480	-0.381069
H209	H	-0.462354	-0.688766	0.037124
H210	H	-0.651638	-0.114039	-0.537611
C211	C	-0.203869	-0.395180	-0.026268
C212	C	-0.200426	-0.459021	0.033799
C213	C	-0.165960	-0.528130	0.032957
H214	H	-0.157442	-0.410892	-0.026453
H215	H	-0.229261	-0.383042	-0.067398
H216	H	-0.175033	-0.471159	0.074919
H217	H	-0.246843	-0.443336	0.033997
H218	H	-0.191352	-0.515992	-0.008173
H219	H	-0.119536	-0.543834	0.032769
H220	H	-0.163625	-0.571452	0.073708
H221	H	-0.213202	-0.376423	0.402543
C222	C	-0.661127	-0.698283	0.037388
C223	C	-0.729492	-0.653074	0.037694
C224	C	-0.764136	-0.688419	0.038653
H225	H	-0.635813	-0.752634	0.078541
H226	H	-0.663579	-0.698560	-0.003335
H227	H	-0.727038	-0.652805	0.078412
H228	H	-0.754825	-0.598723	-0.003456
H229	H	-0.766587	-0.688696	-0.002069
H230	H	-0.738816	-0.742770	0.079806
H231	H	-0.810527	-0.657746	0.038854
C232	C	-0.661084	-0.104256	-0.339080
C233	C	-0.680496	-0.024147	-0.376640
C234	C	-0.715094	0.011506	-0.342274
H235	H	-0.630368	-0.134729	-0.292669
H236	H	-0.702115	-0.103925	-0.336713
H237	H	-0.639472	-0.024483	-0.378998
H238	H	-0.711221	0.006347	-0.423050
H239	H	-0.756124	0.011837	-0.339908
H240	H	-0.684373	-0.018974	-0.295864
H241	H	-0.728275	0.065865	-0.367757
C242	C	-0.203895	-0.625205	0.421502
C243	C	-0.200473	-0.568577	0.425287
C244	C	-0.166045	-0.603879	0.495248
H245	H	-0.157464	-0.671821	0.437422
H246	H	-0.229304	-0.640937	0.450474
H247	H	-0.175063	-0.552857	0.396325
H248	H	-0.246894	-0.521959	0.409382
H249	H	-0.191454	-0.619611	0.524220
H250	H	-0.119616	-0.650494	0.511161
H251	H	-0.163724	-0.565460	0.497826
H252	H	-0.402486	-0.187114	0.213252
H253	H	0.026144	-0.615754	0.402549
H254	H	-0.213184	-0.615720	0.213239
H255	H	-0.651645	-0.499479	0.037123
H256	H	-0.462348	0.311266	-0.348281
H257	H	-0.402481	-0.426435	0.213235
H258	H	-0.037046	-0.114028	-0.537588
H259	H	-0.036993	-0.114078	-0.348277
C260	C	-0.661146	0.519372	-0.556550
C261	C	-0.729522	0.542246	-0.579700
C262	C	-0.764194	0.611344	-0.649659
H263	H	-0.635862	0.507320	-0.585627
H264	H	-0.663579	0.562788	-0.559221
H265	H	-0.727086	0.498840	-0.577035
H266	H	-0.754825	0.554315	-0.550642
H267	H	-0.766628	0.654760	-0.652331
H268	H	-0.738904	0.599285	-0.678731
H269	H	-0.810593	0.626877	-0.665374
H270	H	-0.651648	0.311288	-0.348296
