data_functionalizedCrystal
_audit_creation_method	'MofGen! by Chris Wilmer'
_symmetry_space_group_name_H-M	'P1'
_symmetry_Int_Tables_number	1
_symmetry_cell_setting	triclinic
loop_
_symmetry_equiv_pos_as_xyz
  x,y,z
_cell_length_a	22.010155
_cell_length_b	14.853567
_cell_length_c	14.853567
_cell_angle_alpha	83.634930
_cell_angle_beta	90.008054
_cell_angle_gamma	89.994498
loop_
_atom_site_label
_atom_site_type_symbol
_atom_site_fract_x
_atom_site_fract_y
_atom_site_fract_z
O1	O	0.050478	-1.196371	-0.117692
O2	O	0.550478	-0.696371	0.382308
O3	O	0.050488	-0.933912	-0.131713
O4	O	0.550488	-0.433912	0.368287
O5	O	0.050484	-1.072152	0.006527
O6	O	0.550484	-0.572152	0.506527
O7	O	0.050481	-1.058131	-0.255932
O8	O	0.550481	-0.558131	0.244068
O9	O	-0.050566	-1.072127	0.006507
O10	O	0.449434	-0.572127	0.506507
O11	O	-0.050563	-0.933887	-0.131734
O12	O	0.449437	-0.433887	0.368266
O13	O	-0.050572	-1.196346	-0.117712
O14	O	0.449428	-0.696346	0.382288
Cu15	Cu	-0.059794	-1.065114	-0.124725
Cu16	Cu	0.440206	-0.565114	0.375275
Cu17	Cu	0.059710	-1.065144	-0.124700
Cu18	Cu	0.559710	-0.565144	0.375300
O19	O	-0.050569	-1.058106	-0.255953
O20	O	0.449431	-0.558106	0.244047
C21	C	-0.000036	-0.900311	-0.131088
C22	C	0.499964	-0.400311	0.368912
C23	C	-0.000032	-0.800227	-0.129184
C24	C	0.499968	-0.300227	0.370816
C25	C	-0.000039	-1.071504	0.040106
C26	C	0.499961	-0.571504	0.540106
C27	C	-0.000034	-1.069601	0.140189
C28	C	0.499966	-0.569601	0.640189
N29	N	-0.143847	-1.065100	-0.124742
N30	N	0.356153	-0.565100	0.375258
C31	C	-0.563627	-1.126360	-0.063496
C32	C	-0.063627	-0.626360	0.436504
C33	C	-0.627235	-1.126365	-0.063490
C34	C	-0.127235	-0.626365	0.436510
O35	O	-0.660128	-1.178414	-0.011429
O36	O	-0.160128	-0.678414	0.488571
N37	N	-0.659054	-1.065143	-0.124682
N38	N	-0.159054	-0.565143	0.375318
C39	C	-0.627261	-1.003908	-0.185877
C40	C	-0.127261	-0.503908	0.314123
O41	O	-0.660166	-0.951834	-0.237924
O42	O	-0.160166	-0.451834	0.262076
C43	C	-0.563655	-1.003900	-0.185878
C44	C	-0.063655	-0.503900	0.314122
C45	C	-0.531840	-1.065131	-0.124689
C46	C	-0.031840	-0.565131	0.375311
C47	C	-0.531812	-1.187586	-0.002311
C48	C	-0.031812	-0.687586	0.497689
C49	C	-0.468209	-1.187583	-0.002319
C50	C	0.031791	-0.687583	0.497681
C51	C	-0.436421	-1.126354	-0.063511
C52	C	0.063579	-0.626354	0.436489
C53	C	-0.468236	-1.065128	-0.124696
C54	C	0.031764	-0.565128	0.375304
C55	C	-0.531864	-0.942661	-0.247069
C56	C	-0.031864	-0.442661	0.252931
C57	C	-0.468253	-0.942658	-0.247064
C58	C	0.031747	-0.442658	0.252936
C59	C	-0.436438	-1.003889	-0.185875
C60	C	0.063562	-0.503889	0.314125
C61	C	-0.372845	-1.003896	-0.185897
C62	C	0.127155	-0.503896	0.314103
N63	N	-0.341027	-1.065117	-0.124705
N64	N	0.158973	-0.565117	0.375295
C65	C	-0.372815	-1.126346	-0.063513
C66	C	0.127185	-0.626346	0.436487
C67	C	-0.760839	-1.003928	-0.185869
C68	C	-0.260839	-0.503928	0.314131
C69	C	-0.824445	-1.003939	-0.185873
C70	C	-0.324445	-0.503939	0.314127
C71	C	-0.824414	-1.126395	-0.063485
C72	C	-0.324414	-0.626395	0.436515
C73	C	-0.760807	-1.126387	-0.063486
C74	C	-0.260807	-0.626387	0.436514
C75	C	-0.729021	-1.065149	-0.124678
C76	C	-0.229021	-0.565149	0.375322
C77	C	-0.239243	-1.126335	-0.063534
C78	C	0.260757	-0.626335	0.436466
C79	C	-0.175634	-1.126329	-0.063549
C80	C	0.324366	-0.626329	0.436451
C81	C	-0.175671	-1.003870	-0.185934
C82	C	0.324329	-0.503870	0.314066
C83	C	-0.239274	-1.003879	-0.185922
C84	C	0.260726	-0.503879	0.314078
C85	C	-0.271059	-1.065115	-0.124714
C86	C	0.228941	-0.565115	0.375286
O87	O	-0.339912	-0.951870	-0.237929
O88	O	0.160088	-0.451870	0.262071
O89	O	-0.339902	-1.178403	-0.011466
O90	O	0.160098	-0.678403	0.488534
N91	N	0.143762	-1.065165	-0.124677
N92	N	0.643762	-0.565165	0.375323
C93	C	-0.000047	-1.229947	-0.118337
C94	C	0.499953	-0.729947	0.381663
C95	C	-0.000047	-1.330031	-0.120241
C96	C	0.499953	-0.830031	0.379759
C97	C	-0.000045	-0.387693	-0.039019
C98	C	0.499955	0.112307	0.460981
C99	C	-0.000046	-0.366412	-0.203251
C100	C	0.499954	0.133588	0.296749
C101	C	-0.000044	-0.460446	-0.205042
C102	C	0.499956	0.039554	0.294958
C103	C	-0.000041	-0.518108	-0.123819
C104	C	0.499959	-0.018108	0.376181
C105	C	-0.000041	-0.481736	-0.040806
C106	C	0.499959	0.018264	0.459194
C107	C	-0.000039	-0.496825	-0.288053
C108	C	0.499961	0.003175	0.211947
C109	C	-0.000036	-0.590864	-0.289846
C110	C	0.499964	-0.090864	0.210154
C111	C	-0.000038	-0.648528	-0.208623
C112	C	0.499962	-0.148528	0.291377
C113	C	-0.000038	-0.612150	-0.125607
C114	C	0.499962	-0.112150	0.374393
C115	C	-0.000035	-0.669812	-0.044384
C116	C	0.499965	-0.169812	0.455616
C117	C	-0.000040	-0.633437	0.038633
C118	C	0.499960	-0.133437	0.538633
C119	C	-0.000043	-0.539399	0.040417
C120	C	0.499957	-0.039399	0.540417
C121	C	-0.000035	-0.742565	-0.210407
C122	C	0.499965	-0.242565	0.289593
C123	C	-0.000031	-0.763855	-0.046172
C124	C	0.499969	-0.263855	0.453828
C125	C	-0.000044	-1.058754	-0.289531
C126	C	0.499956	-0.558754	0.210469
C127	C	-0.000046	-1.060657	-0.389615
C128	C	0.499954	-0.560657	0.110385
C129	C	-0.000042	-0.979435	0.552723
C130	C	0.499958	-0.479435	1.052723
C131	C	-0.000048	-1.143668	0.574004
C132	C	0.499952	-0.643668	1.074004
C133	C	-0.000044	-1.145458	0.479970
C134	C	0.499956	-0.645458	0.979970
C135	C	-0.000040	-1.064235	0.422309
C136	C	0.499960	-0.564235	0.922309
C137	C	-0.000040	-0.981223	0.458680
C138	C	0.499960	-0.481223	0.958680
C139	C	-0.000051	-1.228469	0.443591
C140	C	0.499949	-0.728469	0.943591
C141	C	-0.000048	-1.230262	0.349552
C142	C	0.499952	-0.730262	0.849552
C143	C	-0.000040	-1.149039	0.291889
C144	C	0.499960	-0.649039	0.791889
C145	C	-0.000039	-1.066023	0.328266
C146	C	0.499961	-0.566023	0.828266
C147	C	-0.000035	-0.984800	0.270604
C148	C	0.499965	-0.484800	0.770604
C149	C	-0.000030	-0.901783	0.306979
C150	C	0.499970	-0.401783	0.806979
C151	C	-0.000032	-0.899999	0.401017
C152	C	0.499968	-0.399999	0.901017
C153	C	-0.000037	-1.150823	0.197851
C154	C	0.499963	-0.650823	0.697851
C155	C	-0.000033	-0.986588	0.176561
C156	C	0.499967	-0.486588	0.676561
H157	H	-0.265115	-1.176198	-0.013692
H158	H	0.234885	-0.676198	0.486308
H159	H	-0.557759	-0.892801	-0.296894
H160	H	-0.057759	-0.392801	0.203106
N161	N	-0.726494	-1.192428	0.002510
N162	N	-0.226494	-0.692428	0.502510
H163	H	-0.756289	-1.231216	0.041271
H164	H	-0.256289	-0.731216	0.541271
H165	H	-0.700105	-1.157868	0.042435
H166	H	-0.200105	-0.657868	0.542435
N167	N	-0.000044	-0.304226	-0.290852
N168	N	0.499956	0.195774	0.209148
H169	H	0.037416	-0.264742	-0.293758
H170	H	0.537416	0.235258	0.206242
H171	H	-0.037528	-0.264787	-0.293725
H172	H	0.462472	0.235213	0.206275
N173	N	-0.000046	-1.319801	0.310331
N174	N	0.499954	-0.819801	0.810331
H175	H	0.037416	-1.324212	0.271804
H176	H	0.537416	-0.824212	0.771804
H177	H	-0.037527	-1.324147	0.271821
H178	H	0.462473	-0.824147	0.771821
H179	H	-0.149779	-0.954021	-0.235759
H180	H	0.350221	-0.454021	0.264241
N181	N	-0.000066	-1.316068	0.505780
N182	N	0.499934	-0.816068	1.005780
H183	H	-0.000065	-1.302337	0.570871
H184	H	0.499935	-0.802337	1.070871
H185	H	0.037390	-1.352258	0.494004
H186	H	0.537390	-0.852258	0.994004
N187	N	-0.858709	-1.192438	0.002513
N188	N	-0.358709	-0.692438	0.502513
H189	H	-0.847638	-1.256431	-0.007995
H190	H	-0.347638	-0.756431	0.492005
H191	H	-0.903818	-1.183063	-0.006816
H192	H	-0.403818	-0.683063	0.493184
N193	N	-0.000032	-0.695632	0.126236
N194	N	0.499968	-0.195632	0.626236
H195	H	-0.000027	-0.760722	0.112500
H196	H	0.499973	-0.260722	0.612500
H197	H	-0.037495	-0.683848	0.162399
H198	H	0.462505	-0.183848	0.662399
H199	H	-0.442376	-0.892788	-0.296893
H200	H	0.057624	-0.392788	0.203107
H201	H	-0.265179	-0.954028	-0.235757
H202	H	0.234821	-0.454028	0.264243
N203	N	-0.000029	-0.810466	0.440249
N204	N	0.499971	-0.310466	0.940249
H205	H	-0.000034	-0.821661	0.508571
H206	H	0.499966	-0.321661	1.008571
H207	H	-0.037488	-0.774912	0.419152
H208	H	0.462512	-0.274912	0.919152
N209	N	-0.000050	-1.240350	0.158615
N210	N	0.499950	-0.740350	0.658615
H211	H	-0.000056	-1.291533	0.209413
H212	H	0.499944	-0.791533	0.709413
H213	H	0.037412	-1.244685	0.120074
H214	H	0.537412	-0.744685	0.620074
N215	N	-0.000052	-1.231262	0.636201
N216	N	0.499948	-0.731262	1.136201
H217	H	0.037408	-1.267482	0.624503
H218	H	0.537408	-0.767482	1.124503
H219	H	-0.037536	-1.267396	0.624451
H220	H	0.462464	-0.767396	1.124451
H221	H	-0.850344	-0.954088	-0.235708
H222	H	-0.350344	-0.454088	0.264292
H223	H	-0.000061	-0.509774	0.108005
H224	H	0.499939	-0.009774	0.608005
H225	H	-0.000035	-0.911844	0.582344
H226	H	0.499965	-0.411844	1.082344
H227	H	-0.000051	-0.358072	0.028572
H228	H	0.499949	0.141928	0.528572
N229	N	-0.000027	-0.814189	0.244771
N230	N	0.499973	-0.314189	0.744771
H231	H	0.037434	-0.777982	0.256480
H232	H	0.537434	-0.277982	0.756480
H233	H	-0.037510	-0.778036	0.256499
H234	H	0.462490	-0.278036	0.756499
H235	H	-0.000032	-0.620472	-0.357443
H236	H	0.499968	-0.120472	0.142557
H237	H	-0.000032	-0.772178	-0.277998
H238	H	0.499968	-0.272178	0.222002
H239	H	-0.442308	-1.237440	0.047509
H240	H	0.057692	-0.737440	0.547509
N241	N	-0.141319	-1.192376	0.002448
N242	N	0.358681	-0.692376	0.502448
H243	H	-0.171112	-1.231161	0.041214
H244	H	0.328888	-0.731161	0.541214
H245	H	-0.114925	-1.157817	0.042367
H246	H	0.385075	-0.657817	0.542367
H247	H	-0.734962	-0.954062	-0.235706
H248	H	-0.234962	-0.454062	0.264294
H249	H	-0.000034	-0.449870	-0.354180
H250	H	0.499966	0.050130	0.145820
N251	N	-0.566091	-1.253645	0.063681
N252	N	-0.066091	-0.753645	0.563681
H253	H	-0.536276	-1.292429	0.102430
H254	H	-0.036276	-0.792429	0.602430
H255	H	-0.592472	-1.293541	0.029077
H256	H	-0.092472	-0.793541	0.529077
N257	N	-0.000024	-0.898982	0.114371
N258	N	0.499976	-0.398982	0.614371
H259	H	-0.000020	-0.846125	0.151686
H260	H	0.499980	-0.346125	0.651686
H261	H	-0.037485	-0.896133	0.074882
H262	H	0.462515	-0.396133	0.574882
H263	H	-0.000032	-0.810798	0.019971
H264	H	0.499968	-0.310798	0.519971
