data_functionalizedCrystal
_audit_creation_method	'MofGen! by Chris Wilmer'
_symmetry_space_group_name_H-M	'P1'
_symmetry_Int_Tables_number	1
_symmetry_cell_setting	triclinic
loop_
_symmetry_equiv_pos_as_xyz
  x,y,z
_cell_length_a	17.000371
_cell_length_b	17.038272
_cell_length_c	13.930277
_cell_angle_alpha	89.995405
_cell_angle_beta	89.992357
_cell_angle_gamma	83.355402
loop_
_atom_site_label
_atom_site_type_symbol
_atom_site_fract_x
_atom_site_fract_y
_atom_site_fract_z
O1	O	1.058005	0.028042	-0.079835
O2	O	0.828184	0.056287	-0.079837
O3	O	0.941729	-0.071558	-0.079828
O4	O	0.944460	0.155886	-0.079843
O5	O	0.941712	-0.071559	0.079834
O6	O	0.828167	0.056285	0.079825
O7	O	1.057988	0.028040	0.079827
Zn8	Zn	0.943075	0.042163	0.105176
Zn9	Zn	0.943097	0.042164	-0.105186
O10	O	0.944443	0.155885	0.079818
C11	C	0.798625	0.057803	-0.000006
C12	C	0.710572	0.062314	-0.000006
C13	C	0.673845	-0.007108	0.000000
C14	C	0.591110	-0.002864	-0.000007
C15	C	0.545102	0.070802	-0.000014
C16	C	0.581834	0.140229	-0.000023
C17	C	0.664568	0.135985	-0.000022
C18	C	0.295066	0.087196	-0.000021
C19	C	0.212327	0.091434	-0.000019
C20	C	0.221608	-0.051659	-0.000004
C21	C	0.304344	-0.055897	0.000002
C22	C	0.341068	0.013530	-0.000013
C23	C	0.460533	0.075141	-0.000018
C24	C	0.425636	0.009190	-0.000015
C25	C	0.939235	-0.100516	0.000003
C26	C	0.931823	-0.186802	0.000002
C27	C	0.999881	-0.241577	0.000004
C28	C	0.992911	-0.322650	-0.000006
C29	C	0.917882	-0.348946	-0.000009
C30	C	0.849819	-0.294164	-0.000014
C31	C	0.856789	-0.213093	-0.000011
C32	C	0.893256	-0.593018	-0.000023
C33	C	0.886291	-0.674096	-0.000022
C34	C	1.029384	-0.702577	-0.000016
C35	C	1.036348	-0.621502	-0.000008
C36	C	0.968285	-0.566727	-0.000017
C37	C	0.910756	-0.431816	-0.000016
C38	C	0.975411	-0.483859	-0.000018
C39	C	1.087547	0.026524	-0.000006
C40	C	1.175600	0.022013	-0.000012
C41	C	0.946936	0.184843	-0.000015
C42	C	0.954349	0.271129	-0.000021
N43	N	0.943065	0.042160	0.248742
N44	N	0.943113	0.042160	-0.248752
C45	C	0.892816	0.098753	0.701007
C46	C	0.993399	-0.014432	0.700984
C47	C	0.993390	-0.014434	0.600488
C48	C	0.943094	0.042159	0.550248
C49	C	0.892807	0.098755	0.600502
C50	C	1.043681	-0.071023	0.550226
C51	C	1.043674	-0.071027	0.449724
C52	C	0.993374	-0.014436	0.399482
C53	C	0.943084	0.042161	0.449743
C54	C	0.892788	0.098754	0.399502
C55	C	0.842494	0.155348	0.449761
C56	C	0.842506	0.155345	0.550260
C57	C	0.993361	-0.014433	0.298983
C58	C	0.892778	0.098756	0.298997
H59	H	0.711300	-0.067095	0.000010
C60	C	0.855367	0.236657	0.268057
C61	C	0.837492	0.160967	0.243774
H62	H	0.821239	0.275062	0.233960
H63	H	0.848171	0.244747	0.335096
H64	H	0.908813	0.241496	0.251568
H65	H	0.784048	0.156127	0.260270
H66	H	0.844682	0.152875	0.176721
H67	H	0.324957	0.143728	-0.000039
C68	C	1.104568	-0.810260	-0.082099
C69	C	1.104197	-0.762786	-0.000019
H70	H	1.150760	-0.847426	-0.082105
H71	H	1.058893	-0.837522	-0.082092
H72	H	1.104315	-0.778027	-0.137768
H73	H	1.104444	-0.795018	0.055650
H74	H	1.149884	-0.735522	-0.000018
H75	H	0.788728	-0.315581	-0.000023
C76	C	0.805085	0.293248	0.418805
C77	C	0.787212	0.217557	0.394528
H78	H	0.770960	0.331651	0.384698
H79	H	0.797881	0.301344	0.485841
H80	H	0.858533	0.298085	0.402323
H81	H	0.733765	0.212718	0.411016
H82	H	0.794409	0.209458	0.327476
H83	H	0.825190	-0.695502	-0.000009
H84	H	0.463099	-0.050788	-0.000015
C85	C	1.003410	-0.121498	0.185938
C86	C	1.048650	-0.076613	0.243721
H87	H	1.037550	-0.159879	0.151815
H88	H	0.968565	-0.147268	0.225151
H89	H	0.973444	-0.087786	0.141650
H90	H	1.078612	-0.110325	0.288015
H91	H	1.083510	-0.050842	0.204506
H92	H	0.544368	0.200209	-0.000035
C93	C	0.714649	-0.193079	-0.000010
C94	C	0.781977	-0.152880	-0.000010
H95	H	0.668463	-0.155905	-0.000008
H96	H	0.714914	-0.225288	-0.055684
H97	H	0.714904	-0.225297	0.055672
H98	H	0.781725	-0.120666	-0.055696
H99	H	0.781712	-0.120657	0.055669
C100	C	1.127186	-0.546859	0.082070
C101	C	1.118821	-0.592597	-0.000009
H102	H	1.178103	-0.529017	0.082072
H103	H	1.087651	-0.502640	0.082064
H104	H	1.121488	-0.577907	0.137740
H105	H	1.124513	-0.561546	-0.055679
H106	H	1.158367	-0.636822	-0.000011
C107	C	0.751117	-0.573021	-0.000006
C108	C	0.818441	-0.532816	-0.000014
H109	H	0.704928	-0.535851	0.000007
H110	H	0.751378	-0.605227	-0.055683
H111	H	0.751382	-0.605244	0.055673
H112	H	0.818180	-0.500598	-0.055698
H113	H	0.818180	-0.500597	0.055668
H114	H	1.084635	-0.117096	0.591135
H115	H	1.084625	-0.117109	0.408809
H116	H	0.801559	0.201423	0.591187
H117	H	0.694469	0.192515	-0.000023
C118	C	1.066265	-0.409201	-0.082085
C119	C	1.057881	-0.454954	-0.000013
H120	H	1.117176	-0.391348	-0.082074
H121	H	1.060590	-0.440236	-0.137753
H122	H	1.026719	-0.364982	-0.082079
H123	H	1.097424	-0.499176	-0.000022
H124	H	1.063564	-0.423918	0.055670
H125	H	1.034353	-0.060505	0.741893
C126	C	0.503475	-0.081114	-0.082084
C127	C	0.550745	-0.079178	-0.000002
H128	H	0.478562	-0.128233	-0.082084
H129	H	0.464235	-0.036643	-0.082084
H130	H	0.535576	-0.079792	-0.137752
H131	H	0.518644	-0.080494	0.055666
H132	H	0.589990	-0.123661	0.000006
H133	H	0.849667	-0.453235	-0.000016
H134	H	0.851865	0.144829	0.741931
C135	C	0.459661	0.216160	-0.000026
C136	C	0.409959	0.156115	-0.000023
H137	H	0.428435	0.266148	-0.000037
H138	H	0.492112	0.211532	0.055651
H139	H	0.492134	0.211526	-0.055704
H140	H	0.377489	0.160744	0.055660
H141	H	0.377494	0.160744	-0.055705
C142	C	0.305205	-0.196913	0.000011
C143	C	0.354913	-0.136873	0.000008
H144	H	0.336426	-0.246903	0.000014
H145	H	0.272736	-0.192280	0.055683
H146	H	0.272748	-0.192279	-0.055672
H147	H	0.387365	-0.141503	0.055696
H148	H	0.387395	-0.141508	-0.055669
C149	C	1.140620	-0.277881	-0.000007
C150	C	1.082357	-0.212677	0.000001
H151	H	1.191538	-0.260039	-0.000018
H152	H	1.134923	-0.308910	0.055668
H153	H	1.134921	-0.308906	-0.055688
H154	H	1.088052	-0.181655	0.055686
H155	H	1.088056	-0.181635	-0.055680
H156	H	0.191698	-0.108182	-0.000004
H157	H	0.174868	0.151425	-0.000019
H158	H	1.048332	-0.367246	-0.000002
