data_functionalizedCrystal
_audit_creation_method	'MofGen! by Chris Wilmer'
_symmetry_space_group_name_H-M	'P1'
_symmetry_Int_Tables_number	1
_symmetry_cell_setting	triclinic
loop_
_symmetry_equiv_pos_as_xyz
  x,y,z
_cell_length_a	15.995343
_cell_length_b	14.971486
_cell_length_c	13.448316
_cell_angle_alpha	90.006811
_cell_angle_beta	89.997560
_cell_angle_gamma	96.448344
loop_
_atom_site_label
_atom_site_type_symbol
_atom_site_fract_x
_atom_site_fract_y
_atom_site_fract_z
O1	O	1.111108	-0.115262	-0.082593
O2	O	0.867346	-0.129507	-0.082616
O3	O	0.995760	0.007823	-0.082597
O4	O	0.982693	-0.252592	-0.082612
O5	O	0.995744	0.007832	0.082787
O6	O	0.867329	-0.129498	0.082767
O7	O	1.111091	-0.115254	0.082791
Cu8	Cu	0.989209	-0.122375	0.097880
Cu9	Cu	0.989228	-0.122385	-0.097705
O10	O	0.982677	-0.252584	0.082772
C11	C	0.836142	-0.128915	0.000072
C12	C	0.743190	-0.127153	0.000063
C13	C	0.573000	-0.123955	0.000077
C14	C	0.549555	-0.024824	0.000083
C15	C	0.452875	-0.022959	0.000464
C16	C	0.405437	-0.120806	0.000089
C17	C	0.434569	-0.170645	0.094341
C18	C	0.531363	-0.171821	0.094414
C19	C	0.531293	-0.173282	-0.093665
C20	C	0.434795	-0.169623	-0.094898
C21	C	0.310737	-0.119031	0.000099
C22	C	0.667700	-0.125733	0.000073
C23	C	0.995168	0.041151	0.000095
C24	C	0.993416	0.140446	0.000094
C25	C	1.142295	-0.115846	0.000100
C26	C	1.235247	-0.117608	0.000103
C27	C	0.983269	-0.285912	0.000078
C28	C	0.985021	-0.385207	0.000072
N29	N	0.989202	-0.122368	0.235444
C30	C	1.068856	0.197760	0.000102
C31	C	1.067206	0.291058	0.000092
C32	C	0.990115	0.327040	0.000080
C33	C	0.914669	0.269719	0.000069
C34	C	0.916320	0.176423	0.000072
C35	C	0.911232	0.464177	0.000065
C36	C	0.909581	0.557479	0.000064
C37	C	1.062118	0.578812	0.000085
C38	C	1.063769	0.485516	0.000088
C39	C	0.988323	0.428201	0.000078
N40	N	0.989242	-0.122386	-0.235270
C41	C	1.046081	-0.061583	0.287494
C42	C	1.046086	-0.061582	0.391597
C43	C	0.989215	-0.122371	0.443649
C44	C	0.932330	-0.183159	0.391593
C45	C	0.932321	-0.183155	0.287491
C46	C	0.932353	-0.183165	0.608573
C47	C	0.932362	-0.183171	0.712681
C48	C	1.046118	-0.061593	0.712678
C49	C	1.046110	-0.061588	0.608577
C50	C	0.989225	-0.122377	0.556528
H51	H	0.433823	0.016056	-0.067086
H52	H	0.545380	-0.246249	-0.094578
C53	C	0.824785	0.597063	0.000048
H54	H	0.834610	0.660835	0.000060
H55	H	0.793725	0.577389	-0.057631
H56	H	0.793710	0.577396	0.057723
H57	H	0.402795	-0.242657	0.097577
C58	C	0.833336	0.113378	0.000066
H59	H	0.787187	0.148168	0.000067
H60	H	0.830817	0.076533	-0.057606
H61	H	0.830804	0.076547	0.057747
H62	H	0.886051	-0.232670	0.755057
H63	H	1.123549	0.625482	0.000089
C64	C	0.828243	0.401133	0.000057
H65	H	0.782093	0.435923	0.000060
H66	H	0.825720	0.364286	-0.057614
H67	H	0.825714	0.364304	0.057739
H68	H	1.128637	0.337719	0.000100
C69	C	1.148567	0.445937	0.000098
H70	H	1.193264	0.493432	0.000093
H71	H	1.152376	0.409990	0.057770
H72	H	1.152382	0.409981	-0.057583
H73	H	0.851900	0.299022	0.000054
C74	C	1.153656	0.158184	0.000117
H75	H	1.143837	0.094411	0.000128
H76	H	1.184730	0.177850	-0.057552
H77	H	1.184713	0.177866	0.057802
C78	C	1.108662	0.005272	0.448847
H79	H	1.142539	0.041467	0.402937
H80	H	1.078521	0.042530	0.489471
H81	H	1.143547	-0.026940	0.489441
C82	C	1.108639	0.005287	0.230245
H83	H	1.142509	0.041494	0.276157
H84	H	1.143520	-0.026905	0.189621
H85	H	1.078475	0.042544	0.189650
C86	C	1.108684	0.005281	0.769928
H87	H	1.100538	-0.003417	0.839381
H88	H	1.164571	-0.004465	0.752859
H89	H	1.099527	0.064986	0.752874
C90	C	0.551154	-0.270022	0.099839
H91	H	0.500057	-0.309020	0.101998
H92	H	0.582535	-0.283424	0.042839
H93	H	0.583068	-0.278205	0.158049
H94	H	1.092422	-0.012094	0.566196
H95	H	0.886020	-0.232652	0.433980
H96	H	0.886003	-0.232651	0.245114
H97	H	0.558108	-0.137701	0.165140
C98	C	0.407382	-0.124444	0.189467
H99	H	0.425297	-0.155098	0.246106
H100	H	0.432217	-0.063761	0.190548
H101	H	0.347850	-0.125984	0.190439
C102	C	0.587367	0.027092	-0.091191
H103	H	0.617794	-0.011219	-0.130121
H104	H	0.543407	0.046942	-0.130016
H105	H	0.624253	0.077581	-0.069739
C106	C	0.588641	0.026245	0.091260
H107	H	0.619184	-0.012585	0.129325
H108	H	0.625598	0.076643	0.069738
H109	H	0.545248	0.046169	0.130980
C110	C	0.409677	-0.120603	-0.189098
H111	H	0.381412	-0.070597	-0.170628
H112	H	0.458730	-0.100267	-0.226106
H113	H	0.373372	-0.160704	-0.228669
H114	H	0.434393	0.015880	0.068427
C115	C	0.569440	-0.131038	-0.190208
H116	H	0.543405	-0.161785	-0.245871
H117	H	0.560298	-0.069479	-0.192874
H118	H	0.628158	-0.135800	-0.191442
C119	C	0.390397	-0.266083	-0.102972
H120	H	0.353214	-0.277901	-0.048271
H121	H	0.359365	-0.272345	-0.163272
H122	H	0.431229	-0.307519	-0.102328
H123	H	0.886029	-0.232663	0.566198
