data_functionalizedCrystal
_audit_creation_method	'MofGen! by Chris Wilmer'
_symmetry_space_group_name_H-M	'P1'
_symmetry_Int_Tables_number	1
_symmetry_cell_setting	triclinic
loop_
_symmetry_equiv_pos_as_xyz
  x,y,z
_cell_length_a	9.616153
_cell_length_b	16.109301
_cell_length_c	16.109301
_cell_angle_alpha	96.538519
_cell_angle_beta	90.008907
_cell_angle_gamma	90.002830
loop_
_atom_site_label
_atom_site_type_symbol
_atom_site_fract_x
_atom_site_fract_y
_atom_site_fract_z
O1	O	-0.115650	1.103123	-0.106871
O2	O	-0.115653	0.861061	-0.120171
O3	O	-0.115637	0.988741	0.007510
O4	O	-0.115666	0.975442	-0.234552
O5	O	0.115654	0.988749	0.007523
O6	O	0.115638	0.861068	-0.120158
O7	O	0.115642	1.103130	-0.106859
Zn8	Zn	0.152363	0.982100	-0.113506
Zn9	Zn	-0.152374	0.982090	-0.113523
O10	O	0.115626	0.975450	-0.234539
C11	C	-0.000008	0.830090	-0.119626
C12	C	-0.000008	0.737794	-0.118011
N13	N	-0.360348	0.982084	-0.113528
C14	C	0.000009	0.988206	0.038491
C15	C	0.000011	0.986591	0.130786
C16	C	-0.580727	0.913866	-0.181892
C17	C	-0.419559	0.913607	-0.181736
C18	C	-0.418812	0.963388	-0.026712
C19	C	-0.580030	0.962914	-0.027093
C20	C	-0.580237	1.069256	-0.131141
C21	C	-0.419010	1.068658	-0.133132
N22	N	0.360337	0.982113	-0.113495
C23	C	-0.000007	1.134101	-0.107404
C24	C	-0.000015	1.226397	-0.109019
C25	C	0.000000	1.448669	-0.037011
C26	C	0.000005	1.535389	-0.038535
C27	C	-0.000020	1.515515	-0.190024
C28	C	-0.000014	1.428796	-0.188499
C29	C	-0.000012	1.395376	-0.111990
C30	C	-0.000012	1.568815	-0.115039
C31	C	-0.000007	1.662841	-0.116692
C32	C	-0.000014	1.301344	-0.110337
C33	C	-0.000024	0.975984	-0.265521
C34	C	-0.000035	0.977600	-0.357816
C35	C	-0.000010	1.058599	0.353059
C36	C	-0.000021	1.057075	0.439779
C37	C	-0.000018	0.905586	0.419905
C38	C	-0.000016	0.907111	0.333186
C39	C	-0.000005	0.983620	0.299766
C40	C	-0.000018	0.980571	0.473205
C41	C	-0.000031	0.978918	0.567231
C42	C	0.000005	0.985273	0.205734
H43	H	-0.380034	0.924706	-0.246263
O44	O	-0.629211	0.837145	-0.168733
C45	C	-0.705319	0.802729	-0.239197
H46	H	-0.743954	0.855124	-0.275259
H47	H	-0.635546	0.758884	-0.281277
C48	C	-0.783067	0.689231	-0.166320
C49	C	-0.830529	0.753584	-0.210608
H50	H	-0.860299	0.658913	-0.148686
H51	H	-0.731788	0.712416	-0.118847
H52	H	-0.724923	0.652703	-0.201393
H53	H	-0.888658	0.790116	-0.175532
H54	H	-0.881822	0.730404	-0.258074
O55	O	-0.000265	0.831249	0.452333
C56	C	-0.120034	0.785528	0.425070
H57	H	-0.203761	0.830260	0.407037
H58	H	-0.092951	0.739185	0.368542
C59	C	-0.071513	0.682818	0.518162
C60	C	-0.174352	0.737760	0.496019
H61	H	-0.105016	0.653350	0.561924
H62	H	0.009181	0.713620	0.536527
H63	H	-0.048953	0.644207	0.471048
H64	H	-0.196898	0.776377	0.543129
H65	H	-0.255051	0.706964	0.477663
H66	H	0.000017	1.578778	0.022520
O67	O	-0.000258	0.834294	0.281377
C68	C	-0.120030	0.830651	0.230597
H69	H	-0.203754	0.873169	0.262364
H70	H	-0.092950	0.852160	0.167548
C71	C	-0.071517	0.687959	0.178367
C72	C	-0.174352	0.740175	0.217387
H73	H	-0.105023	0.632150	0.170215
H74	H	0.009179	0.690414	0.212576
H75	H	-0.048960	0.705893	0.125830
H76	H	-0.196896	0.722247	0.269927
H77	H	-0.255054	0.737716	0.183186
H78	H	-0.619530	0.924788	-0.246626
O79	O	0.000024	1.547844	-0.264413
C80	C	-0.000020	1.482207	-0.330265
H81	H	0.043782	1.423307	-0.306973
H82	H	-0.110987	1.469920	-0.353393
C83	C	0.036863	1.579011	-0.431029
C84	C	0.090673	1.506671	-0.402422
H85	H	0.092801	1.594102	-0.475541
H86	H	0.036888	1.623233	-0.386664
H87	H	-0.055608	1.568763	-0.450296
H88	H	0.183136	1.516923	-0.383146
H89	H	0.090666	1.462451	-0.446786
H90	H	-0.380996	0.848928	-0.170450
O91	O	0.000215	1.376986	-0.261316
C92	C	0.119987	1.326222	-0.264951
H93	H	0.203720	1.358002	-0.222429
H94	H	0.092913	1.263170	-0.243441
C95	C	0.071441	1.273981	-0.407644
C96	C	0.174288	1.313017	-0.355423
H97	H	0.104934	1.265831	-0.463451
H98	H	-0.009255	1.308179	-0.405194
H99	H	0.048889	1.221442	-0.389709
H100	H	0.196826	1.365559	-0.373352
H101	H	0.254989	1.278827	-0.357877
H102	H	-0.380455	1.011777	0.025408
O103	O	-0.373260	1.085485	-0.209322
C104	C	-0.288639	1.019273	-0.244803
H105	H	-0.244846	0.984078	-0.193114
H106	H	-0.353248	0.974801	-0.289484
C107	C	-0.221872	1.097790	-0.356513
C108	C	-0.168075	1.054567	-0.293027
H109	H	-0.147506	1.119559	-0.386263
H110	H	-0.278886	1.142397	-0.332611
H111	H	-0.275712	1.060723	-0.393738
H112	H	-0.114251	1.091637	-0.255797
H113	H	-0.111049	1.009967	-0.316924
H114	H	-0.617635	0.899368	-0.011574
O115	O	-0.000199	1.132864	0.320494
C116	C	-0.120004	1.138278	0.270931
H117	H	-0.159932	1.072740	0.249307
H118	H	-0.203890	1.175060	0.309247
C119	C	-0.034582	1.263529	0.220801
C120	C	-0.083615	1.183034	0.194236
H121	H	-0.012140	1.291140	0.173494
H122	H	0.046131	1.259884	0.254195
H123	H	-0.104495	1.294170	0.252731
H124	H	-0.013697	1.152390	0.162316
H125	H	-0.164316	1.186674	0.160835
H126	H	0.000006	1.421461	0.025287
O127	O	-0.370854	1.131957	-0.077491
C128	C	-0.282585	1.099201	-0.019369
H129	H	-0.308449	1.030513	-0.016573
H130	H	-0.169736	1.105221	-0.039525
C131	C	-0.271898	1.232434	0.064137
C132	C	-0.303673	1.148073	0.067576
H133	H	-0.284900	1.262582	0.117768
H134	H	-0.331362	1.254504	0.024978
H135	H	-0.177859	1.237440	0.047337
H136	H	-0.397715	1.143068	0.084366
H137	H	-0.244225	1.126003	0.106740
H138	H	-0.619014	1.010744	0.025342
H139	H	-0.378428	0.900566	-0.010822
H140	H	-0.618353	1.120041	-0.081267
O141	O	-0.628840	1.090625	-0.205095
C142	C	-0.717449	1.027111	-0.242023
H143	H	-0.691519	0.965757	-0.216564
H144	H	-0.830172	1.044620	-0.226702
C145	C	-0.728845	1.092317	-0.368719
C146	C	-0.696990	1.016959	-0.337454
H147	H	-0.716231	1.086056	-0.427586
H148	H	-0.669152	1.135109	-0.343839
H149	H	-0.822780	1.106899	-0.355943
H150	H	-0.603052	1.002383	-0.350221
H151	H	-0.756667	0.974164	-0.362339
H152	H	-0.000028	1.118130	0.483168
