data_functionalizedCrystal
_audit_creation_method	'MofGen! by Chris Wilmer'
_symmetry_space_group_name_H-M	'P1'
_symmetry_Int_Tables_number	1
_symmetry_cell_setting	triclinic
loop_
_symmetry_equiv_pos_as_xyz
  x,y,z
_cell_length_a	18.215407
_cell_length_b	16.625546
_cell_length_c	18.215399
_cell_angle_alpha	89.968415
_cell_angle_beta	89.985195
_cell_angle_gamma	90.016981
loop_
_atom_site_label
_atom_site_type_symbol
_atom_site_fract_x
_atom_site_fract_y
_atom_site_fract_z
Zn1	Zn	1.125062	-0.321109	-0.416070
Zn2	Zn	1.124982	-0.455955	-0.293001
Zn3	Zn	1.002001	-0.321127	-0.293022
Zn4	Zn	1.001966	-0.455890	-0.416030
O5	O	1.063503	-0.388520	-0.354531
O6	O	1.228036	-0.339016	-0.399753
O7	O	1.108650	-0.438104	-0.190019
O8	O	1.018374	-0.208292	-0.309369
O9	O	1.227977	-0.438087	-0.309334
O10	O	1.108786	-0.208279	-0.399773
O11	O	1.018297	-0.339047	-0.190035
O12	O	0.899013	-0.338984	-0.309331
O13	O	1.018314	-0.437977	-0.519020
O14	O	0.898987	-0.437994	-0.399705
O15	O	1.108752	-0.338953	-0.519049
O16	O	1.108616	-0.568779	-0.309296
O17	O	1.018236	-0.568731	-0.399685
C18	C	0.872297	-0.388485	-0.354516
C19	C	0.790498	-0.388489	-0.354528
C20	C	0.525465	-0.337033	-0.401686
C21	C	0.602324	-0.337020	-0.401684
C22	C	0.602282	-0.440033	-0.307391
C23	C	0.525425	-0.440050	-0.307398
C24	C	0.487018	-0.388545	-0.354544
C25	C	0.640734	-0.388516	-0.354535
C26	C	0.724068	-0.388502	-0.354532
C27	C	0.403679	-0.388560	-0.354548
C28	C	1.063433	-0.598011	-0.354500
C29	C	1.063471	-0.687632	-0.354511
C30	C	1.063599	-1.015808	-0.354588
C31	C	1.063561	-0.924499	-0.354569
C32	C	1.063535	-0.851723	-0.354549
C33	C	1.063498	-0.760409	-0.354531
C34	C	1.255456	-0.388556	-0.354546
C35	C	1.337255	-0.388572	-0.354552
C36	C	1.063538	-0.388456	-0.546484
C37	C	1.063553	-0.388428	-0.628283
C38	C	1.063593	-0.178211	-0.354578
C39	C	1.063631	-0.088590	-0.354598
C40	C	1.016545	-0.336814	-0.816485
C41	C	1.016558	-0.336798	-0.893344
C42	C	1.110648	-0.439946	-0.893318
C43	C	1.110631	-0.439966	-0.816460
C44	C	1.063581	-0.388395	-0.778046
C45	C	1.063611	-0.388359	-0.931762
C46	C	1.063625	-0.388342	-1.015096
C47	C	1.063565	-0.388413	-0.694707
C48	C	1.063511	-0.388526	-0.163324
C49	C	1.063639	-0.388326	-0.081526
H50	H	0.633624	-0.295075	-0.440073
H51	H	0.494120	-0.482001	-0.269008
N52	N	1.158712	-0.492600	-0.932575
N53	N	1.205623	-0.464215	-0.975471
H54	H	1.239571	-0.501400	-1.003199
N55	N	0.968486	-0.284130	-0.777257
N56	N	0.926495	-0.238077	-0.811591
H57	H	0.892552	-0.200866	-0.783888
N58	N	0.968504	-0.284108	-0.932597
N59	N	0.926498	-0.238074	-0.898287
H60	H	0.892556	-0.200860	-0.926008
N61	N	1.158673	-0.492652	-0.777176
N62	N	1.132749	-0.544034	-0.734268
H63	H	1.166676	-0.581242	-0.706521
H64	H	0.494197	-0.295095	-0.440076
H65	H	0.633562	-0.481965	-0.269004
