data_functionalizedCrystal
_audit_creation_method	'MofGen! by Chris Wilmer'
_symmetry_space_group_name_H-M	'P1'
_symmetry_Int_Tables_number	1
_symmetry_cell_setting	triclinic
loop_
_symmetry_equiv_pos_as_xyz
  x,y,z
_cell_length_a	14.853569
_cell_length_b	15.625429
_cell_length_c	13.930277
_cell_angle_alpha	71.918299
_cell_angle_beta	89.994756
_cell_angle_gamma	83.949481
loop_
_atom_site_label
_atom_site_type_symbol
_atom_site_fract_x
_atom_site_fract_y
_atom_site_fract_z
O1	O	1.196368	0.117709	-0.120756
O2	O	0.933909	0.131728	-0.125647
O3	O	1.072149	-0.006509	-0.077520
O4	O	1.058129	0.255946	-0.168883
O5	O	1.072129	-0.006512	0.082142
O6	O	0.933890	0.131725	0.034015
O7	O	1.196349	0.117706	0.038907
Zn8	Zn	1.065116	0.124715	0.061811
Zn9	Zn	1.065142	0.124719	-0.148552
O10	O	1.058110	0.255943	-0.009220
C11	C	0.900311	0.131091	-0.045596
C12	C	0.800227	0.129187	-0.044938
C13	C	1.071503	-0.040099	0.014001
C14	C	1.069599	-0.140181	0.048834
C15	C	0.763850	0.046177	-0.016045
C16	C	0.742562	0.210407	-0.073204
C17	C	0.648527	0.208621	-0.072581
C18	C	0.612150	0.125611	-0.043688
C19	C	0.669807	0.044388	-0.015418
C20	C	0.590863	0.289843	-0.100840
C21	C	0.496823	0.288060	-0.100218
C22	C	0.460444	0.205049	-0.071331
C23	C	0.518108	0.123822	-0.043061
C24	C	0.481731	0.040813	-0.014168
C25	C	0.539392	-0.040415	0.014095
C26	C	0.633429	-0.038623	0.013468
C27	C	0.366408	0.203257	-0.070704
C28	C	0.387688	0.039024	-0.013542
C29	C	1.063362	-0.469333	-0.271730
C30	C	1.061569	-0.563375	-0.238970
C31	C	1.061548	-0.563364	-0.064916
C32	C	1.063346	-0.469321	-0.097662
C33	C	1.064252	-0.422312	-0.201070
C34	C	1.064236	-0.422301	-0.027002
C35	C	1.066029	-0.328265	-0.059746
C36	C	1.066932	-0.281249	-0.163150
C37	C	1.066045	-0.328277	-0.233814
C38	C	1.063323	-0.469310	0.076405
C39	C	1.064213	-0.422290	0.147065
C40	C	1.066013	-0.328253	0.114322
C41	C	1.066916	-0.281238	0.010918
C42	C	1.066900	-0.281226	0.184986
C43	C	1.068693	-0.187190	0.152242
C44	C	1.068709	-0.187202	-0.021826
C45	C	1.229947	0.118343	-0.041147
C46	C	1.330031	0.120247	-0.041811
C47	C	1.058755	0.289533	-0.100744
C48	C	1.060659	0.389615	-0.135583
N49	N	1.065106	0.124712	0.205378
N50	N	1.065160	0.124715	-0.292116
C51	C	1.003927	0.185906	0.636343
C52	C	1.126381	0.063524	0.678919
C53	C	1.126371	0.063521	0.578424
C54	C	1.065138	0.124713	0.506884
C55	C	1.003916	0.185907	0.535837
C56	C	1.187598	0.002334	0.549460
C57	C	1.187590	0.002330	0.448960
C58	C	1.126352	0.063518	0.377419
C59	C	1.065127	0.124714	0.406378
C60	C	1.003895	0.185905	0.334837
C61	C	0.942664	0.247098	0.363796
C62	C	0.942678	0.247095	0.464296
C63	C	1.126338	0.063520	0.276919
C64	C	1.003884	0.185906	0.234332
H65	H	0.358078	-0.028574	0.009982
H66	H	0.449882	0.354200	-0.123233
Cl67	Cl	0.865695	0.324027	0.273847
Cl68	Cl	0.865713	0.324020	0.500704
H69	H	0.772186	0.277990	-0.096721
H70	H	1.064108	-0.431057	-0.355935
H71	H	1.066791	-0.290001	-0.318019
Cl72	Cl	1.069817	-0.128075	0.241073
H73	H	1.061853	-0.545879	0.103061
H74	H	1.060836	-0.601654	-0.296518
H75	H	1.068382	-0.204678	-0.189809
Cl76	Cl	0.293924	0.305362	-0.106221
Cl77	Cl	0.926952	0.262828	0.672745
H78	H	0.620489	0.357425	-0.124357
H79	H	1.069455	-0.148926	-0.106030
Cl80	Cl	1.060401	-0.622468	0.065077
H81	H	1.063472	-0.460576	0.231260
H82	H	0.810802	-0.019956	0.006963
H83	H	0.954017	0.235733	0.176088
Cl84	Cl	1.065743	-0.340331	0.314979
Cl85	Cl	1.264579	-0.074583	0.639392
Cl86	Cl	1.203362	-0.013393	0.768850
H87	H	1.237446	-0.047497	0.425389
H88	H	0.680385	-0.104753	0.036481
H89	H	0.509762	-0.108001	0.037614
Cl90	Cl	1.203313	-0.013396	0.240516
