data_functionalizedCrystal
_audit_creation_method	'MofGen! by Chris Wilmer'
_symmetry_space_group_name_H-M	'P1'
_symmetry_Int_Tables_number	1
_symmetry_cell_setting	triclinic
loop_
_symmetry_equiv_pos_as_xyz
  x,y,z
_cell_length_a	10.540539
_cell_length_b	23.532407
_cell_length_c	9.616153
_cell_angle_alpha	89.993077
_cell_angle_beta	89.995174
_cell_angle_gamma	83.687085
loop_
_atom_site_label
_atom_site_type_symbol
_atom_site_fract_x
_atom_site_fract_y
_atom_site_fract_z
O1	O	1.683259	0.080251	-0.115596
O2	O	1.313597	0.087813	-0.115615
O3	O	1.509575	0.001174	-0.115579
O4	O	1.487281	0.166890	-0.115631
O5	O	1.509548	0.001176	0.115712
O6	O	1.313571	0.087814	0.115677
O7	O	1.683232	0.080253	0.115695
Zn8	Zn	1.498397	0.084034	0.152408
Zn9	Zn	1.498432	0.084032	-0.152328
O10	O	1.487254	0.166892	0.115660
C11	C	1.266300	0.087246	0.000029
C12	C	1.125407	0.085550	0.000023
C13	C	0.944114	0.020541	0.000583
C14	C	1.090676	0.022261	0.000047
C15	C	1.062750	0.116006	-0.132060
C16	C	0.916277	0.113846	-0.132156
C17	C	0.915716	0.115136	0.130865
C18	C	1.062678	0.115719	0.132597
C19	C	1.508994	-0.020045	0.000070
C20	C	1.507287	-0.083273	0.000080
C21	C	1.612557	-0.481681	0.000010
C22	C	1.610971	-0.541092	-0.000001
O23	O	1.708557	-0.577192	-0.000048
N24	N	1.494462	-0.564488	-0.000006
C25	C	1.379532	-0.528469	-0.000014
O26	O	1.280287	-0.553824	-0.000021
C27	C	1.381119	-0.469060	-0.000014
C28	C	1.497635	-0.445667	0.000005
C29	C	1.729064	-0.458288	0.000027
C30	C	1.730649	-0.398882	0.000040
C31	C	1.615727	-0.362868	0.000036
C32	C	1.499220	-0.386261	0.000019
C33	C	1.266190	-0.433042	-0.000032
C34	C	1.267787	-0.373629	-0.000032
C35	C	1.384303	-0.350237	-0.000013
C36	C	1.385883	-0.290840	0.000028
N37	N	1.502392	-0.267444	0.000032
C38	C	1.617314	-0.303458	0.000037
C39	C	1.376208	-0.653234	-0.000018
C40	C	1.374620	-0.712642	-0.000009
C41	C	1.606059	-0.725261	0.000002
C42	C	1.607646	-0.665851	0.000002
C43	C	1.492717	-0.629838	-0.000013
C44	C	1.620634	-0.178700	0.000066
C45	C	1.622209	-0.119287	0.000085
C46	C	1.390770	-0.106674	0.000067
C47	C	1.389194	-0.166081	0.000055
C48	C	1.504137	-0.202093	0.000050
O49	O	1.288349	-0.254705	0.000068
O50	O	1.716543	-0.278095	0.000025
C51	C	1.730530	0.080819	0.000049
C52	C	1.871422	0.082516	0.000045
C53	C	1.487835	0.188111	0.000008
C54	C	1.489542	0.251339	-0.000012
N55	N	1.498382	0.084035	0.360383
N56	N	1.498457	0.084026	-0.360302
C57	C	1.393237	0.130226	0.580734
C58	C	1.393459	0.130399	0.419567
C59	C	1.630662	0.097553	0.418834
C60	C	1.630087	0.097880	0.580052
C61	C	1.472575	0.024176	0.580312
C62	C	1.469515	0.024564	0.419085
H63	H	1.106044	0.094848	-0.230346
O64	O	0.857055	0.168109	-0.139271
C65	C	0.723683	0.166670	-0.139466
H66	H	0.699990	0.125038	-0.090281
H67	H	0.676269	0.204424	-0.077236
H68	H	0.686942	0.169386	-0.251034
H69	H	1.710791	0.064822	0.380495
O70	O	1.087764	0.171434	-0.137777
C71	C	1.162428	0.183539	-0.022075
H72	H	1.215259	0.142099	0.019257
H73	H	1.234474	0.213750	-0.054769
H74	H	1.097928	0.204556	0.062843
O75	O	1.359918	0.008905	0.628704
C76	C	1.259591	0.050084	0.587636
H77	H	1.290023	0.073916	0.492169
H78	H	1.171725	0.027927	0.561386
H79	H	1.235897	0.081706	0.676140
H80	H	1.171310	-0.452077	-0.000056
H81	H	1.409455	0.174378	0.621220
H82	H	1.654143	0.140725	0.378431
O83	O	1.555204	-0.018354	0.370965
C84	C	1.643511	0.004559	0.282683
H85	H	1.646939	0.051644	0.308509
H86	H	1.742180	-0.019701	0.298320
H87	H	1.612824	0.000261	0.169836
H88	H	1.133224	-0.001874	-0.094785
H89	H	1.174194	-0.344309	-0.000047
H90	H	1.104360	0.093469	0.230311
H91	H	1.549315	-0.010211	0.618442
O92	O	1.412922	0.183413	0.373684
C93	C	1.314351	0.223713	0.423090
H94	H	1.269962	0.206174	0.519976
H95	H	1.355181	0.265236	0.450009
H96	H	1.238204	0.232316	0.339239
O97	O	0.883372	0.086930	-0.249781
C98	C	0.824942	0.037885	-0.213701
H99	H	0.784112	0.043084	-0.104089
H100	H	0.744702	0.032223	-0.290232
H101	H	0.898760	-0.001309	-0.217607
O102	O	1.275479	0.120782	0.627083
C103	C	1.221603	0.168734	0.702993
H104	H	1.268121	0.208073	0.669711
H105	H	1.114641	0.176076	0.681819
H106	H	1.238478	0.160830	0.818828
H107	H	1.372213	0.014318	0.380883
O108	O	0.879014	0.090562	0.250181
C109	C	0.812582	0.043501	0.217216
H110	H	0.841070	0.027303	0.108684
H111	H	0.837483	0.007893	0.296212
H112	H	0.705475	0.057252	0.220097
H113	H	1.714231	-0.208014	0.000056
O114	O	0.910935	-0.009371	0.113431
C115	C	0.856583	-0.058425	0.069124
H116	H	0.890514	-0.070134	-0.040803
H117	H	0.887189	-0.095495	0.142405
H118	H	0.748097	-0.049316	0.069942
H119	H	0.914735	-0.004357	-0.093599
O120	O	1.657605	0.149968	0.624717
C121	C	1.778970	0.160122	0.575142
H122	H	1.803572	0.132823	0.478920
H123	H	1.777986	0.207238	0.547093
H124	H	1.853488	0.148516	0.659322
H125	H	1.134065	-0.001703	0.094731
O126	O	1.089986	0.170736	0.142040
C127	C	1.223307	0.171619	0.150270
H128	H	1.273223	0.130585	0.103531
H129	H	1.251847	0.209980	0.090115
H130	H	1.252658	0.175004	0.263813
O131	O	1.275902	-0.188714	-0.000020
C132	C	1.174810	-0.144184	0.000020
H133	H	1.209877	-0.103680	-0.043740
H134	H	1.093432	-0.156926	-0.067152
H135	H	1.139377	-0.135939	0.110980
H136	H	1.825528	-0.379842	0.000050
H137	H	0.866988	0.160849	0.131743
H138	H	1.822652	-0.487605	0.000025
O139	O	1.735510	-0.096659	0.000036
C140	C	1.836598	-0.141190	0.000066
H141	H	1.801541	-0.181685	-0.043732
H142	H	1.917998	-0.128436	-0.067078
H143	H	1.871999	-0.149458	0.111028
O144	O	1.720941	-0.643224	-0.000055
C145	C	1.822024	-0.687758	-0.000012
H146	H	1.786961	-0.728253	-0.043795
H147	H	1.903425	-0.675009	-0.067163
H148	H	1.857424	-0.696020	0.110952
H149	H	1.699635	-0.754594	-0.000000
O150	O	1.261324	-0.735268	-0.000074
C151	C	1.160241	-0.690734	-0.000037
H152	H	1.195312	-0.650234	-0.043814
H153	H	1.078853	-0.703476	-0.067195
H154	H	1.124818	-0.682482	0.110925
H155	H	1.710789	0.065586	0.619054
H156	H	1.297204	-0.077341	0.000068
H157	H	1.282612	-0.623914	-0.000019
H158	H	1.295109	0.122265	0.380050
