data_functionalizedCrystal
_audit_creation_method	'MofGen! by Chris Wilmer'
_symmetry_space_group_name_H-M	'P1'
_symmetry_Int_Tables_number	1
_symmetry_cell_setting	triclinic
loop_
_symmetry_equiv_pos_as_xyz
  x,y,z
_cell_length_a	23.532407
_cell_length_b	23.532407
_cell_length_c	15.186229
_cell_angle_alpha	89.999328
_cell_angle_beta	89.996194
_cell_angle_gamma	97.151289
loop_
_atom_site_label
_atom_site_type_symbol
_atom_site_fract_x
_atom_site_fract_y
_atom_site_fract_z
O1	O	-0.069135	0.755259	-0.073159
O2	O	-0.079138	0.589395	-0.073171
O3	O	0.008796	0.677329	-0.073176
O4	O	-0.157068	0.667325	-0.073154
O5	O	0.008797	0.677323	0.073281
O6	O	-0.079136	0.589389	0.073286
O7	O	-0.069133	0.755253	0.073298
Zn8	Zn	-0.074135	0.672320	0.096545
Zn9	Zn	-0.074136	0.672328	-0.096418
O10	O	-0.157067	0.667319	0.073303
C11	C	-0.078882	0.568176	0.000056
C12	C	-0.078116	0.504959	0.000051
C13	C	-0.022921	0.238792	0.000067
C14	C	-0.023632	0.298192	0.000067
O15	O	0.020153	0.334937	0.000092
N16	N	-0.075909	0.320818	0.000068
C17	C	-0.127477	0.284041	0.000078
O18	O	-0.172007	0.308740	0.000079
C19	C	-0.126765	0.224642	0.000084
C20	C	-0.074485	0.202019	0.000075
C21	C	0.029354	0.216169	0.000059
C22	C	0.030066	0.156772	0.000057
C23	C	-0.021499	0.119999	0.000064
C24	C	-0.073774	0.142623	0.000073
C25	C	-0.178333	0.187865	0.000101
C26	C	-0.177616	0.128463	0.000108
C27	C	-0.125336	0.105840	0.000098
C28	C	-0.124627	0.046454	0.000079
N29	N	-0.072351	0.023828	0.000078
C30	C	-0.020787	0.060600	0.000071
C31	C	-0.128968	0.408783	0.000066
C32	C	-0.129681	0.468181	0.000053
C33	C	-0.025836	0.482328	0.000044
C34	C	-0.025124	0.422929	0.000051
C35	C	-0.076692	0.386157	0.000065
C36	C	-0.019297	-0.064136	0.000067
C37	C	-0.018590	-0.123538	0.000062
C38	C	-0.122435	-0.137680	0.000075
C39	C	-0.123142	-0.078284	0.000076
C40	C	-0.071568	-0.041512	0.000075
O41	O	-0.168390	0.009675	0.000058
O42	O	0.023737	0.035892	0.000081
C43	C	-0.178283	0.667577	0.000077
C44	C	-0.241500	0.668343	0.000086
C45	C	-0.640603	0.621110	0.000037
C46	C	-0.700004	0.621821	0.000031
O47	O	-0.736748	0.578035	-0.000005
N48	N	-0.722630	0.674097	0.000036
C49	C	-0.685852	0.725666	0.000038
O50	O	-0.710552	0.770196	0.000041
C51	C	-0.626453	0.724953	0.000038
C52	C	-0.603830	0.672674	0.000042
C53	C	-0.617980	0.568834	0.000040
C54	C	-0.558584	0.568123	0.000048
C55	C	-0.521811	0.619687	0.000053
C56	C	-0.544434	0.671963	0.000050
C57	C	-0.589677	0.776521	0.000033
C58	C	-0.530274	0.775804	0.000033
C59	C	-0.507652	0.723525	0.000037
C60	C	-0.448265	0.722816	0.000062
N61	N	-0.425639	0.670539	0.000057
C62	C	-0.462412	0.618975	0.000052
C63	C	-0.810595	0.727157	0.000037
C64	C	-0.869993	0.727870	0.000043
C65	C	-0.884140	0.624025	0.000035
C66	C	-0.824741	0.623313	0.000034
C67	C	-0.787969	0.674881	0.000032
C68	C	-0.337675	0.617485	0.000069
C69	C	-0.278273	0.616779	0.000081
C70	C	-0.264131	0.720623	0.000085
C71	C	-0.323528	0.721330	0.000078
C72	C	-0.360299	0.669757	0.000067
O73	O	-0.411486	0.766578	0.000094
O74	O	-0.437704	0.574452	0.000038
C75	C	0.030012	0.677071	0.000048
C76	C	0.093229	0.676305	0.000034
C77	C	-0.069389	0.776472	0.000069
C78	C	-0.070155	0.839689	0.000069
N79	N	-0.074133	0.672319	0.228238
N80	N	-0.074133	0.672333	-0.228111
C81	C	-0.035209	0.711269	0.453959
C82	C	-0.035208	0.711271	0.546149
C83	C	-0.113059	0.633379	0.546162
C84	C	-0.113057	0.633375	0.453974
C85	C	-0.074133	0.672323	0.407875
C86	C	-0.074133	0.672329	0.592252
C87	C	-0.074132	0.672331	0.692209
C88	C	-0.074133	0.672321	0.307912
H89	H	0.023984	-0.141954	0.000051
H90	H	-0.170964	0.378846	0.000071
C91	C	0.087572	0.131892	0.000050
H92	H	0.080619	0.091249	0.000045
H93	H	0.108789	0.144538	0.051119
H94	H	0.108785	0.144537	-0.051033
C95	C	-0.234341	0.088014	0.000121
H96	H	-0.226434	0.049396	0.000127
H97	H	-0.255793	0.094843	-0.050947
H98	H	-0.255787	0.094843	0.051206
H99	H	-0.144754	0.601658	0.416450
H100	H	-0.367608	0.575489	0.000060
H101	H	-0.888406	0.770441	0.000054
H102	H	-0.172252	0.486595	0.000049
H103	H	-0.003514	0.742982	0.416427
C104	C	0.007607	0.754110	0.596842
H105	H	0.002037	0.748532	0.658348
H106	H	0.001617	0.792082	0.581732
H107	H	0.045587	0.748136	0.581728
C108	C	-0.155860	0.590526	0.596870
H109	H	-0.179033	0.567323	0.556217
H110	H	-0.179471	0.610862	0.632844
H111	H	-0.135475	0.566943	0.632819
H112	H	0.022699	-0.034204	0.000066
C113	C	-0.253392	0.559269	0.000078
H114	H	-0.283803	0.528663	0.000064
H115	H	-0.230518	0.556827	0.051152
H116	H	-0.230511	0.556836	-0.051000
H117	H	-0.220904	0.206274	0.000104
C118	C	0.086080	0.256610	0.000043
H119	H	0.117310	0.234621	0.000032
H120	H	0.087972	0.280082	0.051109
H121	H	0.087961	0.280070	-0.051043
H122	H	-0.164417	-0.167631	0.000077
C123	C	0.032383	0.398050	0.000049
H124	H	0.062988	0.428462	0.000048
H125	H	0.034823	0.375169	-0.051019
H126	H	0.034821	0.375177	0.051133
C127	C	-0.658422	0.512108	0.000042
H128	H	-0.636432	0.480878	0.000051
H129	H	-0.681889	0.510219	-0.051027
H130	H	-0.681886	0.510225	0.051125
C131	C	0.030884	0.522786	0.000045
H132	H	0.022968	0.561401	0.000052
H133	H	0.052339	0.515963	-0.051027
H134	H	0.052332	0.515961	0.051125
H135	H	-0.806326	0.580742	0.000041
H136	H	-0.341948	0.763900	0.000087
C137	C	-0.533706	0.510615	0.000040
H138	H	-0.564121	0.480011	0.000027
H139	H	-0.510832	0.508169	0.051111
H140	H	-0.510829	0.508180	-0.051041
H141	H	-0.165712	-0.059864	0.000083
C142	C	-0.770150	0.783885	0.000051
H143	H	-0.792137	0.815117	0.000062
H144	H	-0.746678	0.785775	-0.051019
H145	H	-0.746689	0.785764	0.051133
C146	C	-0.924595	0.567303	0.000023
H147	H	-0.902618	0.536063	0.000028
H148	H	-0.948057	0.565428	-0.051051
H149	H	-0.948064	0.565422	0.051101
H150	H	-0.234180	0.762605	0.000093
C151	C	-0.614549	0.834030	0.000017
H152	H	-0.584133	0.864632	0.000006
H153	H	-0.637431	0.836477	0.051084
H154	H	-0.637418	0.836465	-0.051069
H155	H	-0.500336	0.817798	0.000026
