data_functionalizedCrystal
_audit_creation_method	'MofGen! by Chris Wilmer'
_symmetry_space_group_name_H-M	'P1'
_symmetry_Int_Tables_number	1
_symmetry_cell_setting	triclinic
loop_
_symmetry_equiv_pos_as_xyz
  x,y,z
_cell_length_a	21.883469
_cell_length_b	21.882911
_cell_length_c	21.879399
_cell_angle_alpha	60.006540
_cell_angle_beta	60.013207
_cell_angle_gamma	59.992231
loop_
_atom_site_label
_atom_site_type_symbol
_atom_site_fract_x
_atom_site_fract_y
_atom_site_fract_z
O1	O	0.084645	-0.892842	0.746620
O2	O	0.031867	-0.695139	0.601571
O3	O	0.157054	-0.820237	0.601476
O4	O	-0.040542	-0.767744	0.746716
O5	O	0.198586	-0.778715	0.642912
O6	O	0.073399	-0.653617	0.643007
O7	O	0.126177	-0.851320	0.788056
Cu8	Cu	0.103580	-0.748677	0.719315
Cu9	Cu	0.054464	-0.797782	0.670313
O10	O	0.000990	-0.726222	0.788151
N11	N	0.138128	-0.714145	0.753785
N12	N	0.019923	-0.832320	0.635843
C13	C	0.190018	-0.547369	0.805644
C14	C	0.190029	-0.662289	0.805630
C15	C	0.218780	-0.633565	0.834353
C16	C	0.344122	-0.611968	0.768360
C17	C	0.422474	-0.638085	0.742222
C18	C	0.422504	-0.764859	0.790561
C19	C	0.344154	-0.738739	0.816702
C20	C	0.208899	-0.508180	0.728617
C21	C	0.182748	-0.429822	0.702522
C22	C	0.118843	-0.429847	0.830485
C23	C	0.144993	-0.508205	0.856580
C24	C	0.112994	-0.643364	0.824587
C25	C	0.086865	-0.669476	0.798467
C26	C	0.214799	-0.733437	0.734451
C27	C	0.240932	-0.707325	0.760562
C28	C	0.113084	-0.643389	0.959747
C29	C	0.087018	-0.669524	1.038102
C30	C	0.214996	-0.733501	1.038048
C31	C	0.241061	-0.707367	0.959690
C32	C	0.190103	-0.662308	0.920542
C33	C	0.304966	-0.662293	0.805598
C34	C	-0.117460	-0.854702	0.612901
C35	C	-0.002405	-0.854864	0.498145
C36	C	-0.002621	-0.969735	0.613108
C37	C	-0.002603	-0.854858	0.613180
C38	C	-0.031272	-0.883541	0.584334
N39	N	0.460550	-0.714150	0.753681
O40	O	0.699805	-0.721060	0.574973
O41	O	0.700047	-0.866553	0.772482
O42	O	0.699952	-0.866219	0.647213
O43	O	0.699900	-0.721394	0.700242
O44	O	0.575478	-0.824800	0.688791
O45	O	0.575573	-0.825134	0.814060
O46	O	0.575331	-0.679641	0.616551
Cu47	Cu	0.564087	-0.748606	0.719102
Cu48	Cu	0.711292	-0.797588	0.669931
O49	O	0.575426	-0.679975	0.741820
N50	N	0.814828	-0.832044	0.635345
N51	N	0.138106	-0.391772	0.753815
O52	O	-0.040520	-0.152377	0.746758
O53	O	0.156993	-0.152371	0.601281
O54	O	0.031698	-0.152390	0.601639
O55	O	0.084775	-0.152358	0.746401
O56	O	0.073234	-0.276876	0.643130
O57	O	0.198529	-0.276856	0.642772
O58	O	0.001015	-0.276863	0.788249
Cu59	Cu	0.103564	-0.288226	0.719299
Cu60	Cu	0.054444	-0.141007	0.670231
O61	O	0.126310	-0.276844	0.787892
N62	N	0.019892	-0.037461	0.635717
N63	N	0.138332	-0.714192	1.076133
O64	O	0.131293	-0.892804	1.315506
O65	O	-0.014162	-0.695219	1.315533
O66	O	-0.013826	-0.820490	1.315480
O67	O	0.130957	-0.767533	1.315559
O68	O	0.027651	-0.778981	1.191001
O69	O	0.027314	-0.653710	1.191054
O70	O	0.172770	-0.851295	1.191026
Cu71	Cu	0.103829	-0.748713	1.179674
Cu72	Cu	0.054778	-0.797802	1.326885
O73	O	0.172434	-0.726024	1.191079
N74	N	0.020275	-0.832331	1.430426
C75	C	0.047687	-0.649466	0.602306
C76	C	0.202716	-0.804385	0.602188
C77	C	0.110357	-0.896993	0.787321
C78	C	-0.044672	-0.742074	0.787439
C79	C	0.637839	-0.865879	0.818154
C80	C	0.637724	-0.865466	0.663023
C81	C	0.637536	-0.680313	0.570880
C82	C	0.637655	-0.680728	0.726010
C83	C	0.202592	-0.214459	0.601942
C84	C	0.047481	-0.214636	0.602435
C85	C	-0.044635	-0.214620	0.787537
C86	C	0.110528	-0.214598	0.787096
C87	C	-0.013455	-0.649572	1.253296
C88	C	-0.013030	-0.804697	1.253206
C89	C	0.172063	-0.896942	1.253263
C90	C	0.171648	-0.741808	1.253325
H91	H	0.024299	-0.654107	1.070013
C92	C	0.637470	-0.619508	0.495189
C93	C	0.637467	-0.646340	0.448983
C94	C	0.637414	-0.590350	0.379249
H95	H	0.594049	-0.576962	0.501678
H96	H	0.680869	-0.605883	0.472733
H97	H	0.594072	-0.659954	0.471434
H98	H	0.680884	-0.688879	0.442473
H99	H	0.680813	-0.576725	0.356793
H100	H	0.593993	-0.547807	0.385745
H101	H	0.637419	-0.608550	0.347887
H102	H	-0.101428	-0.730886	0.833046
H103	H	0.036114	-0.214639	0.556956
C104	C	0.032503	-0.573708	0.541640
C105	C	-0.040556	-0.527662	0.568662
C106	C	-0.054574	-0.457873	0.512795
H107	H	0.066993	-0.551142	0.527957
H108	H	0.038050	-0.580169	0.499097
H109	H	-0.046097	-0.521200	0.611192
H110	H	-0.075062	-0.550205	0.582340
H111	H	-0.049026	-0.464334	0.470251
H112	H	-0.020079	-0.435314	0.499115
H113	H	-0.104147	-0.426625	0.531118
H114	H	0.217732	-0.953686	1.253245
H115	H	-0.058496	-0.816008	1.253133
C116	C	0.278145	-0.214112	0.540998
C117	C	0.334406	-0.278001	0.566186
C118	C	0.404018	-0.277704	0.510071
H119	H	0.278282	-0.214061	0.497489
H120	H	0.287072	-0.170625	0.529364
H121	H	0.325482	-0.321478	0.577809
H122	H	0.334293	-0.278066	0.609687
H123	H	0.412944	-0.234216	0.498438
H124	H	0.404146	-0.277651	0.466566
H125	H	0.442199	-0.321048	0.527156
C126	C	0.125249	-0.972656	0.848177
C127	C	0.061360	-0.972751	0.912236
C128	C	0.075054	-1.042436	0.968314
H129	H	0.137076	-1.010762	0.831051
H130	H	0.166046	-0.981751	0.859900
H131	H	0.020575	-0.963665	0.900513
H132	H	0.049523	-0.934661	0.929384
H133	H	0.115851	-1.051530	0.980037
H134	H	0.086882	-1.080535	0.951181
H135	H	0.031711	-1.042507	1.011786
C136	C	0.637902	-0.926214	0.647888
C137	C	0.701998	-0.988822	0.656096
C138	C	0.702192	-1.044793	0.642149
H139	H	0.594578	-0.939967	0.682415
H140	H	0.637893	-0.907958	0.598324
H141	H	0.702000	-1.007076	0.705653
H142	H	0.745332	-0.975093	0.621571
H143	H	0.702183	-1.026537	0.592585
H144	H	0.658865	-1.058540	0.676677
H145	H	0.745683	-1.087276	0.647709
H146	H	0.121892	-0.214588	0.832572
H147	H	0.217133	-0.730478	1.253340
H148	H	-0.101359	-0.214623	0.833209
C149	C	-0.074267	-0.573872	1.253343
C150	C	-0.047455	-0.527690	1.253391
C151	C	-0.103457	-0.457954	1.253444
H152	H	-0.087910	-0.551376	1.209940
H153	H	-0.116800	-0.580392	1.296763
H154	H	-0.004936	-0.521168	1.209976
H155	H	-0.033818	-0.550163	1.296791
H156	H	-0.145989	-0.464473	1.296863
H157	H	-0.117096	-0.435464	1.210040
H158	H	-0.085275	-0.426613	1.253483
C159	C	0.637595	-0.620144	0.741292
C160	C	0.637651	-0.647283	0.814358
C161	C	0.637586	-0.591492	0.828465
H162	H	0.680957	-0.606444	0.706813
H163	H	0.594138	-0.577590	0.735789
H164	H	0.681104	-0.689824	0.819853
H165	H	0.594292	-0.660978	0.848851
H166	H	0.594128	-0.548938	0.822962
H167	H	0.680949	-0.577795	0.793982
H168	H	0.637617	-0.609895	0.878043
H169	H	0.071582	-0.606692	0.927876
H170	H	0.256495	-0.770176	1.069914
H171	H	0.259468	-0.815577	0.556577
H172	H	0.071542	-0.606694	0.861281
C173	C	0.324707	-0.728066	0.917222
C174	C	0.356977	-0.806011	0.936276
C175	C	0.434030	-0.825107	0.897179
H176	H	0.333040	-0.706129	0.864939
H177	H	0.346758	-0.710092	0.930073
H178	H	0.334934	-0.823977	0.923420
H179	H	0.348666	-0.827966	0.988553
H180	H	0.456080	-0.807133	0.910029
H181	H	0.442355	-0.803165	0.844897
H182	H	0.455936	-0.877994	0.910106
C183	C	0.003198	-0.648889	0.819163
C184	C	-0.035790	-0.603881	0.864243
C185	C	-0.112864	-0.584914	0.883333
H186	H	-0.009789	-0.622257	0.774933
H187	H	-0.009653	-0.693192	0.845779
H188	H	-0.022945	-0.559586	0.837627
H189	H	-0.022826	-0.630498	0.908482
H190	H	-0.125715	-0.629216	0.909949
H191	H	-0.125843	-0.558285	0.839100
H192	H	-0.139327	-0.554380	0.913927
H193	H	0.303660	-0.722726	0.745118
C194	C	0.270114	-0.782200	0.685396
C195	C	0.315007	-0.742822	0.620160
C196	C	0.365972	-0.787711	0.574944
H197	H	0.300780	-0.826519	0.711866
H198	H	0.243561	-0.795033	0.672494
H199	H	0.341557	-0.729999	0.633063
H200	H	0.284361	-0.698506	0.593670
H201	H	0.339419	-0.800544	0.562042
H202	H	0.396633	-0.832027	0.601420
H203	H	0.396433	-0.760997	0.530673
C204	C	0.301774	-0.793494	0.857079
C205	C	0.352867	-0.866029	0.861184
C206	C	0.313855	-0.916487	0.898367
H207	H	0.271232	-0.791597	0.906199
H208	H	0.271203	-0.780422	0.830386
H209	H	0.383426	-0.879098	0.887878
H210	H	0.383411	-0.867951	0.812075
H211	H	0.283283	-0.903415	0.871674
H212	H	0.283314	-0.914583	0.947484
H213	H	0.348515	-0.965707	0.901151
H214	H	0.637900	-0.911553	0.874882
H215	H	0.454413	-0.827107	0.799589
H216	H	0.454353	-0.597104	0.711898
H217	H	0.312222	-0.549720	0.759316
C218	C	0.257649	-0.550665	0.673286
C219	C	0.218255	-0.531615	0.628373
C220	C	0.263136	-0.570745	0.577398
H221	H	0.301951	-0.537851	0.642630
H222	H	0.270504	-0.602952	0.699834
H223	H	0.205411	-0.479340	0.601827
H224	H	0.173956	-0.544432	0.659008
H225	H	0.275991	-0.623032	0.603946
H226	H	0.307436	-0.557927	0.546748
H227	H	0.236412	-0.557831	0.546924
C228	C	0.069945	-0.387456	0.885903
C229	C	0.059005	-0.438548	0.958949
C230	C	0.013955	-0.399526	1.010019
H231	H	0.093804	-0.356881	0.878461
H232	H	0.022937	-0.356909	0.878445
H233	H	0.106004	-0.469081	0.966404
H234	H	0.035137	-0.469124	0.966415
H235	H	-0.033053	-0.368980	1.002561
H236	H	0.037819	-0.368953	1.002570
H237	H	0.006520	-0.434186	1.059586
H238	H	0.198119	-0.397913	0.639797
H239	H	0.129609	-0.540114	0.919306
