data_functionalizedCrystal
_audit_creation_method	'MofGen! by Chris Wilmer'
_symmetry_space_group_name_H-M	'P1'
_symmetry_Int_Tables_number	1
_symmetry_cell_setting	triclinic
loop_
_symmetry_equiv_pos_as_xyz
  x,y,z
_cell_length_a	15.944551
_cell_length_b	19.288865
_cell_length_c	18.366186
_cell_angle_alpha	90.010106
_cell_angle_beta	89.986417
_cell_angle_gamma	96.682508
loop_
_atom_site_label
_atom_site_type_symbol
_atom_site_fract_x
_atom_site_fract_y
_atom_site_fract_z
O1	O	1.114185	-0.089582	-0.060629
O2	O	1.614185	0.410418	0.439371
O3	O	0.869593	-0.100626	-0.060616
O4	O	1.369593	0.399374	0.439384
O5	O	0.998957	0.006008	-0.060608
O6	O	1.498957	0.506008	0.439392
O7	O	0.984822	-0.196216	-0.060636
O8	O	1.484822	0.303784	0.439364
O9	O	0.998933	0.006010	0.060491
O10	O	1.498933	0.506010	0.560491
O11	O	0.869570	-0.100624	0.060483
O12	O	1.369570	0.399376	0.560483
O13	O	1.114162	-0.089579	0.060470
O14	O	1.614162	0.410421	0.560470
Zn15	Zn	0.991862	-0.095101	0.079704
Zn16	Zn	1.491862	0.404899	0.579704
Zn17	Zn	0.991893	-0.095104	-0.079850
Zn18	Zn	1.491893	0.404896	0.420150
O19	O	0.984798	-0.196213	0.060463
O20	O	1.484798	0.303787	0.560463
C21	C	0.838289	-0.100167	-0.000064
C22	C	1.338289	0.399833	0.499936
C23	C	0.745048	-0.098792	-0.000059
C24	C	1.245048	0.401208	0.499941
C25	C	1.145466	-0.090039	-0.000083
C26	C	1.645466	0.409961	0.499917
C27	C	1.238707	-0.091414	-0.000093
C28	C	1.738707	0.408586	0.499907
C29	C	0.998490	0.031887	-0.000056
C30	C	1.498490	0.531887	0.499944
C31	C	0.997125	0.108994	-0.000050
C32	C	1.497125	0.608994	0.499950
C33	C	1.453296	-0.160796	-0.000086
C34	C	1.953296	0.339204	0.499914
C35	C	1.514452	-0.128578	-0.059789
C36	C	2.014452	0.371422	0.440211
C37	C	1.409423	-0.093900	-0.000083
C38	C	1.909423	0.406100	0.499917
C39	C	1.514407	-0.128560	0.059605
C40	C	2.014407	0.371440	0.559605
C41	C	1.574326	-0.096307	-0.000070
C42	C	2.074326	0.403693	0.499930
C43	C	1.469350	-0.061664	-0.059835
C44	C	1.969350	0.438336	0.440165
C45	C	1.469299	-0.061655	0.059613
C46	C	1.969299	0.438345	0.559613
C47	C	1.530437	-0.029389	-0.000105
C48	C	2.030437	0.470611	0.499895
C49	C	1.314426	-0.092516	-0.000091
C50	C	1.814426	0.407484	0.499909
C51	C	1.669322	-0.097687	-0.000067
C52	C	2.169322	0.402313	0.499933
C53	C	0.985265	-0.222092	-0.000091
C54	C	1.485265	0.277908	0.499909
C55	C	0.986630	-0.299199	-0.000102
C56	C	1.486630	0.200801	0.499898
N57	N	0.991848	-0.095099	0.188595
N58	N	1.491848	0.404901	0.688595
C59	C	1.073030	0.153490	-0.000050
C60	C	1.573030	0.653490	0.499950
C61	C	1.071747	0.225941	-0.000062
C62	C	1.571747	0.725941	0.499938
C63	C	0.994555	0.253891	-0.000058
C64	C	1.494555	0.753891	0.499942
C65	C	0.918641	0.209385	-0.000062
C66	C	1.418641	0.709385	0.499938
C67	C	0.919925	0.136936	-0.000058
C68	C	1.419925	0.636936	0.499942
C69	C	0.933865	0.362340	0.042363
C70	C	1.433865	0.862340	0.542363
C71	C	0.932584	0.434787	0.042364
C72	C	1.432584	0.934787	0.542364
C73	C	0.990589	0.477347	-0.000074
C74	C	1.490589	0.977347	0.499926
C75	C	1.049891	0.447452	-0.042503
C76	C	1.549891	0.947452	0.457497
C77	C	1.051175	0.375004	-0.042499
C78	C	1.551175	0.875004	0.457501
C79	C	0.993154	0.332449	-0.000063
C80	C	1.493154	0.832449	0.499937
C81	C	1.065108	0.600403	-0.000088
C82	C	1.565108	1.100403	0.499912
C83	C	1.063822	0.672855	-0.000104
C84	C	1.563822	1.172855	0.499896
C85	C	0.910714	0.656298	-0.000097
C86	C	1.410714	1.156298	0.499903
C87	C	0.912002	0.583848	-0.000088
C88	C	1.412002	1.083848	0.499912
C89	C	0.989201	0.555906	-0.000080
C90	C	1.489201	1.055906	0.499920
C91	C	1.042623	-0.137256	0.226681
C92	C	1.542623	0.362744	0.726681
C93	C	1.042636	-0.137255	0.302908
C94	C	1.542636	0.362745	0.802908
C95	C	0.991858	-0.095104	0.341048
C96	C	1.491858	0.404896	0.841048
C97	C	0.941080	-0.052937	0.302954
C98	C	1.441080	0.447063	0.802954
C99	C	0.941075	-0.052935	0.226727
C100	C	1.441075	0.447065	0.726727
C101	C	0.916142	-0.093148	0.461834
C102	C	1.416142	0.406852	0.961834
C103	C	0.916145	-0.093155	0.538059
C104	C	1.416145	0.406845	1.038059
C105	C	0.991876	-0.095107	0.576156
C106	C	1.491876	0.404893	1.076156
C107	C	1.067604	-0.097066	0.538018
C108	C	1.567604	0.402934	1.038018
C109	C	1.067598	-0.097063	0.461792
C110	C	1.567598	0.402937	0.961792
C111	C	0.991859	-0.095101	0.423703
C112	C	1.491859	0.404899	0.923703
C113	C	1.042669	-0.137265	0.696896
C114	C	1.542669	0.362735	1.196896
C115	C	1.042684	-0.137259	0.773125
C116	C	1.542684	0.362741	1.273125
C117	C	0.941121	-0.052945	0.773169
C118	C	1.441121	0.447055	1.273169
C119	C	0.941114	-0.052948	0.696941
C120	C	1.441114	0.447052	1.196941
C121	C	0.991886	-0.095112	0.658809
C122	C	1.491886	0.404888	1.158809
N123	N	0.991907	-0.095106	0.811259
N124	N	1.491907	0.404894	1.311259
H125	H	1.419776	-0.216323	-0.000153
H126	H	1.919776	0.283677	0.499847
H127	H	1.127969	0.577652	-0.000085
H128	H	1.627969	1.077652	0.499915
H129	H	1.449480	-0.033397	-0.110368
H130	H	1.949480	0.466603	0.389632
H131	H	1.084037	-0.171587	0.804133
H132	H	1.584037	0.328413	1.304133
H133	H	1.084012	-0.171597	0.665847
H134	H	1.584012	0.328403	1.165847
H135	H	1.083983	-0.171587	0.333923
H136	H	1.583983	0.328413	0.833923
O137	O	0.886349	-0.007481	0.814292
O138	O	1.386349	0.492519	1.314292
H139	H	0.894878	-0.014568	0.873697
H140	H	1.394878	0.485432	1.373697
H141	H	1.099459	0.350666	-0.077048
H142	H	1.599459	0.850666	0.422952
O143	O	1.574594	0.044242	-0.000099
O144	O	2.074594	0.544242	0.499901
H145	H	1.556535	0.071842	-0.049694
H146	H	2.056535	0.571842	0.450306
H147	H	0.899763	-0.018621	0.665932
H148	H	1.399763	0.481379	1.165932
O149	O	1.442749	-0.024206	0.126481
O150	O	1.942749	0.475794	0.626481
H151	H	1.460576	-0.052082	0.175972
H152	H	1.960576	0.447918	0.675972
H153	H	1.097124	0.482104	-0.077061
H154	H	1.597124	0.982104	0.422939
H155	H	1.129270	-0.098659	0.569035
H156	H	1.629270	0.401341	1.069035
O157	O	0.868627	0.467025	0.088129
O158	O	1.368627	0.967025	0.588129
H159	H	0.877486	0.524554	0.081006
H160	H	1.377486	1.024554	0.581006
H161	H	1.083969	-0.171587	0.195638
H162	H	1.583969	0.328413	0.695638
H163	H	0.847863	0.679055	-0.000098
H164	H	1.347863	1.179055	0.499902
O165	O	0.834496	-0.090915	0.579192
O166	O	1.334496	0.409085	1.079192
H167	H	0.781846	-0.089497	0.539896
H168	H	1.281846	0.410503	1.039896
H169	H	1.534373	-0.156865	0.110079
H170	H	2.034373	0.343135	0.610079
H171	H	1.129259	-0.098657	0.430743
H172	H	1.629259	0.401343	0.930743
H173	H	1.125636	0.709084	-0.000109
H174	H	1.625636	1.209084	0.499891
O175	O	1.156291	0.123350	-0.000062
O176	O	1.656291	0.623350	0.499938
H177	H	1.208857	0.166468	-0.000075
H178	H	1.708857	0.666468	0.499925
H179	H	0.899726	-0.018604	0.195719
H180	H	1.399726	0.481396	0.695719
H181	H	0.854467	-0.091563	0.430821
H182	H	1.354467	0.408437	0.930821
O183	O	1.153618	0.273947	-0.000053
O184	O	1.653618	0.773947	0.499947
H185	H	1.207514	0.242345	-0.000041
H186	H	1.707514	0.742345	0.499959
H187	H	0.850192	0.547618	-0.000084
H188	H	1.350192	1.047618	0.499916
H189	H	0.886628	0.327692	0.076926
H190	H	1.386628	0.827692	0.576926
H191	H	0.855790	0.232147	-0.000061
H192	H	1.355790	0.732147	0.499939
H193	H	0.899738	-0.018617	0.334012
H194	H	1.399738	0.481383	0.834012
O195	O	0.838054	0.088936	-0.000045
O196	O	1.338054	0.588936	0.499955
H197	H	0.784160	0.120541	-0.000039
H198	H	1.284160	0.620541	0.499961
H199	H	1.534466	-0.156875	-0.110270
H200	H	2.034466	0.343125	0.389730
