data_functionalizedCrystal
_audit_creation_method	'MofGen! by Chris Wilmer'
_symmetry_space_group_name_H-M	'P1'
_symmetry_Int_Tables_number	1
_symmetry_cell_setting	triclinic
loop_
_symmetry_equiv_pos_as_xyz
  x,y,z
_cell_length_a	21.295419
_cell_length_b	21.295417
_cell_length_c	19.805399
_cell_angle_alpha	89.970204
_cell_angle_beta	89.981377
_cell_angle_gamma	90.044503
loop_
_atom_site_label
_atom_site_type_symbol
_atom_site_fract_x
_atom_site_fract_y
_atom_site_fract_z
Zn1	Zn	0.962322	-0.250375	-0.382692
Zn2	Zn	0.962237	-0.355644	-0.269500
Zn3	Zn	0.857056	-0.250420	-0.269519
Zn4	Zn	0.857016	-0.355638	-0.382648
O5	O	0.909658	-0.303019	-0.326090
O6	O	1.050400	-0.264323	-0.367687
O7	O	0.948266	-0.341707	-0.174785
O8	O	0.871073	-0.162324	-0.284558
O9	O	1.050338	-0.341664	-0.284525
O10	O	0.948411	-0.162292	-0.367706
O11	O	0.870990	-0.264399	-0.174800
O12	O	0.768962	-0.264393	-0.284515
O13	O	0.871004	-0.341653	-0.477371
O14	O	0.768932	-0.341696	-0.367631
O15	O	0.948372	-0.264317	-0.477403
O16	O	0.948227	-0.443733	-0.284483
O17	O	0.870922	-0.443728	-0.367612
C18	C	0.746106	-0.303049	-0.326071
C19	C	0.676138	-0.303077	-0.326079
C20	C	0.643327	-0.262872	-0.369448
C21	C	0.577584	-0.262855	-0.369451
C22	C	0.544656	-0.303055	-0.326091
C23	C	0.577475	-0.343263	-0.282713
C24	C	0.643217	-0.343274	-0.282707
N25	N	0.441382	-0.358133	-0.320802
N26	N	0.378930	-0.358120	-0.320812
C27	C	0.346581	-0.303022	-0.326106
N28	N	0.379043	-0.247936	-0.331403
N29	N	0.441500	-0.247949	-0.331397
C30	C	0.473370	-0.303047	-0.326092
C31	C	0.242484	-0.262795	-0.369480
C32	C	0.176740	-0.262777	-0.369478
C33	C	0.176633	-0.343191	-0.282744
C34	C	0.242375	-0.343203	-0.282743
C35	C	0.275297	-0.303006	-0.326115
C36	C	0.909578	-0.466571	-0.326055
C37	C	0.909601	-0.536539	-0.326063
C38	C	0.949848	-0.569331	-0.369390
C39	C	0.949870	-0.635074	-0.369406
C40	C	0.909652	-0.668021	-0.326085
C41	C	0.869397	-0.635221	-0.282755
C42	C	0.869372	-0.569480	-0.282745
N43	N	0.904898	-0.771284	-0.266849
N44	N	0.904926	-0.833735	-0.266861
C45	C	0.909726	-0.866096	-0.326115
N46	N	0.914508	-0.833646	-0.385358
N47	N	0.914484	-0.771189	-0.385345
C48	C	0.909675	-0.739307	-0.326092
C49	C	0.949999	-0.970174	-0.369463
C50	C	0.950017	-1.035918	-0.369481
C51	C	0.869547	-1.036064	-0.282824
C52	C	0.869526	-0.970321	-0.282812
C53	C	0.909755	-0.937380	-0.326131
C54	C	1.073848	-0.302989	-0.326109
C55	C	1.143816	-0.302977	-0.326117
C56	C	0.909693	-0.302979	-0.502632
C57	C	0.909708	-0.302963	-0.577864
C58	C	0.909756	-0.138829	-0.326139
C59	C	0.909797	-0.068861	-0.326160
C60	C	0.949995	-0.262692	-0.613227
C61	C	0.950001	-0.262674	-0.683915
C62	C	0.909724	-0.302930	-0.719240
C63	C	0.869433	-0.343202	-0.683873
C64	C	0.869424	-0.343217	-0.613186
C65	C	0.869469	-0.343144	-0.968947
C66	C	0.869482	-0.343127	-1.039639
C67	C	0.950046	-0.262600	-1.039676
C68	C	0.950037	-0.262615	-0.968988
C69	C	0.909744	-0.302885	-0.933628
C70	C	0.909737	-0.302903	-0.856979
C71	C	0.909734	-0.302915	-0.795887
C72	C	0.909659	-0.303013	-0.150234
C73	C	0.909766	-0.302853	-0.075002
H74	H	0.269290	-0.230060	-0.404792
H75	H	0.836669	-0.375943	-0.940164
O76	O	0.830533	-1.068158	-0.240767
C77	C	0.794870	-1.169501	-0.202420
C78	C	0.839101	-1.133229	-0.250068
H79	H	0.801772	-1.222117	-0.209934
H80	H	0.805945	-1.156647	-0.147834
H81	H	0.744109	-1.156584	-0.214252
H82	H	0.889877	-1.146126	-0.238297
H83	H	0.827972	-1.146085	-0.304640
O84	O	0.830366	-0.382286	-0.718290
C85	C	0.794646	-0.417928	-0.827169
C86	C	0.838932	-0.373642	-0.788278
H87	H	0.801547	-0.410945	-0.883761
H88	H	0.805667	-0.468701	-0.813306
H89	H	0.743899	-0.406890	-0.813224
H90	H	0.889694	-0.384623	-0.802202
H91	H	0.827857	-0.322881	-0.802144
O92	O	0.830415	-0.938560	-0.240654
C93	C	0.750580	-0.945645	-0.154732
C94	C	0.794854	-0.981692	-0.202431
H95	H	0.721808	-0.980501	-0.123826
H96	H	0.779460	-0.914873	-0.119319
H97	H	0.717663	-0.914867	-0.185779
H98	H	0.827781	-1.012504	-0.171438
H99	H	0.765935	-1.012424	-0.237845
H100	H	0.982837	-0.229836	-0.940230
H101	H	0.836612	-0.376003	-0.584395
O102	O	0.274281	-0.382175	-0.240549
C103	C	0.348494	-0.390551	-0.149174
C104	C	0.312389	-0.346343	-0.196909
H105	H	0.379323	-0.361599	-0.113889
H106	H	0.313698	-0.419271	-0.118133
H107	H	0.379224	-0.423520	-0.180199
H108	H	0.281659	-0.313335	-0.165936
H109	H	0.347219	-0.317667	-0.227952
H110	H	0.982852	-0.229808	-1.068475
O111	O	0.144627	-0.382310	-0.240721
C112	C	0.070292	-0.467251	-0.231452
C113	C	0.106513	-0.422998	-0.279124
H114	H	0.039459	-0.500150	-0.262481
H115	H	0.105013	-0.496038	-0.200468
H116	H	0.039557	-0.438290	-0.196105
H117	H	0.137250	-0.451911	-0.314512
H118	H	0.071759	-0.394209	-0.310061
O119	O	0.989026	-1.067801	-0.411643
C120	C	0.997483	-1.141981	-0.503023
C121	C	0.953233	-1.105902	-0.455328
H122	H	0.968564	-1.172804	-0.538345
H123	H	1.026219	-1.107169	-0.534027
H124	H	1.030437	-1.172715	-0.471970
H125	H	0.920242	-1.075168	-0.486329
H126	H	0.924542	-1.140749	-0.424321
O127	O	0.830292	-0.382251	-1.073850
C128	C	0.750400	-0.462148	-1.066358
C129	C	0.794735	-0.417865	-1.027530
H130	H	0.721650	-0.490962	-1.028925
H131	H	0.717469	-0.433272	-1.099438
H132	H	0.779295	-0.495026	-1.099464
H133	H	0.765891	-0.384978	-0.994387
H134	H	0.827667	-0.446779	-0.994492
O135	O	0.545675	-0.223733	-0.411489
C136	C	0.471501	-0.138774	-0.420785
C137	C	0.507607	-0.183029	-0.373099
H138	H	0.440704	-0.105862	-0.389767
H139	H	0.506297	-0.110001	-0.451769
H140	H	0.440739	-0.167733	-0.456132
H141	H	0.538369	-0.154118	-0.337712
H142	H	0.472777	-0.211804	-0.342163
H143	H	0.670128	-0.230140	-0.404764
H144	H	0.982639	-0.661779	-0.404695
O145	O	0.545561	-0.382402	-0.240628
C146	C	0.525304	-0.489439	-0.207591
C147	C	0.561496	-0.445185	-0.255288
H148	H	0.538165	-0.540209	-0.219436
H149	H	0.538230	-0.478371	-0.153023
H150	H	0.472684	-0.482494	-0.215036
H151	H	0.614125	-0.452106	-0.247904
H152	H	0.548519	-0.456264	-0.309839
O153	O	0.675162	-0.382366	-0.240673
C154	C	0.749270	-0.467385	-0.231402
C155	C	0.713141	-0.423142	-0.279079
H156	H	0.779975	-0.500372	-0.262434
H157	H	0.780108	-0.438483	-0.196077
H158	H	0.714433	-0.496085	-0.200394
H159	H	0.747932	-0.394432	-0.310131
H160	H	0.682293	-0.452080	-0.314359
O161	O	0.988999	-0.938197	-0.411645
C162	C	1.019496	-0.917997	-0.526806
C163	C	0.975283	-0.954237	-0.479112
H164	H	1.008431	-0.930962	-0.581362
H165	H	1.012563	-0.865369	-0.519411
H166	H	1.070264	-0.930862	-0.514945
H167	H	0.924498	-0.941424	-0.490944
H168	H	0.982271	-1.006856	-0.486516
O169	O	0.144962	-0.223698	-0.411673
C170	C	0.152010	-0.143922	-0.497678
C171	C	0.188077	-0.188158	-0.449938
H172	H	0.186852	-0.115167	-0.528618
H173	H	0.121232	-0.172832	-0.533056
H174	H	0.121237	-0.110987	-0.466660
H175	H	0.218884	-0.221102	-0.480901
H176	H	0.218816	-0.159209	-0.414558
O177	O	0.988943	-0.537431	-0.411534
C178	C	1.068792	-0.544227	-0.497449
C179	C	1.024540	-0.580434	-0.449767
H180	H	1.097593	-0.578979	-0.528363
H181	H	1.039894	-0.513478	-0.532856
H182	H	1.101684	-0.513413	-0.466389
H183	H	0.991639	-0.611283	-0.480773
H184	H	1.053478	-0.611144	-0.414359
O185	O	0.830299	-0.667292	-0.240766
C186	C	0.745319	-0.741593	-0.231591
C187	C	0.789573	-0.705324	-0.279218
H188	H	0.712373	-0.772341	-0.262661
H189	H	0.774217	-0.772401	-0.196242
H190	H	0.716577	-0.706847	-0.200606
H191	H	0.818325	-0.740025	-0.310247
H192	H	0.760640	-0.674507	-0.314522
H193	H	0.836597	-0.542780	-0.247463
O194	O	0.989197	-0.223537	-0.718161
C195	C	1.069086	-0.143643	-0.710738
C196	C	1.024738	-0.187946	-0.671871
H197	H	1.097823	-0.114847	-0.673330
H198	H	1.102028	-0.172503	-0.743812
H199	H	1.040202	-0.110750	-0.743854
H200	H	1.053571	-0.220848	-0.638719
H201	H	0.991794	-0.159047	-0.638840
H202	H	0.982795	-0.229912	-0.584470
