data_functionalizedCrystal
_audit_creation_method	'MofGen! by Chris Wilmer'
_symmetry_space_group_name_H-M	'P1'
_symmetry_Int_Tables_number	1
_symmetry_cell_setting	triclinic
loop_
_symmetry_equiv_pos_as_xyz
  x,y,z
_cell_length_a	27.440280
_cell_length_b	14.560438
_cell_length_c	14.560438
_cell_angle_alpha	60.000095
_cell_angle_beta	89.996099
_cell_angle_gamma	59.991246
loop_
_atom_site_label
_atom_site_type_symbol
_atom_site_fract_x
_atom_site_fract_y
_atom_site_fract_z
Zr1	Zr	0.469463	1.005241	-0.120577
O2	O	0.391636	1.196868	-0.267224
O3	O	0.493325	0.813625	-0.075619
O4	O	0.493316	1.005239	-0.267227
O5	O	0.391647	1.005252	0.075525
O6	O	0.573518	1.005224	-0.267233
O7	O	0.391645	1.005254	-0.075616
O8	O	0.573534	0.662463	0.075519
O9	O	0.391631	1.348014	-0.267226
O10	O	0.563351	0.892424	-0.056452
O11	O	0.503498	0.892433	0.056346
O12	O	0.503488	1.118034	-0.169247
O13	O	0.443636	1.118043	-0.056448
Zr14	Zr	0.597379	1.005213	0.120467
Zr15	Zr	0.597376	1.005217	-0.120586
Zr16	Zr	0.469466	1.005237	0.120475
Zr17	Zr	0.469455	1.246301	-0.120581
Zr18	Zr	0.597387	0.764154	0.120471
O19	O	0.573517	1.196829	0.075509
O20	O	0.573512	1.196835	-0.267236
O21	O	0.391641	1.196862	0.075521
O22	O	0.675205	0.813586	0.267113
O23	O	0.675201	0.813592	-0.075632
O24	O	0.493330	0.813620	0.267126
O25	O	0.675194	1.005202	-0.075635
O26	O	0.573525	1.005215	0.267117
O27	O	0.493323	1.005230	0.267122
O28	O	0.675196	1.005200	0.075506
O29	O	0.493305	1.347995	-0.267233
O30	O	0.573536	0.662459	0.267123
O31	O	0.675210	0.662441	0.267116
O32	O	0.675208	0.662444	0.075512
O33	O	0.391634	1.348010	-0.075622
O34	O	0.493308	1.347992	-0.075629
O35	O	0.563354	0.892421	0.169137
O36	O	0.623206	0.892411	0.056338
O37	O	0.563343	1.118021	-0.056457
O38	O	0.503491	1.118030	0.056342
C39	C	0.533431	0.703698	-0.000050
C40	C	0.533434	0.601362	-0.000048
C41	C	0.577603	0.373861	0.083206
C42	C	0.577617	0.469996	0.083212
C43	C	0.489236	0.636593	-0.083325
C44	C	0.489225	0.540459	-0.083334
C45	C	0.373421	1.005257	-0.000044
C46	C	0.319119	1.005267	-0.000040
C47	C	-0.017580	1.005200	-0.083322
C48	C	-0.068598	1.005190	-0.083322
O49	O	-0.094974	1.005143	-0.154112
N50	N	-0.094115	1.005191	-0.000059
C51	C	-0.068607	1.005188	0.083217
O52	O	-0.094996	1.005187	0.154040
C53	C	-0.017588	1.005188	0.083222
C54	C	0.007923	1.005201	-0.000054
C55	C	0.007931	1.005210	-0.166589
C56	C	0.058945	1.005222	-0.166590
C57	C	0.084448	1.005223	-0.083322
C58	C	0.058937	1.005212	-0.000054
C59	C	0.007921	1.005176	0.166501
C60	C	0.058944	1.005175	0.166499
C61	C	0.084455	1.005187	0.083223
C62	C	0.135453	1.005225	0.083213
N63	N	0.160970	1.005224	-0.000050
C64	C	0.135467	1.005223	-0.083318
C65	C	-0.175751	1.005186	0.083203
C66	C	-0.226772	1.005196	0.083195
C67	C	-0.226758	1.005195	-0.083344
C68	C	-0.175739	1.005195	-0.083339
C69	C	-0.150234	1.005185	-0.000060
C70	C	0.242599	1.005249	-0.083313
C71	C	0.293616	1.005266	-0.083308
C72	C	0.293600	1.005259	0.083233
C73	C	0.242586	1.005249	0.083226
C74	C	0.217088	1.005239	-0.000052
O75	O	0.161863	1.005267	0.153970
O76	O	0.161866	1.005207	-0.154120
C77	C	0.693420	1.005198	-0.000066
C78	C	0.747723	1.005188	-0.000070
C79	C	0.533417	1.005232	-0.301575
C80	C	0.533415	1.005234	-0.403908
C81	C	0.533411	1.306756	-0.000061
C82	C	0.533408	1.409092	-0.000063
C83	C	0.502168	1.122998	-0.510861
C84	C	0.502175	1.122991	-0.607010
C85	C	0.564677	0.887448	-0.489238
C86	C	0.564673	0.887455	-0.393091
C87	C	0.533425	1.005222	0.301464
C88	C	0.533426	1.005220	0.403797
C89	C	0.693430	0.703669	-0.000061
C90	C	0.747736	0.601323	-0.000062
C91	C	0.533435	0.703693	0.301470
C92	C	0.533439	0.601355	0.403805
C93	C	0.693434	0.703664	0.301459
C94	C	0.747741	0.601316	0.403790
C95	C	0.373407	1.306791	-0.301569
C96	C	0.319100	1.409138	-0.403900
C97	C	0.373411	1.306785	-0.000050
C98	C	0.319106	1.409132	-0.000048
C99	C	0.533407	1.306761	-0.301580
C100	C	0.533402	1.409099	-0.403915
C101	C	0.741994	0.553267	-0.058949
C102	C	0.793015	0.457115	-0.058973
C103	C	0.849777	0.409014	-0.000104
C104	C	0.855518	0.457080	0.058785
C105	C	0.804497	0.553237	0.058802
C106	C	0.804492	0.553248	0.392966
C107	C	0.855524	0.457094	0.489108
C108	C	0.849804	0.409005	0.596072
C109	C	0.793047	0.457082	0.606894
C110	C	0.742017	0.553241	0.510754
C111	C	0.262349	1.457218	-0.393076
C112	C	0.211317	1.553402	-0.489218
C113	C	0.217037	1.601496	-0.596183
C114	C	0.273794	1.553412	-0.607005
C115	C	0.324825	1.457237	-0.510864
C116	C	0.324847	1.457198	0.058829
C117	C	0.273826	1.553376	0.058826
C118	C	0.217064	1.601480	-0.000047
C119	C	0.211324	1.553410	-0.058930
C120	C	0.262345	1.457240	-0.058934
C121	C	0.564685	0.553268	0.510757
C122	C	0.564682	0.457120	0.606908
C123	C	0.502188	0.457151	0.489140
C124	C	0.502187	0.553304	0.392991
H125	H	0.314384	1.005279	-0.151125
H126	H	0.371061	1.418039	0.106777
H127	H	-0.154971	1.005204	-0.151149
Cl128	Cl	0.603963	0.396675	0.741362
Cl129	Cl	0.670643	0.613721	-0.132971
H130	H	0.314371	1.005265	0.151026
H131	H	0.613606	0.441298	0.151017
H132	H	0.476741	0.592460	0.305899
H133	H	0.453264	0.743561	-0.151121
Cl134	Cl	0.913964	0.288116	0.716926
Cl135	Cl	0.785785	0.396704	-0.133004
H136	H	0.788399	0.417914	0.693998
Cl137	Cl	0.603965	0.739391	-0.475650
Cl138	Cl	0.255143	1.396776	-0.258618
H139	H	0.809161	0.592388	0.305879
Cl140	Cl	0.603957	0.739397	-0.258624
Cl141	Cl	0.913912	0.288127	-0.000133
Cl142	Cl	0.926868	0.396668	0.475477
Cl143	Cl	0.633149	0.208718	0.187886
Cl144	Cl	0.462905	0.396732	0.475556
Cl145	Cl	0.670675	0.613650	0.524381
Cl146	Cl	0.926880	0.396591	0.132793
Cl147	Cl	0.603971	0.613676	0.524354
Cl148	Cl	-0.258828	1.005190	-0.188021
Cl149	Cl	0.433663	0.584754	-0.188028
H150	H	0.221845	1.005238	-0.151124
Cl151	Cl	0.091004	1.005159	0.271202
H152	H	0.809180	0.592352	0.106761
Cl153	Cl	0.091013	1.005225	-0.271276
H154	H	0.476716	1.218901	-0.519675
H155	H	0.165109	1.592535	-0.480385
Cl156	Cl	-0.143697	1.005190	0.187899
Cl157	Cl	-0.024121	1.005210	-0.271283
H158	H	0.476732	1.218886	-0.694094
Cl159	Cl	0.281056	1.613781	0.132863
H160	H	0.165102	1.592591	-0.106863
H161	H	0.175480	1.679808	-0.674458
H162	H	0.278444	1.592584	-0.694107
Cl163	Cl	-0.258843	1.005206	0.187875
Cl164	Cl	0.210511	1.005254	0.187908
Cl165	Cl	-0.024138	1.005156	0.271197
Cl166	Cl	0.396167	1.396796	-0.524491
Cl167	Cl	0.255116	1.396817	-0.132949
Cl168	Cl	0.152929	1.722378	-0.000028
