data_functionalizedCrystal
_audit_creation_method	'MofGen! by Chris Wilmer'
_symmetry_space_group_name_H-M	'P1'
_symmetry_Int_Tables_number	1
_symmetry_cell_setting	triclinic
loop_
_symmetry_equiv_pos_as_xyz
  x,y,z
_cell_length_a	21.295420
_cell_length_b	21.295417
_cell_length_c	12.759393
_cell_angle_alpha	90.038123
_cell_angle_beta	90.021739
_cell_angle_gamma	90.025484
loop_
_atom_site_label
_atom_site_type_symbol
_atom_site_fract_x
_atom_site_fract_y
_atom_site_fract_z
Zn1	Zn	0.962341	-0.250643	0.594024
Zn2	Zn	1.462341	0.249357	1.094024
Zn3	Zn	0.962250	-0.355927	0.418324
Zn4	Zn	1.462250	0.144073	0.918324
Zn5	Zn	0.857070	-0.250668	0.418354
Zn6	Zn	1.357070	0.249332	0.918354
Zn7	Zn	0.857035	-0.355870	0.593956
Zn8	Zn	1.357035	0.144130	1.093956
O9	O	0.909674	-0.303277	0.506165
O10	O	1.409674	0.196723	1.006165
O11	O	1.050418	-0.264622	0.570734
O12	O	1.550418	0.235378	1.070734
O13	O	0.948274	-0.341998	0.271307
O14	O	1.448274	0.158002	0.771307
O15	O	0.871087	-0.162575	0.441698
O16	O	1.371087	0.337425	0.941698
O17	O	1.050352	-0.341974	0.441648
O18	O	1.550352	0.158026	0.941648
O19	O	0.948429	-0.162557	0.570762
O20	O	1.448429	0.337443	1.070762
O21	O	0.870998	-0.264665	0.271329
O22	O	1.370998	0.235335	0.771329
O23	O	0.768976	-0.264610	0.441631
O24	O	1.268976	0.235390	0.941631
O25	O	0.871028	-0.341878	0.740986
O26	O	1.371028	0.158122	1.240986
O27	O	0.768950	-0.341902	0.570645
O28	O	1.268950	0.158098	1.070645
O29	O	0.948396	-0.264567	0.741036
O30	O	1.448396	0.235433	1.241036
O31	O	0.948241	-0.444009	0.441581
O32	O	1.448241	0.055991	0.941581
O33	O	0.870940	-0.443967	0.570617
O34	O	1.370940	0.056033	1.070617
C35	C	0.746122	-0.303253	0.506135
C36	C	1.246122	0.196747	1.006135
C37	C	0.676154	-0.303258	0.506147
C38	C	1.176154	0.196742	1.006147
C39	C	0.176730	-0.263095	0.573505
C40	C	0.676730	0.236905	1.073505
C41	C	0.242473	-0.263090	0.573504
C42	C	0.742473	0.236910	1.073504
C43	C	0.275315	-0.303296	0.506189
C44	C	0.775315	0.196704	1.006189
C45	C	0.242409	-0.343521	0.438888
C46	C	0.742409	0.156479	0.938888
C47	C	0.176668	-0.343529	0.438897
C48	C	0.676668	0.156471	0.938897
N49	N	0.378508	-0.308049	0.414194
N50	N	0.878508	0.191951	0.914194
N51	N	0.440959	-0.308037	0.414188
N52	N	0.940959	0.191963	0.914188
C53	C	0.473390	-0.303275	0.506158
C54	C	0.973390	0.196725	1.006158
N55	N	0.441010	-0.298513	0.598136
N56	N	0.941010	0.201487	1.098136
N57	N	0.378552	-0.298521	0.598141
N58	N	0.878552	0.201479	1.098141
C59	C	0.346600	-0.303292	0.506172
C60	C	0.846600	0.196708	1.006172
C61	C	0.577573	-0.263051	0.573460
C62	C	1.077573	0.236949	1.073460
C63	C	0.643317	-0.263051	0.573462
C64	C	1.143317	0.236949	1.073462
C65	C	0.643252	-0.343478	0.438836
C66	C	1.143252	0.156522	0.938836
C67	C	0.577509	-0.343482	0.438843
C68	C	1.077509	0.156518	0.938843
C69	C	0.544674	-0.303265	0.506154
C70	C	1.044674	0.196735	1.006154
C71	C	0.909594	-0.466829	0.506111
C72	C	1.409594	0.033171	1.006111
C73	C	0.909617	-0.536797	0.506124
C74	C	1.409617	-0.036797	1.006124
C75	C	0.949866	-0.569597	0.573376
C76	C	1.449866	-0.069597	1.073376
C77	C	0.949889	-0.635339	0.573401
C78	C	1.449889	-0.135339	1.073401
C79	C	0.909668	-0.668279	0.506157
C80	C	1.409668	-0.168279	1.006157
C81	C	0.869411	-0.635471	0.438900
C82	C	1.369411	-0.135471	0.938900
C83	C	0.869386	-0.569730	0.438884
C84	C	1.369386	-0.069730	0.938884
N85	N	0.904911	-0.771548	0.414210
N86	N	1.404911	-0.271548	0.914210
N87	N	0.904939	-0.833999	0.414229
N88	N	1.404939	-0.333999	0.914229
C89	C	0.909742	-0.866354	0.506204
C90	C	1.409742	-0.366354	1.006204
N91	N	0.914527	-0.833898	0.598162
N92	N	1.414527	-0.333898	1.098162
N93	N	0.914503	-0.771440	0.598143
N94	N	1.414503	-0.271440	1.098143
C95	C	0.909691	-0.739565	0.506168
C96	C	1.409691	-0.239565	1.006168
C97	C	0.950017	-0.970439	0.573490
C98	C	1.450017	-0.470439	1.073490
C99	C	0.950035	-1.036183	0.573518
C100	C	1.450035	-0.536183	1.073518
C101	C	0.869561	-1.036314	0.439007
C102	C	1.369561	-0.536314	0.939007
C103	C	0.869540	-0.970572	0.438989
C104	C	1.369540	-0.470572	0.938989
C105	C	0.909771	-0.937638	0.506229
C106	C	1.409771	-0.437638	1.006229
C107	C	1.073864	-0.303302	0.506195
C108	C	1.573864	0.196698	1.006195
C109	C	1.143832	-0.303312	0.506208
C110	C	1.643832	0.196688	1.006208
C111	C	0.909718	-0.303214	0.780198
C112	C	1.409718	0.196786	1.280198
C113	C	0.909737	-0.303186	0.896975
C114	C	1.409737	0.196814	1.396975
C115	C	0.909772	-0.139087	0.506241
C116	C	1.409772	0.360913	1.006241
C117	C	0.909813	-0.069119	0.506273
C118	C	1.409813	0.430881	1.006273
C119	C	0.909666	-0.303295	0.233197
C120	C	1.409666	0.196705	0.733197
C121	C	0.909770	-0.303145	0.116421
C122	C	1.409770	0.196855	0.616421
C123	C	0.950028	-0.262927	0.951865
C124	C	1.450028	0.237073	1.451865
C125	C	0.950043	-0.262904	1.061589
C126	C	1.450043	0.237096	1.561589
C127	C	0.869474	-0.343406	1.061523
C128	C	1.369474	0.156594	1.561523
C129	C	0.869457	-0.343425	0.951801
C130	C	1.369457	0.156575	1.451801
C131	C	0.990308	-0.222689	0.897038
C132	C	1.490308	0.277311	1.397038
C133	C	1.030603	-0.182427	0.951928
C134	C	1.530603	0.317573	1.451928
C135	C	1.030618	-0.182404	1.061652
C136	C	1.530618	0.317596	1.561652
C137	C	0.990338	-0.222643	1.116486
C138	C	1.490338	0.277357	1.616486
H139	H	0.669991	-0.376220	0.384034
H140	H	1.169991	0.123780	0.884034
H141	H	0.836680	-0.376166	1.106178
H142	H	1.336680	0.123834	1.606178
N143	N	0.993252	-0.534076	0.645902
N144	N	1.493252	-0.034076	1.145902
H145	H	1.018752	-0.564834	0.688513
H146	H	1.518752	-0.064834	1.188513
H147	H	0.967600	-0.506799	0.694478
H148	H	1.467600	-0.006799	1.194478
N149	N	0.826000	-0.386845	0.892589
N150	N	1.326000	0.113155	1.392589
H151	H	0.800489	-0.412337	0.943969
H152	H	1.300489	0.087663	1.443969
H153	H	0.851600	-0.415988	0.847050
H154	H	1.351600	0.084012	1.347050
N155	N	0.542026	-0.386854	0.366242
N156	N	1.042026	0.113146	0.866242
H157	H	0.514745	-0.361240	0.317637
H158	H	1.014745	0.138760	0.817637
H159	H	0.514788	-0.416051	0.408926
H160	H	1.014788	0.083949	0.908926
H161	H	0.269264	-0.230338	0.628304
H162	H	0.769264	0.269662	1.128304
N163	N	0.993302	-0.670727	0.645939
N164	N	1.493302	-0.170727	1.145939
H165	H	1.018784	-0.639888	0.688533
H166	H	1.518784	-0.139888	1.188533
H167	H	1.022454	-0.697999	0.603214
H168	H	1.522454	-0.197999	1.103214
H169	H	1.063393	-0.149662	0.907275
H170	H	1.563393	0.350338	1.407275
N171	N	1.074065	-0.138971	1.120858
N172	N	1.574065	0.361029	1.620858
H173	H	1.099575	-0.113483	1.069473
H174	H	1.599575	0.386517	1.569473
H175	H	1.103188	-0.164586	1.166381
H176	H	1.603188	0.335414	1.666381
N177	N	0.990347	-0.222614	1.234832
N178	N	1.490347	0.277386	1.734832
H179	H	1.021981	-0.191002	1.261287
H180	H	1.521981	0.308998	1.761287
H181	H	1.001875	-0.265815	1.261160
H182	H	1.501875	0.234185	1.761160
N183	N	0.277826	-0.386888	0.366284
N184	N	0.777826	0.113112	0.866284
H185	H	0.324466	-0.380779	0.376486
H186	H	0.824466	0.119221	0.876486
H187	H	0.266315	-0.377042	0.291281
H188	H	0.766315	0.122958	0.791281
N189	N	0.678797	-0.219667	0.646052
N190	N	1.178797	0.280333	1.146052
H191	H	0.706072	-0.190467	0.603435
H192	H	1.206072	0.309533	1.103435
H193	H	0.706040	-0.245318	0.694655
H194	H	1.206040	0.254682	1.194655
N195	N	0.141315	-0.219713	0.646089
N196	N	0.641315	0.280287	1.146089
H197	H	0.172136	-0.194232	0.688717
H198	H	0.672136	0.305768	1.188717
H199	H	0.114040	-0.245363	0.694645
H200	H	0.614040	0.254637	1.194645
H201	H	0.836662	-0.662295	0.384152
H202	H	1.336662	-0.162295	0.884152
H203	H	0.149882	-0.376280	0.384095
H204	H	0.649882	0.123720	0.884095
H205	H	0.836609	-0.543024	0.384118
H206	H	1.336609	-0.043024	0.884118
N207	N	0.993399	-0.934907	0.646013
N208	N	1.493399	-0.434907	1.146013
H209	H	1.038386	-0.946320	0.629774
H210	H	1.538386	-0.446320	1.129774
H211	H	0.983547	-0.946329	0.721040
H212	H	1.483547	-0.446329	1.221040
N213	N	0.542152	-0.219680	0.646059
N214	N	1.042152	0.280320	1.146059
H215	H	0.572972	-0.194204	0.688699
H216	H	1.072972	0.305796	1.188699
H217	H	0.514878	-0.245339	0.694603
H218	H	1.014878	0.254661	1.194603
N219	N	0.993425	-1.071564	0.646097
N220	N	1.493425	-0.571564	1.146097
H221	H	1.018900	-1.040722	0.688697
H222	H	1.518900	-0.540722	1.188697
H223	H	1.022585	-1.098851	0.603415
H224	H	1.522585	-0.598851	1.103415
H225	H	0.836768	-0.943864	0.384221
H226	H	1.336768	-0.443864	0.884221
N227	N	0.826174	-1.071832	0.366485
N228	N	1.326174	-0.571832	0.866485
H229	H	0.832295	-1.118457	0.376701
H230	H	1.332295	-0.618457	0.876701
H231	H	0.835990	-1.060371	0.291462
H232	H	1.335990	-0.560371	0.791462
N233	N	0.990295	-0.222717	0.778695
N234	N	1.490295	0.277283	1.278695
H235	H	1.021925	-0.191118	0.752289
H236	H	1.521925	0.308882	1.252289
H237	H	0.947095	-0.211160	0.752342
H238	H	1.447095	0.288840	1.252342
