data_functionalizedCrystal
_audit_creation_method	'MofGen! by Chris Wilmer'
_symmetry_space_group_name_H-M	'P1'
_symmetry_Int_Tables_number	1
_symmetry_cell_setting	triclinic
loop_
_symmetry_equiv_pos_as_xyz
  x,y,z
_cell_length_a	21.395362
_cell_length_b	15.299816
_cell_length_c	21.395355
_cell_angle_alpha	80.332906
_cell_angle_beta	90.043940
_cell_angle_gamma	80.369816
loop_
_atom_site_label
_atom_site_type_symbol
_atom_site_fract_x
_atom_site_fract_y
_atom_site_fract_z
Zn1	Zn	1.001015	-0.358779	0.397782
Zn2	Zn	1.019056	-0.509576	0.311160
Zn3	Zn	0.896235	-0.358821	0.292988
Zn4	Zn	0.914340	-0.509595	0.415867
O5	O	0.957662	-0.434193	0.354450
O6	O	1.091083	-0.378757	0.386328
O7	O	1.002737	-0.489588	0.221073
O8	O	0.895007	-0.232606	0.291716
O9	O	1.104338	-0.489547	0.322687
O10	O	0.971989	-0.232576	0.368707
O11	O	0.912501	-0.378829	0.207722
O12	O	0.810962	-0.378847	0.309252
O13	O	0.925865	-0.489579	0.501145
O14	O	0.824264	-0.489620	0.399531
O15	O	0.989544	-0.378775	0.487858
O16	O	1.020293	-0.635788	0.340224
O17	O	0.943358	-0.635801	0.417152
C18	C	0.794880	-0.434240	0.354383
C19	C	0.725244	-0.434283	0.354371
C20	C	0.985765	-0.668519	0.382636
C21	C	0.997845	-0.768765	0.394715
C22	C	0.699482	-0.492039	0.401329
C23	C	0.634044	-0.492016	0.401354
C24	C	0.594371	-0.434248	0.354412
C25	C	0.620139	-0.376481	0.307450
C26	C	0.685575	-0.376498	0.307430
C27	C	0.489772	-0.426982	0.297132
C28	C	0.424338	-0.426971	0.297152
C29	C	0.392543	-0.434189	0.354474
C30	C	0.426193	-0.441437	0.411780
C31	C	0.491629	-0.441454	0.411760
C32	C	0.523416	-0.434222	0.354429
C33	C	0.295827	-0.491924	0.401462
C34	C	0.230387	-0.491896	0.401488
C35	C	0.216484	-0.376365	0.307579
C36	C	0.281922	-0.376388	0.307559
C37	C	0.321590	-0.434173	0.354500
C38	C	0.871735	-1.051704	0.268331
C39	C	0.860382	-0.957518	0.256984
C40	C	0.894747	-0.910325	0.291415
C41	C	0.940466	-0.957327	0.337197
C42	C	0.951817	-1.051522	0.348549
C43	C	0.974829	-0.910143	0.371633
C44	C	1.020548	-0.957146	0.417414
C45	C	1.031897	-1.051331	0.428764
C46	C	0.997532	-1.098524	0.394332
C47	C	0.963478	-0.815948	0.360281
C48	C	1.043560	-0.815767	0.440498
C49	C	1.054913	-0.909953	0.451846
C50	C	1.121079	-0.434146	0.354517
C51	C	1.190718	-0.434125	0.354546
C52	C	0.957712	-0.434174	0.517871
C53	C	0.957733	-0.434167	0.587511
C54	C	0.929466	-0.198952	0.326167
C55	C	0.917450	-0.098706	0.314115
C56	C	0.957640	-0.434146	0.191656
C57	C	0.957710	-0.433900	0.121986
C58	C	0.990889	-0.376469	0.613306
C59	C	0.990883	-0.376430	0.678737
C60	C	0.957730	-0.434105	0.718372
C61	C	0.924567	-0.491807	0.692569
C62	C	0.924568	-0.491838	0.627139
C63	C	0.962523	-0.515315	0.831813
C64	C	0.962526	-0.515286	0.897243
C65	C	0.957723	-0.434010	0.920181
C66	C	0.952929	-0.352761	0.877682
C67	C	0.952930	-0.352792	0.812252
C68	C	0.957725	-0.434078	0.789321
C69	C	0.990874	-0.376265	1.016924
C70	C	0.990864	-0.376225	1.082355
C71	C	0.924552	-0.491610	1.096187
C72	C	0.924558	-0.491642	1.030756
C73	C	0.957722	-0.433971	0.991128
H74	H	0.731777	-0.539090	0.439553
H75	H	0.949025	-0.286636	0.777651
C76	C	0.833983	-1.103622	0.230418
N77	N	0.805562	-1.142728	0.201844
H78	H	1.017875	-0.329300	0.984656
C79	C	0.967799	-0.604660	0.943986
N80	N	0.971769	-0.671980	0.979192
H81	H	1.069122	-1.089598	0.466045
C82	C	1.105201	-0.961667	0.502207
N83	N	1.143077	-1.000620	0.540140
C84	C	1.081365	-0.763859	0.478375
N85	N	1.109837	-0.724756	0.506901
C86	C	1.027339	-0.312747	1.110729
N87	N	1.054813	-0.264935	1.132100
H88	H	0.885501	-0.833634	0.282173
H89	H	0.823157	-0.919252	0.219710
H90	H	1.017893	-0.329507	0.581045
C91	C	0.172847	-0.312817	0.255943
N92	N	0.139976	-0.264951	0.217049
H93	H	0.966264	-0.581482	0.813142
C94	C	0.605701	-0.555558	0.453011
N95	N	0.584354	-0.603419	0.491918
C96	C	0.528641	-0.449426	0.474795
N97	N	0.556519	-0.455429	0.522274
H98	H	0.328126	-0.538971	0.439687
H99	H	0.897551	-0.538561	1.128457
C100	C	0.202051	-0.555443	0.453143
N101	N	0.180709	-0.603312	0.492048
C102	C	0.888095	-0.555246	0.736169
N103	N	0.860621	-0.603027	0.769008
H104	H	1.006776	-1.175218	0.403567
C105	C	0.888086	-0.555120	1.002381
N106	N	0.860612	-0.602931	0.981009
C107	C	0.524740	-0.419045	0.234069
N108	N	0.551078	-0.413069	0.186572
H109	H	1.017881	-0.329440	0.699743
H110	H	0.400307	-0.447313	0.458457
C111	C	0.888094	-0.555315	0.598764
N112	N	0.860622	-0.603129	0.577392
C113	C	0.310261	-0.312859	0.255897
N114	N	0.331605	-0.265006	0.216983
C115	C	0.387329	-0.418992	0.234114
N116	N	0.359454	-0.412977	0.186632
C117	C	0.947643	-0.263350	0.902909
N118	N	0.943663	-0.196008	0.921912
C119	C	0.576497	-0.312935	0.255814
N120	N	0.543626	-0.265068	0.216921
C121	C	0.913188	-0.764257	0.309922
N122	N	0.875307	-0.725324	0.271988
H123	H	0.706549	-0.329463	0.269192
