data_functionalizedCrystal
_audit_creation_method	'MofGen! by Chris Wilmer'
_symmetry_space_group_name_H-M	'P1'
_symmetry_Int_Tables_number	1
_symmetry_cell_setting	triclinic
loop_
_symmetry_equiv_pos_as_xyz
  x,y,z
_cell_length_a	17.640112
_cell_length_b	19.805405
_cell_length_c	19.805399
_cell_angle_alpha	89.969291
_cell_angle_beta	101.179593
_cell_angle_gamma	101.251918
loop_
_atom_site_label
_atom_site_type_symbol
_atom_site_fract_x
_atom_site_fract_y
_atom_site_fract_z
Zn1	Zn	1.208314	-0.060065	-0.173858
Zn2	Zn	1.708314	0.439935	0.326142
Zn3	Zn	1.208221	-0.173272	-0.060682
Zn4	Zn	1.708221	0.326728	0.439318
Zn5	Zn	1.076146	-0.082991	-0.083527
Zn6	Zn	1.576146	0.417009	0.416473
Zn7	Zn	1.076097	-0.196131	-0.196666
Zn8	Zn	1.576097	0.303869	0.303334
O9	O	1.142194	-0.128115	-0.128683
O10	O	1.642194	0.371885	0.371317
O11	O	1.318909	-0.055920	-0.139738
O12	O	1.818909	0.444080	0.360262
O13	O	1.190682	-0.161324	0.031001
O14	O	1.690682	0.338676	0.531001
O15	O	1.093738	0.014777	-0.095525
O16	O	1.593738	0.514777	0.404475
O17	O	1.318841	-0.139093	-0.056589
O18	O	1.818841	0.360907	0.443411
O19	O	1.190841	0.031621	-0.161890
O20	O	1.690841	0.531621	0.338110
O21	O	1.093647	-0.094996	0.014217
O22	O	1.593647	0.405004	0.514217
O23	O	0.965532	-0.117161	-0.117641
O24	O	1.465532	0.382839	0.382359
O25	O	1.093654	-0.178053	-0.288354
O26	O	1.593654	0.321947	0.211646
O27	O	0.965496	-0.200284	-0.200764
O28	O	1.465496	0.299716	0.299236
O29	O	1.190794	-0.078086	-0.271597
O30	O	1.690794	0.421914	0.228403
O31	O	1.190635	-0.271031	-0.078705
O32	O	1.690635	0.228969	0.421295
O33	O	1.093564	-0.287825	-0.178612
O34	O	1.593564	0.212175	0.321388
C35	C	1.142106	-0.303986	-0.128666
C36	C	1.642106	0.196014	0.371334
C37	C	1.142140	-0.379212	-0.128669
C38	C	1.642140	0.120788	0.371331
C39	C	0.936835	-0.163691	-0.164157
C40	C	1.436835	0.336309	0.335843
C41	C	0.848981	-0.178927	-0.179349
C42	C	1.348981	0.321073	0.320651
C43	C	1.192734	-0.405781	-0.076684
C44	C	1.692734	0.094219	0.423316
C45	C	1.192767	-0.476463	-0.076693
C46	C	1.692767	0.023537	0.423307
C47	C	1.142202	-0.520577	-0.128685
C48	C	1.642202	-0.020577	0.371315
C49	C	1.091606	-0.494004	-0.180675
C50	C	1.591606	0.005996	0.319325
C51	C	1.091577	-0.423322	-0.180668
C52	C	1.591577	0.076678	0.319332
C53	C	1.091723	-0.779057	-0.180705
C54	C	1.591723	-0.279057	0.319295
C55	C	1.091754	-0.849744	-0.180706
C56	C	1.591754	-0.349744	0.319294
C57	C	1.192913	-0.832198	-0.076730
C58	C	1.692913	-0.332198	0.423270
C59	C	1.192884	-0.761516	-0.076723
C60	C	1.692884	-0.261516	0.423277
C61	C	1.142291	-0.734949	-0.128715
C62	C	1.642291	-0.234949	0.371285
C63	C	1.142256	-0.658306	-0.128705
C64	C	1.642256	-0.158306	0.371295
C65	C	1.142233	-0.597219	-0.128692
C66	C	1.642233	-0.097219	0.371308
C67	C	0.560025	-0.012356	-0.013277
C68	C	1.060025	0.487644	0.486723
C69	C	0.477473	-0.026686	-0.027561
C70	C	0.977473	0.473314	0.472439
C71	C	0.477490	-0.113361	-0.113968
C72	C	0.977490	0.386639	0.386032
C73	C	0.560043	-0.099036	-0.099693
C74	C	1.060043	0.400964	0.400307
C75	C	0.601304	-0.048533	-0.049346
C76	C	1.101304	0.451467	0.450654
C77	C	0.601323	-0.135213	-0.135762
C78	C	1.101323	0.364787	0.364238
C79	C	0.683869	-0.120891	-0.121486
C80	C	1.183869	0.379109	0.378514
C81	C	0.725136	-0.070392	-0.071140
C82	C	1.225136	0.429608	0.428860
C83	C	0.683851	-0.034211	-0.035070
C84	C	1.183851	0.465789	0.464930
C85	C	0.560060	-0.185719	-0.186105
C86	C	1.060060	0.314281	0.313895
C87	C	0.601340	-0.221896	-0.222175
C88	C	1.101340	0.278104	0.277825
C89	C	0.683888	-0.207571	-0.207902
C90	C	1.183888	0.292429	0.292098
C91	C	0.725155	-0.157072	-0.157556
C92	C	1.225155	0.342928	0.342444
C93	C	0.725173	-0.243752	-0.243972
C94	C	1.225173	0.256248	0.256028
C95	C	0.807720	-0.229430	-0.229696
C96	C	1.307720	0.270570	0.270304
C97	C	0.807701	-0.142750	-0.143280
C98	C	1.307701	0.357250	0.356720
C99	C	1.348356	-0.092400	-0.093071
C100	C	1.848356	0.407600	0.406929
C101	C	1.436210	-0.077180	-0.077895
C102	C	1.936210	0.422820	0.422105
C103	C	1.142229	-0.128062	-0.305220
C104	C	1.642229	0.371938	0.194780
C105	C	1.142244	-0.128039	-0.380450
C106	C	1.642244	0.371961	0.119550
C107	C	1.142305	0.048447	-0.128712
C108	C	1.642305	0.548447	0.371288
C109	C	1.142353	0.123688	-0.128724
C110	C	1.642353	0.623688	0.371276
C111	C	1.091732	-0.093495	-0.424530
C112	C	1.591732	0.406505	0.075470
C113	C	1.091743	-0.093480	-0.495217
C114	C	1.591743	0.406520	0.004783
C115	C	1.142270	-0.128005	-0.521821
C116	C	1.642270	0.371995	-0.021821
C117	C	1.192784	-0.162554	-0.477735
C118	C	1.692784	0.337446	0.022265
C119	C	1.192769	-0.162572	-0.407050
C120	C	1.692769	0.337428	0.092950
C121	C	1.192847	-0.162479	-0.762797
C122	C	1.692847	0.337521	-0.262797
C123	C	1.192860	-0.162456	-0.833487
C124	C	1.692860	0.337544	-0.333487
C125	C	1.091821	-0.093387	-0.850964
C126	C	1.591821	0.406613	-0.350964
C127	C	1.091806	-0.093406	-0.780279
C128	C	1.591806	0.406594	-0.280279
C129	C	1.142316	-0.127957	-0.736200
C130	C	1.642316	0.372043	-0.236200
C131	C	1.142303	-0.127974	-0.659554
C132	C	1.642303	0.372026	-0.159554
C133	C	1.142288	-0.127985	-0.598465
C134	C	1.642288	0.372015	-0.098465
C135	C	1.142205	-0.128111	0.047175
C136	C	1.642205	0.371889	0.547175
C137	C	1.142344	-0.127916	0.122430
C138	C	1.642344	0.372084	0.622430
H139	H	1.233906	-0.369867	-0.034344
H140	H	1.733906	0.130133	0.465656
Cl141	Cl	1.028183	-0.905201	-0.246074
Cl142	Cl	1.528183	-0.405201	0.253926
Cl143	Cl	0.549462	-0.285391	-0.285457
Cl144	Cl	1.049462	0.214609	0.214543
H145	H	0.492846	-0.197378	-0.197727
H146	H	0.992846	0.302622	0.302273
H147	H	1.050439	-0.529926	-0.223010
H148	H	1.550439	-0.029926	0.276990
Cl149	Cl	1.028203	-0.050089	-0.550636
Cl150	Cl	1.528203	0.449911	-0.050636
Cl151	Cl	0.425611	-0.176856	-0.177250
Cl152	Cl	0.925611	0.323144	0.322750
H153	H	1.050664	-0.065289	-0.758622
H154	H	1.550664	0.434711	-0.258622
H155	H	1.050380	-0.401691	-0.222999
H156	H	1.550380	0.098309	0.277001
Cl157	Cl	1.028318	-0.049954	-0.906383
Cl158	Cl	1.528318	0.450046	-0.406383
Cl159	Cl	1.256384	-0.205864	-0.866931
Cl160	Cl	1.756384	0.294136	-0.366931
H161	H	0.691566	-0.284876	-0.284959
H162	H	1.191566	0.215124	0.215041
Cl163	Cl	1.256454	-0.706062	-0.011360
Cl164	Cl	1.756454	-0.206062	0.488640
H165	H	0.841331	-0.258889	-0.259068
H166	H	1.341331	0.241111	0.240932
Cl167	Cl	1.256377	-0.509860	-0.011339
Cl168	Cl	1.756377	-0.009860	0.488661
Cl169	Cl	1.256352	-0.205909	-0.707391
Cl170	Cl	1.756352	0.294091	-0.207391
Cl171	Cl	1.028212	-0.050085	-0.391092
Cl172	Cl	1.528212	0.449915	0.108908
Cl173	Cl	0.735728	0.029284	0.028220
Cl174	Cl	1.235728	0.529284	0.528220
Cl175	Cl	0.859579	-0.079255	-0.079990
Cl176	Cl	1.359579	0.420745	0.420010
H177	H	1.050527	-0.757432	-0.223037
H178	H	1.550527	-0.257432	0.276963
Cl179	Cl	1.256521	-0.865601	-0.011371
Cl180	Cl	1.756521	-0.365601	0.488629
H181	H	1.233920	-0.190669	-0.499402
H182	H	1.733920	0.309331	0.000598
H183	H	1.233907	-0.190696	-0.371159
H184	H	1.733907	0.309304	0.128841
H185	H	0.792351	-0.058733	-0.059516
H186	H	1.292351	0.441267	0.440484
H187	H	0.593622	0.028779	0.027710
H188	H	1.093622	0.528779	0.527710
H189	H	0.443866	0.002782	0.001810
H190	H	0.943866	0.502782	0.501810
