data_functionalizedCrystal
_audit_creation_method	'MofGen! by Chris Wilmer'
_symmetry_space_group_name_H-M	'P1'
_symmetry_Int_Tables_number	1
_symmetry_cell_setting	triclinic
loop_
_symmetry_equiv_pos_as_xyz
  x,y,z
_cell_length_a	14.628931
_cell_length_b	14.560438
_cell_length_c	14.560438
_cell_angle_alpha	59.996693
_cell_angle_beta	90.000974
_cell_angle_gamma	60.001335
loop_
_atom_site_label
_atom_site_type_symbol
_atom_site_fract_x
_atom_site_fract_y
_atom_site_fract_z
Zr1	Zr	0.880623	1.005313	-0.120589
O2	O	0.734660	1.196924	-0.267251
O3	O	0.925368	0.813704	-0.075621
O4	O	0.925365	1.005316	-0.267238
O5	O	0.734667	1.005310	0.075507
O6	O	1.075797	1.005315	-0.267238
O7	O	0.734664	1.005313	-0.075634
O8	O	1.075803	0.662557	0.075529
O9	O	0.734661	1.348068	-0.267260
O10	O	1.056718	0.892515	-0.056453
O11	O	0.944455	0.892513	0.056341
O12	O	0.944451	1.118111	-0.169263
O13	O	0.832188	1.118109	-0.056468
Zr14	Zr	1.120551	1.005308	0.120463
Zr15	Zr	1.120545	1.005313	-0.120589
Zr16	Zr	0.880629	1.005309	0.120463
Zr17	Zr	0.880625	1.246370	-0.120605
Zr18	Zr	1.120550	0.764252	0.120479
O19	O	1.075807	1.196918	0.075495
O20	O	1.075798	1.196923	-0.267250
O21	O	0.734669	1.196919	0.075495
O22	O	1.266515	0.813697	0.267124
O23	O	1.266506	0.813703	-0.075621
O24	O	0.925377	0.813698	0.267124
O25	O	1.266507	1.005311	-0.075633
O26	O	1.075810	1.005306	0.267112
O27	O	0.925378	1.005307	0.267111
O28	O	1.266511	1.005309	0.075508
O29	O	0.925367	1.348068	-0.267260
O30	O	1.075808	0.662554	0.267134
O31	O	1.266514	0.662554	0.267134
O32	O	1.266509	0.662557	0.075530
O33	O	0.734666	1.348065	-0.075656
O34	O	0.925372	1.348064	-0.075656
O35	O	1.056724	0.892511	0.169136
O36	O	1.168987	0.892512	0.056342
O37	O	1.056720	1.118109	-0.056468
O38	O	0.944457	1.118107	0.056327
C39	C	1.000585	0.703785	-0.000044
C40	C	1.000584	0.601450	-0.000037
C41	C	0.917706	0.636666	-0.083320
C42	C	0.917711	0.540526	-0.083349
C43	C	1.083477	0.373956	0.083198
C44	C	1.083476	0.470095	0.083221
C45	C	0.700482	1.005312	-0.000064
C46	C	0.598629	1.005312	-0.000064
C47	C	0.608911	0.893401	0.055897
C48	C	0.503642	0.893399	0.055898
C49	C	1.300693	1.005310	-0.000063
C50	C	1.402546	1.005310	-0.000063
C51	C	1.000580	1.005316	-0.301583
C52	C	1.000577	1.005318	-0.403916
C53	C	1.000590	1.306836	-0.000083
C54	C	1.000590	1.409171	-0.000089
C55	C	0.941976	1.123074	-0.510877
C56	C	0.941989	1.123068	-0.607026
C57	C	1.059206	0.887538	-0.489238
C58	C	1.059199	0.887546	-0.393092
C59	C	1.000595	1.005306	0.301456
C60	C	1.000598	1.005304	0.403789
C61	C	1.300691	0.703784	-0.000043
C62	C	1.402543	0.601449	-0.000037
C63	C	1.000593	0.703780	0.301476
C64	C	1.000595	0.601444	0.403815
C65	C	1.300698	0.703779	0.301476
C66	C	1.402553	0.601442	0.403816
C67	C	0.700476	1.306842	-0.301602
C68	C	0.598621	1.409179	-0.403942
C69	C	0.700484	1.306837	-0.000083
C70	C	0.598632	1.409173	-0.000090
C71	C	1.000582	1.306841	-0.301602
C72	C	1.000580	1.409178	-0.403942
C73	C	1.391793	0.553370	-0.058909
C74	C	1.487498	0.457223	-0.058906
C75	C	1.604700	0.457238	0.058849
C76	C	1.508996	0.553390	0.058840
C77	C	1.059198	0.553362	0.510772
C78	C	1.059186	0.457215	0.606927
C79	C	0.941968	0.457235	0.489154
C80	C	0.941973	0.553387	0.393002
C81	C	1.509005	0.553363	0.393021
C82	C	1.604705	0.457215	0.489183
C83	C	1.487487	0.457230	0.606933
C84	C	1.391790	0.553383	0.510772
H85	H	1.150964	0.266998	0.150985
C86	C	0.877507	0.606285	0.275340
H87	H	0.885897	0.670443	0.219625
H88	H	0.906438	0.537266	0.266899
H89	H	0.800403	0.643811	0.266901
C90	C	1.721798	0.404325	0.477305
H91	H	1.714497	0.446714	0.399833
H92	H	1.761570	0.420086	0.512360
H93	H	1.761562	0.313539	0.512378
H94	H	1.150971	0.441409	0.151042
C95	C	0.877504	0.404356	0.477268
H96	H	0.885904	0.340194	0.549851
H97	H	0.800406	0.473383	0.437311
H98	H	0.906455	0.366841	0.437320
C99	C	1.520814	0.606296	0.123589
H100	H	1.448569	0.670456	0.115136
H101	H	1.560578	0.537282	0.201059
H102	H	1.560570	0.643819	0.094492
C103	C	1.475656	0.404350	0.724582
H104	H	1.547895	0.340188	0.780308
H105	H	1.435892	0.473377	0.733013
H106	H	1.435892	0.366835	0.733012
C107	C	0.726077	0.763963	0.120631
H108	H	0.718877	0.693750	0.155749
H109	H	0.765824	0.759129	0.069784
H110	H	0.765807	0.759143	0.176320
H111	H	0.393909	1.101126	-0.047980
C112	C	0.515315	0.763958	0.120625
H113	H	0.592397	0.693748	0.155727
H114	H	0.480380	0.759127	0.176306
H115	H	0.480382	0.759132	0.069762
C116	C	1.274684	0.606282	0.522640
H117	H	1.219233	0.670440	0.450050
H118	H	1.266277	0.537263	0.562594
H119	H	1.266290	0.643805	0.562581
H120	H	1.517774	0.592492	0.305936
C121	C	0.826537	0.781151	-0.174902
H122	H	0.838398	0.833368	-0.162957
H123	H	0.829970	0.799630	-0.246789
H124	H	0.754993	0.799597	-0.171446
C125	C	0.826543	0.579260	-0.174952
H126	H	0.838417	0.503194	-0.163052
H127	H	0.755002	0.629218	-0.171492
H128	H	0.829978	0.629254	-0.246836
C129	C	0.481463	1.134751	-0.064786
H130	H	0.488662	1.204963	-0.099888
H131	H	0.441717	1.139582	-0.120467
H132	H	0.441732	1.139572	-0.013920
H133	H	1.106926	0.592492	0.519583
C134	C	0.877522	1.252601	-0.724680
H135	H	0.842604	1.322737	-0.717350
H136	H	0.928102	1.257504	-0.764637
H137	H	0.822067	1.257486	-0.764633
H138	H	0.894243	1.218972	-0.519697
C139	C	1.123657	0.757997	-0.477334
H140	H	1.158559	0.687866	-0.399858
H141	H	1.073064	0.753114	-0.512395
H142	H	1.179123	0.753082	-0.512388
C143	C	1.475670	0.404334	-0.123659
H144	H	1.398564	0.446723	-0.158715
H145	H	1.510561	0.420096	-0.179380
H146	H	1.510573	0.313548	-0.072820
C147	C	1.274702	0.606244	-0.123681
H148	H	1.282011	0.563845	-0.158751
H149	H	1.234929	0.590484	-0.072864
H150	H	1.234934	0.697029	-0.179411
H151	H	1.106924	0.791648	-0.305992
H152	H	1.106905	0.418074	0.694013
H153	H	1.691383	0.418095	0.106786
