data_functionalizedCrystal
_audit_creation_method	'MofGen! by Chris Wilmer'
_symmetry_space_group_name_H-M	'P1'
_symmetry_Int_Tables_number	1
_symmetry_cell_setting	triclinic
loop_
_symmetry_equiv_pos_as_xyz
  x,y,z
_cell_length_a	12.811438
_cell_length_b	12.837942
_cell_length_c	8.140239
_cell_angle_alpha	89.996939
_cell_angle_beta	84.565819
_cell_angle_gamma	89.411773
loop_
_atom_site_label
_atom_site_type_symbol
_atom_site_fract_x
_atom_site_fract_y
_atom_site_fract_z
O1	O	1.406643	0.139684	-0.346163
O2	O	1.102578	0.154873	-0.300869
O3	O	1.247868	-0.003653	-0.322502
O4	O	1.261352	0.298211	-0.324530
O5	O	1.247859	-0.003655	-0.049273
O6	O	1.102569	0.154871	-0.027641
O7	O	1.406634	0.139683	-0.072935
Zn8	Zn	1.254600	0.147277	-0.006907
Zn9	Zn	1.254612	0.147279	-0.366897
O10	O	1.261343	0.298209	-0.051302
C11	C	1.063384	0.154021	-0.158417
C12	C	0.946611	0.151472	-0.141022
C13	C	0.782020	0.147879	0.032422
C14	C	0.891739	0.150274	0.016086
C15	C	0.891757	0.150277	-0.281804
C16	C	0.782039	0.147882	-0.265468
C17	C	0.727174	0.146681	-0.108349
C18	C	0.617454	0.144278	-0.092014
C19	C	0.617474	0.144289	-0.389902
C20	C	0.727193	0.146684	-0.406239
C21	C	1.243308	-0.042294	-0.185210
C22	C	1.229722	-0.157430	-0.183189
C23	C	1.393052	-0.397684	-0.207553
C24	C	1.380291	-0.505865	-0.205655
C25	C	1.191441	-0.481975	-0.177506
C26	C	1.204202	-0.373794	-0.179404
C27	C	1.305010	-0.331653	-0.194426
C28	C	1.317770	-0.223470	-0.196312
C29	C	1.128921	-0.199582	-0.168175
C30	C	1.116160	-0.307763	-0.166277
C31	C	1.445827	0.140535	-0.215390
C32	C	1.562600	0.143083	-0.232796
C33	C	1.265903	0.336850	-0.188598
C34	C	1.279489	0.451986	-0.190629
N35	N	1.254599	0.147274	0.238776
N36	N	1.254620	0.147273	-0.612581
H37	H	0.572807	0.143317	-0.504529
O38	O	0.786369	0.147957	-0.575698
H39	H	0.871878	0.149812	-0.563412
O40	O	1.426492	-0.178009	-0.212533
H41	H	1.485568	-0.242104	-0.221366
O42	O	1.501775	-0.352224	-0.223760
H43	H	1.544605	-0.378725	-0.118785
H44	H	1.034085	-0.342089	-0.154054
O45	O	1.475248	-0.577089	-0.219793
H46	H	1.547485	-0.529606	-0.230541
H47	H	0.936390	0.151253	0.130717
O48	O	1.082718	-0.527434	-0.161294
H49	H	1.088642	-0.613753	-0.162169
O50	O	1.033951	-0.128364	-0.154021
H51	H	1.059756	-0.046058	-0.157872
O52	O	0.722834	0.146583	0.201873
H53	H	0.779406	0.147822	0.297019
H54	H	0.936446	0.151264	-0.409722
O55	O	0.558271	0.142992	0.077439
H56	H	0.614847	0.144241	0.172580
