data_functionalizedCrystal
_audit_creation_method	'MofGen! by Chris Wilmer'
_symmetry_space_group_name_H-M	'P1'
_symmetry_Int_Tables_number	1
_symmetry_cell_setting	triclinic
loop_
_symmetry_equiv_pos_as_xyz
  x,y,z
_cell_length_a	11.169417
_cell_length_b	12.759394
_cell_length_c	12.759387
_cell_angle_alpha	90.031405
_cell_angle_beta	90.016269
_cell_angle_gamma	90.015716
loop_
_atom_site_label
_atom_site_type_symbol
_atom_site_fract_x
_atom_site_fract_y
_atom_site_fract_z
Zn1	Zn	1.834883	-0.418189	0.593972
Zn2	Zn	1.834769	-0.593905	0.418290
Zn3	Zn	1.634181	-0.418244	0.418312
Zn4	Zn	1.634160	-0.593829	0.593932
O5	O	1.734498	-0.506042	0.506126
O6	O	2.002817	-0.441507	0.570675
O7	O	1.808121	-0.570658	0.271271
O8	O	1.660861	-0.271215	0.441639
O9	O	2.002734	-0.570605	0.441602
O10	O	1.808316	-0.271175	0.570696
O11	O	1.660750	-0.441600	0.271288
O12	O	1.466229	-0.441526	0.441600
O13	O	1.660826	-0.570476	0.740958
O14	O	1.466213	-0.570529	0.570628
O15	O	1.808295	-0.441434	0.740988
O16	O	1.808101	-0.740916	0.441563
O17	O	1.660715	-0.740861	0.570606
C18	C	1.422674	-0.506026	0.506113
C19	C	1.289274	-0.506044	0.506132
C20	C	1.734426	-0.779009	0.506101
C21	C	1.734505	-0.895786	0.506125
C22	C	1.888094	-0.895791	0.371853
C23	C	1.964919	-0.950654	0.304729
C24	C	1.964989	-1.060376	0.304758
C25	C	1.888228	-1.115236	0.371919
C26	C	1.811403	-1.060373	0.439043
C27	C	1.811338	-0.950649	0.439005
C28	C	1.657823	-1.060369	0.573319
C29	C	1.657744	-0.950647	0.573287
C30	C	1.581062	-1.115229	0.640481
C31	C	1.504228	-1.060366	0.707601
C32	C	1.504160	-0.950638	0.707569
C33	C	1.580919	-0.895784	0.640411
C34	C	2.047541	-0.506059	0.506140
C35	C	2.180940	-0.506066	0.506146
C36	C	1.734571	-0.505940	0.780160
C37	C	1.734602	-0.505897	0.896937
C38	C	1.734603	-0.232008	0.506175
C39	C	1.734648	-0.115232	0.506195
C40	C	1.734495	-0.506067	0.233159
C41	C	1.734696	-0.505815	0.116383
C42	C	1.888143	-0.640212	1.116345
C43	C	1.964849	-0.707427	1.061465
C44	C	1.964810	-0.707467	0.951744
C45	C	1.888053	-0.640287	0.896899
C46	C	1.811347	-0.573072	0.951779
C47	C	1.811398	-0.573037	1.061503
C48	C	1.657896	-0.438682	0.951816
C49	C	1.657940	-0.438635	1.061538
C50	C	1.581140	-0.371501	0.896972
C51	C	1.504438	-0.304279	0.951851
C52	C	1.504482	-0.304241	1.061580
C53	C	1.581234	-0.371419	1.116418
H54	H	1.888029	-0.806450	0.371809
C55	C	1.581282	-0.371376	1.237108
H56	H	1.524612	-0.321721	1.261941
H57	H	1.560515	-0.439165	1.261916
H58	H	1.658754	-0.353197	1.261926
H59	H	1.581130	-1.204571	0.640504
H60	H	2.027277	-0.762194	0.907061
C61	C	2.049349	-0.890306	0.230856
H62	H	2.038301	-0.817102	0.240443
H63	H	2.129991	-0.908218	0.246290
H64	H	2.031825	-0.908360	0.160256
C65	C	1.581081	-0.371548	0.776281
H66	H	1.524376	-0.321921	0.751481
H67	H	1.658524	-0.353396	0.751450
H68	H	1.560280	-0.439360	0.751454
H69	H	1.888018	-0.640335	0.807558
H70	H	2.027553	-1.105045	0.250105
H71	H	1.441944	-0.249591	0.907188
C72	C	1.420096	-0.230313	1.121944
H73	H	1.431103	-0.239914	1.195146
H74	H	1.437670	-0.159728	1.103975
H75	H	1.339443	-0.245708	1.103959
C76	C	1.888313	-1.235927	0.371955
H77	H	1.945059	-1.260744	0.322359
H78	H	1.909041	-1.260675	0.439776
H79	H	1.810886	-1.260820	0.353733
H80	H	1.441742	-1.105043	0.762284
C81	C	1.419654	-0.890297	0.781409
H82	H	1.373950	-0.938688	0.821404
H83	H	1.465513	-0.847421	0.827202
H84	H	1.367345	-0.847569	0.741170
C85	C	1.580847	-0.775093	0.640380
H86	H	1.524098	-0.750273	0.689971
H87	H	1.658274	-0.750207	0.658589
H88	H	1.560106	-0.750342	0.572557
C89	C	2.049287	-0.781313	1.121790
H90	H	2.094958	-0.821352	1.073390
H91	H	2.101610	-0.741107	1.164595
H92	H	2.003376	-0.827079	1.164588
C93	C	1.887869	-0.640452	1.237035
H94	H	1.944461	-0.690177	1.261837
H95	H	1.908557	-0.572734	1.262169
H96	H	1.810320	-0.658702	1.261555
