data_functionalizedCrystal
_audit_creation_method	'MofGen! by Chris Wilmer'
_symmetry_space_group_name_H-M	'P1'
_symmetry_Int_Tables_number	1
_symmetry_cell_setting	triclinic
loop_
_symmetry_equiv_pos_as_xyz
  x,y,z
_cell_length_a	21.395362
_cell_length_b	25.639239
_cell_length_c	21.395364
_cell_angle_alpha	90.004705
_cell_angle_beta	90.036401
_cell_angle_gamma	90.054564
loop_
_atom_site_label
_atom_site_type_symbol
_atom_site_fract_x
_atom_site_fract_y
_atom_site_fract_z
Zn1	Zn	0.957778	-0.208065	0.354582
Zn2	Zn	1.291111	0.125268	0.687915
Zn3	Zn	1.624445	0.458601	1.021248
Zn4	Zn	0.957680	-0.295463	0.249803
Zn5	Zn	1.291013	0.037871	0.583136
Zn6	Zn	1.624346	0.371204	0.916470
Zn7	Zn	0.853007	-0.208067	0.249783
Zn8	Zn	1.186340	0.125266	0.583116
Zn9	Zn	1.519673	0.458599	0.916450
Zn10	Zn	0.852948	-0.295496	0.354508
Zn11	Zn	1.186281	0.037838	0.687841
Zn12	Zn	1.519614	0.371171	1.021174
O13	O	0.905353	-0.251773	0.302169
O14	O	1.238686	0.081561	0.635502
O15	O	1.572020	0.414894	0.968836
O16	O	1.045443	-0.219644	0.340722
O17	O	1.378776	0.113689	0.674055
O18	O	1.712110	0.447023	1.007389
O19	O	0.943778	-0.283857	0.162122
O20	O	1.277112	0.049477	0.495456
O21	O	1.610445	0.382810	0.828789
O22	O	0.866971	-0.134902	0.263708
O23	O	1.200304	0.198431	0.597041
O24	O	1.533638	0.531765	0.930374
O25	O	1.045371	-0.283855	0.263741
O26	O	1.378704	0.049479	0.597075
O27	O	1.712037	0.382812	0.930408
O28	O	0.943946	-0.134900	0.340703
O29	O	1.277279	0.198433	0.674036
O30	O	1.610612	0.531766	1.007370
O31	O	0.866876	-0.219648	0.162108
O32	O	1.200209	0.113686	0.495441
O33	O	1.533542	0.447019	0.828775
O34	O	0.765321	-0.219680	0.263636
O35	O	1.098654	0.113654	0.596969
O36	O	1.431988	0.446987	0.930302
O37	O	0.866870	-0.283911	0.442195
O38	O	1.200203	0.049422	0.775529
O39	O	1.533537	0.382756	1.108862
O40	O	0.765278	-0.283913	0.340576
O41	O	1.098611	0.049420	0.673910
O42	O	1.431944	0.382754	1.007243
O43	O	0.943888	-0.219676	0.442250
O44	O	1.277222	0.113657	0.775583
O45	O	1.610555	0.446990	1.108917
O46	O	0.943721	-0.368632	0.263669
O47	O	1.277054	-0.035299	0.597003
O48	O	1.610388	0.298034	0.930336
O49	O	0.866775	-0.368657	0.340595
O50	O	1.200108	-0.035323	0.673929
O51	O	1.533441	0.298010	1.007262
C52	C	0.742565	-0.251800	0.302096
C53	C	1.075899	0.081533	0.635429
C54	C	1.409232	0.414866	0.968763
C55	C	0.672924	-0.251825	0.302080
C56	C	1.006257	0.081508	0.635413
C57	C	1.339591	0.414842	0.968747
C58	C	0.640205	-0.285315	0.342083
C59	C	0.973538	0.048018	0.675416
C60	C	1.306871	0.381351	1.008750
C61	C	0.574769	-0.285303	0.342111
C62	C	0.908103	0.048031	0.675444
C63	C	1.241436	0.381364	1.008777
C64	C	0.542056	-0.251805	0.302125
C65	C	0.875389	0.081529	0.635458
C66	C	1.208722	0.414862	0.968791
C67	C	0.574783	-0.218308	0.262119
C68	C	0.908116	0.115026	0.595452
C69	C	1.241450	0.448359	0.928785
C70	C	0.640217	-0.218318	0.262096
C71	C	0.973551	0.115016	0.595430
C72	C	1.306884	0.448349	0.928763
C73	C	0.438339	-0.247581	0.245719
C74	C	0.771673	0.085753	0.579053
C75	C	1.105006	0.419086	0.912386
C76	C	0.372906	-0.247574	0.245741
C77	C	0.706240	0.085759	0.579074
C78	C	1.039573	0.419092	0.912407
C79	C	0.340235	-0.251771	0.302194
C80	C	0.673568	0.081563	0.635527
C81	C	1.006902	0.414896	0.968860
C82	C	0.373005	-0.255984	0.358627
C83	C	0.706338	0.077349	0.691961
C84	C	1.039672	0.410682	1.025294
C85	C	0.438439	-0.255994	0.358605
C86	C	0.771772	0.077339	0.691938
C87	C	1.105106	0.410672	1.025272
C88	C	0.471103	-0.251790	0.302145
C89	C	0.804437	0.081543	0.635478
C90	C	1.137770	0.414877	0.968811
C91	C	0.236563	-0.285249	0.342230
C92	C	0.569897	0.048084	0.675564
C93	C	0.903230	0.381418	1.008897
C94	C	0.171127	-0.285233	0.342259
C95	C	0.504460	0.048101	0.675593
C96	C	0.837793	0.381434	1.008926
C97	C	0.171142	-0.218240	0.262262
C98	C	0.504475	0.115093	0.595595
C99	C	0.837808	0.448426	0.928928
C100	C	0.236577	-0.218254	0.262238
C101	C	0.569910	0.115079	0.595572
C102	C	0.903244	0.448413	0.928905
C103	C	0.269284	-0.251761	0.302222
C104	C	0.602617	0.081572	0.635555
C105	C	0.935951	0.414905	0.968888
C106	C	0.905248	-0.387615	0.302140
C107	C	1.238581	-0.054282	0.635473
C108	C	1.571914	0.279051	0.968807
C109	C	0.905260	-0.445729	0.302149
C110	C	1.238593	-0.112396	0.635482
C111	C	1.571927	0.220937	0.968815
C112	C	0.945524	-0.806067	0.262182
C113	C	1.278857	-0.472734	0.595515
C114	C	1.612190	-0.139401	0.928848
C115	C	0.945548	-0.860672	0.262190
C116	C	1.278881	-0.527338	0.595523
C117	C	1.612214	-0.194005	0.928857
O118	O	0.979672	-0.888887	0.228177
O119	O	1.313005	-0.555553	0.561511
O120	O	1.646339	-0.222220	0.894844
N121	N	0.905463	-0.888012	0.302210
N122	N	1.238796	-0.554678	0.635544
N123	N	1.572130	-0.221345	0.968877
C124	C	0.865356	-0.860745	0.342229
C125	C	1.198689	-0.527412	0.675563
C126	C	1.532023	-0.194078	1.008896
O127	O	0.831264	-0.889014	0.376271
O128	O	1.164597	-0.555681	0.709604
O129	O	1.497930	-0.222347	1.042938
C130	C	0.865335	-0.806142	0.342224
C131	C	1.198669	-0.472808	0.675557
C132	C	1.532002	-0.139475	1.008890
C133	C	0.905418	-0.778804	0.302196
C134	C	1.238752	-0.445471	0.635530
C135	C	1.572085	-0.112138	0.968863
C136	C	0.985604	-0.778730	0.222158
C137	C	1.318937	-0.445396	0.555491
C138	C	1.652270	-0.112063	0.888825
C139	C	0.985578	-0.724129	0.222149
C140	C	1.318912	-0.390796	0.555482
C141	C	1.652245	-0.057462	0.888816
C142	C	0.945473	-0.696866	0.262164
C143	C	1.278806	-0.363533	0.595497
C144	C	1.612140	-0.030199	0.928830
C145	C	0.905393	-0.724204	0.302187
C146	C	1.238726	-0.390870	0.635521
C147	C	1.572060	-0.057537	0.968854
C148	C	0.825232	-0.778876	0.382245
C149	C	1.158565	-0.445543	0.715579
C150	C	1.491899	-0.112209	1.048912
C151	C	0.825215	-0.724269	0.382237
C152	C	1.158549	-0.390936	0.715570
C153	C	1.491882	-0.057602	1.048903
C154	C	0.865298	-0.696931	0.342209
C155	C	1.198631	-0.363598	0.675543
C156	C	1.531965	-0.030265	1.008876
C157	C	0.865262	-0.642340	0.342193
C158	C	1.198596	-0.309007	0.675526
C159	C	1.531929	0.024326	1.008859
N160	N	0.905347	-0.615000	0.302173
N161	N	1.238680	-0.281667	0.635506
N162	N	1.572014	0.051667	0.968839
C163	C	0.945452	-0.642263	0.262158
C164	C	1.278786	-0.308930	0.595491
C165	C	1.612119	0.024404	0.928825
C166	C	0.865403	-0.975416	0.342239
C167	C	1.198737	-0.642082	0.675572
C168	C	1.532070	-0.308749	1.008906
C169	C	0.865420	-1.030018	0.342242
C170	C	1.198754	-0.696685	0.675575
C171	C	1.532087	-0.363351	1.008909
C172	C	0.945613	-1.029941	0.262203
C173	C	1.278946	-0.696607	0.595537
C174	C	1.612280	-0.363274	0.928870
C175	C	0.945592	-0.975337	0.262198
C176	C	1.278926	-0.642004	0.595531
C177	C	1.612259	-0.308671	0.928864
C178	C	0.905488	-0.948075	0.302219
C179	C	1.238821	-0.614742	0.635552
C180	C	1.572155	-0.281409	0.968885
C181	C	0.945396	-0.527598	0.262142
C182	C	1.278729	-0.194264	0.595475
C183	C	1.612063	0.139069	0.928808
C184	C	0.945365	-0.472992	0.262134
C185	C	1.278699	-0.139659	0.595468
C186	C	1.612032	0.193674	0.928801
C187	C	0.865175	-0.473074	0.342175
C188	C	1.198508	-0.139741	0.675508
C189	C	1.531842	0.193592	1.008842
C190	C	0.865203	-0.527675	0.342180
C191	C	1.198537	-0.194342	0.675513
C192	C	1.531870	0.138992	1.008847
C193	C	0.905319	-0.554935	0.302161
C194	C	1.238652	-0.221602	0.635495
C195	C	1.571985	0.111731	0.968828
O196	O	0.831157	-0.614090	0.376190
O197	O	1.164491	-0.280757	0.709523
O198	O	1.497824	0.052576	1.042857
O199	O	0.979545	-0.613987	0.228128
O200	O	1.312878	-0.280654	0.561461
O201	O	1.646212	0.052679	0.894795
C202	C	1.068776	-0.251745	0.302242
C203	C	1.402110	0.081588	0.635576
C204	C	1.735443	0.414921	0.968909
C205	C	1.138418	-0.251734	0.302273
C206	C	1.471751	0.081600	0.635607
C207	C	1.805084	0.414933	0.968940
C208	C	0.905384	-0.251797	0.465592
C209	C	1.238717	0.081536	0.798925
C210	C	1.572050	0.414870	1.132259
C211	C	0.905397	-0.251807	0.535233
C212	C	1.238730	0.081526	0.868567
C213	C	1.572063	0.414859	1.201900
C214	C	0.905476	-0.115400	0.302211
C215	C	1.238809	0.217934	0.635545
C216	C	1.572143	0.551267	0.968878
C217	C	0.905528	-0.057286	0.302230
C218	C	1.238862	0.276048	0.635563
C219	C	1.572195	0.609381	0.968896
C220	C	0.945494	-0.218366	0.567976
C221	C	1.278827	0.114967	0.901309
C222	C	1.612161	0.448301	1.234643
C223	C	0.945485	-0.218357	0.633411
C224	C	1.278818	0.114976	0.966745
C225	C	1.612151	0.448309	1.300078
C226	C	0.905384	-0.251800	0.666102
C227	C	1.238717	0.081534	0.999435
C228	C	1.572051	0.414867	1.332768
C229	C	0.865279	-0.285243	0.633351
C230	C	1.198612	0.048090	0.966685
C231	C	1.531946	0.381423	1.300018
C232	C	0.865285	-0.285247	0.567917
C233	C	1.198618	0.048086	0.901250
C234	C	1.531952	0.381419	1.234584
C235	C	0.900387	-0.298900	0.769765
C236	C	1.233720	0.034433	1.103098
C237	C	1.567053	0.367766	1.436431
C238	C	0.900385	-0.298897	0.835198
C239	C	1.233718	0.034436	1.168531
C240	C	1.567052	0.367769	1.501864
C241	C	0.905361	-0.251787	0.867922
C242	C	1.238695	0.081546	1.201256
C243	C	1.572028	0.414879	1.534589
C244	C	0.910353	-0.204679	0.835206
C245	C	1.243686	0.128654	1.168540
C246	C	1.577020	0.461987	1.501873
C247	C	0.910359	-0.204683	0.769772
C248	C	1.243692	0.128650	1.103105
C249	C	1.577026	0.461984	1.436439
C250	C	0.905373	-0.251799	0.737054
C251	C	1.238706	0.081534	1.070387
C252	C	1.572039	0.414868	1.403721
C253	C	0.945451	-0.218334	0.971618
C254	C	1.278784	0.114999	1.304951
C255	C	1.612117	0.448333	1.638284
C256	C	0.945437	-0.218324	1.037054
C257	C	1.278770	0.115009	1.370387
C258	C	1.612104	0.448342	1.703721
C259	C	0.865235	-0.285215	1.036993
C260	C	1.198568	0.048118	1.370326
C261	C	1.531901	0.381451	1.703659
C262	C	0.865245	-0.285220	0.971557
C263	C	1.198578	0.048113	1.304891
C264	C	1.531912	0.381447	1.638224
C265	C	0.905357	-0.251780	0.938874
C266	C	1.238690	0.081553	1.272207
C267	C	1.572023	0.414887	1.605540
C268	C	0.905326	-0.251764	1.139381
C269	C	1.238659	0.081569	1.472715
C270	C	1.571992	0.414902	1.806048
C271	C	0.905335	-0.251766	1.069740
C272	C	1.238669	0.081567	1.403073
C273	C	1.572002	0.414900	1.736407
H274	H	0.548144	-0.191032	0.229563
H275	H	0.881477	0.142301	0.562896
H276	H	1.214810	0.475634	0.896230
H277	H	0.832597	-0.312455	0.944898
H278	H	1.165930	0.020878	1.278231
H279	H	1.499264	0.354212	1.611565
H280	H	0.792589	-0.801125	0.414837
H281	H	1.125923	-0.467791	0.748170
H282	H	1.459256	-0.134458	1.081504
C283	C	0.336866	-0.242935	0.183664
C284	C	0.670199	0.090398	0.516997
C285	C	1.003532	0.423731	0.850330
N286	N	0.309722	-0.239439	0.136905
N287	N	0.643055	0.093895	0.470239
N288	N	0.976388	0.427228	0.803572
C289	C	0.894924	-0.350729	0.733774
C290	C	1.228257	-0.017396	1.067107
C291	C	1.561591	0.315938	1.400441
N292	N	0.890814	-0.389766	0.706667
N293	N	1.224147	-0.056432	1.040000
N294	N	1.557480	0.276901	1.373333
C295	C	0.135161	-0.181392	0.218277
C296	C	0.468494	0.151942	0.551610
C297	C	0.801827	0.485275	0.884943
N298	N	0.108056	-0.153636	0.185147
N299	N	0.441390	0.179698	0.518480
N300	N	0.774723	0.513031	0.851813
C301	C	0.989458	-0.442924	0.218096
C302	C	1.322791	-0.109591	0.551429
C303	C	1.656125	0.223742	0.884763
N304	N	1.022668	-0.420279	0.184927
N305	N	1.356001	-0.086946	0.518260
N306	N	1.689334	0.246388	0.851594
C307	C	1.029723	-0.808710	0.178132
C308	C	1.363056	-0.475377	0.511465
C309	C	1.696390	-0.142044	0.844798
N310	N	1.062953	-0.831288	0.144964
N311	N	1.396286	-0.497955	0.478297
N312	N	1.729619	-0.164622	0.811630
H313	H	0.832578	-0.312439	1.063609
H314	H	1.165911	0.020894	1.396942
H315	H	1.499244	0.354227	1.730275
H316	H	0.832627	-0.312471	0.659972
H317	H	1.165960	0.020863	0.993305
H318	H	1.499294	0.354196	1.326639
C319	C	0.989610	-0.181574	0.532028
C320	C	1.322943	0.151759	0.865361
C321	C	1.656276	0.485093	1.198694
N322	N	1.022835	-0.153859	0.504950
N323	N	1.356168	0.179474	0.838284
N324	N	1.689502	0.512807	1.171617
H325	H	0.832630	-0.312479	0.541258
H326	H	1.165963	0.020855	0.874592
H327	H	1.499297	0.354188	1.207925
C328	C	0.272570	-0.181416	0.218226
C329	C	0.605903	0.151917	0.551559
C330	C	0.939236	0.485251	0.884892
N331	N	0.299679	-0.153667	0.185074
N332	N	0.633012	0.179666	0.518407
N333	N	0.966346	0.512999	0.851740
H334	H	1.018219	-0.701874	0.189557
H335	H	1.351552	-0.368541	0.522891
H336	H	1.684886	-0.035207	0.856224
H337	H	0.464935	-0.244161	0.199745
H338	H	0.798268	0.089172	0.533079
H339	H	1.131601	0.422505	0.866412
H340	H	0.792558	-0.702075	0.414829
H341	H	1.125891	-0.368741	0.748162
H342	H	1.459225	-0.035408	1.081495
C343	C	0.135135	-0.322081	0.386263
C344	C	0.468469	0.011252	0.719596
C345	C	0.801802	0.344585	1.052930
N346	N	0.108026	-0.349839	0.419404
N347	N	0.441360	-0.016506	0.752738
N348	N	0.774693	0.316828	1.086071
C349	C	0.676210	-0.181477	0.218085
C350	C	1.009543	0.151857	0.551418
C351	C	1.342876	0.485190	0.884752
N352	N	0.703320	-0.153729	0.184933
N353	N	1.036653	0.179605	0.518266
N354	N	1.369987	0.512938	0.851600
H355	H	0.832567	-0.549934	0.374776
H356	H	1.165900	-0.216601	0.708109
H357	H	1.499233	0.116732	1.041442
H358	H	0.978231	-0.953082	0.229604
H359	H	1.311565	-0.619749	0.562938
H360	H	1.644898	-0.286416	0.896271
C361	C	0.894894	-0.350717	0.871179
C362	C	1.228227	-0.017384	1.204512
C363	C	1.561560	0.315950	1.537846
N364	N	0.890756	-0.389749	0.898279
N365	N	1.224090	-0.056415	1.231612
N366	N	1.557423	0.276918	1.564946
C367	C	0.474483	-0.260629	0.420680
C368	C	0.807817	0.072704	0.754014
C369	C	1.141150	0.406038	1.087347
N370	N	0.501632	-0.264119	0.467437
N371	N	0.834965	0.069215	0.800770
N372	N	1.168299	0.402548	1.134103
C373	C	0.821064	-0.443075	0.386191
C374	C	1.154397	-0.109741	0.719525
C375	C	1.487731	0.223592	1.052858
N376	N	0.787843	-0.420477	0.419349
N377	N	1.121176	-0.087144	0.752682
N378	N	1.454510	0.246189	1.086015
H379	H	0.978063	-0.549787	0.229556
H380	H	1.311396	-0.216453	0.562889
H381	H	1.644730	0.116880	0.896223
C382	C	0.989600	-0.181571	0.669435
C383	C	1.322934	0.151762	1.002769
C384	C	1.656267	0.485096	1.336102
N385	N	1.022830	-0.153864	0.696567
N386	N	1.356164	0.179469	1.029900
N387	N	1.689497	0.512802	1.363233
C388	C	0.989735	-1.059940	0.218191
C389	C	1.323068	-0.726607	0.551525
C390	C	1.656402	-0.393274	0.884858
N391	N	1.022966	-1.082538	0.185044
N392	N	1.356299	-0.749205	0.518378
N393	N	1.689633	-0.415871	0.851711
H394	H	0.978108	-0.191102	0.945005
H395	H	1.311442	0.142231	1.278338
H396	H	1.644775	0.475565	1.611672
H397	H	0.666831	-0.312599	0.374641
H398	H	1.000164	0.020734	0.707975
H399	H	1.333497	0.354068	1.041308
H400	H	0.914406	-0.166318	0.861849
H401	H	1.247740	0.167015	1.195183
H402	H	1.581073	0.500349	1.528516
H403	H	0.832775	-1.052272	0.374830
H404	H	1.166108	-0.718938	0.708164
H405	H	1.499442	-0.385605	1.041497
C406	C	0.821285	-0.945432	0.386271
C407	C	1.154618	-0.612099	0.719604
C408	C	1.487952	-0.278766	1.052938
N409	N	0.788058	-0.922851	0.419439
N410	N	1.121392	-0.589518	0.752772
N411	N	1.454725	-0.256185	1.086106
H412	H	0.978088	-0.191089	1.063712
H413	H	1.311421	0.142244	1.397045
H414	H	1.644755	0.475577	1.730379
C415	C	0.538771	-0.322148	0.386117
C416	C	0.872104	0.011185	0.719450
C417	C	1.205437	0.344519	1.052784
N418	N	0.511658	-0.349901	0.419261
N419	N	0.844992	-0.016568	0.752595
N420	N	1.178325	0.316766	1.085928
C421	C	0.337072	-0.260599	0.420731
C422	C	0.670405	0.072735	0.754064
C423	C	1.003738	0.406068	1.087398
N424	N	0.310004	-0.264074	0.467506
N425	N	0.643337	0.069259	0.800839
N426	N	0.976671	0.402592	1.134173
C427	C	0.272543	-0.322101	0.386220
C428	C	0.605876	0.011232	0.719553
C429	C	0.939210	0.344565	1.052886
N430	N	0.299641	-0.349858	0.419354
N431	N	0.632975	-0.016524	0.752688
N432	N	0.966308	0.316809	1.086021
C433	C	0.915841	-0.152865	0.733787
C434	C	1.249174	0.180469	1.067120
C435	C	1.582508	0.513802	1.400453
N436	N	0.919966	-0.113834	0.706683
N437	N	1.253299	0.219500	1.040016
N438	N	1.586633	0.552833	1.373349
