data_functionalizedCrystal
_audit_creation_method	'MofGen! by Chris Wilmer'
_symmetry_space_group_name_H-M	'P1'
_symmetry_Int_Tables_number	1
_symmetry_cell_setting	triclinic
loop_
_symmetry_equiv_pos_as_xyz
  x,y,z
_cell_length_a	18.050591
_cell_length_b	10.686285
_cell_length_c	10.686551
_cell_angle_alpha	80.915481
_cell_angle_beta	94.403376
_cell_angle_gamma	94.372862
loop_
_atom_site_label
_atom_site_type_symbol
_atom_site_fract_x
_atom_site_fract_y
_atom_site_fract_z
Zn1	Zn	1.186466	0.450288	0.679255
Zn2	Zn	1.519799	0.783621	1.012588
Zn3	Zn	1.853132	1.116955	1.345922
Zn4	Zn	1.186405	0.678868	0.450753
Zn5	Zn	1.519739	1.012201	0.784086
Zn6	Zn	1.853072	1.345535	1.117419
Zn7	Zn	1.053419	0.466628	0.466989
Zn8	Zn	1.386752	0.799961	0.800322
Zn9	Zn	1.720086	1.133294	1.133656
Zn10	Zn	1.071121	0.662473	0.662932
Zn11	Zn	1.404455	0.995806	0.996266
Zn12	Zn	1.737788	1.329140	1.329599
O13	O	1.124353	0.564564	0.564982
O14	O	1.457686	0.897898	0.898316
O15	O	1.791020	1.231231	1.231649
O16	O	1.290385	0.480633	0.648980
O17	O	1.623718	0.813966	0.982313
O18	O	1.957051	1.147299	1.315647
O19	O	1.161331	0.664413	0.275275
O20	O	1.494664	0.997747	0.608608
O21	O	1.827998	1.331080	0.941941
O22	O	1.063685	0.286837	0.508773
O23	O	1.397018	0.620170	0.842106
O24	O	1.730351	0.953504	1.175440
O25	O	1.290341	0.648569	0.481100
O26	O	1.623674	0.981903	0.814434
O27	O	1.957007	1.315236	1.147767
O28	O	1.161433	0.274832	0.664724
O29	O	1.494767	0.608165	0.998057
O30	O	1.828100	0.941499	1.331390
O31	O	1.063627	0.508481	0.287203
O32	O	1.396960	0.841815	0.620537
O33	O	1.730293	1.175148	0.953870
O34	O	0.951840	0.492584	0.492945
O35	O	1.285173	0.825917	0.826279
O36	O	1.618507	1.159251	1.159612
O37	O	1.093855	0.620627	0.842729
O38	O	1.427189	0.953960	1.176063
O39	O	1.760522	1.287293	1.509396
O40	O	0.964846	0.636471	0.636904
O41	O	1.298179	0.969804	0.970237
O42	O	1.631512	1.303137	1.303570
O43	O	1.178598	0.464735	0.854722
O44	O	1.511932	0.798069	1.188055
O45	O	1.845265	1.131402	1.521388
O46	O	1.178496	0.854316	0.465273
O47	O	1.511829	1.187650	0.798606
O48	O	1.845163	1.520983	1.131939
O49	O	1.093797	0.842271	0.621160
O50	O	1.427131	1.175605	0.954493
O51	O	1.760464	1.508938	1.287827
C52	C	0.931396	0.564522	0.564916
C53	C	1.264729	0.897856	0.898249
C54	C	1.598062	1.231189	1.231582
C55	C	0.848850	0.564533	0.564915
C56	C	1.182184	0.897866	0.898248
C57	C	1.515517	1.231199	1.231582
C58	C	1.138082	0.894347	0.539711
C59	C	1.471416	1.227681	0.873044
C60	C	1.804749	1.561014	1.206378
C61	C	1.144026	1.035427	0.528942
C62	C	1.477359	1.368760	0.862275
C63	C	1.810692	1.702094	1.195609
C64	C	1.138208	0.539029	0.896071
C65	C	1.471542	0.872363	1.229405
C66	C	1.804875	1.205696	1.562738
C67	C	1.144113	0.528148	1.037162
C68	C	1.477446	0.861481	1.370495
C69	C	1.810779	1.194815	1.703828
C70	C	0.642310	0.486174	0.486833
C71	C	0.975643	0.819507	0.820166
C72	C	1.308976	1.152840	1.153500
C73	C	0.596437	0.604347	0.446740
C74	C	0.929771	0.937680	0.780073
C75	C	1.263104	1.271014	1.113407
C76	C	0.697724	0.564567	0.564969
C77	C	1.031057	0.897900	0.898303
C78	C	1.364391	1.231233	1.231636
C79	C	0.596516	0.446434	0.605056
C80	C	0.929850	0.779767	0.938389
C81	C	1.263183	1.113101	1.271723
C82	C	0.551742	0.564590	0.565020
C83	C	0.885076	0.897923	0.898354
C84	C	1.218409	1.231256	1.231687
C85	C	0.652939	0.682805	0.524811
C86	C	0.986272	1.016139	0.858145
C87	C	1.319605	1.349472	1.191478
C88	C	0.653021	0.524810	0.683187
C89	C	0.986355	0.858144	1.016521
C90	C	1.319688	1.191477	1.349854
C91	C	0.607176	0.643060	0.643132
C92	C	0.940510	0.976393	0.976465
C93	C	1.273843	1.309727	1.309799
C94	C	0.781820	0.564552	0.564937
C95	C	1.115154	0.897885	0.898270
C96	C	1.448487	1.231219	1.231604
C97	C	0.467649	0.564617	0.565052
C98	C	0.800982	0.897951	0.898385
C99	C	1.134315	1.231284	1.231719
C100	C	1.318063	0.564607	0.565050
C101	C	1.651397	0.897940	0.898383
C102	C	1.984730	1.231274	1.231716
C103	C	1.400611	0.564625	0.565079
C104	C	1.733945	0.897959	0.898412
C105	C	2.067278	1.231292	1.231745
C106	C	1.110591	0.233491	0.590380
C107	C	1.443924	0.566824	0.923714
C108	C	1.777258	0.900158	1.257047
C109	C	1.104727	0.092407	0.601203
C110	C	1.438060	0.425741	0.934537
C111	C	1.771393	0.759074	1.267870
C112	C	1.110590	0.589908	0.235188
C113	C	1.443924	0.923241	0.568522
C114	C	1.777257	1.256575	0.901855
C115	C	1.104815	0.600432	0.094126
C116	C	1.438148	0.933765	0.427459
C117	C	1.771482	1.267098	0.760793
H118	H	0.657969	0.419963	0.420672
H119	H	0.991302	0.753296	0.754006
H120	H	1.324636	1.086629	1.087339
H121	H	1.182280	0.457939	1.096337
H122	H	1.515613	0.791272	1.429670
H123	H	1.848946	1.124606	1.763004
H124	H	0.677514	0.782756	0.490817
H125	H	1.010847	1.116089	0.824151
H126	H	1.344180	1.449423	1.157484
Cl127	Cl	0.691234	0.472819	0.837471
Cl128	Cl	1.024567	0.806152	1.170804
Cl129	Cl	1.357901	1.139486	1.504138
Cl130	Cl	0.558246	0.656291	0.292422
Cl131	Cl	0.891579	0.989625	0.625756
Cl132	Cl	1.224912	1.322958	0.959089
Cl133	Cl	0.583213	0.745550	0.745176
Cl134	Cl	0.916547	1.078884	1.078509
Cl135	Cl	1.249880	1.412217	1.411843
H136	H	1.182214	1.094581	0.458823
H137	H	1.515547	1.427914	0.792156
H138	H	1.848881	1.761248	1.125490
Cl139	Cl	0.558424	0.292180	0.657367
Cl140	Cl	0.891757	0.625513	0.990700
Cl141	Cl	1.225091	0.958846	1.324034
Cl142	Cl	1.045760	1.001093	0.709446
Cl143	Cl	1.379094	1.334426	1.042780
Cl144	Cl	1.712427	1.667759	1.376113
H145	H	1.066656	0.670645	1.034957
H146	H	1.399989	1.003978	1.368290
H147	H	1.733322	1.337312	1.701624
