data_functionalizedCrystal
_audit_creation_method	'MofGen! by Chris Wilmer'
_symmetry_space_group_name_H-M	'P1'
_symmetry_Int_Tables_number	1
_symmetry_cell_setting	triclinic
loop_
_symmetry_equiv_pos_as_xyz
  x,y,z
_cell_length_a	12.759401
_cell_length_b	25.639240
_cell_length_c	12.759393
_cell_angle_alpha	89.957119
_cell_angle_beta	89.981798
_cell_angle_gamma	90.032919
loop_
_atom_site_label
_atom_site_type_symbol
_atom_site_fract_x
_atom_site_fract_y
_atom_site_fract_z
Zn1	Zn	1.606120	-0.208125	-0.593889
Zn2	Zn	1.605960	-0.295569	-0.418170
Zn3	Zn	1.430423	-0.208150	-0.418228
Zn4	Zn	1.430356	-0.295531	-0.593812
O5	O	1.518215	-0.251844	-0.506025
O6	O	1.753120	-0.219730	-0.570587
O7	O	1.582636	-0.284000	-0.271157
O8	O	1.453825	-0.134981	-0.441587
O9	O	1.753003	-0.283975	-0.441488
O10	O	1.582909	-0.134963	-0.570644
O11	O	1.453670	-0.219773	-0.271199
O12	O	1.283393	-0.219736	-0.441512
O13	O	1.453710	-0.283910	-0.740843
O14	O	1.283344	-0.283935	-0.570512
O15	O	1.582844	-0.219693	-0.740900
O16	O	1.582571	-0.368730	-0.441413
O17	O	1.453555	-0.368701	-0.570456
C18	C	1.245248	-0.251834	-0.506010
C19	C	1.128471	-0.251843	-0.506029
C20	C	1.073611	-0.285324	-0.573089
C21	C	0.963886	-0.285331	-0.573100
C22	C	0.963893	-0.218373	-0.438984
C23	C	1.073615	-0.218364	-0.438978
C24	C	1.128467	-0.318803	-0.640139
C25	C	1.073606	-0.352288	-0.707203
C26	C	0.963882	-0.352295	-0.707215
C27	C	0.909018	-0.318816	-0.640162
C28	C	1.518067	-0.387686	-0.505942
C29	C	1.518099	-0.445800	-0.505942
C30	C	1.585462	-0.806115	-0.573346
C31	C	1.585493	-0.860720	-0.573367
O32	O	1.642591	-0.888915	-0.630592
N33	N	1.518361	-0.888083	-0.506126
C34	C	1.451185	-0.860839	-0.438867
O35	O	1.394086	-0.889128	-0.381676
C36	C	1.451150	-0.806236	-0.438852
C37	C	1.518294	-0.778875	-0.506090
C38	C	1.652601	-0.778755	-0.640579
C39	C	1.652571	-0.724154	-0.640556
C40	C	1.585403	-0.696914	-0.573300
C41	C	1.518264	-0.724275	-0.506067
C42	C	1.383970	-0.778993	-0.371598
C43	C	1.383939	-0.724386	-0.371590
C44	C	1.451084	-0.697025	-0.438828
C45	C	1.451066	-0.642434	-0.438787
N46	N	1.518199	-0.615071	-0.506028
C47	C	1.585367	-0.642311	-0.573285
C48	C	1.451264	-0.975510	-0.438905
C49	C	1.451304	-1.030112	-0.438915
C50	C	1.585611	-1.029989	-0.573417
C51	C	1.585575	-0.975385	-0.573401
C52	C	1.518396	-0.948146	-0.506146
C53	C	1.585300	-0.527646	-0.573231
C54	C	1.585267	-0.473041	-0.573199
C55	C	1.450957	-0.473168	-0.438701
C56	C	1.450993	-0.527769	-0.438729
C57	C	1.518168	-0.555006	-0.506002
O58	O	1.393995	-0.614204	-0.381595
O59	O	1.642447	-0.614016	-0.630476
C60	C	1.792248	-0.251854	-0.506040
C61	C	1.909025	-0.251858	-0.506046
C62	C	1.518287	-0.251794	-0.780058
C63	C	1.518318	-0.251773	-0.896835
C64	C	1.518393	-0.115471	-0.506130
C65	C	1.518468	-0.057357	-0.506175
C66	C	1.585509	-0.285178	-1.061404
C67	C	1.585478	-0.285202	-0.951679
C68	C	1.451178	-0.218323	-0.951720
C69	C	1.451205	-0.218302	-1.061442
C70	C	1.652681	-0.318605	-1.116243
C71	C	1.719820	-0.352056	-1.061365
C72	C	1.719788	-0.352080	-0.951641
C73	C	1.652618	-0.318652	-0.896794
C74	C	1.518204	-0.251855	-0.233057
C75	C	1.518376	-0.251729	-0.116281
H76	H	0.919214	-0.191117	-0.384392
C77	C	1.369434	-0.840465	-0.230280
C78	C	1.310149	-0.809060	-0.297702
H79	H	1.323852	-0.859024	-0.184658
H80	H	1.409433	-0.864505	-0.270327
H81	H	1.415211	-0.819160	-0.190116
H82	H	1.264377	-0.830365	-0.337872
H83	H	1.270133	-0.785017	-0.257651
C84	C	1.062609	-0.152191	-0.306387
C85	C	1.133926	-0.181567	-0.365252
H86	H	1.099845	-0.129477	-0.260866
H87	H	1.019854	-0.132218	-0.352237
H88	H	1.019773	-0.174956	-0.266121
H89	H	1.176757	-0.158802	-0.405525
H90	H	1.176699	-0.201542	-0.319396
H91	H	1.652585	-0.318680	-0.807449
C92	C	1.309929	-0.211011	-1.184833
C93	C	1.377417	-0.181534	-1.121774
H94	H	1.264370	-0.188311	-1.222074
H95	H	1.349934	-0.230913	-1.233187
H96	H	1.269702	-0.233794	-1.141997
H97	H	1.417650	-0.158753	-1.164610
H98	H	1.337408	-0.161622	-1.073414
H99	H	1.396492	-0.191107	-0.907055
C100	C	1.852544	-0.418181	-0.962627
C101	C	1.793583	-0.388848	-0.891317
H102	H	1.898110	-0.440877	-0.925385
H103	H	1.806757	-0.438170	-1.005403
H104	H	1.892766	-0.395386	-1.005443
H105	H	1.753355	-0.411643	-0.848507
H106	H	1.839376	-0.368857	-0.848523
C107	C	1.718024	-0.478412	-0.706160
C108	C	1.659071	-0.442967	-0.647118
H109	H	1.763579	-0.459846	-0.751798
H110	H	1.758248	-0.499712	-0.660428
H111	H	1.672223	-0.499711	-0.746308
H112	H	1.704872	-0.421670	-0.606963
H113	H	1.618844	-0.421658	-0.692856
C114	C	0.751836	-0.355254	-0.713251
C115	C	0.788407	-0.318805	-0.640211
H116	H	0.677377	-0.355244	-0.713283
H117	H	0.776727	-0.346254	-0.781061
H118	H	0.776589	-0.388985	-0.694929
H119	H	0.763660	-0.285073	-0.658537
H120	H	0.763505	-0.327802	-0.572386
H121	H	1.118283	-0.379541	-0.761802
H122	H	0.919217	-0.379556	-0.761829
H123	H	1.396327	-0.550047	-0.383970
C124	C	1.599869	-0.588969	-0.714611
C125	C	1.659139	-0.557582	-0.647175
H126	H	1.645458	-0.607448	-0.760260
H127	H	1.559903	-0.613081	-0.674575
H128	H	1.554062	-0.567663	-0.754745
H129	H	1.704941	-0.578888	-0.607035
H130	H	1.699123	-0.533468	-0.687214
C131	C	1.793860	-0.662685	-0.655281
C132	C	1.726368	-0.694083	-0.714476
H133	H	1.839422	-0.644126	-0.700923
H134	H	1.753859	-0.638644	-0.615237
H135	H	1.834084	-0.683993	-0.609550
H136	H	1.686139	-0.672774	-0.760202
H137	H	1.766374	-0.718127	-0.754539
H138	H	1.707297	-0.800928	-0.695354
C139	C	1.718326	-0.980761	-0.706355
C140	C	1.659369	-0.945314	-0.647323
H141	H	1.763878	-0.962197	-0.751999
H142	H	1.758553	-1.002056	-0.660618
H143	H	1.672527	-1.002065	-0.746497
H144	H	1.705168	-0.924013	-0.607175
H145	H	1.619139	-0.924009	-0.693066
H146	H	1.217809	-0.318802	-0.640136
C147	C	1.552764	-0.331897	-1.273410
C148	C	1.652714	-0.318579	-1.236852
H149	H	1.552786	-0.331876	-1.347868
H150	H	1.534563	-0.365640	-1.248572
H151	H	1.503162	-0.307200	-1.248594
H152	H	1.702315	-0.343278	-1.261661
H153	H	1.670927	-0.284831	-1.261701
H154	H	1.640301	-1.052178	-0.628182
C155	C	1.318545	-1.024735	-0.305967
C156	C	1.377503	-1.060183	-0.364998
H157	H	1.272975	-1.043299	-0.260342
H158	H	1.364334	-1.003440	-0.265815
H159	H	1.278328	-1.003432	-0.351714
H160	H	1.417726	-1.081484	-0.319251
H161	H	1.331708	-1.081487	-0.405153
H162	H	1.396562	-0.953334	-0.384130
H163	H	1.329231	-0.702210	-0.316824
H164	H	1.396272	-0.450981	-0.383938
H165	H	1.774503	-0.379274	-1.106028
