data_functionalizedCrystal
_audit_creation_method	'MofGen! by Chris Wilmer'
_symmetry_space_group_name_H-M	'P1'
_symmetry_Int_Tables_number	1
_symmetry_cell_setting	triclinic
loop_
_symmetry_equiv_pos_as_xyz
  x,y,z
_cell_length_a	14.971486
_cell_length_b	12.376897
_cell_length_c	14.971486
_cell_angle_alpha	77.344972
_cell_angle_beta	83.614129
_cell_angle_gamma	77.350729
loop_
_atom_site_label
_atom_site_type_symbol
_atom_site_fract_x
_atom_site_fract_y
_atom_site_fract_z
O1	O	1.171654	0.093871	0.101256
O2	O	0.911249	0.093901	0.115209
O3	O	1.048432	0.093877	-0.021966
O4	O	1.034471	0.093895	0.238431
O5	O	1.079044	-0.094123	0.008686
O6	O	0.941860	-0.094099	0.145861
O7	O	1.202266	-0.094130	0.131908
Zn8	Zn	1.076923	-0.123963	0.143751
Zn9	Zn	1.036591	0.123735	0.103366
O10	O	1.065082	-0.094105	0.269083
C11	C	0.893229	-0.000095	0.129911
C12	C	0.793930	-0.000083	0.128038
N13	N	1.104455	-0.293011	0.171312
C14	C	0.736704	-0.000079	0.208627
C15	C	0.643408	-0.000096	0.206866
C16	C	0.607337	-0.000109	0.124515
C17	C	0.664571	-0.000116	0.043921
C18	C	0.757868	-0.000107	0.045683
C19	C	0.470111	-0.000132	0.040252
C20	C	0.376808	-0.000139	0.038489
C21	C	0.355652	-0.000121	0.201435
C22	C	0.448948	-0.000112	0.203198
C23	C	0.506175	-0.000117	0.122603
C24	C	0.945123	-0.648058	0.011812
C25	C	0.925839	-0.529726	-0.007481
C26	C	0.970491	-0.470541	0.037216
C27	C	1.034431	-0.529701	0.101208
C28	C	1.053722	-0.648044	0.120497
C29	C	1.079090	-0.470528	0.145902
C30	C	1.143030	-0.529687	0.209894
C31	C	1.162318	-0.648019	0.229180
C32	C	1.117666	-0.707204	0.184483
C33	C	1.059799	-0.352184	0.126613
C34	C	1.168398	-0.352170	0.235298
C35	C	1.187682	-0.470502	0.254591
C36	C	1.220285	-0.000131	0.117206
C37	C	1.319583	-0.000135	0.119078
C38	C	1.063114	-0.000123	-0.039965
C39	C	1.061243	-0.000121	-0.139262
N40	N	1.009067	0.292783	0.075798
C41	C	1.141834	-0.000132	-0.196486
C42	C	1.140069	-0.000120	-0.289787
C43	C	1.057713	-0.000106	-0.325862
C44	C	0.977116	-0.000092	-0.268631
C45	C	0.978880	-0.000096	-0.175333
C46	C	0.973444	-0.000088	-0.463095
C47	C	0.971679	-0.000087	-0.556399
C48	C	1.134632	-0.000112	-0.577549
C49	C	1.136397	-0.000116	-0.484250
C50	C	1.055799	-0.000104	-0.427026
C51	C	1.050400	-0.000103	0.287082
C52	C	1.052270	-0.000097	0.386378
H53	H	0.766065	-0.000068	0.275686
H54	H	1.204759	-0.303982	0.271694
C55	C	0.881082	-0.000057	-0.596081
N56	N	0.812842	-0.000031	-0.625970
C57	C	1.232433	-0.000147	-0.156813
N58	N	1.300674	-0.000153	-0.126936
H59	H	0.954786	-0.374190	0.021505
C60	C	1.226993	-0.000136	-0.444570
N61	N	1.295231	-0.000148	-0.414683
H62	H	0.907812	-0.000076	-0.416505
H63	H	1.205695	-0.000131	-0.336375
H64	H	0.913255	-0.000087	-0.128742
H65	H	0.478311	-0.000091	0.270253
H66	H	0.309053	-0.000122	0.267059
C67	C	0.580466	-0.000112	0.295524
N68	N	0.533059	-0.000132	0.362306
C69	C	1.258020	-0.535593	0.324976
N70	N	1.311000	-0.584621	0.377989
H71	H	0.347444	-0.000151	-0.028568
H72	H	0.516704	-0.000138	-0.025377
C73	C	0.886525	-0.000087	-0.308315
N74	N	0.818292	-0.000091	-0.338202
H75	H	0.908781	-0.696257	-0.024579
H76	H	1.200257	-0.000118	-0.624146
H77	H	0.804461	-0.000110	-0.019940
C78	C	0.989462	-0.287122	0.056229
N79	N	0.936477	-0.238119	0.003214
C80	C	0.624891	-0.000132	-0.046666
N81	N	0.595004	-0.000140	-0.114899
C82	C	0.855504	-0.464659	-0.077865
N83	N	0.802521	-0.415650	-0.130881
H84	H	1.133360	-0.803560	0.200192
H85	H	1.214390	-0.696184	0.281279
