data_functionalizedCrystal
_audit_creation_method	'MofGen! by Chris Wilmer'
_symmetry_space_group_name_H-M	'P1'
_symmetry_Int_Tables_number	1
_symmetry_cell_setting	triclinic
loop_
_symmetry_equiv_pos_as_xyz
  x,y,z
_cell_length_a	27.731994
_cell_length_b	9.065215
_cell_length_c	26.809956
_cell_angle_alpha	90.005768
_cell_angle_beta	89.997355
_cell_angle_gamma	83.817616
loop_
_atom_site_label
_atom_site_type_symbol
_atom_site_fract_x
_atom_site_fract_y
_atom_site_fract_z
O1	O	0.642143	0.175120	-0.041408
O2	O	1.142143	0.675120	0.458592
O3	O	0.501528	0.201892	-0.041424
O4	O	1.001528	0.701892	0.458576
O5	O	0.574743	-0.026324	-0.041413
O6	O	1.074743	0.473676	0.458587
O7	O	0.568928	0.403335	-0.041418
O8	O	1.068928	0.903335	0.458582
O9	O	0.574729	-0.026287	0.041546
O10	O	1.074729	0.473713	0.541546
O11	O	0.501514	0.201928	0.041535
O12	O	1.001514	0.701928	0.541535
O13	O	0.642129	0.175156	0.041552
O14	O	1.142129	0.675156	0.541552
Zn15	Zn	0.571820	0.188548	0.054715
Zn16	Zn	1.071820	0.688548	0.554715
Zn17	Zn	0.571838	0.188500	-0.054587
Zn18	Zn	1.071838	0.688500	0.445413
O19	O	0.568915	0.403371	0.041541
O20	O	1.068915	0.903371	0.541541
C21	C	0.483510	0.201360	0.000053
C22	C	0.983510	0.701360	0.500053
C23	C	0.429843	0.199705	0.000047
C24	C	0.929843	0.699705	0.500047
C25	C	0.574177	-0.081256	0.000066
C26	C	1.074177	0.418744	0.500066
C27	C	0.572508	-0.244992	0.000064
C28	C	1.072508	0.255008	0.500064
C29	C	0.097046	0.189301	0.045288
C30	C	0.597046	0.689301	0.545288
C31	C	-0.104656	0.183010	0.045293
C32	C	0.395344	0.683010	0.545293
O33	O	-0.130741	0.182150	0.083752
O34	O	0.369259	0.682150	0.583752
N35	N	-0.129868	0.182209	0.000072
N36	N	0.370132	0.682209	0.500072
C37	C	-0.104652	0.182971	-0.045153
C38	C	0.395348	0.682971	0.454847
O39	O	-0.130724	0.182130	-0.083616
O40	O	0.369276	0.682130	0.416384
C41	C	0.097049	0.189252	-0.045159
C42	C	0.597049	0.689252	0.454841
C43	C	0.122258	0.190068	0.000065
C44	C	0.622258	0.690068	0.500065
C45	C	0.122255	0.190116	0.090508
C46	C	0.622255	0.690116	0.590508
C47	C	0.172677	0.191697	0.090506
C48	C	0.672677	0.691697	0.590506
C49	C	0.197889	0.192463	0.045284
C50	C	0.697889	0.692463	0.545284
C51	C	0.172680	0.191649	0.000064
C52	C	0.672680	0.691649	0.500064
C53	C	0.122264	0.190003	-0.090384
C54	C	0.622264	0.690003	0.409616
C55	C	0.172693	0.191569	-0.090381
C56	C	0.672693	0.691569	0.409619
C57	C	0.197902	0.192386	-0.045157
C58	C	0.697902	0.692386	0.454843
C59	C	0.248314	0.193996	-0.045160
C60	C	0.748314	0.693996	0.454840
N61	N	0.273527	0.194797	0.000061
N62	N	0.773527	0.694797	0.500061
C63	C	0.248314	0.194031	0.045283
C64	C	0.748314	0.694031	0.545283
C65	C	-0.210548	0.179676	-0.045147
C66	C	0.289452	0.679676	0.454853
C67	C	-0.260973	0.178109	-0.045146
C68	C	0.239027	0.678109	0.454854
C69	C	-0.260973	0.178145	0.045301
C70	C	0.239027	0.678145	0.545301
C71	C	-0.210547	0.179724	0.045299
C72	C	0.289453	0.679724	0.545299
C73	C	-0.185335	0.180478	0.000074
C74	C	0.314665	0.680478	0.500074
C75	C	0.354204	0.197352	0.045275
C76	C	0.854204	0.697352	0.545275
C77	C	0.404630	0.198939	0.045269
C78	C	0.904630	0.698939	0.545269
C79	C	0.404626	0.198894	-0.045177
C80	C	0.904626	0.698894	0.454823
C81	C	0.354204	0.197315	-0.045172
C82	C	0.854204	0.697315	0.454828
C83	C	0.328994	0.196539	0.000059
C84	C	0.828994	0.696539	0.500059
O85	O	0.274431	0.194840	-0.083599
O86	O	0.774431	0.694840	0.416401
O87	O	0.274397	0.194839	0.083740
O88	O	0.774397	0.694839	0.583740
C89	C	0.046624	0.187721	0.045290
C90	C	0.546624	0.687721	0.545290
C91	C	0.021414	0.186906	0.000069
C92	C	0.521414	0.686906	0.500069
C93	C	0.046627	0.187672	-0.045153
C94	C	0.546627	0.687672	0.454847
C95	C	-0.029011	0.185339	0.000070
C96	C	0.470989	0.685339	0.500070
C97	C	-0.054223	0.184572	0.045293
C98	C	0.445777	0.684572	0.545293
C99	C	-0.029011	0.185373	0.090514
C100	C	0.470989	0.685373	0.590514
C101	C	0.021411	0.186954	0.090512
C102	C	0.521411	0.686954	0.590512
C103	C	0.021414	0.186871	-0.090374
C104	C	0.521414	0.686871	0.409626
C105	C	-0.029008	0.185292	-0.090368
C106	C	0.470992	0.685292	0.409632
C107	C	-0.054221	0.184526	-0.045146
C108	C	0.445779	0.684526	0.454854
C109	C	0.660147	0.175687	0.000073
C110	C	1.160147	0.675687	0.500073
C111	C	0.713815	0.177343	0.000076
C112	C	1.213815	0.677343	0.500076
C113	C	0.569480	0.458304	0.000061
C114	C	1.069480	0.958304	0.500061
C115	C	0.571150	0.622040	0.000059
C116	C	1.071150	1.122040	0.500059
N117	N	0.571811	0.188580	0.129311
N118	N	1.071811	0.688580	0.629311
C119	C	0.604253	0.087482	0.473942
C120	C	1.104253	0.587482	0.973942
C121	C	0.604264	0.087463	0.682819
C122	C	1.104264	0.587463	1.182819
O123	O	0.631828	0.001510	0.709827
O124	O	1.131828	0.501510	1.209827
N125	N	0.571840	0.188483	0.708938
N126	N	1.071840	0.688483	1.208938
C127	C	0.539409	0.289507	0.682834
C128	C	1.039409	0.789507	1.182834
O129	O	0.511827	0.375420	0.709842
O130	O	1.011827	0.875420	1.209842
C131	C	0.539395	0.289518	0.473957
C132	C	1.039395	0.789518	0.973957
C133	C	0.571825	0.188502	0.447841
C134	C	1.071825	0.688502	0.947841
C135	C	0.636680	-0.013527	0.447826
C136	C	1.136680	0.486473	0.947826
C137	C	0.636678	-0.013516	0.395609
C138	C	1.136678	0.486484	0.895609
C139	C	0.604250	0.087504	0.369509
C140	C	1.104250	0.587504	0.869509
C141	C	0.571824	0.188513	0.395625
C142	C	1.071824	0.688513	0.895625
C143	C	0.506962	0.390534	0.447854
C144	C	1.006962	0.890534	0.947854
C145	C	0.506961	0.390526	0.395632
C146	C	1.006961	0.890526	0.895632
C147	C	0.539390	0.289509	0.369516
C148	C	1.039390	0.789509	0.869516
C149	C	0.539394	0.289544	0.317308
C150	C	1.039394	0.789544	0.817308
N151	N	0.571819	0.188524	0.291190
N152	N	1.071819	0.688524	0.791190
C153	C	0.604246	0.087504	0.317290
C154	C	1.104246	0.587504	0.817290
C155	C	0.539419	0.289497	0.792497
C156	C	1.039419	0.789497	1.292497
C157	C	0.539422	0.289496	0.844716
C158	C	1.039422	0.789496	1.344716
C159	C	0.604277	0.087450	0.844698
C160	C	1.104277	0.587450	1.344698
C161	C	0.604276	0.087458	0.792478
C162	C	1.104276	0.587458	1.292478
C163	C	0.571843	0.188477	0.766379
C164	C	1.071843	0.688477	1.266379
C165	C	0.604241	0.087536	0.207632
C166	C	1.104241	0.587536	0.707632
C167	C	0.604239	0.087560	0.155411
C168	C	1.104239	0.587560	0.655411
C169	C	0.539382	0.289600	0.155434
C170	C	1.039382	0.789600	0.655434
C171	C	0.539386	0.289582	0.207650
C172	C	1.039386	0.789582	0.707650
C173	C	0.571818	0.188538	0.233748
C174	C	1.071818	0.688538	0.733748
O175	O	0.511841	0.375441	0.290268
O176	O	1.011841	0.875441	0.790268
O177	O	0.631817	0.001582	0.290273
O178	O	1.131817	0.501582	0.790273
C179	C	0.604254	0.087471	0.526158
C180	C	1.104254	0.587471	1.026158
C181	C	0.571828	0.188480	0.552274
C182	C	1.071828	0.688480	1.052274
C183	C	0.539400	0.289500	0.526174
C184	C	1.039400	0.789500	1.026174
C185	C	0.571832	0.188479	0.604493
C186	C	1.071832	0.688479	1.104493
C187	C	0.604259	0.087459	0.630593
C188	C	1.104259	0.587459	1.130593
C189	C	0.636684	-0.013560	0.604475
C190	C	1.136684	0.486440	1.104475
C191	C	0.636682	-0.013549	0.552258
C192	C	1.136682	0.486451	1.052258
C193	C	0.506976	0.390519	0.552292
C194	C	1.006976	0.890519	1.052292
C195	C	0.506980	0.390501	0.604509
C196	C	1.006980	0.890501	1.104509
C197	C	0.539408	0.289481	0.630609
C198	C	1.039408	0.789481	1.130609
N199	N	0.571850	0.188476	0.870817
N200	N	1.071850	0.688476	1.370817
H201	H	0.425153	0.199608	0.082098
H202	H	0.925153	0.699608	0.582098
Br203	Br	0.495399	0.426608	0.757082
Br204	Br	0.995399	0.926608	1.257082
Br205	Br	0.319999	0.196294	0.106660
Br206	Br	0.819999	0.696294	0.606660
Br207	Br	0.088048	0.189082	0.151890
Br208	Br	0.588048	0.689082	0.651890
Br209	Br	-0.063238	0.184344	0.151886
Br210	Br	0.436762	0.684344	0.651886
H211	H	-0.281509	0.177525	0.082122
H212	H	0.218491	0.677525	0.582122
H213	H	0.663086	-0.095797	0.469072
H214	H	1.163086	0.404203	0.969072
Br215	Br	-0.295181	0.177038	-0.106524
Br216	Br	0.204819	0.677038	0.393476
H217	H	0.630650	0.005254	0.228875
H218	H	1.130650	0.505254	0.728875
H219	H	-0.190025	0.180289	-0.081977
H220	H	0.309975	0.680289	0.418023
H221	H	0.193198	0.192352	0.127332
H222	H	0.693198	0.692352	0.627332
Br223	Br	0.648289	-0.049640	0.757041
Br224	Br	1.148289	0.450360	1.257041
H225	H	0.630648	0.005300	0.134149
H226	H	1.130648	0.505300	0.634149
H227	H	0.663089	-0.095806	0.530999
H228	H	1.163089	0.404194	1.030999
Br229	Br	0.648287	-0.049647	0.880131
Br230	Br	1.148287	0.450353	1.380131
Br231	Br	0.495417	0.426618	0.880154
Br232	Br	0.995417	0.926618	1.380154
Br233	Br	0.462962	0.527629	0.516877
Br234	Br	0.962962	1.027629	1.016877
H235	H	0.333677	0.196675	-0.081997
H236	H	0.833677	0.696675	0.418003
Br237	Br	0.088064	0.188894	-0.151763
Br238	Br	0.588064	0.688894	0.348237
H239	H	0.193218	0.192184	-0.127210
H240	H	0.693218	0.692184	0.372790
Br241	Br	-0.063215	0.184198	-0.151750
Br242	Br	0.436785	0.684198	0.348250
H243	H	-0.190025	0.180390	0.082124
H244	H	0.309975	0.680390	0.582124
Br245	Br	0.495380	0.426699	0.243092
Br246	Br	0.995380	0.926699	0.743092
Br247	Br	0.438853	0.199928	-0.106547
Br248	Br	0.938853	0.699928	0.393453
Br249	Br	0.680689	-0.150622	0.360172
Br250	Br	1.180689	0.349378	0.860172
Br251	Br	0.462940	0.527626	0.360215
Br252	Br	0.962940	1.027626	0.860215
H253	H	0.480555	0.472790	0.469111
H254	H	0.980555	0.972790	0.969111
H255	H	0.041932	0.187619	0.127338
H256	H	0.541932	0.687619	0.627338
H257	H	0.512981	0.371854	0.134175
H258	H	1.012981	0.871854	0.634175
H259	H	0.041937	0.187491	-0.127200
H260	H	0.541937	0.687491	0.372800
H261	H	0.663090	-0.095810	0.625734
H262	H	1.163090	0.404190	1.125734
H263	H	0.480573	0.472773	0.625769
H264	H	0.980573	0.972773	1.125769
