data_functionalizedCrystal
_audit_creation_method	'MofGen! by Chris Wilmer'
_symmetry_space_group_name_H-M	'P1'
_symmetry_Int_Tables_number	1
_symmetry_cell_setting	triclinic
loop_
_symmetry_equiv_pos_as_xyz
  x,y,z
_cell_length_a	12.594517
_cell_length_b	12.594516
_cell_length_c	12.645323
_cell_angle_alpha	90.025622
_cell_angle_beta	90.015775
_cell_angle_gamma	90.011773
loop_
_atom_site_label
_atom_site_type_symbol
_atom_site_fract_x
_atom_site_fract_y
_atom_site_fract_z
Zn1	Zn	1.627314	-0.423735	0.599246
Zn2	Zn	2.127314	0.076265	1.099246
Zn3	Zn	1.627213	-0.601738	0.421983
Zn4	Zn	2.127213	-0.101738	0.921983
Zn5	Zn	1.449313	-0.423774	0.422011
Zn6	Zn	1.949313	0.076226	0.922011
Zn7	Zn	1.449313	-0.601672	0.599220
Zn8	Zn	1.949313	-0.101672	1.099220
O9	O	1.538288	-0.512730	0.510615
O10	O	2.038288	-0.012730	1.010615
O11	O	1.776246	-0.447359	0.575730
O12	O	2.276246	0.052641	1.075730
O13	O	1.603572	-0.578175	0.273640
O14	O	2.103572	-0.078175	0.773640
O15	O	1.472967	-0.274823	0.445544
O16	O	1.972967	0.225177	0.945544
O17	O	1.776172	-0.578137	0.445497
O18	O	2.276172	-0.078137	0.945497
O19	O	1.603744	-0.274794	0.575757
O20	O	2.103744	0.225206	1.075757
O21	O	1.472870	-0.447425	0.273660
O22	O	1.972870	0.052575	0.773660
O23	O	1.300367	-0.447361	0.445519
O24	O	1.800367	0.052639	0.945519
O25	O	1.472967	-0.578024	0.747571
O26	O	1.972967	-0.078024	1.247571
O27	O	1.300367	-0.578062	0.575714
O28	O	1.800367	-0.078062	1.075714
O29	O	1.603744	-0.447295	0.747590
O30	O	2.103744	0.052705	1.247590
O31	O	1.603572	-0.750675	0.445472
O32	O	2.103572	-0.250675	0.945472
O33	O	1.472870	-0.750626	0.575687
O34	O	1.972870	-0.250626	1.075687
C35	C	1.261747	-0.512709	0.510618
C36	C	1.761747	-0.012709	1.010618
C37	C	1.143442	-0.512726	0.510644
C38	C	1.643442	-0.012726	1.010644
C39	C	1.538239	-0.789271	0.510597
C40	C	2.038239	-0.289271	1.010597
C41	C	1.538315	-0.907576	0.510624
C42	C	2.038315	-0.407576	1.010624
C43	C	1.003456	-0.583943	0.581325
C44	C	1.503456	-0.083943	1.081325
C45	C	1.074226	-0.609847	0.484574
C46	C	1.574226	-0.109847	0.984574
C47	C	1.074243	-0.486869	0.607384
C48	C	1.574243	0.013131	1.107384
C49	C	1.003426	-0.538715	0.413810
C50	C	1.503426	-0.038715	0.913810
C51	C	1.003437	-0.415692	0.536685
C52	C	1.503437	0.084308	1.036685
C53	C	1.074175	-0.441559	0.439867
C54	C	1.574175	0.058441	0.939867
C55	C	1.609487	-0.976817	0.439876
C56	C	2.109487	-0.476817	0.939876
C57	C	1.635500	-1.047517	0.536632
C58	C	2.135500	-0.547517	1.036632
C59	C	1.512435	-1.047675	0.413930
C60	C	2.012435	-0.547675	0.913930
C61	C	1.564378	-0.976718	0.607431
C62	C	2.064378	-0.476718	1.107431
C63	C	1.441268	-0.976869	0.484664
C64	C	1.941268	-0.476869	0.984664
C65	C	1.467244	-1.047538	0.581486
C66	C	1.967244	-0.547538	1.081486
C67	C	1.815909	-0.512751	0.510613
C68	C	2.315909	-0.012751	1.010613
C69	C	1.934214	-0.512760	0.510612
C70	C	2.434214	-0.012760	1.010612
C71	C	1.538367	-0.512647	0.787120
C72	C	2.038367	-0.012647	1.287120
C73	C	1.538400	-0.512612	0.904951
C74	C	2.038400	-0.012612	1.404951
C75	C	1.538367	-0.235109	0.510657
C76	C	2.038367	0.264891	1.010657
C77	C	1.538400	-0.116803	0.510675
C78	C	2.038400	0.383197	1.010675
C79	C	1.538271	-0.512735	0.235185
C80	C	2.038271	-0.012735	0.735185
C81	C	1.538444	-0.512470	0.117356
C82	C	2.038444	-0.012470	0.617356
C83	C	1.455875	-0.594467	1.072503
C84	C	1.955875	-0.094467	1.572503
C85	C	1.456091	-0.594872	0.949943
C86	C	1.956091	-0.094872	1.449943
C87	C	1.650553	-0.543053	0.949457
C88	C	2.150553	-0.043053	1.449457
C89	C	1.650101	-0.543567	1.072055
C90	C	2.150101	-0.043567	1.572055
C91	C	1.509832	-0.399859	1.072153
C92	C	2.009832	0.100141	1.572153
C93	C	1.507330	-0.400535	0.949547
C94	C	2.007330	0.099465	1.449547
H95	H	0.972404	-0.644200	0.641037
H96	H	1.472404	-0.144200	1.141037
H97	H	1.490511	-1.078842	0.332136
H98	H	1.990511	-0.578842	0.832136
H99	H	1.717607	-1.078553	0.558618
H100	H	2.217607	-0.578553	1.058618
F101	F	1.593171	-0.936157	0.714370
F102	F	2.093171	-0.436157	1.214370
F103	F	1.333975	-0.936278	0.455893
F104	F	1.833975	-0.436278	0.955893
F105	F	0.962942	-0.567444	0.306826
F106	F	1.462942	-0.067444	0.806826
F107	F	1.347389	-0.569968	0.910608
F108	F	1.847389	-0.069968	1.410608
H109	H	1.105031	-0.381348	0.380012
H110	H	1.605031	0.118652	0.880012
F111	F	1.404796	-0.363591	1.112556
F112	F	1.904796	0.136409	1.612556
H113	H	1.372463	-0.575601	1.101987
H114	H	1.872463	-0.075601	1.601987
H115	H	0.972320	-0.333642	0.558760
H116	H	1.472320	0.166358	1.058760
H117	H	1.105350	-0.464985	0.689210
H118	H	1.605350	0.035015	1.189210
H119	H	1.474980	-0.678355	0.920626
H120	H	1.974980	-0.178355	1.420626
H121	H	1.713724	-0.485220	0.920315
H122	H	2.213724	0.014780	1.420315
H123	H	1.669684	-0.945764	0.380100
H124	H	2.169684	-0.445764	0.880100
F125	F	1.681796	-0.651165	1.109449
F126	F	2.181796	-0.151165	1.609449
H127	H	1.105319	-0.691921	0.462527
H128	H	1.605319	-0.191921	0.962527
F129	F	1.480273	-0.702892	1.112842
F130	F	1.980273	-0.202892	1.612842
F131	F	1.388622	-1.087873	0.659804
F132	F	1.888622	-0.587873	1.159804
F133	F	1.733195	-0.468847	1.110841
F134	F	2.233195	0.031153	1.610841
F135	F	1.682797	-0.649524	0.909341
F136	F	2.182797	-0.149524	1.409341
F137	F	1.399445	-0.370531	0.911538
F138	F	1.899445	0.129469	1.411538
F139	F	1.580201	-0.316460	0.909528
F140	F	2.080201	0.183540	1.409528
H141	H	1.569972	-0.338769	1.101161
H142	H	2.069972	0.161231	1.601161
