data_functionalizedCrystal
_audit_creation_method	'MofGen! by Chris Wilmer'
_symmetry_space_group_name_H-M	'P1'
_symmetry_Int_Tables_number	1
_symmetry_cell_setting	triclinic
loop_
_symmetry_equiv_pos_as_xyz
  x,y,z
_cell_length_a	21.395364
_cell_length_b	21.395363
_cell_length_c	21.395355
_cell_angle_alpha	90.004913
_cell_angle_beta	89.974702
_cell_angle_gamma	89.981608
loop_
_atom_site_label
_atom_site_type_symbol
_atom_site_fract_x
_atom_site_fract_y
_atom_site_fract_z
Zn1	Zn	-0.957985	-0.249232	0.354333
Zn2	Zn	-0.457985	0.250768	0.854333
Zn3	Zn	-0.957941	-0.353992	0.249581
Zn4	Zn	-0.457941	0.146008	0.749581
Zn5	Zn	-0.853200	-0.249262	0.249569
Zn6	Zn	-0.353200	0.250738	0.749569
Zn7	Zn	-0.853223	-0.354006	0.354319
Zn8	Zn	-0.353223	0.145994	0.854319
O9	O	-0.905587	-0.301623	0.301950
O10	O	-0.405587	0.198377	0.801950
O11	O	-1.045657	-0.263110	0.340448
O12	O	-0.545657	0.236890	0.840448
O13	O	-0.944019	-0.340106	0.161901
O14	O	-0.444019	0.159894	0.661901
O15	O	-0.867110	-0.161581	0.263467
O16	O	-0.367110	0.338419	0.763467
O17	O	-1.045625	-0.340076	0.263487
O18	O	-0.545625	0.159924	0.763487
O19	O	-0.944095	-0.161558	0.340437
O20	O	-0.444095	0.338442	0.840437
O21	O	-0.867067	-0.263162	0.161892
O22	O	-0.367067	0.236838	0.661892
O23	O	-0.765526	-0.263176	0.263453
O24	O	-0.265526	0.236824	0.763453
O25	O	-0.867148	-0.340101	0.441999
O26	O	-0.367148	0.159899	0.941999
O27	O	-0.765542	-0.340130	0.340413
O28	O	-0.265542	0.159870	0.840413
O29	O	-0.944116	-0.263123	0.442009
O30	O	-0.444116	0.236877	0.942009
O31	O	-0.944041	-0.441671	0.263474
O32	O	-0.444041	0.058329	0.763474
O33	O	-0.867105	-0.441682	0.340425
O34	O	-0.367105	0.058318	0.840425
C35	C	-0.742800	-0.301658	0.301931
C36	C	-0.242800	0.198342	0.801931
C37	C	-0.673159	-0.301689	0.301937
C38	C	-0.173159	0.198311	0.801937
C39	C	-0.640485	-0.261679	0.342072
C40	C	-0.140485	0.238321	0.842072
C41	C	-0.575049	-0.261664	0.342074
C42	C	-0.075049	0.238336	0.842074
C43	C	-0.542290	-0.301671	0.301947
C44	C	-0.042290	0.198329	0.801947
C45	C	-0.574972	-0.341683	0.261804
C46	C	-0.074972	0.158317	0.761804
C47	C	-0.640406	-0.341692	0.261799
C48	C	-0.140406	0.158308	0.761799
C49	C	-0.438594	-0.358098	0.296921
C50	C	0.061406	0.141902	0.796921
C51	C	-0.373162	-0.358090	0.296931
C52	C	0.126838	0.141910	0.796931
C53	C	-0.340470	-0.301642	0.301958
C54	C	0.159530	0.198358	0.801958
C55	C	-0.373219	-0.245200	0.306990
C56	C	0.126781	0.254800	0.806990
C57	C	-0.438653	-0.245209	0.306985
C58	C	0.061347	0.254791	0.806985
C59	C	-0.471338	-0.301665	0.301947
C60	C	0.028662	0.198335	0.801947
C61	C	-0.236843	-0.261613	0.342097
C62	C	0.263157	0.238387	0.842097
C63	C	-0.171407	-0.261597	0.342094
C64	C	0.328593	0.238403	0.842094
C65	C	-0.171330	-0.341622	0.261828
C66	C	0.328670	0.158378	0.761828
C67	C	-0.236766	-0.341632	0.261827
C68	C	0.263234	0.158368	0.761827
C69	C	-0.269518	-0.301629	0.301965
C70	C	0.230482	0.198371	0.801965
C71	C	-0.905587	-0.464411	0.301963
C72	C	-0.405587	0.035589	0.801963
C73	C	-0.905644	-0.534052	0.301989
C74	C	-0.405644	-0.034052	0.801989
C75	C	-0.905639	-0.301610	0.465374
C76	C	-0.405639	0.198390	0.965374
C77	C	-0.905662	-0.301605	0.535015
C78	C	-0.405662	0.198395	1.035015
C79	C	-0.069011	-0.301595	0.301967
C80	C	0.430989	0.198405	0.801967
C81	C	-0.138652	-0.301603	0.301966
C82	C	0.361348	0.198397	0.801966
C83	C	-0.905605	-0.138200	0.301952
C84	C	-0.405605	0.361800	0.801952
C85	C	-0.905612	-0.068558	0.301952
C86	C	-0.405612	0.431442	0.801952
C87	C	-0.865556	-0.035855	0.342013
C88	C	-0.365556	0.464145	0.842013
C89	C	-0.865562	0.029580	0.342022
C90	C	-0.365562	0.529580	0.842022
C91	C	-0.905617	0.062310	0.301959
C92	C	-0.405617	0.562310	0.801959
C93	C	-0.945682	0.029599	0.261895
C94	C	-0.445682	0.529599	0.761895
C95	C	-0.945679	-0.035835	0.261892
C96	C	-0.445679	0.464165	0.761892
C97	C	-0.910549	0.165976	0.245515
C98	C	-0.410549	0.665976	0.745515
C99	C	-0.910547	0.231409	0.245517
C100	C	-0.410547	0.731409	0.745517
C101	C	-0.905629	0.264131	0.301969
C102	C	-0.405629	0.764131	0.801969
C103	C	-0.900700	0.231411	0.358420
C104	C	-0.400700	0.731411	0.858420
C105	C	-0.900697	0.165977	0.358417
C106	C	-0.400697	0.665977	0.858417
C107	C	-0.905625	0.133262	0.301958
C108	C	-0.405625	0.633262	0.801958
C109	C	-0.865577	0.367786	0.342042
C110	C	-0.365577	0.867786	0.842042
C111	C	-0.865588	0.433223	0.342052
C112	C	-0.365588	0.933223	0.842052
C113	C	-0.945704	0.433241	0.261919
C114	C	-0.445704	0.933241	0.761919
C115	C	-0.945697	0.367805	0.261915
C116	C	-0.445697	0.867805	0.761915
C117	C	-0.905630	0.335082	0.301976
C118	C	-0.405630	0.835082	0.801976
C119	C	-0.905572	-0.301590	0.139163
C120	C	-0.405572	0.198410	0.639163
C121	C	-0.905671	-0.301419	0.069522
C122	C	-0.405671	0.198581	0.569522
C123	C	-0.945738	-0.261521	0.567734
C124	C	-0.445738	0.238479	1.067734
C125	C	-0.945737	-0.261494	0.633170
C126	C	-0.445737	0.238506	1.133170
C127	C	-0.905666	-0.301562	0.665883
C128	C	-0.405666	0.198438	1.165883
C129	C	-0.865583	-0.341649	0.633156
C130	C	-0.365583	0.158351	1.133156
C131	C	-0.865580	-0.341670	0.567722
C132	C	-0.365580	0.158330	1.067722
C133	C	-0.900719	-0.357979	0.769562
C134	C	-0.400719	0.142021	1.269562
C135	C	-0.900726	-0.357959	0.834995
C136	C	-0.400726	0.142041	1.334995
C137	C	-0.905670	-0.301496	0.867704
C138	C	-0.405670	0.198504	1.367704
C139	C	-0.910621	-0.245052	0.834972
C140	C	-0.410621	0.254948	1.334972
C141	C	-0.910619	-0.245073	0.769538
C142	C	-0.410619	0.254927	1.269538
C143	C	-0.905664	-0.301543	0.736836
C144	C	-0.405664	0.198457	1.236836
C145	C	-0.945747	-0.261380	0.971376
C146	C	-0.445747	0.238620	1.471376
C147	C	-0.945742	-0.261352	1.036813
C148	C	-0.445742	0.238648	1.536813
C149	C	-0.865592	-0.341512	1.036798
C150	C	-0.365592	0.158488	1.536798
C151	C	-0.865594	-0.341534	0.971362
C152	C	-0.365594	0.158466	1.471362
C153	C	-0.905675	-0.301469	0.938656
C154	C	-0.405675	0.198531	1.438656
H155	H	-0.465314	-0.199253	0.311080
H156	H	0.034686	0.300747	0.811080
Br157	Br	-1.000061	0.323419	0.207542
Br158	Br	-0.500061	0.823419	0.707542
Br159	Br	-1.000145	-0.206957	1.081219
Br160	Br	-0.500145	0.293043	1.581219
Br161	Br	-0.126879	-0.395911	0.207361
Br162	Br	0.373121	0.104089	0.707361
H163	H	-0.548441	-0.229080	0.374756
H164	H	-0.048441	0.270920	0.874756
H165	H	-0.832961	0.341142	0.374671
H166	H	-0.332961	0.841142	0.874671
H167	H	-0.832959	-0.374129	1.063433
H168	H	-0.332959	0.125871	1.563433
Br169	Br	-0.811196	0.073973	0.396395
Br170	Br	-0.311196	0.573973	0.896395
H171	H	-0.914557	0.258047	0.199552
H172	H	-0.414557	0.758047	0.699552
H173	H	-0.978321	0.459889	0.229301
H174	H	-0.478321	0.959889	0.729301
Br175	Br	-0.894040	0.121573	0.435028
Br176	Br	-0.394040	0.621573	0.935028
Br177	Br	-0.917337	-0.168419	0.879354
Br178	Br	-0.417337	0.331581	1.379354
Br179	Br	-0.328860	-0.168586	0.313815
Br180	Br	0.171140	0.331414	0.813815
Br181	Br	-0.917230	0.121576	0.168895
Br182	Br	-0.417230	0.621576	0.668895
Br183	Br	-0.893930	0.275810	0.435031
Br184	Br	-0.393930	0.775810	0.935031
Br185	Br	-0.684932	-0.207388	0.396545
Br186	Br	-0.184932	0.292612	0.896545
H187	H	-0.465207	-0.404068	0.292827
H188	H	0.034793	0.095932	0.792827
Br189	Br	-0.684752	-0.395993	0.207322
Br190	Br	-0.184752	0.104007	0.707322
Br191	Br	-1.000131	-0.207145	0.523349
Br192	Br	-0.500131	0.292855	1.023349
Br193	Br	-0.917334	-0.168475	0.725117
Br194	Br	-0.417334	0.331525	1.225117
Br195	Br	-1.000048	0.074016	0.207527
Br196	Br	-0.500048	0.574016	0.707527
H197	H	-0.548295	-0.374256	0.229132
H198	H	-0.048295	0.125744	0.729132
H199	H	-0.978380	-0.228753	0.944745
H200	H	-0.478380	0.271247	1.444745
Br201	Br	-1.000046	-0.080221	0.207520
Br202	Br	-0.500046	0.419779	0.707520
Br203	Br	-0.811227	0.477607	0.396432
Br204	Br	-0.311227	0.977607	0.896432
Br205	Br	-0.811188	-0.080263	0.396390
Br206	Br	-0.311188	0.419737	0.896390
Br207	Br	-0.328723	-0.434690	0.290116
Br208	Br	0.171277	0.065310	0.790116
Br209	Br	-0.281112	-0.395930	0.207350
Br210	Br	0.218888	0.104070	0.707350
H211	H	-0.832955	-0.374270	0.659796
H212	H	-0.332955	0.125730	1.159796
Br213	Br	-1.000114	-0.207076	0.677585
Br214	Br	-0.500114	0.292924	1.177585
H215	H	-0.832963	-0.374178	0.944722
H216	H	-0.332963	0.125822	1.444722
Br217	Br	-0.894016	-0.434560	0.879411
Br218	Br	-0.394016	0.065440	1.379411
H219	H	-0.896525	-0.403946	0.742936
H220	H	-0.396525	0.096054	1.242936
H221	H	-0.832943	-0.374310	0.541082
H222	H	-0.332943	0.125690	1.041082
H223	H	-0.144805	-0.229013	0.374776
H224	H	0.355195	0.270987	0.874776
Br225	Br	-0.281297	-0.207320	0.396565
Br226	Br	0.218703	0.292680	0.896565
