data_functionalizedCrystal
_audit_creation_method	'MofGen! by Chris Wilmer'
_symmetry_space_group_name_H-M	'P1'
_symmetry_Int_Tables_number	1
_symmetry_cell_setting	triclinic
loop_
_symmetry_equiv_pos_as_xyz
  x,y,z
_cell_length_a	10.654549
_cell_length_b	9.130313
_cell_length_c	10.654550
_cell_angle_alpha	90.002847
_cell_angle_beta	84.484854
_cell_angle_gamma	90.002713
loop_
_atom_site_label
_atom_site_type_symbol
_atom_site_fract_x
_atom_site_fract_y
_atom_site_fract_z
O1	O	1.667840	0.121765	0.176394
O2	O	1.302362	0.121775	0.193200
O3	O	1.493504	0.121761	0.002058
O4	O	1.476698	0.121780	0.367536
O5	O	1.493490	-0.121838	0.002058
O6	O	1.302347	-0.121823	0.193200
O7	O	1.667826	-0.121834	0.176394
Cu8	Cu	1.485085	-0.144071	0.184797
Cu9	Cu	1.485102	0.144013	0.184797
O10	O	1.476684	-0.121819	0.367536
C11	C	1.255557	-0.000023	0.191966
C12	C	1.116113	-0.000019	0.188275
N13	N	1.485082	-0.346694	0.184796
C14	C	0.905599	-0.000019	0.297338
C15	C	1.036619	-0.000010	0.300816
C16	C	1.064581	-0.000022	0.072247
C17	C	0.933563	-0.000020	0.068770
C18	C	1.561914	-0.423338	0.261678
C19	C	1.561934	-0.576675	0.261671
C20	C	1.408281	-0.576709	0.107897
C21	C	1.408268	-0.423375	0.107898
C22	C	1.714631	-0.000032	0.177628
C23	C	1.854074	-0.000026	0.181319
C24	C	1.492263	-0.000038	-0.044740
C25	C	1.488571	-0.000035	-0.184183
N26	N	1.485115	0.346636	0.184788
C27	C	1.601113	-0.000038	-0.263669
C28	C	1.597636	-0.000020	-0.394690
C29	C	1.369067	-0.000003	-0.366727
C30	C	1.372544	-0.000010	-0.235708
C31	C	1.477925	-0.000017	0.414334
C32	C	1.481617	-0.000010	0.553777
H33	H	0.840882	-0.000023	0.388983
H34	H	1.345740	-0.639162	0.045291
C35	C	1.092317	-0.000082	0.426907
C36	C	0.994658	-0.000123	0.524721
C37	C	1.045917	-0.000207	0.640898
H38	H	1.142830	0.084845	0.433198
H39	H	1.142810	-0.085063	0.433081
H40	H	0.944187	0.084849	0.518551
H41	H	0.944137	-0.085044	0.518472
H42	H	1.096409	-0.085188	0.647071
H43	H	1.096429	0.084721	0.647175
H44	H	0.979664	-0.000248	0.707278
C45	C	1.150826	0.000276	-0.049983
C46	C	1.127424	0.125619	-0.119761
C47	C	1.206858	0.125950	-0.232360
H48	H	1.135168	-0.084574	-0.097660
H49	H	1.236254	0.000352	-0.031348
H50	H	1.042016	0.125529	-0.138400
H51	H	1.143090	0.210489	-0.072122
H52	H	1.292286	0.126026	-0.213725
H53	H	1.191193	0.041094	-0.280026
H54	H	1.190999	0.210999	-0.279713
H55	H	0.891613	-0.000021	-0.025712
C56	C	1.645454	-0.340347	0.345197
C57	C	1.712769	-0.440297	0.412499
C58	C	1.789755	-0.363904	0.489435
H59	H	1.594622	-0.280532	0.402627
H60	H	1.702868	-0.280556	0.294292
H61	H	1.655361	-0.500063	0.463399
H62	H	1.763625	-0.500116	0.355100
H63	H	1.847170	-0.304113	0.438530
H64	H	1.738914	-0.304092	0.546857
H65	H	1.835446	-0.431708	0.535099
H66	H	1.624499	-0.639072	0.324275
H67	H	1.345702	-0.360969	0.045285
H68	H	1.695589	-0.000055	-0.221722
H69	H	1.689279	-0.000019	-0.459403
H70	H	1.274601	0.000014	-0.408694
H71	H	1.280894	-0.000004	-0.170987
