data_functionalizedCrystal
_audit_creation_method	'MofGen! by Chris Wilmer'
_symmetry_space_group_name_H-M	'P1'
_symmetry_Int_Tables_number	1
_symmetry_cell_setting	triclinic
loop_
_symmetry_equiv_pos_as_xyz
  x,y,z
_cell_length_a	27.732048
_cell_length_b	27.731994
_cell_length_c	15.021413
_cell_angle_alpha	90.011445
_cell_angle_beta	89.997610
_cell_angle_gamma	82.631734
loop_
_atom_site_label
_atom_site_type_symbol
_atom_site_fract_x
_atom_site_fract_y
_atom_site_fract_z
O1	O	0.640919	0.057513	-0.073902
O2	O	1.140919	0.557513	0.426098
O3	O	0.500124	0.066258	-0.073926
O4	O	1.000124	0.566258	0.426074
O5	O	0.574908	-0.008513	-0.073927
O6	O	1.074908	0.491487	0.426073
O7	O	0.566135	0.132284	-0.073901
O8	O	1.066135	0.632284	0.426099
O9	O	0.574895	-0.008504	0.074137
O10	O	1.074895	0.491496	0.574137
O11	O	0.500111	0.066268	0.074138
O12	O	1.000111	0.566268	0.574138
O13	O	0.640907	0.057522	0.074162
O14	O	1.140907	0.557522	0.574162
Zn15	Zn	0.570507	0.061896	0.097658
Zn16	Zn	1.070507	0.561896	0.597658
Zn17	Zn	0.570524	0.061884	-0.097423
Zn18	Zn	1.070524	0.561884	0.402577
O19	O	0.566123	0.132294	0.074163
O20	O	1.066123	0.632294	0.574163
C21	C	0.482111	0.066080	0.000102
C22	C	0.982111	0.566080	0.500102
C23	C	0.428456	0.065527	0.000092
C24	C	0.928456	0.565527	0.500092
C25	C	0.089633	0.106232	0.000138
C26	C	0.589633	0.606232	0.500138
C27	C	-0.112026	0.104181	0.000145
C28	C	0.387974	0.604181	0.500145
O29	O	-0.143289	0.141402	0.000191
O30	O	0.356711	0.641402	0.500191
N31	N	-0.131141	0.059844	0.000136
N32	N	0.368859	0.559844	0.500136
C33	C	-0.099838	0.016017	0.000130
C34	C	0.400162	0.516017	0.500130
O35	O	-0.120724	-0.021740	0.000131
O36	O	0.379276	0.478260	0.500131
C37	C	0.101820	0.018069	0.000129
C38	C	0.601820	0.518069	0.500129
C39	C	0.120932	0.062408	0.000130
C40	C	0.620932	0.562408	0.500130
C41	C	0.108746	0.150567	0.000139
C42	C	0.608746	0.650567	0.500139
C43	C	0.159158	0.151080	0.000133
C44	C	0.659158	0.651080	0.500133
C45	C	0.190457	0.107256	0.000124
C46	C	0.690457	0.607256	0.500124
C47	C	0.171344	0.062920	0.000123
C48	C	0.671344	0.562920	0.500123
C49	C	0.133122	-0.025757	0.000130
C50	C	0.633122	0.474243	0.500130
C51	C	0.183539	-0.025240	0.000132
C52	C	0.683539	0.474760	0.500132
C53	C	0.202652	0.019099	0.000132
C54	C	0.702652	0.519099	0.500132
C55	C	0.253055	0.019609	0.000108
C56	C	0.753055	0.519609	0.500108
N57	N	0.272170	0.063946	0.000117
N58	N	0.772170	0.563946	0.500117
C59	C	0.240871	0.107769	0.000126
C60	C	0.740871	0.607769	0.500126
C61	C	-0.205712	0.014943	0.000129
C62	C	0.294288	0.514943	0.500129
C63	C	-0.256126	0.014430	0.000128
C64	C	0.243874	0.514430	0.500128
C65	C	-0.268311	0.102594	0.000145
C66	C	0.231689	0.602594	0.500145
C67	C	-0.217896	0.103106	0.000140
C68	C	0.282104	0.603106	0.500140
C69	C	-0.186597	0.059280	0.000139
C70	C	0.313403	0.559280	0.500139
C71	C	0.346740	0.108842	0.000111
C72	C	0.846740	0.608842	0.500111
C73	C	0.397157	0.109350	0.000100
C74	C	0.897157	0.609350	0.500100
C75	C	0.409337	0.021187	0.000088
C76	C	0.909337	0.521187	0.500088
C77	C	0.358925	0.020678	0.000094
C78	C	0.858925	0.520678	0.500094
C79	C	0.327627	0.064510	0.000108
C80	C	0.827627	0.564510	0.500108
O81	O	0.284346	-0.017592	0.000073
O82	O	0.784346	0.482408	0.500073
O83	O	0.261766	0.145522	0.000144
O84	O	0.761766	0.645522	0.500144
C85	C	0.039221	0.105719	0.000145
C86	C	0.539221	0.605719	0.500145
C87	C	0.020109	0.061384	0.000143
C88	C	0.520109	0.561384	0.500143
C89	C	0.051408	0.017560	0.000135
C90	C	0.551408	0.517560	0.500135
C91	C	-0.030306	0.060871	0.000142
C92	C	0.469694	0.560871	0.500142
C93	C	-0.061605	0.104694	0.000150
C94	C	0.438395	0.604694	0.500150
C95	C	-0.042490	0.149030	0.000160
C96	C	0.457510	0.649030	0.500160
C97	C	0.007922	0.149543	0.000153
C98	C	0.507922	0.649543	0.500153
C99	C	0.032292	-0.026776	0.000125
C100	C	0.532292	0.473224	0.500125
C101	C	-0.018120	-0.027285	0.000131
C102	C	0.481880	0.472715	0.500131
C103	C	-0.049419	0.016539	0.000139
C104	C	0.450581	0.516539	0.500139
C105	C	0.574721	-0.026516	0.000100
C106	C	1.074721	0.473484	0.500100
C107	C	0.574179	-0.080172	0.000084
C108	C	1.074179	0.419828	0.500084
C109	C	0.658920	0.057701	0.000132
C110	C	1.158920	0.557701	0.500132
C111	C	0.712575	0.058254	0.000136
C112	C	1.212575	0.558254	0.500136
C113	C	0.566309	0.150296	0.000134
C114	C	1.066309	0.650296	0.500134
C115	C	0.566852	0.203953	0.000144
C116	C	1.066852	0.703953	0.500144
C117	C	0.570274	0.536666	-0.080604
C118	C	1.070274	1.036666	0.419396
C119	C	0.572335	0.738324	-0.080617
C120	C	1.072335	1.238324	0.419383
O121	O	0.572629	0.764392	-0.149258
O122	O	1.072629	1.264392	0.350742
N123	N	0.572584	0.763544	0.000092
N124	N	1.072584	1.263544	0.500092
C125	C	0.572321	0.738346	0.080811
C126	C	1.072321	1.238346	0.580811
O127	O	0.572586	0.764423	0.149459
O128	O	1.072586	1.264423	0.649459
C129	C	0.570263	0.536688	0.080822
C130	C	1.070263	1.036688	0.580822
C131	C	0.570009	0.511472	0.000108
C132	C	1.070009	1.011472	0.500108
C133	C	0.570020	0.511449	-0.161312
C134	C	1.070020	1.011449	0.338688
C135	C	0.569502	0.461038	-0.161308
C136	C	1.069502	0.961038	0.338692
C137	C	0.569238	0.435844	-0.080596
C138	C	1.069238	0.935844	0.419404
C139	C	0.569491	0.461060	0.000112
C140	C	1.069491	0.961060	0.500112
C141	C	0.570004	0.511491	0.161540
C142	C	1.070004	1.011491	0.661540
C143	C	0.569491	0.461073	0.161536
C144	C	1.069491	0.961073	0.661536
C145	C	0.569237	0.435856	0.080821
C146	C	1.069237	0.935856	0.580821
C147	C	0.568709	0.385455	0.080828
C148	C	1.068709	0.885455	0.580828
N149	N	0.568460	0.360235	0.000119
N150	N	1.068460	0.860235	0.500119
C151	C	0.568724	0.385429	-0.080594
C152	C	1.068724	0.885429	0.419406
C153	C	0.573401	0.844219	0.080799
C154	C	1.073401	1.344219	0.580799
C155	C	0.573915	0.894634	0.080796
C156	C	1.073915	1.394634	0.580796
C157	C	0.573929	0.894608	-0.080632
C158	C	1.073929	1.394608	0.419368
C159	C	0.573412	0.844193	-0.080628
C160	C	1.073412	1.344193	0.419372
C161	C	0.573152	0.818999	0.000089
C162	C	1.073152	1.318999	0.500089
C163	C	0.567636	0.279562	-0.080579
C164	C	1.067636	0.779562	0.419421
C165	C	0.567116	0.229147	-0.080568
C166	C	1.067116	0.729147	0.419432
C167	C	0.567104	0.229176	0.080860
C168	C	1.067104	0.729176	0.580860
C169	C	0.567621	0.279588	0.080849
C170	C	1.067621	0.779588	0.580849
C171	C	0.567889	0.304779	0.000122
C172	C	1.067889	0.804779	0.500122
O173	O	0.568421	0.359355	0.149433
O174	O	1.068421	0.859355	0.649433
O175	O	0.568471	0.359341	-0.149231
O176	O	1.068471	0.859341	0.350769
C177	C	0.570792	0.587077	-0.080608
C178	C	1.070792	1.087077	0.419392
C179	C	0.571045	0.612294	0.000100
C180	C	1.071045	1.112294	0.500100
C181	C	0.570781	0.587099	0.080812
C182	C	1.070781	1.087099	0.580812
C183	C	0.571559	0.662708	0.000097
C184	C	1.071559	1.162708	0.500097
C185	C	0.571823	0.687903	-0.080615
C186	C	1.071823	1.187903	0.419385
C187	C	0.571574	0.662683	-0.161324
C188	C	1.071574	1.162683	0.338676
C189	C	0.571056	0.612271	-0.161320
C190	C	1.071056	1.112271	0.338680
C191	C	0.571030	0.612319	0.161521
C192	C	1.071030	1.112319	0.661521
C193	C	0.571547	0.662731	0.161511
C194	C	1.071547	1.162731	0.661511
C195	C	0.571812	0.687925	0.080799
C196	C	1.071812	1.187925	0.580799
N197	N	0.570499	0.061904	0.230796
N198	N	1.070499	0.561904	0.730796
C199	C	0.536199	0.096747	0.529811
C200	C	1.036199	0.596747	1.029811
C201	C	0.526754	0.053272	0.470442
C202	C	1.026754	0.553272	0.970442
C203	C	0.570518	0.061887	0.587833
C204	C	1.070518	0.561887	1.087833
C205	C	0.579930	0.105369	0.470460
C206	C	1.079930	0.605369	0.970460
C207	C	0.570507	0.061898	0.412409
C208	C	1.070507	0.561898	0.912409
C209	C	0.561051	0.018391	0.529770
C210	C	1.061051	0.518391	1.029770
C211	C	0.614246	0.070516	0.529794
C212	C	1.114246	0.570516	1.029794
C213	C	0.604820	0.027010	0.470451
C214	C	1.104820	0.527010	0.970451
C215	C	0.570522	0.061881	0.688890
C216	C	1.070522	0.561881	1.188890
C217	C	0.570503	0.061899	0.311354
C218	C	1.070503	0.561899	0.811354
N219	N	0.570527	0.061880	0.769440
N220	N	1.070527	0.561880	1.269440
H221	H	-0.067982	0.184713	0.000163
H222	H	0.432018	0.684713	0.500163
H223	H	0.566907	0.208618	-0.146298
H224	H	1.066907	0.708618	0.353702
H225	H	0.633840	-0.002497	0.444553
H226	H	1.133840	0.497503	0.944553
C227	C	0.476790	0.043415	0.435217
C228	C	0.976790	0.543415	0.935217
N229	N	0.439156	0.035993	0.408688
N230	N	0.939156	0.535993	0.908688
H231	H	0.209021	-0.060930	0.000132
H232	H	0.709021	0.439070	0.500132
C233	C	0.028939	0.198320	0.000164
C234	C	0.528939	0.698320	0.500164
N235	N	0.044765	0.235061	0.000177
N236	N	0.544765	0.735061	0.500177
H237	H	0.651219	0.077828	0.555886
H238	H	1.151219	0.577828	1.055886
H239	H	0.057772	-0.062463	0.000121
H240	H	0.557772	0.437537	0.500121
C241	C	0.590694	0.155041	0.435267
C242	C	1.090694	0.655041	0.935267
N243	N	0.598798	0.192455	0.408764
N244	N	1.098798	0.692455	0.908764
H245	H	0.573189	0.823711	0.146533
H246	H	1.073189	1.323711	0.646533
H247	H	0.412715	0.145458	0.000100
H248	H	0.912715	0.645458	0.500100
H249	H	-0.033676	-0.063394	0.000123
H250	H	0.466324	0.436606	0.500123
H251	H	0.174714	0.187185	0.000133
H252	H	0.674714	0.687185	0.500133
H253	H	0.570216	0.532013	0.227267
H254	H	1.070216	1.032013	0.727267
C255	C	0.567927	0.307266	-0.169382
C256	C	1.067927	0.807266	0.330618
N257	N	0.568142	0.328133	-0.236269
N258	N	1.068142	0.828133	0.263731
H259	H	0.507162	0.126189	0.555875
H260	H	1.007162	0.626189	1.055875
H261	H	0.574112	0.915162	0.146522
H262	H	1.074112	1.415162	0.646522
H263	H	-0.202338	0.139211	0.000145
H264	H	0.297662	0.639211	0.500145
H265	H	0.574141	0.915130	-0.146351
H266	H	1.074141	1.415130	0.353649
C267	C	0.569262	0.433301	-0.250102
C268	C	1.069262	0.933301	0.249898
N269	N	0.569095	0.412410	-0.316986
N270	N	1.069095	0.912410	0.183014
C271	C	0.550228	-0.031290	0.564816
C272	C	1.050228	0.468710	1.064816
N273	N	0.542073	-0.068708	0.591215
N274	N	1.042073	0.431292	1.091215
H275	H	0.321263	0.144533	0.000125
H276	H	0.821263	0.644533	0.500125
C277	C	0.571868	0.690406	-0.250108
C278	C	1.071868	1.190406	0.249892
N279	N	0.572093	0.711289	-0.316976
N280	N	1.072093	1.211289	0.183024
C281	C	-0.302749	0.150800	0.000161
C282	C	0.197251	0.650800	0.500161
N283	N	-0.328690	0.187106	0.000181
N284	N	0.171310	0.687106	0.500181
C285	C	-0.277144	-0.034346	0.000121
C286	C	0.222856	0.465654	0.500121
N287	N	-0.292972	-0.071086	0.000124
N288	N	0.207028	0.428914	0.500124
C289	C	0.570309	0.539155	-0.250110
C290	C	1.070309	1.039155	0.249890
N291	N	0.570523	0.560021	-0.316999
N292	N	1.070523	1.060021	0.183001
C293	C	0.112111	-0.074535	0.000147
C294	C	0.612111	0.425465	0.500147
N295	N	0.096286	-0.111277	0.000167
N296	N	0.596286	0.388723	0.500167
C297	C	-0.171289	-0.033272	0.000121
C298	C	0.328711	0.466728	0.500121
N299	N	-0.145364	-0.069589	0.000111
N300	N	0.354636	0.430411	0.500111
C301	C	0.569202	0.433363	0.250334
C302	C	1.069202	0.933363	0.750334
N303	N	0.568982	0.412493	0.317217
N304	N	1.068982	0.912493	0.817217
C305	C	0.566811	0.201453	0.169639
C306	C	1.066811	0.701453	0.669639
N307	N	0.566593	0.180570	0.236508
N308	N	1.066593	0.680570	0.736508
H309	H	0.573204	0.823665	-0.146354
H310	H	1.073204	1.323665	0.353646
H311	H	0.083267	0.186256	0.000149
H312	H	0.583267	0.686256	0.500149
H313	H	0.343363	-0.015426	0.000080
H314	H	0.843363	0.484574	0.500080
C315	C	0.443775	-0.027016	0.000089
C316	C	0.943775	0.472984	0.500089
N317	N	0.469716	-0.063323	0.000100
N318	N	0.969716	0.436677	0.500100
H319	H	0.567809	0.300123	0.146573
H320	H	1.067809	0.800123	0.646573
C321	C	0.571826	0.690463	0.250310
C322	C	1.071826	1.190463	0.750310
N323	N	0.572040	0.711349	0.317191
N324	N	1.072040	1.211349	0.817191
H325	H	0.570849	0.591745	-0.227047
H326	H	1.070849	1.091745	0.272953
H327	H	0.570816	0.591811	0.227248
H328	H	1.070816	1.091811	0.727248
