data_functionalizedCrystal
_audit_creation_method	'MofGen! by Chris Wilmer'
_symmetry_space_group_name_H-M	'P1'
_symmetry_Int_Tables_number	1
_symmetry_cell_setting	triclinic
loop_
_symmetry_equiv_pos_as_xyz
  x,y,z
_cell_length_a	14.560432
_cell_length_b	14.560432
_cell_length_c	14.560438
_cell_angle_alpha	119.999195
_cell_angle_beta	89.997725
_cell_angle_gamma	60.000130
loop_
_atom_site_label
_atom_site_type_symbol
_atom_site_fract_x
_atom_site_fract_y
_atom_site_fract_z
Zr1	Zr	0.884748	1.005288	0.120499
O2	O	0.738093	1.196893	0.267146
O3	O	0.929706	0.813686	0.075547
O4	O	0.929696	1.005295	0.267149
O5	O	0.738111	1.005278	-0.075599
O6	O	1.080835	1.005296	0.267148
O7	O	0.738104	1.005285	0.075543
O8	O	1.080853	0.662543	-0.075593
O9	O	0.738093	1.348031	0.267142
O10	O	1.061673	0.892494	0.056371
O11	O	0.948885	0.892489	-0.056424
O12	O	0.948873	1.118083	0.169162
O13	O	0.836086	1.118077	0.056367
Zr14	Zr	1.125809	1.005280	-0.120558
Zr15	Zr	1.125797	1.005290	0.120498
Zr16	Zr	0.884760	1.005278	-0.120556
Zr17	Zr	0.884748	1.246336	0.120493
Zr18	Zr	1.125810	0.764232	-0.120552
O19	O	1.080852	1.196882	-0.075606
O20	O	1.080834	1.196897	0.267144
O21	O	0.738111	1.196879	-0.075604
O22	O	1.272464	0.813675	-0.267204
O23	O	1.272447	0.813689	0.075545
O24	O	0.929723	0.813671	-0.267202
O25	O	1.272446	1.005290	0.075540
O26	O	1.080862	1.005274	-0.267208
O27	O	0.929723	1.005272	-0.267207
O28	O	1.272454	1.005283	-0.075602
O29	O	0.929695	1.348033	0.267141
O30	O	1.080862	0.662535	-0.267200
O31	O	1.272464	0.662537	-0.267201
O32	O	1.272455	0.662545	-0.075594
O33	O	0.738103	1.348023	0.075535
O34	O	0.929705	1.348025	0.075534
O35	O	1.061684	0.892485	-0.169221
O36	O	1.174472	0.892491	-0.056426
O37	O	1.061672	1.118079	0.056366
O38	O	0.948885	1.118074	-0.056430
C39	C	1.005279	0.703770	-0.000022
C40	C	1.005280	0.601439	-0.000020
C41	C	1.123020	0.601439	0.117751
C42	C	1.181885	0.553367	0.176638
C43	C	1.181882	0.457218	0.176635
C44	C	1.123010	0.409135	0.117737
C45	C	1.064146	0.457207	0.058850
C46	C	1.064152	0.553361	0.058862
C47	C	0.946413	0.457200	-0.058926
C48	C	0.946408	0.553356	-0.058918
C49	C	0.887542	0.409118	-0.117824
C50	C	0.828669	0.457196	-0.176706
C51	C	0.828674	0.553352	-0.176700
C52	C	0.887544	0.601428	-0.117805
C53	C	0.703763	1.005281	-0.000028
C54	C	0.601431	1.005280	-0.000027
C55	C	0.409153	1.005265	-0.166578
C56	C	0.457238	1.005260	-0.249847
C57	C	0.553386	1.005262	-0.249845
C58	C	0.601453	1.005267	-0.166567
C59	C	0.553368	1.005272	-0.083298
C60	C	0.457216	1.005273	-0.083307
C61	C	0.553346	1.005286	0.083242
C62	C	0.457193	1.005292	0.083246
C63	C	0.601414	1.005290	0.166520
C64	C	0.553324	1.005305	0.249795
C65	C	0.457169	1.005303	0.249790
C66	C	0.409108	1.005297	0.166515
C67	C	1.306794	1.005287	-0.000031
C68	C	1.409126	1.005288	-0.000032
C69	C	1.005264	1.005297	0.301494
C70	C	1.005258	1.005301	0.403828
C71	C	1.005278	1.306798	-0.000036
C72	C	1.005278	1.409129	-0.000039
C73	C	0.946378	1.123055	0.510781
C74	C	0.946389	1.123051	0.606931
C75	C	1.064162	0.887529	0.489162
C76	C	1.064157	0.887534	0.393014
C77	C	1.005288	1.005278	0.698451
C78	C	1.005274	1.005292	0.596126
C79	C	1.306795	0.703773	-0.000024
C80	C	1.409127	0.601443	-0.000022
C81	C	1.005295	0.703758	-0.301545
C82	C	1.005300	0.601422	-0.403877
C83	C	1.306810	0.703760	-0.301547
C84	C	1.409147	0.601426	-0.403880
C85	C	0.703747	1.306808	0.301488
C86	C	0.601410	1.409142	0.403821
C87	C	0.703762	1.306795	-0.000035
C88	C	0.601430	1.409125	-0.000037
C89	C	1.005263	1.306810	0.301487
C90	C	1.005257	1.409146	0.403819
C91	C	1.398326	0.553367	0.058855
C92	C	1.494481	0.457225	0.058861
C93	C	1.612236	0.457239	-0.058897
C94	C	1.516082	0.553386	-0.058895
C95	C	1.064181	0.553341	-0.510832
C96	C	1.064174	0.457195	-0.606979
C97	C	0.946402	0.457216	-0.489205
C98	C	0.946404	0.553367	-0.393059
C99	C	1.516099	0.553350	-0.393080
C100	C	1.612252	0.457204	-0.489236
C101	C	1.494487	0.457216	-0.606987
C102	C	1.398337	0.553366	-0.510833
H103	H	1.229819	0.418073	0.224581
H104	H	1.112119	0.418053	-0.694063
H105	H	1.485677	0.418088	0.106806
H106	H	0.898420	1.218948	0.519592
F107	F	0.887545	0.306780	-0.117833
H108	H	1.123017	0.679741	0.117771
F109	F	1.482993	0.406057	-0.720819
H110	H	0.898450	0.592519	-0.305966
H111	H	0.330856	1.005278	-0.166580
H112	H	1.524907	0.592480	-0.305998
H113	H	0.898452	0.418076	-0.480410
F114	F	1.123024	0.306789	0.117721
F115	F	1.284500	0.604541	-0.522330
H116	H	0.418027	1.005300	0.317594
F117	F	1.726069	0.406080	-0.121555
F118	F	1.726078	0.406044	-0.477735
F119	F	0.883722	1.248382	0.720758
F120	F	0.766034	0.406005	-0.239395
H121	H	1.112110	0.791639	0.305922
F122	F	0.766027	0.604500	-0.239383
F123	F	1.244538	0.604546	0.239317
H124	H	0.887548	0.679724	-0.117789
F125	F	0.703748	1.005284	0.166517
F126	F	0.406080	1.005249	-0.338477
F127	F	1.527581	0.604559	-0.121559
H128	H	1.112113	0.791647	0.480371
F129	F	1.126862	0.604484	-0.522349
F130	F	0.604567	1.005248	-0.338473
F131	F	0.703794	1.005248	-0.166578
H132	H	0.330815	1.005303	0.166507
F133	F	0.604489	1.005299	0.338410
F134	F	1.284499	0.604515	0.121518
