data_functionalizedCrystal
_audit_creation_method	'MofGen! by Chris Wilmer'
_symmetry_space_group_name_H-M	'P1'
_symmetry_Int_Tables_number	1
_symmetry_cell_setting	triclinic
loop_
_symmetry_equiv_pos_as_xyz
  x,y,z
_cell_length_a	15.995350
_cell_length_b	17.038272
_cell_length_c	15.500258
_cell_angle_alpha	92.977751
_cell_angle_beta	93.182699
_cell_angle_gamma	87.301966
loop_
_atom_site_label
_atom_site_type_symbol
_atom_site_fract_x
_atom_site_fract_y
_atom_site_fract_z
O1	O	1.114459	0.097541	-0.071871
O2	O	1.614459	0.597541	0.428129
O3	O	0.871569	0.109985	-0.071889
O4	O	1.371569	0.609985	0.428111
O5	O	0.991571	-0.010053	-0.071873
O6	O	1.491571	0.489947	0.428127
O7	O	0.994457	0.217578	-0.071887
O8	O	1.494457	0.717578	0.428113
O9	O	0.998978	-0.003573	0.072015
O10	O	1.498978	0.496427	0.572015
O11	O	0.878976	0.116465	0.071999
O12	O	1.378976	0.616465	0.571999
O13	O	1.121866	0.104021	0.072017
O14	O	1.621866	0.604021	0.572017
Cu15	Cu	1.001097	0.110834	0.085146
Cu16	Cu	1.501097	0.610834	0.585146
Cu17	Cu	0.992338	0.103171	-0.085018
Cu18	Cu	1.492338	0.603171	0.414982
O19	O	1.001864	0.224058	0.072001
O20	O	1.501864	0.724058	0.572001
C21	C	0.844041	0.112710	0.000053
C22	C	1.344041	0.612710	0.500053
C23	C	0.750980	0.111167	0.000046
C24	C	1.250980	0.611167	0.500046
C25	C	0.412839	0.105629	0.000064
C26	C	0.912839	0.605629	0.500064
C27	C	0.454201	0.020155	0.000390
C28	C	0.954201	0.520155	0.500390
C29	C	0.550984	0.021683	0.000060
C30	C	1.050984	0.521683	0.500060
C31	C	0.580595	0.108376	0.000056
C32	C	1.080595	0.608376	0.500056
C33	C	0.538282	0.146842	-0.082110
C34	C	1.038282	0.646842	0.417890
C35	C	0.441490	0.144692	-0.082173
C36	C	0.941490	0.644692	0.417827
C37	C	0.449700	0.153827	0.081454
C38	C	0.949700	0.653827	0.581454
C39	C	0.546700	0.153855	0.082534
C40	C	1.046700	0.653855	0.582534
C41	C	0.675403	0.109933	0.000048
C42	C	1.175403	0.609933	0.500048
C43	C	0.318031	0.104074	0.000066
C44	C	0.818031	0.604074	0.500066
C45	C	0.992648	-0.035942	0.000070
C46	C	1.492648	0.464058	0.500070
C47	C	0.984814	-0.122736	0.000070
C48	C	1.484814	0.377264	0.500070
C49	C	1.056743	-0.172833	0.000076
C50	C	1.556743	0.327167	0.500076
C51	C	1.049376	-0.254385	0.000067
C52	C	1.549376	0.245615	0.500067
C53	C	0.970080	-0.285840	0.000058
C54	C	1.470080	0.214160	0.500058
C55	C	0.898146	-0.235738	0.000049
C56	C	1.398146	0.264262	0.500049
C57	C	0.905513	-0.154187	0.000052
C58	C	1.405513	0.345813	0.500052
C59	C	0.944053	-0.531605	0.000044
C60	C	1.444053	-0.031605	0.500044
C61	C	0.936692	-0.613162	0.000044
C62	C	1.436692	-0.113162	0.500044
C63	C	1.087923	-0.631805	0.000060
C64	C	1.587923	-0.131805	0.500060
C65	C	1.095283	-0.550251	0.000068
C66	C	1.595283	-0.050251	0.500068
C67	C	1.023349	-0.500156	0.000055
C68	C	1.523349	-0.000156	0.500055
C69	C	0.962549	-0.369200	0.000052
C70	C	1.462549	0.130800	0.500052
C71	C	1.030881	-0.416798	0.000055
C72	C	1.530881	0.083202	0.500055
C73	C	1.149394	0.101295	0.000073
C74	C	1.649394	0.601295	0.500073
C75	C	1.242454	0.102838	0.000074
C76	C	1.742454	0.602838	0.500074
C77	C	1.000786	0.249947	0.000056
C78	C	1.500786	0.749947	0.500056
C79	C	1.008621	0.336742	0.000051
C80	C	1.508621	0.836742	0.500051
N81	N	1.007264	0.116224	0.204830
N82	N	1.507264	0.616224	0.704830
N83	N	0.986177	0.097776	-0.204702
N84	N	1.486177	0.597776	0.295298
C85	C	1.038003	0.143183	0.750015
C86	C	1.538003	0.643183	1.250015
C87	C	1.033343	0.139102	0.659443
C88	C	1.533343	0.639102	1.159443
C89	C	0.976861	0.089608	0.614155
C90	C	1.476861	0.589608	1.114155
C91	C	0.925029	0.044199	0.659443
C92	C	1.425029	0.544199	1.159443
C93	C	0.929685	0.048285	0.750014
C94	C	1.429685	0.548285	1.250014
C95	C	0.960089	0.074901	0.340689
C96	C	1.460089	0.574901	0.840689
C97	C	0.955438	0.070816	0.250112
C98	C	1.455438	0.570816	0.750112
C99	C	1.063752	0.165720	0.250119
C100	C	1.563752	0.665720	0.750119
C101	C	1.068407	0.169799	0.340691
C102	C	1.568407	0.669799	0.840691
C103	C	1.016572	0.124393	0.385972
C104	C	1.516572	0.624393	0.885972
C105	C	0.972098	0.085433	0.521575
C106	C	1.472098	0.585433	1.021575
C107	C	1.021331	0.128572	0.478550
C108	C	1.521331	0.628572	0.978550
H109	H	0.574953	0.125811	0.143321
H110	H	1.074953	0.625811	0.643321
N111	N	0.894518	0.017425	0.201267
N112	N	1.394518	0.517425	0.701267
H113	H	0.926329	-0.022519	0.163710
H114	H	1.426329	0.477481	0.663710
H115	H	0.862407	-0.010664	0.243754
H116	H	1.362407	0.489336	0.743754
N117	N	1.089249	0.188069	0.610602
N118	N	1.589249	0.688069	1.110602
H119	H	1.077598	0.245658	0.626356
H120	H	1.577598	0.745658	1.126356
H121	H	1.149856	0.173318	0.626398
H122	H	1.649856	0.673318	1.126398
N123	N	0.421022	-0.028399	-0.077214
N124	N	0.921022	0.471601	0.422786
H125	H	0.434679	-0.003135	-0.131946
H126	H	0.934679	0.496865	0.368054
H127	H	0.447913	-0.083208	-0.076440
H128	H	0.947913	0.416792	0.423560
H129	H	1.084000	0.183483	0.786883
H130	H	1.584000	0.683483	1.286883
N131	N	0.589527	-0.018708	0.078081
N132	N	1.089527	0.481292	0.578081
H133	H	0.572143	-0.075029	0.075950
H134	H	1.072143	0.424971	0.575950
H135	H	0.652605	-0.017737	0.077976
H136	H	1.152605	0.482263	0.577976
H137	H	1.114402	0.210100	0.377559
H138	H	1.614402	0.710100	0.877559
H139	H	1.105952	0.202689	0.213242
H140	H	1.605952	0.702689	0.713242
N141	N	1.126959	-0.308415	0.000081
N142	N	1.626959	0.191585	0.500081
H143	H	1.130013	-0.340269	0.053418
H144	H	1.630013	0.159731	0.553418
H145	H	1.124487	-0.345014	-0.053296
H146	H	1.624487	0.154986	0.446704
N147	N	1.180810	-0.516326	0.000083
N148	N	1.680810	-0.016326	0.500083
H149	H	1.225260	-0.560438	0.000086
H150	H	1.725260	-0.060438	0.500086
H151	H	1.184417	-0.485293	-0.053255
H152	H	1.684417	0.014707	0.446745
H153	H	0.556786	0.210396	-0.085169
H154	H	1.056786	0.710396	0.414831
N155	N	0.904210	0.025903	0.389521
N156	N	1.404210	0.525903	0.889521
H157	H	0.867735	-0.006080	0.347085
H158	H	1.367735	0.493920	0.847085
H159	H	0.939954	-0.010595	0.427097
H160	H	1.439954	0.489405	0.927097
N161	N	0.573348	0.237895	0.089111
N162	N	1.073348	0.737895	0.589111
H163	H	0.607923	0.247724	0.038490
H164	H	1.107923	0.747724	0.538490
H165	H	0.522003	0.274745	0.088408
H166	H	1.022003	0.774745	0.588408
N167	N	0.410139	0.100288	-0.163517
N168	N	0.910139	0.600288	0.336483
H169	H	0.370606	0.135831	-0.198469
H170	H	0.870606	0.635831	0.301531
H171	H	0.459245	0.082297	-0.198932
H172	H	0.959245	0.582297	0.301068
H173	H	1.146488	-0.672601	0.000070
H174	H	1.646488	-0.172601	0.500070
H175	H	0.879036	0.003903	0.622562
H176	H	1.379036	0.503903	1.122562
H177	H	0.887481	0.011311	0.786881
H178	H	1.387481	0.511311	1.286881
N179	N	1.082254	0.181955	0.527382
N180	N	1.582254	0.681955	1.027382
H181	H	1.050457	0.221899	0.564950
H182	H	1.550457	0.721899	1.064950
H183	H	1.122730	0.149573	0.564920
H184	H	1.622730	0.649573	1.064920
N185	N	0.911191	0.032041	0.472724
N186	N	1.411191	0.532041	0.972724
H187	H	0.879065	0.003889	0.515150
H188	H	1.379065	0.503889	1.015150
H189	H	0.870750	0.064411	0.435135
H190	H	1.370750	0.564411	0.935135
N191	N	0.413620	0.237351	0.082192
N192	N	0.913620	0.737351	0.582192
H193	H	0.373594	0.243974	0.030091
H194	H	0.873594	0.743974	0.530091
H195	H	0.382656	0.249146	0.136739
H196	H	0.882656	0.749146	0.636739
N197	N	1.142270	-0.138909	0.000093
N198	N	1.642270	0.361091	0.500093
H199	H	1.186718	-0.183023	0.000095
H200	H	1.686718	0.316977	0.500095
H201	H	1.145877	-0.107877	-0.053245
H202	H	1.645877	0.392123	0.446755
H203	H	0.436278	-0.011364	0.059315
H204	H	0.936278	0.488636	0.559315
N205	N	0.851162	-0.647091	0.000034
N206	N	1.351162	-0.147091	0.500034
H207	H	0.806708	-0.602982	0.000023
H208	H	1.306708	-0.102982	0.500023
H209	H	0.842074	-0.682922	-0.053307
H210	H	1.342074	-0.182922	0.446693
N211	N	0.404435	0.227602	-0.087137
N212	N	0.904435	0.727602	0.412863
H213	H	0.341330	0.226852	-0.087219
H214	H	0.841330	0.726852	0.412781
H215	H	0.426152	0.260692	-0.035492
H216	H	0.926152	0.760692	0.464508
H217	H	0.573428	-0.014343	-0.058939
H218	H	1.073428	0.485657	0.441061
H219	H	0.561422	0.114802	-0.143257
H220	H	1.061422	0.614802	0.356743
H221	H	0.430380	0.128683	0.143734
H222	H	0.930380	0.628683	0.643734
H223	H	0.885479	-0.490827	0.000034
H224	H	1.385479	0.009173	0.500034
N225	N	0.812618	-0.269659	0.000034
N226	N	1.312618	0.230341	0.500034
H227	H	0.818864	-0.328923	0.000037
H228	H	1.318864	0.171077	0.500037
H229	H	0.783631	-0.248932	0.053372
H230	H	1.283631	0.251068	0.553372
N231	N	0.827933	-0.100150	0.000040
N232	N	1.327933	0.399850	0.500040
H233	H	0.776581	-0.132450	0.000035
H234	H	1.276581	0.367550	0.500035
H235	H	0.830439	-0.063507	0.053380
H236	H	1.330439	0.436493	0.553380
N237	N	1.116403	-0.382873	0.000071
N238	N	1.616403	0.117127	0.500071
H239	H	1.150918	-0.398741	0.053417
H240	H	1.650918	0.101259	0.553417
H241	H	1.145373	-0.403546	-0.053297
H242	H	1.645373	0.096454	0.446703
N243	N	0.877022	-0.403123	0.000050
N244	N	1.377022	0.096877	0.500050
H245	H	0.867850	-0.438941	-0.053290
H246	H	1.367850	0.061059	0.446710
H247	H	0.873403	-0.434105	0.053424
H248	H	1.373403	0.065895	0.553424
