data_functionalizedCrystal
_audit_creation_method	'MofGen! by Chris Wilmer'
_symmetry_space_group_name_H-M	'P1'
_symmetry_Int_Tables_number	1
_symmetry_cell_setting	triclinic
loop_
_symmetry_equiv_pos_as_xyz
  x,y,z
_cell_length_a	12.827893
_cell_length_b	12.759399
_cell_length_c	12.759393
_cell_angle_alpha	90.028437
_cell_angle_beta	89.980487
_cell_angle_gamma	89.984424
loop_
_atom_site_label
_atom_site_type_symbol
_atom_site_fract_x
_atom_site_fract_y
_atom_site_fract_z
Zn1	Zn	1.597673	0.418205	-0.594033
Zn2	Zn	1.597565	0.593924	-0.418362
Zn3	Zn	1.422913	0.418260	-0.418369
Zn4	Zn	1.422899	0.593843	-0.594001
O5	O	1.510262	0.506058	-0.506191
O6	O	1.743894	0.441526	-0.570740
O7	O	1.574357	0.570679	-0.271342
O8	O	1.446146	0.271231	-0.441687
O9	O	1.743815	0.570626	-0.441676
O10	O	1.574541	0.271191	-0.570747
O11	O	1.446041	0.441619	-0.271347
O12	O	1.276675	0.441540	-0.441656
O13	O	1.446122	0.570487	-0.741026
O14	O	1.276664	0.570540	-0.570692
O15	O	1.574528	0.441447	-0.741050
O16	O	1.574344	0.740934	-0.441645
O17	O	1.446017	0.740874	-0.570686
C18	C	1.238752	0.506038	-0.506172
C19	C	1.122599	0.506054	-0.506189
C20	C	1.510196	0.779025	-0.506184
C21	C	1.510263	0.895802	-0.506216
C22	C	1.070775	0.569839	-0.442239
C23	C	0.950725	0.569857	-0.442255
C24	C	1.577156	0.950660	-0.439102
C25	C	1.577218	1.060384	-0.439140
C26	C	1.443486	1.060382	-0.573410
C27	C	1.443430	0.950660	-0.573376
C28	C	1.654362	0.950662	-0.361579
C29	C	1.654424	1.060386	-0.361618
C30	C	1.782832	0.506079	-0.506211
C31	C	1.898985	0.506088	-0.506219
C32	C	1.510335	0.505952	-0.780225
C33	C	1.510366	0.505907	-0.897001
C34	C	1.510353	1.232025	-0.506235
C35	C	1.510382	1.115248	-0.506289
C36	C	1.577236	0.438709	-0.951877
C37	C	1.577261	0.438671	-1.061601
C38	C	1.443543	0.573037	-1.061564
C39	C	1.443514	0.573069	-0.951842
C40	C	1.654441	0.361137	-0.951900
C41	C	1.654466	0.361099	-1.061624
C42	C	1.510249	0.506088	-0.233224
C43	C	1.510421	0.505837	-0.116448
H44	H	1.115284	0.624436	-0.387481
O45	O	1.746048	0.396092	-0.911241
C46	C	1.831270	0.524951	-0.802972
C47	C	1.727459	0.485487	-0.848967
H48	H	1.816273	0.597218	-0.752596
H49	H	1.886802	0.546058	-0.869464
H50	H	1.867584	0.460732	-0.752743
H51	H	1.691054	0.549657	-0.899184
H52	H	1.671999	0.464348	-0.782426
H53	H	1.632803	1.090249	-0.280238
H54	H	1.632790	0.279773	-0.922139
O55	O	1.751062	0.387166	-1.096986
C56	C	1.927074	0.434562	-1.051178
C57	C	1.817728	0.405078	-1.010989
H58	H	1.981009	0.449030	-0.981671
H59	H	1.921839	0.508678	-1.100763
H60	H	1.959341	0.367724	-1.100865
H61	H	1.785397	0.471847	-0.961259
H62	H	1.823029	0.330929	-0.961461
H63	H	1.389112	0.627716	-1.106229
H64	H	1.078090	0.451463	-0.560954
H65	H	0.906158	0.624463	-0.387503
H66	H	1.625509	0.283790	-1.095667
H67	H	0.943546	0.451472	-0.560967
H68	H	1.388970	0.905995	-0.628035
O69	O	1.619789	0.909980	-0.269413
C70	C	1.582672	0.753683	-0.170272
C71	C	1.621826	0.799617	-0.274709
H72	H	1.584326	0.664450	-0.174510
H73	H	1.499476	0.781267	-0.155143
H74	H	1.635301	0.781340	-0.103811
H75	H	1.569273	0.771981	-0.341235
H76	H	1.705039	0.772039	-0.289747
H77	H	1.735271	0.920805	-0.383430
O78	O	1.378598	1.113836	-0.638544
C79	C	1.319467	1.282867	-0.698156
C80	C	1.392990	1.222465	-0.624322
H81	H	1.331093	1.370704	-0.686699
H82	H	1.235177	1.261458	-0.679626
H83	H	1.337753	1.261143	-0.782869
H84	H	1.374799	1.244156	-0.539584
H85	H	1.477258	1.243879	-0.642942
H86	H	1.389058	0.627784	-0.907166
O87	O	1.746232	1.100719	-0.396450
C88	C	1.918631	1.064111	-0.462011
C89	C	1.814727	1.018293	-0.422560
H90	H	1.974030	0.997492	-0.483153
H91	H	1.955062	1.114385	-0.397864
H92	H	1.903690	1.114389	-0.534299
H93	H	1.829579	0.967967	-0.350292
H94	H	1.778328	0.968078	-0.486772
