data_functionalizedCrystal
_audit_creation_method	'MofGen! by Chris Wilmer'
_symmetry_space_group_name_H-M	'P1'
_symmetry_Int_Tables_number	1
_symmetry_cell_setting	triclinic
loop_
_symmetry_equiv_pos_as_xyz
  x,y,z
_cell_length_a	29.839131
_cell_length_b	10.686220
_cell_length_c	10.686551
_cell_angle_alpha	89.691918
_cell_angle_beta	85.589901
_cell_angle_gamma	85.576533
loop_
_atom_site_label
_atom_site_type_symbol
_atom_site_fract_x
_atom_site_fract_y
_atom_site_fract_z
Zn1	Zn	-0.109531	-1.972144	-0.562362
Zn2	Zn	0.390469	-1.472144	-0.062362
Zn3	Zn	-0.190848	-1.955808	-0.352586
Zn4	Zn	0.309152	-1.455808	0.147414
Zn5	Zn	-0.121024	-1.746247	-0.368677
Zn6	Zn	0.378976	-1.246247	0.131323
Zn7	Zn	-0.189937	-1.762239	-0.578364
Zn8	Zn	0.310063	-1.262239	-0.078364
O9	O	-0.152835	-1.859109	-0.465497
O10	O	0.347165	-1.359109	0.034503
O11	O	-0.115889	-2.145524	-0.521104
O12	O	0.384111	-1.645524	-0.021104
O13	O	-0.186776	-1.914480	-0.179174
O14	O	0.313224	-1.414480	0.320826
O15	O	-0.056627	-1.776357	-0.394408
O16	O	0.443373	-1.276357	0.105592
O17	O	-0.175632	-2.133522	-0.366982
O18	O	0.324368	-1.633522	0.133018
O19	O	-0.048183	-1.942322	-0.536707
O20	O	0.451817	-1.442322	-0.036707
O21	O	-0.135477	-1.760516	-0.190996
O22	O	0.364523	-1.260516	0.309004
O23	O	-0.134594	-1.572821	-0.409924
O24	O	0.365406	-1.072821	0.090076
O25	O	-0.174081	-1.803613	-0.751788
O26	O	0.325919	-1.303613	-0.251788
O27	O	-0.185225	-1.584570	-0.563980
O28	O	0.314775	-1.084570	-0.063980
O29	O	-0.115006	-1.957829	-0.740032
O30	O	0.384994	-1.457829	-0.240032
O31	O	-0.253599	-1.929986	-0.382499
O32	O	0.246401	-1.429986	0.117501
O33	O	-0.252930	-1.787772	-0.548377
O34	O	0.247070	-1.287772	-0.048377
C35	C	-0.269565	-1.858878	-0.465453
C36	C	0.230435	-1.358878	0.034547
C37	C	-0.319499	-1.858897	-0.465467
C38	C	0.180501	-1.358897	0.034533
C39	C	-0.161058	-1.533178	-0.490435
C40	C	0.338942	-1.033178	0.009565
C41	C	-0.164586	-1.393745	-0.501133
C42	C	0.335414	-0.893745	-0.001133
C43	C	-0.143160	-1.884327	-0.792700
C44	C	0.356840	-1.384327	-0.292700
C45	C	-0.139037	-1.895073	-0.932134
C46	C	0.360963	-1.395073	-0.432134
C47	C	-0.629464	-1.933315	-0.379231
C48	C	-0.129464	-1.433315	0.120769
C49	C	-0.817132	-1.933474	-0.379268
C50	C	-0.317132	-1.433474	0.120732
O51	O	-0.841676	-1.996563	-0.305913
O52	O	-0.341676	-1.496563	0.194087
N53	N	-0.840268	-1.859377	-0.465572
N54	N	-0.340268	-1.359377	0.034428
C55	C	-0.816484	-1.785241	-0.551879
C56	C	-0.316484	-1.285241	-0.051879
O57	O	-0.840468	-1.722231	-0.625295
O58	O	-0.340468	-1.222231	-0.125295
C59	C	-0.628816	-1.785090	-0.551847
C60	C	-0.128816	-1.285090	-0.051847
C61	C	-0.605683	-1.859182	-0.465528
C62	C	-0.105683	-1.359182	0.034472
C63	C	-0.606331	-2.007402	-0.292920
C64	C	-0.106331	-1.507402	0.207080
C65	C	-0.559417	-2.007357	-0.292908
C66	C	-0.059417	-1.507357	0.207092
C67	C	-0.535636	-1.933224	-0.379205
C68	C	-0.035636	-1.433224	0.120795
C69	C	-0.558769	-1.859137	-0.465516
C70	C	-0.058769	-1.359137	0.034484
C71	C	-0.605033	-1.710962	-0.638159
C72	C	-0.105033	-1.210962	-0.138159
C73	C	-0.558113	-1.710934	-0.638145
C74	C	-0.058113	-1.210934	-0.138145
C75	C	-0.534980	-1.785026	-0.551827
C76	C	-0.034980	-1.285026	-0.051827
C77	C	-0.488075	-1.784958	-0.551801
C78	C	0.011925	-1.284958	-0.051801
N79	N	-0.464939	-1.859055	-0.465496
N80	N	0.035061	-1.359055	0.034504
C81	C	-0.488720	-1.933188	-0.379198
C82	C	0.011280	-1.433188	0.120802
C83	C	-0.915012	-1.785324	-0.551888
C84	C	-0.415012	-1.285324	-0.051888
C85	C	-0.961928	-1.785360	-0.551895
C86	C	-0.461928	-1.285360	-0.051895
C87	C	-0.962573	-1.933594	-0.379285
C88	C	-0.462573	-1.433594	0.120715
C89	C	-0.915656	-1.933551	-0.379273
C90	C	-0.415656	-1.433551	0.120727
C91	C	-0.891876	-1.859421	-0.465583
C92	C	-0.391876	-1.359421	0.034417
C93	C	-0.390197	-1.933086	-0.379177
C94	C	0.109803	-1.433086	0.120823
C95	C	-0.343279	-1.933030	-0.379169
C96	C	0.156721	-1.433030	0.120831
C97	C	-0.342638	-1.784801	-0.551783
C98	C	0.157362	-1.284801	-0.051783
C99	C	-0.389552	-1.784851	-0.551787
C100	C	0.110448	-1.284851	-0.051787
C101	C	-0.413330	-1.859004	-0.465480
C102	C	0.086670	-1.359004	0.034520
O103	O	-0.463501	-1.721913	-0.625126
O104	O	0.036499	-1.221913	-0.125126
O105	O	-0.464726	-1.996210	-0.305811
O106	O	0.035274	-1.496210	0.194189
C107	C	-0.676378	-1.933361	-0.379244
C108	C	-0.176378	-1.433361	0.120756
C109	C	-0.699511	-1.859273	-0.465554
C110	C	-0.199511	-1.359273	0.034446
C111	C	-0.675730	-1.785141	-0.551852
C112	C	-0.175730	-1.285141	-0.051852
C113	C	-0.746428	-1.859309	-0.465561
C114	C	-0.246428	-1.359309	0.034439
C115	C	-0.770208	-1.933442	-0.379263
C116	C	-0.270208	-1.433442	0.120737
C117	C	-0.747072	-2.007539	-0.292959
C118	C	-0.247072	-1.507539	0.207041
C119	C	-0.700158	-2.007493	-0.292946
C120	C	-0.200158	-1.507493	0.207054
C121	C	-0.698867	-1.711044	-0.638156
C122	C	-0.198867	-1.211044	-0.138156
C123	C	-0.745781	-1.711094	-0.638161
C124	C	-0.245781	-1.211094	-0.138161
C125	C	-0.769561	-1.785227	-0.551863
C126	C	-0.269561	-1.285227	-0.051863
C127	C	-0.035647	-1.859378	-0.465567
C128	C	0.464353	-1.359378	0.034433
C129	C	0.014291	-1.859492	-0.465597
C130	C	0.514291	-1.359492	0.034403
C131	C	-0.144580	-2.186314	-0.440463
C132	C	0.355420	-1.686314	0.059537
C133	C	-0.141063	-2.325749	-0.429795
C134	C	0.358937	-1.825749	0.070205
C135	C	-0.162438	-1.834062	-0.139563
C136	C	0.337562	-1.334062	0.360437
C137	C	-0.166429	-1.823559	-0.000111
C138	C	0.333571	-1.323559	0.499889
H139	H	-0.409551	-1.993471	-0.308900
H140	H	0.090449	-1.493471	0.191100
H141	H	-0.118225	-1.374204	-0.360535
H142	H	0.381775	-0.874204	0.139465
O143	O	-0.103791	-1.987079	-0.996326
O144	O	0.396209	-1.487079	-0.496326
H145	H	-0.069807	-1.963732	-0.972899
H146	H	0.430193	-1.463732	-0.472899
H147	H	-0.764612	-1.650749	-0.708452
H148	H	-0.264612	-1.150749	-0.208452
O149	O	-0.318327	-2.012956	-0.286074
O150	O	0.181673	-1.512956	0.213926
H151	H	-0.342747	-2.064523	-0.226082
H152	H	0.157253	-1.564523	0.273918
O153	O	-0.194841	-1.329571	-0.592886
O154	O	0.305159	-0.829571	-0.092886
H155	H	-0.192957	-1.226452	-0.587181
H156	H	0.307043	-0.726452	-0.087181
O157	O	-0.201671	-1.731556	-0.935918
O158	O	0.298329	-1.231556	-0.435918
H159	H	-0.199485	-1.737259	-0.832802
H160	H	0.300515	-1.237259	-0.332802
H161	H	-0.540584	-2.067693	-0.222623
H162	H	-0.040584	-1.567693	0.277377
O163	O	-0.629977	-1.631057	-0.731267
O164	O	-0.129977	-1.131057	-0.231267
H165	H	-0.605551	-1.579524	-0.791276
H166	H	-0.105551	-1.079524	-0.291276
O167	O	-0.631977	-2.087357	-0.199827
O168	O	-0.131977	-1.587357	0.300173
H169	H	-0.608002	-2.138852	-0.139812
H170	H	-0.108002	-1.638852	0.360188
H171	H	-0.679508	-1.650678	-0.708432
H172	H	-0.179508	-1.150678	-0.208432
O173	O	-0.890705	-2.013477	-0.286187
O174	O	-0.390705	-1.513477	0.213813
H175	H	-0.915127	-2.065034	-0.226191
H176	H	-0.415127	-1.565034	0.273809
H177	H	-0.980760	-1.725014	-0.622173
H178	H	-0.480760	-1.225014	-0.122173
O179	O	-0.988229	-2.013574	-0.286228
O180	O	-0.488229	-1.513574	0.213772
H181	H	-1.012944	-1.952588	-0.226658
H182	H	-0.512944	-1.452588	0.273342
O183	O	-0.889367	-1.705332	-0.644957
O184	O	-0.389367	-1.205332	-0.144957
H185	H	-0.913342	-1.653803	-0.704947
H186	H	-0.413342	-1.153803	-0.204947
H187	H	-0.538753	-1.650570	-0.708433
H188	H	-0.038753	-1.150570	-0.208433
H189	H	-0.408388	-1.724524	-0.622078
H190	H	0.091612	-1.224524	-0.122078
H191	H	-0.681327	-2.067826	-0.222658
H192	H	-0.181327	-1.567826	0.277342
O193	O	-0.316985	-1.704851	-0.644865
O194	O	0.183015	-1.204851	-0.144865
H195	H	-0.280475	-1.717287	-0.630357
H196	H	0.219525	-1.217287	-0.130357
H197	H	-0.766443	-2.067897	-0.222689
H198	H	-0.266443	-1.567897	0.277311
