data_functionalizedCrystal
_audit_creation_method	'MofGen! by Chris Wilmer'
_symmetry_space_group_name_H-M	'P1'
_symmetry_Int_Tables_number	1
_symmetry_cell_setting	triclinic
loop_
_symmetry_equiv_pos_as_xyz
  x,y,z
_cell_length_a	10.723024
_cell_length_b	19.188930
_cell_length_c	9.798715
_cell_angle_alpha	89.991738
_cell_angle_beta	89.996609
_cell_angle_gamma	83.806325
loop_
_atom_site_label
_atom_site_type_symbol
_atom_site_fract_x
_atom_site_fract_y
_atom_site_fract_z
O1	O	1.655155	0.097922	-0.113499
O2	O	1.291808	0.107295	-0.113506
O3	O	1.483967	0.001021	-0.113476
O4	O	1.462996	0.204196	-0.113529
O5	O	1.483952	0.001021	0.113507
O6	O	1.291793	0.107295	0.113477
O7	O	1.655140	0.097922	0.113483
Zn8	Zn	1.473465	0.102608	0.149518
Zn9	Zn	1.473483	0.102609	-0.149541
O10	O	1.462982	0.204196	0.113453
C11	C	1.245315	0.106613	-0.000015
C12	C	1.106803	0.104572	-0.000016
C13	C	1.030586	0.164037	-0.000033
C14	C	0.887427	0.161930	-0.000034
C15	C	1.483280	-0.024995	0.000019
C16	C	1.481242	-0.102512	0.000031
C17	C	1.593994	-0.146704	0.000040
C18	C	1.592079	-0.219540	0.000018
C19	C	1.477405	-0.248182	0.000015
C20	C	1.364638	-0.203981	-0.000001
C21	C	1.366556	-0.131146	0.000007
N22	N	1.389745	-0.356756	0.077260
N23	N	1.387931	-0.425947	0.077255
C24	C	1.471618	-0.467628	-0.000013
N25	N	1.557208	-0.437506	-0.077259
N26	N	1.559026	-0.368310	-0.077248
C27	C	1.475312	-0.327158	0.000005
C28	C	1.582302	-0.590797	-0.000030
C29	C	1.580382	-0.663634	-0.000061
C30	C	1.352937	-0.648073	-0.000066
C31	C	1.354860	-0.575238	-0.000049
C32	C	1.469546	-0.546604	-0.000025
C33	C	1.701633	0.098604	-0.000011
C34	C	1.840145	0.100645	-0.000019
C35	C	1.463668	0.230211	-0.000045
C36	C	1.465706	0.307729	-0.000066
N37	N	1.473461	0.102608	0.353618
N38	N	1.473497	0.102604	-0.353640
C39	C	1.554147	0.057789	0.421407
C40	C	1.554167	0.057787	0.578570
H41	H	0.905627	0.049735	-0.000013
H42	H	1.066070	0.052101	-0.000037
O43	O	1.693671	-0.562945	0.000217
C44	C	1.701576	-0.521282	0.117764
H45	H	1.636463	-0.538825	0.199927
H46	H	1.802175	-0.527343	0.157219
H47	H	1.672483	-0.463988	0.091198
H48	H	0.821937	0.212836	-0.000054
H49	H	1.404392	0.140974	0.411931
O50	O	1.241508	-0.675853	-0.000312
C51	C	1.172793	-0.653293	-0.117851
H52	H	1.239865	-0.637815	-0.200010
H53	H	1.119948	-0.697658	-0.157321
H54	H	1.103000	-0.606168	-0.091268
O55	O	1.705506	-0.119005	-0.000006
C56	C	1.804614	-0.173635	0.000033
H57	H	1.769911	-0.223269	-0.042948
H58	H	1.884712	-0.158027	-0.065857
H59	H	1.839362	-0.183783	0.108930
O60	O	1.690031	-0.706464	0.000007
C61	C	1.791659	-0.665569	-0.000002
H62	H	1.759682	-0.611374	0.042977
H63	H	1.870628	-0.692061	0.065904
H64	H	1.826846	-0.660201	-0.108890
H65	H	1.263044	-0.539256	-0.000049
H66	H	1.623208	0.019418	0.363095
O67	O	1.701577	-0.262507	-0.000206
C68	C	1.707276	-0.305108	-0.117744
H69	H	1.643343	-0.278736	-0.199922
H70	H	1.807840	-0.312818	-0.157183
H71	H	1.675256	-0.358218	-0.091172
H72	H	1.271269	-0.227305	-0.000007
O73	O	1.256908	-0.088315	0.000066
C74	C	1.155278	-0.129209	0.000016
H75	H	1.187241	-0.183414	0.042979
H76	H	1.076293	-0.102731	0.065916
H77	H	1.120117	-0.134548	-0.108882
H78	H	1.404419	0.140979	0.588072
H79	H	1.623251	0.019419	0.636866
H80	H	1.071319	0.216508	-0.000039
