data_functionalizedCrystal
_audit_creation_method	'MofGen! by Chris Wilmer'
_symmetry_space_group_name_H-M	'P1'
_symmetry_Int_Tables_number	1
_symmetry_cell_setting	triclinic
loop_
_symmetry_equiv_pos_as_xyz
  x,y,z
_cell_length_a	12.759401
_cell_length_b	16.959454
_cell_length_c	12.759393
_cell_angle_alpha	89.969790
_cell_angle_beta	89.980718
_cell_angle_gamma	90.021600
loop_
_atom_site_label
_atom_site_type_symbol
_atom_site_fract_x
_atom_site_fract_y
_atom_site_fract_z
Zn1	Zn	1.606210	-0.314607	-0.594026
Zn2	Zn	1.606090	-0.446807	-0.418349
Zn3	Zn	1.430514	-0.314650	-0.418362
Zn4	Zn	1.430484	-0.446751	-0.593986
O5	O	1.518324	-0.380704	-0.506181
O6	O	1.753215	-0.332149	-0.570734
O7	O	1.582761	-0.429318	-0.271330
O8	O	1.453883	-0.204033	-0.441686
O9	O	1.753127	-0.429276	-0.441665
O10	O	1.582966	-0.204002	-0.570746
O11	O	1.453766	-0.332223	-0.271339
O12	O	1.283489	-0.332168	-0.441647
O13	O	1.453832	-0.429180	-0.741013
O14	O	1.283467	-0.429222	-0.570678
O15	O	1.582937	-0.332094	-0.741042
O16	O	1.582732	-0.557411	-0.441626
O17	O	1.453716	-0.557369	-0.570666
C18	C	1.245357	-0.380694	-0.506160
C19	C	1.128580	-0.380709	-0.506176
C20	C	1.073735	-0.431322	-0.573257
C21	C	0.964011	-0.431325	-0.573277
C22	C	0.963988	-0.330100	-0.439128
C23	C	1.073710	-0.330094	-0.439113
C24	C	0.814107	-0.459686	-0.697138
C25	C	0.759258	-0.510311	-0.764210
C26	C	0.794846	-0.587450	-0.780159
C27	C	0.885281	-0.613979	-0.729022
C28	C	0.940125	-0.563358	-0.661943
C29	C	0.904539	-0.486209	-0.646013
C30	C	1.223615	-0.301740	-0.315251
C31	C	1.278461	-0.251123	-0.248166
C32	C	1.242875	-0.173983	-0.232205
C33	C	1.152436	-0.147456	-0.283324
C34	C	1.097590	-0.198074	-0.350409
C35	C	1.133184	-0.275213	-0.366371
C36	C	1.518236	-0.586070	-0.506163
C37	C	1.518295	-0.673926	-0.506190
C38	C	1.451243	-1.045410	-0.573365
C39	C	1.585699	-1.045394	-0.439104
C40	C	1.585662	-0.962848	-0.439094
C41	C	1.518414	-0.921579	-0.506220
C42	C	1.451202	-0.962857	-0.573355
C43	C	1.652865	-0.921564	-0.371953
C44	C	1.652830	-0.839013	-0.371940
C45	C	1.585586	-0.797743	-0.439071
C46	C	1.518373	-0.839026	-0.506210
C47	C	1.451124	-0.797757	-0.573335
C48	C	1.383915	-0.839038	-0.640480
C49	C	1.383958	-0.921587	-0.640486
C50	C	1.585543	-0.715195	-0.439065
C51	C	1.451083	-0.715204	-0.573326
C52	C	1.792358	-0.380714	-0.506202
C53	C	1.909134	-0.380718	-0.506212
C54	C	1.518395	-0.380626	-0.780214
C55	C	1.518425	-0.380592	-0.896991
C56	C	1.518441	-0.174535	-0.506222
C57	C	1.518491	-0.086679	-0.506239
C58	C	1.451312	-0.329998	-1.061588
C59	C	1.451283	-0.330024	-0.951864
C60	C	1.585609	-0.431132	-0.951848
C61	C	1.585642	-0.431101	-1.061570
C62	C	1.413754	-0.236845	-0.801931
C63	C	1.346561	-0.186315	-0.747078
C64	C	1.244065	-0.174164	-0.782688
C65	C	1.208740	-0.212555	-0.873150
C66	C	1.275927	-0.263091	-0.927997
C67	C	1.378438	-0.275227	-0.892388
C68	C	1.623161	-0.524281	-1.211505
C69	C	1.690343	-0.574821	-1.266354
C70	C	1.792841	-0.586980	-1.230746
C71	C	1.828162	-0.548603	-1.140281
C72	C	1.760980	-0.498063	-1.085432
C73	C	1.658483	-0.485903	-1.121048
C74	C	1.518314	-0.380724	-0.233213
C75	C	1.518488	-0.380535	-0.116437
H76	H	1.013755	-0.584958	-0.620307
O77	O	1.795216	-0.460653	-0.997621
C78	C	1.788937	-0.378396	-1.012401
H79	H	1.728523	-0.364794	-1.075675
H80	H	1.868744	-0.354824	-1.037630
C81	C	1.830082	-0.355467	-0.831279
C82	C	1.755874	-0.338759	-0.908987
H83	H	1.809692	-0.331015	-0.767489
H84	H	1.834317	-0.410885	-0.821322
H85	H	1.896582	-0.335822	-0.852317
H86	H	1.689379	-0.358412	-0.887955
H87	H	1.751628	-0.283344	-0.918938
H88	H	1.396526	-1.079025	-0.628035
O89	O	1.927684	-0.560348	-1.105516
C90	C	1.944460	-0.515623	-1.013924
H91	H	1.865976	-0.502537	-0.974930
H92	H	1.984842	-0.457826	-1.035269
C93	C	2.110649	-0.578590	-0.985608
C94	C	2.014255	-0.562523	-0.937710
H95	H	2.153706	-0.607518	-0.938597
H96	H	2.099350	-0.608720	-1.047318
H97	H	2.144287	-0.530421	-1.003394
H98	H	1.980613	-0.610691	-0.919938
H99	H	2.025550	-0.532402	-0.875996
O100	O	1.650946	-1.085601	-0.373961
C101	C	1.636526	-1.167312	-0.388322
H102	H	1.602127	-1.178578	-0.469391
H103	H	1.580571	-1.190770	-0.325985
C104	C	1.785077	-1.195827	-0.279135
C105	C	1.742836	-1.209664	-0.378709
H106	H	1.850653	-1.221953	-0.273201
H107	H	1.794791	-1.140777	-0.269456
H108	H	1.738438	-1.215375	-0.227199
H109	H	1.789469	-1.190108	-0.430643
H110	H	1.733133	-1.264713	-0.388397
H111	H	1.252604	-0.364552	-0.328250
H112	H	1.640259	-0.681588	-0.384392
O113	O	1.009785	-0.172169	-0.400028
C114	C	0.990116	-0.093235	-0.371538
H115	H	1.066068	-0.064562	-0.343953
H116	H	0.929981	-0.091643	-0.305470
C117	C	0.853979	-0.083109	-0.500809
C118	C	0.947267	-0.047891	-0.466936
H119	H	0.827543	-0.055139	-0.559652
H120	H	0.867227	-0.136290	-0.520001
H121	H	0.803878	-0.081781	-0.445743
H122	H	0.997370	-0.049229	-0.521997
H123	H	0.934026	0.005291	-0.447756
H124	H	1.396325	-0.681608	-0.627992
O125	O	1.118030	-0.072487	-0.267745
C126	C	1.185817	-0.033505	-0.197555
H127	H	1.265848	-0.063352	-0.198678
H128	H	1.151807	-0.036414	-0.115009
C129	C	1.099402	0.089985	-0.229497
C130	C	1.197700	0.053330	-0.230882
H131	H	1.106729	0.143550	-0.250050
H132	H	1.053730	0.063722	-0.276782
H133	H	1.071070	0.087553	-0.160705
H134	H	1.226023	0.055754	-0.299675
H135	H	1.243377	0.079595	-0.183609
O136	O	1.318743	-0.798910	-0.705796
C137	C	1.378503	-0.751074	-0.773669
H138	H	1.461257	-0.775904	-0.780238
H139	H	1.382113	-0.688529	-0.741166
C140	C	1.225479	-0.719269	-0.874776
C141	C	1.327116	-0.749771	-0.882851
H142	H	1.193780	-0.718462	-0.942124
H143	H	1.185217	-0.751495	-0.829046
H144	H	1.228502	-0.667151	-0.847686
H145	H	1.324092	-0.801891	-0.909928
H146	H	1.367378	-0.717554	-0.928589
H147	H	0.785130	-0.396871	-0.684169
H148	H	1.847538	-0.628139	-1.275412
O149	O	1.241474	-0.300292	-1.015874
C150	C	1.136584	-0.278753	-1.035528
H151	H	1.119275	-0.219792	-0.996321
H152	H	1.081926	-0.325810	-1.002517
C153	C	1.140487	-0.343725	-1.202706
C154	C	1.119229	-0.271304	-1.154559
H155	H	1.129779	-0.339133	-1.276130
H156	H	1.211151	-0.358239	-1.189464
H157	H	1.094936	-0.382931	-1.175186
H158	H	1.164789	-0.232102	-1.182070
H159	H	1.048572	-0.256783	-1.167809
H160	H	1.396634	-0.288821	-1.106258
O161	O	1.109151	-0.200643	-0.907617
C162	C	1.057417	-0.147823	-0.839795
H163	H	1.117855	-0.110550	-0.796511
H164	H	1.008757	-0.182494	-0.780649
C165	C	0.910763	-0.139419	-0.957238
C166	C	0.984994	-0.093635	-0.904083
H167	H	0.866085	-0.105995	-0.996892
H168	H	0.945615	-0.175007	-1.002930
H169	H	0.870224	-0.168309	-0.907940
H170	H	1.025539	-0.064753	-0.953381
H171	H	0.950147	-0.058040	-0.858401
H172	H	0.914243	-0.676797	-0.742005
H173	H	0.919299	-0.288892	-0.384526
O174	O	1.296299	-0.124905	-0.167032
C175	C	1.383731	-0.164863	-0.125299
H176	H	1.406201	-0.215600	-0.179388
H177	H	1.363250	-0.189091	-0.044483
C178	C	1.448954	-0.044933	-0.049382
C179	C	1.476557	-0.107244	-0.115820
H180	H	1.506212	-0.009390	-0.043530
H181	H	1.390047	-0.018012	-0.077495
H182	H	1.431885	-0.065132	0.017957
H183	H	1.493612	-0.087045	-0.183161
H184	H	1.535469	-0.134160	-0.087718
H185	H	0.685626	-0.488703	-0.805847
H186	H	1.352101	-0.272728	-0.206541
O187	O	1.513391	-0.248565	-0.767487
C188	C	1.584806	-0.224788	-0.845717
H189	H	1.545326	-0.180485	-0.900090
H190	H	1.610783	-0.278421	-0.892860
C191	C	1.729545	-0.240625	-0.727257
C192	C	1.681058	-0.186206	-0.794033
H193	H	1.788921	-0.216829	-0.695377
H194	H	1.681433	-0.256647	-0.674553
H195	H	1.751184	-0.285315	-0.766553
H196	H	1.659409	-0.141522	-0.754735
H197	H	1.729169	-0.170175	-0.846730
O198	O	1.523672	-0.512463	-1.246330
C199	C	1.506944	-0.557099	-1.338008
H200	H	1.564484	-0.608479	-1.340175
H201	H	1.519495	-0.518112	-1.409740
C202	C	1.323319	-0.526011	-1.335664
C203	C	1.393985	-0.589121	-1.338322
H204	H	1.253640	-0.545761	-1.335862
H205	H	1.334589	-0.495936	-1.273901
H206	H	1.333791	-0.493528	-1.395442
H207	H	1.383521	-0.621598	-1.278538
H208	H	1.382711	-0.619203	-1.400075
H209	H	1.189357	-0.133021	-0.738019
H210	H	1.329239	-0.955205	-0.695151
O211	O	1.718208	-0.961722	-0.306852
C212	C	1.786045	-1.009469	-0.366657
H213	H	1.792618	-0.984545	-0.449393
H214	H	1.753503	-1.072021	-0.370309
C215	C	1.887152	-1.041408	-0.213670
C216	C	1.895232	-1.010792	-0.315285
H217	H	1.954503	-1.042228	-0.181980
H218	H	1.841447	-1.009242	-0.173377
H219	H	1.860030	-1.093532	-0.216728
H220	H	1.922341	-0.958666	-0.312225
H221	H	1.940945	-1.042949	-0.355577
H222	H	1.118407	-0.472534	-0.627866
O223	O	1.718219	-0.799039	-0.306693
C224	C	1.777561	-0.853166	-0.247430
H225	H	1.781196	-0.911990	-0.290470
H226	H	1.739140	-0.861999	-0.167601
C227	C	1.884911	-0.748650	-0.179530
C228	C	1.889383	-0.820897	-0.232396
H229	H	1.953887	-0.728745	-0.170251
H230	H	1.844929	-0.712183	-0.219452
H231	H	1.852889	-0.756021	-0.113011
H232	H	1.921393	-0.813524	-0.298917
H233	H	1.929373	-0.857363	-0.192484
H234	H	1.640282	-0.472302	-0.907162
H235	H	0.750180	-0.628669	-0.834771
H236	H	1.375332	-0.155057	-0.673424
H237	H	1.661576	-0.606069	-1.340016
