data_functionalizedCrystal
_audit_creation_method	'MofGen! by Chris Wilmer'
_symmetry_space_group_name_H-M	'P1'
_symmetry_Int_Tables_number	1
_symmetry_cell_setting	triclinic
loop_
_symmetry_equiv_pos_as_xyz
  x,y,z
_cell_length_a	20.016444
_cell_length_b	12.970454
_cell_length_c	12.970454
_cell_angle_alpha	59.999644
_cell_angle_beta	90.001406
_cell_angle_gamma	60.002422
loop_
_atom_site_label
_atom_site_type_symbol
_atom_site_fract_x
_atom_site_fract_y
_atom_site_fract_z
Zr1	Zr	0.643580	1.128569	-0.135307
O2	O	0.536907	1.343653	-0.299932
O3	O	0.676281	0.913480	-0.084840
O4	O	0.676280	1.128572	-0.299932
O5	O	0.536908	1.128560	0.084827
O6	O	0.786220	1.128580	-0.299932
O7	O	0.536908	1.128561	-0.084841
O8	O	0.786221	0.743820	0.084828
O9	O	0.536907	1.513320	-0.299933
O10	O	0.772274	1.001957	-0.063317
O11	O	0.690228	1.001951	0.063304
O12	O	0.690227	1.255194	-0.189939
O13	O	0.608181	1.255187	-0.063318
Zr14	Zr	0.818922	1.128581	0.135293
Zr15	Zr	0.818921	1.128582	-0.135307
Zr16	Zr	0.643581	1.128568	0.135293
Zr17	Zr	0.643580	1.399169	-0.135308
Zr18	Zr	0.818922	0.857981	0.135294
O19	O	0.786221	1.343669	0.084825
O20	O	0.786220	1.343671	-0.299933
O21	O	0.536908	1.343651	0.084826
O22	O	0.925595	0.913497	0.299918
O23	O	0.925594	0.913499	-0.084840
O24	O	0.676282	0.913478	0.299919
O25	O	0.925594	1.128590	-0.084841
O26	O	0.786222	1.128577	0.299917
O27	O	0.676282	1.128569	0.299917
O28	O	0.925594	1.128589	0.084826
O29	O	0.676280	1.513331	-0.299934
O30	O	0.786222	0.743819	0.299919
O31	O	0.925595	0.743829	0.299919
O32	O	0.925594	0.743831	0.084828
O33	O	0.536908	1.513319	-0.084843
O34	O	0.676281	1.513329	-0.084843
O35	O	0.772275	1.001956	0.189925
O36	O	0.854322	1.001963	0.063304
O37	O	0.772274	1.255199	-0.063318
O38	O	0.690228	1.255192	0.063303
C39	C	0.731251	0.790096	-0.000006
C40	C	0.731251	0.675219	-0.000005
C41	C	0.511926	1.128559	-0.000007
C42	C	0.437489	1.128553	-0.000007
C43	C	0.309049	0.996383	0.066092
C44	C	0.239104	0.996389	0.066095
C45	C	0.153454	1.260777	-0.066108
C46	C	0.223399	1.260769	-0.066103
C47	C	0.301196	1.128568	-0.000006
C48	C	0.161306	1.128582	-0.000008
C49	C	0.085468	1.128589	-0.000005
C50	C	0.377039	1.128560	-0.000007
C51	C	0.950576	1.128591	-0.000008
C52	C	1.025013	1.128597	-0.000008
C53	C	0.731250	1.128577	-0.338486
C54	C	0.731250	1.128577	-0.453363
C55	C	0.731251	1.467054	-0.000009
C56	C	0.731251	1.581931	-0.000010
C57	C	0.731252	1.128573	0.338472
C58	C	0.731252	1.128573	0.453349
C59	C	0.950576	0.790112	-0.000006
C60	C	1.025013	0.675241	-0.000006
C61	C	0.731252	0.790094	0.338474
C62	C	0.731252	0.675217	0.453351
C63	C	0.950577	0.790110	0.338473
C64	C	1.025015	0.675238	0.453350
C65	C	0.511925	1.467040	-0.338488
C66	C	0.437487	1.581911	-0.453365
C67	C	0.511926	1.467038	-0.000009
C68	C	0.437489	1.581909	-0.000009
C69	C	0.731250	1.467056	-0.338488
C70	C	0.731250	1.581933	-0.453366
C71	C	1.017142	0.621293	-0.066111
C72	C	1.087077	0.513374	-0.066136
C73	C	1.164882	0.459398	-0.000047
C74	C	1.172752	0.513356	0.066061
C75	C	1.102818	0.621280	0.066077
C76	C	1.102806	0.621297	0.441203
C77	C	1.172755	0.513378	0.549132
C78	C	1.164910	0.459394	0.669207
C79	C	1.087110	0.513347	0.681352
C80	C	1.017164	0.621271	0.573424
C81	C	0.359696	1.635866	-0.441218
C82	C	0.289748	1.743819	-0.549147
C83	C	0.297592	1.797808	-0.669222
C84	C	0.375392	1.743849	-0.681367
C85	C	0.445339	1.635905	-0.573439
C86	C	0.445360	1.635868	0.066086
C87	C	0.375425	1.743817	0.066081
C88	C	0.297620	1.797797	-0.000012
C89	C	0.289750	1.743834	-0.066115
C90	C	0.359684	1.635894	-0.066117
H91	H	0.372392	0.888737	0.119926
H92	H	0.240682	1.885688	-0.000001
Cl93	Cl	0.191931	1.811704	-0.149191
Cl94	Cl	1.112690	0.689148	0.290264
Cl95	Cl	0.349813	1.568016	-0.290279
H96	H	0.353264	1.591964	-0.119935
Cl97	Cl	1.270571	0.445477	0.149145
Cl98	Cl	0.543131	1.568079	-0.588732
H99	H	0.508707	1.591925	0.119915
Cl100	Cl	0.055651	1.426963	-0.149200
H101	H	0.216998	1.368416	-0.119925
H102	H	0.245506	0.888751	0.119920
H103	H	0.953825	0.665176	0.583333
Cl104	Cl	0.919338	0.689133	-0.149212
H105	H	1.109238	0.665190	0.119916
H106	H	1.080653	0.469454	-0.119969
Cl107	Cl	0.191953	1.811625	-0.533850
H108	H	1.236096	0.469461	0.539221
H109	H	0.240630	1.885702	-0.757093
Cl110	Cl	1.252852	0.323713	0.804878
H111	H	0.381849	1.787735	0.119914
Cl112	Cl	1.252792	0.323716	-0.000078
H113	H	1.080735	0.469378	0.779132
H114	H	0.381769	1.787820	-0.779145
