data_functionalizedCrystal
_audit_creation_method	'MofGen! by Chris Wilmer'
_symmetry_space_group_name_H-M	'P1'
_symmetry_Int_Tables_number	1
_symmetry_cell_setting	triclinic
loop_
_symmetry_equiv_pos_as_xyz
  x,y,z
_cell_length_a	14.044220
_cell_length_b	15.944551
_cell_length_c	13.101039
_cell_angle_alpha	93.361595
_cell_angle_beta	86.340132
_cell_angle_gamma	88.343808
loop_
_atom_site_label
_atom_site_type_symbol
_atom_site_fract_x
_atom_site_fract_y
_atom_site_fract_z
O1	O	1.262927	0.198266	-0.085109
O2	O	0.986959	0.190957	-0.085135
O3	O	1.132479	0.072901	-0.085112
O4	O	1.117408	0.316322	-0.085132
O5	O	1.122038	0.081387	0.085316
O6	O	0.976518	0.199443	0.085293
O7	O	1.252486	0.206752	0.085319
Zn8	Zn	1.112845	0.204444	0.112365
Zn9	Zn	1.126601	0.193264	-0.112181
O10	O	1.106967	0.324807	0.085296
C11	C	0.946424	0.192001	0.000076
C12	C	0.841198	0.182459	0.000066
C13	C	1.126633	0.045803	0.000102
C14	C	1.124757	-0.047583	0.000102
C15	C	0.648535	0.165017	0.000088
C16	C	0.590906	0.232688	0.000087
C17	C	0.483701	0.222982	0.000099
C18	C	0.755749	0.174721	0.000076
C19	C	1.030074	-0.269531	0.000079
C20	C	1.068894	-0.323071	0.084115
C21	C	1.121364	-0.218563	0.000094
C22	C	1.079209	-0.331419	-0.083914
C23	C	1.118080	-0.383723	0.000082
C24	C	1.160204	-0.270871	0.084199
C25	C	1.170512	-0.279217	-0.083905
C26	C	1.209397	-0.332734	0.000151
C27	C	1.123253	-0.123419	0.000102
C28	C	1.116197	-0.478865	0.000081
C29	C	1.293021	0.205707	0.000106
C30	C	1.398248	0.215249	0.000108
C31	C	1.112813	0.351905	0.000079
C32	C	1.114689	0.445291	0.000072
N33	N	1.103463	0.212075	0.265612
N34	N	1.135990	0.185628	-0.265429
C35	C	1.090699	0.222464	0.474653
C36	C	1.148750	0.175242	0.525537
C37	C	1.141649	0.181022	0.641855
C38	C	1.097800	0.216684	0.358325
H39	H	0.617361	0.099799	0.000099
O40	O	1.024924	0.275778	0.526844
C41	C	0.932618	0.253931	0.500712
H42	H	0.933791	0.185205	0.471135
H43	H	0.908596	0.295394	0.438538
C44	C	0.861209	0.351306	0.632433
C45	C	0.862649	0.266893	0.596115
H46	H	0.818047	0.359305	0.691280
H47	H	0.923397	0.366027	0.650037
H48	H	0.841194	0.385849	0.580613
H49	H	0.882675	0.232353	0.647930
H50	H	0.800462	0.252166	0.578521
H51	H	1.285236	-0.360212	0.000205
O52	O	1.214438	0.121765	0.473460
C53	C	1.267039	0.079013	0.543680
H54	H	1.223571	0.078926	0.620193
H55	H	1.336829	0.112056	0.555045
C56	C	1.342329	-0.012096	0.407703
C57	C	1.288937	-0.012210	0.501675
H58	H	1.355841	-0.068366	0.381792
H59	H	1.306893	0.016708	0.360393
H60	H	1.400481	0.015443	0.417187
H61	H	1.230782	-0.039739	0.492188
H62	H	1.324363	-0.041021	0.548983
O63	O	0.939644	-0.236583	0.000346
C64	C	0.886420	-0.258740	0.089095
H65	H	0.937059	-0.273589	0.150717
H66	H	0.843297	-0.316402	0.069918
C67	C	0.755934	-0.166759	0.053017
C68	C	0.818129	-0.184989	0.128706
H69	H	0.713806	-0.121268	0.077450
H70	H	0.791790	-0.151833	-0.006777
H71	H	0.720008	-0.214816	0.037043
H72	H	0.854063	-0.136936	0.144669
H73	H	0.782277	-0.199905	0.188504
H74	H	1.025929	-0.342534	0.155153
H75	H	0.622082	0.297911	0.000076
H76	H	1.194427	-0.244450	0.155322
H77	H	1.213443	-0.259735	-0.154947
H78	H	1.044938	-0.357926	-0.154965
