data_functionalizedCrystal
_audit_creation_method	'MofGen! by Chris Wilmer'
_symmetry_space_group_name_H-M	'P1'
_symmetry_Int_Tables_number	1
_symmetry_cell_setting	triclinic
loop_
_symmetry_equiv_pos_as_xyz
  x,y,z
_cell_length_a	6.817900
_cell_length_b	14.125465
_cell_length_c	12.200722
_cell_angle_alpha	94.993976
_cell_angle_beta	107.140920
_cell_angle_gamma	100.398878
loop_
_atom_site_label
_atom_site_type_symbol
_atom_site_fract_x
_atom_site_fract_y
_atom_site_fract_z
V1	V	-4.009703	-0.300078	-0.157727
V2	V	-3.509703	0.199922	0.342273
O3	O	-3.978506	-0.294261	0.008593
O4	O	-3.478506	0.205739	0.508593
O5	O	-3.979643	-0.298127	-0.313722
O6	O	-3.479643	0.201873	0.186278
O7	O	-3.945510	-0.430906	-0.154856
O8	O	-3.445510	0.069094	0.345144
O9	O	-4.012876	-0.160562	-0.151372
O10	O	-3.512876	0.339438	0.348628
V11	V	-4.493001	-0.283378	-0.137886
V12	V	-3.993001	0.216622	0.362114
O13	O	-4.271455	-0.336710	-0.201251
O14	O	-3.771455	0.163290	0.298749
O15	O	-4.681446	-0.246747	-0.094362
O16	O	-4.181446	0.253253	0.405638
O17	O	-4.299854	-0.285330	0.018109
O18	O	-3.799854	0.214670	0.518109
O19	O	-4.641594	-0.289196	-0.304206
O20	O	-4.141594	0.210804	0.195794
O21	O	-4.607225	-0.422894	-0.144241
O22	O	-4.107225	0.077106	0.355759
O23	O	-4.333987	-0.152550	-0.140757
O24	O	-3.833987	0.347450	0.359243
C25	C	-3.829616	-0.293419	-0.351764
C26	C	-3.329616	0.206581	0.148236
C27	C	-3.886221	-0.292696	-0.479288
C28	C	-3.386221	0.207304	0.020712
C29	C	-3.932184	-0.292099	-0.582851
C30	C	-3.432184	0.207901	-0.082851
C31	C	-3.989867	-0.291356	-0.712776
C32	C	-3.489867	0.208644	-0.212776
C33	C	-3.786076	-0.462791	-0.149113
C34	C	-3.286076	0.037209	0.350887
C35	C	-3.814996	-0.569744	-0.147798
C36	C	-3.314996	-0.069744	0.352202
C37	C	-3.868005	-0.765566	-0.145386
C38	C	-3.368005	-0.265566	0.354614
C39	C	-4.054067	-0.817890	-0.150225
C40	C	-3.554067	-0.317890	0.349775
C41	C	-4.083564	-0.926852	-0.148882
C42	C	-3.583564	-0.426852	0.351118
C43	C	-3.838500	-0.656594	-0.146728
C44	C	-3.338500	-0.156594	0.353272
C45	C	-4.113223	-0.290035	0.056145
C46	C	-3.613223	0.209965	0.556145
C47	C	-4.035857	-0.290764	0.183668
C48	C	-3.535857	0.209236	0.683668
C49	C	-4.156764	-0.120660	-0.146503
C50	C	-3.656764	0.379340	0.353497
C51	C	-4.107082	-0.013706	-0.147813
C52	C	-3.607082	0.486294	0.352187
H53	H	-3.730878	-0.802600	-0.140238
H54	H	-3.230878	-0.302600	0.359762
H55	H	-4.191212	-0.780855	-0.155386
H56	H	-3.691212	-0.280855	0.344614
