data_functionalizedCrystal
_audit_creation_method	'MofGen! by Chris Wilmer'
_symmetry_space_group_name_H-M	'P1'
_symmetry_Int_Tables_number	1
_symmetry_cell_setting	triclinic
loop_
_symmetry_equiv_pos_as_xyz
  x,y,z
_cell_length_a	16.120484
_cell_length_b	13.032951
_cell_length_c	13.032268
_cell_angle_alpha	90.885735
_cell_angle_beta	80.357249
_cell_angle_gamma	93.924003
loop_
_atom_site_label
_atom_site_type_symbol
_atom_site_fract_x
_atom_site_fract_y
_atom_site_fract_z
Zn1	Zn	-0.562161	-1.458757	0.811503
Zn2	Zn	-0.062161	-0.958757	1.311503
Zn3	Zn	-0.686171	-1.471737	0.646280
Zn4	Zn	-0.186171	-0.971737	1.146280
Zn5	Zn	-0.527385	-1.311072	0.615845
Zn6	Zn	-0.027385	-0.811072	1.115845
Zn7	Zn	-0.681663	-1.278305	0.796154
Zn8	Zn	-0.181663	-0.778305	1.296154
O9	O	-0.614345	-1.379968	0.717445
O10	O	-0.114345	-0.879968	1.217445
O11	O	-0.595051	-1.603237	0.808746
O12	O	-0.095051	-1.103237	1.308746
O13	O	-0.652440	-1.469571	0.497636
O14	O	-0.152440	-0.969571	0.997636
O15	O	-0.415533	-1.338944	0.635486
O16	O	0.084467	-0.838944	1.135486
O17	O	-0.686161	-1.612774	0.687357
O18	O	-0.186161	-1.112774	1.187357
O19	O	-0.441083	-1.447447	0.779235
O20	O	0.058917	-0.947447	1.279235
O21	O	-0.535781	-1.351531	0.475276
O22	O	-0.035781	-0.851531	0.975276
O23	O	-0.531410	-1.163967	0.620603
O24	O	-0.031410	-0.663967	1.120603
O25	O	-0.678478	-1.283096	0.942796
O26	O	-0.178478	-0.783096	1.442796
O27	O	-0.644757	-1.139893	0.753075
O28	O	-0.144757	-0.639893	1.253075
O29	O	-0.590680	-1.415673	0.954073
O30	O	-0.090680	-0.915673	1.454073
O31	O	-0.802037	-1.437797	0.672474
O32	O	-0.302037	-0.937797	1.172474
O33	O	-0.798725	-1.295683	0.782586
O34	O	-0.298725	-0.795683	1.282586
C35	C	-0.583821	-1.114914	0.681871
C36	C	-0.083821	-0.614914	1.181871
C37	C	-0.570785	-1.001518	0.666678
C38	C	-0.070785	-0.501518	1.166678
C39	C	-0.830584	-1.364617	0.729193
C40	C	-0.330584	-0.864617	1.229193
C41	C	-0.923107	-1.358139	0.734266
C42	C	-0.423107	-0.858139	1.234266
C43	C	-0.621129	-0.939086	0.725360
C44	C	-0.121129	-0.439086	1.225360
C45	C	-0.607657	-0.821885	0.709658
C46	C	-0.107657	-0.321885	1.209658
C47	C	-1.092508	-1.346315	0.743550
C48	C	-0.592508	-0.846315	1.243550
C49	C	-1.135364	-1.413801	0.691383
C50	C	-0.635364	-0.913801	1.191383
C51	C	-1.229624	-1.407222	0.696548
C52	C	-0.729624	-0.907222	1.196548
C53	C	-0.998239	-1.352893	0.738385
C54	C	-0.498239	-0.852893	1.238385
C55	C	-0.397266	-1.395403	0.705678
C56	C	0.102734	-0.895403	1.205678
C57	C	-0.304760	-1.401980	0.700664
C58	C	0.195240	-0.901980	1.200664
C59	C	-0.637955	-1.344281	0.986978
C60	C	-0.137955	-0.844281	1.486978
C61	C	-0.648017	-1.329074	1.101837
C62	C	-0.148017	-0.829074	1.601837
C63	C	-0.644978	-0.646058	0.753151
C64	C	-0.144978	-0.146058	1.253151
C65	C	-0.658007	-0.759454	0.768348
C66	C	-0.158007	-0.259454	1.268348
C67	C	-0.590773	-1.415578	0.448966
C68	C	-0.090773	-0.915578	0.948966
C69	C	-0.580500	-1.431000	0.334122
C70	C	-0.080500	-0.931000	0.834122
C71	C	-0.609062	-1.387891	1.158624
C72	C	-0.109062	-0.887891	1.658624
C73	C	-0.619460	-1.372175	1.277337
C74	C	-0.119460	-0.872175	1.777337
H75	H	-0.674200	-0.972402	0.787227
H76	H	-0.174200	-0.472402	1.287227
H77	H	-0.568010	-1.449877	1.119354
H78	H	-0.068010	-0.949877	1.619354
H79	H	-1.126608	-1.283602	0.792086
H80	H	-0.626608	-0.783602	1.292086
H81	H	-0.539443	-1.492989	1.294858
H82	H	-0.039443	-0.992989	1.794858
H83	H	-0.660505	-1.310174	1.316600
H84	H	-0.160505	-0.810174	1.816600
C85	C	-0.729714	-0.804450	0.851930
C86	C	-0.229714	-0.304450	1.351930
N87	N	-0.783724	-0.838342	0.914882
N88	N	-0.283724	-0.338342	1.414882
C89	C	-1.089293	-1.498524	0.625796
C90	C	-0.589293	-0.998524	1.125796
N91	N	-1.054588	-1.562331	0.576394
N92	N	-0.554588	-1.062331	1.076394
C93	C	-0.703470	-1.245322	1.154881
C94	C	-0.203470	-0.745322	1.654881
N95	N	-0.745238	-1.182238	1.194833
N96	N	-0.245238	-0.682238	1.694833
H97	H	-0.517708	-0.968202	0.604819
H98	H	-0.017708	-0.468202	1.104819
H99	H	-0.554576	-0.788573	0.647795
H100	H	-0.054576	-0.288573	1.147795
