data_functionalizedCrystal
_audit_creation_method	'MofGen! by Chris Wilmer'
_symmetry_space_group_name_H-M	'P1'
_symmetry_Int_Tables_number	1
_symmetry_cell_setting	triclinic
loop_
_symmetry_equiv_pos_as_xyz
  x,y,z
_cell_length_a	23.096457
_cell_length_b	23.096457
_cell_length_c	23.096457
_cell_angle_alpha	60.008701
_cell_angle_beta	90.011518
_cell_angle_gamma	60.000185
loop_
_atom_site_label
_atom_site_type_symbol
_atom_site_fract_x
_atom_site_fract_y
_atom_site_fract_z
Zr1	Zr	0.557763	0.633740	-0.075976
O2	O	0.465295	0.754526	-0.168417
O3	O	0.586107	0.512954	-0.047641
O4	O	0.586081	0.633742	-0.168427
O5	O	0.465344	0.633736	0.047651
O6	O	0.681361	0.633743	-0.168430
O7	O	0.465321	0.633738	-0.047631
O8	O	0.681407	0.417676	0.047634
O9	O	0.465298	0.849804	-0.168413
O10	O	0.669304	0.562636	-0.035555
O11	O	0.598215	0.562634	0.035556
O12	O	0.598184	0.704846	-0.106654
O13	O	0.527095	0.704844	-0.035543
Zr14	Zr	0.709760	0.633740	0.075983
Zr15	Zr	0.709724	0.633742	-0.075981
Zr16	Zr	0.557799	0.633737	0.075988
Zr17	Zr	0.557767	0.785697	-0.075969
Zr18	Zr	0.709756	0.481782	0.075976
O19	O	0.681416	0.754526	0.047648
O20	O	0.681365	0.754529	-0.168425
O21	O	0.465347	0.754522	0.047656
O22	O	0.802227	0.512954	0.168424
O23	O	0.802176	0.512958	-0.047649
O24	O	0.586158	0.512950	0.168432
O25	O	0.802179	0.633743	-0.047644
O26	O	0.681442	0.633738	0.168434
O27	O	0.586161	0.633736	0.168437
O28	O	0.802202	0.633742	0.047638
O29	O	0.586087	0.849806	-0.168418
O30	O	0.681436	0.417674	0.168425
O31	O	0.802225	0.417676	0.168420
O32	O	0.802196	0.417678	0.047629
O33	O	0.465326	0.849802	-0.047622
O34	O	0.586115	0.849804	-0.047627
O35	O	0.669338	0.562634	0.106661
O36	O	0.740428	0.562636	0.035551
O37	O	0.669308	0.704846	-0.035549
O38	O	0.598218	0.704844	0.035562
C39	C	0.633757	0.443664	-0.000004
C40	C	0.633755	0.379154	-0.000007
C41	C	0.670858	0.348855	-0.037129
C42	C	0.670865	0.288232	-0.037123
C43	C	0.633755	0.257924	-0.000005
C44	C	0.596650	0.288228	0.037124
C45	C	0.596650	0.348843	0.037123
N46	N	0.573349	0.195527	-0.005150
N47	N	0.573351	0.137946	-0.005153
C48	C	0.633754	0.075292	0.000001
N49	N	0.694155	0.072401	0.005145
N50	N	0.694152	0.129989	0.005144
C51	C	0.633751	0.192196	0.000000
C52	C	0.670868	-0.020742	-0.037116
C53	C	0.670877	-0.081369	-0.037105
C54	C	0.596655	-0.081367	0.037138
C55	C	0.596653	-0.020747	0.037132
C56	C	0.633758	0.009564	0.000001
C57	C	0.443681	0.633737	0.000011
C58	C	0.379170	0.633736	0.000013
C59	C	0.385988	0.559506	0.037119
C60	C	0.325372	0.559505	0.037122
C61	C	0.257939	0.633737	0.000005
C62	C	0.251123	0.707977	-0.037103
C63	C	0.311739	0.707976	-0.037099
N64	N	0.135130	0.688994	-0.060404
N65	N	0.077551	0.688989	-0.060406
C66	C	0.075306	0.633745	-0.000007
N67	N	0.132823	0.578492	0.060393
N68	N	0.190408	0.578494	0.060394
C69	C	0.192208	0.633747	-0.000003
C70	C	0.016401	0.559509	0.037106
C71	C	-0.044217	0.559511	0.037111
C72	C	-0.118466	0.707985	-0.037121
C73	C	-0.057848	0.707981	-0.037119
C74	C	0.009583	0.633741	-0.000008
C75	C	0.823842	0.633743	-0.000003
C76	C	0.888353	0.633744	-0.000006
C77	C	0.633716	0.633743	-0.190080
C78	C	0.633701	0.633744	-0.254593
C79	C	0.633766	0.823815	0.000012
C80	C	0.633768	0.888325	0.000014
C81	C	0.596581	0.707974	-0.322009
C82	C	0.596599	0.707975	-0.382626
C83	C	0.633727	0.633742	-0.375821
C84	C	0.670856	0.559503	-0.308392
C85	C	0.670843	0.559504	-0.247778
N86	N	0.628604	0.578486	-0.443379
N87	N	0.628613	0.578490	-0.500963
C88	C	0.633771	0.633735	-0.558447
N89	N	0.638907	0.688988	-0.556178
N90	N	0.638894	0.688986	-0.498590
C91	C	0.633746	0.633733	-0.441543
C92	C	0.596668	0.707971	-0.691593
C93	C	0.596692	0.707969	-0.752209
C94	C	0.670944	0.559495	-0.677974
C95	C	0.670926	0.559499	-0.617360
C96	C	0.633784	0.633739	-0.624174
C97	C	0.633806	0.633737	0.190087
C98	C	0.633822	0.633736	0.254600
C99	C	0.823837	0.443668	-0.000011
C100	C	0.888347	0.379159	-0.000017
C101	C	0.633802	0.443661	0.190079
C102	C	0.633815	0.379150	0.254589
C103	C	0.823882	0.443664	0.190072
C104	C	0.888407	0.379154	0.254580
C105	C	0.443641	0.823815	-0.190065
C106	C	0.379115	0.888325	-0.254573
C107	C	0.443686	0.823812	0.000019
C108	C	0.379176	0.888321	0.000024
C109	C	0.633721	0.823819	-0.190072
C110	C	0.633707	0.888329	-0.254582
C111	C	0.881515	0.348865	-0.037141
C112	C	0.942124	0.288260	-0.037160
C113	C	1.009562	0.257947	-0.000050
C114	C	1.016392	0.288247	0.037076
C115	C	0.955785	0.348854	0.037091
C116	C	0.670948	0.348855	0.322006
C117	C	0.670958	0.288249	0.382626
C118	C	0.633839	0.257934	0.375827
C119	C	0.596703	0.288235	0.308403
C120	C	0.596689	0.348845	0.247784
C121	C	0.955823	0.348861	0.247754
C122	C	1.016458	0.288256	0.308360
C123	C	1.009674	0.257941	0.375791
C124	C	0.942250	0.288240	0.382615
C125	C	0.881618	0.348848	0.322010
C126	C	0.311699	0.918626	-0.247747
C127	C	0.251065	0.979250	-0.308353
C128	C	0.257849	1.009568	-0.375784
C129	C	0.325272	0.979265	-0.382608
C130	C	0.385905	0.918646	-0.322003
C131	C	0.386007	0.918621	0.037142
C132	C	0.325399	0.979242	0.037145
C133	C	0.257960	1.009558	0.000032
C134	C	0.251131	0.979255	-0.037091
C135	C	0.311738	0.918639	-0.037097
C136	C	0.670833	0.918625	-0.247760
C137	C	0.670834	0.979232	-0.308368
C138	C	0.633705	1.009546	-0.375797
C139	C	0.596578	0.979245	-0.382618
C140	C	0.596582	0.918635	-0.322010
H141	H	0.701073	0.373531	-0.067361
F142	F	0.710487	0.256009	0.454377
F143	F	0.457750	0.480492	0.076621
H144	H	-0.063403	0.768427	-0.067340
H145	H	0.701080	0.263558	-0.067353
H146	H	0.961360	0.373535	0.192854
F147	F	0.633861	0.193427	0.440349
H148	H	0.566340	0.768426	-0.327564
F149	F	0.179315	1.011488	-0.301075
F150	F	1.088207	0.256017	0.301082
F151	F	0.963066	0.381085	0.076611
H152	H	0.701174	0.373530	0.327556
F153	F	0.809870	0.381079	0.329285
H154	H	1.071309	0.263557	0.067290
F155	F	0.304463	0.886368	-0.175988
F156	F	1.074211	0.193434	0.440287
H157	H	0.936549	0.263597	-0.067393
H158	H	0.701087	0.499062	-0.302856
H159	H	1.058907	0.208596	-0.000067
H160	H	0.566482	0.263544	0.302877
H161	H	0.566454	0.373503	0.192893
F162	F	0.633706	1.074055	-0.440296
F163	F	0.935042	0.255968	0.454385
F164	F	0.193311	1.074085	-0.440280
F165	F	0.332481	1.011539	-0.454378
H166	H	0.440796	0.893976	-0.327568
F167	F	0.457775	0.886370	0.076644
F168	F	0.179352	1.011526	-0.076585
F169	F	0.193462	1.074071	0.000045
H170	H	0.701066	1.003896	-0.302801
H171	H	0.330974	1.003905	0.067377
F172	F	0.557089	0.786984	-0.454386
F173	F	0.304457	0.886393	-0.076602
F174	F	0.710354	0.886372	-0.176003
F175	F	0.557060	1.011522	-0.454387
F176	F	-0.036956	0.480501	0.076614
F177	F	0.710368	-0.113615	-0.076619
F178	F	0.710350	0.480494	-0.176023
F179	F	0.809748	0.381118	-0.076645
F180	F	0.557160	0.011503	0.076640
F181	F	0.557059	0.886405	-0.329281
H182	H	0.566435	0.263546	0.067347
H183	H	0.566434	0.373513	0.067352
F184	F	0.557159	-0.113620	0.076642
H185	H	0.701084	0.003936	-0.067347
F186	F	0.710423	0.480492	-0.545606
F187	F	0.332626	0.480496	0.076615
H188	H	0.196215	0.768418	-0.067323
H189	H	0.306181	0.768425	-0.067314
F190	F	-0.190230	0.786990	-0.076620
F191	F	0.088168	0.480497	0.076606
H192	H	0.566466	0.768418	-0.807105
F193	F	0.557153	0.786983	-0.698844
F194	F	0.710467	0.480490	-0.670727
