data_functionalizedCrystal
_audit_creation_method	'MofGen! by Chris Wilmer'
_symmetry_space_group_name_H-M	'P1'
_symmetry_Int_Tables_number	1
_symmetry_cell_setting	triclinic
loop_
_symmetry_equiv_pos_as_xyz
  x,y,z
_cell_length_a	14.971482
_cell_length_b	16.992695
_cell_length_c	14.048226
_cell_angle_alpha	89.993436
_cell_angle_beta	89.994098
_cell_angle_gamma	87.140416
loop_
_atom_site_label
_atom_site_type_symbol
_atom_site_fract_x
_atom_site_fract_y
_atom_site_fract_z
O1	O	1.194128	0.102176	-0.079149
O2	O	0.934587	0.114416	-0.079154
O3	O	1.063317	-0.005848	-0.079144
O4	O	1.065398	0.222440	-0.079159
O5	O	1.063300	-0.005855	0.079177
O6	O	0.934570	0.114409	0.079167
O7	O	1.194111	0.102169	0.079172
Zn8	Zn	1.064338	0.108288	0.104307
Zn9	Zn	1.064360	0.108297	-0.104289
O10	O	1.065381	0.222432	0.079162
C11	C	0.901216	0.113866	0.000006
C12	C	0.801803	0.112227	0.000004
C13	C	0.755095	0.111451	0.086306
C14	C	0.661688	0.109899	0.086308
C15	C	0.614990	0.109128	0.000006
C16	C	0.661704	0.109901	-0.086303
C17	C	0.755111	0.111448	-0.086303
C18	C	0.467016	0.106679	-0.086297
C19	C	0.373603	0.105134	-0.086297
C20	C	0.373593	0.105130	0.086314
C21	C	0.466999	0.106677	0.086314
C22	C	0.513708	0.107451	0.000005
C23	C	1.060632	-0.035066	0.000016
C24	C	1.052645	-0.122118	0.000016
C25	C	1.129709	-0.172287	0.000018
C26	C	1.122199	-0.254080	0.000009
C27	C	1.037624	-0.285703	0.000004
C28	C	0.960554	-0.235528	-0.000001
C29	C	0.968065	-0.153736	0.000002
C30	C	1.006494	-0.529330	-0.000009
C31	C	0.998989	-0.611128	-0.000009
C32	C	1.160636	-0.629675	-0.000001
C33	C	1.168139	-0.547881	0.000008
C34	C	1.091069	-0.497713	-0.000003
N35	N	1.029945	-0.369309	-0.000002
N36	N	1.098748	-0.414108	-0.000003
C37	C	1.227483	0.102719	0.000010
C38	C	1.326895	0.104358	0.000005
C39	C	1.068067	0.251651	-0.000001
C40	C	1.076054	0.338703	-0.000006
N41	N	1.064329	0.108281	0.246667
N42	N	1.064376	0.108298	-0.246649
C43	C	1.121351	0.055050	0.296490
C44	C	1.121357	0.055050	0.396147
C45	C	1.064345	0.108284	0.445981
C46	C	1.007317	0.161518	0.396151
C47	C	1.007307	0.161514	0.296495
C48	C	1.007343	0.161523	0.603866
C49	C	1.007354	0.161529	0.703528
C50	C	1.121394	0.055059	0.703517
C51	C	1.121384	0.055055	0.603862
C52	C	1.064356	0.108290	0.554039
H53	H	0.793139	0.112081	-0.156579
Cl54	Cl	0.909605	-0.466272	-0.000025
Cl55	Cl	0.892658	-0.650881	-0.000009
Cl56	Cl	0.854230	-0.275282	-0.000019
H57	H	0.623663	0.109254	0.156583
Cl58	Cl	0.935638	0.228439	0.458797
Cl59	Cl	1.193062	-0.011864	0.541212
Cl60	Cl	1.236038	-0.132541	0.000034
H61	H	1.167781	0.011703	0.255922
Cl62	Cl	0.314898	0.104162	-0.194792
H63	H	0.960927	0.204877	0.744098
Cl64	Cl	0.935615	0.228433	0.233862
H65	H	0.793110	0.112085	0.156584
H66	H	1.184953	-0.294926	0.000013
Cl67	Cl	0.935647	0.228447	0.541235
Cl68	Cl	0.525734	0.107651	-0.194801
Cl69	Cl	1.193085	-0.011862	0.766155
H70	H	0.623676	0.109268	-0.156571
Cl71	Cl	1.274466	-0.508133	-0.000017
H72	H	0.905310	-0.112888	-0.000001
Cl73	Cl	1.257517	-0.692748	0.000010
H74	H	1.167789	0.011705	0.436712
H75	H	0.335559	0.104499	0.156590
Cl76	Cl	0.525704	0.107655	0.194809
