data_functionalizedCrystal
_audit_creation_method	'MofGen! by Chris Wilmer'
_symmetry_space_group_name_H-M	'P1'
_symmetry_Int_Tables_number	1
_symmetry_cell_setting	triclinic
loop_
_symmetry_equiv_pos_as_xyz
  x,y,z
_cell_length_a	15.298068
_cell_length_b	15.298852
_cell_length_c	19.805399
_cell_angle_alpha	99.696252
_cell_angle_beta	99.708967
_cell_angle_gamma	88.373165
loop_
_atom_site_label
_atom_site_type_symbol
_atom_site_fract_x
_atom_site_fract_y
_atom_site_fract_z
Zn1	Zn	1.399655	-0.117265	0.549564
Zn2	Zn	1.899655	0.382735	1.049564
Zn3	Zn	1.424931	-0.263754	0.420664
Zn4	Zn	1.924931	0.236246	0.920664
Zn5	Zn	1.253168	-0.142606	0.414048
Zn6	Zn	1.753168	0.357394	0.914048
Zn7	Zn	1.278495	-0.289014	0.511488
Zn8	Zn	1.778495	0.210986	1.011488
O9	O	1.339062	-0.203160	0.473941
O10	O	1.839062	0.296840	0.973941
O11	O	1.525598	-0.115520	0.551169
O12	O	2.025598	0.384480	1.051169
O13	O	1.402125	-0.247717	0.325063
O14	O	1.902125	0.252283	0.825063
O15	O	1.251423	-0.016666	0.445191
O16	O	1.751423	0.483334	0.945191
O17	O	1.544168	-0.223145	0.456467
O18	O	2.044168	0.276855	0.956467
O19	O	1.359046	0.001952	0.544753
O20	O	1.859046	0.501952	1.044753
O21	O	1.275932	-0.158711	0.320202
O22	O	1.775932	0.341289	0.820202
O23	O	1.133938	-0.183205	0.408270
O24	O	1.633938	0.316795	0.908270
O25	O	1.294588	-0.266197	0.611262
O26	O	1.794588	0.233803	1.111262
O27	O	1.152546	-0.290770	0.479858
O28	O	1.652546	0.209230	0.979858
O29	O	1.383604	-0.140013	0.639237
O30	O	1.883604	0.359987	1.139237
O31	O	1.426683	-0.389683	0.419546
O32	O	1.926683	0.110317	0.919546
O33	O	1.319097	-0.408241	0.486274
O34	O	1.819097	0.091759	0.986274
C35	C	1.111456	-0.242479	0.439215
C36	C	1.611456	0.257521	0.939215
C37	C	1.014089	-0.259321	0.424373
C38	C	1.514089	0.240679	0.924373
C39	C	0.701017	-0.083008	0.579998
C40	C	1.201017	0.416992	1.079998
C41	C	0.792498	-0.067186	0.593947
C42	C	1.292498	0.432814	1.093947
C43	C	0.847900	-0.115218	0.551554
C44	C	1.347900	0.384782	1.051554
C45	C	0.811812	-0.179075	0.495211
C46	C	1.311812	0.320925	0.995211
C47	C	0.720322	-0.194903	0.481264
C48	C	1.220322	0.305097	0.981264
C49	C	0.867206	-0.227113	0.452821
C50	C	1.367206	0.272887	0.952821
C51	C	0.831117	-0.290970	0.396477
C52	C	1.331117	0.209030	0.896477
C53	C	0.739636	-0.306794	0.382533
C54	C	1.239636	0.193206	0.882533
C55	C	0.684234	-0.258762	0.424925
C56	C	1.184234	0.241238	0.924925
C57	C	0.958696	-0.211285	0.466767
C58	C	1.458696	0.288715	0.966767
C59	C	0.978001	-0.323180	0.368034
C60	C	1.478001	0.176820	0.868034
C61	C	0.886519	-0.339001	0.354085
C62	C	1.386519	0.160999	0.854085
C63	C	1.378405	-0.430741	0.449514
C64	C	1.878405	0.069259	0.949514
C65	C	1.395316	-0.528088	0.439099
C66	C	1.895316	-0.028088	0.939099
C67	C	1.218770	-0.841293	0.548530
C68	C	1.718770	-0.341293	1.048530
C69	C	1.202884	-0.749831	0.558321
C70	C	1.702884	-0.249831	1.058321
C71	C	1.250990	-0.694391	0.528516
C72	C	1.750990	-0.194391	1.028516
C73	C	1.314986	-0.730422	0.488920
C74	C	1.814986	-0.230422	0.988920
C75	C	1.330879	-0.821892	0.479133
C76	C	1.830879	-0.321892	0.979133
C77	C	1.363099	-0.674989	0.459119
C78	C	1.863099	-0.174989	0.959119
C79	C	1.427095	-0.711020	0.419522
C80	C	1.927095	-0.211020	0.919522
C81	C	1.442985	-0.802482	0.409737
C82	C	1.942985	-0.302482	0.909737
C83	C	1.394879	-0.857922	0.439541
C84	C	1.894879	-0.357922	0.939541
C85	C	1.347206	-0.583519	0.468905
C86	C	1.847206	-0.083519	0.968905
C87	C	1.459315	-0.564118	0.399508
C88	C	1.959315	-0.064118	0.899508
C89	C	1.475201	-0.655580	0.389717
C90	C	1.975201	-0.155580	0.889717
C91	C	1.567557	-0.163688	0.508803
C92	C	2.067557	0.336312	1.008803
C93	C	1.664929	-0.146867	0.523659
C94	C	2.164929	0.353133	1.023659
C95	C	1.339102	-0.203096	0.650497
C96	C	1.839102	0.296904	1.150497
C97	C	1.339119	-0.203069	0.725735
C98	C	1.839119	0.296931	1.225735
C99	C	1.299590	0.025315	0.498481
C100	C	1.799590	0.525315	0.998481
C101	C	1.282770	0.122677	0.508939
C102	C	1.782770	0.622677	1.008939
C103	C	1.339062	-0.203151	0.298086
C104	C	1.839062	0.296849	0.798086
C105	C	1.339173	-0.202902	0.222901
C106	C	1.839173	0.297098	0.722901
C107	C	1.385470	-0.137362	0.775647
C108	C	1.885470	0.362638	1.275647
C109	C	1.385475	-0.137335	0.846339
C110	C	1.885475	0.362665	1.346339
C111	C	1.339133	-0.203019	0.867119
C112	C	1.839133	0.296981	1.367119
C113	C	1.292775	-0.268730	0.817201
C114	C	1.792775	0.231270	1.317201
C115	C	1.292766	-0.268752	0.746509
C116	C	1.792766	0.231248	1.246509
C117	C	1.292811	-0.268639	1.102290
C118	C	1.792811	0.231361	1.602290
C119	C	1.292826	-0.268613	1.172988
C120	C	1.792826	0.231387	1.672988
C121	C	1.385519	-0.137223	1.202120
C122	C	1.885519	0.362777	1.702120
C123	C	1.385510	-0.137245	1.131429
C124	C	1.885510	0.362755	1.631429
C125	C	1.339149	-0.202952	1.081517
C126	C	1.839149	0.297048	1.581517
C127	C	1.339144	-0.202980	1.004864
C128	C	1.839144	0.297020	1.504864
C129	C	1.339143	-0.202996	0.943770
C130	C	1.839143	0.297004	1.443770
H131	H	0.988069	-0.159292	0.512642
H132	H	1.488069	0.340708	1.012642
O133	O	1.166892	-0.901082	0.580679
O134	O	1.666892	-0.401082	1.080679
H135	H	1.095108	-0.895474	0.560415
H136	H	1.595108	-0.395474	1.060415
H137	H	1.255076	-0.322153	1.061660
H138	H	1.755076	0.177847	1.561660
H139	H	1.238051	-0.619919	0.536490
H140	H	1.738051	-0.119919	1.036490
O141	O	1.133844	-0.710971	0.601005
O142	O	1.633844	-0.210971	1.101005
H143	H	1.103050	-0.764888	0.620074
H144	H	1.603050	-0.264888	1.120074
H145	H	1.255012	-0.322250	0.705870
H146	H	1.755012	0.177750	1.205870
H147	H	1.527308	-0.684929	0.357478
H148	H	2.027308	-0.184929	0.857478
H149	H	0.710257	-0.358797	0.336659
H150	H	1.210257	0.141203	0.836659
H151	H	1.407805	-0.932400	0.431567
H152	H	1.907805	-0.432400	0.931567
H153	H	1.255039	-0.322208	0.834124
H154	H	1.755039	0.177792	1.334124
O155	O	1.242826	-0.339455	1.195397
O156	O	1.742826	0.160545	1.695397
H157	H	1.289734	-0.377249	1.228795
H158	H	1.789734	0.122751	1.728795
O159	O	1.512010	-0.841348	0.367033
O160	O	2.012010	-0.341348	0.867033
H161	H	1.542787	-0.787436	0.347946
H162	H	2.042787	-0.287436	0.847946
H163	H	1.498489	-0.518978	0.375240
H164	H	1.998489	-0.018978	0.875240
H165	H	1.423250	-0.083761	1.114516
H166	H	1.923250	0.416239	1.614516
O167	O	1.037747	-0.374988	0.322305
O168	O	1.537747	0.125012	0.822305
H169	H	1.017537	-0.362920	0.268143
H170	H	1.517537	0.137080	0.768143
H171	H	0.922388	-0.102330	0.562913
H172	H	1.422388	0.397670	1.062913
O173	O	0.831414	0.001695	0.654705
O174	O	1.331414	0.501695	1.154705
H175	H	0.816491	-0.016442	0.703514
H176	H	1.316491	0.483558	1.203514
O177	O	1.435474	-0.066471	0.900176
O178	O	1.935474	0.433529	1.400176
H179	H	1.467708	-0.020809	0.873851
H180	H	1.967708	0.479191	1.373851
O181	O	0.641261	-0.031215	0.625717
O182	O	1.141261	0.468785	1.125717
H183	H	0.681721	0.015846	0.667241
H184	H	1.181721	0.515846	1.167241
H185	H	1.423211	-0.083877	0.758735
H186	H	1.923211	0.416123	1.258735
H187	H	0.857122	-0.390995	0.308210
H188	H	1.357122	0.109005	0.808210
O189	O	1.435497	-0.066327	1.255952
O190	O	1.935497	0.433673	1.755952
H191	H	1.427705	-0.077331	1.308600
H192	H	1.927705	0.422669	1.808600
H193	H	1.295100	-0.554191	0.501145
H194	H	1.795100	-0.054191	1.001145
H195	H	0.609742	-0.271646	0.413575
H196	H	1.109742	0.228354	0.913575
