data_functionalizedCrystal
_audit_creation_method	'MofGen! by Chris Wilmer'
_symmetry_space_group_name_H-M	'P1'
_symmetry_Int_Tables_number	1
_symmetry_cell_setting	triclinic
loop_
_symmetry_equiv_pos_as_xyz
  x,y,z
_cell_length_a	20.016444
_cell_length_b	14.560438
_cell_length_c	14.560438
_cell_angle_alpha	89.999809
_cell_angle_beta	59.998882
_cell_angle_gamma	60.003461
loop_
_atom_site_label
_atom_site_type_symbol
_atom_site_fract_x
_atom_site_fract_y
_atom_site_fract_z
Zr1	Zr	0.731251	-0.120491	0.884760
O2	O	0.870621	-0.267124	0.738113
O3	O	0.591879	-0.075546	0.929715
O4	O	0.731249	-0.267138	0.929714
O5	O	0.731253	0.075605	0.738114
O6	O	0.731250	-0.267141	1.080853
O7	O	0.731251	-0.075533	0.738113
O8	O	0.481941	0.075581	1.080854
O9	O	0.980561	-0.267117	0.738113
O10	O	0.649205	-0.056372	1.061681
O11	O	0.649206	0.056423	0.948889
O12	O	0.813297	-0.169151	0.948888
O13	O	0.813298	-0.056356	0.836095
Zr14	Zr	0.731254	0.120553	1.125811
Zr15	Zr	0.731252	-0.120495	1.125809
Zr16	Zr	0.731254	0.120557	0.884761
Zr17	Zr	0.906592	-0.120479	0.884760
Zr18	Zr	0.555913	0.120541	1.125810
O19	O	0.870626	0.075608	1.080856
O20	O	0.870622	-0.267131	1.080854
O21	O	0.870625	0.075615	0.738114
O22	O	0.591884	0.267186	1.272458
O23	O	0.591880	-0.075553	1.272456
O24	O	0.591883	0.267193	0.929717
O25	O	0.731253	-0.075543	1.272457
O26	O	0.731256	0.267200	1.080856
O27	O	0.731256	0.267203	0.929717
O28	O	0.731254	0.075595	1.272458
O29	O	0.980561	-0.267121	0.929715
O30	O	0.481944	0.267183	1.080855
O31	O	0.481944	0.267179	1.272458
O32	O	0.481942	0.075578	1.272457
O33	O	0.980563	-0.075516	0.738114
O34	O	0.980564	-0.075519	0.929716
O35	O	0.649208	0.169213	1.061683
O36	O	0.649207	0.056418	1.174476
O37	O	0.813299	-0.056361	1.061682
O38	O	0.813300	0.056434	0.948889
C39	C	0.511928	0.000016	1.005285
C40	C	0.437491	0.000011	1.005284
C41	C	0.731252	0.000037	0.703769
C42	C	0.731251	0.000039	0.601437
C43	C	0.731256	0.301545	1.005287
C44	C	0.731258	0.403877	1.005287
C45	C	0.266221	-0.058848	1.064165
C46	C	0.196273	-0.058840	1.064168
C47	C	0.196288	0.058918	0.946404
C48	C	0.266229	0.058915	0.946408
C49	C	0.301197	0.000025	1.005286
C50	C	0.161308	0.000037	1.005285
C51	C	0.085468	0.000047	1.005288
C52	C	0.377041	0.000017	1.005285
C53	C	0.950577	0.000046	1.005286
C54	C	1.025014	0.000051	1.005286
C55	C	0.731249	-0.301483	1.005284
C56	C	0.731248	-0.403815	1.005283
C57	C	0.816910	0.393085	0.946412
C58	C	0.816906	0.489240	0.946406
C59	C	0.645588	0.606974	1.064160
C60	C	0.645594	0.510821	1.064159
C61	C	0.731255	0.083292	0.457199
C62	C	0.731250	0.083302	0.553354
C63	C	0.731247	-0.083234	0.553367
C64	C	0.731245	-0.083239	0.457218
C65	C	0.731254	0.000025	1.306802
C66	C	0.731254	0.000023	1.409133
C67	C	0.511929	0.000010	1.306801
C68	C	0.437492	0.000003	1.409132
C69	C	0.511931	0.301530	1.005286
C70	C	0.437496	0.403856	1.005286
C71	C	0.511932	0.301524	1.306802
C72	C	0.437497	0.403849	1.409134
C73	C	0.950573	-0.301462	0.703768
C74	C	1.025008	-0.403786	0.601436
C75	C	0.950576	0.000052	0.703770
C76	C	1.025013	0.000059	0.601438
C77	C	0.950574	-0.301468	1.005284
C78	C	1.025009	-0.403794	1.005284
C79	C	0.402535	-0.058886	1.398311
C80	C	0.332604	-0.058915	1.494453
C81	C	0.297626	-0.000048	1.601416
C82	C	0.332590	0.058843	1.612235
C83	C	0.402525	0.058864	1.516094
C84	C	0.402541	0.510795	1.064164
C85	C	0.332611	0.606951	1.064160
C86	C	0.297632	0.596165	1.005284
C87	C	0.332593	0.489214	0.946400
C88	C	0.402527	0.393061	0.946398
C89	C	0.402541	0.393023	1.516078
C90	C	0.332611	0.489158	1.612239
C91	C	0.297634	0.596118	1.601454
C92	C	0.332597	0.606941	1.494500
C93	C	0.402530	0.510807	1.398341
C94	C	1.059973	-0.392961	0.494493
C95	C	1.129924	-0.489096	0.398332
C96	C	1.164905	-0.596056	0.409116
C97	C	1.129938	-0.606879	0.516071
C98	C	1.059992	-0.510745	0.612229
C99	C	1.059977	0.058938	0.612260
C100	C	1.129928	0.058941	0.516117
C101	C	1.164908	0.000070	0.409155
C102	C	1.129941	-0.058816	0.398336
C103	C	1.059996	-0.058824	0.494477
C104	C	1.059966	-0.392972	1.064171
C105	C	1.129897	-0.489109	1.064193
C106	C	1.164874	-0.596067	1.005320
C107	C	1.129911	-0.606887	0.946432
C108	C	1.059976	-0.510751	0.946417
H109	H	0.294688	-0.106798	1.112108
H110	H	1.031525	-0.519572	0.699305
H111	H	1.031530	-0.106768	0.485650
H112	H	0.167796	-0.106778	1.112114
H113	H	0.431010	0.305940	1.524880
H114	H	1.221820	-0.674338	1.005341
H115	H	0.167809	0.106862	0.898467
H116	H	0.431013	-0.106836	1.311225
Cl117	Cl	0.731248	0.187989	0.613778
Cl118	Cl	0.288670	0.741388	1.138197
Cl119	Cl	0.731242	-0.187906	0.613817
Cl120	Cl	0.209712	0.717056	1.005300
H121	H	1.158383	-0.480262	0.311255
Cl122	Cl	0.731238	-0.187923	0.396792
Cl123	Cl	0.537907	0.524388	1.138173
H124	H	1.158400	-0.693985	0.898499
Cl125	Cl	0.288660	-0.132950	1.480826
H126	H	1.031498	-0.305890	1.112112
Cl127	Cl	0.310197	0.132942	0.872391
H128	H	0.886663	0.306011	0.898472
Cl129	Cl	0.209705	-0.000084	1.722269
H130	H	0.304101	0.106770	1.699336
H131	H	0.886653	0.480444	0.898462
Cl132	Cl	0.446456	0.132913	1.529718
H133	H	0.575844	0.694058	1.112094
Cl134	Cl	1.016048	-0.524376	0.872367
Cl135	Cl	0.446498	0.524385	1.138191
Cl136	Cl	0.288607	0.475674	0.872393
H137	H	0.731260	0.151090	0.418051
H138	H	1.031502	0.106885	0.699345
H139	H	0.430978	0.305990	0.898456
H140	H	1.221861	0.000087	0.330880
Cl141	Cl	0.209714	0.716963	1.722352
H142	H	1.221859	-0.674325	0.330808
Cl143	Cl	0.288668	0.475526	1.746681
Cl144	Cl	1.173922	-0.132814	0.263860
H145	H	1.158429	-0.693977	0.524838
Cl146	Cl	0.288613	0.741413	1.480961
H147	H	0.430982	0.519637	1.311267
Cl148	Cl	1.173868	0.132981	0.529744
Cl149	Cl	1.016010	-0.258509	0.480906
H150	H	1.158357	-0.480277	1.112145
