data_functionalizedCrystal
_audit_creation_method	'MofGen! by Chris Wilmer'
_symmetry_space_group_name_H-M	'P1'
_symmetry_Int_Tables_number	1
_symmetry_cell_setting	triclinic
loop_
_symmetry_equiv_pos_as_xyz
  x,y,z
_cell_length_a	14.519709
_cell_length_b	14.519731
_cell_length_c	13.330367
_cell_angle_alpha	89.994378
_cell_angle_beta	89.998062
_cell_angle_gamma	83.684499
loop_
_atom_site_label
_atom_site_type_symbol
_atom_site_fract_x
_atom_site_fract_y
_atom_site_fract_z
O1	O	1.223881	0.120889	-0.083295
O2	O	0.955405	0.135126	-0.083326
O3	O	1.096751	-0.006230	-0.083301
O4	O	1.082535	0.262245	-0.083321
O5	O	1.096730	-0.006233	0.083546
O6	O	0.955385	0.135123	0.083521
O7	O	1.223860	0.120886	0.083552
Cu8	Cu	1.089621	0.128004	0.098771
Cu9	Cu	1.089645	0.128008	-0.098545
O10	O	1.082514	0.262242	0.083527
C11	C	0.921035	0.134461	0.000094
C12	C	0.818654	0.132473	0.000082
C13	C	1.096075	-0.040591	0.000123
C14	C	1.094079	-0.142971	0.000123
C15	C	0.443757	0.125153	0.000128
C16	C	0.548065	0.127186	0.000115
C17	C	0.631202	0.128813	0.000104
C18	C	0.735517	0.130846	0.000093
C19	C	1.092457	-0.226115	0.000121
C20	C	1.090430	-0.330424	0.000113
C21	C	1.088822	-0.413563	0.000106
C22	C	1.086795	-0.517878	0.000100
C23	C	1.258230	0.121551	0.000130
C24	C	1.360612	0.123539	0.000135
C25	C	1.083191	0.296603	0.000101
C26	C	1.085187	0.398983	0.000094
N27	N	1.089610	0.128001	0.237552
N28	N	1.089662	0.128004	-0.237327
C29	C	1.027054	0.190575	0.710164
C30	C	1.152260	0.065433	0.710155
C31	C	1.152250	0.065430	0.605136
C32	C	1.089642	0.128002	0.552627
C33	C	1.027044	0.190576	0.605136
C34	C	1.214853	0.002863	0.552619
C35	C	1.214846	0.002859	0.447595
C36	C	1.152232	0.065427	0.395083
C37	C	1.089631	0.128003	0.447599
C38	C	1.027023	0.190574	0.395090
C39	C	0.964416	0.253147	0.447603
C40	C	0.964430	0.253144	0.552625
C41	C	1.152219	0.065429	0.290062
C42	C	1.027012	0.190575	0.290062
H43	H	0.976025	0.241526	0.247315
H44	H	0.913459	0.304089	0.595388
C45	C	1.221075	-0.003388	0.232296
H46	H	1.212106	0.005576	0.162229
H47	H	1.210967	-0.064962	0.249518
H48	H	1.282642	0.006778	0.249495
H49	H	0.976078	0.241519	0.752923
H50	H	1.203239	0.014494	0.752911
H51	H	1.265832	-0.048076	0.595376
H52	H	0.913444	0.304097	0.404838
C53	C	1.283700	-0.065975	0.389839
H54	H	1.320983	-0.103244	0.436154
H55	H	1.322140	-0.032720	0.348853
H56	H	1.250448	-0.104443	0.348887
