data_functionalizedCrystal
_audit_creation_method	'MofGen! by Chris Wilmer'
_symmetry_space_group_name_H-M	'P1'
_symmetry_Int_Tables_number	1
_symmetry_cell_setting	triclinic
loop_
_symmetry_equiv_pos_as_xyz
  x,y,z
_cell_length_a	14.908795
_cell_length_b	14.908520
_cell_length_c	18.215399
_cell_angle_alpha	93.269364
_cell_angle_beta	86.680037
_cell_angle_gamma	96.791092
loop_
_atom_site_label
_atom_site_type_symbol
_atom_site_fract_x
_atom_site_fract_y
_atom_site_fract_z
Zn1	Zn	1.363047	-0.280636	-0.493576
Zn2	Zn	1.696380	0.052698	-0.160243
Zn3	Zn	2.029714	0.386031	0.173091
Zn4	Zn	1.354205	-0.432014	-0.377216
Zn5	Zn	1.687539	-0.098681	-0.043883
Zn6	Zn	2.020872	0.234653	0.289450
Zn7	Zn	1.211674	-0.289386	-0.363799
Zn8	Zn	1.545007	0.043948	-0.030466
Zn9	Zn	1.878340	0.377281	0.302867
Zn10	Zn	1.202907	-0.440680	-0.493517
Zn11	Zn	1.536241	-0.107347	-0.160184
Zn12	Zn	1.869574	0.225987	0.173150
O13	O	1.282958	-0.360679	-0.432027
O14	O	1.616292	-0.027346	-0.098694
O15	O	1.949625	0.305988	0.234640
O16	O	1.488543	-0.293428	-0.483780
O17	O	1.821876	0.039905	-0.150447
O18	O	2.155210	0.373239	0.182886
O19	O	1.335267	-0.413129	-0.272452
O20	O	1.668600	-0.079796	0.060881
O21	O	2.001933	0.253537	0.394214
O22	O	1.239122	-0.161555	-0.375424
O23	O	1.572456	0.171778	-0.042091
O24	O	1.905789	0.505111	0.291243
O25	O	1.482047	-0.404645	-0.398292
O26	O	1.815381	-0.071312	-0.064958
O27	O	2.148714	0.262022	0.268375
O28	O	1.350336	-0.155127	-0.470770
O29	O	1.683669	0.178207	-0.137437
O30	O	2.017002	0.511540	0.195896
O31	O	1.230549	-0.308341	-0.262595
O32	O	1.563883	0.024993	0.070738
O33	O	1.897216	0.358326	0.404072
O34	O	1.083842	-0.316744	-0.375367
O35	O	1.417175	0.016590	-0.042034
O36	O	1.750508	0.349923	0.291300
O37	O	1.224182	-0.419415	-0.596509
O38	O	1.557515	-0.086081	-0.263176
O39	O	1.890848	0.247252	0.070158
O40	O	1.077401	-0.427899	-0.470670
O41	O	1.410735	-0.094566	-0.137337
O42	O	1.744068	0.238768	0.195997
O43	O	1.341836	-0.301831	-0.596552
O44	O	1.675169	0.031503	-0.263219
O45	O	2.008502	0.364836	0.070114
O46	O	1.326767	-0.559833	-0.398234
O47	O	1.660100	-0.226500	-0.064901
O48	O	1.993433	0.106833	0.268432
O49	O	1.215609	-0.566200	-0.483680
O50	O	1.548942	-0.232867	-0.150347
O51	O	1.882275	0.100467	0.182987
C52	C	1.047778	-0.374212	-0.421557
C53	C	1.381111	-0.040878	-0.088223
C54	C	1.714444	0.292455	0.245110
C55	C	0.947165	-0.380023	-0.417096
C56	C	1.280498	-0.046690	-0.083762
C57	C	1.613832	0.286644	0.249571
C58	C	0.801981	-0.446022	-0.366222
C59	C	1.135314	-0.112688	-0.032888
C60	C	1.468648	0.220645	0.300445
C61	C	0.896515	-0.440565	-0.370413
C62	C	1.229849	-0.107232	-0.037080
C63	C	1.563182	0.226101	0.296254
C64	C	0.903274	-0.324931	-0.459588
C65	C	1.236607	0.008402	-0.126255
C66	C	1.569940	0.341735	0.207078
C67	C	0.808739	-0.330388	-0.455397
C68	C	1.142073	0.002946	-0.122064
C69	C	1.475406	0.336279	0.211270
C70	C	0.758096	-0.390936	-0.408713
C71	C	1.091430	-0.057603	-0.075380
C72	C	1.424763	0.275731	0.257954
C73	C	0.663560	-0.396396	-0.404526
C74	C	0.996893	-0.063063	-0.071193
C75	C	1.330227	0.270270	0.262141
C76	C	0.670320	-0.280758	-0.493697
C77	C	1.003654	0.052575	-0.160364
C78	C	1.336987	0.385908	0.172970
C79	C	0.764855	-0.275302	-0.497888
C80	C	1.098188	0.058031	-0.164555
C81	C	1.431521	0.391365	0.168779
C82	C	1.269301	-0.595859	-0.442424
C83	C	1.602635	-0.262526	-0.109091
C84	C	1.935968	0.070807	0.224243
C85	C	1.263542	-0.696466	-0.446900
C86	C	1.596875	-0.363132	-0.113567
C87	C	1.930208	-0.029799	0.219767
C88	C	1.368587	-0.878818	-0.366418
C89	C	1.701920	-0.545485	-0.033084
C90	C	2.035253	-0.212151	0.300249
C91	C	1.363178	-0.973346	-0.370621
C92	C	1.696511	-0.640013	-0.037288
C93	C	2.029845	-0.306680	0.296046
C94	C	1.247321	-0.980052	-0.459514
C95	C	1.580654	-0.646719	-0.126180
C96	C	1.913988	-0.313386	0.207153
C97	C	1.252730	-0.885524	-0.455310
C98	C	1.586063	-0.552191	-0.121977
C99	C	1.919396	-0.218857	0.211356
C100	C	1.313364	-0.834910	-0.408760
C101	C	1.646697	-0.501577	-0.075427
C102	C	1.980030	-0.168243	0.257907
C103	C	1.318767	-0.740380	-0.404553
C104	C	1.652100	-0.407047	-0.071220
C105	C	1.985434	-0.073713	0.262114
C106	C	1.202915	-0.747087	-0.493449
C107	C	1.536248	-0.413754	-0.160116
C108	C	1.869582	-0.080421	0.173218
C109	C	1.197506	-0.841616	-0.497652
C110	C	1.530840	-0.508283	-0.164319
C111	C	1.864173	-0.174949	0.169014
C112	C	1.519057	-0.347094	-0.442539
C113	C	1.852391	-0.013760	-0.109206
C114	C	2.185724	0.319573	0.224128
C115	C	1.619669	-0.341305	-0.447019
C116	C	1.953002	-0.007971	-0.113685
C117	C	2.286336	0.325362	0.219648
C118	C	1.283017	-0.360613	-0.623980
C119	C	1.616350	-0.027280	-0.290647
C120	C	1.949684	0.306053	0.042687
C121	C	1.283042	-0.360585	-0.705779
C122	C	1.616375	-0.027252	-0.372445
C123	C	1.949709	0.306081	-0.039112
C124	C	1.296693	-0.124579	-0.421607
C125	C	1.630027	0.208755	-0.088274
C126	C	1.963360	0.542088	0.245060
C127	C	1.302546	-0.023967	-0.417167
C128	C	1.635880	0.309366	-0.083833
C129	C	1.969213	0.642700	0.249500
C130	C	1.344328	-0.299304	-0.893995
C131	C	1.677662	0.034029	-0.560662
C132	C	2.010995	0.367363	-0.227328
C133	C	1.344341	-0.299277	-0.970853
C134	C	1.677674	0.034056	-0.637520
C135	C	2.011007	0.367390	-0.304186
C136	C	1.221828	-0.421723	-0.970797
C137	C	1.555161	-0.088390	-0.637464
C138	C	1.888495	0.244944	-0.304130
C139	C	1.221812	-0.421745	-0.893940
C140	C	1.555145	-0.088411	-0.560607
C141	C	1.888479	0.244922	-0.227273
C142	C	1.283067	-0.360537	-0.855541
C143	C	1.616401	-0.027203	-0.522208
C144	C	1.949734	0.306130	-0.188874
C145	C	1.283096	-0.360488	-1.009256
C146	C	1.616429	-0.027154	-0.675923
C147	C	1.949762	0.306179	-0.342590
C148	C	1.283108	-0.360459	-1.092589
C149	C	1.616442	-0.027125	-0.759256
C150	C	1.949775	0.306208	-0.425923
C151	C	1.283054	-0.360564	-0.772203
C152	C	1.616387	-0.027231	-0.438869
C153	C	1.949720	0.306103	-0.105536
C154	C	1.282956	-0.360676	-0.240821
C155	C	1.616289	-0.027343	0.092513
C156	C	1.949622	0.305991	0.425846
C157	C	1.283121	-0.360439	-0.159019
C158	C	1.616454	-0.027105	0.174315
C159	C	1.949787	0.306228	0.507648
H160	H	0.932242	-0.485421	-0.335812
H161	H	1.265576	-0.152088	-0.002478
H162	H	1.598909	0.181246	0.330855
H163	H	0.944524	-0.275631	-0.497592
H164	H	1.277857	0.057703	-0.164258
H165	H	1.611191	0.391036	0.169075
Br166	Br	1.138703	-0.504790	-1.022914
Br167	Br	1.472036	-0.171457	-0.689581
Br168	Br	1.805370	0.161876	-0.356248
Br169	Br	0.833592	-0.193132	-0.561240
Br170	Br	1.166926	0.140202	-0.227907
Br171	Br	1.500259	0.473535	0.105427
Br172	Br	1.401049	-0.671690	-0.341374
Br173	Br	1.734382	-0.338357	-0.008040
Br174	Br	2.067715	-0.005024	0.325293
H175	H	0.634580	-0.235905	-0.528298
H176	H	0.967913	0.097429	-0.194964
H177	H	1.301246	0.430762	0.138369
Br178	Br	1.138658	-0.504845	-0.841747
Br179	Br	1.471991	-0.171511	-0.508413
Br180	Br	1.805325	0.161822	-0.175080
Br181	Br	0.594830	-0.478575	-0.341177
Br182	Br	0.928163	-0.145241	-0.007843
Br183	Br	1.261496	0.188092	0.325490
H184	H	1.417951	-0.837608	-0.328509
H185	H	1.751284	-0.504274	0.004824
H186	H	2.084618	-0.170941	0.338158
Br187	Br	1.165054	-1.048757	-0.522697
Br188	Br	1.498387	-0.715423	-0.189363
Br189	Br	1.831721	-0.382090	0.143970
H190	H	0.760746	-0.495330	-0.328216
H191	H	1.094079	-0.161996	0.005117
H192	H	1.427413	0.171337	0.338451
Br193	Br	1.438131	-1.032934	-0.313158
Br194	Br	1.771465	-0.699601	0.020175
Br195	Br	2.104798	-0.366267	0.353508
H196	H	1.148143	-0.882838	-0.535554
H197	H	1.481476	-0.549505	-0.202221
H198	H	1.814809	-0.216172	0.131112
Br199	Br	1.127949	-0.687495	-0.550904
Br200	Br	1.461282	-0.354161	-0.217570
Br201	Br	1.794616	-0.020828	0.115763
Br202	Br	1.427491	-0.216178	-1.023038
Br203	Br	1.760824	0.117155	-0.689705
Br204	Br	2.094157	0.450488	-0.356372
Br205	Br	1.427458	-0.216235	-0.841884
Br206	Br	1.760792	0.117099	-0.508551
Br207	Br	2.094125	0.450432	-0.175218
