data_functionalizedCrystal
_audit_creation_method	'MofGen! by Chris Wilmer'
_symmetry_space_group_name_H-M	'P1'
_symmetry_Int_Tables_number	1
_symmetry_cell_setting	triclinic
loop_
_symmetry_equiv_pos_as_xyz
  x,y,z
_cell_length_a	19.288864
_cell_length_b	16.992695
_cell_length_c	17.766277
_cell_angle_alpha	89.993690
_cell_angle_beta	89.976791
_cell_angle_gamma	86.902234
loop_
_atom_site_label
_atom_site_type_symbol
_atom_site_fract_x
_atom_site_fract_y
_atom_site_fract_z
O1	O	0.927053	0.097795	-0.062838
O2	O	1.427053	0.597795	0.437162
O3	O	0.725561	0.110988	-0.062787
O4	O	1.225561	0.610988	0.437213
O5	O	0.825499	-0.009748	-0.062806
O6	O	1.325499	0.490252	0.437194
O7	O	0.827114	0.218531	-0.062819
O8	O	1.327114	0.718531	0.437181
O9	O	0.825480	-0.009754	0.062382
O10	O	1.325480	0.490246	0.562382
O11	O	0.725542	0.110982	0.062402
O12	O	1.225542	0.610982	0.562402
O13	O	0.927034	0.097789	0.062351
O14	O	1.427034	0.597789	0.562351
Cu15	Cu	0.826286	0.104385	0.073807
Cu16	Cu	1.326286	0.604385	0.573807
Cu17	Cu	0.826308	0.104392	-0.074243
Cu18	Cu	1.326308	0.604392	0.425757
O19	O	0.827095	0.218525	0.062370
O20	O	1.327095	0.718525	0.562370
C21	C	0.699650	0.110560	-0.000186
C22	C	1.199650	0.610560	0.499814
C23	C	0.622472	0.109286	-0.000166
C24	C	1.122472	0.609286	0.499834
C25	C	0.581905	0.180128	-0.000182
C26	C	1.081905	0.680128	0.499818
C27	C	0.509388	0.178931	-0.000190
C28	C	1.009388	0.678931	0.499810
C29	C	0.477442	0.106888	-0.000198
C30	C	0.977442	0.606888	0.499802
C31	C	0.518018	0.036036	-0.000178
C32	C	1.018018	0.536036	0.499822
C33	C	0.590534	0.037235	-0.000162
C34	C	1.090534	0.537235	0.499838
C35	C	0.365886	0.050256	-0.044079
C36	C	0.865886	0.550256	0.455921
C37	C	0.293371	0.049059	-0.044099
C38	C	0.793371	0.549059	0.455901
C39	C	0.253780	0.103186	-0.000243
C40	C	0.753780	0.603186	0.499757
C41	C	0.286711	0.158522	0.043624
C42	C	0.786711	0.658522	0.543624
C43	C	0.359227	0.159722	0.043640
C44	C	0.859227	0.659722	0.543640
C45	C	0.398811	0.105579	-0.000214
C46	C	0.898811	0.605579	0.499786
C47	C	0.134581	0.172735	-0.000267
C48	C	0.634581	0.672735	0.499733
C49	C	0.062063	0.171535	-0.000270
C50	C	0.562063	0.671535	0.499730
C51	C	0.070695	0.028638	-0.000266
C52	C	0.570695	0.528638	0.499734
C53	C	0.143212	0.029840	-0.000254
C54	C	0.643212	0.529840	0.499746
C55	C	0.175150	0.101891	-0.000259
C56	C	0.675150	0.601891	0.499741
C57	C	0.823411	-0.038957	-0.000211
C58	C	1.323411	0.461043	0.499789
C59	C	0.817211	-0.125979	-0.000210
C60	C	1.317211	0.374021	0.499790
C61	C	0.877039	-0.176431	-0.000224
C62	C	1.377039	0.323569	0.499776
C63	C	0.871208	-0.258197	-0.000230
C64	C	1.371208	0.241803	0.499770
C65	C	0.805549	-0.289509	-0.000216
C66	C	1.305549	0.210491	0.499784
C67	C	0.745717	-0.239051	-0.000204
C68	C	1.245717	0.260949	0.499796
C69	C	0.751548	-0.157287	-0.000204
C70	C	1.251548	0.342713	0.499796
C71	C	0.781382	-0.533022	-0.000220
C72	C	1.281382	-0.033022	0.499780
C73	C	0.775556	-0.614793	-0.000218
C74	C	1.275556	-0.114793	0.499782
C75	C	0.901048	-0.633933	-0.000246
C76	C	1.401048	-0.133933	0.499754
C77	C	0.906873	-0.552166	-0.000241
C78	C	1.406873	-0.052166	0.499759
C79	C	0.847041	-0.501715	-0.000233
C80	C	1.347041	-0.001715	0.499767
N81	N	0.799588	-0.373087	-0.000219
N82	N	1.299588	0.126913	0.499781
N83	N	0.853002	-0.418138	-0.000235
N84	N	1.353002	0.081862	0.499765
C85	C	0.952944	0.098217	-0.000252
C86	C	1.452944	0.598217	0.499748
C87	C	1.030122	0.099491	-0.000277
C88	C	1.530122	0.599491	0.499723
C89	C	0.829183	0.247733	-0.000226
C90	C	1.329183	0.747733	0.499774
C91	C	0.835384	0.334756	-0.000233
C92	C	1.335384	0.834756	0.499767
N93	N	0.826275	0.104379	0.177937
N94	N	1.326275	0.604379	0.677937
N95	N	0.826324	0.104391	-0.178373
N96	N	1.326324	0.604391	0.321627
C97	C	0.870544	0.050944	0.217316
C98	C	1.370544	0.550944	0.717316
C99	C	0.870548	0.050940	0.296117
C100	C	1.370548	0.550940	0.796117
C101	C	0.826290	0.104385	0.335538
C102	C	1.326290	0.604385	0.835538
C103	C	0.782012	0.157825	0.296150
C104	C	1.282012	0.657825	0.796150
C105	C	0.782005	0.157822	0.217350
C106	C	1.282005	0.657822	0.717350
C107	C	0.821154	0.175815	0.460373
C108	C	1.321154	0.675815	0.960373
C109	C	0.821167	0.175819	0.539172
C110	C	1.321167	0.675819	1.039172
C111	C	0.826309	0.104395	0.578584
C112	C	1.326309	0.604395	1.078584
C113	C	0.831454	0.032964	0.539188
C114	C	1.331454	0.532964	1.039188
C115	C	0.831446	0.032961	0.460387
C116	C	1.331446	0.532961	0.960387
C117	C	0.826293	0.104394	0.420983
C118	C	1.326293	0.604394	0.920983
C119	C	0.870585	0.050951	0.703408
C120	C	1.370585	0.550951	1.203408
C121	C	0.870584	0.050946	0.782212
C122	C	1.370584	0.550946	1.282212
C123	C	0.782051	0.157838	0.782243
C124	C	1.282051	0.657838	1.282243
C125	C	0.782049	0.157836	0.703441
C126	C	1.282049	0.657836	1.203441
C127	C	0.826319	0.104393	0.664029
C128	C	1.326319	0.604393	1.164029
H129	H	0.160587	0.231403	-0.000259
H130	H	0.660587	0.731403	0.499741
N131	N	0.734274	0.215466	0.338667
N132	N	1.234274	0.715466	0.838667
H133	H	0.762738	0.250105	0.371339
H134	H	1.262738	0.750105	0.871339
H135	H	0.706235	0.249265	0.301714
H136	H	1.206235	0.749265	0.801714
H137	H	0.816982	0.233982	0.571243
H138	H	1.316982	0.733982	1.071243
N139	N	0.918338	-0.006684	0.824691
N140	N	1.418338	0.493316	1.324691
H141	H	0.950740	0.023200	0.857364
H142	H	1.450740	0.523200	1.357364
H143	H	0.889834	-0.041309	0.857363
H144	H	1.389834	0.458691	1.357363
N145	N	0.734311	0.215484	0.660965
N146	N	1.234311	0.715484	1.160965
H147	H	0.741022	0.207374	0.605065
H148	H	1.241022	0.707374	1.105065
H149	H	0.684546	0.206572	0.674766
H150	H	1.184546	0.706572	1.174766
N151	N	0.634297	-0.039174	-0.000154
N152	N	1.134297	0.460826	0.499846
H153	H	0.664553	-0.041862	0.046258
H154	H	1.164553	0.458138	0.546258
H155	H	0.603015	-0.084955	-0.000187
H156	H	1.103015	0.415045	0.499813
N157	N	0.018304	0.247947	-0.000227
N158	N	0.518304	0.747947	0.499773
H159	H	0.049544	0.293770	-0.000211
H160	H	0.549544	0.793770	0.499789
H161	H	-0.011970	0.250600	-0.046623
H162	H	0.488030	0.750600	0.453377
H163	H	0.835634	-0.025201	0.428314
H164	H	1.335634	0.474799	0.928314
N165	N	0.918289	-0.006701	0.174810
N166	N	1.418289	0.493299	0.674810
H167	H	0.889826	-0.041339	0.142136
H168	H	1.389826	0.458661	0.642136
H169	H	0.950684	0.023226	0.142138
H170	H	1.450684	0.523226	0.642138
N171	N	0.036250	-0.049068	-0.000265
N172	N	0.536250	0.450932	0.499735
H173	H	-0.015845	-0.039080	-0.000275
H174	H	0.484155	0.460920	0.499725
H175	H	0.050834	-0.080058	-0.046670
H176	H	0.550834	0.419942	0.453330
N177	N	0.186973	-0.046569	-0.000237
N178	N	0.686973	0.453431	0.499763
H179	H	0.155733	-0.092392	-0.000242
H180	H	0.655733	0.407608	0.499758
H181	H	0.217275	-0.049184	-0.046638
H182	H	0.717275	0.450816	0.453362
H183	H	0.266564	0.004004	-0.079822
H184	H	0.766564	0.504004	0.420178
H185	H	0.692255	-0.264552	-0.000197
H186	H	1.192255	0.235448	0.499803
H187	H	0.960340	-0.526677	-0.000253
H188	H	1.460340	-0.026677	0.499747
H189	H	0.254478	0.202597	0.079337
H190	H	0.754478	0.702597	0.579337
H191	H	0.398115	0.006177	-0.079797
H192	H	0.898115	0.506177	0.420203
N193	N	0.704733	-0.648564	-0.000204
N194	N	1.204733	-0.148564	0.499796
H195	H	0.678326	-0.630151	-0.046609
H196	H	1.178326	-0.130151	0.453391
H197	H	0.710180	-0.708012	-0.000173
H198	H	1.210180	-0.208012	0.499827
N199	N	0.483567	-0.041669	-0.000177
N200	N	0.983567	0.458331	0.499823
H201	H	0.431473	-0.031680	-0.000190
H202	H	0.931473	0.468320	0.499810
H203	H	0.498153	-0.072662	-0.046579
H204	H	0.998153	0.427338	0.453421
H205	H	0.906599	0.007424	0.328185
H206	H	1.406599	0.507424	0.828185
H207	H	0.949760	-0.675018	-0.000254
H208	H	1.449760	-0.175018	0.499746
N209	N	0.918317	-0.006715	0.660908
N210	N	1.418317	0.493285	1.160908
H211	H	0.889844	-0.041347	0.628239
H212	H	1.389844	0.458653	1.128239
H213	H	0.950726	0.023190	0.628231
H214	H	1.450726	0.523190	1.128231
H215	H	0.919927	-0.299272	-0.000240
H216	H	1.419927	0.200728	0.499760
H217	H	0.732662	-0.491954	-0.000213
H218	H	1.232662	0.008046	0.499787
H219	H	0.702829	-0.116209	-0.000192
H220	H	1.202829	0.383791	0.499808
H221	H	0.816955	0.233980	0.428291
H222	H	1.316955	0.733980	0.928291
H223	H	0.930505	-0.150943	-0.000231
H224	H	1.430505	0.349057	0.499769
N225	N	0.837005	-0.044079	0.581683
N226	N	1.337005	0.455921	1.081683
H227	H	0.836226	-0.033242	0.637580
H228	H	1.336226	0.466758	1.137580
H229	H	0.796585	-0.076618	0.567932
H230	H	1.296585	0.423382	1.067932
N231	N	0.734309	0.215479	0.824749
N232	N	1.234309	0.715479	1.324749
H233	H	0.741029	0.207372	0.880645
H234	H	1.241029	0.707372	1.380645
H235	H	0.745412	0.271071	0.810963
H236	H	1.245412	0.771071	1.310963
N237	N	0.734252	0.215461	0.174878
N238	N	1.234252	0.715461	0.674878
H239	H	0.745334	0.271079	0.188579
H240	H	1.245334	0.771079	0.688579
H241	H	0.740984	0.207284	0.118991
H242	H	1.240984	0.707284	0.618991
N243	N	0.616353	0.257837	-0.000192
N244	N	1.116353	0.757837	0.499808
H245	H	0.579645	0.302534	-0.000205
H246	H	1.079645	0.802534	0.499795
H247	H	0.646228	0.261453	0.046222
H248	H	1.146228	0.761453	0.546222
H249	H	0.476351	0.236621	-0.000201
H250	H	0.976351	0.736621	0.499799
H251	H	0.386036	0.204776	0.079360
H252	H	0.886036	0.704776	0.579360
