data_functionalizedCrystal
_audit_creation_method	'MofGen! by Chris Wilmer'
_symmetry_space_group_name_H-M	'P1'
_symmetry_Int_Tables_number	1
_symmetry_cell_setting	triclinic
loop_
_symmetry_equiv_pos_as_xyz
  x,y,z
_cell_length_a	10.489741
_cell_length_b	14.519709
_cell_length_c	12.996460
_cell_angle_alpha	89.992910
_cell_angle_beta	89.997126
_cell_angle_gamma	84.109659
loop_
_atom_site_label
_atom_site_type_symbol
_atom_site_fract_x
_atom_site_fract_y
_atom_site_fract_z
O1	O	-1.692699	-0.130116	0.085506
O2	O	-1.321376	-0.142329	0.085522
O3	O	-1.516883	-0.002038	0.085504
O4	O	-1.497193	-0.270408	0.085524
O5	O	-1.516862	-0.002030	-0.085630
O6	O	-1.321356	-0.142322	-0.085612
O7	O	-1.692679	-0.130108	-0.085628
Cu8	Cu	-1.507015	-0.136214	-0.101246
Cu9	Cu	-1.507040	-0.136224	0.101140
O10	O	-1.497172	-0.270400	-0.085610
C11	C	-1.273844	-0.141403	-0.000043
C12	C	-1.132243	-0.138643	-0.000037
C13	C	-1.515955	0.032331	-0.000063
C14	C	-1.513205	0.134727	-0.000063
C15	C	-1.740211	-0.131035	-0.000061
C16	C	-1.881812	-0.133794	-0.000060
C17	C	-1.065034	-0.049380	-0.000053
C18	C	-0.972477	-0.091551	0.084326
C19	C	-0.972491	-0.091564	-0.084399
C20	C	-1.041552	-0.180851	0.084411
C21	C	-1.041575	-0.180852	-0.084389
C22	C	-0.949046	-0.223088	0.000010
C23	C	-1.498100	-0.304768	-0.000041
C24	C	-1.500850	-0.407165	-0.000034
N25	N	-1.507008	-0.136207	-0.243593
C26	C	-1.503082	0.509678	-0.000036
C27	C	-1.505893	0.405355	-0.000044
C28	C	-1.508143	0.322206	-0.000051
C29	C	-1.510955	0.217876	-0.000057
C30	C	-1.507038	-0.136224	-0.663407
C31	C	-1.507026	-0.136223	-0.546602
C32	C	-1.507023	-0.136216	-0.453504
C33	C	-1.507010	-0.136213	-0.336691
N34	N	-1.507057	-0.136223	0.243487
H35	H	-1.115488	0.024000	0.000047
H36	H	-0.941898	-0.053776	-0.155735
H37	H	-0.898856	-0.296546	0.000062
N38	N	-1.081879	-0.230833	0.179017
H39	H	-1.056164	-0.197369	0.242664
H40	H	-1.038560	-0.296247	0.179224
N41	N	-0.931921	-0.041535	0.178815
H42	H	-0.974537	0.024081	0.178751
H43	H	-0.835777	-0.040636	0.178394
N44	N	-1.082129	-0.230863	-0.178876
H45	H	-1.057280	-0.197092	-0.242586
H46	H	-1.178070	-0.232894	-0.177739
