data_functionalizedCrystal
_audit_creation_method	'MofGen! by Chris Wilmer'
_symmetry_space_group_name_H-M	'P1'
_symmetry_Int_Tables_number	1
_symmetry_cell_setting	triclinic
loop_
_symmetry_equiv_pos_as_xyz
  x,y,z
_cell_length_a	23.196402
_cell_length_b	23.196402
_cell_length_c	23.196401
_cell_angle_alpha	90.011712
_cell_angle_beta	119.992782
_cell_angle_gamma	119.995420
loop_
_atom_site_label
_atom_site_type_symbol
_atom_site_fract_x
_atom_site_fract_y
_atom_site_fract_z
Zr1	Zr	-0.630982	0.555415	-0.075649
O2	O	-0.751242	0.463356	-0.167693
O3	O	-0.510721	0.583627	-0.047436
O4	O	-0.630984	0.583611	-0.167702
O5	O	-0.630978	0.463394	0.047444
O6	O	-0.630985	0.678481	-0.167705
O7	O	-0.630980	0.463372	-0.047427
O8	O	-0.415858	0.678508	0.047428
O9	O	-0.846105	0.463367	-0.167689
O10	O	-0.560187	0.666470	-0.035402
O11	O	-0.560185	0.595687	0.035402
O12	O	-0.701778	0.595669	-0.106195
O13	O	-0.701776	0.524885	-0.035392
Zr14	Zr	-0.630982	0.706758	0.075655
Zr15	Zr	-0.630984	0.706722	-0.075654
Zr16	Zr	-0.630979	0.555451	0.075660
Zr17	Zr	-0.782278	0.555432	-0.075643
Zr18	Zr	-0.479685	0.706741	0.075649
O19	O	-0.751242	0.678546	0.047441
O20	O	-0.751245	0.678495	-0.167700
O21	O	-0.751239	0.463408	0.047449
O22	O	-0.510721	0.798816	0.167698
O23	O	-0.510725	0.798765	-0.047443
O24	O	-0.510718	0.583678	0.167706
O25	O	-0.630985	0.798779	-0.047439
O26	O	-0.630980	0.678562	0.167707
O27	O	-0.630978	0.583692	0.167711
O28	O	-0.630984	0.798801	0.047433
O29	O	-0.846107	0.583636	-0.167693
O30	O	-0.415856	0.678537	0.167699
O31	O	-0.415858	0.798806	0.167695
O32	O	-0.415860	0.798777	0.047424
O33	O	-0.846104	0.463396	-0.047419
O34	O	-0.846105	0.583664	-0.047423
O35	O	-0.560185	0.666504	0.106201
O36	O	-0.560187	0.737287	0.035397
O37	O	-0.701778	0.666486	-0.035396
O38	O	-0.701776	0.595703	0.035407
C39	C	-0.441733	0.631065	-0.000005
C40	C	-0.377504	0.631058	-0.000007
C41	C	-0.295076	0.683334	0.052251
C42	C	-0.234716	0.683339	0.052258
C43	C	-0.256789	0.631071	-0.000005
C44	C	-0.339231	0.578785	-0.052268
C45	C	-0.399589	0.578779	-0.052269
C46	C	-0.201203	0.614782	-0.063797
C47	C	-0.140844	0.614793	-0.063796
C48	C	-0.070629	0.631088	-0.000003
C49	C	-0.060769	0.647386	0.063795
C50	C	-0.121127	0.647379	0.063794
C51	C	-0.191347	0.631072	-0.000010
C52	C	0.077252	0.683372	0.052267
C53	C	0.137611	0.683372	0.052274
C54	C	0.033094	0.578821	-0.052258
C55	C	-0.027263	0.578819	-0.052259
C56	C	-0.005178	0.631098	0.000003
C57	C	-0.630979	0.441825	0.000009
C58	C	-0.630978	0.377591	0.000012
C59	C	0.179768	0.631105	0.000010
C60	C	0.115534	0.631103	0.000011
C61	C	-0.557071	0.384374	0.036958
C62	C	-0.557070	0.324019	0.036961
C63	C	-0.630980	0.256883	0.000004
C64	C	-0.704896	0.250103	-0.036945
C65	C	-0.704895	0.310457	-0.036941
C66	C	-0.687606	0.132946	-0.061905
C67	C	-0.687604	0.072594	-0.061911
C68	C	-0.630986	0.070729	-0.000007
C69	C	-0.574357	0.129230	0.061902
C70	C	-0.574356	0.189584	0.061906
C71	C	-0.630989	0.191435	-0.000004
C72	C	-0.557073	0.012071	0.036946
C73	C	-0.557075	-0.048286	0.036951
C74	C	-0.704904	-0.122202	-0.036962
C75	C	-0.704899	-0.061845	-0.036960
C76	C	-0.630982	0.005289	-0.000008
C77	C	-0.630985	0.631041	-0.189262
C78	C	-0.630986	0.631026	-0.253496
C79	C	-0.630985	0.820348	-0.000004
C80	C	-0.630986	0.884582	-0.000006
C81	C	-0.704892	0.594072	-0.320623
C82	C	-0.704894	0.594090	-0.380978
C83	C	-0.630984	0.631052	-0.374203
C84	C	-0.557067	0.668014	-0.307064
C85	C	-0.557068	0.668001	-0.246711
C86	C	-0.574358	0.625796	-0.441522
C87	C	-0.574360	0.625804	-0.501875
C88	C	-0.630977	0.631097	-0.560350
C89	C	-0.687607	0.636367	-0.558471
C90	C	-0.687608	0.636354	-0.498118
C91	C	-0.630974	0.631071	-0.439641
C92	C	-0.704890	0.594160	-0.692923
C93	C	-0.704888	0.594183	-0.753278
C94	C	-0.557060	0.668103	-0.679362
C95	C	-0.557064	0.668085	-0.619009
C96	C	-0.630982	0.631110	-0.625795
C97	C	-0.630979	0.631132	0.189267
C98	C	-0.630978	0.631147	0.253502
C99	C	-0.441736	0.820327	-0.000011
C100	C	-0.377508	0.884553	-0.000016
C101	C	-0.441730	0.631110	0.189260
C102	C	-0.377500	0.631118	0.253492
C103	C	-0.441733	0.820372	0.189253
C104	C	-0.377504	0.884613	0.253483
C105	C	-0.820230	0.441801	-0.189248
C106	C	-0.884459	0.377559	-0.253477
C107	C	-0.820227	0.441846	0.000017
C108	C	-0.884456	0.377620	0.000021
C109	C	-0.820233	0.631063	-0.189254
C110	C	-0.884463	0.631054	-0.253486
C111	C	-0.347346	0.877748	-0.036981
C112	C	-0.287005	0.938090	-0.037000
C113	C	-0.256823	1.005236	-0.000049
C114	C	-0.286991	1.012039	0.036917
C115	C	-0.347335	0.951698	0.036931
C116	C	-0.347337	0.668088	0.320619
C117	C	-0.286994	0.668093	0.380977
C118	C	-0.256812	0.631132	0.374208
C119	C	-0.286981	0.594158	0.307074
C120	C	-0.347327	0.594149	0.246717
C121	C	-0.347342	0.951737	0.246687
C122	C	-0.287001	1.012104	0.307032
C123	C	-0.256817	1.005347	0.374172
C124	C	-0.286985	0.938217	0.380967
C125	C	-0.347330	0.877851	0.320622
C126	C	-0.914628	0.310436	-0.246682
C127	C	-0.974989	0.250069	-0.307027
C128	C	-1.005175	0.256826	-0.374167
C129	C	-0.975004	0.323956	-0.380961
C130	C	-0.914649	0.384322	-0.320617
C131	C	-0.914624	0.384425	0.036980
C132	C	-0.974982	0.324083	0.036982
C133	C	-1.005165	0.256937	0.000029
C134	C	-0.974994	0.250134	-0.036934
C135	C	-0.914642	0.310475	-0.036940
C136	C	-0.914627	0.668023	-0.246694
C137	C	-0.974970	0.668029	-0.307041
C138	C	-1.005153	0.631062	-0.374180
C139	C	-0.974983	0.594093	-0.380971
C140	C	-0.914637	0.594091	-0.320624
H141	H	-0.003600	0.660650	0.115741
C142	C	-1.071551	0.190567	0.000046
N143	N	-1.121551	0.140579	0.000064
H144	H	-0.094382	0.536253	-0.094817
H145	H	-1.054320	0.207666	-0.423297
H146	H	-0.371877	0.564046	0.192061
C147	C	-0.475758	0.708764	-0.671905
N148	N	-0.414518	0.739392	-0.666290
C149	C	-1.008165	0.176232	-0.299537
N150	N	-1.033151	0.120620	-0.293893
H151	H	-0.890053	0.439092	0.067076
C152	C	0.008809	0.521325	-0.109748
N153	N	-0.009481	0.478017	-0.153050
H154	H	-0.890061	0.698125	-0.192032
H155	H	-0.496889	-0.042757	0.067042
C156	C	-1.008194	0.176267	-0.077568
N157	N	-1.033195	0.120629	-0.108167
C158	C	-0.190430	1.071759	0.440546
N159	N	-0.140424	1.121783	0.490537
C160	C	-0.881460	0.458156	-0.328105
N161	N	-0.856463	0.513768	-0.333749
C162	C	-0.253768	0.930796	0.454828
N163	N	-0.228742	0.925209	0.510462
C164	C	-1.008152	0.331582	0.077652
N165	N	-1.033133	0.337233	0.108287
H166	H	-0.207674	0.631145	0.423360
H167	H	-0.496881	0.698174	-0.564351
C168	C	-0.512070	0.620002	-0.503938
N169	N	-0.465152	0.615633	-0.505489
C170	C	-0.253820	1.085941	0.299542
N171	N	-0.228828	1.141553	0.293899
H172	H	-0.528253	0.621481	-0.393913
H173	H	-0.496889	0.698110	-0.301551
H174	H	-0.765082	0.563967	-0.326154
H175	H	-0.999567	0.563996	-0.435643
H176	H	-0.765074	0.195437	-0.067035
H177	H	-0.277087	0.725904	0.094808
C178	C	-0.881454	0.302978	-0.077590
N179	N	-0.856458	0.297326	-0.108209
H180	H	-0.999527	0.698133	-0.301498
H181	H	-1.054291	0.631069	-0.423312
C182	C	-0.380537	0.959187	0.172838
N183	N	-0.405540	0.964804	0.117217
C184	C	-1.008210	0.331377	-0.454822
N185	N	-1.033218	0.336964	-0.510456
H186	H	-0.890085	0.563984	-0.326165
H187	H	-0.167591	0.725909	0.094815
H188	H	-0.371880	0.823199	0.326166
H189	H	-0.733723	0.134450	-0.112315
C190	C	-0.786200	0.553436	-0.454828
N191	N	-0.847440	0.522814	-0.510451
H192	H	-0.113097	0.660648	0.115739
H193	H	0.095235	0.725938	0.094825
H194	H	0.204731	0.725941	0.094833
H195	H	-0.496882	0.698094	-0.192051
C196	C	-0.253777	1.085906	0.077566
N197	N	-0.228753	1.141544	0.108188
H198	H	-0.148877	0.601525	-0.115743
H199	H	-0.258378	0.601506	-0.115749
H200	H	-0.357199	0.536228	-0.094821
H201	H	-0.466709	0.536206	-0.094824
C202	C	-0.253767	0.553507	0.299639
N203	N	-0.228744	0.522893	0.294041
C204	C	-0.475759	0.458219	0.077613
N205	N	-0.414514	0.513841	0.108235
C206	C	-0.475763	0.331478	0.077604
N207	N	-0.414523	0.337097	0.108215
H208	H	-0.207687	1.054363	-0.000065
H209	H	-0.528250	0.237212	0.112315
H210	H	-0.890054	0.304921	-0.192018
H211	H	-0.733712	0.640674	-0.606084
H212	H	-0.528241	0.127722	0.112305
H213	H	-0.496885	0.066735	0.067049
C214	C	-0.786206	-0.196049	-0.077614
N215	N	-0.847445	-0.251675	-0.108233
C216	C	-0.749890	0.008252	-0.130014
N217	N	-0.796806	-0.040210	-0.181311
C218	C	-0.786204	-0.069308	-0.077616
N219	N	-0.847446	-0.074931	-0.108241
H220	H	-0.765081	0.304929	-0.067025
H221	H	-0.733715	0.640647	-0.496591
C222	C	-0.253812	0.708777	0.454818
N223	N	-0.228818	0.739423	0.510432
H224	H	-0.765075	0.564094	-0.807937
C225	C	-0.786200	0.553495	-0.700386
N226	N	-0.847444	0.522867	-0.706008
C227	C	-0.380539	0.803894	-0.077637
N228	N	-0.405540	0.748268	-0.108266
H229	H	-0.371886	0.957248	0.067037
H230	H	-0.262449	0.932537	-0.067102
H231	H	-0.371905	0.698186	0.326144
