data_functionalizedCrystal
_audit_creation_method	'MofGen! by Chris Wilmer'
_symmetry_space_group_name_H-M	'P1'
_symmetry_Int_Tables_number	1
_symmetry_cell_setting	triclinic
loop_
_symmetry_equiv_pos_as_xyz
  x,y,z
_cell_length_a	10.654550
_cell_length_b	19.188930
_cell_length_c	9.130313
_cell_angle_alpha	89.993647
_cell_angle_beta	89.996220
_cell_angle_gamma	83.814841
loop_
_atom_site_label
_atom_site_type_symbol
_atom_site_fract_x
_atom_site_fract_y
_atom_site_fract_z
O1	O	1.665759	0.098059	-0.121938
O2	O	1.300083	0.107401	-0.121916
O3	O	1.493474	0.001143	-0.121899
O4	O	1.472368	0.204317	-0.121955
O5	O	1.493471	0.001146	0.121700
O6	O	1.300081	0.107404	0.121682
O7	O	1.665757	0.098062	0.121661
Cu8	Cu	1.482918	0.102733	0.143914
Cu9	Cu	1.482921	0.102730	-0.144170
O10	O	1.472366	0.204320	0.121644
C11	C	1.253298	0.106717	-0.000114
C12	C	1.113898	0.104664	-0.000104
C13	C	1.492789	-0.024871	-0.000096
C14	C	1.490737	-0.102389	-0.000083
C15	C	1.033089	0.167227	-0.000143
C16	C	0.902109	0.165295	-0.000168
C17	C	0.932761	0.038231	-0.000121
C18	C	1.063738	0.040164	-0.000086
C19	C	1.083249	0.231728	-0.000161
C20	C	1.002438	0.294296	-0.000201
C21	C	0.871458	0.292363	-0.000226
C22	C	0.821289	0.227863	-0.000211
C23	C	1.604213	-0.146570	-0.000083
C24	C	1.602285	-0.219407	-0.000106
C25	C	1.486876	-0.248058	-0.000100
C26	C	1.373386	-0.203867	-0.000109
C27	C	1.375316	-0.131032	-0.000100
N28	N	1.398658	-0.356639	0.082806
N29	N	1.396832	-0.425830	0.082801
C30	C	1.481052	-0.467505	-0.000129
N31	N	1.567186	-0.437377	-0.083037
N32	N	1.569016	-0.368180	-0.083025
C33	C	1.484770	-0.327034	-0.000110
C34	C	1.592445	-0.590665	-0.000157
C35	C	1.590513	-0.663502	-0.000189
C36	C	1.361610	-0.647960	-0.000177
C37	C	1.363545	-0.575125	-0.000159
C38	C	1.478966	-0.546481	-0.000142
C39	C	1.712541	0.098746	-0.000145
C40	C	1.851941	0.100798	-0.000164
C41	C	1.473051	0.230334	-0.000163
C42	C	1.475102	0.307852	-0.000186
N43	N	1.482926	0.102735	0.346537
N44	N	1.482924	0.102722	-0.346792
C45	C	1.568581	0.055700	0.423196
C46	C	1.568577	0.055692	0.576533
C47	C	1.397260	0.149759	0.576537
C48	C	1.397258	0.149764	0.423203
C49	C	1.654248	0.008672	0.346530
C50	C	1.739911	-0.038367	0.423189
C51	C	1.739908	-0.038375	0.576526
C52	C	1.654241	0.008655	0.653203
H53	H	1.189898	0.233309	-0.000147
H54	H	0.714635	0.226294	-0.000208
H55	H	0.805665	0.343309	-0.000244
C56	C	1.772490	0.023380	0.126880
C57	C	1.654257	0.008676	0.177981
H58	H	1.772497	0.023380	0.022825
H59	H	1.789401	0.068090	0.161562
H60	H	1.835754	-0.011366	0.161579
H61	H	1.590994	0.043426	0.143291
H62	H	1.637332	-0.036039	0.143284
C63	C	1.767639	-0.133260	0.250818
C64	C	1.834041	-0.090090	0.338944
H65	H	1.825746	-0.165198	0.198815
H66	H	1.715493	-0.158618	0.310661
H67	H	1.716659	-0.105239	0.183194
H68	H	1.885014	-0.118111	0.406576
H69	H	1.886209	-0.064730	0.279095
C70	C	1.179644	0.189626	0.623782
C71	C	1.303106	0.201453	0.660822
H72	H	1.121520	0.221539	0.675824
H73	H	1.167388	0.196365	0.521504
H74	H	1.166288	0.142955	0.648922
H75	H	1.316465	0.248123	0.635672
H76	H	1.315367	0.194720	0.763123
H77	H	1.654238	0.008639	0.778061
H78	H	1.686428	-0.567342	-0.000149
H79	H	1.327509	0.188063	0.360787
C80	C	1.080891	-0.085628	-0.000078
C81	C	1.152574	-0.028606	-0.000062
H82	H	1.135738	-0.128083	-0.000070
H83	H	1.029153	-0.083743	0.084854
H84	H	1.029182	-0.083734	-0.085044
H85	H	1.204276	-0.030496	0.084910
H86	H	1.204335	-0.030492	-0.085002
C87	C	1.909251	-0.131352	0.561113
C88	C	1.834063	-0.090078	0.660793
H89	H	1.967388	-0.163267	0.613137
H90	H	1.857126	-0.156735	0.501315
H91	H	1.954248	-0.102042	0.501300
H92	H	1.789058	-0.119388	0.720599
H93	H	1.886195	-0.064693	0.720616
C94	C	1.732917	-0.310329	-0.125324
C95	C	1.727025	-0.267984	-0.000097
H96	H	1.809929	-0.340313	-0.125317
H97	H	1.663910	-0.337808	-0.125321
H98	H	1.728927	-0.281580	-0.210262
H99	H	1.731005	-0.296732	0.084841
H100	H	1.796050	-0.240502	-0.000086
H101	H	1.043295	0.346810	-0.000201
C102	C	1.268792	-0.308618	-0.000094
C103	C	1.246525	-0.235357	-0.000096
H104	H	1.190469	-0.328056	-0.000082
H105	H	1.315493	-0.323737	-0.085039
H106	H	1.315500	-0.323744	0.084859
H107	H	1.199825	-0.220231	-0.085054
H108	H	1.199805	-0.220232	0.084858
H109	H	0.891902	-0.014283	-0.000133
H110	H	1.698197	-0.123254	-0.000074
C111	C	1.226654	-0.720839	-0.125407
C112	C	1.234748	-0.679445	-0.000176
H113	H	1.148334	-0.740281	-0.125405
H114	H	1.232163	-0.692738	-0.210333
H115	H	1.293967	-0.757577	-0.125399
H116	H	1.167439	-0.642704	-0.000191
H117	H	1.229226	-0.707547	0.084771
H118	H	1.282908	-0.095058	-0.000100
C119	C	1.137099	-0.567081	-0.000127
C120	C	1.238808	-0.526555	-0.000134
H121	H	1.060089	-0.537094	-0.000104
H122	H	1.141103	-0.595802	-0.085076
H123	H	1.141118	-0.595823	0.084821
H124	H	1.234794	-0.497816	-0.085088
H125	H	1.234802	-0.497822	0.084824
H126	H	1.682922	-0.699475	-0.000197
