data_functionalizedCrystal
_audit_creation_method	'MofGen! by Chris Wilmer'
_symmetry_space_group_name_H-M	'P1'
_symmetry_Int_Tables_number	1
_symmetry_cell_setting	triclinic
loop_
_symmetry_equiv_pos_as_xyz
  x,y,z
_cell_length_a	13.032721
_cell_length_b	18.215407
_cell_length_c	18.215399
_cell_angle_alpha	89.980167
_cell_angle_beta	82.845262
_cell_angle_gamma	82.794992
loop_
_atom_site_label
_atom_site_type_symbol
_atom_site_fract_x
_atom_site_fract_y
_atom_site_fract_z
Zn1	Zn	-0.416041	-1.087881	0.453320
Zn2	Zn	0.083959	-0.587881	0.953320
Zn3	Zn	-0.590804	-1.072167	0.345882
Zn4	Zn	-0.090804	-0.572167	0.845882
Zn5	Zn	-0.416075	-0.964810	0.330271
Zn6	Zn	0.083925	-0.464810	0.830271
Zn7	Zn	-0.590746	-0.949162	0.468902
Zn8	Zn	-0.090746	-0.449162	0.968902
O9	O	-0.503417	-1.018505	0.399594
O10	O	-0.003417	-0.518505	0.899594
O11	O	-0.439234	-1.188780	0.439081
O12	O	0.060766	-0.688780	0.939081
O13	O	-0.567665	-1.057898	0.240831
O14	O	-0.067665	-0.557898	0.740831
O15	O	-0.269831	-0.994261	0.333539
O16	O	0.230169	-0.494261	0.833539
O17	O	-0.567632	-1.177235	0.360147
O18	O	-0.067632	-0.677235	0.860147
O19	O	-0.269806	-1.084681	0.423943
O20	O	0.230194	-0.584681	0.923943
O21	O	-0.439292	-0.979024	0.229361
O22	O	0.060708	-0.479024	0.729361
O23	O	-0.439236	-0.859751	0.348648
O24	O	0.060764	-0.359751	0.848648
O25	O	-0.567533	-0.967591	0.569816
O26	O	-0.067533	-0.467591	1.069816
O27	O	-0.567566	-0.848254	0.450500
O28	O	-0.067566	-0.348254	0.950500
O29	O	-0.439177	-1.069507	0.558368
O30	O	0.060823	-0.569507	1.058368
O31	O	-0.737036	-1.042724	0.375256
O32	O	-0.237036	-0.542724	0.875256
O33	O	-0.736993	-0.952353	0.465638
O34	O	-0.236993	-0.452353	0.965638
C35	C	-0.503399	-0.827300	0.399571
C36	C	-0.003399	-0.327300	0.899571
C37	C	-0.503416	-0.745500	0.399581
C38	C	-0.003416	-0.245500	0.899581
C39	C	-0.774933	-0.994156	0.423847
C40	C	-0.274933	-0.494156	0.923847
C41	C	-0.891089	-0.983806	0.434248
C42	C	-0.391089	-0.483806	0.934248
C43	C	-0.503345	-1.018556	0.591540
C44	C	-0.003345	-0.518556	1.091540
C45	C	-0.503314	-1.018578	0.673337
C46	C	-0.003314	-0.518578	1.173337
C47	C	-0.942861	-1.023945	0.394199
C48	C	-0.442861	-0.523945	0.894199
C49	C	-1.062914	-1.013250	0.404947
C50	C	-0.562914	-0.513250	0.904947
C51	C	-0.230840	-1.042969	0.375262
C52	C	0.269160	-0.542969	0.875262
C53	C	-0.114684	-1.053395	0.364893
C54	C	0.385316	-0.553395	0.864893
C55	C	-0.503435	-1.210456	0.399617
C56	C	-0.003435	-0.710456	0.899617
C57	C	-0.503443	-1.292254	0.399627
C58	C	-0.003443	-0.792254	0.899627
C59	C	-0.570343	-0.551329	0.452566
C60	C	-0.070343	-0.051329	0.952566
C61	C	-0.570346	-0.474470	0.452575
C62	C	-0.070346	0.025530	0.952575
C63	C	-0.436510	-0.486431	0.346640
C64	C	0.063490	0.013569	0.846640
C65	C	-0.436502	-0.563289	0.346634
C66	C	0.063498	-0.063289	0.846634
C67	C	-0.503424	-0.595736	0.399597
C68	C	-0.003424	-0.095736	0.899597
C69	C	-0.503435	-0.442019	0.399612
C70	C	-0.003435	0.057981	0.899612
C71	C	-0.503438	-0.358685	0.399621
C72	C	-0.003438	0.141315	0.899621
C73	C	-0.503420	-0.679075	0.399588
C74	C	-0.003420	-0.179075	0.899588
C75	C	-0.503413	-1.018503	0.208387
C76	C	-0.003413	-0.518503	0.708387
C77	C	-0.503149	-1.018650	0.126565
C78	C	-0.003149	-0.518650	0.626565
C79	C	-0.436417	-1.071668	0.855565
C80	C	0.063583	-0.571668	1.355565
C81	C	-0.436386	-1.071680	0.932421
C82	C	0.063614	-0.571680	1.432421
C83	C	-0.570049	-0.965554	0.944331
C84	C	-0.070049	-0.465554	1.444331
C85	C	-0.570074	-0.965540	0.867476
C86	C	-0.070074	-0.465540	1.367476
C87	C	-0.503259	-1.018601	0.823095
C88	C	-0.003259	-0.518601	1.323095
C89	C	-0.503204	-1.018627	0.976807
C90	C	-0.003204	-0.518627	1.476807
C91	C	-0.503172	-1.018639	1.060137
C92	C	-0.003172	-0.518639	1.560137
C93	C	-0.503290	-1.018589	0.739759
C94	C	-0.003290	-0.518589	1.239759
H95	H	-0.898309	-1.066232	0.351957
H96	H	-0.398309	-0.566232	0.851957
Cl97	Cl	-0.654469	-0.592117	0.519149
Cl98	Cl	-0.154469	-0.092117	1.019149
Cl99	Cl	-0.352362	-1.138402	0.973238
Cl100	Cl	0.147638	-0.638402	1.473238
Cl101	Cl	-0.654474	-0.418648	0.519169
Cl102	Cl	-0.154474	0.081352	1.019169
Cl103	Cl	-0.352362	-0.619119	0.280043
Cl104	Cl	0.147638	-0.119119	0.780043
H105	H	-0.382025	-0.460003	0.303519
H106	H	0.117975	0.039997	0.803519
Cl107	Cl	-0.352417	-1.138371	0.799775
Cl108	Cl	0.147583	-0.638371	1.299775
Cl109	Cl	-1.131690	-0.947967	0.470179
Cl110	Cl	-0.631690	-0.447967	0.970179
Cl111	Cl	-0.654046	-0.898856	1.000130
Cl112	Cl	-0.154046	-0.398856	1.500130
H113	H	-0.624504	-0.922321	0.841039
H114	H	-0.124504	-0.422321	1.341039
H115	H	-0.935643	-0.941526	0.476495
H116	H	-0.435643	-0.441526	0.976495
Cl117	Cl	-1.045911	-1.118686	0.299668
Cl118	Cl	-0.545911	-0.618686	0.799668
