data_functionalizedCrystal
_audit_creation_method	'MofGen! by Chris Wilmer'
_symmetry_space_group_name_H-M	'P1'
_symmetry_Int_Tables_number	1
_symmetry_cell_setting	triclinic
loop_
_symmetry_equiv_pos_as_xyz
  x,y,z
_cell_length_a	25.639243
_cell_length_b	25.639240
_cell_length_c	25.639233
_cell_angle_alpha	90.025929
_cell_angle_beta	90.015962
_cell_angle_gamma	90.035481
loop_
_atom_site_label
_atom_site_type_symbol
_atom_site_fract_x
_atom_site_fract_y
_atom_site_fract_z
Zn1	Zn	0.799247	-0.208176	0.295630
Zn2	Zn	1.299247	0.291824	0.795630
Zn3	Zn	0.799179	-0.295595	0.208183
Zn4	Zn	1.299179	0.204405	0.708183
Zn5	Zn	0.711823	-0.208180	0.208203
Zn6	Zn	1.211823	0.291820	0.708203
Zn7	Zn	0.711777	-0.295587	0.295582
Zn8	Zn	1.211777	0.204413	0.795582
O9	O	0.755506	-0.251885	0.251900
O10	O	1.255506	0.248115	0.751900
O11	O	0.872403	-0.219775	0.284041
O12	O	1.372403	0.280225	0.784041
O13	O	0.787582	-0.284004	0.135020
O14	O	1.287582	0.215996	0.635020
O15	O	0.723467	-0.135014	0.219829
O16	O	1.223467	0.364986	0.719829
O17	O	0.872353	-0.284001	0.219794
O18	O	1.372353	0.215999	0.719794
O19	O	0.787697	-0.135012	0.284061
O20	O	1.287697	0.364988	0.784061
O21	O	0.723402	-0.219781	0.135035
O22	O	1.223402	0.280219	0.635035
O23	O	0.638652	-0.219772	0.219783
O24	O	1.138652	0.280228	0.719783
O25	O	0.723389	-0.283987	0.368754
O26	O	1.223389	0.216013	0.868754
O27	O	0.638618	-0.283990	0.283980
O28	O	1.138618	0.216010	0.783980
O29	O	0.787653	-0.219767	0.368789
O30	O	1.287653	0.280233	0.868789
O31	O	0.787538	-0.368759	0.219749
O32	O	1.287538	0.131241	0.719749
O33	O	0.723324	-0.368753	0.283960
O34	O	1.223324	0.131247	0.783960
C35	C	0.619664	-0.251881	0.251879
C36	C	1.119664	0.248119	0.751879
C37	C	0.561550	-0.251892	0.251882
C38	C	1.061550	0.248108	0.751882
C39	C	0.201207	-0.218495	0.285409
C40	C	0.701207	0.281505	0.785409
C41	C	0.146603	-0.218494	0.285412
C42	C	0.646603	0.281506	0.785412
O43	O	0.118383	-0.190088	0.313891
O44	O	0.618383	0.309912	0.813891
N45	N	0.119267	-0.251883	0.251914
N46	N	0.619267	0.248117	0.751914
C47	C	0.146539	-0.285271	0.218407
C48	C	0.646539	0.214729	0.718407
O49	O	0.118274	-0.313670	0.189914
O50	O	0.618274	0.186330	0.689914
C51	C	0.201142	-0.285268	0.218401
C52	C	0.701142	0.214732	0.718401
C53	C	0.228475	-0.251881	0.251905
C54	C	0.728475	0.248119	0.751905
C55	C	0.228540	-0.185109	0.318909
C56	C	0.728540	0.314891	0.818909
C57	C	0.283140	-0.185111	0.318907
C58	C	0.783140	0.314889	0.818907
C59	C	0.310408	-0.218497	0.285403
C60	C	0.810408	0.281503	0.785403
C61	C	0.283076	-0.251882	0.251903
C62	C	0.783076	0.248118	0.751903
C63	C	0.228413	-0.318653	0.184892
C64	C	0.728413	0.181347	0.684892
C65	C	0.283020	-0.318647	0.184889
C66	C	0.783020	0.181353	0.684889
C67	C	0.310353	-0.285260	0.218393
C68	C	0.810353	0.214740	0.718393
C69	C	0.364944	-0.285270	0.218396
C70	C	0.864944	0.214730	0.718396
N71	N	0.392279	-0.251881	0.251894
N72	N	0.892279	0.248119	0.751894
C73	C	0.365011	-0.218494	0.285398
C74	C	0.865011	0.281506	0.785398
C75	C	0.031869	-0.285273	0.218420
C76	C	0.531869	0.214727	0.718420
C77	C	-0.022734	-0.285279	0.218428
C78	C	0.477266	0.214721	0.718428
C79	C	-0.022667	-0.218501	0.285432
C80	C	0.477333	0.281499	0.785432
C81	C	0.031937	-0.218498	0.285427
C82	C	0.531937	0.281502	0.785427
C83	C	0.059204	-0.251884	0.251918
C84	C	0.559204	0.248116	0.751918
C85	C	0.479676	-0.218500	0.285390
C86	C	0.979676	0.281500	0.785390
C87	C	0.534282	-0.218506	0.285386
C88	C	1.034282	0.281494	0.785386
C89	C	0.534210	-0.285281	0.218380
C90	C	1.034210	0.214719	0.718380
C91	C	0.479609	-0.285278	0.218385
C92	C	0.979609	0.214722	0.718385
C93	C	0.452344	-0.251883	0.251892
C94	C	0.952344	0.248117	0.751892
O95	O	0.393198	-0.313659	0.189930
O96	O	0.893198	0.186341	0.689930
O97	O	0.393283	-0.190095	0.313881
O98	O	0.893283	0.309905	0.813881
C99	C	0.755433	-0.387727	0.251859
C100	C	1.255433	0.112273	0.751859
C101	C	0.755449	-0.445841	0.251859
C102	C	1.255449	0.054159	0.751859
C103	C	0.788967	-0.806164	0.285405
C104	C	1.288967	-0.306164	0.785405
C105	C	0.788983	-0.860769	0.285416
C106	C	1.288983	-0.360769	0.785416
O107	O	0.817394	-0.888972	0.313897
O108	O	1.317394	-0.388972	0.813897
N109	N	0.755579	-0.888124	0.251950
N110	N	1.255579	-0.388124	0.751950
C111	C	0.722154	-0.860871	0.218475
C112	C	1.222154	-0.360871	0.718475
O113	O	0.693742	-0.889153	0.190011
O114	O	1.193742	-0.389153	0.690011
C115	C	0.722136	-0.806268	0.218467
C116	C	1.222136	-0.306268	0.718467
C117	C	0.755546	-0.778916	0.251932
C118	C	1.255546	-0.278916	0.751932
C119	C	0.822374	-0.778812	0.318867
C120	C	1.322374	-0.278812	0.818867
C121	C	0.822359	-0.724212	0.318856
C122	C	1.322359	-0.224212	0.818856
C123	C	0.788938	-0.696963	0.285383
C124	C	1.288938	-0.196963	0.785383
C125	C	0.755531	-0.724315	0.251920
C126	C	1.255531	-0.224315	0.751920
C127	C	0.688708	-0.779017	0.184996
C128	C	1.188708	-0.279017	0.684996
C129	C	0.688693	-0.724410	0.184991
C130	C	1.188693	-0.224410	0.684991
C131	C	0.722103	-0.697058	0.218455
C132	C	1.222103	-0.197058	0.718455
C133	C	0.722095	-0.642466	0.218435
C134	C	1.222095	-0.142466	0.718435
N135	N	0.755499	-0.615112	0.251901
N136	N	1.255499	-0.115112	0.751901
C137	C	0.788920	-0.642360	0.285375
C138	C	1.288920	-0.142360	0.785375
C139	C	0.722193	-0.975542	0.218494
C140	C	1.222193	-0.475542	0.718494
C141	C	0.722213	-1.030144	0.218499
C142	C	1.222213	-0.530144	0.718499
C143	C	0.789041	-1.030038	0.285441
C144	C	1.289041	-0.530038	0.785441
C145	C	0.789024	-0.975435	0.285433
C146	C	1.289024	-0.475435	0.785433
C147	C	0.755597	-0.948187	0.251960
C148	C	1.255597	-0.448187	0.751960
C149	C	0.788887	-0.527695	0.285348
C150	C	1.288887	-0.027695	0.785348
C151	C	0.788870	-0.473090	0.285332
C152	C	1.288870	0.026910	0.785332
C153	C	0.722040	-0.473201	0.218392
C154	C	1.222040	0.026799	0.718392
C155	C	0.722058	-0.527801	0.218406
C156	C	1.222058	-0.027801	0.718406
C157	C	0.755483	-0.555047	0.251888
C158	C	1.255483	-0.055047	0.751888
O159	O	0.693697	-0.614229	0.189971
O160	O	1.193697	-0.114229	0.689971
O161	O	0.817322	-0.614072	0.313839
O162	O	1.317322	-0.114072	0.813839
C163	C	0.891879	-0.251888	0.251921
C164	C	1.391879	0.248112	0.751921
C165	C	0.949993	-0.251890	0.251930
C166	C	1.449993	0.248110	0.751930
C167	C	0.755523	-0.251875	0.388273
C168	C	1.255523	0.248125	0.888273
C169	C	0.755530	-0.251871	0.446387
C170	C	1.255530	0.248129	0.946387
C171	C	0.755595	-0.115511	0.251952
C172	C	1.255595	0.384489	0.751952
C173	C	0.755633	-0.057397	0.251975
C174	C	1.255633	0.442603	0.751975
C175	C	0.755520	-0.251856	0.116057
C176	C	1.255520	0.248144	0.616057
C177	C	0.755614	-0.251713	0.057943
C178	C	1.255614	0.248287	0.557943
C179	C	0.789035	-0.218333	0.806774
C180	C	1.289035	0.281667	1.306774
C181	C	0.789041	-0.218318	0.861378
C182	C	1.289041	0.281682	1.361378
O183	O	0.817486	-0.189864	0.889635
O184	O	1.317486	0.310136	1.389635
N185	N	0.755588	-0.251749	0.888669
N186	N	1.255588	0.248251	1.388669
C187	C	0.722122	-0.285192	0.861354
C188	C	1.222122	0.214808	1.361354
O189	O	0.693668	-0.313626	0.889581
O190	O	1.193668	0.186374	1.389581
C191	C	0.722114	-0.285204	0.806750
C192	C	1.222114	0.214796	1.306750
C193	C	0.755573	-0.251775	0.779462
C194	C	1.255573	0.248225	1.279462
C195	C	0.822491	-0.184906	0.779485
C196	C	1.322491	0.315094	1.279485
C197	C	0.822485	-0.184921	0.724884
C198	C	1.322485	0.315079	1.224884
C199	C	0.789023	-0.218363	0.697572
C200	C	1.289023	0.281637	1.197572
C201	C	0.755567	-0.251790	0.724861
C202	C	1.255567	0.248210	1.224861
C203	C	0.688646	-0.318644	0.779436
C204	C	1.188646	0.181356	1.279436
C205	C	0.688640	-0.318653	0.724828
C206	C	1.188640	0.181347	1.224828
C207	C	0.722099	-0.285223	0.697540
C208	C	1.222099	0.214777	1.197540
C209	C	0.722099	-0.285247	0.642949
C210	C	1.222099	0.214753	1.142949
N211	N	0.755552	-0.251817	0.615657
N212	N	1.255552	0.248183	1.115657
C213	C	0.789014	-0.218375	0.642969
C214	C	1.289014	0.281625	1.142969
C215	C	0.722143	-0.285165	0.976024
C216	C	1.222143	0.214835	1.476024
C217	C	0.722154	-0.285157	1.030627
C218	C	1.222154	0.214843	1.530627
C219	C	0.789072	-0.218282	1.030647
C220	C	1.289072	0.281718	1.530647
C221	C	0.789063	-0.218293	0.976044
C222	C	1.289063	0.281707	1.476044
C223	C	0.755596	-0.251735	0.948733
C224	C	1.255596	0.248265	1.448733
C225	C	0.789000	-0.218410	0.528304
C226	C	1.289000	0.281590	1.028304
C227	C	0.788992	-0.218429	0.473699
C228	C	1.288992	0.281571	0.973699
C229	C	0.722072	-0.285302	0.473683
C230	C	1.222072	0.214698	0.973683
C231	C	0.722081	-0.285285	0.528283
C232	C	1.222081	0.214715	1.028283
C233	C	0.755547	-0.251834	0.555593
C234	C	1.255547	0.248166	1.055593
O235	O	0.693668	-0.313686	0.614657
O236	O	1.193668	0.186314	1.114657
O237	O	0.817459	-0.189941	0.614735
O238	O	1.317459	0.310059	1.114735
H239	H	-0.044983	-0.312472	0.191152
H240	H	0.455017	0.187528	0.691152
H241	H	0.694974	-0.953360	0.191232
H242	H	1.194974	-0.453360	0.691232
N243	N	0.686063	-0.321211	1.060054
N244	N	1.186063	0.178789	1.560054
H245	H	0.691140	-0.316131	1.098791
H246	H	1.191140	0.183869	1.598791
H247	H	0.694173	-0.358555	1.050504
H248	H	1.194173	0.141445	1.550504
H249	H	0.206344	-0.157919	0.346192
H250	H	0.706344	0.342081	0.846192
N251	N	0.061278	-0.321291	0.182285
N252	N	0.561278	0.178709	0.682285
H253	H	0.083937	-0.300010	0.158092
H254	H	0.583937	0.199990	0.658092
H255	H	0.035641	-0.342435	0.161103
H256	H	0.535641	0.157565	0.661103
N257	N	0.825152	-0.182238	0.946616
N258	N	1.325152	0.317762	1.446616
H259	H	0.849365	-0.203493	0.923961
H260	H	1.349365	0.296507	1.423961
H261	H	0.846316	-0.161064	0.972243
H262	H	1.346316	0.338936	1.472243
N263	N	0.686029	-0.557305	0.182308
N264	N	1.186029	-0.057305	0.682308
H265	H	0.707301	-0.579957	0.158104
H266	H	1.207301	-0.079957	0.658104
H267	H	0.664866	-0.531721	0.161135
H268	H	1.164866	-0.031721	0.661135
N269	N	0.652674	-0.808509	0.148900
N270	N	1.152674	-0.308509	0.648900
H271	H	0.631500	-0.782954	0.127699
H272	H	1.131500	-0.282954	0.627699
H273	H	0.628469	-0.831172	0.170163
H274	H	1.128469	-0.331172	0.670163
N275	N	0.652642	-0.695018	0.148888
N276	N	1.152642	-0.195018	0.648888
H277	H	0.615282	-0.704550	0.156975
H278	H	1.115282	-0.204550	0.656975
H279	H	0.660834	-0.704550	0.111555
H280	H	1.160834	-0.204550	0.611555
N281	N	0.061415	-0.182489	0.321563
N282	N	0.561415	0.317511	0.821563
H283	H	0.035850	-0.161342	0.342787
H284	H	0.535850	0.338658	0.842787
H285	H	0.084075	-0.158257	0.300327
H286	H	0.584075	0.341743	0.800327
H287	H	0.694830	-0.451006	0.191137
H288	H	1.194830	0.048994	0.691137
N289	N	0.825164	-0.182211	1.060110
N290	N	1.325164	0.317789	1.560110
H291	H	0.820089	-0.187277	1.098841
H292	H	1.320089	0.312723	1.598841
H293	H	0.817049	-0.144871	1.050575
H294	H	1.317049	0.355129	1.550575
N295	N	0.686179	-1.059640	0.182403
N296	N	1.186179	-0.559640	0.682403
H297	H	0.691256	-1.098367	0.187484
H298	H	1.191256	-0.598367	0.687484
H299	H	0.694341	-1.050110	0.145069
H300	H	1.194341	-0.550110	0.645069
H301	H	0.816241	-0.191207	0.451483
H302	H	1.316241	0.308793	0.951483
N303	N	0.686000	-0.321336	0.557730
N304	N	1.186000	0.178664	1.057730
H305	H	0.694091	-0.358699	0.548230
H306	H	1.194091	0.141301	1.048230
H307	H	0.648662	-0.313171	0.548211
H308	H	1.148662	0.186829	1.048211
N309	N	0.825091	-0.182330	0.557754
N310	N	1.325091	0.317670	1.057754
H311	H	0.846282	-0.161159	0.532175
H312	H	1.346282	0.338841	1.032175
H313	H	0.849278	-0.203604	0.580410
H314	H	1.349278	0.296396	1.080410
H315	H	0.849730	-0.157699	0.702671
H316	H	1.349730	0.342301	1.202671
N317	N	0.198942	-0.354662	0.148753
N318	N	0.698942	0.145338	0.648753
H319	H	0.224510	-0.375805	0.127529
H320	H	0.724510	0.124195	0.627529
H321	H	0.176294	-0.333341	0.124600
H322	H	0.676294	0.166659	0.624600
H323	H	0.556534	-0.191317	0.312670
H324	H	1.056534	0.308683	0.812670
H325	H	0.694830	-0.312531	0.451436
H326	H	1.194830	0.187469	0.951436
N327	N	0.858579	-0.148828	0.808938
N328	N	1.358579	0.351172	1.308938
H329	H	0.879767	-0.127656	0.783357
H330	H	1.379767	0.372344	1.283357
H331	H	0.882769	-0.170101	0.831592
H332	H	1.382769	0.329899	1.331592
H333	H	-0.044878	-0.191315	0.312711
H334	H	0.455122	0.308685	0.812711
N335	N	0.686040	-0.321233	0.946569
N336	N	1.186040	0.178767	1.446569
H337	H	0.664850	-0.342405	0.972147
H338	H	1.164850	0.157595	1.472147
H339	H	0.707296	-0.345438	0.923908
H340	H	1.207296	0.154562	1.423908
H341	H	0.816254	-1.052233	0.312698
H342	H	1.316254	-0.552233	0.812698
N343	N	0.652541	-0.354726	0.695378
N344	N	1.152541	0.145274	1.195378
H345	H	0.673767	-0.378965	0.672722
H346	H	1.173767	0.121035	1.172722
H347	H	0.628328	-0.333448	0.672754
H348	H	1.128328	0.166552	1.172754
N349	N	0.858411	-0.808197	0.354988
N350	N	1.358411	-0.308197	0.854988
H351	H	0.879564	-0.782576	0.376185
H352	H	1.379564	-0.282576	0.876185
H353	H	0.882637	-0.830847	0.333745
H354	H	1.382637	-0.330847	0.833745
N355	N	0.652557	-0.354700	0.808859
N356	N	1.152557	0.145300	1.308859
H357	H	0.631359	-0.375881	0.783264
H358	H	1.131359	0.124119	1.283264
H359	H	0.628377	-0.333410	0.831514
H360	H	1.128377	0.166590	1.331514
H361	H	0.457354	-0.312470	0.191110
H362	H	0.957354	0.187530	0.691110
N363	N	0.824901	-0.443587	0.321431
N364	N	1.324901	0.056413	0.821431
H365	H	0.849141	-0.420924	0.300205
H366	H	1.349141	0.079076	0.800205
H367	H	0.846038	-0.469169	0.342633
H368	H	1.346038	0.030831	0.842633
H369	H	0.457483	-0.191305	0.312673
H370	H	0.957483	0.308695	0.812673
N371	N	0.563625	-0.321285	0.182240
N372	N	1.063625	0.178715	0.682240
H373	H	0.554108	-0.358657	0.190283
H374	H	1.054108	0.141343	0.690283
H375	H	0.602353	-0.316170	0.187340
H376	H	1.102353	0.183830	0.687340
N377	N	0.312616	-0.149098	0.355041
N378	N	0.812616	0.350902	0.855041
H379	H	0.287050	-0.127950	0.376262
H380	H	0.787050	0.372050	0.876262
H381	H	0.335277	-0.124868	0.333805
H382	H	0.835277	0.375132	0.833805
H383	H	0.816101	-0.549872	0.312616
H384	H	1.316101	-0.049872	0.812616
H385	H	0.849563	-0.701945	0.346107
H386	H	1.349563	-0.201945	0.846107
N387	N	0.312430	-0.354655	0.148745
N388	N	0.812430	0.145345	0.648745
H389	H	0.286826	-0.375803	0.127523
H390	H	0.786826	0.124197	0.627523
H391	H	0.335077	-0.378885	0.169976
H392	H	0.835077	0.121115	0.669976
H393	H	0.816228	-0.953168	0.312683
H394	H	1.316228	-0.453168	0.812683
