data_functionalizedCrystal
_audit_creation_method	'MofGen! by Chris Wilmer'
_symmetry_space_group_name_H-M	'P1'
_symmetry_Int_Tables_number	1
_symmetry_cell_setting	triclinic
loop_
_symmetry_equiv_pos_as_xyz
  x,y,z
_cell_length_a	19.077105
_cell_length_b	16.120484
_cell_length_c	19.076919
_cell_angle_alpha	95.046610
_cell_angle_beta	90.076224
_cell_angle_gamma	90.738523
loop_
_atom_site_label
_atom_site_type_symbol
_atom_site_fract_x
_atom_site_fract_y
_atom_site_fract_z
Zn1	Zn	1.040337	-0.403262	-0.456942
Zn2	Zn	1.540337	0.096738	0.043058
Zn3	Zn	1.039017	-0.537287	-0.344927
Zn4	Zn	1.539017	-0.037287	0.155073
Zn5	Zn	0.928051	-0.392095	-0.334278
Zn6	Zn	1.428051	0.107905	0.165722
Zn7	Zn	0.916861	-0.536784	-0.457659
Zn8	Zn	1.416861	-0.036784	0.042341
O9	O	0.981066	-0.467357	-0.398451
O10	O	1.481066	0.032643	0.101549
O11	O	1.138276	-0.425924	-0.446240
O12	O	1.638276	0.074076	0.053760
O13	O	1.028428	-0.513564	-0.245000
O14	O	1.528428	-0.013564	0.255000
O15	O	0.948182	-0.276934	-0.345793
O16	O	1.448182	0.223066	0.154207
O17	O	1.137306	-0.524392	-0.363943
O18	O	1.637306	-0.024392	0.136057
O19	O	1.030678	-0.285138	-0.435913
O20	O	1.530678	0.214862	0.064087
O21	O	0.946902	-0.406892	-0.237176
O22	O	1.446902	0.093108	0.262824
O23	O	0.828452	-0.406405	-0.346488
O24	O	1.328452	0.093595	0.153512
O25	O	0.929109	-0.523535	-0.556078
O26	O	1.429109	-0.023535	-0.056078
O27	O	0.820230	-0.512707	-0.437136
O28	O	1.320230	-0.012707	0.062864
O29	O	1.019827	-0.425436	-0.555551
O30	O	1.519827	0.074564	-0.055551
O31	O	1.017576	-0.653863	-0.364638
O32	O	1.517576	-0.153863	0.135362
O33	O	0.927829	-0.653494	-0.447462
O34	O	1.427829	-0.153494	0.052538
C35	C	0.798901	-0.458290	-0.390734
C36	C	1.298901	0.041710	0.109266
C37	C	0.720969	-0.454433	-0.387451
C38	C	1.220969	0.045567	0.112549
C39	C	0.680093	-0.508043	-0.433036
C40	C	1.180093	-0.008043	0.066964
C41	C	0.606867	-0.504408	-0.429953
C42	C	1.106867	-0.004408	0.070047
C43	C	0.574519	-0.447165	-0.381281
C44	C	1.074519	0.052835	0.118719
C45	C	0.615400	-0.393548	-0.335694
C46	C	1.115400	0.106452	0.164306
C47	C	0.688624	-0.397180	-0.338781
C48	C	1.188624	0.102820	0.161219
C49	C	0.355979	-0.430354	-0.367000
C50	C	0.855979	0.069646	0.133000
C51	C	0.282749	-0.426728	-0.363916
C52	C	0.782749	0.073272	0.136084
C53	C	0.274222	-0.537586	-0.458176
C54	C	0.774222	-0.037586	0.041824
C55	C	0.347448	-0.541217	-0.461255
C56	C	0.847448	-0.041217	0.038745
C57	C	0.388323	-0.487598	-0.415670
C58	C	0.888323	0.012402	0.084330
N59	N	0.499670	-0.443449	-0.378128
N60	N	0.999670	0.056551	0.121872
N61	N	0.463169	-0.491310	-0.418828
N62	N	0.963169	0.008690	0.081172
C63	C	0.971363	-0.683924	-0.407299
C64	C	1.471363	-0.183924	0.092701
C65	C	0.967276	-0.776577	-0.411111
C66	C	1.467276	-0.276577	0.088889
C67	C	0.959816	-0.946215	-0.418084
C68	C	1.459816	-0.446215	0.081916
C69	C	1.002442	-0.987665	-0.378836
C70	C	1.502442	-0.487665	0.121164
C71	C	0.998291	-1.082058	-0.382716
C72	C	1.498291	-0.582058	0.117284
C73	C	0.963966	-0.851814	-0.414205
C74	C	1.463966	-0.351814	0.085795
C75	C	1.163943	-0.476459	-0.406199
C76	C	1.663943	0.023541	0.093801
C77	C	1.241874	-0.480338	-0.409501
C78	C	1.741874	0.019662	0.090499
C79	C	0.973367	-0.475675	-0.582072
C80	C	1.473367	0.024325	-0.082072
C81	C	0.970086	-0.479220	-0.660321
C82	C	1.470086	0.020780	-0.160321
C83	C	0.990826	-0.249946	-0.389585
C84	C	1.490826	0.250054	0.110415
C85	C	0.994984	-0.157298	-0.385807
C86	C	1.494984	0.342702	0.114193
C87	C	1.015774	-0.429813	-0.696809
C88	C	1.515774	0.070187	-0.196809
C89	C	1.012683	-0.433140	-0.770331
C90	C	1.512683	0.066860	-0.270331
C91	C	0.963906	-0.485879	-0.807364
C92	C	1.463906	0.014121	-0.307364
C93	C	0.918214	-0.535288	-0.770871
C94	C	1.418214	-0.035288	-0.270871
C95	C	0.921302	-0.531956	-0.697350
C96	C	1.421302	-0.031956	-0.197350
C97	C	0.949602	-0.501317	-1.027278
C98	C	1.449602	-0.001317	-0.527278
C99	C	0.946518	-0.504647	-1.100804
C100	C	1.446518	-0.004647	-0.600804
C101	C	1.040987	-0.402498	-1.100259
C102	C	1.540987	0.097502	-0.600259
C103	C	1.044074	-0.399174	-1.026737
C104	C	1.544074	0.100826	-0.526737
C105	C	0.998378	-0.448580	-0.990250
C106	C	1.498378	0.051420	-0.490250
N107	N	0.960747	-0.489283	-0.882516
N108	N	1.460747	0.010717	-0.382516
N109	N	1.001535	-0.445171	-0.915099
N110	N	1.501535	0.054829	-0.415099
C111	C	0.988779	-0.459013	-0.215544
C112	C	1.488779	0.040987	0.284456
C113	C	0.992206	-0.455240	-0.137292
C114	C	1.492206	0.044760	0.362708
H115	H	0.389251	-0.386700	-0.329877
H116	H	0.889251	0.113300	0.170123
C117	C	0.506940	-0.338756	-0.289110
C118	C	1.006940	0.161244	0.210890
C119	C	0.579844	-0.330622	-0.282195
C120	C	1.079844	0.169378	0.217805
H121	H	0.484992	-0.299909	-0.256077
H122	H	0.984992	0.200091	0.243923
H123	H	0.493513	-0.328194	-0.335422
H124	H	0.993513	0.171806	0.164578
H125	H	0.492873	-0.393678	-0.280506
H126	H	0.992873	0.106322	0.219494
H127	H	0.593912	-0.275701	-0.290804
H128	H	1.093912	0.224299	0.209196
H129	H	0.593277	-0.341177	-0.235872
H130	H	1.093277	0.158823	0.264128
C131	C	0.912527	-1.079615	-0.461714
C132	C	1.412527	-0.579615	0.038286
C133	C	0.906339	-0.994002	-0.467370
C134	C	1.406339	-0.494002	0.032630
H135	H	0.879508	-1.109122	-0.492136
H136	H	1.379508	-0.609122	0.007864
H137	H	0.958576	-1.096580	-0.474628
H138	H	1.458576	-0.596580	0.025372
H139	H	0.903680	-1.091204	-0.414541
H140	H	1.403680	-0.591204	0.085459
H141	H	0.915191	-0.982412	-0.514542
H142	H	1.415191	-0.482412	-0.014542
H143	H	0.860279	-0.977031	-0.454460
H144	H	1.360279	-0.477031	0.045540
H145	H	0.721905	-0.353521	-0.301664
H146	H	1.221905	0.146479	0.198336
C147	C	1.108835	-0.329171	-0.703662
C148	C	1.608835	0.170829	-0.203662
C149	C	1.069390	-0.371838	-0.656106
C150	C	1.569390	0.128162	-0.156106
H151	H	1.141931	-0.293374	-0.678533
H152	H	1.641931	0.206626	-0.178533
H153	H	1.132819	-0.368122	-0.734954
H154	H	1.632819	0.131878	-0.234954
H155	H	1.078504	-0.297071	-0.729744
H156	H	1.578504	0.202929	-0.229744
H157	H	1.099720	-0.403944	-0.630028
H158	H	1.599720	0.096056	-0.130028
H159	H	1.045404	-0.332882	-0.624801
H160	H	1.545404	0.167118	-0.124801
C161	C	1.137135	-0.298529	-1.033586
C162	C	1.637135	0.201471	-0.533586
C163	C	1.097687	-0.341197	-0.986032
C164	C	1.597687	0.158803	-0.486032
H165	H	1.170232	-0.262735	-1.008454
H166	H	1.670232	0.237265	-0.508454
H167	H	1.161119	-0.337479	-1.064878
H168	H	1.661119	0.162521	-0.564878
H169	H	1.106807	-0.266426	-1.059667
H170	H	1.606807	0.233574	-0.559667
H171	H	1.128015	-0.373305	-0.959955
H172	H	1.628015	0.126695	-0.459955
H173	H	1.073701	-0.302241	-0.954727
H174	H	1.573701	0.197759	-0.454727
C175	C	1.023979	-0.325232	-0.848832
C176	C	1.523979	0.174768	-0.348832
C177	C	1.062902	-0.378819	-0.810431
C178	C	1.562902	0.121181	-0.310431
H179	H	1.054984	-0.291688	-0.873582
H180	H	1.554984	0.208312	-0.373582
H181	H	0.994499	-0.357115	-0.881412
H182	H	1.494499	0.142885	-0.381412
H183	H	0.996067	-0.290541	-0.817542
H184	H	1.496067	0.209459	-0.317542
H185	H	1.090811	-0.413514	-0.841722
H186	H	1.590811	0.086486	-0.341722
H187	H	1.092394	-0.346933	-0.777848
H188	H	1.592394	0.153067	-0.277848
C189	C	0.577535	-0.549542	-0.549819
C190	C	1.077535	-0.049542	-0.049819
C191	C	0.561942	-0.563351	-0.480057
C192	C	1.061942	-0.063351	0.019943
H193	H	0.549804	-0.585939	-0.580750
H194	H	1.049804	-0.085939	-0.080750
H195	H	0.567599	-0.493442	-0.557412
H196	H	1.067599	0.006558	-0.057412
H197	H	0.625777	-0.559893	-0.558609
H198	H	1.125777	-0.059893	-0.058609
H199	H	0.513701	-0.552993	-0.471265
H200	H	1.013701	-0.052993	0.028735
H201	H	0.571873	-0.619464	-0.472461
H202	H	1.071873	-0.119464	0.027539
H203	H	0.240934	-0.581239	-0.495289
H204	H	0.740934	-0.081239	0.004711
H205	H	1.042052	-0.952260	-0.342319
H206	H	1.542052	-0.452260	0.157681
H207	H	0.878496	-0.578226	-0.801029
H208	H	1.378496	-0.078226	-0.301029
C209	C	1.078195	-0.362240	-1.212719
C210	C	1.578195	0.137760	-0.712719
C211	C	1.091206	-0.348184	-1.140367
C212	C	1.591206	0.151816	-0.640367
H213	H	1.109196	-0.328701	-1.237478
H214	H	1.609196	0.171299	-0.737478
H215	H	1.085442	-0.419293	-1.227485
H216	H	1.585442	0.080707	-0.727485
H217	H	1.031126	-0.348243	-1.222264
H218	H	1.531126	0.151757	-0.722264
H219	H	1.138274	-0.362187	-1.130822
H220	H	1.638274	0.137813	-0.630822
H221	H	1.083965	-0.291118	-1.125596
H222	H	1.583965	0.208882	-0.625596
C223	C	0.298530	-0.317498	-0.271057
C224	C	0.798530	0.182502	0.228943
C225	C	0.247190	-0.363797	-0.310415
C226	C	0.747190	0.136203	0.189585
H227	H	0.276575	-0.278648	-0.238033
H228	H	0.776575	0.221352	0.261967
H229	H	0.326593	-0.353953	-0.246762
H230	H	0.826593	0.146047	0.253238
H231	H	0.327233	-0.288480	-0.301687
H232	H	0.827233	0.211520	0.198313
H233	H	0.218491	-0.392820	-0.279786
H234	H	0.718491	0.107180	0.220214
H235	H	0.219116	-0.327337	-0.334712
H236	H	0.719116	0.172663	0.165288
C237	C	0.853438	-0.605278	-1.093961
C238	C	1.353438	-0.105278	-0.593961
C239	C	0.892896	-0.562618	-1.141512
C240	C	1.392896	-0.062618	-0.641512
H241	H	0.820335	-0.641061	-1.119094
H242	H	1.320335	-0.141061	-0.619094
H243	H	0.883754	-0.637384	-1.067881
H244	H	1.383754	-0.137384	-0.567881
H245	H	0.829455	-0.566316	-1.062667
H246	H	1.329455	-0.066316	-0.562667
H247	H	0.916884	-0.601580	-1.172804
H248	H	1.416884	-0.101580	-0.672804
H249	H	0.862576	-0.530510	-1.167605
H250	H	1.362576	-0.030510	-0.667605
H251	H	0.373781	-0.587832	-0.500887
H252	H	0.873781	-0.087832	-0.000887
H253	H	0.912403	-0.541559	-0.997580
H254	H	1.412403	-0.041559	-0.497580
C255	C	0.757966	-0.528172	-0.531664
C256	C	1.257966	-0.028172	-0.031664
C257	C	0.715649	-0.570966	-0.486537
C258	C	1.215649	-0.070966	0.013463
H259	H	0.779918	-0.567020	-0.564692
H260	H	1.279918	-0.067020	-0.064692
H261	H	0.729898	-0.491718	-0.555954
H262	H	1.229898	0.008282	-0.055954
H263	H	0.792789	-0.496769	-0.504948
H264	H	1.292789	0.003231	-0.004948
H265	H	0.680823	-0.602365	-0.513253
H266	H	1.180823	-0.102365	-0.013253
H267	H	0.743719	-0.607435	-0.462245
H268	H	1.243719	-0.107435	0.037755
C269	C	0.827633	-0.633284	-0.705270
C270	C	1.327633	-0.133284	-0.205270
C271	C	0.871092	-0.586281	-0.657240
C272	C	1.371092	-0.086281	-0.157240
H273	H	0.796639	-0.666827	-0.680507
H274	H	1.296639	-0.166827	-0.180507
H275	H	0.801232	-0.596935	-0.731321
H276	H	1.301232	-0.096935	-0.231321
H277	H	0.855556	-0.667977	-0.736548
H278	H	1.355556	-0.167977	-0.236548
H279	H	0.843169	-0.551582	-0.625965
H280	H	1.343169	-0.051582	-0.125965
H281	H	0.897495	-0.622633	-0.631178
H282	H	1.397495	-0.122633	-0.131178
