data_functionalizedCrystal
_audit_creation_method	'MofGen! by Chris Wilmer'
_symmetry_space_group_name_H-M	'P1'
_symmetry_Int_Tables_number	1
_symmetry_cell_setting	triclinic
loop_
_symmetry_equiv_pos_as_xyz
  x,y,z
_cell_length_a	12.645330
_cell_length_b	16.120490
_cell_length_c	16.120297
_cell_angle_alpha	90.129683
_cell_angle_beta	92.876762
_cell_angle_gamma	87.110278
loop_
_atom_site_label
_atom_site_type_symbol
_atom_site_fract_x
_atom_site_fract_y
_atom_site_fract_z
Zn1	Zn	-0.537167	1.247488	-0.534565
Zn2	Zn	-0.203834	1.580822	-0.201232
Zn3	Zn	0.129500	1.914155	0.132102
Zn4	Zn	-0.705929	1.254452	-0.395517
Zn5	Zn	-0.372596	1.587785	-0.062184
Zn6	Zn	-0.039263	1.921119	0.271150
Zn7	Zn	-0.519244	1.115476	-0.388485
Zn8	Zn	-0.185911	1.448810	-0.055152
Zn9	Zn	0.147423	1.782143	0.278181
Zn10	Zn	-0.704943	1.108408	-0.527490
Zn11	Zn	-0.371610	1.441741	-0.194156
Zn12	Zn	-0.038276	1.775074	0.139177
O13	O	-0.616821	1.181456	-0.461514
O14	O	-0.283487	1.514789	-0.128181
O15	O	0.049846	1.848123	0.205152
O16	O	-0.567467	1.364779	-0.522024
O17	O	-0.234134	1.698113	-0.188691
O18	O	0.099199	2.031446	0.144643
O19	O	-0.674077	1.241889	-0.278218
O20	O	-0.340744	1.575223	0.055115
O21	O	-0.007410	1.908556	0.388448
O22	O	-0.373278	1.133032	-0.407881
O23	O	-0.039945	1.466365	-0.074548
O24	O	0.293388	1.799699	0.258785
O25	O	-0.691456	1.369896	-0.419866
O26	O	-0.358123	1.703229	-0.086532
O27	O	-0.024790	2.036562	0.246801
O28	O	-0.386446	1.230021	-0.515206
O29	O	-0.053113	1.563354	-0.181872
O30	O	0.280220	1.896687	0.151461
O31	O	-0.536920	1.139785	-0.273052
O32	O	-0.203587	1.473118	0.060281
O33	O	0.129747	1.806451	0.393615
O34	O	-0.535964	0.998171	-0.401021
O35	O	-0.202630	1.331505	-0.067687
O36	O	0.130703	1.664838	0.265646
O37	O	-0.689775	1.120984	-0.644794
O38	O	-0.356442	1.454317	-0.311461
O39	O	-0.023108	1.787651	0.021872
O40	O	-0.672396	0.992978	-0.503147
O41	O	-0.339063	1.326311	-0.169813
O42	O	-0.005729	1.659644	0.163520
O43	O	-0.566511	1.223166	-0.649993
O44	O	-0.233178	1.556499	-0.316659
O45	O	0.100156	1.889833	0.016674
O46	O	-0.854142	1.235035	-0.413005
O47	O	-0.520808	1.568368	-0.079672
O48	O	-0.187475	1.901701	0.253662
O49	O	-0.853417	1.127737	-0.509965
O50	O	-0.520084	1.461070	-0.176632
O51	O	-0.186750	1.794403	0.156702
C52	C	-0.602129	0.965402	-0.450553
C53	C	-0.268795	1.298735	-0.117220
C54	C	0.064538	1.632068	0.216113
C55	C	-0.595870	0.872972	-0.445884
C56	C	-0.262537	1.206305	-0.112551
C57	C	0.070797	1.539638	0.220783
C58	C	-0.892246	1.181396	-0.461500
C59	C	-0.558912	1.514729	-0.128166
C60	C	-0.225579	1.848063	0.205167
C61	C	-1.010080	1.181445	-0.461525
C62	C	-0.676747	1.514778	-0.128192
C63	C	-0.343414	1.848112	0.205142
C64	C	-0.649277	0.660014	-0.485737
C65	C	-0.315944	0.993347	-0.152403
C66	C	0.017390	1.326681	0.180930
C67	C	-0.584453	0.703746	-0.437358
C68	C	-0.251120	1.037079	-0.104024
C69	C	0.082214	1.370413	0.229309
C70	C	-0.590807	0.797912	-0.442103
C71	C	-0.257474	1.131245	-0.108770
C72	C	0.075859	1.464579	0.224564
C73	C	-0.642924	0.565839	-0.480992
C74	C	-0.309591	0.899173	-0.147659
C75	C	0.023743	1.232506	0.185674
C76	C	-1.177263	1.114198	-0.522734
C77	C	-0.843929	1.447532	-0.189401
C78	C	-0.510596	1.780865	0.143933
C79	C	-1.054668	1.113882	-0.522510
C80	C	-0.721335	1.447215	-0.189177
C81	C	-0.388002	1.780548	0.144157
C82	C	-1.047694	1.162167	-0.372689
C83	C	-0.714361	1.495500	-0.039355
C84	C	-0.381027	1.828834	0.293978
C85	C	-1.170290	1.161757	-0.373060
C86	C	-0.836957	1.495090	-0.039727
C87	C	-0.503623	1.828423	0.293607
C88	C	-1.184529	1.268397	-0.488461
C89	C	-0.851195	1.601730	-0.155128
C90	C	-0.517862	1.935063	0.178205
C91	C	-1.062002	1.267760	-0.490350
C92	C	-0.728669	1.601093	-0.157017
C93	C	-0.395336	1.934426	0.176316
C94	C	-0.340323	1.181538	-0.461548
C95	C	-0.006990	1.514871	-0.128215
C96	C	0.326344	1.848205	0.205118
C97	C	-0.222496	1.181573	-0.461563
C98	C	0.110837	1.514906	-0.128230
C99	C	0.444171	1.848240	0.205104
C100	C	-0.630032	1.170510	-0.678409
C101	C	-0.296699	1.503843	-0.345076
C102	C	0.036634	1.837176	-0.011743
C103	C	-0.635662	1.165845	-0.770837
C104	C	-0.302329	1.499179	-0.437504
C105	C	0.031005	1.832512	-0.104171
C106	C	-0.631571	1.398354	-0.472518
C107	C	-0.298238	1.731687	-0.139185
C108	C	0.035096	2.065021	0.194148
C109	C	-0.637857	1.490783	-0.477208
C110	C	-0.304523	1.824116	-0.143874
C111	C	0.028810	2.157450	0.189459
C112	C	-0.645915	1.157298	-0.940063
C113	C	-0.312582	1.490632	-0.606729
C114	C	0.020751	1.823965	-0.273396
C115	C	-0.587420	1.205778	-0.983826
C116	C	-0.254086	1.539111	-0.650493
C117	C	0.079247	1.872444	-0.317159
C118	C	-0.593125	1.201022	-1.077989
C119	C	-0.259791	1.534355	-0.744655
C120	C	0.073542	1.867689	-0.411322
C121	C	-0.640212	1.162053	-0.845891
C122	C	-0.306878	1.495386	-0.512558
C123	C	0.026455	1.828719	-0.179225
C124	C	-0.603587	1.192408	-0.245465
C125	C	-0.270254	1.525741	0.087868
C126	C	0.063079	1.859074	0.421201
C127	C	-0.597670	1.197233	-0.153046
C128	C	-0.264337	1.530567	0.180287
C129	C	0.068997	1.863900	0.513621
H130	H	-0.524183	0.670466	-0.392375
H131	H	-0.190850	1.003799	-0.059042
H132	H	0.142483	1.337132	0.274292
H133	H	-0.709543	0.693292	-0.530715
H134	H	-0.376209	1.026626	-0.197382
H135	H	-0.042876	1.359959	0.135952
H136	H	-1.029504	1.125428	-0.588242
H137	H	-0.696170	1.458761	-0.254909
H138	H	-0.362837	1.792095	0.078424
Br139	Br	-1.219713	1.240390	-0.294101
Br140	Br	-0.886379	1.573723	0.039233
Br141	Br	-0.553046	1.907057	0.372566
H142	H	-1.032101	1.320244	-0.449395
H143	H	-0.698767	1.653578	-0.116061
H144	H	-0.365434	1.986911	0.217272
H145	H	-1.220691	1.286851	-0.552374
H146	H	-0.887357	1.620184	-0.219041
H147	H	-0.554024	1.953518	0.114292
Br148	Br	-0.496833	1.280928	-0.928410
Br149	Br	-0.163500	1.614261	-0.595077
Br150	Br	0.169833	1.947594	-0.261743
H151	H	-1.211668	1.125598	-0.588672
H152	H	-0.878335	1.458931	-0.255339
H153	H	-0.545001	1.792264	0.077994
H154	H	-1.020095	1.049425	-0.504339
H155	H	-0.686761	1.382758	-0.171005
H156	H	-0.353428	1.716092	0.162328
Br157	Br	-1.219961	1.007430	-0.492821
Br158	Br	-0.886628	1.340764	-0.159488
Br159	Br	-0.553294	1.674097	0.173846
Br160	Br	-1.208898	1.056193	-0.335942
Br161	Br	-0.875565	1.389527	-0.002609
Br162	Br	-0.542232	1.722860	0.330725
H163	H	-0.700276	1.112226	-0.973312
H164	H	-0.366943	1.445560	-0.639979
H165	H	-0.033610	1.778893	-0.306646
H166	H	-1.018584	1.209880	-0.325671
H167	H	-0.685251	1.543214	0.007663
H168	H	-0.351918	1.876547	0.340996
Br169	Br	-0.987503	1.057747	-0.335052
Br170	Br	-0.654170	1.391080	-0.001719
Br171	Br	-0.320837	1.724414	0.331615
H172	H	-1.213885	1.318538	-0.443962
H173	H	-0.880551	1.651871	-0.110629
H174	H	-0.547218	1.985204	0.222705
Br175	Br	-1.022033	1.292129	-0.599357
Br176	Br	-0.688699	1.625463	-0.266024
Br177	Br	-0.355366	1.958796	0.067309
