data_functionalizedCrystal
_audit_creation_method	'MofGen! by Chris Wilmer'
_symmetry_space_group_name_H-M	'P1'
_symmetry_Int_Tables_number	1
_symmetry_cell_setting	triclinic
loop_
_symmetry_equiv_pos_as_xyz
  x,y,z
_cell_length_a	10.489741
_cell_length_b	17.699083
_cell_length_c	16.776229
_cell_angle_alpha	90.007545
_cell_angle_beta	90.004427
_cell_angle_gamma	83.911094
loop_
_atom_site_label
_atom_site_type_symbol
_atom_site_fract_x
_atom_site_fract_y
_atom_site_fract_z
O1	O	-1.692074	-0.106782	-0.066241
O2	O	-1.320692	-0.116805	-0.066253
O3	O	-1.516876	-0.001673	-0.066240
O4	O	-1.495891	-0.221914	-0.066254
O5	O	-1.516850	-0.001666	0.066337
O6	O	-1.320666	-0.116798	0.066323
O7	O	-1.692048	-0.106775	0.066336
Zn8	Zn	-1.506353	-0.111785	0.087379
Zn9	Zn	-1.506387	-0.111795	-0.087296
O10	O	-1.495865	-0.221907	0.066322
C11	C	-1.273162	-0.116044	0.000033
C12	C	-1.131574	-0.113779	0.000029
C13	C	-1.516111	0.026533	0.000049
C14	C	-1.513855	0.110565	0.000049
C15	C	-1.739579	-0.107535	0.000047
C16	C	-1.881166	-0.109800	0.000047
C17	C	-1.064795	-0.040524	0.000041
C18	C	-0.972038	-0.075133	-0.065327
C19	C	-0.972046	-0.075143	0.065384
C20	C	-1.040682	-0.148418	-0.065393
C21	C	-1.040700	-0.148418	0.065376
C22	C	-0.947970	-0.183080	-0.000008
C23	C	-1.496630	-0.250112	0.000032
C24	C	-1.498886	-0.334145	0.000027
N25	N	-1.506339	-0.111778	0.206590
C26	C	-1.629011	0.158433	0.000054
C27	C	-1.626883	0.237390	0.000047
C28	C	-1.509599	0.268478	0.000040
C29	C	-1.394435	0.220605	0.000033
C30	C	-1.396563	0.141649	0.000034
C31	C	-1.385848	0.539024	0.000026
C32	C	-1.383729	0.617986	0.000027
C33	C	-1.616168	0.634765	0.000039
C34	C	-1.618297	0.555810	0.000040
C35	C	-1.503133	0.507943	0.000028
C36	C	-1.505441	0.422328	0.000035
C37	C	-1.507290	0.354091	0.000040
N38	N	-1.506412	-0.111796	-0.206508
C39	C	-1.593236	-0.060819	0.248313
C40	C	-1.593243	-0.060818	0.331765
C41	C	-1.506358	-0.111781	0.373493
C42	C	-1.419453	-0.162743	0.331764
C43	C	-1.419441	-0.162739	0.248313
C44	C	-1.419499	-0.162758	0.668311
C45	C	-1.419520	-0.162759	0.751768
C46	C	-1.593301	-0.060837	0.751763
C47	C	-1.593289	-0.060833	0.668313
C48	C	-1.506379	-0.111792	0.626591
C49	C	-1.506371	-0.111791	0.536103
C50	C	-1.506372	-0.111786	0.463980
H51	H	-0.941611	-0.044140	-0.120587
O52	O	-1.755517	0.124910	0.000061
H53	H	-1.737655	0.061965	0.000069
H54	H	-1.348679	-0.204234	0.214343
O55	O	-1.080740	-0.189443	-0.138688
H56	H	-1.052583	-0.159204	-0.192816
H57	H	-1.298940	0.245923	0.000023
H58	H	-1.663999	-0.019323	0.365736
O59	O	-1.272359	0.090017	0.000030
H60	H	-1.267764	0.053645	0.054063
H61	H	-1.709940	0.673748	0.000044
O62	O	-0.881024	-0.262934	-0.000044
H63	H	-0.908511	-0.293155	-0.054356
O64	O	-1.686942	-0.005849	0.203308
H65	H	-1.747357	0.029592	0.246344
H66	H	-1.288216	0.643294	0.000024
O67	O	-1.686991	-0.005863	0.623304
H68	H	-1.747409	0.029579	0.666338
H69	H	-1.348764	-0.204261	0.785741
H70	H	-0.941634	-0.044131	0.120647
H71	H	-1.292075	0.500060	0.000017
O72	O	-1.744795	0.522277	0.000048
H73	H	-1.751321	0.486695	-0.053985
H74	H	-1.071160	-0.179386	0.120639
H75	H	-1.720655	0.276362	0.000053
O76	O	-1.687033	-0.005864	0.796761
H77	H	-1.672441	-0.014418	0.861800
H78	H	-1.348704	-0.204235	0.365743
O79	O	-1.131996	0.039269	-0.000008
H80	H	-1.104667	0.069498	-0.054341
O81	O	-1.325778	-0.217724	0.623315
H82	H	-1.265379	-0.253167	0.666353
