data_functionalizedCrystal
_audit_creation_method	'MofGen! by Chris Wilmer'
_symmetry_space_group_name_H-M	'P1'
_symmetry_Int_Tables_number	1
_symmetry_cell_setting	triclinic
loop_
_symmetry_equiv_pos_as_xyz
  x,y,z
_cell_length_a	10.723022
_cell_length_b	10.540539
_cell_length_c	9.198806
_cell_angle_alpha	89.998955
_cell_angle_beta	89.996352
_cell_angle_gamma	84.496359
loop_
_atom_site_label
_atom_site_type_symbol
_atom_site_fract_x
_atom_site_fract_y
_atom_site_fract_z
O1	O	1.657277	0.178036	-0.120876
O2	O	2.157277	0.678036	0.379124
O3	O	1.294133	0.195081	-0.120880
O4	O	1.794133	0.695081	0.379120
O5	O	1.483990	0.001848	-0.120876
O6	O	1.983990	0.501848	0.379124
O7	O	1.467420	0.371270	-0.120880
O8	O	1.967420	0.871270	0.379120
O9	O	1.483975	0.001847	0.120909
O10	O	1.983975	0.501847	0.620909
O11	O	1.294118	0.195081	0.120905
O12	O	1.794118	0.695081	0.620905
O13	O	1.657262	0.178036	0.120909
O14	O	2.157262	0.678036	0.620909
Cu15	Cu	1.475689	0.186558	0.142984
Cu16	Cu	1.975689	0.686558	0.642984
Cu17	Cu	1.475707	0.186559	-0.142955
Cu18	Cu	1.975707	0.686559	0.357045
O19	O	1.467405	0.371269	0.120905
O20	O	1.967405	0.871269	0.620905
C21	C	1.247625	0.193841	0.000012
C22	C	1.747625	0.693841	0.500012
C23	C	1.109069	0.190131	0.000010
C24	C	1.609069	0.690131	0.500010
C25	C	0.890943	0.294417	0.000006
C26	C	1.390943	0.794417	0.500006
C27	C	1.034147	0.298254	0.000008
C28	C	1.534147	0.798254	0.500008
C29	C	1.482740	-0.045455	0.000014
C30	C	1.982740	0.454545	0.500014
C31	C	1.479022	-0.186401	0.000006
C32	C	1.979022	0.313599	0.500006
C33	C	1.336564	-0.369754	-0.000538
C34	C	1.836564	0.130246	0.499462
C35	C	1.340333	-0.223137	0.000006
C36	C	1.840333	0.276863	0.500006
C37	C	1.545757	-0.248093	0.138078
C38	C	2.045757	0.251907	0.638078
C39	C	1.541024	-0.394635	0.138194
C40	C	2.041024	0.105365	0.638194
C41	C	1.543862	-0.395155	-0.136760
C42	C	2.043862	0.104845	0.363240
C43	C	1.545139	-0.248173	-0.138586
C44	C	2.045139	0.251827	0.361414
C45	C	1.703770	0.179276	0.000014
C46	C	2.203770	0.679276	0.500014
C47	C	1.842326	0.182986	0.000007
C48	C	2.342326	0.682986	0.500007
N49	N	1.475685	0.186557	0.344098
N50	N	1.975685	0.686557	0.844098
C51	C	1.468655	0.418572	0.000012
C52	C	1.968655	0.918572	0.500012
C53	C	1.472373	0.559518	0.000011
C54	C	1.972373	1.059518	0.500011
N55	N	1.475720	0.186550	-0.344069
N56	N	1.975720	0.686550	0.155931
C57	C	1.555401	0.105066	0.416297
C58	C	2.055401	0.605066	0.916297
C59	C	1.555420	0.105062	0.583709
C60	C	2.055420	0.605062	1.083709
H61	H	1.067218	0.094720	-0.000028
H62	H	1.567218	0.594720	0.499972
Cl63	Cl	0.791529	0.437330	-0.000012
Cl64	Cl	1.291529	0.937330	0.499988
H65	H	1.491691	-0.422810	0.241405
H66	H	1.991691	0.077190	0.741405
H67	H	0.906723	0.090427	-0.000001
H68	H	1.406723	0.590427	0.499999
H69	H	1.407447	0.256317	0.406225
H70	H	1.907447	0.756317	0.906225
H71	H	1.076007	0.393660	0.000016
H72	H	1.576007	0.893660	0.500016
Cl73	Cl	1.251981	-0.413862	-0.153409
Cl74	Cl	1.751981	0.086138	0.346591
Cl75	Cl	1.259258	-0.157313	-0.152803
Cl76	Cl	1.759258	0.342687	0.347197
H77	H	1.281996	-0.399933	0.097920
H78	H	1.781996	0.100067	0.597920
Cl79	Cl	1.258668	-0.158617	0.153067
Cl80	Cl	1.758668	0.341383	0.653067
Cl81	Cl	1.695013	-0.468781	0.147888
Cl82	Cl	2.195013	0.031219	0.647888
H83	H	1.647606	-0.225792	0.143213
H84	H	2.147606	0.274208	0.643213
H85	H	1.499387	-0.205470	0.240826
H86	H	1.999387	0.294530	0.740826
Cl87	Cl	1.474558	-0.443813	-0.298333
Cl88	Cl	1.974558	0.056187	0.201667
Cl89	Cl	1.470382	-0.184304	-0.296312
Cl90	Cl	1.970382	0.315696	0.203688
Cl91	Cl	1.698521	-0.468150	-0.138197
Cl92	Cl	2.198521	0.031850	0.361803
Cl93	Cl	1.701255	-0.210854	-0.151468
Cl94	Cl	2.201255	0.289146	0.348532
H95	H	1.623630	0.035296	0.354172
H96	H	2.123630	0.535296	0.854172
H97	H	1.407473	0.256326	0.593853
H98	H	1.907473	0.756326	1.093853
Cl99	Cl	1.660801	-0.002653	0.679562
Cl100	Cl	2.160801	0.497347	1.179562
